
#######################################################################
#
#                 Cambridge Crystallographic Data Centre
#                                CCDC 
#
#######################################################################
#
# If this CIF has been generated from an entry in the Cambridge 
# Structural Database, then it will include bibliographic, chemical, 
# crystal, experimental, refinement or atomic coordinate data resulting 
# from the CCDC's data processing and validation procedures.
#
#######################################################################

data_ZUYYOJ
_chemical_formula_moiety         'C29 H32 N2 O4 S1'
_chemical_name_systematic        
(R)-5,7-Dimethoxy-2,2,4-trimethyl-4-(1-p-tosyl-1H-indol-3-yl)-1,2,3,4-tetrahydroquinoline
_symmetry_cell_setting           monoclinic
_symmetry_space_group_name_H-M   'P 21'
_symmetry_Int_Tables_number      4
_space_group_name_Hall           'P 2yb'
loop_
_symmetry_equiv_pos_site_id
_symmetry_equiv_pos_as_xyz
1 x,y,z
2 -x,1/2+y,-z
_cell_length_a                   12.9590(2)
_cell_length_b                   7.94026(11)
_cell_length_c                   14.0403(2)
_cell_angle_alpha                90
_cell_angle_beta                 116.595(2)
_cell_angle_gamma                90
_cell_volume                     1291.86
_exptl_crystal_colour            colorless
_exptl_crystal_description       needle-like
_cell_formula_units_Z            2
_exptl_crystal_recrystallization_method 'Ethyl acetate/isopropanol'
loop_
_atom_site_label
_atom_site_type_symbol
_atom_site_fract_x
_atom_site_fract_y
_atom_site_fract_z
S1 S 0.15466(5) 0.71499(8) -0.26939(4)
O1 O 0.07980(15) 0.8568(2) -0.30776(14)
O2 O 0.31054(15) 0.2813(2) 0.05138(13)
O3 O 0.25170(14) 0.7025(3) -0.29153(12)
O4 O 0.34796(15) 0.1311(3) 0.40072(13)
N1 N 0.20811(15) 0.7120(3) -0.13871(14)
N2 N 0.50100(17) 0.6447(3) 0.35204(15)
H1 H 0.4949 0.6875 0.4055
C1 C 0.0707(2) 0.5308(4) -0.31181(19)
C2 C 0.44541(19) 0.4950(3) 0.30690(18)
C3 C 0.0275(2) 0.2478(4) -0.28350(19)
H2 H 0.0441 0.1533 -0.2400
C4 C 0.40903(19) 0.4592(3) 0.19790(18)
C5 C -0.0194(2) 0.5288(4) -0.41463(19)
H3 H -0.0349 0.6229 -0.4583
C6 C 0.14761(19) 0.7384(3) -0.07778(18)
C7 C 0.31726(18) 0.6431(3) -0.07075(18)
H4 H 0.3728 0.6112 -0.0921
C8 C -0.06548(19) 0.2437(4) -0.38584(19)
C9 C -0.0855(2) 0.3848(4) -0.45081(19)
H5 H -0.1447 0.3819 -0.5200
C10 C 0.0950(2) 0.3906(4) -0.24643(19)
H6 H 0.1562 0.3926 -0.1783
C11 C 0.32911(19) 0.6306(3) 0.02916(18)
C12 C 0.3467(2) 0.3100(4) 0.15834(18)
C13 C 0.43779(19) 0.5778(3) 0.12685(18)
C14 C 0.18594(19) 0.7146(4) 0.10674(18)
H7 H 0.2336 0.6854 0.1771
C15 C 0.22252(18) 0.6917(3) 0.02729(17)
C16 C 0.4223(2) 0.3814(4) 0.37143(18)
H8 H 0.4478 0.4051 0.4433
C17 C 0.49172(19) 0.7435(3) 0.18762(17)
H9 H 0.5359 0.7947 0.1548
H10 H 0.4293 0.8202 0.1774
C18 C 0.2572(2) 0.1236(3) 0.00874(19)
H11 H 0.2427 0.1157 -0.0644
H12 H 0.1857 0.1153 0.0133
H13 H 0.3075 0.0337 0.0487
C19 C 0.5994(2) 0.9043(4) 0.3551(2)
H14 H 0.5294 0.9661 0.3370
H15 H 0.6452 0.9617 0.3272
H16 H 0.6420 0.8961 0.4312
C20 C 0.0774(2) 0.7816(4) 0.0778(2)
H17 H 0.0529 0.7995 0.1299
C21 C 0.3220(2) 0.1968(4) 0.22141(18)
H18 H 0.2801 0.0990 0.1927
C22 C 0.36259(19) 0.2359(4) 0.32937(18)
C23 C 0.5207(2) 0.4905(4) 0.09090(19)
H19 H 0.5872 0.4503 0.1522
H20 H 0.5445 0.5695 0.0529
H21 H 0.4820 0.3974 0.0452
C24 C 0.57025(19) 0.7288(4) 0.30746(17)
C25 C -0.1435(2) 0.0940(4) -0.4240(2)
H22 H -0.1005 -0.0018 -0.4282
H23 H -0.2052 0.1172 -0.4932
H24 H -0.1750 0.0706 -0.3752
C26 C 0.6824(2) 0.6317(4) 0.3356(2)
H25 H 0.7322 0.6422 0.4105
H26 H 0.7202 0.6770 0.2961
H27 H 0.6649 0.5150 0.3178
C27 C 0.0370(2) 0.8014(4) -0.1080(2)
H28 H -0.0120 0.8277 -0.1786
C28 C 0.2922(2) -0.0266(4) 0.3627(2)
H29 H 0.2140 -0.0076 0.3105
H30 H 0.2925 -0.0899 0.4211
H31 H 0.3325 -0.0885 0.3310
C29 C 0.0037(2) 0.8230(4) -0.0281(2)
H32 H -0.0693 0.8659 -0.0450
loop_
_geom_bond_atom_site_label_1
_geom_bond_atom_site_label_2
_geom_bond_site_symmetry_1
_geom_bond_site_symmetry_2
S1 O1 1_555 1_555
O2 C12 1_555 1_555
O3 S1 1_555 1_555
O4 C22 1_555 1_555
N1 S1 1_555 1_555
N2 H1 1_555 1_555
C1 S1 1_555 1_555
C2 N2 1_555 1_555
C3 H2 1_555 1_555
C4 C2 1_555 1_555
C5 C1 1_555 1_555
H3 C5 1_555 1_555
C6 N1 1_555 1_555
C7 N1 1_555 1_555
H4 C7 1_555 1_555
C8 C3 1_555 1_555
C9 C5 1_555 1_555
H5 C9 1_555 1_555
C10 C1 1_555 1_555
H6 C10 1_555 1_555
C11 C7 1_555 1_555
C12 C4 1_555 1_555
C13 C4 1_555 1_555
C14 H7 1_555 1_555
C15 C6 1_555 1_555
C16 C2 1_555 1_555
H8 C16 1_555 1_555
C17 C13 1_555 1_555
H9 C17 1_555 1_555
H10 C17 1_555 1_555
C18 O2 1_555 1_555
H11 C18 1_555 1_555
H12 C18 1_555 1_555
H13 C18 1_555 1_555
C19 H14 1_555 1_555
H15 C19 1_555 1_555
H16 C19 1_555 1_555
C20 C14 1_555 1_555
H17 C20 1_555 1_555
C21 C12 1_555 1_555
H18 C21 1_555 1_555
C22 C16 1_555 1_555
C23 C13 1_555 1_555
H19 C23 1_555 1_555
H20 C23 1_555 1_555
H21 C23 1_555 1_555
C24 N2 1_555 1_555
C25 C8 1_555 1_555
H22 C25 1_555 1_555
H23 C25 1_555 1_555
H24 C25 1_555 1_555
C26 C24 1_555 1_555
H25 C26 1_555 1_555
H26 C26 1_555 1_555
H27 C26 1_555 1_555
C27 C6 1_555 1_555
H28 C27 1_555 1_555
C28 O4 1_555 1_555
H29 C28 1_555 1_555
H30 C28 1_555 1_555
H31 C28 1_555 1_555
C29 C20 1_555 1_555
H32 C29 1_555 1_555
C3 C10 1_555 1_555
C8 C9 1_555 1_555
C11 C13 1_555 1_555
C11 C15 1_555 1_555
C14 C15 1_555 1_555
C17 C24 1_555 1_555
C19 C24 1_555 1_555
C21 C22 1_555 1_555
C27 C29 1_555 1_555

#END
