
#######################################################################
#
#                 Cambridge Crystallographic Data Centre
#                                CCDC 
#
#######################################################################
#
# If this CIF has been generated from an entry in the Cambridge 
# Structural Database, then it will include bibliographic, chemical, 
# crystal, experimental, refinement or atomic coordinate data resulting 
# from the CCDC's data processing and validation procedures.
#
#######################################################################

data_ZUZBUT
_chemical_formula_moiety         'C34 H44 O7'
_chemical_name_systematic        
4-Hydroxy-5-isobutyryl-2,11-di-isopropyl-7,7,9,9,12a-pentamethyl-1a,2,3,3a,7,11,12a,12b-octahydro-8H-oxireno[6,7][1]benzofuro[2,3-a]xanthene-8,10(9H)-dione
_symmetry_cell_setting           orthorhombic
_symmetry_space_group_name_H-M   'P 21 21 21'
_symmetry_Int_Tables_number      19
_space_group_name_Hall           'P 2ac 2ab'
loop_
_symmetry_equiv_pos_site_id
_symmetry_equiv_pos_as_xyz
1 x,y,z
2 1/2-x,-y,1/2+z
3 1/2+x,1/2-y,-z
4 -x,1/2+y,1/2-z
_cell_length_a                   6.4131(2)
_cell_length_b                   14.8983(7)
_cell_length_c                   32.7256(14)
_cell_angle_alpha                90
_cell_angle_beta                 90
_cell_angle_gamma                90
_cell_volume                     3126.74
_exptl_crystal_colour            colorless
_exptl_crystal_description       blocks
_cell_formula_units_Z            4
_exptl_crystal_recrystallization_method methanol
loop_
_atom_site_label
_atom_site_type_symbol
_atom_site_fract_x
_atom_site_fract_y
_atom_site_fract_z
O1 O 0.1227(12) 1.0704(3) 1.05536(10)
O2 O 0.4667(5) 0.8546(2) 0.98249(9)
O3 O 0.8632(4) 0.9036(2) 0.78660(9)
O4 O 0.1306(5) 1.12232(18) 0.77062(7)
H1 H 0.0578 1.1657 0.7764
O5 O 0.0295(4) 1.05657(17) 0.91323(7)
O6 O -0.0874(5) 1.22118(19) 0.81440(8)
O7 O 0.4533(4) 0.87371(16) 0.82557(7)
C1 C 0.3231(7) 0.9081(3) 0.98379(11)
C2 C 0.2274(7) 0.9353(3) 1.02494(12)
C3 C 0.1376(9) 1.0292(3) 1.02418(12)
C4 C 0.0574(7) 1.0729(3) 0.98468(12)
C5 C 0.0599(6) 1.0917(2) 0.84239(11)
C6 C 0.1584(6) 1.0713(2) 0.80393(10)
C7 C 0.5879(7) 1.0265(3) 0.75324(12)
H2 H 0.5308 1.0805 0.7410
H3 H 0.6630 1.0438 0.7777
C8 C 0.7385(7) 0.9825(3) 0.72328(12)
H4 H 0.8539 1.0243 0.7186
C9 C 0.8274(6) 0.8991(3) 0.74326(12)
H5 H 0.9317 0.8661 0.7273
C10 C 0.7026(6) 0.8455(3) 0.77191(11)
H6 H 0.7350 0.7812 0.7726
C11 C 0.2535(6) 0.8916(2) 0.90717(11)
H7 H 0.3958 0.8677 0.9065
C12 C 0.1109(6) 1.0172(2) 0.94774(11)
C13 C 0.1063(6) 1.0316(2) 0.87512(10)
C14 C 0.2851(6) 0.9973(2) 0.80047(10)
C15 C 0.4800(6) 0.8696(3) 0.78078(10)
C16 C 0.3187(5) 0.9417(2) 0.83348(10)
C17 C 0.2262(6) 0.9430(2) 0.94633(11)
C18 C 0.4099(6) 0.9633(2) 0.76476(10)
H8 H 0.3176 0.9554 0.7412
C19 C 0.2280(6) 0.9555(2) 0.87192(10)
C20 C 0.0420(9) 0.8707(4) 1.03207(15)
H9 H 0.0920 0.8100 1.0328
H10 H -0.0240 0.8849 1.0576
H11 H -0.0569 0.8772 1.0103
C21 C 0.3885(9) 0.9256(4) 1.05915(13)
H12 H 0.4433 0.8656 1.0591
H13 H 0.4999 0.9676 1.0549
H14 H 0.3233 0.9374 1.0850
C22 C -0.1800(9) 1.0817(3) 0.98880(14)
H15 H -0.2124 1.1173 1.0124
H16 H -0.2353 1.1102 0.9648
H17 H -0.2406 1.0232 0.9917
C23 C 0.1581(8) 1.1666(3) 0.98154(14)
H18 H 0.1226 1.2012 1.0053
H19 H 0.3069 1.1604 0.9799
H20 H 0.1076 1.1965 0.9575
C24 C -0.0794(6) 1.1690(2) 0.84391(11)
C25 C -0.2324(6) 1.1866(3) 0.87894(12)
H21 H -0.1545 1.1874 0.9047
C26 C -0.3908(7) 1.1104(3) 0.88054(13)
H22 H -0.3191 1.0543 0.8837
H23 H -0.4832 1.1194 0.9032
H24 H -0.4699 1.1095 0.8556
C27 C -0.3412(9) 1.2755(3) 0.87394(15)
H25 H -0.2396 1.3227 0.8730
H26 H -0.4201 1.2752 0.8490
H27 H -0.4334 1.2851 0.8966
C28 C 0.6441(7) 0.9586(3) 0.68126(11)
H28 H 0.5495 0.9077 0.6852
C29 C 0.5189(11) 1.0347(4) 0.66338(15)
H29 H 0.4131 1.0526 0.6825
H30 H 0.6094 1.0846 0.6579
H31 H 0.4545 1.0153 0.6384
C30 C 0.8133(10) 0.9295(4) 0.65107(14)
H32 H 0.8923 0.8810 0.6626
H33 H 0.7493 0.9099 0.6261
H34 H 0.9042 0.9792 0.6455
C31 C 0.3407(7) 0.7951(3) 0.76528(11)
H35 H 0.3541 0.7904 0.7361
H36 H 0.3812 0.7394 0.7777
H37 H 0.1985 0.8082 0.7722
C32 C 0.0982(7) 0.8107(2) 0.90626(12)
H38 H 0.1150 0.7779 0.9320
C33 C -0.1283(8) 0.8411(3) 0.90380(14)
H39 H -0.1572 0.8820 0.9258
H40 H -0.1520 0.8707 0.8781
H41 H -0.2184 0.7899 0.9060
C34 C 0.1478(10) 0.7460(3) 0.87187(14)
H42 H 0.2909 0.7275 0.8738
H43 H 0.0588 0.6944 0.8739
H44 H 0.1253 0.7751 0.8461
loop_
_geom_bond_atom_site_label_1
_geom_bond_atom_site_label_2
_geom_bond_site_symmetry_1
_geom_bond_site_symmetry_2
O1 C3 1_555 1_555
O2 C1 1_555 1_555
O3 C9 1_555 1_555
O4 H1 1_555 1_555
O5 C12 1_555 1_555
O6 C24 1_555 1_555
O7 C15 1_555 1_555
C1 C2 1_555 1_555
C2 C3 1_555 1_555
C3 C4 1_555 1_555
C4 C12 1_555 1_555
C5 C6 1_555 1_555
C6 O4 1_555 1_555
C7 H2 1_555 1_555
H3 C7 1_555 1_555
C8 C7 1_555 1_555
H4 C8 1_555 1_555
C9 C8 1_555 1_555
H5 C9 1_555 1_555
C10 O3 1_555 1_555
H6 C10 1_555 1_555
C11 H7 1_555 1_555
C12 C17 1_555 1_555
C13 O5 1_555 1_555
C14 C6 1_555 1_555
C15 C10 1_555 1_555
C16 O7 1_555 1_555
C17 C1 1_555 1_555
C18 C7 1_555 1_555
H8 C18 1_555 1_555
C19 C11 1_555 1_555
C20 C2 1_555 1_555
H9 C20 1_555 1_555
H10 C20 1_555 1_555
H11 C20 1_555 1_555
C21 C2 1_555 1_555
H12 C21 1_555 1_555
H13 C21 1_555 1_555
H14 C21 1_555 1_555
C22 C4 1_555 1_555
H15 C22 1_555 1_555
H16 C22 1_555 1_555
H17 C22 1_555 1_555
C23 C4 1_555 1_555
H18 C23 1_555 1_555
H19 C23 1_555 1_555
H20 C23 1_555 1_555
C24 C5 1_555 1_555
C25 C24 1_555 1_555
H21 C25 1_555 1_555
C26 C25 1_555 1_555
H22 C26 1_555 1_555
H23 C26 1_555 1_555
H24 C26 1_555 1_555
C27 C25 1_555 1_555
H25 C27 1_555 1_555
H26 C27 1_555 1_555
H27 C27 1_555 1_555
C28 C8 1_555 1_555
H28 C28 1_555 1_555
C29 C28 1_555 1_555
H29 C29 1_555 1_555
H30 C29 1_555 1_555
H31 C29 1_555 1_555
C30 C28 1_555 1_555
H32 C30 1_555 1_555
H33 C30 1_555 1_555
H34 C30 1_555 1_555
C31 C15 1_555 1_555
H35 C31 1_555 1_555
H36 C31 1_555 1_555
H37 C31 1_555 1_555
C32 C11 1_555 1_555
H38 C32 1_555 1_555
C33 C32 1_555 1_555
H39 C33 1_555 1_555
H40 C33 1_555 1_555
H41 C33 1_555 1_555
C34 C32 1_555 1_555
H42 C34 1_555 1_555
H43 C34 1_555 1_555
H44 C34 1_555 1_555
C5 C13 1_555 1_555
C9 C10 1_555 1_555
C11 C17 1_555 1_555
C13 C19 1_555 1_555
C14 C16 1_555 1_555
C14 C18 1_555 1_555
C15 C18 1_555 1_555
C16 C19 1_555 1_555

#END
