
#######################################################################
#
#                 Cambridge Crystallographic Data Centre
#                                CCDC 
#
#######################################################################
#
# If this CIF has been generated from an entry in the Cambridge 
# Structural Database, then it will include bibliographic, chemical, 
# crystal, experimental, refinement or atomic coordinate data resulting 
# from the CCDC's data processing and validation procedures.
#
#######################################################################

data_ZUZCII
_chemical_name_common            'callistrilone B'
_chemical_formula_moiety         'C35 H46 O6'
_chemical_name_systematic        
6-Isobutyryl-10,13-di-isopropyl-12-methoxy-2,2,4,4,7a-pentamethyl-4,7a,10,11,11a,13-hexahydro-1H-[1]benzofuro[3,2-b]xanthene-1,3(2H)-dione
_symmetry_cell_setting           monoclinic
_symmetry_space_group_name_H-M   'P 1 1 21'
_symmetry_Int_Tables_number      4
_space_group_name_Hall           'P 2c'
loop_
_symmetry_equiv_pos_site_id
_symmetry_equiv_pos_as_xyz
1 x,y,z
2 -x,-y,1/2+z
_cell_length_a                   9.7832(7)
_cell_length_b                   24.3518(14)
_cell_length_c                   27.7523(19)
_cell_angle_alpha                90
_cell_angle_beta                 90
_cell_angle_gamma                90
_cell_volume                     6611.67
_exptl_crystal_colour            colorless
_exptl_crystal_description       block
_cell_formula_units_Z            8
loop_
_atom_site_label
_atom_site_type_symbol
_atom_site_fract_x
_atom_site_fract_y
_atom_site_fract_z
O1 O 1.1340(18) 0.5601(3) 0.4110(4)
O2 O 1.2480(13) 0.7039(3) 0.3105(3)
O3 O 0.9293(9) 0.7739(4) 0.5459(3)
O4 O 1.0914(8) 0.8906(2) 0.3507(2)
O5 O 1.0516(8) 0.7403(2) 0.4604(2)
O6 O 0.7575(8) 0.8982(3) 0.4743(2)
C1 C 1.2210(15) 0.6881(4) 0.3507(4)
C2 C 1.2459(15) 0.6261(4) 0.3629(4)
C3 C 1.1622(16) 0.6082(4) 0.4061(4)
C4 C 1.1077(13) 0.6461(4) 0.4447(4)
C5 C 0.9049(11) 0.8169(3) 0.4710(3)
C6 C 0.5991(12) 0.9242(4) 0.4121(4)
H1 H 0.5206 0.9156 0.4294
C7 C 0.5955(11) 0.9187(4) 0.3651(4)
H2 H 0.5156 0.9048 0.3517
C8 C 0.7096(12) 0.9329(4) 0.3312(4)
H3 H 0.7558 0.8987 0.3223
C9 C 0.8137(12) 0.9693(3) 0.3570(4)
H4 H 0.7773 1.0063 0.3590
H5 H 0.8965 0.9708 0.3378
C10 C 1.0269(9) 0.8683(3) 0.3899(3)
C11 C 1.1918(10) 0.7871(3) 0.3806(3)
H6 H 1.1865 0.7944 0.3459
C12 C 1.211(2) 0.5925(4) 0.3195(5)
H7 H 1.2649 0.6045 0.2926
H8 H 1.2293 0.5545 0.3259
H9 H 1.1156 0.5970 0.3121
C13 C 1.3952(18) 0.6201(5) 0.3780(7)
H10 H 1.4123 0.6424 0.4059
H11 H 1.4140 0.5823 0.3855
H12 H 1.4534 0.6318 0.3521
C14 C 0.9631(16) 0.6332(5) 0.4579(7)
H13 H 0.9328 0.6582 0.4824
H14 H 0.9059 0.6369 0.4300
H15 H 0.9576 0.5963 0.4698
C15 C 1.2036(19) 0.6407(5) 0.4899(4)
H16 H 1.2959 0.6490 0.4807
H17 H 1.1742 0.6658 0.5144
H18 H 1.1992 0.6038 0.5020
C16 C 0.8458(10) 0.7914(4) 0.5153(3)
C17 C 0.7032(15) 0.7868(5) 0.5227(5)
H19 H 0.6566 0.8167 0.5057
C18 C 0.6620(14) 0.7877(8) 0.5758(6)
H20 H 0.5644 0.7845 0.5784
H21 H 0.7046 0.7576 0.5923
H22 H 0.6909 0.8217 0.5901
C19 C 0.6595(14) 0.7305(6) 0.5000(7)
H23 H 0.5629 0.7254 0.5041
H24 H 0.6812 0.7305 0.4663
H25 H 0.7077 0.7012 0.5157
C20 C 0.6879(14) 0.9935(4) 0.4709(4)
H26 H 0.6647 1.0239 0.4506
H27 H 0.6116 0.9848 0.4913
H28 H 0.7654 1.0029 0.4904
C21 C 0.6508(15) 0.9592(5) 0.2839(5)
H29 H 0.5859 0.9327 0.2704
C22 C 0.5711(17) 1.0128(6) 0.2923(6)
H30 H 0.5006 1.0066 0.3157
H31 H 0.6324 1.0406 0.3039
H32 H 0.5307 1.0247 0.2626
C23 C 0.763(2) 0.9658(9) 0.2477(6)
H33 H 0.8095 0.9315 0.2436
H34 H 0.7246 0.9772 0.2174
H35 H 0.8263 0.9931 0.2588
C24 C 1.3311(11) 0.8078(4) 0.3995(4)
H36 H 1.3336 0.8474 0.3933
C25 C 1.4517(13) 0.7834(5) 0.3735(7)
H37 H 1.4404 0.7882 0.3394
H38 H 1.5339 0.8016 0.3838
H39 H 1.4580 0.7450 0.3808
C26 C 1.3476(14) 0.8005(5) 0.4537(5)
H40 H 1.2702 0.8161 0.4699
H41 H 1.3536 0.7621 0.4612
H42 H 1.4295 0.8187 0.4641
C27 C 1.1619(13) 0.9411(3) 0.3601(4)
H43 H 1.2041 0.9540 0.3310
H44 H 1.0980 0.9681 0.3715
H45 H 1.2308 0.9351 0.3842
C28 C 1.1162(10) 0.7071(3) 0.4279(3)
C29 C 1.0095(10) 0.7923(3) 0.4441(3)
C30 C 0.8612(9) 0.8680(3) 0.4525(3)
C31 C 0.7228(11) 0.9436(3) 0.4398(3)
C32 C 0.8501(11) 0.9498(3) 0.4077(3)
H46 H 0.9094 0.9776 0.4224
C33 C 1.0746(9) 0.8160(3) 0.4053(3)
C34 C 1.1759(10) 0.7257(3) 0.3888(3)
C35 C 0.9205(9) 0.8936(3) 0.4135(3)
O7 O 0.7270(14) 1.1904(3) 0.6415(3)
O8 O 0.8213(11) 1.0422(3) 0.7432(3)
O9 O 0.2386(13) 1.0341(3) 0.5952(4)
O10 O 0.6023(7) 0.8650(2) 0.7141(2)
O11 O 0.5186(8) 1.0205(2) 0.6147(3)
O12 O 0.2033(7) 0.8726(2) 0.6182(2)
C36 C 0.7680(11) 1.0610(4) 0.7078(4)
C37 C 0.7776(18) 1.1230(5) 0.6996(5)
C38 C 0.7054(15) 1.1434(4) 0.6540(5)
C39 C 0.6052(14) 1.1089(4) 0.6257(4)
C40 C 0.3567(11) 0.9498(4) 0.6142(4)
C41 C 0.0669(10) 0.8019(4) 0.6568(4)
H47 H -0.0067 0.8058 0.6359
C42 C 0.0413(9) 0.7850(5) 0.7004(4)
H48 H -0.0469 0.7733 0.7076
C43 C 0.1484(9) 0.7834(4) 0.7402(4)
H49 H 0.1033 0.7947 0.7701
C44 C 0.2552(10) 0.8263(4) 0.7285(4)
H50 H 0.3274 0.8246 0.7524
H51 H 0.2139 0.8624 0.7303
C45 C 0.5184(9) 0.8896(3) 0.6801(3)
C46 C 0.6974(9) 0.9650(3) 0.6806(3)
H52 H 0.7078 0.9573 0.7151
C47 C 0.705(3) 1.1508(6) 0.7447(6)
H53 H 0.6092 1.1419 0.7445
H54 H 0.7456 1.1375 0.7739
H55 H 0.7157 1.1900 0.7430
C48 C 0.920(2) 1.1374(8) 0.7014(12)
H56 H 0.9297 1.1762 0.6964
H57 H 0.9565 1.1278 0.7323
H58 H 0.9683 1.1179 0.6767
C49 C 0.4584(18) 1.1324(6) 0.6383(9)
H59 H 0.4530 1.1702 0.6285
H60 H 0.3900 1.1115 0.6216
H61 H 0.4432 1.1298 0.6724
C50 C 0.638(2) 1.1129(4) 0.5726(5)
H62 H 0.6336 1.1506 0.5627
H63 H 0.7276 1.0987 0.5668
H64 H 0.5720 1.0919 0.5546
C51 C 0.2596(12) 0.9849(5) 0.5850(4)
C52 C 0.1876(12) 0.9622(5) 0.5446(4)
H65 H 0.1343 0.9307 0.5560
C53 C 0.303(3) 0.9400(10) 0.5085(6)
H66 H 0.2603 0.9243 0.4806
H67 H 0.3607 0.9699 0.4989
H68 H 0.3569 0.9126 0.5245
C54 C 0.0971(13) 0.9978(8) 0.5170(6)
H69 H 0.0562 0.9772 0.4913
H70 H 0.0268 1.0119 0.5378
H71 H 0.1487 1.0278 0.5039
C55 C 0.2514(10) 0.7782(4) 0.5971(3)
H72 H 0.2553 0.7410 0.6085
H73 H 0.1865 0.7807 0.5712
H74 H 0.3400 0.7891 0.5857
C56 C 0.2068(13) 0.7250(4) 0.7484(4)
H75 H 0.2666 0.7158 0.7212
C57 C 0.0929(14) 0.6818(4) 0.7514(5)
H76 H 0.0390 0.6830 0.7225
H77 H 0.1326 0.6460 0.7549
H78 H 0.0357 0.6895 0.7787
C58 C 0.2909(14) 0.7221(5) 0.7949(5)
H79 H 0.3629 0.7489 0.7937
H80 H 0.2328 0.7296 0.8220
H81 H 0.3297 0.6861 0.7982
C59 C 0.8190(10) 0.9379(4) 0.6536(3)
H82 H 0.8152 0.8985 0.6610
C60 C 0.9560(11) 0.9578(4) 0.6706(4)
H83 H 0.9615 0.9542 0.7050
H84 H 1.0268 0.9363 0.6558
H85 H 0.9672 0.9957 0.6618
C61 C 0.8068(14) 0.9431(5) 0.5988(4)
H86 H 0.7187 0.9301 0.5887
H87 H 0.8173 0.9808 0.5897
H88 H 0.8769 0.9215 0.5837
C62 C 0.6191(12) 0.8068(3) 0.7125(4)
H89 H 0.6793 0.7955 0.7379
H90 H 0.5318 0.7894 0.7165
H91 H 0.6574 0.7965 0.6820
C63 C 0.6114(11) 1.0501(3) 0.6412(3)
C64 C 0.4771(11) 0.9694(4) 0.6328(4)
C65 C 0.3203(9) 0.8969(4) 0.6307(3)
C66 C 0.2078(10) 0.8155(3) 0.6377(3)
C67 C 0.3176(10) 0.8181(3) 0.6779(3)
H92 H 0.3741 0.7848 0.6773
C68 C 0.5631(10) 0.9418(3) 0.6646(3)
C69 C 0.6911(10) 1.0267(3) 0.6741(3)
C70 C 0.4014(8) 0.8674(3) 0.6631(3)
O13 O 0.5086(11) 0.6868(3) 0.6701(4)
O14 O 0.7122(9) 0.5411(3) 0.7491(3)
O15 O 0.1582(9) 0.4954(3) 0.5841(3)
O16 O 0.5759(7) 0.3519(2) 0.7115(2)
O17 O 0.4359(7) 0.5057(2) 0.6156(2)
O18 O 0.1903(7) 0.3374(2) 0.6094(2)
C71 C 0.6609(10) 0.5582(4) 0.7123(3)
C72 C 0.6627(13) 0.6191(4) 0.7001(4)
C73 C 0.5444(12) 0.6378(4) 0.6697(4)
C74 C 0.4628(12) 0.5987(4) 0.6373(4)
C75 C 0.3079(10) 0.4245(3) 0.6105(3)
C76 C 0.0760(12) 0.3016(5) 0.6774(5)
H93 H -0.0125 0.3058 0.6658
C77 C 0.0973(16) 0.3074(4) 0.7253(5)
H94 H 0.0232 0.3177 0.7443
C78 C 0.2285(15) 0.2986(4) 0.7493(4)
H95 H 0.2718 0.3347 0.7526
C79 C 0.3201(13) 0.2647(4) 0.7185(3)
H96 H 0.2864 0.2273 0.7177
H97 H 0.4109 0.2642 0.7325
C80 C 0.4879(8) 0.3733(3) 0.6777(3)
C81 C 0.6342(9) 0.4592(3) 0.6801(3)
H98 H 0.6491 0.4497 0.7141
C82 C 0.7952(14) 0.6272(5) 0.6682(6)
H99 H 0.8742 0.6158 0.6861
H100 H 0.7876 0.6055 0.6394
H101 H 0.8042 0.6652 0.6597
C83 C 0.679(2) 0.6537(5) 0.7457(5)
H102 H 0.7553 0.6404 0.7640
H103 H 0.6942 0.6913 0.7370
H104 H 0.5972 0.6510 0.7648
C84 C 0.3143(12) 0.6052(4) 0.6477(5)
H105 H 0.2879 0.6427 0.6423
H106 H 0.2626 0.5816 0.6268
H107 H 0.2967 0.5955 0.6806
C85 C 0.4920(18) 0.6143(4) 0.5840(4)
H108 H 0.5878 0.6101 0.5775
H109 H 0.4405 0.5908 0.5631
H110 H 0.4659 0.6518 0.5786
C86 C 0.2138(10) 0.4515(4) 0.5751(3)
C87 C 0.2006(11) 0.4228(4) 0.5266(3)
H111 H 0.1895 0.3833 0.5320
C88 C 0.0765(12) 0.4442(7) 0.4997(4)
H112 H -0.0041 0.4378 0.5186
H113 H 0.0867 0.4828 0.4940
H114 H 0.0684 0.4254 0.4694
C89 C 0.3285(13) 0.4321(6) 0.4981(4)
H115 H 0.4056 0.4183 0.5157
H116 H 0.3217 0.4132 0.4678
H117 H 0.3401 0.4707 0.4924
C90 C 0.1554(13) 0.2399(4) 0.6107(5)
H118 H 0.1519 0.2074 0.6301
H119 H 0.0688 0.2453 0.5951
H120 H 0.2256 0.2361 0.5867
C91 C 0.219(2) 0.2731(6) 0.8013(5)
H121 H 0.3129 0.2615 0.8088
C92 C 0.1361(19) 0.2201(6) 0.8010(6)
H122 H 0.1665 0.1971 0.7750
H123 H 0.1483 0.2013 0.8310
H124 H 0.0411 0.2287 0.7967
C93 C 0.186(3) 0.3116(7) 0.8381(6)
H125 H 0.2432 0.3433 0.8352
H126 H 0.0916 0.3224 0.8347
H127 H 0.1988 0.2949 0.8691
C94 C 0.7651(11) 0.4434(4) 0.6513(4)
H128 H 0.7708 0.4032 0.6519
C95 C 0.7569(13) 0.4601(5) 0.5982(4)
H129 H 0.6741 0.4460 0.5843
H130 H 0.7575 0.4994 0.5957
H131 H 0.8341 0.4454 0.5811
C96 C 0.8941(11) 0.4646(6) 0.6749(5)
H132 H 0.8958 0.4534 0.7081
H133 H 0.9725 0.4499 0.6586
H134 H 0.8959 0.5039 0.6732
C97 C 0.6545(11) 0.3045(4) 0.6974(4)
H135 H 0.7118 0.2933 0.7237
H136 H 0.5937 0.2751 0.6891
H137 H 0.7103 0.3136 0.6701
C98 C 0.5107(9) 0.5405(3) 0.6450(3)
C99 C 0.4196(10) 0.4517(3) 0.6307(3)
C100 C 0.2947(9) 0.3709(3) 0.6257(3)
C101 C 0.1867(11) 0.2887(4) 0.6421(4)
C102 C 0.3284(10) 0.2873(3) 0.6663(3)
H138 H 0.3878 0.2630 0.6475
C103 C 0.5125(9) 0.4276(3) 0.6623(3)
C104 C 0.6002(10) 0.5204(3) 0.6772(3)
C105 C 0.3756(9) 0.3447(3) 0.6592(3)
O19 O -0.0444(13) 0.9385(3) 0.9017(3)
O20 O -0.1821(9) 0.7947(3) 0.8004(3)
O21 O 0.3564(8) 0.7440(3) 0.9675(3)
O22 O -0.0630(7) 0.6047(2) 0.84376(19)
O23 O 0.0787(8) 0.7590(2) 0.9374(2)
O24 O 0.3016(7) 0.5848(2) 0.9553(2)
C106 C -0.1309(11) 0.8116(4) 0.8369(4)
C107 C -0.1266(14) 0.8744(4) 0.8455(4)
C108 C -0.0396(13) 0.8913(4) 0.8884(4)
C109 C 0.0578(13) 0.8510(4) 0.9133(4)
C110 C 0.1977(9) 0.6750(3) 0.9465(3)
C111 C 0.4234(11) 0.5441(4) 0.8898(4)
H139 H 0.5104 0.5480 0.9029
C112 C 0.4109(11) 0.5469(4) 0.8429(4)
H140 H 0.4881 0.5555 0.8249
C113 C 0.2794(10) 0.5372(4) 0.8165(3)
H141 H 0.2411 0.5730 0.8077
C114 C 0.1781(10) 0.5083(4) 0.8479(3)
H142 H 0.2054 0.4702 0.8516
H143 H 0.0893 0.5089 0.8324
C115 C 0.0202(9) 0.6257(3) 0.8792(3)
C116 C -0.1182(10) 0.7151(3) 0.8727(3)
H144 H -0.1339 0.7050 0.8389
C117 C -0.2747(16) 0.8938(6) 0.8541(8)
H145 H -0.3305 0.8833 0.8271
H146 H -0.3097 0.8772 0.8829
H147 H -0.2761 0.9330 0.8575
C118 C -0.070(2) 0.9019(4) 0.7990(4)
H148 H -0.1248 0.8912 0.7720
H149 H -0.0725 0.9411 0.8026
H150 H 0.0228 0.8903 0.7939
C119 C 0.0633(19) 0.8653(4) 0.9664(4)
H151 H 0.0944 0.9025 0.9702
H152 H -0.0262 0.8617 0.9802
H153 H 0.1254 0.8409 0.9825
C120 C 0.1995(14) 0.8563(4) 0.8903(6)
H154 H 0.2323 0.8932 0.8943
H155 H 0.2615 0.8312 0.9056
H156 H 0.1935 0.8479 0.8566
C121 C 0.2941(10) 0.7034(3) 0.9805(3)
C122 C 0.3074(11) 0.6792(4) 1.0301(3)
H157 H 0.3143 0.6392 1.0272
C123 C 0.1781(14) 0.6931(6) 1.0574(4)
H158 H 0.1833 0.6782 1.0894
H159 H 0.1681 0.7323 1.0592
H160 H 0.1008 0.6777 1.0410
C124 C 0.4330(13) 0.7003(5) 1.0560(4)
H161 H 0.4380 0.6840 1.0875
H162 H 0.5132 0.6908 1.0380
H163 H 0.4274 0.7395 1.0591
C125 C 0.3306(14) 0.4866(4) 0.9581(4)
H164 H 0.3342 0.4531 0.9400
H165 H 0.4158 0.4919 0.9747
H166 H 0.2577 0.4846 0.9812
C126 C 0.3094(13) 0.5048(5) 0.7693(4)
H167 H 0.3700 0.5277 0.7496
C127 C 0.1828(15) 0.4961(8) 0.7411(4)
H168 H 0.1389 0.5307 0.7355
H169 H 0.2052 0.4794 0.7107
H170 H 0.1223 0.4724 0.7587
C128 C 0.3861(19) 0.4513(5) 0.7798(5)
H171 H 0.4670 0.4592 0.7980
H172 H 0.3282 0.4271 0.7979
H173 H 0.4111 0.4341 0.7499
C129 C -0.2519(11) 0.7041(4) 0.9015(4)
H174 H -0.2672 0.6643 0.9006
C130 C -0.3770(13) 0.7309(6) 0.8773(5)
H175 H -0.3803 0.7204 0.8440
H176 H -0.4588 0.7189 0.8932
H177 H -0.3697 0.7701 0.8797
C131 C -0.2443(12) 0.7201(5) 0.9543(4)
H178 H -0.1660 0.7031 0.9688
H179 H -0.2366 0.7593 0.9570
H180 H -0.3256 0.7081 0.9705
C132 C -0.1557(12) 0.5613(4) 0.8585(4)
H181 H -0.2088 0.5495 0.8314
H182 H -0.1040 0.5308 0.8708
H183 H -0.2155 0.5748 0.8833
C133 C 0.0095(10) 0.7931(3) 0.9065(3)
C134 C 0.0905(10) 0.7036(3) 0.9240(3)
C135 C 0.2069(9) 0.6199(3) 0.9345(3)
C136 C 0.3055(11) 0.5348(3) 0.9240(3)
C137 C 0.1662(10) 0.5349(3) 0.8983(3)
H184 H 0.1016 0.5133 0.9175
C138 C -0.0002(9) 0.6808(3) 0.8917(3)
C139 C -0.0808(10) 0.7749(3) 0.8747(3)
C140 C 0.1229(9) 0.5948(3) 0.9003(3)
loop_
_geom_bond_atom_site_label_1
_geom_bond_atom_site_label_2
_geom_bond_site_symmetry_1
_geom_bond_site_symmetry_2
O1 C3 1_555 1_555
O2 C1 1_555 1_555
O3 C16 1_555 1_555
O4 C10 1_555 1_555
O5 C28 1_555 1_555
O6 C30 1_555 1_555
C1 C2 1_555 1_555
C2 C3 1_555 1_555
C3 C4 1_555 1_555
C4 C14 1_555 1_555
C5 C16 1_555 1_555
C6 H1 1_555 1_555
C7 C6 1_555 1_555
H2 C7 1_555 1_555
C8 C7 1_555 1_555
H3 C8 1_555 1_555
C9 C8 1_555 1_555
H4 C9 1_555 1_555
H5 C9 1_555 1_555
C10 C33 1_555 1_555
C11 H6 1_555 1_555
C12 C2 1_555 1_555
H7 C12 1_555 1_555
H8 C12 1_555 1_555
H9 C12 1_555 1_555
C13 C2 1_555 1_555
H10 C13 1_555 1_555
H11 C13 1_555 1_555
H12 C13 1_555 1_555
C14 H13 1_555 1_555
H14 C14 1_555 1_555
H15 C14 1_555 1_555
C15 C4 1_555 1_555
H16 C15 1_555 1_555
H17 C15 1_555 1_555
H18 C15 1_555 1_555
C16 C17 1_555 1_555
C17 H19 1_555 1_555
C18 C17 1_555 1_555
H20 C18 1_555 1_555
H21 C18 1_555 1_555
H22 C18 1_555 1_555
C19 C17 1_555 1_555
H23 C19 1_555 1_555
H24 C19 1_555 1_555
H25 C19 1_555 1_555
C20 H26 1_555 1_555
H27 C20 1_555 1_555
H28 C20 1_555 1_555
C21 C8 1_555 1_555
H29 C21 1_555 1_555
C22 C21 1_555 1_555
H30 C22 1_555 1_555
H31 C22 1_555 1_555
H32 C22 1_555 1_555
C23 C21 1_555 1_555
H33 C23 1_555 1_555
H34 C23 1_555 1_555
H35 C23 1_555 1_555
C24 C11 1_555 1_555
H36 C24 1_555 1_555
C25 C24 1_555 1_555
H37 C25 1_555 1_555
H38 C25 1_555 1_555
H39 C25 1_555 1_555
C26 C24 1_555 1_555
H40 C26 1_555 1_555
H41 C26 1_555 1_555
H42 C26 1_555 1_555
C27 O4 1_555 1_555
H43 C27 1_555 1_555
H44 C27 1_555 1_555
H45 C27 1_555 1_555
C28 C4 1_555 1_555
C29 O5 1_555 1_555
C30 C5 1_555 1_555
C31 O6 1_555 1_555
C32 C9 1_555 1_555
H46 C32 1_555 1_555
C33 C11 1_555 1_555
C34 C1 1_555 1_555
C35 C10 1_555 1_555
O7 C38 1_555 1_555
O8 C36 1_555 1_555
O9 C51 1_555 1_555
O10 C45 1_555 1_555
O11 C63 1_555 1_555
O12 C65 1_555 1_555
C36 C37 1_555 1_555
C37 C38 1_555 1_555
C38 C39 1_555 1_555
C39 C49 1_555 1_555
C40 C51 1_555 1_555
C41 H47 1_555 1_555
C42 C41 1_555 1_555
H48 C42 1_555 1_555
C43 C42 1_555 1_555
H49 C43 1_555 1_555
C44 C43 1_555 1_555
H50 C44 1_555 1_555
H51 C44 1_555 1_555
C45 C68 1_555 1_555
C46 H52 1_555 1_555
C47 C37 1_555 1_555
H53 C47 1_555 1_555
H54 C47 1_555 1_555
H55 C47 1_555 1_555
C48 C37 1_555 1_555
H56 C48 1_555 1_555
H57 C48 1_555 1_555
H58 C48 1_555 1_555
C49 H59 1_555 1_555
H60 C49 1_555 1_555
H61 C49 1_555 1_555
C50 C39 1_555 1_555
H62 C50 1_555 1_555
H63 C50 1_555 1_555
H64 C50 1_555 1_555
C51 C52 1_555 1_555
C52 H65 1_555 1_555
C53 C52 1_555 1_555
H66 C53 1_555 1_555
H67 C53 1_555 1_555
H68 C53 1_555 1_555
C54 C52 1_555 1_555
H69 C54 1_555 1_555
H70 C54 1_555 1_555
H71 C54 1_555 1_555
C55 H72 1_555 1_555
H73 C55 1_555 1_555
H74 C55 1_555 1_555
C56 C43 1_555 1_555
H75 C56 1_555 1_555
C57 C56 1_555 1_555
H76 C57 1_555 1_555
H77 C57 1_555 1_555
H78 C57 1_555 1_555
C58 C56 1_555 1_555
H79 C58 1_555 1_555
H80 C58 1_555 1_555
H81 C58 1_555 1_555
C59 C46 1_555 1_555
H82 C59 1_555 1_555
C60 C59 1_555 1_555
H83 C60 1_555 1_555
H84 C60 1_555 1_555
H85 C60 1_555 1_555
C61 C59 1_555 1_555
H86 C61 1_555 1_555
H87 C61 1_555 1_555
H88 C61 1_555 1_555
C62 O10 1_555 1_555
H89 C62 1_555 1_555
H90 C62 1_555 1_555
H91 C62 1_555 1_555
C63 C39 1_555 1_555
C64 O11 1_555 1_555
C65 C40 1_555 1_555
C66 O12 1_555 1_555
C67 C44 1_555 1_555
H92 C67 1_555 1_555
C68 C46 1_555 1_555
C69 C36 1_555 1_555
C70 C45 1_555 1_555
O13 C73 1_555 1_555
O14 C71 1_555 1_555
O15 C86 1_555 1_555
O16 C80 1_555 1_555
O17 C98 1_555 1_555
O18 C100 1_555 1_555
C71 C72 1_555 1_555
C72 C73 1_555 1_555
C73 C74 1_555 1_555
C74 C84 1_555 1_555
C75 C86 1_555 1_555
C76 H93 1_555 1_555
C77 C76 1_555 1_555
H94 C77 1_555 1_555
C78 C77 1_555 1_555
H95 C78 1_555 1_555
C79 C78 1_555 1_555
H96 C79 1_555 1_555
H97 C79 1_555 1_555
C80 C103 1_555 1_555
C81 H98 1_555 1_555
C82 C72 1_555 1_555
H99 C82 1_555 1_555
H100 C82 1_555 1_555
H101 C82 1_555 1_555
C83 C72 1_555 1_555
H102 C83 1_555 1_555
H103 C83 1_555 1_555
H104 C83 1_555 1_555
C84 H105 1_555 1_555
H106 C84 1_555 1_555
H107 C84 1_555 1_555
C85 C74 1_555 1_555
H108 C85 1_555 1_555
H109 C85 1_555 1_555
H110 C85 1_555 1_555
C86 C87 1_555 1_555
C87 H111 1_555 1_555
C88 C87 1_555 1_555
H112 C88 1_555 1_555
H113 C88 1_555 1_555
H114 C88 1_555 1_555
C89 C87 1_555 1_555
H115 C89 1_555 1_555
H116 C89 1_555 1_555
H117 C89 1_555 1_555
C90 H118 1_555 1_555
H119 C90 1_555 1_555
H120 C90 1_555 1_555
C91 C78 1_555 1_555
H121 C91 1_555 1_555
C92 C91 1_555 1_555
H122 C92 1_555 1_555
H123 C92 1_555 1_555
H124 C92 1_555 1_555
C93 C91 1_555 1_555
H125 C93 1_555 1_555
H126 C93 1_555 1_555
H127 C93 1_555 1_555
C94 C81 1_555 1_555
H128 C94 1_555 1_555
C95 C94 1_555 1_555
H129 C95 1_555 1_555
H130 C95 1_555 1_555
H131 C95 1_555 1_555
C96 C94 1_555 1_555
H132 C96 1_555 1_555
H133 C96 1_555 1_555
H134 C96 1_555 1_555
C97 O16 1_555 1_555
H135 C97 1_555 1_555
H136 C97 1_555 1_555
H137 C97 1_555 1_555
C98 C74 1_555 1_555
C99 O17 1_555 1_555
C100 C75 1_555 1_555
C101 O18 1_555 1_555
C102 C79 1_555 1_555
H138 C102 1_555 1_555
C103 C81 1_555 1_555
C104 C71 1_555 1_555
C105 C80 1_555 1_555
O19 C108 1_555 1_555
O20 C106 1_555 1_555
O21 C121 1_555 1_555
O22 C115 1_555 1_555
O23 C133 1_555 1_555
O24 C135 1_555 1_555
C106 C107 1_555 1_555
C107 C108 1_555 1_555
C108 C109 1_555 1_555
C109 C119 1_555 1_555
C110 C121 1_555 1_555
C111 H139 1_555 1_555
C112 C111 1_555 1_555
H140 C112 1_555 1_555
C113 C112 1_555 1_555
H141 C113 1_555 1_555
C114 C113 1_555 1_555
H142 C114 1_555 1_555
H143 C114 1_555 1_555
C115 C138 1_555 1_555
C116 H144 1_555 1_555
C117 C107 1_555 1_555
H145 C117 1_555 1_555
H146 C117 1_555 1_555
H147 C117 1_555 1_555
C118 C107 1_555 1_555
H148 C118 1_555 1_555
H149 C118 1_555 1_555
H150 C118 1_555 1_555
C119 H151 1_555 1_555
H152 C119 1_555 1_555
H153 C119 1_555 1_555
C120 C109 1_555 1_555
H154 C120 1_555 1_555
H155 C120 1_555 1_555
H156 C120 1_555 1_555
C121 C122 1_555 1_555
C122 H157 1_555 1_555
C123 C122 1_555 1_555
H158 C123 1_555 1_555
H159 C123 1_555 1_555
H160 C123 1_555 1_555
C124 C122 1_555 1_555
H161 C124 1_555 1_555
H162 C124 1_555 1_555
H163 C124 1_555 1_555
C125 H164 1_555 1_555
H165 C125 1_555 1_555
H166 C125 1_555 1_555
C126 C113 1_555 1_555
H167 C126 1_555 1_555
C127 C126 1_555 1_555
H168 C127 1_555 1_555
H169 C127 1_555 1_555
H170 C127 1_555 1_555
C128 C126 1_555 1_555
H171 C128 1_555 1_555
H172 C128 1_555 1_555
H173 C128 1_555 1_555
C129 C116 1_555 1_555
H174 C129 1_555 1_555
C130 C129 1_555 1_555
H175 C130 1_555 1_555
H176 C130 1_555 1_555
H177 C130 1_555 1_555
C131 C129 1_555 1_555
H178 C131 1_555 1_555
H179 C131 1_555 1_555
H180 C131 1_555 1_555
C132 O22 1_555 1_555
H181 C132 1_555 1_555
H182 C132 1_555 1_555
H183 C132 1_555 1_555
C133 C109 1_555 1_555
C134 O23 1_555 1_555
C135 C110 1_555 1_555
C136 O24 1_555 1_555
C137 C114 1_555 1_555
H184 C137 1_555 1_555
C138 C116 1_555 1_555
C139 C106 1_555 1_555
C140 C115 1_555 1_555
C5 C29 1_555 1_555
C6 C31 1_555 1_555
C11 C34 1_555 1_555
C20 C31 1_555 1_555
C28 C34 1_555 1_555
C29 C33 1_555 1_555
C30 C35 1_555 1_555
C31 C32 1_555 1_555
C32 C35 1_555 1_555
C40 C64 1_555 1_555
C41 C66 1_555 1_555
C46 C69 1_555 1_555
C55 C66 1_555 1_555
C63 C69 1_555 1_555
C64 C68 1_555 1_555
C65 C70 1_555 1_555
C66 C67 1_555 1_555
C67 C70 1_555 1_555
C75 C99 1_555 1_555
C76 C101 1_555 1_555
C81 C104 1_555 1_555
C90 C101 1_555 1_555
C98 C104 1_555 1_555
C99 C103 1_555 1_555
C100 C105 1_555 1_555
C101 C102 1_555 1_555
C102 C105 1_555 1_555
C110 C134 1_555 1_555
C111 C136 1_555 1_555
C116 C139 1_555 1_555
C125 C136 1_555 1_555
C133 C139 1_555 1_555
C134 C138 1_555 1_555
C135 C140 1_555 1_555
C136 C137 1_555 1_555
C137 C140 1_555 1_555

#END
