
#######################################################################
#
#                 Cambridge Crystallographic Data Centre
#                                CCDC 
#
#######################################################################
#
# If this CIF has been generated from an entry in the Cambridge 
# Structural Database, then it will include bibliographic, chemical, 
# crystal, experimental, refinement or atomic coordinate data resulting 
# from the CCDC's data processing and validation procedures.
#
#######################################################################

data_ZUZCOO02
_chemical_formula_moiety         'C21 H28 O4'
_chemical_name_systematic        
1-[3-hydroxy-1-methoxy-5a-methyl-8-(propan-2-yl)-5a,8,9,9a-tetrahydrodibenzo[b,d]furan-4-yl]-2-methylpropan-1-one
_symmetry_cell_setting           monoclinic
_symmetry_space_group_name_H-M   'P 21'
_symmetry_Int_Tables_number      4
_space_group_name_Hall           'P 2yb'
loop_
_symmetry_equiv_pos_site_id
_symmetry_equiv_pos_as_xyz
1 x,y,z
2 -x,1/2+y,-z
_cell_length_a                   8.82030(10)
_cell_length_b                   9.9500(2)
_cell_length_c                   11.3663(2)
_cell_angle_alpha                90
_cell_angle_beta                 104.882(2)
_cell_angle_gamma                90
_cell_volume                     964.069
_exptl_crystal_description       block
_cell_formula_units_Z            2
loop_
_atom_site_label
_atom_site_type_symbol
_atom_site_fract_x
_atom_site_fract_y
_atom_site_fract_z
O1 O 1.36096(15) 0.70165(15) 0.90445(12)
O2 O 1.47653(14) 0.73054(14) 0.72644(12)
H1 H 1.4724 0.7083 0.7950
O3 O 1.17723(13) 0.95323(14) 0.37253(11)
O4 O 0.95046(13) 0.89424(13) 0.69269(11)
C1 C 1.19376(19) 0.90095(17) 0.48539(16)
C2 C 1.33130(19) 0.83917(18) 0.55190(16)
H2 H 1.4166 0.8305 0.5185
C3 C 1.34033(19) 0.79059(18) 0.66824(16)
C4 C 1.2150(2) 0.80348(18) 0.72527(16)
C5 C 0.73750(19) 0.80174(19) 0.54355(17)
H3 H 0.6906 0.7593 0.5980
C6 C 0.72385(19) 0.74360(19) 0.43643(16)
H4 H 0.6742 0.6605 0.4234
C7 C 0.7830(2) 0.80241(19) 0.33396(16)
H5 H 0.8826 0.7582 0.3348
C8 C 0.81664(18) 0.95188(19) 0.35879(15)
H6 H 0.7178 1.0001 0.3418
H7 H 0.8754 0.9851 0.3035
C9 C 1.2365(2) 0.75835(19) 0.85080(16)
C10 C 1.1108(2) 0.7753(2) 0.91910(16)
H8 H 1.0590 0.8622 0.8965
C11 C 1.1849(3) 0.7753(4) 1.05599(19)
H9 H 1.2329 0.6896 1.0801
H10 H 1.1055 0.7918 1.0982
H11 H 1.2631 0.8446 1.0758
C12 C 0.9881(2) 0.6640(2) 0.8812(2)
H12 H 0.9496 0.6632 0.7942
H13 H 0.9027 0.6803 0.9173
H14 H 1.0351 0.5788 0.9084
C13 C 0.7234(2) 1.0348(2) 0.62673(17)
H15 H 0.6764 0.9948 0.6857
H16 H 0.6425 1.0662 0.5587
H17 H 0.7880 1.1091 0.6632
C14 C 0.6679(2) 0.77527(19) 0.20829(17)
H18 H 0.5641 0.8078 0.2113
C15 C 0.6540(3) 0.6249(2) 0.1789(2)
H19 H 0.5773 0.6112 0.1029
H20 H 0.6222 0.5780 0.2424
H21 H 0.7537 0.5912 0.1729
C16 C 0.7148(2) 0.8491(2) 0.10518(18)
H22 H 0.8205 0.8256 0.1055
H23 H 0.7081 0.9443 0.1165
H24 H 0.6453 0.8238 0.0287
C17 C 1.3146(2) 0.9582(2) 0.32792(17)
H25 H 1.3959 1.0061 0.3848
H26 H 1.2907 1.0033 0.2507
H27 H 1.3494 0.8684 0.3183
C18 C 1.07965(18) 0.86763(18) 0.65251(15)
C19 C 0.82306(18) 0.93116(19) 0.58358(16)
C20 C 0.90891(18) 0.98217(17) 0.48950(15)
H28 H 0.9241 1.0795 0.4990
C21 C 1.06605(18) 0.91263(16) 0.53538(16)
loop_
_geom_bond_atom_site_label_1
_geom_bond_atom_site_label_2
_geom_bond_site_symmetry_1
_geom_bond_site_symmetry_2
O1 C9 1_555 1_555
O2 H1 1_555 1_555
O3 C1 1_555 1_555
O4 C18 1_555 1_555
C1 C2 1_555 1_555
C2 H2 1_555 1_555
C3 O2 1_555 1_555
C4 C3 1_555 1_555
C5 H3 1_555 1_555
C6 C5 1_555 1_555
H4 C6 1_555 1_555
C7 C6 1_555 1_555
H5 C7 1_555 1_555
C8 C7 1_555 1_555
H6 C8 1_555 1_555
H7 C8 1_555 1_555
C9 C4 1_555 1_555
C10 C9 1_555 1_555
H8 C10 1_555 1_555
C11 C10 1_555 1_555
H9 C11 1_555 1_555
H10 C11 1_555 1_555
H11 C11 1_555 1_555
C12 C10 1_555 1_555
H12 C12 1_555 1_555
H13 C12 1_555 1_555
H14 C12 1_555 1_555
C13 H15 1_555 1_555
H16 C13 1_555 1_555
H17 C13 1_555 1_555
C14 C7 1_555 1_555
H18 C14 1_555 1_555
C15 C14 1_555 1_555
H19 C15 1_555 1_555
H20 C15 1_555 1_555
H21 C15 1_555 1_555
C16 C14 1_555 1_555
H22 C16 1_555 1_555
H23 C16 1_555 1_555
H24 C16 1_555 1_555
C17 O3 1_555 1_555
H25 C17 1_555 1_555
H26 C17 1_555 1_555
H27 C17 1_555 1_555
C18 C4 1_555 1_555
C19 O4 1_555 1_555
C20 C8 1_555 1_555
H28 C20 1_555 1_555
C21 C1 1_555 1_555
C2 C3 1_555 1_555
C5 C19 1_555 1_555
C13 C19 1_555 1_555
C18 C21 1_555 1_555
C19 C20 1_555 1_555
C20 C21 1_555 1_555

#END
