
#######################################################################
#
#                 Cambridge Crystallographic Data Centre
#                                CCDC 
#
#######################################################################
#
# If this CIF has been generated from an entry in the Cambridge 
# Structural Database, then it will include bibliographic, chemical, 
# crystal, experimental, refinement or atomic coordinate data resulting 
# from the CCDC's data processing and validation procedures.
#
#######################################################################

data_ZUZCEE
_chemical_formula_moiety         'C31 H29 Br1 N2 O5'
_chemical_name_systematic        
"t-Butyl (S)-(2-(1-benzyl-5-bromo-4'-methyl-2,6'-dioxo-1,2,3',6'-tetrahydrospiro[indole-3,2'-pyran]-5'-yl)phenyl)carbamate"
_symmetry_cell_setting           monoclinic
_symmetry_space_group_name_H-M   'P 21'
_symmetry_Int_Tables_number      4
_space_group_name_Hall           'P 2yb'
loop_
_symmetry_equiv_pos_site_id
_symmetry_equiv_pos_as_xyz
1 x,y,z
2 -x,1/2+y,-z
_cell_length_a                   10.6073(4)
_cell_length_b                   9.8229(4)
_cell_length_c                   14.4413(6)
_cell_angle_alpha                90
_cell_angle_beta                 107.283(2)
_cell_angle_gamma                90
_cell_volume                     1436.76
_exptl_crystal_colour            colorless
_exptl_crystal_description       column
_chemical_melting_point          '145-146 deg.C'
_cell_formula_units_Z            2
_exptl_crystal_recrystallization_method hexane/dichloromethane
loop_
_atom_site_label
_atom_site_type_symbol
_atom_site_fract_x
_atom_site_fract_y
_atom_site_fract_z
Br1 Br 0.67053(3) 0.56759(5) 0.70673(3)
O1 O 0.2209(2) -0.0525(3) 0.68232(19)
O2 O 0.2047(2) 0.2517(2) 0.70543(14)
O3 O 0.0149(2) 0.2705(3) 0.7336(2)
O4 O 0.0424(3) -0.1809(3) 0.7967(2)
O5 O -0.1737(2) -0.1424(4) 0.7765(2)
N1 N 0.4370(3) 0.0168(3) 0.73239(19)
N2 N -0.0689(3) -0.0632(3) 0.6709(2)
H1 H 0.0032 -0.0704 0.6556
C1 C 0.4958(3) -0.1080(3) 0.7811(2)
H2 H 0.5716 -0.1317 0.7599
H3 H 0.4320 -0.1813 0.7619
C2 C 0.5388(3) -0.0965(3) 0.8896(2)
C3 C 0.4724(4) -0.0180(5) 0.9382(3)
H4 H 0.4015 0.0350 0.9035
C4 C 0.5105(5) -0.0169(6) 1.0398(3)
H5 H 0.4644 0.0357 1.0724
C5 C 0.6161(5) -0.0938(6) 1.0907(3)
H6 H 0.6405 -0.0949 1.1581
C6 C 0.6852(5) -0.1684(6) 1.0434(4)
H7 H 0.7587 -0.2178 1.0785
C7 C 0.6468(4) -0.1714(4) 0.9428(3)
H8 H 0.6938 -0.2240 0.9109
C8 C 0.5063(3) 0.1386(3) 0.7327(2)
C9 C 0.6412(3) 0.1605(4) 0.7702(2)
H9 H 0.6979 0.0913 0.8012
C10 C 0.6878(3) 0.2886(4) 0.7598(2)
H10 H 0.7779 0.3065 0.7832
C11 C 0.6010(3) 0.3916(3) 0.7146(2)
C12 C 0.4661(3) 0.3690(3) 0.6772(2)
H11 H 0.4088 0.4383 0.6471
C13 C 0.4205(3) 0.2400(3) 0.6864(2)
C14 C 0.2827(3) 0.1836(3) 0.6534(2)
C15 C 0.3052(3) 0.0338(3) 0.6894(2)
C16 C 0.2159(3) 0.1899(3) 0.5452(2)
H12 H 0.2229 0.2816 0.5224
H13 H 0.2612 0.1293 0.5126
C17 C 0.0733(3) 0.1504(3) 0.5193(2)
C18 C 0.0067(3) 0.1683(3) 0.5837(2)
C19 C 0.0719(3) 0.2313(3) 0.6796(2)
C20 C 0.0146(4) 0.0891(5) 0.4203(2)
H14 H 0.0803 0.0863 0.3868
H15 H -0.0153 -0.0016 0.4268
H16 H -0.0587 0.1436 0.3842
C21 C -0.1351(3) 0.1317(3) 0.5665(2)
C22 C -0.2339(3) 0.2110(4) 0.5056(3)
H17 H -0.2112 0.2868 0.4755
C23 C -0.3652(3) 0.1787(5) 0.4892(3)
H18 H -0.4306 0.2336 0.4495
C24 C -0.3986(3) 0.0657(5) 0.5317(2)
H19 H -0.4872 0.0438 0.5203
C25 C -0.3027(3) -0.0168(4) 0.5913(2)
H20 H -0.3269 -0.0946 0.6185
C26 C -0.1701(3) 0.0169(3) 0.6105(2)
C27 C -0.0757(3) -0.1300(3) 0.7515(2)
C28 C 0.0766(4) -0.2454(5) 0.8914(3)
C29 C 0.2193(5) -0.2754(8) 0.9132(5)
H21 H 0.2325 -0.3391 0.8665
H22 H 0.2662 -0.1928 0.9101
H23 H 0.2517 -0.3138 0.9770
C30 C 0.0520(12) -0.1500(17) 0.9597(5)
H24 H 0.0741 -0.1912 1.0228
H25 H 0.1050 -0.0702 0.9622
H26 H -0.0397 -0.1252 0.9397
C31 C 0.0020(8) -0.3737(9) 0.8851(7)
H27 H 0.0224 -0.4330 0.8386
H28 H 0.0261 -0.4172 0.9474
H29 H -0.0909 -0.3544 0.8650
loop_
_geom_bond_atom_site_label_1
_geom_bond_atom_site_label_2
_geom_bond_site_symmetry_1
_geom_bond_site_symmetry_2
Br1 C11 1_555 1_555
O1 C15 1_555 1_555
O2 C14 1_555 1_555
O3 C19 1_555 1_555
O4 C27 1_555 1_555
O5 C27 1_555 1_555
N1 C1 1_555 1_555
N2 H1 1_555 1_555
C1 H2 1_555 1_555
H3 C1 1_555 1_555
C2 C1 1_555 1_555
C3 C2 1_555 1_555
H4 C3 1_555 1_555
C4 C3 1_555 1_555
H5 C4 1_555 1_555
C5 C4 1_555 1_555
H6 C5 1_555 1_555
C6 C5 1_555 1_555
H7 C6 1_555 1_555
C7 C2 1_555 1_555
H8 C7 1_555 1_555
C8 N1 1_555 1_555
C9 C8 1_555 1_555
H9 C9 1_555 1_555
C10 C9 1_555 1_555
H10 C10 1_555 1_555
C11 C10 1_555 1_555
C12 C11 1_555 1_555
H11 C12 1_555 1_555
C13 C8 1_555 1_555
C14 C13 1_555 1_555
C15 N1 1_555 1_555
C16 C14 1_555 1_555
H12 C16 1_555 1_555
H13 C16 1_555 1_555
C17 C16 1_555 1_555
C18 C17 1_555 1_555
C19 O2 1_555 1_555
C20 C17 1_555 1_555
H14 C20 1_555 1_555
H15 C20 1_555 1_555
H16 C20 1_555 1_555
C21 C18 1_555 1_555
C22 C21 1_555 1_555
H17 C22 1_555 1_555
C23 C22 1_555 1_555
H18 C23 1_555 1_555
C24 C23 1_555 1_555
H19 C24 1_555 1_555
C25 C24 1_555 1_555
H20 C25 1_555 1_555
C26 N2 1_555 1_555
C27 N2 1_555 1_555
C28 O4 1_555 1_555
C29 C28 1_555 1_555
H21 C29 1_555 1_555
H22 C29 1_555 1_555
H23 C29 1_555 1_555
C30 C28 1_555 1_555
H24 C30 1_555 1_555
H25 C30 1_555 1_555
H26 C30 1_555 1_555
C31 C28 1_555 1_555
H27 C31 1_555 1_555
H28 C31 1_555 1_555
H29 C31 1_555 1_555
C6 C7 1_555 1_555
C12 C13 1_555 1_555
C14 C15 1_555 1_555
C18 C19 1_555 1_555
C21 C26 1_555 1_555
C25 C26 1_555 1_555

#END
