
#######################################################################
#
#                 Cambridge Crystallographic Data Centre
#                                CCDC 
#
#######################################################################
#
# If this CIF has been generated from an entry in the Cambridge 
# Structural Database, then it will include bibliographic, chemical, 
# crystal, experimental, refinement or atomic coordinate data resulting 
# from the CCDC's data processing and validation procedures.
#
#######################################################################

data_ZUZQES
_chemical_formula_moiety         'C62 H73 N4 O1,C1 H2 Cl2'
_chemical_name_systematic        
'10,15,20-tris(3,5-Di-t-butylphenyl)-5-oxoporphyrin dichloromethane solvate'
_symmetry_cell_setting           triclinic
_symmetry_space_group_name_H-M   'P -1'
_symmetry_Int_Tables_number      2
_space_group_name_Hall           '-P 1'
loop_
_symmetry_equiv_pos_site_id
_symmetry_equiv_pos_as_xyz
1 x,y,z
2 -x,-y,-z
_cell_length_a                   11.665(2)
_cell_length_b                   15.633(3)
_cell_length_c                   15.927(4)
_cell_angle_alpha                104.962(7)
_cell_angle_beta                 91.926(9)
_cell_angle_gamma                95.774(5)
_cell_volume                     2786.36
_exptl_crystal_colour            brown
_exptl_crystal_description       Prism
_cell_formula_units_Z            2
loop_
_atom_site_label
_atom_site_type_symbol
_atom_site_fract_x
_atom_site_fract_y
_atom_site_fract_z
N1 N 0.1953(2) -0.00399(16) 0.37655(16)
N2 N 0.1138(2) 0.00849(16) 0.62818(16)
N3 N 0.2008(2) -0.12489(16) 0.49450(16)
H1 H 0.1750 -0.0730 0.4992
O1 O -0.0048(2) 0.21239(15) 0.71884(15)
N4 N 0.1103(2) 0.13043(16) 0.51019(16)
H2 H 0.1296 0.0763 0.5045
C1 C 0.1231(3) 0.17826(19) 0.4492(2)
C2 C 0.0459(3) 0.2634(2) 0.5653(2)
H3 H 0.0148 0.3112 0.6040
C3 C 0.0526(3) 0.0602(2) 0.7660(2)
H4 H 0.0208 0.0980 0.8140
C4 C 0.0629(3) 0.1801(2) 0.5807(2)
C5 C 0.0827(3) 0.2620(2) 0.4841(2)
H5 H 0.0814 0.3088 0.4563
C6 C 0.1992(3) 0.0612(2) 0.3329(2)
C7 C 0.2616(3) -0.1536(2) 0.3426(2)
C8 C 0.2434(3) -0.1758(2) 0.4211(2)
C9 C 0.4084(3) -0.3420(2) 0.1453(2)
H6 H 0.4410 -0.3838 0.1008
C10 C 0.2049(3) -0.1678(2) 0.5588(2)
C11 C 0.1313(3) -0.0518(2) 0.6767(2)
C12 C 0.3131(3) -0.22049(19) 0.2741(2)
C13 C 0.0668(3) 0.0747(2) 0.6810(2)
C14 C 0.0935(3) -0.0178(2) 0.7634(2)
H7 H 0.0969 -0.0454 0.8099
C15 C 0.2735(3) -0.2554(2) 0.4401(2)
H8 H 0.3035 -0.3035 0.4009
C16 C 0.2459(3) 0.3190(2) 0.2024(2)
H9 H 0.2673 0.3553 0.1647
C17 C 0.0382(3) 0.1576(2) 0.6620(2)
C18 C 0.1802(3) -0.3347(2) 0.7348(2)
C19 C 0.2729(3) -0.0530(2) 0.2433(2)
H10 H 0.3047 -0.0911 0.1955
C20 C 0.1669(3) 0.1472(2) 0.3664(2)
C21 C 0.2886(3) -0.34240(19) 0.14457(19)
C22 C 0.2806(3) -0.1580(2) 0.7748(2)
H11 H 0.3138 -0.0977 0.7886
C23 C 0.1675(3) 0.2421(2) 0.1705(2)
C24 C 0.2408(3) -0.0739(2) 0.3236(2)
C25 C 0.1460(3) -0.2770(2) 0.6883(2)
H12 H 0.0864 -0.2977 0.6433
C26 C 0.4819(3) -0.2816(2) 0.2101(2)
C27 C 0.2657(3) -0.3020(2) 0.8025(2)
H13 H 0.2899 -0.3410 0.8347
C28 C 0.2424(3) -0.2803(2) 0.2096(2)
H14 H 0.1611 -0.2791 0.2097
C29 C 0.2511(3) -0.2497(2) 0.5249(2)
H15 H 0.2640 -0.2927 0.5558
C30 C 0.1166(3) 0.2116(2) 0.0758(2)
C31 C 0.2634(3) 0.2884(2) 0.3419(2)
H16 H 0.2955 0.3037 0.4001
C32 C 0.1744(3) -0.1331(2) 0.6454(2)
C33 C 0.2489(3) 0.0307(2) 0.2498(2)
H17 H 0.2620 0.0635 0.2078
C34 C 0.2933(3) 0.3435(2) 0.2882(2)
C35 C 0.1383(3) 0.1900(2) 0.2265(2)
H18 H 0.0837 0.1386 0.2066
C36 C 0.3165(3) -0.2136(2) 0.8239(2)
C37 C 0.4325(3) -0.2212(2) 0.2745(2)
H19 H 0.4805 -0.1798 0.3193
C38 C 0.1266(3) -0.4325(2) 0.7070(2)
C39 C 0.2060(3) -0.4064(2) 0.0745(2)
C40 C 0.6138(3) -0.2786(2) 0.2110(2)
C41 C 0.1973(3) -0.1889(2) 0.7061(2)
C42 C -0.0157(3) 0.2013(3) 0.0748(2)
H20 H -0.0480 0.1811 0.0144
H21 H -0.0419 0.2588 0.1030
H22 H -0.0416 0.1574 0.1063
C43 C 0.1871(3) 0.2110(2) 0.3116(2)
C44 C 0.3788(3) 0.4277(2) 0.3248(2)
C45 C -0.0044(3) -0.4369(2) 0.7149(3)
H23 H -0.0389 -0.4991 0.6952
H24 H -0.0373 -0.4022 0.6787
H25 H -0.0208 -0.4122 0.7758
C46 C 0.1427(3) -0.3517(2) 0.0233(2)
H26 H 0.1991 -0.3196 -0.0051
H27 H 0.1010 -0.3088 0.0635
H28 H 0.0878 -0.3919 -0.0209
C47 C 0.2673(3) -0.4743(2) 0.0104(2)
H29 H 0.3207 -0.4433 -0.0210
H30 H 0.2101 -0.5154 -0.0311
H31 H 0.3104 -0.5079 0.0423
C48 C 0.1557(4) 0.1205(3) 0.0313(3)
H32 H 0.1216 0.1001 -0.0285
H33 H 0.1304 0.0773 0.0637
H34 H 0.2401 0.1263 0.0305
C49 C 0.1548(3) 0.2773(3) 0.0229(2)
H35 H 0.2393 0.2846 0.0229
H36 H 0.1278 0.3351 0.0491
H37 H 0.1218 0.2544 -0.0371
C50 C 0.6623(3) -0.2851(3) 0.2998(3)
H38 H 0.6260 -0.3395 0.3122
H39 H 0.6457 -0.2331 0.3453
H40 H 0.7459 -0.2869 0.2986
C51 C 0.6528(3) -0.3552(3) 0.1411(3)
H41 H 0.6213 -0.4121 0.1508
H42 H 0.7373 -0.3509 0.1442
H43 H 0.6248 -0.3516 0.0835
C52 C 0.4106(3) -0.1767(2) 0.8978(2)
C53 C 0.1508(3) -0.4724(2) 0.6114(2)
H44 H 0.1169 -0.5347 0.5928
H45 H 0.2344 -0.4692 0.6056
H46 H 0.1166 -0.4386 0.5750
C54 C 0.3297(4) 0.4871(3) 0.4045(3)
H47 H 0.3849 0.5399 0.4293
H48 H 0.3159 0.4537 0.4482
H49 H 0.2568 0.5056 0.3869
C55 C 0.1162(3) -0.4566(2) 0.1178(2)
H50 H 0.0637 -0.4982 0.0728
H51 H 0.0720 -0.4139 0.1558
H52 H 0.1555 -0.4898 0.1523
C56 C 0.1758(4) -0.4885(2) 0.7623(2)
H53 H 0.1589 -0.4647 0.8232
H54 H 0.2596 -0.4863 0.7577
H55 H 0.1405 -0.5504 0.7413
C57 C 0.4938(3) 0.4010(3) 0.3529(3)
H56 H 0.5253 0.3620 0.3026
H57 H 0.4814 0.3694 0.3981
H58 H 0.5484 0.4546 0.3761
C58 C 0.4534(3) -0.2485(3) 0.9363(3)
H59 H 0.5157 -0.2215 0.9810
H60 H 0.4823 -0.2942 0.8901
H61 H 0.3896 -0.2758 0.9626
C59 C 0.6637(3) -0.1902(3) 0.1943(3)
H62 H 0.7477 -0.1887 0.1917
H63 H 0.6453 -0.1404 0.2416
H64 H 0.6300 -0.1850 0.1388
C60 C 0.3619(4) -0.1073(3) 0.9698(3)
H65 H 0.3376 -0.0595 0.9461
H66 H 0.4215 -0.0822 1.0170
H67 H 0.2954 -0.1356 0.9924
C61 C 0.5155(3) -0.1326(3) 0.8624(3)
H68 H 0.4915 -0.0853 0.8380
H69 H 0.5470 -0.1774 0.8168
H70 H 0.5747 -0.1071 0.9098
C62 C 0.4009(5) 0.4819(3) 0.2588(3)
H71 H 0.4561 0.5344 0.2850
H72 H 0.3282 0.5010 0.2417
H73 H 0.4328 0.4452 0.2074
C63 C 0.4918(9) 0.1319(6) 0.3796(6)
H74 H 0.5545 0.1771 0.3733
H75 H 0.4288 0.1288 0.3353
Cl1 Cl 0.54600(18) 0.02432(15) 0.36067(18)
Cl2 Cl 0.44093(19) 0.1638(2) 0.48167(16)
loop_
_geom_bond_atom_site_label_1
_geom_bond_atom_site_label_2
_geom_bond_site_symmetry_1
_geom_bond_site_symmetry_2
N1 C6 1_555 1_555
N2 C11 1_555 1_555
N3 H1 1_555 1_555
O1 C17 1_555 1_555
N4 H2 1_555 1_555
C1 N4 1_555 1_555
C2 H3 1_555 1_555
C3 H4 1_555 1_555
C4 N4 1_555 1_555
C5 C1 1_555 1_555
H5 C5 1_555 1_555
C6 C20 1_555 1_555
C7 C8 1_555 1_555
C8 N3 1_555 1_555
C9 H6 1_555 1_555
C10 N3 1_555 1_555
C11 C14 1_555 1_555
C12 C7 1_555 1_555
C13 N2 1_555 1_555
C14 C3 1_555 1_555
H7 C14 1_555 1_555
C15 C8 1_555 1_555
H8 C15 1_555 1_555
C16 H9 1_555 1_555
C17 C4 1_555 1_555
C18 C25 1_555 1_555
C19 H10 1_555 1_555
C20 C1 1_555 1_555
C21 C9 1_555 1_555
C22 H11 1_555 1_555
C23 C16 1_555 1_555
C24 N1 1_555 1_555
C25 H12 1_555 1_555
C26 C9 1_555 1_555
C27 C18 1_555 1_555
H13 C27 1_555 1_555
C28 C12 1_555 1_555
H14 C28 1_555 1_555
C29 C10 1_555 1_555
H15 C29 1_555 1_555
C30 C23 1_555 1_555
C31 H16 1_555 1_555
C32 C10 1_555 1_555
C33 C6 1_555 1_555
H17 C33 1_555 1_555
C34 C16 1_555 1_555
C35 C23 1_555 1_555
H18 C35 1_555 1_555
C36 C22 1_555 1_555
C37 C12 1_555 1_555
H19 C37 1_555 1_555
C38 C18 1_555 1_555
C39 C21 1_555 1_555
C40 C26 1_555 1_555
C41 C22 1_555 1_555
C42 C30 1_555 1_555
H20 C42 1_555 1_555
H21 C42 1_555 1_555
H22 C42 1_555 1_555
C43 C20 1_555 1_555
C44 C34 1_555 1_555
C45 C38 1_555 1_555
H23 C45 1_555 1_555
H24 C45 1_555 1_555
H25 C45 1_555 1_555
C46 C39 1_555 1_555
H26 C46 1_555 1_555
H27 C46 1_555 1_555
H28 C46 1_555 1_555
C47 C39 1_555 1_555
H29 C47 1_555 1_555
H30 C47 1_555 1_555
H31 C47 1_555 1_555
C48 C30 1_555 1_555
H32 C48 1_555 1_555
H33 C48 1_555 1_555
H34 C48 1_555 1_555
C49 C30 1_555 1_555
H35 C49 1_555 1_555
H36 C49 1_555 1_555
H37 C49 1_555 1_555
C50 C40 1_555 1_555
H38 C50 1_555 1_555
H39 C50 1_555 1_555
H40 C50 1_555 1_555
C51 C40 1_555 1_555
H41 C51 1_555 1_555
H42 C51 1_555 1_555
H43 C51 1_555 1_555
C52 C36 1_555 1_555
C53 C38 1_555 1_555
H44 C53 1_555 1_555
H45 C53 1_555 1_555
H46 C53 1_555 1_555
C54 C44 1_555 1_555
H47 C54 1_555 1_555
H48 C54 1_555 1_555
H49 C54 1_555 1_555
C55 C39 1_555 1_555
H50 C55 1_555 1_555
H51 C55 1_555 1_555
H52 C55 1_555 1_555
C56 C38 1_555 1_555
H53 C56 1_555 1_555
H54 C56 1_555 1_555
H55 C56 1_555 1_555
C57 C44 1_555 1_555
H56 C57 1_555 1_555
H57 C57 1_555 1_555
H58 C57 1_555 1_555
C58 C52 1_555 1_555
H59 C58 1_555 1_555
H60 C58 1_555 1_555
H61 C58 1_555 1_555
C59 C40 1_555 1_555
H62 C59 1_555 1_555
H63 C59 1_555 1_555
H64 C59 1_555 1_555
C60 C52 1_555 1_555
H65 C60 1_555 1_555
H66 C60 1_555 1_555
H67 C60 1_555 1_555
C61 C52 1_555 1_555
H68 C61 1_555 1_555
H69 C61 1_555 1_555
H70 C61 1_555 1_555
C62 C44 1_555 1_555
H71 C62 1_555 1_555
H72 C62 1_555 1_555
H73 C62 1_555 1_555
C63 H74 1_555 1_555
H75 C63 1_555 1_555
Cl1 C63 1_555 1_555
Cl2 C63 1_555 1_555
C2 C4 1_555 1_555
C2 C5 1_555 1_555
C3 C13 1_555 1_555
C7 C24 1_555 1_555
C11 C32 1_555 1_555
C13 C17 1_555 1_555
C15 C29 1_555 1_555
C19 C24 1_555 1_555
C19 C33 1_555 1_555
C21 C28 1_555 1_555
C25 C41 1_555 1_555
C26 C37 1_555 1_555
C27 C36 1_555 1_555
C31 C34 1_555 1_555
C31 C43 1_555 1_555
C32 C41 1_555 1_555
C35 C43 1_555 1_555

#END
