
#######################################################################
#
#                 Cambridge Crystallographic Data Centre
#                                CCDC 
#
#######################################################################
#
# If this CIF has been generated from an entry in the Cambridge 
# Structural Database, then it will include bibliographic, chemical, 
# crystal, experimental, refinement or atomic coordinate data resulting 
# from the CCDC's data processing and validation procedures.
#
#######################################################################

data_ZUZSUK
_chemical_formula_moiety         'C24 H23 N1 O3 S1'
_chemical_name_systematic        
10-((4-Methylphenyl)sulfonyl)-4b-propyl-9b,10-dihydro-4bH-[1]benzofuro[3,2-b]indole
_symmetry_cell_setting           monoclinic
_symmetry_space_group_name_H-M   'C c'
_symmetry_Int_Tables_number      9
_space_group_name_Hall           'C -2yc'
loop_
_symmetry_equiv_pos_site_id
_symmetry_equiv_pos_as_xyz
1 x,y,z
2 x,-y,1/2+z
3 1/2+x,1/2+y,z
4 1/2+x,1/2-y,1/2+z
_cell_length_a                   20.1163(16)
_cell_length_b                   9.8905(9)
_cell_length_c                   12.9846(13)
_cell_angle_alpha                90
_cell_angle_beta                 125.152(2)
_cell_angle_gamma                90
_cell_volume                     2112.27
_exptl_crystal_colour            colorless
_exptl_crystal_description       parallelepiped
_cell_formula_units_Z            4
loop_
_atom_site_label
_atom_site_type_symbol
_atom_site_fract_x
_atom_site_fract_y
_atom_site_fract_z
S1 S 0.85729(4) 0.95700(6) -0.08138(5)
O1 O 0.82966(12) 0.9096(2) -0.20420(17)
O2 O 0.83019(11) 1.0841(2) -0.0649(2)
O3 O 1.14563(10) 1.05950(18) 0.25792(17)
N1 N 0.95673(13) 0.9720(2) -0.00006(19)
C1 C 0.83720(14) 0.8322(3) -0.0056(2)
C2 C 0.84328(16) 0.6965(3) -0.0280(3)
H1 H 0.8548 0.6714 -0.0868
C3 C 0.83208(17) 0.5990(3) 0.0374(3)
H2 H 0.8356 0.5061 0.0226
C4 C 0.81584(18) 0.6349(4) 0.1243(3)
C5 C 0.80939(19) 0.7704(4) 0.1435(3)
H3 H 0.7980 0.7958 0.2025
C6 C 0.81922(16) 0.8692(3) 0.0784(3)
H4 H 0.8137 0.9619 0.0912
C7 C 0.8059(3) 0.5269(5) 0.1977(5)
H5 H 0.7947 0.5700 0.2541
H6 H 0.8561 0.4738 0.2476
H7 H 0.7607 0.4671 0.1389
C8 C 1.00835(15) 0.8755(2) -0.0029(2)
C9 C 0.99471(18) 0.8002(3) -0.1038(3)
H8 H 0.9447 0.8064 -0.1847
C10 C 1.0561(2) 0.7162(3) -0.0830(3)
H9 H 1.0474 0.6628 -0.1505
C11 C 1.13069(19) 0.7075(3) 0.0346(3)
H10 H 1.1723 0.6498 0.0463
C12 C 1.14349(17) 0.7837(3) 0.1341(3)
H11 H 1.1938 0.7786 0.2146
C13 C 1.08228(15) 0.8672(2) 0.1148(2)
C14 C 1.08239(15) 0.9552(2) 0.2094(2)
C15 C 1.10851(15) 1.1822(3) 0.2148(2)
C16 C 1.15053(17) 1.3032(3) 0.2455(3)
H12 H 1.2083 1.3057 0.2983
C17 C 1.10496(18) 1.4201(3) 0.1962(3)
H13 H 1.1320 1.5048 0.2162
C18 C 1.02077(19) 1.4167(3) 0.1183(3)
H14 H 0.9910 1.4985 0.0852
C19 C 0.97936(17) 1.2938(3) 0.0882(2)
H15 H 0.9216 1.2911 0.0351
C20 C 1.02420(15) 1.1760(2) 0.1374(2)
C21 C 0.99929(14) 1.0318(2) 0.1284(2)
H16 H 0.9668 1.0194 0.1638
C22 C 1.09818(15) 0.8785(3) 0.3232(2)
H17 H 1.0945 0.9425 0.3783
H18 H 1.1543 0.8423 0.3717
C23 C 1.03930(18) 0.7619(3) 0.2895(3)
H19 H 0.9847 0.7991 0.2557
H20 H 1.0352 0.7067 0.2225
C24 C 1.0651(2) 0.6728(3) 0.4003(3)
H21 H 1.0255 0.5996 0.3737
H22 H 1.0679 0.7264 0.4662
H23 H 1.1187 0.6342 0.4333
loop_
_geom_bond_atom_site_label_1
_geom_bond_atom_site_label_2
_geom_bond_site_symmetry_1
_geom_bond_site_symmetry_2
S1 O1 1_555 1_555
O2 S1 1_555 1_555
O3 C14 1_555 1_555
N1 S1 1_555 1_555
C1 S1 1_555 1_555
C2 C1 1_555 1_555
H1 C2 1_555 1_555
C3 C2 1_555 1_555
H2 C3 1_555 1_555
C4 C3 1_555 1_555
C5 C4 1_555 1_555
H3 C5 1_555 1_555
C6 C1 1_555 1_555
H4 C6 1_555 1_555
C7 C4 1_555 1_555
H5 C7 1_555 1_555
H6 C7 1_555 1_555
H7 C7 1_555 1_555
C8 N1 1_555 1_555
C9 C8 1_555 1_555
H8 C9 1_555 1_555
C10 C9 1_555 1_555
H9 C10 1_555 1_555
C11 C10 1_555 1_555
H10 C11 1_555 1_555
C12 C11 1_555 1_555
H11 C12 1_555 1_555
C13 C8 1_555 1_555
C14 C13 1_555 1_555
C15 O3 1_555 1_555
C16 C15 1_555 1_555
H12 C16 1_555 1_555
C17 C16 1_555 1_555
H13 C17 1_555 1_555
C18 C17 1_555 1_555
H14 C18 1_555 1_555
C19 C18 1_555 1_555
H15 C19 1_555 1_555
C20 C15 1_555 1_555
C21 N1 1_555 1_555
H16 C21 1_555 1_555
C22 C14 1_555 1_555
H17 C22 1_555 1_555
H18 C22 1_555 1_555
C23 C22 1_555 1_555
H19 C23 1_555 1_555
H20 C23 1_555 1_555
C24 C23 1_555 1_555
H21 C24 1_555 1_555
H22 C24 1_555 1_555
H23 C24 1_555 1_555
C5 C6 1_555 1_555
C12 C13 1_555 1_555
C14 C21 1_555 1_555
C19 C20 1_555 1_555
C20 C21 1_555 1_555

#END
