
#######################################################################
#
#                 Cambridge Crystallographic Data Centre
#                                CCDC 
#
#######################################################################
#
# If this CIF has been generated from an entry in the Cambridge 
# Structural Database, then it will include bibliographic, chemical, 
# crystal, experimental, refinement or atomic coordinate data resulting 
# from the CCDC's data processing and validation procedures.
#
#######################################################################

data_ZUZSIY
_chemical_formula_moiety         'C22 H19 N1 O3 S1'
_chemical_name_systematic        
4b-Methyl-10-((4-methylphenyl)sulfonyl)-9b,10-dihydro-4bH-[1]benzofuro[3,2-b]indole
_symmetry_cell_setting           monoclinic
_symmetry_space_group_name_H-M   'P 21/c'
_symmetry_Int_Tables_number      14
_space_group_name_Hall           '-P 2ybc'
loop_
_symmetry_equiv_pos_site_id
_symmetry_equiv_pos_as_xyz
1 x,y,z
2 -x,1/2+y,1/2-z
3 -x,-y,-z
4 x,1/2-y,1/2+z
_cell_length_a                   8.2437(6)
_cell_length_b                   15.2873(12)
_cell_length_c                   14.8380(11)
_cell_angle_alpha                90
_cell_angle_beta                 94.210(2)
_cell_angle_gamma                90
_cell_volume                     1864.9
_exptl_crystal_colour            brown
_exptl_crystal_description       parallelepiped
_cell_formula_units_Z            4
loop_
_atom_site_label
_atom_site_type_symbol
_atom_site_fract_x
_atom_site_fract_y
_atom_site_fract_z
S1 S 0.76365(7) 1.00040(3) 0.82067(4)
O1 O 0.8062(2) 1.08639(10) 0.79349(11)
O2 O 0.6263(2) 0.98697(11) 0.87245(11)
O3 O 0.8895(2) 0.83852(11) 0.54355(10)
N1 N 0.7253(2) 0.94484(11) 0.72595(12)
C1 C 0.9364(3) 0.95151(14) 0.87611(14)
C2 C 1.0870(3) 0.99101(14) 0.87144(15)
H1 H 1.0954 1.0456 0.8416
C3 C 1.2248(3) 0.95060(15) 0.91039(15)
H2 H 1.3276 0.9784 0.9084
C4 C 1.2150(3) 0.86963(15) 0.95252(14)
C5 C 1.0625(3) 0.83136(16) 0.95623(15)
H3 H 1.0543 0.7762 0.9851
C6 C 0.9221(3) 0.87139(16) 0.91901(15)
H4 H 0.8188 0.8447 0.9228
C7 C 1.3655(3) 0.82526(18) 0.99443(17)
H5 H 1.4611 0.8614 0.9850
H6 H 1.3778 0.7679 0.9662
H7 H 1.3556 0.8176 1.0594
C8 C 0.8539(3) 0.94576(14) 0.65992(14)
H8 H 0.9518 0.9799 0.6829
C9 C 0.7884(3) 0.97614(15) 0.56762(15)
C10 C 0.7111(3) 1.05288(16) 0.53987(16)
H9 H 0.6957 1.0987 0.5817
C11 C 0.6563(3) 1.06141(18) 0.44944(17)
H10 H 0.6010 1.1131 0.4293
C12 C 0.6818(3) 0.99515(18) 0.38853(17)
H11 H 0.6442 1.0024 0.3269
C13 C 0.7612(3) 0.91838(18) 0.41547(16)
H12 H 0.7795 0.8731 0.3736
C14 C 0.8125(3) 0.91076(16) 0.50626(15)
C15 C 0.8956(3) 0.84813(15) 0.64212(14)
C16 C 0.7538(3) 0.80129(14) 0.67836(14)
C17 C 0.7091(3) 0.71439(15) 0.66741(17)
H13 H 0.7707 0.6760 0.6329
C18 C 0.5732(3) 0.68439(16) 0.70755(17)
H14 H 0.5422 0.6247 0.7016
C19 C 0.4822(3) 0.74116(16) 0.75641(16)
H15 H 0.3891 0.7197 0.7834
C20 C 0.5240(3) 0.82856(16) 0.76684(15)
H16 H 0.4603 0.8674 0.7996
C21 C 0.6618(3) 0.85729(14) 0.72784(14)
C22 C 1.0594(3) 0.81505(17) 0.68116(17)
H17 H 1.0713 0.7532 0.6655
H18 H 1.0664 0.8215 0.7470
H19 H 1.1462 0.8491 0.6561
loop_
_geom_bond_atom_site_label_1
_geom_bond_atom_site_label_2
_geom_bond_site_symmetry_1
_geom_bond_site_symmetry_2
S1 O1 1_555 1_555
O2 S1 1_555 1_555
O3 C14 1_555 1_555
N1 S1 1_555 1_555
C1 S1 1_555 1_555
C2 C1 1_555 1_555
H1 C2 1_555 1_555
C3 C2 1_555 1_555
H2 C3 1_555 1_555
C4 C3 1_555 1_555
C5 C4 1_555 1_555
H3 C5 1_555 1_555
C6 C1 1_555 1_555
H4 C6 1_555 1_555
C7 C4 1_555 1_555
H5 C7 1_555 1_555
H6 C7 1_555 1_555
H7 C7 1_555 1_555
C8 N1 1_555 1_555
H8 C8 1_555 1_555
C9 C8 1_555 1_555
C10 C9 1_555 1_555
H9 C10 1_555 1_555
C11 C10 1_555 1_555
H10 C11 1_555 1_555
C12 C11 1_555 1_555
H11 C12 1_555 1_555
C13 C12 1_555 1_555
H12 C13 1_555 1_555
C14 C9 1_555 1_555
C15 O3 1_555 1_555
C16 C15 1_555 1_555
C17 C16 1_555 1_555
H13 C17 1_555 1_555
C18 C17 1_555 1_555
H14 C18 1_555 1_555
C19 C18 1_555 1_555
H15 C19 1_555 1_555
C20 C19 1_555 1_555
H16 C20 1_555 1_555
C21 N1 1_555 1_555
C22 C15 1_555 1_555
H17 C22 1_555 1_555
H18 C22 1_555 1_555
H19 C22 1_555 1_555
C5 C6 1_555 1_555
C8 C15 1_555 1_555
C13 C14 1_555 1_555
C16 C21 1_555 1_555
C20 C21 1_555 1_555

#END
