
#######################################################################
#
#                 Cambridge Crystallographic Data Centre
#                                CCDC 
#
#######################################################################
#
# If this CIF has been generated from an entry in the Cambridge 
# Structural Database, then it will include bibliographic, chemical, 
# crystal, experimental, refinement or atomic coordinate data resulting 
# from the CCDC's data processing and validation procedures.
#
#######################################################################

data_ZUZSAQ
_chemical_formula_moiety         'C23 H21 N1 O3 S1'
_chemical_name_systematic        
3,4b-Dimethyl-10-((4-methylphenyl)sulfonyl)-9b,10-dihydro-4bH-[1]benzofuro[3,2-b]indole
_symmetry_cell_setting           monoclinic
_symmetry_space_group_name_H-M   'P 21/c'
_symmetry_Int_Tables_number      14
_space_group_name_Hall           '-P 2ybc'
loop_
_symmetry_equiv_pos_site_id
_symmetry_equiv_pos_as_xyz
1 x,y,z
2 -x,1/2+y,1/2-z
3 -x,-y,-z
4 x,1/2-y,1/2+z
_cell_length_a                   19.4597(11)
_cell_length_b                   12.4904(6)
_cell_length_c                   17.6599(10)
_cell_angle_alpha                90
_cell_angle_beta                 110.645(2)
_cell_angle_gamma                90
_cell_volume                     4016.76
_exptl_crystal_colour            colorless
_exptl_crystal_description       parallelepiped
_cell_formula_units_Z            8
loop_
_atom_site_label
_atom_site_type_symbol
_atom_site_fract_x
_atom_site_fract_y
_atom_site_fract_z
S1 S 0.01773(7) 0.71856(12) 0.19633(8)
O1 O -0.0230(2) 0.6517(4) 0.1306(2)
O2 O 0.0213(2) 0.8318(3) 0.1855(3)
O3 O 0.2321(2) 0.4735(3) 0.2979(2)
N1 N 0.1029(2) 0.6730(3) 0.2259(2)
C1 C -0.0139(2) 0.6972(4) 0.2758(3)
C2 C -0.0495(3) 0.6030(4) 0.2801(3)
H1 H -0.0588 0.5523 0.2392
C3 C -0.0713(3) 0.5845(5) 0.3450(3)
H2 H -0.0943 0.5202 0.3478
C4 C -0.0600(3) 0.6584(5) 0.4055(3)
C5 C -0.0239(3) 0.7517(5) 0.4007(4)
H3 H -0.0144 0.8018 0.4421
C6 C -0.0015(3) 0.7730(4) 0.3362(4)
H4 H 0.0216 0.8373 0.3335
C7 C -0.0861(4) 0.6398(6) 0.4752(4)
H5 H -0.0735 0.7005 0.5108
H6 H -0.0629 0.5768 0.5042
H7 H -0.1384 0.6303 0.4549
C8 C 0.1128(3) 0.5553(4) 0.2351(3)
H8 H 0.0677 0.5202 0.2349
C9 C 0.1412(3) 0.5043(4) 0.1757(3)
C10 C 0.1105(4) 0.4985(5) 0.0922(3)
H9 H 0.0649 0.5284 0.0637
C11 C 0.1518(6) 0.4451(7) 0.0525(5)
H10 H 0.1337 0.4406 -0.0036
C12 C 0.2184(6) 0.3997(7) 0.0953(6)
H11 H 0.2434 0.3627 0.0672
C13 C 0.2492(4) 0.4068(5) 0.1772(4)
H12 H 0.2950 0.3775 0.2054
C14 C 0.2087(3) 0.4601(4) 0.2167(3)
C15 C 0.1768(3) 0.5368(3) 0.3169(3)
C16 C 0.2042(2) 0.6479(3) 0.3422(2)
C17 C 0.2643(3) 0.6796(4) 0.4072(3)
H13 H 0.2937 0.6284 0.4419
C18 C 0.2817(3) 0.7883(4) 0.4213(3)
C19 C 0.2369(3) 0.8618(4) 0.3678(3)
H14 H 0.2479 0.9342 0.3764
C20 C 0.1765(3) 0.8316(4) 0.3021(3)
H15 H 0.1474 0.8824 0.2667
C21 C 0.1608(2) 0.7239(3) 0.2908(2)
C22 C 0.1557(3) 0.4744(4) 0.3793(3)
H16 H 0.1980 0.4664 0.4277
H17 H 0.1378 0.4050 0.3580
H18 H 0.1180 0.5124 0.3915
C23 C 0.3477(4) 0.8245(6) 0.4925(4)
H19 H 0.3509 0.9012 0.4925
H20 H 0.3916 0.7944 0.4881
H21 H 0.3426 0.8009 0.5420
S2 S 0.48673(8) 0.88883(15) 0.32907(9)
O4 O 0.5276(2) 0.9637(5) 0.3887(2)
O5 O 0.4851(3) 0.7777(4) 0.3487(3)
O6 O 0.27063(19) 1.1270(3) 0.20672(19)
N2 N 0.4009(2) 0.9319(3) 0.2972(2)
C24 C 0.5173(2) 0.8976(4) 0.2471(3)
C25 C 0.5543(3) 0.9869(5) 0.2362(4)
H22 H 0.5646 1.0427 0.2734
C26 C 0.5761(3) 0.9931(5) 0.1692(4)
H23 H 0.6013 1.0535 0.1625
C27 C 0.5616(3) 0.9131(5) 0.1130(3)
C28 C 0.5233(3) 0.8254(5) 0.1239(4)
H24 H 0.5124 0.7704 0.0860
C29 C 0.5003(3) 0.8167(4) 0.1898(4)
H25 H 0.4738 0.7571 0.1954
C30 C 0.5871(3) 0.9209(6) 0.0421(4)
H26 H 0.5720 0.8581 0.0090
H27 H 0.6397 0.9263 0.0613
H28 H 0.5660 0.9831 0.0107
C31 C 0.3885(2) 1.0484(4) 0.2825(3)
H29 H 0.4339 1.0860 0.2863
C32 C 0.3528(2) 1.0973(3) 0.3361(3)
C33 C 0.3746(3) 1.1045(4) 0.4190(3)
H30 H 0.4197 1.0768 0.4516
C34 C 0.3292(4) 1.1532(5) 0.4533(4)
H31 H 0.3432 1.1573 0.5093
C35 C 0.2630(4) 1.1956(5) 0.4049(4)
H32 H 0.2331 1.2288 0.4289
C36 C 0.2400(3) 1.1900(4) 0.3215(3)
H33 H 0.1954 1.2192 0.2890
C37 C 0.2858(3) 1.1395(4) 0.2884(3)
C38 C 0.3288(3) 1.0598(4) 0.1970(3)
C39 C 0.3012(2) 0.9478(4) 0.1770(3)
C40 C 0.2416(3) 0.9110(4) 0.1137(3)
H34 H 0.2129 0.9594 0.0756
C41 C 0.2238(3) 0.8042(5) 0.1057(3)
C42 C 0.2670(4) 0.7348(5) 0.1622(4)
H35 H 0.2556 0.6622 0.1567
C43 C 0.3280(3) 0.7685(4) 0.2284(3)
H36 H 0.3562 0.7201 0.2667
C44 C 0.3446(2) 0.8770(4) 0.2342(3)
C45 C 0.3540(3) 1.1125(5) 0.1337(3)
H37 H 0.3137 1.1161 0.0831
H38 H 0.3931 1.0712 0.1270
H39 H 0.3713 1.1836 0.1510
C46 C 0.1567(4) 0.7652(6) 0.0367(4)
H40 H 0.1526 0.6889 0.0402
H41 H 0.1616 0.7834 -0.0140
H42 H 0.1135 0.7987 0.0401
loop_
_geom_bond_atom_site_label_1
_geom_bond_atom_site_label_2
_geom_bond_site_symmetry_1
_geom_bond_site_symmetry_2
S1 O1 1_555 1_555
O2 S1 1_555 1_555
O3 C14 1_555 1_555
N1 S1 1_555 1_555
C1 S1 1_555 1_555
C2 C1 1_555 1_555
H1 C2 1_555 1_555
C3 C2 1_555 1_555
H2 C3 1_555 1_555
C4 C3 1_555 1_555
C5 C4 1_555 1_555
H3 C5 1_555 1_555
C6 C1 1_555 1_555
H4 C6 1_555 1_555
C7 C4 1_555 1_555
H5 C7 1_555 1_555
H6 C7 1_555 1_555
H7 C7 1_555 1_555
C8 N1 1_555 1_555
H8 C8 1_555 1_555
C9 C8 1_555 1_555
C10 C9 1_555 1_555
H9 C10 1_555 1_555
C11 C10 1_555 1_555
H10 C11 1_555 1_555
C12 C11 1_555 1_555
H11 C12 1_555 1_555
C13 C12 1_555 1_555
H12 C13 1_555 1_555
C14 C9 1_555 1_555
C15 O3 1_555 1_555
C16 C15 1_555 1_555
C17 C16 1_555 1_555
H13 C17 1_555 1_555
C18 C17 1_555 1_555
C19 C18 1_555 1_555
H14 C19 1_555 1_555
C20 C19 1_555 1_555
H15 C20 1_555 1_555
C21 N1 1_555 1_555
C22 C15 1_555 1_555
H16 C22 1_555 1_555
H17 C22 1_555 1_555
H18 C22 1_555 1_555
C23 C18 1_555 1_555
H19 C23 1_555 1_555
H20 C23 1_555 1_555
H21 C23 1_555 1_555
S2 O4 1_555 1_555
O5 S2 1_555 1_555
O6 C37 1_555 1_555
N2 S2 1_555 1_555
C24 S2 1_555 1_555
C25 C24 1_555 1_555
H22 C25 1_555 1_555
C26 C25 1_555 1_555
H23 C26 1_555 1_555
C27 C26 1_555 1_555
C28 C27 1_555 1_555
H24 C28 1_555 1_555
C29 C24 1_555 1_555
H25 C29 1_555 1_555
C30 C27 1_555 1_555
H26 C30 1_555 1_555
H27 C30 1_555 1_555
H28 C30 1_555 1_555
C31 N2 1_555 1_555
H29 C31 1_555 1_555
C32 C31 1_555 1_555
C33 C32 1_555 1_555
H30 C33 1_555 1_555
C34 C33 1_555 1_555
H31 C34 1_555 1_555
C35 C34 1_555 1_555
H32 C35 1_555 1_555
C36 C35 1_555 1_555
H33 C36 1_555 1_555
C37 C32 1_555 1_555
C38 O6 1_555 1_555
C39 C38 1_555 1_555
C40 C39 1_555 1_555
H34 C40 1_555 1_555
C41 C40 1_555 1_555
C42 C41 1_555 1_555
H35 C42 1_555 1_555
C43 C42 1_555 1_555
H36 C43 1_555 1_555
C44 N2 1_555 1_555
C45 C38 1_555 1_555
H37 C45 1_555 1_555
H38 C45 1_555 1_555
H39 C45 1_555 1_555
C46 C41 1_555 1_555
H40 C46 1_555 1_555
H41 C46 1_555 1_555
H42 C46 1_555 1_555
C5 C6 1_555 1_555
C8 C15 1_555 1_555
C13 C14 1_555 1_555
C16 C21 1_555 1_555
C20 C21 1_555 1_555
C28 C29 1_555 1_555
C31 C38 1_555 1_555
C36 C37 1_555 1_555
C39 C44 1_555 1_555
C43 C44 1_555 1_555

#END
