
#######################################################################
#
#                 Cambridge Crystallographic Data Centre
#                                CCDC 
#
#######################################################################
#
# If this CIF has been generated from an entry in the Cambridge 
# Structural Database, then it will include bibliographic, chemical, 
# crystal, experimental, refinement or atomic coordinate data resulting 
# from the CCDC's data processing and validation procedures.
#
#######################################################################

data_ZUZSOE
_chemical_formula_moiety         'C23 H21 N1 O4 S1'
_chemical_name_systematic        
7-Methoxy-5-((4-methylphenyl)sulfonyl)-4b,10-dihydroindeno[1,2-b]indol-9b(5H)-ol
_symmetry_cell_setting           triclinic
_symmetry_space_group_name_H-M   'P -1'
_symmetry_Int_Tables_number      2
_space_group_name_Hall           '-P 1'
loop_
_symmetry_equiv_pos_site_id
_symmetry_equiv_pos_as_xyz
1 x,y,z
2 -x,-y,-z
_cell_length_a                   8.7339(4)
_cell_length_b                   11.1286(4)
_cell_length_c                   21.3993(9)
_cell_angle_alpha                104.0890(10)
_cell_angle_beta                 96.184(2)
_cell_angle_gamma                92.6270(10)
_cell_volume                     2000.01
_exptl_crystal_colour            colorless
_exptl_crystal_description       parallelepiped
_cell_formula_units_Z            4
loop_
_atom_site_label
_atom_site_type_symbol
_atom_site_fract_x
_atom_site_fract_y
_atom_site_fract_z
S1 S 0.57660(6) 0.93641(5) 0.18245(3)
O1 O 0.48847(18) 1.03161(15) 0.16527(8)
O2 O 0.51422(18) 0.80985(14) 0.16280(8)
O3 O 1.0233(2) 1.13600(16) 0.24651(8)
H1 H 1.031(4) 1.215(3) 0.2440(15)
O4 O 0.97275(19) 0.55026(14) 0.16187(8)
N1 N 0.7373(2) 0.94117(16) 0.14864(9)
C1 C 0.6277(2) 0.9768(2) 0.26693(11)
C2 C 0.6292(3) 1.0999(2) 0.30168(12)
H2 H 0.6015 1.1621 0.2799
C3 C 0.6712(3) 1.1312(2) 0.36812(13)
H3 H 0.6734 1.2156 0.3917
C4 C 0.7101(3) 1.0414(2) 0.40100(12)
C5 C 0.7100(3) 0.9188(2) 0.36519(12)
H4 H 0.7381 0.8567 0.3870
C6 C 0.6697(3) 0.8855(2) 0.29863(12)
H5 H 0.6707 0.8015 0.2748
C7 C 0.7511(4) 1.0757(3) 0.47380(14)
H6 H 0.7758 1.0011 0.4884
H7 H 0.6634 1.1119 0.4945
H8 H 0.8409 1.1364 0.4858
C8 C 0.8130(3) 1.0677(2) 0.15434(11)
H9 H 0.7621 1.1327 0.1844
C9 C 0.8174(3) 1.0987(2) 0.08996(11)
C10 C 0.6931(3) 1.1043(2) 0.04465(12)
H10 H 0.5907 1.0814 0.0508
C11 C 0.7224(4) 1.1443(3) -0.00984(14)
H11 H 0.6390 1.1505 -0.0410
C12 C 0.8725(4) 1.1752(3) -0.01919(14)
H12 H 0.8907 1.2035 -0.0564
C13 C 0.9951(4) 1.1653(3) 0.02479(13)
H13 H 1.0978 1.1845 0.0175
C14 C 0.9674(3) 1.1271(2) 0.08001(12)
C15 C 1.0825(3) 1.1147(2) 0.13469(12)
H14 H 1.1375 1.1961 0.1570
H15 H 1.1593 1.0556 0.1186
C16 C 0.9865(3) 1.0653(2) 0.18113(11)
C17 C 0.9990(3) 0.9300(2) 0.17913(10)
C18 C 1.1290(3) 0.8693(2) 0.19288(11)
H16 H 1.2268 0.9146 0.2063
C19 C 1.1155(3) 0.7430(2) 0.18701(11)
H17 H 1.2042 0.7013 0.1966
C20 C 0.9722(3) 0.6758(2) 0.16702(11)
C21 C 0.8401(3) 0.7343(2) 0.15328(10)
H18 H 0.7424 0.6891 0.1395
C22 C 0.8576(2) 0.8625(2) 0.16066(10)
C23 C 0.8376(3) 0.4729(2) 0.13109(14)
H19 H 0.8544 0.3864 0.1310
H20 H 0.8154 0.4799 0.0863
H21 H 0.7500 0.4993 0.1548
S2 S 0.52821(6) 0.49140(5) 0.30454(3)
O5 O 0.58810(18) 0.38389(14) 0.32063(8)
O6 O 0.61995(17) 0.60723(14) 0.32179(8)
O7 O 0.0417(2) 0.39396(16) 0.25248(8)
H22 H 0.052(4) 0.442(3) 0.2302(15)
O8 O 0.2972(2) 0.95217(14) 0.36953(9)
N2 N 0.3722(2) 0.51493(16) 0.34117(9)
C24 C 0.4712(2) 0.4543(2) 0.22010(10)
C25 C 0.4500(3) 0.3314(2) 0.18478(11)
H23 H 0.4633 0.2661 0.2059
C26 C 0.4093(3) 0.3052(2) 0.11834(12)
H24 H 0.3956 0.2209 0.0940
C27 C 0.3879(3) 0.3986(2) 0.08622(12)
C28 C 0.4081(3) 0.5214(2) 0.12301(12)
H25 H 0.3932 0.5867 0.1020
C29 C 0.4496(3) 0.5501(2) 0.18953(11)
H26 H 0.4631 0.6343 0.2140
C30 C 0.3464(4) 0.3686(3) 0.01358(13)
H27 H 0.3370 0.2782 -0.0040
H28 H 0.4274 0.4055 -0.0058
H29 H 0.2479 0.4025 0.0033
C31 C 0.2624(2) 0.40762(19) 0.33860(10)
H30 H 0.2871 0.3311 0.3068
C32 C 0.2535(3) 0.38509(19) 0.40453(10)
C33 C 0.3752(3) 0.3709(2) 0.44934(11)
H31 H 0.4790 0.3774 0.4404
C34 C 0.3415(3) 0.3470(2) 0.50731(12)
H32 H 0.4228 0.3368 0.5384
C35 C 0.1897(4) 0.3379(2) 0.52006(12)
H33 H 0.1680 0.3201 0.5596
C36 C 0.0690(3) 0.3545(2) 0.47601(12)
H34 H -0.0346 0.3496 0.4855
C37 C 0.1015(3) 0.3785(2) 0.41771(11)
C38 C -0.0079(3) 0.3996(2) 0.36285(11)
H35 H -0.0806 0.4622 0.3792
H36 H -0.0678 0.3213 0.3387
C39 C 0.0986(2) 0.4470(2) 0.31941(10)
C40 C 0.1279(2) 0.5860(2) 0.33326(10)
C41 C 0.0228(3) 0.6766(2) 0.33531(11)
H37 H -0.0850 0.6539 0.3288
C42 C 0.0763(3) 0.8002(2) 0.34697(11)
H38 H 0.0049 0.8624 0.3482
C43 C 0.2338(3) 0.8335(2) 0.35681(11)
C44 C 0.3413(3) 0.7438(2) 0.35532(11)
H39 H 0.4492 0.7663 0.3628
C45 C 0.2846(2) 0.6213(2) 0.34257(10)
C46 C 0.1946(3) 1.0491(2) 0.37402(14)
H40 H 0.2545 1.1294 0.3831
H41 H 0.1316 1.0485 0.4092
H42 H 0.1272 1.0361 0.3329
loop_
_geom_bond_atom_site_label_1
_geom_bond_atom_site_label_2
_geom_bond_site_symmetry_1
_geom_bond_site_symmetry_2
S1 O1 1_555 1_555
O2 S1 1_555 1_555
O3 H1 1_555 1_555
O4 C20 1_555 1_555
N1 S1 1_555 1_555
C1 S1 1_555 1_555
C2 C1 1_555 1_555
H2 C2 1_555 1_555
C3 C2 1_555 1_555
H3 C3 1_555 1_555
C4 C3 1_555 1_555
C5 C4 1_555 1_555
H4 C5 1_555 1_555
C6 C1 1_555 1_555
H5 C6 1_555 1_555
C7 C4 1_555 1_555
H6 C7 1_555 1_555
H7 C7 1_555 1_555
H8 C7 1_555 1_555
C8 N1 1_555 1_555
H9 C8 1_555 1_555
C9 C8 1_555 1_555
C10 C9 1_555 1_555
H10 C10 1_555 1_555
C11 C10 1_555 1_555
H11 C11 1_555 1_555
C12 C11 1_555 1_555
H12 C12 1_555 1_555
C13 C12 1_555 1_555
H13 C13 1_555 1_555
C14 C9 1_555 1_555
C15 C14 1_555 1_555
H14 C15 1_555 1_555
H15 C15 1_555 1_555
C16 O3 1_555 1_555
C17 C16 1_555 1_555
C18 C17 1_555 1_555
H16 C18 1_555 1_555
C19 C18 1_555 1_555
H17 C19 1_555 1_555
C20 C19 1_555 1_555
C21 C20 1_555 1_555
H18 C21 1_555 1_555
C22 N1 1_555 1_555
C23 O4 1_555 1_555
H19 C23 1_555 1_555
H20 C23 1_555 1_555
H21 C23 1_555 1_555
S2 O5 1_555 1_555
O6 S2 1_555 1_555
O7 H22 1_555 1_555
O8 C43 1_555 1_555
N2 S2 1_555 1_555
C24 S2 1_555 1_555
C25 C24 1_555 1_555
H23 C25 1_555 1_555
C26 C25 1_555 1_555
H24 C26 1_555 1_555
C27 C26 1_555 1_555
C28 C27 1_555 1_555
H25 C28 1_555 1_555
C29 C24 1_555 1_555
H26 C29 1_555 1_555
C30 C27 1_555 1_555
H27 C30 1_555 1_555
H28 C30 1_555 1_555
H29 C30 1_555 1_555
C31 N2 1_555 1_555
H30 C31 1_555 1_555
C32 C31 1_555 1_555
C33 C32 1_555 1_555
H31 C33 1_555 1_555
C34 C33 1_555 1_555
H32 C34 1_555 1_555
C35 C34 1_555 1_555
H33 C35 1_555 1_555
C36 C35 1_555 1_555
H34 C36 1_555 1_555
C37 C32 1_555 1_555
C38 C37 1_555 1_555
H35 C38 1_555 1_555
H36 C38 1_555 1_555
C39 O7 1_555 1_555
C40 C39 1_555 1_555
C41 C40 1_555 1_555
H37 C41 1_555 1_555
C42 C41 1_555 1_555
H38 C42 1_555 1_555
C43 C42 1_555 1_555
C44 C43 1_555 1_555
H39 C44 1_555 1_555
C45 N2 1_555 1_555
C46 O8 1_555 1_555
H40 C46 1_555 1_555
H41 C46 1_555 1_555
H42 C46 1_555 1_555
C5 C6 1_555 1_555
C8 C16 1_555 1_555
C13 C14 1_555 1_555
C15 C16 1_555 1_555
C17 C22 1_555 1_555
C21 C22 1_555 1_555
C28 C29 1_555 1_555
C31 C39 1_555 1_555
C36 C37 1_555 1_555
C38 C39 1_555 1_555
C40 C45 1_555 1_555
C44 C45 1_555 1_555

#END
