
#######################################################################
#
#                 Cambridge Crystallographic Data Centre
#                                CCDC 
#
#######################################################################
#
# If this CIF has been generated from an entry in the Cambridge 
# Structural Database, then it will include bibliographic, chemical, 
# crystal, experimental, refinement or atomic coordinate data resulting 
# from the CCDC's data processing and validation procedures.
#
#######################################################################

data_ZUZWEY
_chemical_formula_moiety         'C16 H22 O1'
_chemical_name_systematic        3-n-Butyl-2-phenylcyclohexanone
_symmetry_cell_setting           monoclinic
_symmetry_space_group_name_H-M   'P c'
_symmetry_Int_Tables_number      7
_space_group_name_Hall           'P -2yc'
loop_
_symmetry_equiv_pos_site_id
_symmetry_equiv_pos_as_xyz
1 x,y,z
2 x,-y,1/2+z
_cell_length_a                   5.6982(3)
_cell_length_b                   18.9135(10)
_cell_length_c                   13.0889(7)
_cell_angle_alpha                90
_cell_angle_beta                 95.097(5)
_cell_angle_gamma                90
_cell_volume                     1405.05
_exptl_crystal_colour            colorless
_exptl_crystal_description       block
_cell_formula_units_Z            4
loop_
_atom_site_label
_atom_site_type_symbol
_atom_site_fract_x
_atom_site_fract_y
_atom_site_fract_z
O1 O -1.2436(4) -0.68836(14) -0.2968(2)
C1 C -1.0684(6) -0.66231(17) -0.2541(2)
C2 C -1.0323(8) -0.6575(2) -0.1400(3)
H1 H -0.8960 -0.6853 -0.1152
H2 H -1.1689 -0.6763 -0.1101
C3 C -0.9948(7) -0.5802(2) -0.1079(3)
H3 H -1.1394 -0.5539 -0.1245
H4 H -0.9566 -0.5777 -0.0343
C4 C -0.7973(6) -0.5468(2) -0.1620(2)
H5 H -0.6501 -0.5703 -0.1397
H6 H -0.7822 -0.4975 -0.1423
C5 C -0.8392(5) -0.55178(14) -0.2787(2)
H7 H -0.9854 -0.5265 -0.3000
C6 C -0.8723(5) -0.63056(15) -0.3121(2)
H8 H -0.7264 -0.6555 -0.2890
C7 C -0.6399(5) -0.51746(16) -0.3324(2)
H9 H -0.4904 -0.5359 -0.3026
H10 H -0.6565 -0.5308 -0.4043
C8 C -0.6351(6) -0.43683(16) -0.3249(2)
H11 H -0.7859 -0.4184 -0.3533
H12 H -0.6142 -0.4234 -0.2531
C9 C -0.4411(7) -0.4033(2) -0.3806(3)
H13 H -0.4541 -0.4196 -0.4511
H14 H -0.2895 -0.4185 -0.3486
C10 C -0.4519(10) -0.3228(2) -0.3796(4)
H15 H -0.4475 -0.3064 -0.3100
H16 H -0.5954 -0.3073 -0.4169
H17 H -0.3196 -0.3039 -0.4112
C11 C -0.9120(5) -0.64033(14) -0.4267(2)
C12 C -0.7476(5) -0.67587(17) -0.4791(2)
H18 H -0.6130 -0.6940 -0.4430
C13 C -0.7801(7) -0.68478(19) -0.5837(3)
H19 H -0.6660 -0.7081 -0.6177
C14 C -0.9784(7) -0.6598(2) -0.6383(3)
H20 H -1.0014 -0.6670 -0.7088
C15 C -1.1427(6) -0.6240(2) -0.5883(3)
H21 H -1.2770 -0.6063 -0.6252
C16 C -1.1105(5) -0.61390(18) -0.4825(2)
H22 H -1.2228 -0.5893 -0.4493
O2 O -1.0370(6) -0.1919(2) -0.4127(3)
C17 C -0.8447(10) -0.1465(3) -0.2604(3)
H23 H -0.7052 -0.1712 -0.2311
H24 H -0.9797 -0.1655 -0.2293
C18 C -0.8745(6) -0.1588(2) -0.3738(3)
C19 C -0.8209(8) -0.0676(3) -0.2365(3)
H25 H -0.9685 -0.0440 -0.2573
H26 H -0.7870 -0.0611 -0.1632
C20 C -0.6249(7) -0.0350(2) -0.2923(3)
H27 H -0.4756 -0.0556 -0.2660
H28 H -0.6178 0.0153 -0.2781
C21 C -0.6583(5) -0.04610(16) -0.4078(2)
H29 H -0.8048 -0.0224 -0.4333
C22 C -0.6851(5) -0.12600(16) -0.4349(2)
H30 H -0.5356 -0.1488 -0.4113
C23 C -0.4578(5) -0.01327(16) -0.4624(3)
H31 H -0.3092 -0.0320 -0.4321
H32 H -0.4752 -0.0276 -0.5339
C24 C -0.4482(6) 0.06731(17) -0.4573(3)
H33 H -0.5958 0.0863 -0.4883
H34 H -0.4315 0.0818 -0.3859
C25 C -0.2476(7) 0.0982(2) -0.5110(3)
H35 H -0.0994 0.0823 -0.4764
H36 H -0.2569 0.0806 -0.5809
C26 C -0.2497(10) 0.1778(2) -0.5134(4)
H37 H -0.2567 0.1956 -0.4451
H38 H -0.3848 0.1939 -0.5561
H39 H -0.1089 0.1946 -0.5406
C27 C -0.7278(5) -0.14029(15) -0.5484(2)
C28 C -0.5635(5) -0.17654(16) -0.6004(3)
H40 H -0.4249 -0.1920 -0.5644
C29 C -0.6003(7) -0.1902(2) -0.7041(3)
H41 H -0.4873 -0.2148 -0.7370
C30 C -0.8023(7) -0.1678(2) -0.7587(3)
H42 H -0.8280 -0.1772 -0.8286
C31 C -0.9679(6) -0.1310(2) -0.7090(3)
H43 H -1.1054 -0.1152 -0.7456
C32 C -0.9302(5) -0.11746(19) -0.6055(3)
H44 H -1.0430 -0.0925 -0.5731
loop_
_geom_bond_atom_site_label_1
_geom_bond_atom_site_label_2
_geom_bond_site_symmetry_1
_geom_bond_site_symmetry_2
O1 C1 1_555 1_555
C1 C2 1_555 1_555
C2 H1 1_555 1_555
H2 C2 1_555 1_555
C3 C2 1_555 1_555
H3 C3 1_555 1_555
H4 C3 1_555 1_555
C4 C3 1_555 1_555
H5 C4 1_555 1_555
H6 C4 1_555 1_555
C5 C4 1_555 1_555
H7 C5 1_555 1_555
C6 C1 1_555 1_555
H8 C6 1_555 1_555
C7 C5 1_555 1_555
H9 C7 1_555 1_555
H10 C7 1_555 1_555
C8 C7 1_555 1_555
H11 C8 1_555 1_555
H12 C8 1_555 1_555
C9 C8 1_555 1_555
H13 C9 1_555 1_555
H14 C9 1_555 1_555
C10 C9 1_555 1_555
H15 C10 1_555 1_555
H16 C10 1_555 1_555
H17 C10 1_555 1_555
C11 C6 1_555 1_555
C12 C11 1_555 1_555
H18 C12 1_555 1_555
C13 C12 1_555 1_555
H19 C13 1_555 1_555
C14 C13 1_555 1_555
H20 C14 1_555 1_555
C15 C14 1_555 1_555
H21 C15 1_555 1_555
C16 C11 1_555 1_555
H22 C16 1_555 1_555
O2 C18 1_555 1_555
C17 H23 1_555 1_555
H24 C17 1_555 1_555
C18 C17 1_555 1_555
C19 C17 1_555 1_555
H25 C19 1_555 1_555
H26 C19 1_555 1_555
C20 C19 1_555 1_555
H27 C20 1_555 1_555
H28 C20 1_555 1_555
C21 C20 1_555 1_555
H29 C21 1_555 1_555
C22 C18 1_555 1_555
H30 C22 1_555 1_555
C23 C21 1_555 1_555
H31 C23 1_555 1_555
H32 C23 1_555 1_555
C24 C23 1_555 1_555
H33 C24 1_555 1_555
H34 C24 1_555 1_555
C25 C24 1_555 1_555
H35 C25 1_555 1_555
H36 C25 1_555 1_555
C26 C25 1_555 1_555
H37 C26 1_555 1_555
H38 C26 1_555 1_555
H39 C26 1_555 1_555
C27 C22 1_555 1_555
C28 C27 1_555 1_555
H40 C28 1_555 1_555
C29 C28 1_555 1_555
H41 C29 1_555 1_555
C30 C29 1_555 1_555
H42 C30 1_555 1_555
C31 C30 1_555 1_555
H43 C31 1_555 1_555
C32 C27 1_555 1_555
H44 C32 1_555 1_555
C5 C6 1_555 1_555
C15 C16 1_555 1_555
C21 C22 1_555 1_555
C31 C32 1_555 1_555

#END
