
#######################################################################
#
#                 Cambridge Crystallographic Data Centre
#                                CCDC 
#
#######################################################################
#
# If this CIF has been generated from an entry in the Cambridge 
# Structural Database, then it will include bibliographic, chemical, 
# crystal, experimental, refinement or atomic coordinate data resulting 
# from the CCDC's data processing and validation procedures.
#
#######################################################################

data_ZUZYEY
_chemical_formula_moiety         'C13 H11 N1 O3 S1'
_chemical_name_systematic        '4-Methoxyphenyl 2-nitrophenyl sulfide'
_symmetry_cell_setting           triclinic
_symmetry_space_group_name_H-M   'P -1'
_symmetry_Int_Tables_number      2
_space_group_name_Hall           '-P 1'
loop_
_symmetry_equiv_pos_site_id
_symmetry_equiv_pos_as_xyz
1 x,y,z
2 -x,-y,-z
_cell_length_a                   9.160(6)
_cell_length_b                   7.819(5)
_cell_length_c                   9.570(4)
_cell_angle_alpha                80.49(5)
_cell_angle_beta                 113.72(4)
_cell_angle_gamma                98.97(5)
_cell_volume                     615.851
_exptl_crystal_colour            yellow
_chemical_melting_point          '382 K'
_cell_formula_units_Z            2
loop_
_atom_site_label
_atom_site_type_symbol
_atom_site_fract_x
_atom_site_fract_y
_atom_site_fract_z
S1 S 0.6921(1) 0.3357(1) 0.0080(1)
N1 N 0.9350(2) 0.6647(2) 0.1069(2)
O1 O 0.9094(2) 0.5453(2) 0.1965(2)
O2 O 1.0224(2) 0.7971(2) 0.1497(2)
O3 O 0.1912(2) -0.1315(2) -0.4048(2)
C1 C 0.7456(2) 0.5073(2) -0.1134(2)
C2 C 0.8572(2) 0.6497(2) -0.0575(2)
C3 C 0.9010(3) 0.7818(3) -0.1533(3)
C4 C 0.8346(3) 0.7774(3) -0.3088(3)
C5 C 0.7231(3) 0.6400(3) -0.3682(3)
C6 C 0.6792(2) 0.5082(3) -0.2737(2)
C7 C 0.5453(2) 0.2010(3) -0.1254(2)
C8 C 0.3843(3) 0.2239(3) -0.1768(3)
C9 C 0.2693(3) 0.1108(3) -0.2702(3)
C10 C 0.3146(3) -0.0275(3) -0.3130(2)
C11 C 0.4743(3) -0.0509(3) -0.2631(3)
C12 C 0.5892(3) 0.0637(3) -0.1687(3)
C13 C 0.2296(4) -0.2775(3) -0.4501(3)
H1 H 0.9799 0.8785 -0.1095
H2 H 0.8654 0.8701 -0.3771
H3 H 0.6745 0.6364 -0.4796
H4 H 0.5997 0.4128 -0.3194
H5 H 0.3519 0.3211 -0.1467
H6 H 0.1557 0.1280 -0.3064
H7 H 0.5068 -0.1476 -0.2938
H8 H 0.7029 0.0467 -0.1325
H9 H 0.1270 -0.3411 -0.5073
H10 H 0.2943 -0.3555 -0.3634
H11 H 0.2871 -0.2351 -0.5181
loop_
_geom_bond_atom_site_label_1
_geom_bond_atom_site_label_2
_geom_bond_site_symmetry_1
_geom_bond_site_symmetry_2
S1 C1 1_555 1_555
N1 O1 1_555 1_555
O2 N1 1_555 1_555
O3 C10 1_555 1_555
C1 C2 1_555 1_555
C2 N1 1_555 1_555
C3 C2 1_555 1_555
C4 C3 1_555 1_555
C5 C4 1_555 1_555
C6 C1 1_555 1_555
C7 S1 1_555 1_555
C8 C7 1_555 1_555
C9 C8 1_555 1_555
C10 C9 1_555 1_555
C11 C10 1_555 1_555
C12 C7 1_555 1_555
C13 O3 1_555 1_555
H1 C3 1_555 1_555
H2 C4 1_555 1_555
H3 C5 1_555 1_555
H4 C6 1_555 1_555
H5 C8 1_555 1_555
H6 C9 1_555 1_555
H7 C11 1_555 1_555
H8 C12 1_555 1_555
H9 C13 1_555 1_555
H10 C13 1_555 1_555
H11 C13 1_555 1_555
C5 C6 1_555 1_555
C11 C12 1_555 1_555

#END
