
#######################################################################
#
#                 Cambridge Crystallographic Data Centre
#                                CCDC 
#
#######################################################################
#
# If this CIF has been generated from an entry in the Cambridge 
# Structural Database, then it will include bibliographic, chemical, 
# crystal, experimental, refinement or atomic coordinate data resulting 
# from the CCDC's data processing and validation procedures.
#
#######################################################################

data_ZZZAKV01
_chemical_formula_moiety         'C24 H50 O1'
_chemical_name_systematic        1-Tetracosanol
_symmetry_cell_setting           monoclinic
_symmetry_space_group_name_H-M   'C 2/c'
_symmetry_Int_Tables_number      15
_space_group_name_Hall           '-C 2yn'
loop_
_symmetry_equiv_pos_site_id
_symmetry_equiv_pos_as_xyz
1 x,y,z
2 1/2+x,1/2+y,z
3 -x,y,1/2-z
4 1/2-x,1/2+y,1/2-z
5 -x,-y,-z
6 1/2-x,1/2-y,-z
7 x,-y,1/2+z
8 1/2+x,1/2-y,1/2+z
_cell_length_a                   106.09(5)
_cell_length_b                   4.89(4)
_cell_length_c                   8.79(4)
_cell_angle_alpha                90
_cell_angle_beta                 91.5(3)
_cell_angle_gamma                90
_cell_volume                     4558.51
_cell_formula_units_Z            8
loop_
_atom_site_label
_atom_site_type_symbol
_atom_site_fract_x
_atom_site_fract_y
_atom_site_fract_z
C1 C 0.23758(15) 0.1864(26) 0.6531(12)
C2 C 0.23100(18) 0.3108(29) 0.7930(12)
C3 C 0.21810(18) 0.1859(26) 0.8162(11)
C4 C 0.21132(17) 0.3126(25) 0.9539(11)
C5 C 0.19844(17) 0.1867(26) 0.9784(11)
C6 C 0.19170(17) 0.3117(24) 1.1161(11)
C7 C 0.17880(17) 0.1883(25) 1.1405(11)
C8 C 0.17202(17) 0.3105(24) 1.2784(10)
C9 C 0.15915(17) 0.1900(25) 1.3026(10)
C10 C 0.15234(16) 0.3102(23) 1.44040(99)
C11 C 0.13946(17) 0.1911(24) 1.4646(10)
C12 C 0.13265(17) 0.3097(23) 1.6022(10)
C13 C 0.11981(17) 0.1907(24) 1.6272(11)
C14 C 0.11309(17) 0.3087(24) 1.7649(11)
C15 C 0.10027(17) 0.1911(24) 1.7910(11)
C16 C 0.09354(17) 0.3088(24) 1.9284(11)
C17 C 0.08081(17) 0.1912(24) 1.9552(11)
C18 C 0.07405(17) 0.3094(24) 2.0922(11)
C19 C 0.06130(17) 0.1942(24) 2.1187(11)
C20 C 0.05445(17) 0.3114(24) 2.2551(11)
C21 C 0.04162(17) 0.1972(23) 2.2804(11)
C22 C 0.03485(17) 0.3130(25) 2.4176(11)
C23 C 0.02219(17) 0.1944(24) 2.4434(11)
C24 C 0.01523(19) 0.3100(29) 2.5801(13)
O1 O 0.00428(13) 0.1690(23) 2.60946(91)
H1 H 0.24168 0.32329 0.64289
H2 H 0.23140 0.20264 0.55722
H3 H 0.23899 -0.01381 0.66486
H4 H 0.23071 0.51099 0.78922
H5 H 0.23765 0.29196 0.89275
H6 H 0.21932 -0.01194 0.83421
H7 H 0.21212 0.19453 0.72671
H8 H 0.21107 0.51008 0.94824
H9 H 0.21757 0.29016 1.05376
H10 H 0.19958 -0.00676 0.99614
H11 H 0.19231 0.19331 0.88934
H12 H 0.19139 0.51389 1.10888
H13 H 0.19802 0.29176 1.21514
H14 H 0.17283 0.19493 1.04976
H15 H 0.17988 -0.00686 1.15784
H16 H 0.17195 0.51084 1.27169
H17 H 0.17857 0.29360 1.37683
H18 H 0.15333 0.20010 1.21001
H19 H 0.16045 -0.00357 1.32077
H20 H 0.15229 0.51178 1.43581
H21 H 0.15880 0.29249 1.53707
H22 H 0.13370 0.20338 1.37125
H23 H 0.14097 -0.00624 1.48152
H24 H 0.13280 0.51008 1.59840
H25 H 0.13923 0.28622 1.69847
H26 H 0.11393 0.20301 1.53558
H27 H 0.12150 -0.01262 1.64597
H28 H 0.11304 0.51796 1.76004
H29 H 0.11967 0.28882 1.85700
H30 H 0.09428 0.20672 1.70058
H31 H 0.10195 -0.01229 1.80900
H32 H 0.09323 0.52443 1.92389
H33 H 0.10004 0.28843 2.01845
H34 H 0.07477 0.20917 1.86621
H35 H 0.08217 -0.01571 1.96933
H36 H 0.07337 0.53071 2.08657
H37 H 0.08051 0.28697 2.18246
H38 H 0.05511 0.21248 2.03145
H39 H 0.06227 -0.01339 2.13041
H40 H 0.05384 0.51859 2.24737
H41 H 0.06118 0.28731 2.34838
H42 H 0.03479 0.22058 2.18830
H43 H 0.04271 -0.01581 2.29322
H44 H 0.03410 0.51977 2.41030
H45 H 0.04190 0.28849 2.51209
H46 H 0.01572 0.22211 2.35019
H47 H 0.02334 -0.01163 2.45442
H48 H 0.01376 0.51770 2.57098
H49 H 0.02237 0.28403 2.67337
H50? H 0.00199 0.05118 2.52658
H51? H 0.00263 0.18930 2.72430
loop_
_geom_bond_atom_site_label_1
_geom_bond_atom_site_label_2
_geom_bond_site_symmetry_1
_geom_bond_site_symmetry_2
C1 C2 1_555 1_555
C2 C3 1_555 1_555
C3 C4 1_555 1_555
C4 C5 1_555 1_555
C5 C6 1_555 1_555
C6 C7 1_555 1_555
C7 C8 1_555 1_555
C8 C9 1_555 1_555
C9 C10 1_555 1_555
C10 C11 1_555 1_555
C11 C12 1_555 1_555
C12 C13 1_555 1_555
C13 C14 1_555 1_555
C14 C15 1_555 1_555
C15 C16 1_555 1_555
C16 C17 1_555 1_555
C17 C18 1_555 1_555
C18 C19 1_555 1_555
C19 C20 1_555 1_555
C20 C21 1_555 1_555
C21 C22 1_555 1_555
C22 C23 1_555 1_555
C23 C24 1_555 1_555
C24 O1 1_555 1_555
H1 C1 1_555 1_555
H2 C1 1_555 1_555
H3 C1 1_555 1_555
H4 C2 1_555 1_555
H5 C2 1_555 1_555
H6 C3 1_555 1_555
H7 C3 1_555 1_555
H8 C4 1_555 1_555
H9 C4 1_555 1_555
H10 C5 1_555 1_555
H11 C5 1_555 1_555
H12 C6 1_555 1_555
H13 C6 1_555 1_555
H14 C7 1_555 1_555
H15 C7 1_555 1_555
H16 C8 1_555 1_555
H17 C8 1_555 1_555
H18 C9 1_555 1_555
H19 C9 1_555 1_555
H20 C10 1_555 1_555
H21 C10 1_555 1_555
H22 C11 1_555 1_555
H23 C11 1_555 1_555
H24 C12 1_555 1_555
H25 C12 1_555 1_555
H26 C13 1_555 1_555
H27 C13 1_555 1_555
H28 C14 1_555 1_555
H29 C14 1_555 1_555
H30 C15 1_555 1_555
H31 C15 1_555 1_555
H32 C16 1_555 1_555
H33 C16 1_555 1_555
H34 C17 1_555 1_555
H35 C17 1_555 1_555
H36 C18 1_555 1_555
H37 C18 1_555 1_555
H38 C19 1_555 1_555
H39 C19 1_555 1_555
H40 C20 1_555 1_555
H41 C20 1_555 1_555
H42 C21 1_555 1_555
H43 C21 1_555 1_555
H44 C22 1_555 1_555
H45 C22 1_555 1_555
H46 C23 1_555 1_555
H47 C23 1_555 1_555
H48 C24 1_555 1_555
H49 C24 1_555 1_555

#END
