
#######################################################################
#
#                 Cambridge Crystallographic Data Centre
#                                CCDC 
#
#######################################################################
#
# If this CIF has been generated from an entry in the Cambridge 
# Structural Database, then it will include bibliographic, chemical, 
# crystal, experimental, refinement or atomic coordinate data resulting 
# from the CCDC's data processing and validation procedures.
#
#######################################################################

data_ZZZEEU01
_chemical_formula_moiety         'C7 H6 O4'
_chemical_name_systematic        '2,4-Dihydroxybenzoic acid'
_symmetry_cell_setting           monoclinic
_symmetry_space_group_name_H-M   'P 21/n'
_symmetry_Int_Tables_number      14
_space_group_name_Hall           '-P 2yn'
loop_
_symmetry_equiv_pos_site_id
_symmetry_equiv_pos_as_xyz
1 x,y,z
2 1/2-x,1/2+y,1/2-z
3 -x,-y,-z
4 1/2+x,1/2-y,1/2+z
_cell_length_a                   3.6686(5)
_cell_length_b                   22.333(3)
_cell_length_c                   8.0046(11)
_cell_angle_alpha                90
_cell_angle_beta                 99.630(3)
_cell_angle_gamma                90
_cell_volume                     646.582
_exptl_crystal_colour            colorless
_exptl_crystal_description       plate
_cell_formula_units_Z            4
_exptl_crystal_recrystallization_method acetone
loop_
_atom_site_label
_atom_site_type_symbol
_atom_site_fract_x
_atom_site_fract_y
_atom_site_fract_z
C1 C 0.3016(5) 0.09421(8) 0.7174(2)
C2 C 0.3938(5) 0.15429(8) 0.7589(2)
O1 O 0.3800(4) 0.17744(6) 0.91619(17)
C3 C 0.5016(5) 0.19267(8) 0.6389(2)
C4 C 0.5175(5) 0.17137(8) 0.4772(2)
O2 O 0.6182(4) 0.20656(6) 0.35487(18)
C5 C 0.4250(5) 0.11172(8) 0.4325(2)
C6 C 0.3196(5) 0.07420(8) 0.5523(2)
C7 C 0.1800(5) 0.05422(8) 0.8407(2)
O3 O 0.1500(4) 0.07026(6) 0.98746(17)
O4 O 0.1034(4) -0.00118(6) 0.78791(18)
H1 H 0.5677 0.2352 0.6689
H2 H 0.4378 0.0967 0.3160
H3 H 0.2535 0.0317 0.5214
H4 H 0.682(9) 0.2419(15) 0.397(4)
H7 H 0.0264 -0.0281 0.8581
H8 H 0.3101 0.1540 0.9968
H5? H 0.0734 0.0440 1.0596
H6? H 0.2057 0.1081 1.0210
loop_
_geom_bond_atom_site_label_1
_geom_bond_atom_site_label_2
_geom_bond_site_symmetry_1
_geom_bond_site_symmetry_2
C1 C2 1_555 1_555
C2 O1 1_555 1_555
O1 H8 1_555 1_555
C3 C2 1_555 1_555
C4 C3 1_555 1_555
O2 C4 1_555 1_555
C5 C4 1_555 1_555
C6 C1 1_555 1_555
C7 C1 1_555 1_555
O3 C7 1_555 1_555
O4 C7 1_555 1_555
H1 C3 1_555 1_555
H2 C5 1_555 1_555
H3 C6 1_555 1_555
H4 O2 1_555 1_555
H7 O4 1_555 1_555
C5 C6 1_555 1_555

#END
