
#######################################################################
#
#                 Cambridge Crystallographic Data Centre
#                                CCDC 
#
#######################################################################
#
# If this CIF has been generated from an entry in the Cambridge 
# Structural Database, then it will include bibliographic, chemical, 
# crystal, experimental, refinement or atomic coordinate data resulting 
# from the CCDC's data processing and validation procedures.
#
#######################################################################

data_ZZZEEU03
_chemical_formula_moiety         'C7 H6 O4'
_chemical_name_systematic        '2,4-Dihydroxybenzoic acid'
_symmetry_cell_setting           monoclinic
_symmetry_space_group_name_H-M   'P 21/n'
_symmetry_Int_Tables_number      14
_space_group_name_Hall           '-P 2yn'
loop_
_symmetry_equiv_pos_site_id
_symmetry_equiv_pos_as_xyz
1 x,y,z
2 1/2-x,1/2+y,1/2-z
3 -x,-y,-z
4 1/2+x,1/2-y,1/2+z
_cell_length_a                   3.6742(5)
_cell_length_b                   22.341(3)
_cell_length_c                   8.0065(10)
_cell_angle_alpha                90
_cell_angle_beta                 99.567(3)
_cell_angle_gamma                90
_cell_volume                     648.075
_exptl_crystal_colour            colorless
_exptl_crystal_description       plate
_cell_formula_units_Z            4
_exptl_crystal_recrystallization_method acetone
loop_
_atom_site_label
_atom_site_type_symbol
_atom_site_fract_x
_atom_site_fract_y
_atom_site_fract_z
C1 C 0.3011(5) 0.09402(8) 0.7174(2)
C2 C 0.3933(5) 0.15417(8) 0.7592(2)
O1 O 0.3785(4) 0.17743(6) 0.91569(17)
C3 C 0.4999(5) 0.19273(8) 0.6393(2)
C4 C 0.5163(5) 0.17131(8) 0.4777(2)
O2 O 0.6170(4) 0.20646(6) 0.35488(18)
C5 C 0.4249(5) 0.11185(8) 0.4331(2)
C6 C 0.3195(5) 0.07439(8) 0.5524(2)
C7 C 0.1804(5) 0.05405(8) 0.8411(2)
O3 O 0.1489(4) 0.07034(6) 0.98720(16)
O4 O 0.1041(4) -0.00109(6) 0.78805(17)
H1 H 0.5659 0.2353 0.6693
H2 H 0.4378 0.0968 0.3165
H3 H 0.2534 0.0319 0.5215
H4 H 0.676(7) 0.2414(13) 0.395(3)
H7 H 0.0272 -0.0280 0.8583
H8 H 0.3086 0.1540 0.9963
H5? H 0.0722 0.0441 1.0593
H6? H 0.2045 0.1082 1.0207
loop_
_geom_bond_atom_site_label_1
_geom_bond_atom_site_label_2
_geom_bond_site_symmetry_1
_geom_bond_site_symmetry_2
C1 C2 1_555 1_555
C2 O1 1_555 1_555
O1 H8 1_555 1_555
C3 C2 1_555 1_555
C4 C3 1_555 1_555
O2 C4 1_555 1_555
C5 C4 1_555 1_555
C6 C1 1_555 1_555
C7 C1 1_555 1_555
O3 C7 1_555 1_555
O4 C7 1_555 1_555
H1 C3 1_555 1_555
H2 C5 1_555 1_555
H3 C6 1_555 1_555
H4 O2 1_555 1_555
H7 O4 1_555 1_555
C5 C6 1_555 1_555

#END
