
#######################################################################
#
#                 Cambridge Crystallographic Data Centre
#                                CCDC 
#
#######################################################################
#
# If this CIF has been generated from an entry in the Cambridge 
# Structural Database, then it will include bibliographic, chemical, 
# crystal, experimental, refinement or atomic coordinate data resulting 
# from the CCDC's data processing and validation procedures.
#
#######################################################################

data_ZZZGSC01
_chemical_compound_source        'Manikara zapota(L) Van Royan leaves'
_chemical_formula_moiety         'C6 H12 O5'
_chemical_name_systematic        (1R*,3R*,4S*,S*)-Cyclohexane-1,2,3,4,5-pentol
_symmetry_cell_setting           monoclinic
_symmetry_space_group_name_H-M   'P 21'
_symmetry_Int_Tables_number      4
_space_group_name_Hall           'P 2yb'
loop_
_symmetry_equiv_pos_site_id
_symmetry_equiv_pos_as_xyz
1 x,y,z
2 -x,1/2+y,-z
_cell_length_a                   6.4727(5)
_cell_length_b                   8.4851(6)
_cell_length_c                   6.8249(5)
_cell_angle_alpha                90
_cell_angle_beta                 110.796(2)
_cell_angle_gamma                90
_cell_volume                     350.414
_exptl_crystal_colour            colorless
_exptl_crystal_description       block
_cell_formula_units_Z            2
_exptl_crystal_recrystallization_method 'ethyl acetate/methanol'
loop_
_atom_site_label
_atom_site_type_symbol
_atom_site_fract_x
_atom_site_fract_y
_atom_site_fract_z
C1 C 0.39464(15) 0.00491(11) 0.41069(16)
H1 H 0.4688 -0.0926 0.4757
C2 C 0.15563(14) -0.03135(11) 0.27557(15)
H2 H 0.0821 0.0694 0.2247
C3 C 0.13572(14) -0.13189(11) 0.08297(15)
H3 H -0.0198 -0.1352 -0.0093
C4 C 0.27248(16) -0.06837(11) -0.04069(15)
H4 H 0.2741 -0.1468 -0.1456
C5 C 0.51009(15) -0.03378(11) 0.10101(16)
H5 H 0.5837 -0.1318 0.1590
H6 H 0.5889 0.0137 0.0188
C6 C 0.51703(15) 0.07685(11) 0.27875(16)
H7 H 0.4414 0.1747 0.2168
O1 O 0.73862(11) 0.11569(9) 0.40896(14)
H8 H 0.8190 0.0392 0.4180
O2 O 0.38759(13) 0.11155(10) 0.57023(13)
H9 H 0.5140 0.1337 0.6464
O3 O 0.04224(12) -0.10449(9) 0.39647(13)
H10 H 0.1094 -0.1839 0.4529
O4 O 0.20891(12) -0.28909(9) 0.14488(13)
H11 H 0.1094 -0.3390 0.1642
O5 O 0.16705(13) 0.07199(9) -0.14612(13)
H12 H 0.2119 0.0922 -0.2416
loop_
_geom_bond_atom_site_label_1
_geom_bond_atom_site_label_2
_geom_bond_site_symmetry_1
_geom_bond_site_symmetry_2
C1 H1 1_555 1_555
C2 C1 1_555 1_555
H2 C2 1_555 1_555
C3 C2 1_555 1_555
H3 C3 1_555 1_555
C4 C3 1_555 1_555
H4 C4 1_555 1_555
C5 C4 1_555 1_555
H5 C5 1_555 1_555
H6 C5 1_555 1_555
C6 C1 1_555 1_555
H7 C6 1_555 1_555
O1 C6 1_555 1_555
H8 O1 1_555 1_555
O2 C1 1_555 1_555
H9 O2 1_555 1_555
O3 C2 1_555 1_555
H10 O3 1_555 1_555
O4 C3 1_555 1_555
H11 O4 1_555 1_555
O5 C4 1_555 1_555
H12 O5 1_555 1_555
C5 C6 1_555 1_555

#END
