
#######################################################################
#
#                 Cambridge Crystallographic Data Centre
#                                CCDC 
#
#######################################################################
#
# If this CIF has been generated from an entry in the Cambridge 
# Structural Database, then it will include bibliographic, chemical, 
# crystal, experimental, refinement or atomic coordinate data resulting 
# from the CCDC's data processing and validation procedures.
#
#######################################################################

data_ZZZGKE01
_chemical_formula_moiety         'C6 F6,C16 H10'
_chemical_name_systematic        'Pyrene hexafluorobenzene'
_symmetry_cell_setting           monoclinic
_symmetry_space_group_name_H-M   'P 21/c'
_symmetry_Int_Tables_number      14
_space_group_name_Hall           '-P 2ybc'
loop_
_symmetry_equiv_pos_site_id
_symmetry_equiv_pos_as_xyz
1 x,y,z
2 -x,1/2+y,1/2-z
3 -x,-y,-z
4 x,1/2-y,1/2+z
_cell_length_a                   6.9467(14)
_cell_length_b                   13.331(3)
_cell_length_c                   9.3010(19)
_cell_angle_alpha                90
_cell_angle_beta                 106.67(3)
_cell_angle_gamma                90
_cell_volume                     825.133
_exptl_crystal_colour            colorless
_exptl_crystal_description       needle
_cell_formula_units_Z            2
loop_
_atom_site_label
_atom_site_type_symbol
_atom_site_fract_x
_atom_site_fract_y
_atom_site_fract_z
C1 C 0.6166(2) 0.57431(14) -0.3242(2)
C2 C 0.7174(3) 0.55552(17) -0.1729(2)
H1 H 0.7600 0.6101 -0.1056
C3 C 0.7550(3) 0.45906(18) -0.1209(2)
H2 H 0.8232 0.4478 -0.0181
C4 C 0.6950(3) 0.37762(17) -0.2167(2)
H3 H 0.7245 0.3115 -0.1785
C5 C 0.5925(2) 0.39145(14) -0.3672(2)
C6 C 0.5517(2) 0.49249(13) -0.42307(18)
C7 C 0.5765(3) 0.67347(15) -0.3842(2)
H4 H 0.6213 0.7293 -0.3200
C8 C 0.5236(3) 0.31021(14) -0.4698(2)
H5 H 0.5488 0.2432 -0.4346
C8B C 0.4764(3) 0.68979(14) -0.5302(2)
C5B C 0.4075(2) 0.60855(14) -0.6328(2)
C4B C 0.3050(3) 0.62238(17) -0.7833(2)
C3B C 0.2450(3) 0.54094(18) -0.8791(2)
C2B C 0.2826(3) 0.44448(17) -0.8271(2)
C1B C 0.3834(2) 0.42569(14) -0.6758(2)
C6B C 0.4483(2) 0.50751(13) -0.57693(18)
C7B C 0.4235(3) 0.32653(15) -0.6158(2)
H4B H 0.3787 0.2707 -0.6800
H1B H 0.2400 0.3899 -0.8944
H2B H 0.1768 0.5522 -0.9819
H3B H 0.2755 0.6885 -0.8215
H5B H 0.4512 0.7568 -0.5654
C9 C 0.9863(3) 0.60248(14) -0.5193(2)
C10 C 1.0783(3) 0.56248(15) -0.3797(2)
C11 C 0.9075(3) 0.53984(15) -0.6393(2)
F1 F 0.97481(19) 0.70215(9) -0.53766(15)
F2 F 1.15421(19) 0.62337(10) -0.26228(13)
F3 F 0.81644(17) 0.57886(10) -0.77428(12)
C11B C 1.0925(3) 0.46016(15) -0.3607(2)
C9B C 1.0137(3) 0.39752(14) -0.4807(2)
C10B C 0.9217(3) 0.43752(15) -0.6203(2)
F2B F 0.84579(19) 0.37663(10) -0.73772(13)
F1B F 1.02519(19) 0.29785(9) -0.46234(15)
F3B F 1.18356(17) 0.42114(10) -0.22572(12)
loop_
_geom_bond_atom_site_label_1
_geom_bond_atom_site_label_2
_geom_bond_site_symmetry_1
_geom_bond_site_symmetry_2
C1 C2 1_555 1_555
C2 H1 1_555 1_555
C3 C2 1_555 1_555
H2 C3 1_555 1_555
C4 C3 1_555 1_555
H3 C4 1_555 1_555
C5 C4 1_555 1_555
C6 C1 1_555 1_555
C7 C1 1_555 1_555
H4 C7 1_555 1_555
C8 C5 1_555 1_555
H5 C8 1_555 1_555
C9 C10 1_555 1_555
C10 F2 1_555 1_555
C11 C9 1_555 1_555
F1 C9 1_555 1_555
F3 C11 1_555 1_555
C8B C7 1_555 1_555
C5B C8B 1_555 1_555
C4B C5B 1_555 1_555
C3B C4B 1_555 1_555
C2B C3B 1_555 1_555
C1B C2B 1_555 1_555
C6B C6 1_555 1_555
C7B C8 1_555 1_555
H4B C7B 1_555 1_555
H1B C2B 1_555 1_555
H2B C3B 1_555 1_555
H3B C4B 1_555 1_555
H5B C8B 1_555 1_555
C11B C10 1_555 1_555
C9B C11B 1_555 1_555
C10B C11 1_555 1_555
F2B C10B 1_555 1_555
F1B C9B 1_555 1_555
F3B C11B 1_555 1_555
C5 C6 1_555 1_555
C5B C6B 1_555 1_555
C1B C6B 1_555 1_555
C1B C7B 1_555 1_555
C9B C10B 1_555 1_555

#END
