
#######################################################################
#
#                 Cambridge Crystallographic Data Centre
#                                CCDC 
#
#######################################################################
#
# If this CIF has been generated from an entry in the Cambridge 
# Structural Database, then it will include bibliographic, chemical, 
# crystal, experimental, refinement or atomic coordinate data resulting 
# from the CCDC's data processing and validation procedures.
#
#######################################################################

data_ZZZJIQ01
_chemical_formula_moiety         'C7 H8 N2 O2'
_chemical_name_systematic        4-Methyl-3-nitroaniline
_symmetry_cell_setting           triclinic
_symmetry_space_group_name_H-M   'P -1'
_symmetry_Int_Tables_number      2
_space_group_name_Hall           '-P 1'
loop_
_symmetry_equiv_pos_site_id
_symmetry_equiv_pos_as_xyz
1 x,y,z
2 -x,-y,-z
_cell_length_a                   7.3814(2)
_cell_length_b                   8.2085(3)
_cell_length_c                   23.5355(9)
_cell_angle_alpha                87.9310(13)
_cell_angle_beta                 89.8880(12)
_cell_angle_gamma                88.371(2)
_cell_volume                     1424.51
_exptl_crystal_colour            orange
_exptl_crystal_description       plate
_cell_formula_units_Z            8
_exptl_crystal_recrystallization_method ethanol
loop_
_atom_site_label
_atom_site_type_symbol
_atom_site_fract_x
_atom_site_fract_y
_atom_site_fract_z
C1 C 0.56474(18) 0.86353(17) 0.35323(6)
N1 N 0.53317(17) 0.97841(15) 0.39364(6)
C2 C 0.53661(18) 0.69945(17) 0.36455(6)
C3 C 0.56699(17) 0.58859(16) 0.32220(6)
N2 N 0.52948(16) 0.41871(15) 0.33812(6)
O1 O 0.55196(15) 0.37198(13) 0.38791(5)
O2 O 0.47637(17) 0.32950(14) 0.30145(6)
C4 C 0.62959(17) 0.62960(17) 0.26776(6)
C5 C 0.6623(2) 0.51338(19) 0.22092(7)
C6 C 0.66299(18) 0.79488(18) 0.25902(7)
C7 C 0.63206(19) 0.90821(18) 0.29961(7)
H1 H 0.4941 0.9482 0.4277
H2 H 0.5521 1.0820 0.3854
H3 H 0.4967 0.6630 0.4011
H4 H 0.5459 0.4767 0.2069
H5 H 0.7347 0.4190 0.2354
H6 H 0.7277 0.5684 0.1898
H7 H 0.7095 0.8308 0.2232
H8 H 0.6569 1.0193 0.2911
C8 C 0.07558(18) -0.35053(17) 0.14782(6)
N3 N 0.04961(17) -0.46572(15) 0.10789(6)
C9 C 0.04596(18) -0.18566(17) 0.13501(6)
C10 C 0.06983(17) -0.07392(16) 0.17661(7)
N4 N 0.03456(16) 0.09718(15) 0.15865(6)
O3 O 0.05719(15) 0.13749(13) 0.10834(5)
O4 O -0.01548(17) 0.19462(14) 0.19403(6)
C11 C 0.12629(18) -0.11310(18) 0.23207(6)
C12 C 0.1525(2) 0.00382(19) 0.27840(7)
C13 C 0.16208(18) -0.27956(18) 0.24247(7)
C14 C 0.13699(19) -0.39476(18) 0.20244(7)
H9 H 0.0135 -0.4354 0.0734
H10 H 0.0691 -0.5698 0.1168
H11 H 0.0095 -0.1499 0.0978
H12 H 0.2275 0.0933 0.2643
H13 H 0.2128 -0.0530 0.3108
H14 H 0.0343 0.0478 0.2905
H15 H 0.2058 -0.3148 0.2789
H16 H 0.1619 -0.5065 0.2121
C15 C 0.17567(19) 0.75218(18) 0.47215(7)
N5 N 0.2312(2) 0.87271(17) 0.50703(7)
C16 C 0.22739(18) 0.59087(17) 0.48274(6)
C17 C 0.17436(18) 0.47341(17) 0.44621(7)
N6 N 0.23562(17) 0.30612(16) 0.46143(6)
O5 O 0.17802(19) 0.19418(15) 0.43514(7)
O6 O 0.34353(17) 0.28293(15) 0.50014(6)
C18 C 0.06883(18) 0.50611(18) 0.39773(7)
C19 C 0.0114(2) 0.3859(2) 0.35488(8)
C20 C 0.01686(18) 0.67065(18) 0.38913(7)
C21 C 0.06698(19) 0.78939(19) 0.42482(7)
H17 H 0.3006 0.8474 0.5366
H18 H 0.1971 0.9749 0.4997
H19 H 0.2993 0.5609 0.5151
H20 H 0.1183 0.3260 0.3410
H21 H -0.0493 0.4444 0.3229
H22 H -0.0724 0.3090 0.3728
H23 H -0.0564 0.7011 0.3571
H24 H 0.0270 0.8990 0.4172
C22 C 0.6822(2) 0.77143(19) 0.02979(7)
N7 N 0.7432(2) 0.65100(18) -0.00485(7)
C23 C 0.7289(2) 0.93232(19) 0.01955(7)
C24 C 0.67149(19) 1.05069(18) 0.05635(7)
N8 N 0.72699(18) 1.21696(17) 0.04090(7)
O7 O 0.6734(2) 1.32797(17) 0.06923(9)
O8 O 0.8274(2) 1.23829(16) 0.00100(6)
C25 C 0.56794(19) 1.01953(18) 0.10478(7)
C26 C 0.5070(2) 1.1402(2) 0.14802(8)
C27 C 0.52115(19) 0.85592(19) 0.11306(7)
C28 C 0.57408(19) 0.73627(19) 0.07713(7)
H25 H 0.8130 0.6752 -0.0341
H26 H 0.7125 0.5494 0.0022
H27 H 0.8002 0.9611 -0.0127
H28 H 0.6126 1.1944 0.1629
H29 H 0.4446 1.0830 0.1793
H30 H 0.4239 1.2218 0.1300
H31 H 0.4492 0.8269 0.1452
H32 H 0.5368 0.6277 0.0845
loop_
_geom_bond_atom_site_label_1
_geom_bond_atom_site_label_2
_geom_bond_site_symmetry_1
_geom_bond_site_symmetry_2
C1 N1 1_555 1_555
N1 H1 1_555 1_555
C2 C1 1_555 1_555
C3 C2 1_555 1_555
N2 C3 1_555 1_555
O1 N2 1_555 1_555
O2 N2 1_555 1_555
C4 C3 1_555 1_555
C5 C4 1_555 1_555
C6 C4 1_555 1_555
C7 C1 1_555 1_555
C8 N3 1_555 1_555
N3 H9 1_555 1_555
C9 C8 1_555 1_555
C10 C9 1_555 1_555
N4 C10 1_555 1_555
O3 N4 1_555 1_555
O4 N4 1_555 1_555
C11 C10 1_555 1_555
C12 C11 1_555 1_555
C13 C11 1_555 1_555
C14 C8 1_555 1_555
C15 N5 1_555 1_555
N5 H17 1_555 1_555
C16 C15 1_555 1_555
C17 C16 1_555 1_555
N6 C17 1_555 1_555
O5 N6 1_555 1_555
O6 N6 1_555 1_555
C18 C17 1_555 1_555
C19 C18 1_555 1_555
C20 C18 1_555 1_555
C21 C15 1_555 1_555
C22 N7 1_555 1_555
N7 H25 1_555 1_555
C23 C22 1_555 1_555
C24 C23 1_555 1_555
N8 C24 1_555 1_555
O7 N8 1_555 1_555
O8 N8 1_555 1_555
C25 C24 1_555 1_555
C26 C25 1_555 1_555
C27 C25 1_555 1_555
C28 C22 1_555 1_555
H2 N1 1_555 1_555
H3 C2 1_555 1_555
H4 C5 1_555 1_555
H5 C5 1_555 1_555
H6 C5 1_555 1_555
H7 C6 1_555 1_555
H8 C7 1_555 1_555
H10 N3 1_555 1_555
H11 C9 1_555 1_555
H12 C12 1_555 1_555
H13 C12 1_555 1_555
H14 C12 1_555 1_555
H15 C13 1_555 1_555
H16 C14 1_555 1_555
H18 N5 1_555 1_555
H19 C16 1_555 1_555
H20 C19 1_555 1_555
H21 C19 1_555 1_555
H22 C19 1_555 1_555
H23 C20 1_555 1_555
H24 C21 1_555 1_555
H26 N7 1_555 1_555
H27 C23 1_555 1_555
H28 C26 1_555 1_555
H29 C26 1_555 1_555
H30 C26 1_555 1_555
H31 C27 1_555 1_555
H32 C28 1_555 1_555
C6 C7 1_555 1_555
C13 C14 1_555 1_555
C20 C21 1_555 1_555
C27 C28 1_555 1_555

#END
