
#######################################################################
#
#                 Cambridge Crystallographic Data Centre
#                                CCDC 
#
#######################################################################
#
# If this CIF has been generated from an entry in the Cambridge 
# Structural Database, then it will include bibliographic, chemical, 
# crystal, experimental, refinement or atomic coordinate data resulting 
# from the CCDC's data processing and validation procedures.
#
#######################################################################

data_ZZZJIQ02
_chemical_formula_moiety         'C7 H8 N2 O2'
_chemical_name_systematic        4-Methyl-3-nitroaniline
_symmetry_cell_setting           monoclinic
_symmetry_space_group_name_H-M   'P 21/n'
_symmetry_Int_Tables_number      14
_space_group_name_Hall           '-P 2yn'
loop_
_symmetry_equiv_pos_site_id
_symmetry_equiv_pos_as_xyz
1 x,y,z
2 1/2-x,1/2+y,1/2-z
3 -x,-y,-z
4 1/2+x,1/2-y,1/2+z
_cell_length_a                   8.2473(7)
_cell_length_b                   7.5676(7)
_cell_length_c                   23.7798(16)
_cell_angle_alpha                90
_cell_angle_beta                 91.717(5)
_cell_angle_gamma                90
_cell_volume                     1483.48
_exptl_crystal_colour            orange
_exptl_crystal_description       plate
_cell_formula_units_Z            8
_exptl_crystal_recrystallization_method ethanol
loop_
_atom_site_label
_atom_site_type_symbol
_atom_site_fract_x
_atom_site_fract_y
_atom_site_fract_z
C1 C 0.7363(3) 0.1807(4) 0.02890(10)
N1 N 0.8565(4) 0.2392(5) -0.00532(13)
C2 C 0.5764(3) 0.2283(4) 0.01893(9)
C3 C 0.4595(3) 0.1742(3) 0.05494(10)
N2 N 0.2933(3) 0.2317(4) 0.04011(11)
O1 O 0.1829(4) 0.1746(7) 0.06640(19)
O2 O 0.2714(3) 0.3355(4) 0.00279(10)
C4 C 0.4913(3) 0.0696(3) 0.10266(10)
C5 C 0.3714(5) 0.0100(5) 0.14474(14)
C6 C 0.6533(4) 0.0225(4) 0.11058(10)
C7 C 0.7720(3) 0.0732(4) 0.07528(10)
H1 H 0.8327 0.3066 -0.0335
H2 H 0.9556 0.2084 0.0014
H3 H 0.5480 0.2972 -0.0122
H4 H 0.4275 -0.0486 0.1754
H5 H 0.2955 -0.0703 0.1271
H6 H 0.3143 0.1106 0.1587
H7 H 0.6822 -0.0471 0.1415
H8 H 0.8781 0.0357 0.0822
C8 C 0.6440(3) 0.0732(3) 0.35279(9)
N3 N 0.5306(3) 0.0434(4) 0.39292(9)
C9 C 0.8069(3) 0.0431(3) 0.36392(9)
C10 C 0.9181(3) 0.0699(3) 0.32240(9)
N4 N 1.0872(3) 0.0316(3) 0.33856(10)
O3 O 1.1323(3) 0.0552(3) 0.38727(9)
O4 O 1.1771(3) -0.0229(5) 0.30290(11)
C11 C 0.8766(3) 0.1309(3) 0.26819(9)
C12 C 0.9930(4) 0.1617(4) 0.22176(11)
C13 C 0.7130(3) 0.1659(4) 0.25962(9)
C14 C 0.5993(3) 0.1387(4) 0.29952(10)
H9 H 0.5607 0.0053 0.4257
H10 H 0.4296 0.0628 0.3853
H11 H 0.8419 0.0048 0.3994
H12 H 1.0824 0.2320 0.2357
H13 H 0.9384 0.2226 0.1913
H14 H 1.0327 0.0503 0.2087
H15 H 0.6784 0.2104 0.2248
H16 H 0.4909 0.1640 0.2911
loop_
_geom_bond_atom_site_label_1
_geom_bond_atom_site_label_2
_geom_bond_site_symmetry_1
_geom_bond_site_symmetry_2
C1 N1 1_555 1_555
N1 H1 1_555 1_555
C2 C1 1_555 1_555
C3 C2 1_555 1_555
N2 C3 1_555 1_555
O1 N2 1_555 1_555
O2 N2 1_555 1_555
C4 C3 1_555 1_555
C5 C4 1_555 1_555
C6 C4 1_555 1_555
C7 C1 1_555 1_555
H2 N1 1_555 1_555
H3 C2 1_555 1_555
H4 C5 1_555 1_555
H5 C5 1_555 1_555
H6 C5 1_555 1_555
H7 C6 1_555 1_555
H8 C7 1_555 1_555
C8 N3 1_555 1_555
N3 H9 1_555 1_555
C9 C8 1_555 1_555
C10 C9 1_555 1_555
N4 C10 1_555 1_555
O3 N4 1_555 1_555
O4 N4 1_555 1_555
C11 C10 1_555 1_555
C12 C11 1_555 1_555
C13 C11 1_555 1_555
C14 C8 1_555 1_555
H10 N3 1_555 1_555
H11 C9 1_555 1_555
H12 C12 1_555 1_555
H13 C12 1_555 1_555
H14 C12 1_555 1_555
H15 C13 1_555 1_555
H16 C14 1_555 1_555
C6 C7 1_555 1_555
C13 C14 1_555 1_555

#END
