
#######################################################################
#
#                 Cambridge Crystallographic Data Centre
#                                CCDC 
#
#######################################################################
#
# If this CIF has been generated from an entry in the Cambridge 
# Structural Database, then it will include bibliographic, chemical, 
# crystal, experimental, refinement or atomic coordinate data resulting 
# from the CCDC's data processing and validation procedures.
#
#######################################################################

data_ZZZPUS18
_chemical_name_common            Tolbutamide
_chemical_formula_moiety         'C12 H18 N2 O3 S1'
_chemical_name_systematic        N-(butylcarbamoyl)-4-methylbenzenesulfonamide
_chemical_properties_biological  'antidiabetic drug'
_symmetry_cell_setting           orthorhombic
_symmetry_space_group_name_H-M   'P n a 21'
_symmetry_Int_Tables_number      33
_space_group_name_Hall           'P 2c -2n'
loop_
_symmetry_equiv_pos_site_id
_symmetry_equiv_pos_as_xyz
1 x,y,z
2 -x,-y,1/2+z
3 1/2+x,1/2-y,z
4 1/2-x,1/2+y,1/2+z
_cell_length_a                   20.2133(6)
_cell_length_b                   7.8233(2)
_cell_length_c                   9.0717(2)
_cell_angle_alpha                90
_cell_angle_beta                 90
_cell_angle_gamma                90
_cell_volume                     1434.55
_exptl_crystal_colour            colorless
_exptl_crystal_description       block
_cell_formula_units_Z            4
_exptl_crystal_recrystallization_method 'ethyl acetate'
loop_
_atom_site_label
_atom_site_type_symbol
_atom_site_fract_x
_atom_site_fract_y
_atom_site_fract_z
C1 C 0.2537(3) 0.4899(7) 0.3457(9)
H1 H 0.2304 0.5518 0.4210
H2 H 0.2560 0.5582 0.2580
H3 H 0.2976 0.4643 0.3793
C2 C 0.2177(2) 0.3266(5) 0.3129(5)
C3 C 0.2240(2) 0.1841(6) 0.4041(6)
H4 H 0.2526 0.1888 0.4842
C4 C 0.1887(2) 0.0363(5) 0.3781(5)
H5 H 0.1927 -0.0568 0.4412
C5 C 0.14746(16) 0.0284(4) 0.2578(3)
C6 C 0.1414(2) 0.1676(5) 0.1646(5)
H6 H 0.1138 0.1608 0.0828
C7 C 0.1756(2) 0.3148(5) 0.1918(5)
H7 H 0.1707 0.4080 0.1290
C8 C -0.00674(14) 0.0184(4) 0.2373(3)
C9 C -0.08483(18) 0.2530(4) 0.2185(4)
H8 H -0.1026 0.2181 0.3132
H9 H -0.1218 0.2795 0.1542
C10 C -0.0426(3) 0.4132(5) 0.2393(8)
H10 H -0.0271 0.4514 0.1436
H11 H -0.0041 0.3841 0.2980
C11 C -0.0796(4) 0.5611(7) 0.3146(9)
H12 H -0.1020 0.5188 0.4018
H13 H -0.0480 0.6474 0.3455
C12 C -0.1276(6) 0.6373(11) 0.2155(17)
H14 H -0.1637 0.5594 0.2008
H15 H -0.1069 0.6614 0.1226
H16 H -0.1440 0.7417 0.2577
O1 O 0.13306(14) -0.2489(3) 0.0999(3)
O2 O 0.09609(13) -0.2516(3) 0.3575(3)
O3 O -0.00177(13) 0.0303(3) 0.3716(2)
S1 S 0.10391(3) -0.16195(8) 0.22231(8)
N1 N 0.03183(13) -0.0984(3) 0.1589(3)
H17 H 0.0177 -0.1377 0.0762
N2 N -0.04697(14) 0.1118(4) 0.1553(3)
H18 H -0.0509 0.0890 0.0630
loop_
_geom_bond_atom_site_label_1
_geom_bond_atom_site_label_2
_geom_bond_site_symmetry_1
_geom_bond_site_symmetry_2
C1 H1 1_555 1_555
H2 C1 1_555 1_555
H3 C1 1_555 1_555
C2 C1 1_555 1_555
C3 C2 1_555 1_555
H4 C3 1_555 1_555
C4 C3 1_555 1_555
H5 C4 1_555 1_555
C5 C4 1_555 1_555
C6 C5 1_555 1_555
H6 C6 1_555 1_555
C7 C2 1_555 1_555
H7 C7 1_555 1_555
C8 O3 1_555 1_555
C9 H8 1_555 1_555
H9 C9 1_555 1_555
C10 C9 1_555 1_555
H10 C10 1_555 1_555
H11 C10 1_555 1_555
C11 C10 1_555 1_555
H12 C11 1_555 1_555
H13 C11 1_555 1_555
C12 C11 1_555 1_555
H14 C12 1_555 1_555
H15 C12 1_555 1_555
H16 C12 1_555 1_555
O1 S1 1_555 1_555
O2 S1 1_555 1_555
S1 C5 1_555 1_555
N1 C8 1_555 1_555
H17 N1 1_555 1_555
N2 C8 1_555 1_555
H18 N2 1_555 1_555
C6 C7 1_555 1_555
C9 N2 1_555 1_555
S1 N1 1_555 1_555

#END
