
#######################################################################
#
#                 Cambridge Crystallographic Data Centre
#                                CCDC 
#
#######################################################################
#
# If this CIF has been generated from an entry in the Cambridge 
# Structural Database, then it will include bibliographic, chemical, 
# crystal, experimental, refinement or atomic coordinate data resulting 
# from the CCDC's data processing and validation procedures.
#
#######################################################################

data_ZZZPUS17
_chemical_name_common            Tolbutamide
_chemical_formula_moiety         'C12 H18 N2 O3 S1'
_chemical_name_systematic        N-(butylcarbamoyl)-4-methylbenzenesulfonamide
_chemical_properties_biological  'antidiabetic drug'
_symmetry_cell_setting           orthorhombic
_symmetry_space_group_name_H-M   'P n a 21'
_symmetry_Int_Tables_number      33
_space_group_name_Hall           'P 2c -2n'
loop_
_symmetry_equiv_pos_site_id
_symmetry_equiv_pos_as_xyz
1 x,y,z
2 -x,-y,1/2+z
3 1/2+x,1/2-y,z
4 1/2-x,1/2+y,1/2+z
_cell_length_a                   20.7500(15)
_cell_length_b                   7.9160(7)
_cell_length_c                   9.0580(5)
_cell_angle_alpha                90
_cell_angle_beta                 90
_cell_angle_gamma                90
_cell_volume                     1487.84
_exptl_crystal_colour            colorless
_exptl_crystal_description       block
_chemical_melting_point          '401 K'
_cell_formula_units_Z            4
loop_
_atom_site_label
_atom_site_type_symbol
_atom_site_fract_x
_atom_site_fract_y
_atom_site_fract_z
S1 S 0.10963(7) -0.1067(2) 0.12810(15)
O1 O 0.1403(2) -0.1869(7) 0.0056(5)
O2 O 0.1034(2) -0.2011(7) 0.2615(5)
O3 O 0.0011(2) 0.0577(6) 0.2764(4)
N1 N 0.0394(2) -0.0545(7) 0.0633(5)
H1 H 0.0290 -0.0881 -0.0238
N2 N -0.0512(3) 0.1067(7) 0.0628(5)
H2 H -0.0528 0.0826 -0.0297
C1 C 0.2475(5) 0.5462(13) 0.2651(17)
H3 H 0.2464 0.5650 0.3698
H4 H 0.2259 0.6373 0.2156
H5 H 0.2915 0.5409 0.2325
C2 C 0.2144(4) 0.3835(11) 0.2299(11)
C3 C 0.2212(4) 0.2395(14) 0.3138(11)
H6 H 0.2487 0.2421 0.3948
C4 C 0.1898(4) 0.0965(12) 0.2839(9)
H7 H 0.1963 0.0029 0.3441
C5 C 0.1483(3) 0.0837(9) 0.1670(7)
C6 C 0.1404(4) 0.2231(11) 0.0795(8)
H8 H 0.1125 0.2185 -0.0008
C7 C 0.1730(5) 0.3688(12) 0.1090(12)
H9 H 0.1676 0.4611 0.0468
C8 C -0.0049(3) 0.0422(8) 0.1424(6)
C9 C -0.1006(4) 0.2185(12) 0.1248(11)
H10 H -0.1081 0.1910 0.2277
H11 H -0.1408 0.2052 0.0714
C10 C -0.0758(11) 0.4033(17) 0.110(3)
H12 H -0.0355 0.4174 0.1634
H13 H -0.0689 0.4323 0.0075
C11 C -0.1279(15) 0.513(3) 0.177(6)
H14 H -0.1652 0.5261 0.1131
H15 H -0.1410 0.4767 0.2746
C12 C -0.0855(14) 0.664(2) 0.179(3)
H16 H -0.1087 0.7580 0.2190
H17 H -0.0484 0.6411 0.2387
H18 H -0.0721 0.6896 0.0799
H19? H -0.0351 0.4011 0.0577
H20? H -0.1062 0.4659 0.0502
C13? C -0.066(3) 0.497(4) 0.250(5)
H21? H -0.0219 0.4955 0.2847
H22? H -0.0952 0.4616 0.3285
H23? H -0.0834 0.7526 0.2507
H24? H -0.0567 0.6884 0.0988
H25? H -0.1288 0.6550 0.1418
loop_
_geom_bond_atom_site_label_1
_geom_bond_atom_site_label_2
_geom_bond_site_symmetry_1
_geom_bond_site_symmetry_2
S1 O1 1_555 1_555
O2 S1 1_555 1_555
O3 C8 1_555 1_555
N1 S1 1_555 1_555
H1 N1 1_555 1_555
N2 H2 1_555 1_555
C1 H3 1_555 1_555
H4 C1 1_555 1_555
H5 C1 1_555 1_555
C2 C1 1_555 1_555
C3 C2 1_555 1_555
H6 C3 1_555 1_555
C4 C3 1_555 1_555
H7 C4 1_555 1_555
C5 S1 1_555 1_555
C6 C5 1_555 1_555
H8 C6 1_555 1_555
C7 C2 1_555 1_555
H9 C7 1_555 1_555
C8 N1 1_555 1_555
C9 N2 1_555 1_555
H10 C9 1_555 1_555
H11 C9 1_555 1_555
C10 C9 1_555 1_555
H12 C10 1_555 1_555
H13 C10 1_555 1_555
C11 C10 1_555 1_555
H14 C11 1_555 1_555
H15 C11 1_555 1_555
C12 C11 1_555 1_555
H16 C12 1_555 1_555
H17 C12 1_555 1_555
H18 C12 1_555 1_555
N2 C8 1_555 1_555
C4 C5 1_555 1_555
C6 C7 1_555 1_555

#END
