
#######################################################################
#
#                 Cambridge Crystallographic Data Centre
#                                CCDC 
#
#######################################################################
#
# If this CIF has been generated from an entry in the Cambridge 
# Structural Database, then it will include bibliographic, chemical, 
# crystal, experimental, refinement or atomic coordinate data resulting 
# from the CCDC's data processing and validation procedures.
#
#######################################################################

data_ZZZPUS21
_chemical_name_common            Tolbutamide
_chemical_formula_moiety         'C12 H18 N2 O3 S1'
_chemical_name_systematic        N-(butylcarbamoyl)-4-methylbenzenesulfonamide
_chemical_properties_biological  'antidiabetic drug'
_symmetry_cell_setting           monoclinic
_symmetry_space_group_name_H-M   'P c'
_symmetry_Int_Tables_number      7
_space_group_name_Hall           'P -2yc'
loop_
_symmetry_equiv_pos_site_id
_symmetry_equiv_pos_as_xyz
1 x,y,z
2 x,-y,1/2+z
_cell_length_a                   9.0256(2)
_cell_length_b                   17.1443(5)
_cell_length_c                   17.7904(5)
_cell_angle_alpha                90
_cell_angle_beta                 94.268(3)
_cell_angle_gamma                90
_cell_volume                     2745.21
_exptl_crystal_colour            colorless
_exptl_crystal_description       plate
_cell_formula_units_Z            8
_exptl_crystal_recrystallization_method acetonitrile
loop_
_atom_site_label
_atom_site_type_symbol
_atom_site_fract_x
_atom_site_fract_y
_atom_site_fract_z
S1 S 0.92184(14) 0.04470(9) 0.24387(8)
O1 O 0.6348(4) 0.0479(2) 0.3131(2)
O2 O 0.9483(4) 0.0041(2) 0.3139(2)
O3 O 1.0131(4) 0.0295(2) 0.1831(2)
N1 N 0.5060(4) 0.0007(3) 0.2077(2)
H1 H 0.5130 -0.0144 0.1608
C1 C 0.6265(6) 0.0259(3) 0.2469(3)
C2 C 0.9266(6) 0.1454(3) 0.2643(3)
N2 N 0.7538(4) 0.0273(3) 0.2066(2)
H2 H 0.7428 0.0182 0.1578
C3 C 0.9923(6) 0.1703(4) 0.3328(3)
H3 H 1.0289 0.1335 0.3697
C4 C 0.3606(6) -0.0033(3) 0.2397(3)
H4 H 0.2838 0.0185 0.2029
H5 H 0.3631 0.0293 0.2857
C5 C 0.8744(6) 0.1996(4) 0.2099(3)
H6 H 0.8316 0.1827 0.1623
C6 C 1.0039(6) 0.2492(4) 0.3468(3)
H7 H 1.0495 0.2663 0.3938
C7 C 0.9517(6) 0.3038(4) 0.2951(3)
C8 C 0.8860(6) 0.2772(3) 0.2265(3)
H8 H 0.8483 0.3142 0.1901
C9 C 0.9595(7) 0.3892(4) 0.3135(4)
H9 H 1.0601 0.4023 0.3342
H10 H 0.8883 0.4014 0.3508
H11 H 0.9353 0.4196 0.2676
C10 C 0.3178(6) -0.0867(4) 0.2594(4)
H12 H 0.2171 -0.0862 0.2780
H13 H 0.3136 -0.1187 0.2130
C11 C 0.4242(7) -0.1245(4) 0.3183(4)
H14 H 0.4251 -0.0941 0.3657
H15 H 0.5258 -0.1233 0.3009
C12 C 0.3819(8) -0.2086(4) 0.3341(4)
H16 H 0.3749 -0.2382 0.2869
H17 H 0.2858 -0.2097 0.3563
H18 H 0.4579 -0.2321 0.3693
S2 S 0.94058(15) 0.53562(9) 0.56552(8)
O4 O 1.0849(4) 0.5662(2) 0.5841(2)
O5 O 0.8260(4) 0.5501(2) 0.6152(2)
O6 O 1.0810(4) 0.5615(2) 0.4207(2)
C13 C 0.9454(6) 0.5723(3) 0.4188(3)
N3 N 0.8708(5) 0.5708(3) 0.4846(3)
H19 H 0.7802 0.5901 0.4827
N4 N 0.8585(5) 0.5865(3) 0.3566(3)
H20 H 0.7614 0.5873 0.3589
C14 C 0.9530(6) 0.4345(3) 0.5523(3)
C15 C 0.9221(6) 0.6009(3) 0.2842(3)
H21 H 0.8481 0.5869 0.2425
H22 H 1.0103 0.5672 0.2805
C16 C 0.8413(7) 0.3131(4) 0.5144(4)
H23 H 0.7606 0.2851 0.4901
C17 C 1.0801(7) 0.3143(4) 0.5812(3)
H24 H 1.1648 0.2876 0.6032
C18 C 1.0756(6) 0.3946(4) 0.5837(3)
H25 H 1.1572 0.4227 0.6072
C19 C 0.9636(7) 0.2718(4) 0.5472(4)
C20 C 0.8352(6) 0.3931(4) 0.5165(3)
H26 H 0.7514 0.4199 0.4937
C21 C 0.9660(9) 0.1843(4) 0.5451(4)
H27 H 0.8897 0.1638 0.5761
H28 H 1.0639 0.1656 0.5647
H29 H 0.9459 0.1665 0.4930
C22 C 0.8803(9) 0.8244(4) 0.2588(5)
H30 H 0.9415 0.8311 0.2160
H31 H 0.9374 0.8399 0.3054
H32 H 0.7912 0.8571 0.2515
C23 C 0.8348(8) 0.7396(4) 0.2643(5)
H33 H 0.7710 0.7334 0.3069
H34 H 0.7757 0.7244 0.2175
C24 C 0.9672(6) 0.6862(4) 0.2761(4)
H35 H 1.0280 0.7025 0.3220
H36 H 1.0292 0.6912 0.2327
S3 S 0.40731(14) 0.56244(9) 0.28378(8)
O7 O 0.5821(4) 0.5846(2) 0.4333(2)
O8 O 0.2829(4) 0.5839(2) 0.2338(2)
O9 O 0.5494(4) 0.5970(2) 0.2763(2)
C25 C 0.4458(6) 0.5914(3) 0.4334(3)
N5 N 0.3753(5) 0.6079(3) 0.4945(3)
H37 H 0.2775 0.6068 0.4918
N6 N 0.3533(5) 0.5830(3) 0.3675(2)
H38 H 0.2573 0.5893 0.3712
C26 C 0.4265(6) 0.4601(3) 0.2810(3)
C27 C 0.4569(6) 0.6279(3) 0.5659(3)
H39 H 0.5386 0.5900 0.5763
H40 H 0.3893 0.6238 0.6071
C28 C 0.3094(6) 0.4161(4) 0.2490(3)
H41 H 0.2209 0.4406 0.2286
C29 C 0.5546(6) 0.4250(4) 0.3115(3)
H42 H 0.6343 0.4557 0.3333
C30 C 0.4503(7) 0.2989(4) 0.2776(4)
C31 C 0.3237(7) 0.3356(4) 0.2471(4)
H43 H 0.2447 0.3051 0.2245
C32 C 0.4671(8) 0.2118(4) 0.2741(4)
H44 H 0.4986 0.1969 0.2245
H45 H 0.3717 0.1870 0.2820
H46 H 0.5419 0.1948 0.3134
C33 C 0.5657(7) 0.3453(4) 0.3101(4)
H47 H 0.6534 0.3210 0.3316
C34 C 0.5213(7) 0.7099(3) 0.5654(4)
H48 H 0.5823 0.7184 0.6133
H49 H 0.5881 0.7137 0.5239
C35 C 0.4770(9) 0.8553(4) 0.5521(4)
H50 H 0.5405 0.8571 0.5098
H51 H 0.5370 0.8659 0.5992
H52 H 0.3987 0.8948 0.5447
C36 C 0.4063(7) 0.7743(3) 0.5560(4)
H53 H 0.3426 0.7727 0.5989
H54 H 0.3421 0.7650 0.5093
S4 S 0.38783(15) 0.09154(8) 0.49125(8)
O10 O 0.3593(4) 0.0485(2) 0.5576(2)
O11 O 0.6765(4) 0.0416(2) 0.5707(2)
N7 N 0.5415(5) 0.0605(3) 0.4582(2)
H55 H 0.5423 0.0563 0.4090
O12 O 0.2822(4) 0.0900(2) 0.4266(2)
N8 N 0.7837(5) 0.0203(3) 0.4605(3)
H56 H 0.7761 0.0301 0.4118
C37 C 0.6717(6) 0.0402(3) 0.5013(3)
C38 C 0.9184(6) -0.0169(4) 0.4933(4)
H57 H 0.9394 0.0010 0.5459
H58 H 1.0037 -0.0024 0.4643
C39 C 0.4186(6) 0.1894(3) 0.5177(3)
C40 C 0.4796(6) 0.2089(3) 0.5892(3)
H59 H 0.5064 0.1690 0.6247
C41 C 0.5011(6) 0.2861(4) 0.6085(3)
H60 H 0.5415 0.2990 0.6578
C42 C 0.4646(6) 0.3456(3) 0.5569(3)
C43 C 0.4872(7) 0.4297(4) 0.5766(4)
H61 H 0.5754 0.4353 0.6118
H62 H 0.3999 0.4495 0.6002
H63 H 0.5012 0.4596 0.5307
C44 C 0.4050(7) 0.3248(4) 0.4850(4)
H64 H 0.3801 0.3645 0.4490
C45 C 0.3814(6) 0.2479(3) 0.4653(3)
H65 H 0.3401 0.2348 0.4162
C46 C 0.9956(9) -0.2398(4) 0.5080(5)
H66 H 0.9621 -0.2514 0.4555
H67 H 0.9173 -0.2538 0.5408
H68 H 1.0855 -0.2699 0.5225
C47 C 1.0295(8) -0.1531(4) 0.5160(5)
H69 H 1.0608 -0.1408 0.5692
H70 H 1.1120 -0.1391 0.4848
C48 C 0.8969(8) -0.1076(4) 0.4917(5)
H71 H 0.8168 -0.1211 0.5245
H72 H 0.8633 -0.1233 0.4396
loop_
_geom_bond_atom_site_label_1
_geom_bond_atom_site_label_2
_geom_bond_site_symmetry_1
_geom_bond_site_symmetry_2
S1 O2 1_555 1_555
O1 C1 1_555 1_555
O3 S1 1_555 1_555
N1 H1 1_555 1_555
C1 N1 1_555 1_555
C2 S1 1_555 1_555
N2 S1 1_555 1_555
H2 N2 1_555 1_555
C3 C2 1_555 1_555
H3 C3 1_555 1_555
C4 N1 1_555 1_555
H4 C4 1_555 1_555
H5 C4 1_555 1_555
C5 C2 1_555 1_555
H6 C5 1_555 1_555
C6 C3 1_555 1_555
H7 C6 1_555 1_555
C7 C6 1_555 1_555
C8 C5 1_555 1_555
H8 C8 1_555 1_555
C9 C7 1_555 1_555
H9 C9 1_555 1_555
H10 C9 1_555 1_555
H11 C9 1_555 1_555
C10 C4 1_555 1_555
H12 C10 1_555 1_555
H13 C10 1_555 1_555
C11 C10 1_555 1_555
H14 C11 1_555 1_555
H15 C11 1_555 1_555
C12 C11 1_555 1_555
H16 C12 1_555 1_555
H17 C12 1_555 1_555
H18 C12 1_555 1_555
S2 O4 1_555 1_555
O5 S2 1_555 1_555
O6 C13 1_555 1_555
C13 N3 1_555 1_555
N3 S2 1_555 1_555
H19 N3 1_555 1_555
N4 C13 1_555 1_555
H20 N4 1_555 1_555
C14 S2 1_555 1_555
C15 N4 1_555 1_555
H21 C15 1_555 1_555
H22 C15 1_555 1_555
C16 H23 1_555 1_555
C17 H24 1_555 1_555
C18 C14 1_555 1_555
H25 C18 1_555 1_555
C19 C16 1_555 1_555
C20 C14 1_555 1_555
H26 C20 1_555 1_555
C21 C19 1_555 1_555
H27 C21 1_555 1_555
H28 C21 1_555 1_555
H29 C21 1_555 1_555
C22 H30 1_555 1_555
H31 C22 1_555 1_555
H32 C22 1_555 1_555
C23 C22 1_555 1_555
H33 C23 1_555 1_555
H34 C23 1_555 1_555
C24 C15 1_555 1_555
H35 C24 1_555 1_555
H36 C24 1_555 1_555
S3 O8 1_555 1_555
O7 C25 1_555 1_555
O9 S3 1_555 1_555
C25 N5 1_555 1_555
N5 H37 1_555 1_555
N6 S3 1_555 1_555
H38 N6 1_555 1_555
C26 S3 1_555 1_555
C27 N5 1_555 1_555
H39 C27 1_555 1_555
H40 C27 1_555 1_555
C28 C26 1_555 1_555
H41 C28 1_555 1_555
C29 C26 1_555 1_555
H42 C29 1_555 1_555
C30 C31 1_555 1_555
C31 C28 1_555 1_555
H43 C31 1_555 1_555
C32 C30 1_555 1_555
H44 C32 1_555 1_555
H45 C32 1_555 1_555
H46 C32 1_555 1_555
C33 C29 1_555 1_555
H47 C33 1_555 1_555
C34 C27 1_555 1_555
H48 C34 1_555 1_555
H49 C34 1_555 1_555
C35 H50 1_555 1_555
H51 C35 1_555 1_555
H52 C35 1_555 1_555
C36 C34 1_555 1_555
H53 C36 1_555 1_555
H54 C36 1_555 1_555
S4 O10 1_555 1_555
O11 C37 1_555 1_555
N7 S4 1_555 1_555
H55 N7 1_555 1_555
O12 S4 1_555 1_555
N8 H56 1_555 1_555
C37 N7 1_555 1_555
C38 N8 1_555 1_555
H57 C38 1_555 1_555
H58 C38 1_555 1_555
C39 S4 1_555 1_555
C40 C39 1_555 1_555
H59 C40 1_555 1_555
C41 C40 1_555 1_555
H60 C41 1_555 1_555
C42 C41 1_555 1_555
C43 C42 1_555 1_555
H61 C43 1_555 1_555
H62 C43 1_555 1_555
H63 C43 1_555 1_555
C44 C42 1_555 1_555
H64 C44 1_555 1_555
C45 C39 1_555 1_555
H65 C45 1_555 1_555
C46 H66 1_555 1_555
H67 C46 1_555 1_555
H68 C46 1_555 1_555
C47 C46 1_555 1_555
H69 C47 1_555 1_555
H70 C47 1_555 1_555
C48 C38 1_555 1_555
H71 C48 1_555 1_555
H72 C48 1_555 1_555
C1 N2 1_555 1_555
C7 C8 1_555 1_555
C16 C20 1_555 1_555
C17 C18 1_555 1_555
C17 C19 1_555 1_555
C23 C24 1_555 1_555
C25 N6 1_555 1_555
C30 C33 1_555 1_555
C35 C36 1_555 1_555
N8 C37 1_555 1_555
C44 C45 1_555 1_555
C47 C48 1_555 1_555

#END
