
#######################################################################
#
#                 Cambridge Crystallographic Data Centre
#                                CCDC 
#
#######################################################################
#
# If this CIF has been generated from an entry in the Cambridge 
# Structural Database, then it will include bibliographic, chemical, 
# crystal, experimental, refinement or atomic coordinate data resulting 
# from the CCDC's data processing and validation procedures.
#
#######################################################################

data_ZZZPUS11
_chemical_name_common            Tolbutamide
_chemical_formula_moiety         'C12 H18 N2 O3 S1'
_chemical_name_systematic        
N-((Butylamino)-carbonyl)-4-methyl-benzenesulfonamide
_chemical_properties_biological  'antidiabetic drug'
_symmetry_cell_setting           monoclinic
_symmetry_space_group_name_H-M   'P 21/n'
_symmetry_Int_Tables_number      14
_space_group_name_Hall           '-P 2yn'
loop_
_symmetry_equiv_pos_site_id
_symmetry_equiv_pos_as_xyz
1 x,y,z
2 1/2-x,1/2+y,1/2-z
3 -x,-y,-z
4 1/2+x,1/2-y,1/2+z
_cell_length_a                   11.56706(13)
_cell_length_b                   27.1703(3)
_cell_length_c                   13.55582(15)
_cell_angle_alpha                90
_cell_angle_beta                 102.7455(11)
_cell_angle_gamma                90
_cell_volume                     4155.35
_exptl_crystal_colour            colorless
_exptl_crystal_description       plate
_cell_formula_units_Z            12
loop_
_atom_site_label
_atom_site_type_symbol
_atom_site_fract_x
_atom_site_fract_y
_atom_site_fract_z
C1 C 0.86847(18) 0.03178(9) 0.34950(16)
H1 H 0.9153 0.0619 0.3509
H2 H 0.9042 0.0054 0.3169
H3 H 0.8670 0.0220 0.4188
C2 C 0.74348(16) 0.04098(7) 0.29078(14)
C3 C 0.67244(17) 0.07597(7) 0.32356(15)
H4 H 0.7029 0.0937 0.3841
C4 C 0.55857(17) 0.08537(7) 0.26985(15)
H5 H 0.5120 0.1101 0.2919
C5 C 0.51300(16) 0.05824(6) 0.18313(14)
C6 C 0.58109(17) 0.02251(7) 0.14951(15)
H6 H 0.5491 0.0036 0.0909
C7 C 0.69666(17) 0.01497(7) 0.20293(15)
H7 H 0.7447 -0.0085 0.1789
C8 C 0.27016(15) 0.07551(7) 0.27721(14)
C9 C 0.22591(17) 0.06476(7) 0.44493(14)
H8 H 0.1519 0.0512 0.4594
H9 H 0.2188 0.1011 0.4426
C10 C 0.33077(18) 0.05013(7) 0.53025(15)
H10 H 0.3129 0.0600 0.5956
H11 H 0.3384 0.0138 0.5307
C11 C 0.44957(18) 0.07255(8) 0.52299(17)
H12 H 0.5128 0.0572 0.5750
H13 H 0.4653 0.0644 0.4560
C12 C 0.4566(2) 0.12821(8) 0.53684(19)
H14 H 0.3935 0.1439 0.4864
H15 H 0.5339 0.1399 0.5282
H16 H 0.4468 0.1366 0.6048
O1 O 0.34197(11) 0.03515(5) 0.03088(10)
O2 O 0.35127(11) 0.12021(4) 0.09627(10)
O3 O 0.28699(11) 0.12035(4) 0.28626(9)
S1 S 0.36709(4) 0.068617(16) 0.11445(3)
N1 N 0.28015(13) 0.05076(6) 0.18842(12)
N2 N 0.23945(14) 0.04677(6) 0.34626(12)
H17 H 0.2701(18) 0.0219(8) 0.1880(16)
H18 H 0.2345(18) 0.0162(8) 0.3353(17)
C13 C -0.40711(17) 0.21589(8) 0.15507(16)
H19 H -0.4371 0.2489 0.1347
H20 H -0.4533 0.2016 0.2005
H21 H -0.4145 0.1951 0.0950
C14 C -0.27852(16) 0.21910(7) 0.20916(15)
C15 C -0.19773(16) 0.24469(7) 0.16618(14)
H22 H -0.2239 0.2595 0.1016
C16 C -0.08023(16) 0.24901(7) 0.21559(14)
H23 H -0.0267 0.2678 0.1868
C17 C -0.04141(15) 0.22540(6) 0.30835(14)
C18 C -0.11978(16) 0.19925(7) 0.35231(15)
H24 H -0.0929 0.1831 0.4154
C19 C -0.23807(17) 0.19702(7) 0.30269(15)
H25 H -0.2927 0.1800 0.3334
C20 C 0.20907(14) 0.23930(6) 0.21409(13)
C21 C 0.27511(16) 0.23083(7) 0.05497(14)
H26 H 0.3533 0.2201 0.0444
H27 H 0.2737 0.2673 0.0547
C22 C 0.17778(16) 0.21163(7) -0.03173(14)
H28 H 0.2001 0.2190 -0.0966
H29 H 0.1730 0.1754 -0.0258
C23 C 0.05609(17) 0.23342(8) -0.03444(16)
H30 H 0.0590 0.2694 -0.0449
H31 H 0.0351 0.2277 0.0316
C24 C -0.03969(19) 0.21119(9) -0.11802(17)
H32 H -0.0222 0.2187 -0.1839
H33 H -0.1169 0.2252 -0.1148
H34 H -0.0416 0.1754 -0.1091
O4 O 0.12858(11) 0.19437(5) 0.45373(9)
O5 O 0.13175(11) 0.28111(4) 0.40058(10)
O6 O 0.17933(10) 0.28295(4) 0.20131(9)
S2 S 0.10743(4) 0.230595(16) 0.37495(3)
N3 N 0.18981(13) 0.21275(6) 0.29770(12)
N4 N 0.26006(13) 0.21296(6) 0.15316(12)
H35 H 0.2103(17) 0.1827(6) 0.3029(16)
H36 H 0.2736(17) 0.1825(8) 0.1690(16)
C25 C 0.84564(17) 0.37559(8) 0.32878(16)
H37 H 0.8785 0.3466 0.3018
H38 H 0.8527 0.3715 0.4017
H39 H 0.8894 0.4050 0.3164
C26 C 0.71680(17) 0.38122(7) 0.27722(15)
C27 C 0.63892(16) 0.40689(7) 0.32386(15)
H40 H 0.6673 0.4204 0.3894
C28 C 0.52120(16) 0.41294(7) 0.27628(14)
H41 H 0.4694 0.4311 0.3081
C29 C 0.47916(16) 0.39214(6) 0.18126(14)
C30 C 0.55472(17) 0.36640(7) 0.13362(15)
H42 H 0.5256 0.3521 0.0690
C31 C 0.67364(17) 0.36173(7) 0.18141(15)
H43 H 0.7261 0.3450 0.1480
C32 C 0.23159(15) 0.40665(6) 0.28092(14)
C33 C 0.16387(16) 0.39915(7) 0.43978(14)
H44 H 0.0860 0.3872 0.4487
H45 H 0.1605 0.4355 0.4363
C34 C 0.25936(17) 0.38375(7) 0.53106(15)
H46 H 0.2314 0.3913 0.5934
H47 H 0.2706 0.3477 0.5286
C35 C 0.37819(18) 0.40876(8) 0.53732(17)
H48 H 0.3691 0.4446 0.5456
H49 H 0.4041 0.4033 0.4733
C36 C 0.4732(2) 0.38926(10) 0.62540(19)
H50 H 0.4470 0.3938 0.6888
H51 H 0.5473 0.4073 0.6287
H52 H 0.4861 0.3542 0.6152
O7 O 0.30584(11) 0.36222(4) 0.03851(9)
O8 O 0.30479(12) 0.44864(4) 0.09352(10)
O9 O 0.25690(11) 0.45066(4) 0.29096(10)
S3 S 0.32952(4) 0.397964(16) 0.11811(3)
N5 N 0.25036(13) 0.37987(6) 0.19761(12)
N6 N 0.18514(14) 0.37999(6) 0.34474(12)
H53 H 0.2350(17) 0.3499(6) 0.1944(16)
H54 H 0.1728(19) 0.3499(8) 0.3338(17)
loop_
_geom_bond_atom_site_label_1
_geom_bond_atom_site_label_2
_geom_bond_site_symmetry_1
_geom_bond_site_symmetry_2
C1 H1 1_555 1_555
H2 C1 1_555 1_555
H3 C1 1_555 1_555
C2 C1 1_555 1_555
C3 C2 1_555 1_555
H4 C3 1_555 1_555
C4 C3 1_555 1_555
H5 C4 1_555 1_555
C5 C4 1_555 1_555
C6 C5 1_555 1_555
H6 C6 1_555 1_555
C7 C2 1_555 1_555
H7 C7 1_555 1_555
C8 O3 1_555 1_555
C9 H8 1_555 1_555
H9 C9 1_555 1_555
C10 C9 1_555 1_555
H10 C10 1_555 1_555
H11 C10 1_555 1_555
C11 C10 1_555 1_555
H12 C11 1_555 1_555
H13 C11 1_555 1_555
C12 C11 1_555 1_555
H14 C12 1_555 1_555
H15 C12 1_555 1_555
H16 C12 1_555 1_555
O1 S1 1_555 1_555
O2 S1 1_555 1_555
S1 C5 1_555 1_555
N1 C8 1_555 1_555
N2 C8 1_555 1_555
H17 N1 1_555 1_555
H18 N2 1_555 1_555
C13 H19 1_555 1_555
H20 C13 1_555 1_555
H21 C13 1_555 1_555
C14 C13 1_555 1_555
C15 C14 1_555 1_555
H22 C15 1_555 1_555
C16 C15 1_555 1_555
H23 C16 1_555 1_555
C17 C16 1_555 1_555
C18 C17 1_555 1_555
H24 C18 1_555 1_555
C19 C14 1_555 1_555
H25 C19 1_555 1_555
C20 O6 1_555 1_555
C21 H26 1_555 1_555
H27 C21 1_555 1_555
C22 C21 1_555 1_555
H28 C22 1_555 1_555
H29 C22 1_555 1_555
C23 C22 1_555 1_555
H30 C23 1_555 1_555
H31 C23 1_555 1_555
C24 C23 1_555 1_555
H32 C24 1_555 1_555
H33 C24 1_555 1_555
H34 C24 1_555 1_555
O4 S2 1_555 1_555
O5 S2 1_555 1_555
S2 C17 1_555 1_555
N3 C20 1_555 1_555
N4 C20 1_555 1_555
H35 N3 1_555 1_555
H36 N4 1_555 1_555
C25 H37 1_555 1_555
H38 C25 1_555 1_555
H39 C25 1_555 1_555
C26 C25 1_555 1_555
C27 C26 1_555 1_555
H40 C27 1_555 1_555
C28 C27 1_555 1_555
H41 C28 1_555 1_555
C29 C28 1_555 1_555
C30 C29 1_555 1_555
H42 C30 1_555 1_555
C31 C26 1_555 1_555
H43 C31 1_555 1_555
C32 O9 1_555 1_555
C33 H44 1_555 1_555
H45 C33 1_555 1_555
C34 C33 1_555 1_555
H46 C34 1_555 1_555
H47 C34 1_555 1_555
C35 C34 1_555 1_555
H48 C35 1_555 1_555
H49 C35 1_555 1_555
C36 C35 1_555 1_555
H50 C36 1_555 1_555
H51 C36 1_555 1_555
H52 C36 1_555 1_555
O7 S3 1_555 1_555
O8 S3 1_555 1_555
S3 C29 1_555 1_555
N5 C32 1_555 1_555
N6 C32 1_555 1_555
H53 N5 1_555 1_555
H54 N6 1_555 1_555
C6 C7 1_555 1_555
C9 N2 1_555 1_555
S1 N1 1_555 1_555
C18 C19 1_555 1_555
C21 N4 1_555 1_555
S2 N3 1_555 1_555
C30 C31 1_555 1_555
C33 N6 1_555 1_555
S3 N5 1_555 1_555

#END
