
#######################################################################
#
#                 Cambridge Crystallographic Data Centre
#                                CCDC 
#
#######################################################################
#
# If this CIF has been generated from an entry in the Cambridge 
# Structural Database, then it will include bibliographic, chemical, 
# crystal, experimental, refinement or atomic coordinate data resulting 
# from the CCDC's data processing and validation procedures.
#
#######################################################################

data_ZZZPRC03
_chemical_formula_moiety         'C9 H7 N1 O2'
_chemical_name_systematic        1-Methyl-1H-indole-2,3-dione
_symmetry_cell_setting           orthorhombic
_symmetry_space_group_name_H-M   'P c a 21'
_symmetry_Int_Tables_number      29
_space_group_name_Hall           'P 2c -2ac'
loop_
_symmetry_equiv_pos_site_id
_symmetry_equiv_pos_as_xyz
1 x,y,z
2 -x,-y,1/2+z
3 1/2+x,-y,z
4 1/2-x,y,1/2+z
_cell_length_a                   13.724(6)
_cell_length_b                   7.874(4)
_cell_length_c                   7.137(3)
_cell_angle_alpha                90
_cell_angle_beta                 90
_cell_angle_gamma                90
_cell_volume                     771.244
_exptl_crystal_colour            colorless
_exptl_crystal_description       block
_cell_formula_units_Z            4
loop_
_atom_site_label
_atom_site_type_symbol
_atom_site_fract_x
_atom_site_fract_y
_atom_site_fract_z
C1 C 0.28243(16) 0.4692(3) 1.0119(3)
C2 C 0.31945(15) 0.3017(3) 0.9278(3)
C3 C 0.23266(15) 0.2030(3) 0.8857(3)
C4 C 0.2195(2) 0.0433(3) 0.8080(3)
H1 H 0.2726 -0.0219 0.7709
C5 C 0.1260(3) -0.0163(4) 0.7874(4)
H2 H 0.1153 -0.1227 0.7347
C6 C 0.0480(3) 0.0810(4) 0.8444(4)
H3 H -0.0146 0.0379 0.8296
C7 C 0.05942(16) 0.2400(3) 0.9227(3)
H4 H 0.0060 0.3037 0.9615
C8 C 0.15291(14) 0.3003(3) 0.9411(3)
C9 C 0.1181(2) 0.5925(3) 1.0722(4)
H5 H 0.1554 0.6865 1.1191
H6 H 0.0750 0.5522 1.1684
H7 H 0.0807 0.6285 0.9658
N1 N 0.18367(12) 0.4567(2) 1.0167(3)
O1 O 0.40462(11) 0.2692(2) 0.9032(2)
O2 O 0.33120(14) 0.5884(2) 1.0634(3)
loop_
_geom_bond_atom_site_label_1
_geom_bond_atom_site_label_2
_geom_bond_site_symmetry_1
_geom_bond_site_symmetry_2
C1 C2 1_555 1_555
C2 C3 1_555 1_555
C3 C4 1_555 1_555
C4 H1 1_555 1_555
C5 C4 1_555 1_555
H2 C5 1_555 1_555
C6 C5 1_555 1_555
H3 C6 1_555 1_555
C7 C6 1_555 1_555
H4 C7 1_555 1_555
C8 C3 1_555 1_555
C9 H5 1_555 1_555
H6 C9 1_555 1_555
H7 C9 1_555 1_555
N1 C1 1_555 1_555
O1 C2 1_555 1_555
O2 C1 1_555 1_555
C7 C8 1_555 1_555
C8 N1 1_555 1_555
C9 N1 1_555 1_555

#END
