
#######################################################################
#
#                 Cambridge Crystallographic Data Centre
#                                CCDC 
#
#######################################################################
#
# If this CIF has been generated from an entry in the Cambridge 
# Structural Database, then it will include bibliographic, chemical, 
# crystal, experimental, refinement or atomic coordinate data resulting 
# from the CCDC's data processing and validation procedures.
#
#######################################################################

data_ZZZQNK02
_chemical_formula_moiety         'C18 H16'
_chemical_name_systematic        trans-1,6-Diphenyl-1,3,5-hexatriene
_symmetry_cell_setting           orthorhombic
_symmetry_space_group_name_H-M   'P b c a'
_symmetry_Int_Tables_number      61
_space_group_name_Hall           '-P 2ac 2ab'
loop_
_symmetry_equiv_pos_site_id
_symmetry_equiv_pos_as_xyz
1 x,y,z
2 1/2-x,-y,1/2+z
3 1/2+x,1/2-y,-z
4 -x,1/2+y,1/2-z
5 -x,-y,-z
6 1/2+x,y,1/2-z
7 1/2-x,1/2+y,z
8 x,1/2-y,1/2+z
_cell_length_a                   7.730(2)
_cell_length_b                   9.881(2)
_cell_length_c                   18.096(3)
_cell_angle_alpha                90
_cell_angle_beta                 90
_cell_angle_gamma                90
_cell_volume                     1382.17
_exptl_crystal_colour            colorless
_cell_formula_units_Z            4
loop_
_atom_site_label
_atom_site_type_symbol
_atom_site_fract_x
_atom_site_fract_y
_atom_site_fract_z
C1 C 0.4732(4) 0.0638(3) 0.5011(2)
C2 C 0.5200(4) 0.1613(3) 0.5562(2)
C3 C 0.4618(4) 0.2877(3) 0.5586(1)
C4 C 0.5049(3) 0.3923(3) 0.6130(1)
C5 C 0.4366(4) 0.5218(3) 0.6059(2)
C6 C 0.4752(4) 0.6211(3) 0.6578(2)
C7 C 0.5802(4) 0.5936(4) 0.7167(2)
C8 C 0.6499(4) 0.4670(4) 0.7240(2)
C9 C 0.6139(4) 0.3678(3) 0.6729(1)
H1 H 0.392(3) 0.094(2) 0.463(1)
H2 H 0.597(3) 0.131(3) 0.591(1)
H3 H 0.381(4) 0.319(2) 0.520(1)
H4 H 0.360(4) 0.537(2) 0.564(1)
H5 H 0.420(3) 0.704(3) 0.653(1)
H6 H 0.615(4) 0.671(3) 0.755(2)
H7 H 0.720(4) 0.442(3) 0.768(2)
H8 H 0.668(3) 0.277(3) 0.680(1)
C1D C 0.5268(4) -0.0638(3) 0.4989(2)
C2D C 0.4800(4) -0.1613(3) 0.4438(2)
H1D H 0.608(3) -0.094(2) 0.537(1)
C3D C 0.5382(4) -0.2877(3) 0.4414(1)
H2D H 0.403(3) -0.131(3) 0.409(1)
C4D C 0.4951(3) -0.3923(3) 0.3870(1)
H3D H 0.619(4) -0.319(2) 0.480(1)
C5D C 0.5634(4) -0.5218(3) 0.3941(2)
C9D C 0.3861(4) -0.3678(3) 0.3271(1)
C6D C 0.5248(4) -0.6211(3) 0.3422(2)
H4D H 0.640(4) -0.537(2) 0.436(1)
C8D C 0.3501(4) -0.4670(4) 0.2760(2)
H8D H 0.332(3) -0.277(3) 0.320(1)
C7D C 0.4198(4) -0.5936(4) 0.2833(2)
H5D H 0.580(3) -0.704(3) 0.347(1)
H7D H 0.280(4) -0.442(3) 0.232(2)
H6D H 0.385(4) -0.671(3) 0.245(2)
loop_
_geom_bond_atom_site_label_1
_geom_bond_atom_site_label_2
_geom_bond_site_symmetry_1
_geom_bond_site_symmetry_2
C1 C2 1_555 1_555
C2 C3 1_555 1_555
C3 C4 1_555 1_555
C4 C5 1_555 1_555
C5 C6 1_555 1_555
C6 C7 1_555 1_555
C7 C8 1_555 1_555
C8 C9 1_555 1_555
C9 C4 1_555 1_555
H1 C1 1_555 1_555
H2 C2 1_555 1_555
H3 C3 1_555 1_555
H4 C5 1_555 1_555
H5 C6 1_555 1_555
H6 C7 1_555 1_555
H7 C8 1_555 1_555
H8 C9 1_555 1_555
C1D C1 1_555 1_555
C2D C1D 1_555 1_555
H1D C1D 1_555 1_555
C3D C2D 1_555 1_555
H2D C2D 1_555 1_555
C4D C3D 1_555 1_555
H3D C3D 1_555 1_555
C5D C4D 1_555 1_555
C9D C4D 1_555 1_555
C6D C5D 1_555 1_555
H4D C5D 1_555 1_555
C8D C9D 1_555 1_555
H8D C9D 1_555 1_555
C7D C6D 1_555 1_555
H5D C6D 1_555 1_555
H7D C8D 1_555 1_555
H6D C7D 1_555 1_555
C8D C7D 1_555 1_555

#END
