
#######################################################################
#
#                 Cambridge Crystallographic Data Centre
#                                CCDC 
#
#######################################################################
#
# If this CIF has been generated from an entry in the Cambridge 
# Structural Database, then it will include bibliographic, chemical, 
# crystal, experimental, refinement or atomic coordinate data resulting 
# from the CCDC's data processing and validation procedures.
#
#######################################################################

data_ZZZQQO01
_chemical_formula_moiety         'C18 H18 O4'
_chemical_name_systematic        'Dibenzyl succinate'
_symmetry_cell_setting           orthorhombic
_symmetry_space_group_name_H-M   'P b c a'
_symmetry_Int_Tables_number      61
_space_group_name_Hall           '-P 2ac 2ab'
loop_
_symmetry_equiv_pos_site_id
_symmetry_equiv_pos_as_xyz
1 x,y,z
2 1/2-x,-y,1/2+z
3 -x,1/2+y,1/2-z
4 1/2+x,1/2-y,-z
5 -x,-y,-z
6 1/2+x,y,1/2-z
7 x,1/2-y,1/2+z
8 1/2-x,1/2+y,z
_cell_length_a                   10.216(10)
_cell_length_b                   8.2794(10)
_cell_length_c                   17.996(2)
_cell_angle_alpha                90
_cell_angle_beta                 90
_cell_angle_gamma                90
_cell_volume                     1522.14
_cell_formula_units_Z            4
loop_
_atom_site_label
_atom_site_type_symbol
_atom_site_fract_x
_atom_site_fract_y
_atom_site_fract_z
O1 O 0.3169(1) 0.1858(1) 0.4648(1)
O2 O 0.4926(1) 0.3262(1) 0.4277(1)
C1 C 0.6170(1) 0.6032(2) 0.3783(1)
C2 C 0.6839(1) 0.7303(2) 0.3442(1)
C3 C 0.6171(1) 0.8407(2) 0.3009(1)
C4 C 0.4830(1) 0.8252(2) 0.2913(1)
C5 C 0.4165(1) 0.6991(2) 0.3250(1)
C6 C 0.4830(1) 0.5871(2) 0.3691(1)
C7 C 0.4053(1) 0.4549(2) 0.4057(1)
C8 C 0.4332(1) 0.1963(2) 0.4578(1)
C9 C 0.5318(1) 0.0723(2) 0.4813(1)
O1D O 0.6831(1) -0.1858(1) 0.5352(1)
O2D O 0.5074(1) -0.3262(1) 0.5723(1)
C1D C 0.3830(1) -0.6032(2) 0.6217(1)
C2D C 0.3161(1) -0.7303(2) 0.6558(1)
C3D C 0.3829(1) -0.8407(2) 0.6991(1)
C4D C 0.5170(1) -0.8252(2) 0.7087(1)
C5D C 0.5835(1) -0.6991(2) 0.6750(1)
C6D C 0.5170(1) -0.5871(2) 0.6309(1)
C7D C 0.5947(1) -0.4549(2) 0.5943(1)
C8D C 0.5668(1) -0.1963(2) 0.5422(1)
C9D C 0.4682(1) -0.0723(2) 0.5187(1)
loop_
_geom_bond_atom_site_label_1
_geom_bond_atom_site_label_2
_geom_bond_site_symmetry_1
_geom_bond_site_symmetry_2
O1 C8 1_555 1_555
O2 C7 1_555 1_555
C1 C2 1_555 1_555
C2 C3 1_555 1_555
C3 C4 1_555 1_555
C4 C5 1_555 1_555
C5 C6 1_555 1_555
C6 C1 1_555 1_555
C7 C6 1_555 1_555
C8 O2 1_555 1_555
C9 C8 1_555 1_555
O1D C8D 1_555 1_555
O2D C7D 1_555 1_555
C1D C2D 1_555 1_555
C2D C3D 1_555 1_555
C3D C4D 1_555 1_555
C4D C5D 1_555 1_555
C5D C6D 1_555 1_555
C6D C1D 1_555 1_555
C7D C6D 1_555 1_555
C8D O2D 1_555 1_555
C9D C9 1_555 1_555
C8D C9D 1_555 1_555

#END
