
#######################################################################
#
#                 Cambridge Crystallographic Data Centre
#                                CCDC 
#
#######################################################################
#
# If this CIF has been generated from an entry in the Cambridge 
# Structural Database, then it will include bibliographic, chemical, 
# crystal, experimental, refinement or atomic coordinate data resulting 
# from the CCDC's data processing and validation procedures.
#
#######################################################################

data_ZZZQAI02
_chemical_compound_source        
'Harungana madagascariensis Lam. ex poir (Clusiaceae)'
_chemical_name_common            Friedelin
_chemical_formula_moiety         'C30 H50 O1'
_chemical_name_systematic        D:A-Friedo-oleanan-3-one
_symmetry_cell_setting           orthorhombic
_symmetry_space_group_name_H-M   'P 21 21 21'
_symmetry_Int_Tables_number      19
_space_group_name_Hall           'P 2ac 2ab'
loop_
_symmetry_equiv_pos_site_id
_symmetry_equiv_pos_as_xyz
1 x,y,z
2 1/2+x,1/2-y,-z
3 -x,1/2+y,1/2-z
4 1/2-x,-y,1/2+z
_cell_length_a                   6.362(2)
_cell_length_b                   13.923(2)
_cell_length_c                   28.419(5)
_cell_angle_alpha                90
_cell_angle_beta                 90
_cell_angle_gamma                90
_cell_volume                     2517.3
_cell_formula_units_Z            4
loop_
_atom_site_label
_atom_site_type_symbol
_atom_site_fract_x
_atom_site_fract_y
_atom_site_fract_z
C1 C 0.2206(4) 0.2781(1) 0.3997(1)
C2 C 0.0649(4) 0.2969(2) 0.4394(1)
C3 C 0.0485(3) 0.2105(2) 0.4709(1)
C4 C -0.0107(4) 0.1183(2) 0.4453(1)
C5 C 0.1601(3) 0.0960(1) 0.4074(1)
C6 C 0.0928(4) 0.0076(2) 0.3788(1)
C7 C 0.2179(4) -0.0078(1) 0.3337(1)
C8 C 0.2041(3) 0.0808(1) 0.3017(1)
C9 C 0.3001(3) 0.1704(1) 0.3270(1)
C10 C 0.1691(3) 0.1847(1) 0.3732(1)
C11 C 0.2662(4) 0.2580(1) 0.2949(1)
C12 C 0.3411(4) 0.2425(1) 0.2443(1)
C13 C 0.2333(3) 0.1570(1) 0.2197(1)
C14 C 0.2714(3) 0.0638(1) 0.2496(1)
C15 C 0.1392(4) -0.0194(2) 0.2283(1)
C16 C 0.0977(5) -0.0125(2) 0.1746(1)
C17 C 0.2517(4) 0.0471(2) 0.1442(1)
C18 C 0.3261(3) 0.1430(1) 0.1693(1)
C19 C 0.2890(4) 0.2322(2) 0.1382(1)
C20 C 0.3648(4) 0.2248(2) 0.0870(1)
C21 C 0.2751(7) 0.1319(2) 0.0650(1)
C22 C 0.1387(5) 0.0741(2) 0.0980(1)
C23 C -0.0548(6) 0.0370(2) 0.4800(1)
C24 C 0.3694(4) 0.0752(2) 0.4326(1)
C25 C 0.5384(4) 0.1648(2) 0.3376(1)
C26 C -0.0052(4) 0.1819(2) 0.2168(1)
C27 C 0.5050(4) 0.0323(2) 0.2484(1)
C28 C 0.4380(5) -0.0176(2) 0.1306(1)
C29 C 0.2839(7) 0.3126(2) 0.0610(1)
C30 C 0.6067(6) 0.2274(3) 0.0858(1)
O1 O 0.0876(3) 0.2133(1) 0.5126(1)
H1 H 0.2146(54) 0.3352(22) 0.3780(10)
H2 H 0.3618(53) 0.2724(21) 0.4133(10)
H3 H -0.0910(57) 0.3072(23) 0.4252(10)
H4 H 0.0929(58) 0.3449(23) 0.4543(10)
H5 H -0.1387(57) 0.1327(23) 0.4270(10)
H6 H 0.0805(55) -0.0480(22) 0.3947(11)
H7 H -0.0488(54) 0.0146(22) 0.3698(10)
H8 H 0.3583(56) -0.0236(21) 0.3440(10)
H9 H 0.1624(52) -0.0641(21) 0.3218(11)
H10 H 0.0476(53) 0.0981(22) 0.3018(9)
H11 H 0.0328(55) 0.1886(22) 0.3607(10)
H12 H 0.1190(52) 0.2791(22) 0.2927(10)
H13 H 0.3478(52) 0.3145(22) 0.3077(10)
H14 H 0.4903(57) 0.2318(22) 0.2435(10)
H15 H 0.3253(51) 0.3001(23) 0.2246(10)
H16 H 0.2245(52) -0.0821(22) 0.2362(9)
H17 H 0.0086(60) -0.0231(23) 0.2460(11)
H18 H 0.1003(54) -0.0752(21) 0.1611(10)
H19 H -0.0449(57) 0.0143(21) 0.1726(11)
H20 H 0.4838(47) 0.1356(19) 0.1733(9)
H21 H 0.3790(45) 0.2914(19) 0.1542(9)
H22 H 0.1394(46) 0.2495(18) 0.1384(9)
H23 H 0.1910(46) 0.1465(19) 0.0386(9)
H24 H 0.3918(50) 0.1007(20) 0.0552(9)
H25 H 0.0150(48) 0.1125(19) 0.1061(9)
H26 H 0.1048(47) 0.0226(20) 0.0871(9)
H27 H -0.2154(48) 0.0411(19) 0.4902(9)
H28 H -0.0225(44) -0.0299(21) 0.4705(9)
H29 H 0.0172(48) 0.0400(19) 0.5083(10)
H30 H 0.3423(45) 0.0234(19) 0.4530(9)
H31 H 0.4312(48) 0.1269(20) 0.4486(9)
H32 H 0.4690(46) 0.0377(19) 0.4140(9)
H33 H 0.6268(46) 0.1911(18) 0.3099(9)
H34 H 0.5827(49) 0.0992(20) 0.3423(8)
H35 H 0.5763(45) 0.1987(19) 0.3665(9)
H36 H -0.0233(44) 0.2496(21) 0.2119(9)
H37 H -0.0851(46) 0.1782(18) 0.2445(9)
H38 H -0.0749(45) 0.1545(18) 0.1908(9)
H39 H 0.5890(48) 0.0803(20) 0.2525(9)
H40 H 0.5213(45) -0.0193(20) 0.2703(9)
H41 H 0.5550(44) 0.0063(18) 0.2181(10)
H42 H 0.3968(46) -0.0663(19) 0.1070(9)
H43 H 0.5440(48) 0.0270(21) 0.1223(9)
H44 H 0.5046(49) -0.0466(20) 0.1536(10)
H45 H 0.1250(50) 0.3031(19) 0.0575(9)
H46 H 0.3243(47) 0.3751(22) 0.0729(9)
H47 H 0.3332(44) 0.3167(19) 0.0312(10)
H48 H 0.6411(45) 0.2085(18) 0.0520(10)
H49 H 0.6487(46) 0.1652(20) 0.0970(9)
H50 H 0.6627(44) 0.2983(20) 0.0991(9)
loop_
_geom_bond_atom_site_label_1
_geom_bond_atom_site_label_2
_geom_bond_site_symmetry_1
_geom_bond_site_symmetry_2
C1 C2 1_555 1_555
C2 C3 1_555 1_555
C3 C4 1_555 1_555
C4 C5 1_555 1_555
C5 C6 1_555 1_555
C6 C7 1_555 1_555
C7 C8 1_555 1_555
C8 C9 1_555 1_555
C9 C10 1_555 1_555
C10 C1 1_555 1_555
C11 C9 1_555 1_555
C12 C11 1_555 1_555
C13 C12 1_555 1_555
C14 C8 1_555 1_555
C15 C14 1_555 1_555
C16 C15 1_555 1_555
C17 C16 1_555 1_555
C18 C13 1_555 1_555
C19 C18 1_555 1_555
C20 C19 1_555 1_555
C21 C20 1_555 1_555
C22 C17 1_555 1_555
C23 C4 1_555 1_555
C24 C5 1_555 1_555
C25 C9 1_555 1_555
C26 C13 1_555 1_555
C27 C14 1_555 1_555
C28 C17 1_555 1_555
C29 C20 1_555 1_555
C30 C20 1_555 1_555
O1 C3 1_555 1_555
H1 C1 1_555 1_555
H2 C1 1_555 1_555
H3 C2 1_555 1_555
H4 C2 1_555 1_555
H5 C4 1_555 1_555
H6 C6 1_555 1_555
H7 C6 1_555 1_555
H8 C7 1_555 1_555
H9 C7 1_555 1_555
H10 C8 1_555 1_555
H11 C10 1_555 1_555
H12 C11 1_555 1_555
H13 C11 1_555 1_555
H14 C12 1_555 1_555
H15 C12 1_555 1_555
H16 C15 1_555 1_555
H17 C15 1_555 1_555
H18 C16 1_555 1_555
H19 C16 1_555 1_555
H20 C18 1_555 1_555
H21 C19 1_555 1_555
H22 C19 1_555 1_555
H23 C21 1_555 1_555
H24 C21 1_555 1_555
H25 C22 1_555 1_555
H26 C22 1_555 1_555
H27 C23 1_555 1_555
H28 C23 1_555 1_555
H29 C23 1_555 1_555
H30 C24 1_555 1_555
H31 C24 1_555 1_555
H32 C24 1_555 1_555
H33 C25 1_555 1_555
H34 C25 1_555 1_555
H35 C25 1_555 1_555
H36 C26 1_555 1_555
H37 C26 1_555 1_555
H38 C26 1_555 1_555
H39 C27 1_555 1_555
H40 C27 1_555 1_555
H41 C27 1_555 1_555
H42 C28 1_555 1_555
H43 C28 1_555 1_555
H44 C28 1_555 1_555
H45 C29 1_555 1_555
H46 C29 1_555 1_555
H47 C29 1_555 1_555
H48 C30 1_555 1_555
H49 C30 1_555 1_555
H50 C30 1_555 1_555
C5 C10 1_555 1_555
C13 C14 1_555 1_555
C17 C18 1_555 1_555
C21 C22 1_555 1_555

#END
