
#######################################################################
#
#                 Cambridge Crystallographic Data Centre
#                                CCDC 
#
#######################################################################
#
# If this CIF has been generated from an entry in the Cambridge 
# Structural Database, then it will include bibliographic, chemical, 
# crystal, experimental, refinement or atomic coordinate data resulting 
# from the CCDC's data processing and validation procedures.
#
#######################################################################

data_ZZZTXI13
_chemical_formula_moiety         'C13 H8 O2'
_chemical_name_systematic        9H-xanthen-9-one
_symmetry_cell_setting           orthorhombic
_symmetry_space_group_name_H-M   'P 21 21 21'
_symmetry_Int_Tables_number      19
_space_group_name_Hall           'P 2ac 2ab'
loop_
_symmetry_equiv_pos_site_id
_symmetry_equiv_pos_as_xyz
1 x,y,z
2 1/2-x,-y,1/2+z
3 1/2+x,1/2-y,-z
4 -x,1/2+y,1/2-z
_cell_length_a                   4.8942(4)
_cell_length_b                   13.6964(10)
_cell_length_c                   14.1713(12)
_cell_angle_alpha                90
_cell_angle_beta                 90
_cell_angle_gamma                90
_cell_volume                     949.944
_exptl_crystal_colour            'light yellow'
_exptl_crystal_description       block
_cell_formula_units_Z            4
loop_
_atom_site_label
_atom_site_type_symbol
_atom_site_fract_x
_atom_site_fract_y
_atom_site_fract_z
O1 O 0.1038(7) 0.4182(2) 0.2692(2)
O2 O 0.0198(6) 0.5960(2) 0.0395(2)
C1 C 0.0868(9) 0.4698(3) 0.1983(3)
C2 C 0.2471(9) 0.5596(3) 0.1864(3)
C3 C 0.4476(10) 0.5877(4) 0.2518(3)
H1 H 0.4830 0.5487 0.3041
C4 C 0.5925(11) 0.6732(5) 0.2388(4)
H2 H 0.7242 0.6919 0.2825
C5 C 0.5415(11) 0.7310(4) 0.1607(5)
H3 H 0.6389 0.7886 0.1523
C6 C 0.3511(11) 0.7043(3) 0.0962(4)
H4 H 0.3176 0.7436 0.0439
C7 C 0.2060(9) 0.6180(3) 0.1087(3)
C8 C -0.1294(9) 0.5107(3) 0.0460(3)
C9 C -0.3134(10) 0.4933(4) -0.0268(3)
H5 H -0.3325 0.5373 -0.0763
C10 C -0.4661(11) 0.4094(4) -0.0235(4)
H6 H -0.5890 0.3960 -0.0718
C11 C -0.4398(11) 0.3443(4) 0.0508(5)
H7 H -0.5462 0.2881 0.0523
C12 C -0.2582(10) 0.3625(4) 0.1219(4)
H8 H -0.2400 0.3180 0.1711
C13 C -0.1000(9) 0.4471(3) 0.1213(3)
loop_
_geom_bond_atom_site_label_1
_geom_bond_atom_site_label_2
_geom_bond_site_symmetry_1
_geom_bond_site_symmetry_2
O1 C1 1_555 1_555
O2 C7 1_555 1_555
C1 C2 1_555 1_555
C2 C3 1_555 1_555
C3 H1 1_555 1_555
C4 C3 1_555 1_555
H2 C4 1_555 1_555
C5 C4 1_555 1_555
H3 C5 1_555 1_555
C6 C5 1_555 1_555
H4 C6 1_555 1_555
C7 C2 1_555 1_555
C8 O2 1_555 1_555
C9 C8 1_555 1_555
H5 C9 1_555 1_555
C10 C9 1_555 1_555
H6 C10 1_555 1_555
C11 C10 1_555 1_555
H7 C11 1_555 1_555
C12 C11 1_555 1_555
H8 C12 1_555 1_555
C13 C1 1_555 1_555
C6 C7 1_555 1_555
C8 C13 1_555 1_555
C12 C13 1_555 1_555

#END
