
#######################################################################
#
#                 Cambridge Crystallographic Data Centre
#                                CCDC 
#
#######################################################################
#
# If this CIF has been generated from an entry in the Cambridge 
# Structural Database, then it will include bibliographic, chemical, 
# crystal, experimental, refinement or atomic coordinate data resulting 
# from the CCDC's data processing and validation procedures.
#
#######################################################################

data_ZZZUCY01
_chemical_name_common            'Diphenic acid'
_chemical_formula_moiety         'C14 H10 O4'
_chemical_name_systematic        "Biphenyl-2,2'-dicarboxylic acid"
_symmetry_cell_setting           monoclinic
_symmetry_space_group_name_H-M   'P 21/c'
_symmetry_Int_Tables_number      14
_space_group_name_Hall           '-P 2ybc'
loop_
_symmetry_equiv_pos_site_id
_symmetry_equiv_pos_as_xyz
1 x,y,z
2 -x,1/2+y,1/2-z
3 -x,-y,-z
4 x,1/2-y,1/2+z
_cell_length_a                   14.032(3)
_cell_length_b                   11.952(3)
_cell_length_c                   13.616(3)
_cell_angle_alpha                90
_cell_angle_beta                 91.46(2)
_cell_angle_gamma                90
_cell_volume                     2282.8
_chemical_melting_point          506.6K
_cell_formula_units_Z            8
loop_
_atom_site_label
_atom_site_type_symbol
_atom_site_fract_x
_atom_site_fract_y
_atom_site_fract_z
O1 O 0.47951(9) 0.3599(1) 0.18247(9)
O2 O 0.54958(11) 0.3769(1) 0.04145(10)
O3 O 0.42666(9) 0.0434(1) 0.26303(9)
O4 O 0.35008(11) 0.0506(1) 0.40252(10)
C1 C 0.49263(13) 0.3285(2) 0.09429(13)
C2 C 0.44127(13) 0.2281(2) 0.05677(13)
C3 C 0.47401(15) 0.1816(2) -0.03054(14)
C4 C 0.43225(16) 0.0869(2) -0.06944(15)
C5 C 0.35776(15) 0.0377(2) -0.02249(15)
C6 C 0.32407(14) 0.0833(2) 0.06262(14)
C7 C 0.36433(12) 0.1791(2) 0.10408(12)
C8 C 0.31322(12) 0.2308(2) 0.18800(13)
C9 C 0.26026(13) 0.3266(2) 0.16723(13)
C10 C 0.20103(13) 0.3733(2) 0.23529(15)
C11 C 0.19250(14) 0.3248(2) 0.32574(15)
C12 C 0.24630(14) 0.2316(2) 0.34954(14)
C13 C 0.30707(12) 0.1831(2) 0.28203(13)
C14 C 0.36481(12) 0.0865(2) 0.31454(13)
H1 H 0.531(1) 0.221(2) -0.059(1)
H2 H 0.456(1) 0.051(2) -0.130(1)
H3 H 0.328(1) -0.039(2) -0.049(1)
H4 H 0.267(1) 0.044(2) 0.095(1)
H5 H 0.270(1) 0.360(1) 0.103(1)
H6 H 0.164(1) 0.440(2) 0.217(1)
H7 H 0.148(1) 0.357(2) 0.373(1)
H8 H 0.241(1) 0.199(2) 0.414(1)
H17 H 0.524(2) 0.435(2) 0.203(2)
H18 H 0.399(2) -0.024(3) 0.419(2)
O5 O -0.06031(9) 0.3927(1) 0.27069(10)
O6 O -0.16314(2) 0.3954(2) 0.14715(11)
O7 O -0.02169(9) 0.0744(1) 0.32737(9)
O8 O 0.08801(9) 0.0562(1) 0.44715(9)
C15 C -0.13729(13) 0.3580(2) 0.22784(13)
C16 C -0.19548(12) 0.2701(2) 0.27363(13)
C17 C -0.27550(14) 0.2334(2) 0.21865(14)
C18 C -0.33736(13) 0.1566(2) 0.25438(14)
C19 C -0.32038(14) 0.1118(2) 0.34595(15)
C20 C -0.24116(14) 0.1453(2) 0.40082(14)
C21 C -0.17763(12) 0.2245(2) 0.36652(13)
C22 C -0.10185(13) 0.2641(2) 0.43804(12)
C23 C -0.12336(15) 0.3571(2) 0.49339(15)
C24 C -0.06325(19) 0.3952(2) 0.56907(16)
C25 C 0.01997(16) 0.3387(2) 0.59072(15)
C26 C 0.04247(14) 0.2466(2) 0.53667(12)
C27 C -0.01661(13) 0.2068(2) 0.45993(12)
C28 C 0.01550(12) 0.1071(2) 0.40641(12)
H9 H -0.285(1) 0.267(1) 0.155(1)
H10 H -0.391(1) 0.133(2) 0.215(1)
H11 H -0.364(1) 0.056(2) 0.375(1)
H12 H -0.232(1) 0.116(2) 0.463(1)
H13 H -0.184(1) 0.391(2) 0.482(1)
H14 H -0.082(1) 0.461(2) 0.609(1)
H15 H 0.064(1) 0.364(2) 0.645(1)
H16 H 0.104(1) 0.210(2) 0.549(1)
H19 H -0.030(2) 0.456(2) 0.227(2)
H20 H 0.114(2) -0.006(3) 0.400(2)
loop_
_geom_bond_atom_site_label_1
_geom_bond_atom_site_label_2
_geom_bond_site_symmetry_1
_geom_bond_site_symmetry_2
O1 C1 1_555 1_555
O2 C1 1_555 1_555
O3 C14 1_555 1_555
O4 C14 1_555 1_555
C1 C2 1_555 1_555
C2 C3 1_555 1_555
C3 C4 1_555 1_555
C4 C5 1_555 1_555
C5 C6 1_555 1_555
C6 C7 1_555 1_555
C7 C2 1_555 1_555
C8 C7 1_555 1_555
C9 C8 1_555 1_555
C10 C9 1_555 1_555
C11 C10 1_555 1_555
C12 C11 1_555 1_555
C13 C8 1_555 1_555
C14 C13 1_555 1_555
O5 C15 1_555 1_555
O6 C15 1_555 1_555
O7 C28 1_555 1_555
O8 C28 1_555 1_555
C15 C16 1_555 1_555
C16 C17 1_555 1_555
C17 C18 1_555 1_555
C18 C19 1_555 1_555
C19 C20 1_555 1_555
C20 C21 1_555 1_555
C21 C16 1_555 1_555
C22 C21 1_555 1_555
C23 C22 1_555 1_555
C24 C23 1_555 1_555
C25 C24 1_555 1_555
C26 C25 1_555 1_555
C27 C22 1_555 1_555
C28 C27 1_555 1_555
H1 C3 1_555 1_555
H2 C4 1_555 1_555
H3 C5 1_555 1_555
H4 C6 1_555 1_555
H5 C9 1_555 1_555
H6 C10 1_555 1_555
H7 C11 1_555 1_555
H8 C12 1_555 1_555
H9 C17 1_555 1_555
H10 C18 1_555 1_555
H11 C19 1_555 1_555
H12 C20 1_555 1_555
H13 C23 1_555 1_555
H14 C24 1_555 1_555
H15 C25 1_555 1_555
H16 C26 1_555 1_555
H17 O1 1_555 1_555
H18 O4 1_555 1_555
H19 O5 1_555 1_555
H20 O8 1_555 1_555
C12 C13 1_555 1_555
C26 C27 1_555 1_555

#END
