
#######################################################################
#
#                 Cambridge Crystallographic Data Centre
#                                CCDC 
#
#######################################################################
#
# If this CIF has been generated from an entry in the Cambridge 
# Structural Database, then it will include bibliographic, chemical, 
# crystal, experimental, refinement or atomic coordinate data resulting 
# from the CCDC's data processing and validation procedures.
#
#######################################################################

data_ZZZVTY13
_chemical_name_common            Triphenyl(chloro)methane
_chemical_formula_moiety         'C19 H15 Cl1'
_chemical_name_systematic        1,1',1''-(Chloromethanetriyl)tribenzene
_symmetry_cell_setting           triclinic
_symmetry_space_group_name_H-M   'P -1'
_symmetry_Int_Tables_number      2
_space_group_name_Hall           '-P 1'
loop_
_symmetry_equiv_pos_site_id
_symmetry_equiv_pos_as_xyz
1 x,y,z
2 -x,-y,-z
_cell_length_a                   12.8750(18)
_cell_length_b                   14.0425(19)
_cell_length_c                   21.097(3)
_cell_angle_alpha                105.500(2)
_cell_angle_beta                 99.335(2)
_cell_angle_gamma                93.248(2)
_cell_volume                     3606.76
_exptl_crystal_colour            colorless
_exptl_crystal_description       block
_cell_formula_units_Z            10
loop_
_atom_site_label
_atom_site_type_symbol
_atom_site_fract_x
_atom_site_fract_y
_atom_site_fract_z
Cl1 Cl 0.550954(16) 0.840528(18) 0.115975(12)
C1 C 0.40653(6) 0.82430(7) 0.11161(4)
C2 C 0.38441(6) 0.89095(6) 0.17735(4)
C3 C 0.30306(7) 0.95250(7) 0.17759(5)
H1 H 0.2628 0.9554 0.1364
C4 C 0.28017(8) 1.00982(7) 0.23780(5)
H2 H 0.2244 1.0513 0.2372
C5 C 0.33850(8) 1.00658(7) 0.29860(5)
H3 H 0.3233 1.0460 0.3395
C6 C 0.41952(8) 0.94482(8) 0.29878(5)
H4 H 0.4596 0.9421 0.3401
C7 C 0.44205(7) 0.88714(7) 0.23883(5)
H5 H 0.4970 0.8448 0.2396
C8 C 0.37490(7) 0.71419(7) 0.10296(4)
C9 C 0.29231(7) 0.68643(7) 0.13185(5)
H6 H 0.2614 0.7360 0.1609
C10 C 0.25462(8) 0.58672(8) 0.11857(5)
H7 H 0.1977 0.5690 0.1382
C11 C 0.29977(9) 0.51343(8) 0.07694(5)
H8 H 0.2742 0.4455 0.0679
C12 C 0.38298(10) 0.54048(8) 0.04861(6)
H9 H 0.4149 0.4905 0.0205
C13 C 0.41992(8) 0.63977(7) 0.06094(5)
H10 H 0.4761 0.6572 0.0407
C14 C 0.35449(7) 0.85611(6) 0.05098(4)
C15 C 0.26038(7) 0.80497(7) 0.01078(5)
H11 H 0.2319 0.7461 0.0185
C16 C 0.20751(8) 0.83932(8) -0.04071(5)
H12 H 0.1428 0.8044 -0.0672
C17 C 0.24924(9) 0.92438(8) -0.05331(5)
H13 H 0.2138 0.9474 -0.0886
C18 C 0.34348(9) 0.97556(8) -0.01371(5)
H14 H 0.3726 1.0336 -0.0222
C19 C 0.39537(8) 0.94234(7) 0.03822(5)
H15 H 0.4591 0.9784 0.0653
Cl2 Cl 0.785335(17) 0.775926(19) 0.108678(12)
C20 C 0.92824(6) 0.78903(6) 0.10495(4)
C21 C 0.93807(7) 0.72666(7) 0.03508(4)
C22 C 0.87335(8) 0.74024(8) -0.02144(5)
H16 H 0.8220 0.7863 -0.0158
C23 C 0.88361(9) 0.68705(8) -0.08554(5)
H17 H 0.8390 0.6966 -0.1234
C24 C 0.95911(10) 0.61980(8) -0.09433(5)
H18 H 0.9665 0.5837 -0.1381
C25 C 1.02339(9) 0.60580(8) -0.03893(5)
H19 H 1.0747 0.5597 -0.0448
C26 C 1.01324(7) 0.65917(7) 0.02573(5)
H20 H 1.0579 0.6493 0.0634
C27 C 0.96053(7) 0.89951(7) 0.11607(4)
C28 C 1.02743(7) 0.93048(7) 0.07791(5)
H21 H 1.0499 0.8828 0.0430
C29 C 1.06166(8) 1.03140(8) 0.09075(5)
H22 H 1.1070 1.0518 0.0644
C30 C 1.02967(9) 1.10159(8) 0.14169(6)
H23 H 1.0534 1.1700 0.1506
C31 C 0.96248(9) 1.07126(8) 0.17976(5)
H24 H 0.9397 1.1192 0.2144
C32 C 0.92873(8) 0.97122(7) 0.16735(5)
H25 H 0.8836 0.9512 0.1939
C33 C 0.98432(7) 0.75012(6) 0.16119(4)
C34 C 0.95164(7) 0.65490(7) 0.16462(5)
H26 H 0.8959 0.6148 0.1315
C35 C 0.99990(8) 0.61850(7) 0.21599(5)
H27 H 0.9763 0.5542 0.2181
C36 C 1.08285(8) 0.67609(8) 0.26451(5)
H28 H 1.1160 0.6512 0.2995
C37 C 1.11666(8) 0.77010(8) 0.26129(5)
H29 H 1.1732 0.8095 0.2942
C38 C 1.06779(7) 0.80706(7) 0.20985(5)
H30 H 1.0916 0.8714 0.2080
Cl3 Cl 0.394021(17) 0.05628(2) 0.518083(12)
C39 C 0.24897(7) 0.03656(7) 0.51061(4)
C40 C 0.22225(7) 0.09841(7) 0.57630(4)
C41 C 0.27753(7) 0.09241(7) 0.63774(4)
H31 H 0.3346 0.0524 0.6387
C42 C 0.24961(8) 0.14457(8) 0.69753(5)
H32 H 0.2881 0.1405 0.7390
C43 C 0.16554(9) 0.20269(8) 0.69678(5)
H33 H 0.1465 0.2383 0.7376
C44 C 0.10965(9) 0.20823(8) 0.63593(5)
H34 H 0.0520 0.2475 0.6351
C45 C 0.13788(8) 0.15640(8) 0.57593(5)
H35 H 0.0993 0.1607 0.5346
C46 C 0.19993(7) 0.07201(7) 0.45109(4)
C47 C 0.11493(7) 0.01623(7) 0.40332(5)
H36 H 0.0892 -0.0470 0.4061
C48 C 0.06739(8) 0.05296(8) 0.35140(5)
H37 H 0.0093 0.0148 0.3193
C49 C 0.10494(9) 0.14498(8) 0.34667(5)
H38 H 0.0728 0.1697 0.3113
C50 C 0.18985(9) 0.20085(8) 0.39398(5)
H39 H 0.2160 0.2637 0.3907
C51 C 0.23662(8) 0.16503(7) 0.44598(5)
H40 H 0.2940 0.2040 0.4783
C52 C 0.22051(7) -0.07481(7) 0.49909(4)
C53 C 0.14271(8) -0.10775(8) 0.52966(5)
H41 H 0.1100 -0.0608 0.5594
C54 C 0.11266(10) -0.20906(8) 0.51681(6)
H42 H 0.0599 -0.2307 0.5381
C55 C 0.15937(10) -0.27843(8) 0.47314(6)
H43 H 0.1389 -0.3474 0.4645
C56 C 0.23630(10) -0.24624(9) 0.44211(6)
H44 H 0.2685 -0.2935 0.4122
C57 C 0.26642(9) -0.14529(8) 0.45465(5)
H45 H 0.3186 -0.1240 0.4329
Cl4 Cl 0.228326(17) 0.39155(2) 0.291431(13)
C58 C 0.37338(7) 0.40088(7) 0.29271(4)
C59 C 0.38761(7) 0.34451(7) 0.22241(4)
C60 C 0.44877(7) 0.38760(7) 0.18657(5)
H46 H 0.4809 0.4540 0.2054
C61 C 0.46329(8) 0.33385(8) 0.12304(5)
H47 H 0.5054 0.3640 0.0992
C62 C 0.41684(9) 0.23713(8) 0.09460(5)
H48 H 0.4266 0.2009 0.0514
C63 C 0.35558(9) 0.19356(8) 0.13021(5)
H49 H 0.3236 0.1272 0.1112
C64 C 0.34094(8) 0.24644(8) 0.19323(5)
H50 H 0.2989 0.2159 0.2169
C65 C 0.41316(7) 0.51124(7) 0.31066(4)
C66 C 0.51516(7) 0.54494(7) 0.34740(5)
H51 H 0.5576 0.4997 0.3629
C67 C 0.55545(8) 0.64425(7) 0.36160(5)
H52 H 0.6249 0.6662 0.3867
C68 C 0.49403(9) 0.71110(7) 0.33909(5)
H53 H 0.5207 0.7790 0.3493
C69 C 0.39306(9) 0.67762(8) 0.30151(6)
H54 H 0.3512 0.7228 0.2854
C70 C 0.35299(8) 0.57866(8) 0.28732(5)
H55 H 0.2840 0.5567 0.2615
C71 C 0.42049(7) 0.35418(7) 0.34726(4)
C72 C 0.47795(7) 0.27231(7) 0.33493(5)
H56 H 0.4881 0.2419 0.2907
C73 C 0.52100(9) 0.23443(9) 0.38756(6)
H57 H 0.5598 0.1783 0.3787
C74 C 0.50724(9) 0.27832(9) 0.45238(6)
H58 H 0.5362 0.2523 0.4878
C75 C 0.45063(9) 0.36081(9) 0.46507(5)
H59 H 0.4414 0.3915 0.5094
C76 C 0.40770(8) 0.39833(8) 0.41322(5)
H60 H 0.3691 0.4546 0.4225
Cl5 Cl 0.965361(18) 0.36659(2) 0.270788(14)
C77 C 0.82587(7) 0.37877(7) 0.28225(5)
C78 C 0.77346(7) 0.27254(7) 0.26611(5)
C79 C 0.68132(8) 0.23689(7) 0.21859(5)
H61 H 0.6508 0.2782 0.1932
C80 C 0.63358(8) 0.14062(8) 0.20810(5)
H62 H 0.5711 0.1167 0.1754
C81 C 0.67692(9) 0.07979(8) 0.24523(6)
H63 H 0.6442 0.0145 0.2381
C82 C 0.76885(9) 0.11513(8) 0.29312(6)
H64 H 0.7989 0.0739 0.3188
C83 C 0.81639(8) 0.21036(7) 0.30328(5)
H65 H 0.8790 0.2338 0.3359
C84 C 0.77856(7) 0.43570(7) 0.23399(5)
C85 C 0.72756(8) 0.52012(7) 0.25559(6)
H66 H 0.7246 0.5450 0.3017
C86 C 0.68059(9) 0.56871(8) 0.21009(6)
H67 H 0.6461 0.6262 0.2255
C87 C 0.68426(9) 0.53324(9) 0.14276(6)
H68 H 0.6520 0.5660 0.1119
C88 C 0.73561(9) 0.44903(9) 0.12055(6)
H69 H 0.7385 0.4244 0.0744
C89 C 0.78257(8) 0.40101(8) 0.16575(5)
H70 H 0.8178 0.3440 0.1502
C90 C 0.82810(8) 0.43485(7) 0.35536(5)
C91 C 0.74911(7) 0.41006(7) 0.38791(5)
H71 H 0.6975 0.3554 0.3653
C92 C 0.74455(9) 0.46424(8) 0.45317(5)
H72 H 0.6900 0.4463 0.4745
C93 C 0.81878(12) 0.54359(10) 0.48665(7)
H73 H 0.8168 0.5799 0.5314
C94 C 0.89638(15) 0.56967(14) 0.45420(9)
H74 H 0.9472 0.6250 0.4768
C95 C 0.90138(12) 0.51655(11) 0.38925(8)
H75 H 0.9550 0.5360 0.3678
loop_
_geom_bond_atom_site_label_1
_geom_bond_atom_site_label_2
_geom_bond_site_symmetry_1
_geom_bond_site_symmetry_2
Cl1 C1 1_555 1_555
C1 C2 1_555 1_555
C2 C3 1_555 1_555
C3 H1 1_555 1_555
C4 C3 1_555 1_555
H2 C4 1_555 1_555
C5 C4 1_555 1_555
H3 C5 1_555 1_555
C6 C5 1_555 1_555
H4 C6 1_555 1_555
C7 C2 1_555 1_555
H5 C7 1_555 1_555
C8 C1 1_555 1_555
C9 C8 1_555 1_555
H6 C9 1_555 1_555
C10 C9 1_555 1_555
H7 C10 1_555 1_555
C11 C10 1_555 1_555
H8 C11 1_555 1_555
C12 C11 1_555 1_555
H9 C12 1_555 1_555
C13 C8 1_555 1_555
H10 C13 1_555 1_555
C14 C1 1_555 1_555
C15 C14 1_555 1_555
H11 C15 1_555 1_555
C16 C15 1_555 1_555
H12 C16 1_555 1_555
C17 C16 1_555 1_555
H13 C17 1_555 1_555
C18 C17 1_555 1_555
H14 C18 1_555 1_555
C19 C14 1_555 1_555
H15 C19 1_555 1_555
Cl2 C20 1_555 1_555
C20 C21 1_555 1_555
C21 C22 1_555 1_555
C22 H16 1_555 1_555
C23 C22 1_555 1_555
H17 C23 1_555 1_555
C24 C23 1_555 1_555
H18 C24 1_555 1_555
C25 C24 1_555 1_555
H19 C25 1_555 1_555
C26 C21 1_555 1_555
H20 C26 1_555 1_555
C27 C20 1_555 1_555
C28 C27 1_555 1_555
H21 C28 1_555 1_555
C29 C28 1_555 1_555
H22 C29 1_555 1_555
C30 C29 1_555 1_555
H23 C30 1_555 1_555
C31 C30 1_555 1_555
H24 C31 1_555 1_555
C32 C27 1_555 1_555
H25 C32 1_555 1_555
C33 C20 1_555 1_555
C34 C33 1_555 1_555
H26 C34 1_555 1_555
C35 C34 1_555 1_555
H27 C35 1_555 1_555
C36 C35 1_555 1_555
H28 C36 1_555 1_555
C37 C36 1_555 1_555
H29 C37 1_555 1_555
C38 C33 1_555 1_555
H30 C38 1_555 1_555
Cl3 C39 1_555 1_555
C39 C40 1_555 1_555
C40 C41 1_555 1_555
C41 H31 1_555 1_555
C42 C41 1_555 1_555
H32 C42 1_555 1_555
C43 C42 1_555 1_555
H33 C43 1_555 1_555
C44 C43 1_555 1_555
H34 C44 1_555 1_555
C45 C40 1_555 1_555
H35 C45 1_555 1_555
C46 C39 1_555 1_555
C47 C46 1_555 1_555
H36 C47 1_555 1_555
C48 C47 1_555 1_555
H37 C48 1_555 1_555
C49 C48 1_555 1_555
H38 C49 1_555 1_555
C50 C49 1_555 1_555
H39 C50 1_555 1_555
C51 C46 1_555 1_555
H40 C51 1_555 1_555
C52 C39 1_555 1_555
C53 C52 1_555 1_555
H41 C53 1_555 1_555
C54 C53 1_555 1_555
H42 C54 1_555 1_555
C55 C54 1_555 1_555
H43 C55 1_555 1_555
C56 C55 1_555 1_555
H44 C56 1_555 1_555
C57 C52 1_555 1_555
H45 C57 1_555 1_555
Cl4 C58 1_555 1_555
C58 C59 1_555 1_555
C59 C60 1_555 1_555
C60 H46 1_555 1_555
C61 C60 1_555 1_555
H47 C61 1_555 1_555
C62 C61 1_555 1_555
H48 C62 1_555 1_555
C63 C62 1_555 1_555
H49 C63 1_555 1_555
C64 C59 1_555 1_555
H50 C64 1_555 1_555
C65 C58 1_555 1_555
C66 C65 1_555 1_555
H51 C66 1_555 1_555
C67 C66 1_555 1_555
H52 C67 1_555 1_555
C68 C67 1_555 1_555
H53 C68 1_555 1_555
C69 C68 1_555 1_555
H54 C69 1_555 1_555
C70 C65 1_555 1_555
H55 C70 1_555 1_555
C71 C58 1_555 1_555
C72 C71 1_555 1_555
H56 C72 1_555 1_555
C73 C72 1_555 1_555
H57 C73 1_555 1_555
C74 C73 1_555 1_555
H58 C74 1_555 1_555
C75 C74 1_555 1_555
H59 C75 1_555 1_555
C76 C71 1_555 1_555
H60 C76 1_555 1_555
Cl5 C77 1_555 1_555
C77 C78 1_555 1_555
C78 C79 1_555 1_555
C79 H61 1_555 1_555
C80 C79 1_555 1_555
H62 C80 1_555 1_555
C81 C80 1_555 1_555
H63 C81 1_555 1_555
C82 C81 1_555 1_555
H64 C82 1_555 1_555
C83 C78 1_555 1_555
H65 C83 1_555 1_555
C84 C77 1_555 1_555
C85 C84 1_555 1_555
H66 C85 1_555 1_555
C86 C85 1_555 1_555
H67 C86 1_555 1_555
C87 C86 1_555 1_555
H68 C87 1_555 1_555
C88 C87 1_555 1_555
H69 C88 1_555 1_555
C89 C84 1_555 1_555
H70 C89 1_555 1_555
C90 C77 1_555 1_555
C91 C90 1_555 1_555
H71 C91 1_555 1_555
C92 C91 1_555 1_555
H72 C92 1_555 1_555
C93 C92 1_555 1_555
H73 C93 1_555 1_555
C94 C93 1_555 1_555
H74 C94 1_555 1_555
C95 C90 1_555 1_555
H75 C95 1_555 1_555
C6 C7 1_555 1_555
C12 C13 1_555 1_555
C18 C19 1_555 1_555
C25 C26 1_555 1_555
C31 C32 1_555 1_555
C37 C38 1_555 1_555
C44 C45 1_555 1_555
C50 C51 1_555 1_555
C56 C57 1_555 1_555
C63 C64 1_555 1_555
C69 C70 1_555 1_555
C75 C76 1_555 1_555
C82 C83 1_555 1_555
C88 C89 1_555 1_555
C94 C95 1_555 1_555

#END
