
#######################################################################
#
#                 Cambridge Crystallographic Data Centre
#                                CCDC 
#
#######################################################################
#
# If this CIF has been generated from an entry in the Cambridge 
# Structural Database, then it will include bibliographic, chemical, 
# crystal, experimental, refinement or atomic coordinate data resulting 
# from the CCDC's data processing and validation procedures.
#
#######################################################################

data_ZZZVFE01
_chemical_formula_moiety         'C12 H10 O4 S5'
_chemical_name_systematic        bis(Phenylsulfonyl)-trisulfide
_symmetry_cell_setting           tetragonal
_symmetry_space_group_name_H-M   'P 41 21 2'
_symmetry_Int_Tables_number      92
_space_group_name_Hall           'P 4abw 2nw'
loop_
_symmetry_equiv_pos_site_id
_symmetry_equiv_pos_as_xyz
1 x,y,z
2 1/2-y,1/2+x,1/4+z
3 -x,-y,1/2+z
4 1/2+y,1/2-x,3/4+z
5 y,x,-z
6 1/2+x,1/2-y,3/4-z
7 -y,-x,1/2-z
8 1/2-x,1/2+y,1/4-z
_cell_length_a                   7.758(1)
_cell_length_b                   7.758(1)
_cell_length_c                   26.204(4)
_cell_angle_alpha                90
_cell_angle_beta                 90
_cell_angle_gamma                90
_cell_volume                     1577.13
_cell_formula_units_Z            4
loop_
_atom_site_label
_atom_site_type_symbol
_atom_site_fract_x
_atom_site_fract_y
_atom_site_fract_z
S1 S 0.2699(1) 0.2699 0.00000
S2 S 0.0333(1) 0.2868(1) 0.03234(3)
S3 S -0.1218(1) 0.3634(1) -0.02940(3)
O1 O -0.0397(3) 0.4949(3) -0.0583(1)
O2 O -0.2831(3) 0.3959(3) -0.0050(1)
C1 C -0.0499(4) 0.1676(4) -0.1127(1)
C2 C -0.0592(4) 0.0142(5) -0.1396(1)
C3 C -0.2236(4) 0.0371(4) -0.0468(1)
C4 C -0.1345(3) 0.1762(3) -0.0663(1)
C5 C -0.1462(5) -0.1223(4) -0.1203(1)
C6 C -0.2308(4) -0.1123(4) -0.0744(1)
H1 H 0.004(3) 0.268(3) -0.1238(8)
H2 H 0.002(3) 0.006(3) -0.1698(6)
H3 H -0.282(3) 0.046(3) -0.0156(6)
H4 H -0.153(3) -0.222(3) -0.1375(7)
H5 H -0.285(3) -0.197(3) -0.0649(7)
S2D S 0.2868(1) 0.0333(1) -0.03234(3)
S3D S 0.3634(1) -0.1218(1) 0.02940(3)
O1D O 0.4949(3) -0.0397(3) 0.0583(1)
O2D O 0.3959(3) -0.2831(3) 0.0050(1)
C4D C 0.1762(3) -0.1345(3) 0.0663(1)
C1D C 0.1676(4) -0.0499(4) 0.1127(1)
C3D C 0.0371(4) -0.2236(4) 0.0468(1)
C2D C 0.0142(5) -0.0592(4) 0.1396(1)
H1D H 0.268(3) 0.004(3) 0.1238(8)
C6D C -0.1123(4) -0.2308(4) 0.0744(1)
H3D H 0.046(3) -0.282(3) 0.0156(6)
C5D C -0.1223(4) -0.1462(5) 0.1203(1)
H2D H 0.006(3) 0.002(3) 0.1698(6)
H5D H -0.197(3) -0.285(3) 0.0649(7)
H4D H -0.222(3) -0.153(3) 0.1375(7)
loop_
_geom_bond_atom_site_label_1
_geom_bond_atom_site_label_2
_geom_bond_site_symmetry_1
_geom_bond_site_symmetry_2
S1 S2 1_555 1_555
S2 S3 1_555 1_555
S3 O1 1_555 1_555
O2 S3 1_555 1_555
C1 C2 1_555 1_555
C2 C5 1_555 1_555
C3 C4 1_555 1_555
C4 S3 1_555 1_555
C5 C6 1_555 1_555
C6 C3 1_555 1_555
H1 C1 1_555 1_555
H2 C2 1_555 1_555
H3 C3 1_555 1_555
H4 C5 1_555 1_555
H5 C6 1_555 1_555
S2D S1 1_555 1_555
S3D S2D 1_555 1_555
O1D S3D 1_555 1_555
O2D S3D 1_555 1_555
C4D S3D 1_555 1_555
C1D C4D 1_555 1_555
C3D C4D 1_555 1_555
C2D C1D 1_555 1_555
H1D C1D 1_555 1_555
C6D C3D 1_555 1_555
H3D C3D 1_555 1_555
C5D C2D 1_555 1_555
H2D C2D 1_555 1_555
H5D C6D 1_555 1_555
H4D C5D 1_555 1_555
C1 C4 1_555 1_555
C6D C5D 1_555 1_555

#END
