
#######################################################################
#
#                 Cambridge Crystallographic Data Centre
#                                CCDC 
#
#######################################################################
#
# If this CIF has been generated from an entry in the Cambridge 
# Structural Database, then it will include bibliographic, chemical, 
# crystal, experimental, refinement or atomic coordinate data resulting 
# from the CCDC's data processing and validation procedures.
#
#######################################################################

data_ZZZVTY14
_chemical_formula_moiety         'C19 H15 Cl1'
_chemical_name_systematic        1,1',1''-(Chloromethanetriyl)tribenzene
_symmetry_cell_setting           triclinic
_symmetry_space_group_name_H-M   'P -1'
_symmetry_Int_Tables_number      2
_space_group_name_Hall           '-P 1'
loop_
_symmetry_equiv_pos_site_id
_symmetry_equiv_pos_as_xyz
1 x,y,z
2 -x,-y,-z
_cell_length_a                   12.8750(18)
_cell_length_b                   14.0425(19)
_cell_length_c                   21.097(3)
_cell_angle_alpha                105.500(2)
_cell_angle_beta                 99.335(2)
_cell_angle_gamma                93.248(2)
_cell_volume                     3606.76
_exptl_crystal_colour            colorless
_exptl_crystal_description       block
_cell_formula_units_Z            10
loop_
_atom_site_label
_atom_site_type_symbol
_atom_site_fract_x
_atom_site_fract_y
_atom_site_fract_z
Cl1 Cl 0.550946(13) 0.840581(15) 0.115958(9)
C1 C 0.40672(5) 0.82431(6) 0.11162(4)
C2 C 0.38447(4) 0.89094(4) 0.17729(3)
C3 C 0.30308(5) 0.95256(5) 0.17750(3)
C4 C 0.28008(5) 1.00996(5) 0.23778(3)
C5 C 0.33848(6) 1.00670(5) 0.29871(3)
C6 C 0.41960(5) 0.94473(5) 0.29889(3)
C7 C 0.44217(5) 0.88710(5) 0.23885(3)
C8 C 0.37491(5) 0.71429(5) 0.10299(3)
C9 C 0.29228(5) 0.68657(5) 0.13192(3)
C10 C 0.25443(5) 0.58667(5) 0.11865(3)
C11 C 0.29969(6) 0.51311(5) 0.07690(4)
C12 C 0.38303(6) 0.54027(5) 0.04841(4)
C13 C 0.42013(6) 0.63989(5) 0.06094(3)
C14 C 0.35456(5) 0.85611(4) 0.05101(3)
C15 C 0.26032(5) 0.80481(5) 0.01077(3)
C16 C 0.20737(6) 0.83915(5) -0.04077(3)
C17 C 0.24913(6) 0.92439(6) -0.05347(3)
C18 C 0.34353(6) 0.97576(5) -0.01375(3)
C19 C 0.39554(5) 0.94234(5) 0.03832(3)
H1 H 0.2576(9) 0.9552(8) 0.1320(6)
H2 H 0.2174(10) 1.0537(8) 0.2359(5)
H3 H 0.3212(9) 1.0523(9) 0.3456(7)
H4 H 0.4635(10) 0.9419(8) 0.3454(7)
H5 H 0.5029(10) 0.8403(9) 0.2409(5)
H6 H 0.2562(9) 0.7415(9) 0.1641(6)
H7 H 0.1918(10) 0.5689(8) 0.1420(6)
H8 H 0.2704(9) 0.4353(11) 0.0672(5)
H9 H 0.4173(10) 0.4859(10) 0.0154(7)
H10 H 0.4834(11) 0.6579(9) 0.0384(6)
H11 H 0.2289(9) 0.7402(9) 0.0193(5)
H12 H 0.1331(11) 0.7984(9) -0.0713(6)
H13 H 0.2083(10) 0.9513(9) -0.0927(7)
H14 H 0.3759(9) 1.0414(10) -0.0219(5)
H15 H 0.4663(11) 0.9818(9) 0.0676(6)
Cl2 Cl 0.785334(13) 0.775878(15) 0.108698(10)
C20 C 0.92808(5) 0.78904(6) 0.10495(4)
C21 C 0.93814(5) 0.72670(5) 0.03514(3)
C22 C 0.87327(5) 0.74043(5) -0.02140(3)
C23 C 0.88337(6) 0.68720(6) -0.08562(3)
C24 C 0.95917(7) 0.61967(6) -0.09456(4)
C25 C 1.02365(6) 0.60556(5) -0.03885(4)
C26 C 1.01337(5) 0.65911(5) 0.02576(3)
C27 C 0.96056(5) 0.89940(5) 0.11601(3)
C28 C 1.02752(5) 0.93050(5) 0.07791(3)
C29 C 1.06179(6) 1.03133(5) 0.09059(4)
C30 C 1.02970(6) 1.10195(5) 0.14174(4)
C31 C 0.96233(6) 1.07140(5) 0.17987(4)
C32 C 0.92862(5) 0.97113(5) 0.16738(3)
C33 C 0.98431(4) 0.75016(4) 0.16114(3)
C34 C 0.95153(5) 0.65480(5) 0.16451(3)
C35 C 0.99977(6) 0.61825(5) 0.21592(3)
C36 C 1.08309(6) 0.67604(6) 0.26464(3)
C37 C 1.11683(5) 0.77029(5) 0.26137(3)
C38 C 1.06787(5) 0.80714(5) 0.20981(3)
H16 H 0.8145(10) 0.7925(10) -0.0145(5)
H17 H 0.8333(10) 0.6949(8) -0.1292(6)
H18 H 0.9684(9) 0.5774(9) -0.1452(7)
H19 H 1.0807(11) 0.5554(10) -0.0438(6)
H20 H 1.0621(9) 0.6481(8) 0.0664(6)
H21 H 1.0522(9) 0.8779(9) 0.0391(6)
H22 H 1.1125(10) 1.0536(9) 0.0614(6)
H23 H 1.0549(9) 1.1805(11) 0.1523(5)
H24 H 0.9354(9) 1.1260(10) 0.2167(6)
H25 H 0.8776(10) 0.9500(8) 0.1959(6)
H26 H 0.8877(10) 0.6122(9) 0.1284(6)
H27 H 0.9728(9) 0.5482(10) 0.2179(5)
H28 H 1.1196(9) 0.6481(9) 0.3041(6)
H29 H 1.1795(10) 0.8149(9) 0.2979(6)
H30 H 1.0945(9) 0.8781(10) 0.2081(5)
Cl3 Cl 0.394029(13) 0.056309(16) 0.518085(9)
C39 C 0.24912(6) 0.03657(6) 0.51065(4)
C40 C 0.22223(5) 0.09827(5) 0.57620(3)
C41 C 0.27766(5) 0.09232(5) 0.63775(3)
C42 C 0.24979(6) 0.14455(5) 0.69763(3)
C43 C 0.16544(6) 0.20286(5) 0.69694(3)
C44 C 0.10955(6) 0.20831(6) 0.63585(3)
C45 C 0.13788(5) 0.15649(5) 0.57591(3)
C46 C 0.19993(5) 0.07201(5) 0.45111(3)
C47 C 0.11489(5) 0.01609(5) 0.40334(3)
C48 C 0.06720(6) 0.05273(6) 0.35131(3)
C49 C 0.10486(6) 0.14510(6) 0.34656(3)
C50 C 0.19002(6) 0.20107(5) 0.39401(3)
C51 C 0.23674(5) 0.16509(5) 0.44606(3)
C52 C 0.22046(5) -0.07477(5) 0.49911(3)
C53 C 0.14266(5) -0.10765(5) 0.52968(3)
C54 C 0.11239(7) -0.20904(6) 0.51695(4)
C55 C 0.15934(7) -0.27894(6) 0.47305(4)
C56 C 0.23648(7) -0.24643(6) 0.44189(4)
C57 C 0.26655(6) -0.14516(5) 0.45464(4)
H31 H 0.3402(10) 0.0483(9) 0.6389(5)
H32 H 0.2930(10) 0.1400(8) 0.7432(7)
H33 H 0.1451(9) 0.2445(9) 0.7440(7)
H34 H 0.0447(11) 0.2517(10) 0.6342(6)
H35 H 0.0970(9) 0.1616(8) 0.5309(6)
H36 H 0.0867(9) -0.0520(10) 0.4072(5)
H37 H 0.0035(10) 0.0086(9) 0.3144(6)
H38 H 0.0701(10) 0.1727(9) 0.3055(7)
H39 H 0.2187(9) 0.2688(10) 0.3902(5)
H40 H 0.3013(10) 0.2083(9) 0.4822(6)
H41 H 0.1068(9) -0.0563(9) 0.5627(6)
H42 H 0.0533(11) -0.2322(9) 0.5418(6)
H43 H 0.1357(10) -0.3594(12) 0.4638(6)
H44 H 0.2739(10) -0.2975(10) 0.4087(6)
H45 H 0.3260(10) -0.1217(9) 0.4304(6)
Cl4 Cl 0.228321(13) 0.391544(16) 0.291398(10)
C58 C 0.37327(6) 0.40083(6) 0.29272(4)
C59 C 0.38757(5) 0.34462(5) 0.22248(3)
C60 C 0.44881(5) 0.38771(5) 0.18659(3)
C61 C 0.46348(6) 0.33409(5) 0.12303(3)
C62 C 0.41694(6) 0.23696(6) 0.09446(4)
C63 C 0.35536(6) 0.19320(6) 0.13013(4)
C64 C 0.34076(6) 0.24647(5) 0.19337(3)
C65 C 0.41310(5) 0.51112(5) 0.31062(3)
C66 C 0.51524(5) 0.54482(5) 0.34743(3)
C67 C 0.55567(5) 0.64429(5) 0.36168(3)
C68 C 0.49416(6) 0.71129(5) 0.33910(3)
C69 C 0.39291(6) 0.67772(5) 0.30142(4)
C70 C 0.35280(5) 0.57855(5) 0.28726(4)
C71 C 0.42041(5) 0.35423(5) 0.34721(3)
C72 C 0.47798(5) 0.27217(5) 0.33491(3)
C73 C 0.52110(6) 0.23427(6) 0.38740(4)
C74 C 0.50739(6) 0.27806(6) 0.45248(4)
C75 C 0.45052(6) 0.36099(6) 0.46524(4)
C76 C 0.40762(6) 0.39833(5) 0.41322(3)
H46 H 0.4846(9) 0.4602(10) 0.2075(5)
H47 H 0.5112(10) 0.3686(9) 0.0971(6)
H48 H 0.4289(10) 0.1953(10) 0.0435(8)
H49 H 0.3208(10) 0.1183(11) 0.1099(6)
H50 H 0.2939(10) 0.2141(9) 0.2192(6)
H51 H 0.5637(9) 0.4943(9) 0.3640(5)
H52 H 0.6334(11) 0.6676(8) 0.3890(6)
H53 H 0.5256(9) 0.7904(11) 0.3516(5)
H54 H 0.3460(10) 0.7285(10) 0.2833(6)
H55 H 0.2780(12) 0.5544(9) 0.2587(6)
H56 H 0.4900(8) 0.2393(8) 0.2868(6)
H57 H 0.5635(10) 0.1717(10) 0.3767(6)
H58 H 0.5399(10) 0.2484(9) 0.4928(7)
H59 H 0.4385(10) 0.3955(9) 0.5154(7)
H60 H 0.3634(10) 0.4617(10) 0.4226(6)
Cl5 Cl 0.965350(14) 0.366549(16) 0.270729(11)
C77 C 0.82602(6) 0.37878(6) 0.28227(4)
C78 C 0.77355(5) 0.27264(5) 0.26617(3)
C79 C 0.68124(5) 0.23699(5) 0.21855(3)
C80 C 0.63342(6) 0.14056(5) 0.20796(4)
C81 C 0.67671(6) 0.07951(5) 0.24515(4)
C82 C 0.76899(6) 0.11501(5) 0.29323(4)
C83 C 0.81656(5) 0.21052(5) 0.30342(3)
C84 C 0.77863(5) 0.43574(5) 0.23402(3)
C85 C 0.72758(5) 0.52019(5) 0.25576(4)
C86 C 0.68051(6) 0.56894(6) 0.21029(4)
C87 C 0.68402(6) 0.53326(6) 0.14257(4)
C88 C 0.73557(6) 0.44892(6) 0.12039(4)
C89 C 0.78256(5) 0.40091(5) 0.16570(3)
C90 C 0.82806(5) 0.43491(5) 0.35537(3)
C91 C 0.74906(5) 0.41005(5) 0.38792(3)
C92 C 0.74446(6) 0.46407(5) 0.45319(3)
C93 C 0.81879(8) 0.54380(7) 0.48691(4)
C94 C 0.89665(10) 0.57026(10) 0.45433(6)
C95 C 0.90152(9) 0.51645(8) 0.38917(5)
H61 H 0.6481(9) 0.2819(9) 0.1908(6)
H62 H 0.5626(11) 0.1170(8) 0.1722(6)
H63 H 0.6404(10) 0.0051(12) 0.2368(6)
H64 H 0.8031(10) 0.0703(9) 0.3232(6)
H65 H 0.8855(10) 0.2369(8) 0.3398(6)
H66 H 0.7249(9) 0.5485(9) 0.3078(7)
H67 H 0.6425(10) 0.6328(10) 0.2287(6)
H68 H 0.6490(10) 0.5724(9) 0.1078(6)
H69 H 0.7376(10) 0.4201(9) 0.0681(7)
H70 H 0.8225(9) 0.3376(10) 0.1491(5)
H71 H 0.6912(10) 0.3480(10) 0.3628(6)
H72 H 0.6853(10) 0.4427(8) 0.4760(6)
H73 H 0.8179(10) 0.5839(10) 0.5381(8)
H74 H 0.9541(17) 0.6278(15) 0.4810(9)
H75 H 0.9620(14) 0.5340(12) 0.3668(8)
loop_
_geom_bond_atom_site_label_1
_geom_bond_atom_site_label_2
_geom_bond_site_symmetry_1
_geom_bond_site_symmetry_2
Cl1 C1 1_555 1_555
C1 C2 1_555 1_555
C2 C3 1_555 1_555
C3 C4 1_555 1_555
C4 C5 1_555 1_555
C5 C6 1_555 1_555
C6 C7 1_555 1_555
C7 C2 1_555 1_555
C8 C1 1_555 1_555
C9 C8 1_555 1_555
C10 C9 1_555 1_555
C11 C10 1_555 1_555
C12 C11 1_555 1_555
C13 C8 1_555 1_555
C14 C1 1_555 1_555
C15 C14 1_555 1_555
C16 C15 1_555 1_555
C17 C16 1_555 1_555
C18 C17 1_555 1_555
C19 C14 1_555 1_555
H1 C3 1_555 1_555
H2 C4 1_555 1_555
H3 C5 1_555 1_555
H4 C6 1_555 1_555
H5 C7 1_555 1_555
H6 C9 1_555 1_555
H7 C10 1_555 1_555
H8 C11 1_555 1_555
H9 C12 1_555 1_555
H10 C13 1_555 1_555
H11 C15 1_555 1_555
H12 C16 1_555 1_555
H13 C17 1_555 1_555
H14 C18 1_555 1_555
H15 C19 1_555 1_555
Cl2 C20 1_555 1_555
C20 C21 1_555 1_555
C21 C22 1_555 1_555
C22 C23 1_555 1_555
C23 C24 1_555 1_555
C24 C25 1_555 1_555
C25 C26 1_555 1_555
C26 C21 1_555 1_555
C27 C20 1_555 1_555
C28 C27 1_555 1_555
C29 C28 1_555 1_555
C30 C29 1_555 1_555
C31 C30 1_555 1_555
C32 C27 1_555 1_555
C33 C20 1_555 1_555
C34 C33 1_555 1_555
C35 C34 1_555 1_555
C36 C35 1_555 1_555
C37 C36 1_555 1_555
C38 C33 1_555 1_555
H16 C22 1_555 1_555
H17 C23 1_555 1_555
H18 C24 1_555 1_555
H19 C25 1_555 1_555
H20 C26 1_555 1_555
H21 C28 1_555 1_555
H22 C29 1_555 1_555
H23 C30 1_555 1_555
H24 C31 1_555 1_555
H25 C32 1_555 1_555
H26 C34 1_555 1_555
H27 C35 1_555 1_555
H28 C36 1_555 1_555
H29 C37 1_555 1_555
H30 C38 1_555 1_555
Cl3 C39 1_555 1_555
C39 C40 1_555 1_555
C40 C41 1_555 1_555
C41 C42 1_555 1_555
C42 C43 1_555 1_555
C43 C44 1_555 1_555
C44 C45 1_555 1_555
C45 C40 1_555 1_555
C46 C39 1_555 1_555
C47 C46 1_555 1_555
C48 C47 1_555 1_555
C49 C48 1_555 1_555
C50 C49 1_555 1_555
C51 C46 1_555 1_555
C52 C39 1_555 1_555
C53 C52 1_555 1_555
C54 C53 1_555 1_555
C55 C54 1_555 1_555
C56 C55 1_555 1_555
C57 C52 1_555 1_555
H31 C41 1_555 1_555
H32 C42 1_555 1_555
H33 C43 1_555 1_555
H34 C44 1_555 1_555
H35 C45 1_555 1_555
H36 C47 1_555 1_555
H37 C48 1_555 1_555
H38 C49 1_555 1_555
H39 C50 1_555 1_555
H40 C51 1_555 1_555
H41 C53 1_555 1_555
H42 C54 1_555 1_555
H43 C55 1_555 1_555
H44 C56 1_555 1_555
H45 C57 1_555 1_555
Cl4 C58 1_555 1_555
C58 C59 1_555 1_555
C59 C60 1_555 1_555
C60 C61 1_555 1_555
C61 C62 1_555 1_555
C62 C63 1_555 1_555
C63 C64 1_555 1_555
C64 C59 1_555 1_555
C65 C58 1_555 1_555
C66 C65 1_555 1_555
C67 C66 1_555 1_555
C68 C67 1_555 1_555
C69 C68 1_555 1_555
C70 C65 1_555 1_555
C71 C58 1_555 1_555
C72 C71 1_555 1_555
C73 C72 1_555 1_555
C74 C73 1_555 1_555
C75 C74 1_555 1_555
C76 C71 1_555 1_555
H46 C60 1_555 1_555
H47 C61 1_555 1_555
H48 C62 1_555 1_555
H49 C63 1_555 1_555
H50 C64 1_555 1_555
H51 C66 1_555 1_555
H52 C67 1_555 1_555
H53 C68 1_555 1_555
H54 C69 1_555 1_555
H55 C70 1_555 1_555
H56 C72 1_555 1_555
H57 C73 1_555 1_555
H58 C74 1_555 1_555
H59 C75 1_555 1_555
H60 C76 1_555 1_555
Cl5 C77 1_555 1_555
C77 C78 1_555 1_555
C78 C79 1_555 1_555
C79 C80 1_555 1_555
C80 C81 1_555 1_555
C81 C82 1_555 1_555
C82 C83 1_555 1_555
C83 C78 1_555 1_555
C84 C77 1_555 1_555
C85 C84 1_555 1_555
C86 C85 1_555 1_555
C87 C86 1_555 1_555
C88 C87 1_555 1_555
C89 C84 1_555 1_555
C90 C77 1_555 1_555
C91 C90 1_555 1_555
C92 C91 1_555 1_555
C93 C92 1_555 1_555
C94 C93 1_555 1_555
C95 C90 1_555 1_555
H61 C79 1_555 1_555
H62 C80 1_555 1_555
H63 C81 1_555 1_555
H64 C82 1_555 1_555
H65 C83 1_555 1_555
H66 C85 1_555 1_555
H67 C86 1_555 1_555
H68 C87 1_555 1_555
H69 C88 1_555 1_555
H70 C89 1_555 1_555
H71 C91 1_555 1_555
H72 C92 1_555 1_555
H73 C93 1_555 1_555
H74 C94 1_555 1_555
H75 C95 1_555 1_555
C12 C13 1_555 1_555
C18 C19 1_555 1_555
C31 C32 1_555 1_555
C37 C38 1_555 1_555
C50 C51 1_555 1_555
C56 C57 1_555 1_555
C69 C70 1_555 1_555
C75 C76 1_555 1_555
C88 C89 1_555 1_555
C94 C95 1_555 1_555

#END
