
#######################################################################
#
#                 Cambridge Crystallographic Data Centre
#                                CCDC 
#
#######################################################################
#
# If this CIF has been generated from an entry in the Cambridge 
# Structural Database, then it will include bibliographic, chemical, 
# crystal, experimental, refinement or atomic coordinate data resulting 
# from the CCDC's data processing and validation procedures.
#
#######################################################################

data_ZZZVSS03
_chemical_formula_moiety         'C6 H16 N1 1+,Br1 1-'
_chemical_name_systematic        'Triethylammonium bromide'
_symmetry_cell_setting           hexagonal
_symmetry_space_group_name_H-M   'P 63/m m c'
_symmetry_Int_Tables_number      194
_space_group_name_Hall           "-P 6c 2'c"
loop_
_symmetry_equiv_pos_site_id
_symmetry_equiv_pos_as_xyz
1 x,y,z
2 x-y,x,1/2+z
3 -y,x-y,z
4 -x,-y,1/2+z
5 -x+y,-x,z
6 y,-x+y,1/2+z
7 -y,-x,1/2-z
8 x-y,-y,-z
9 x,x-y,1/2-z
10 y,x,-z
11 -x+y,y,1/2-z
12 -x,-x+y,-z
13 -x,-y,-z
14 -x+y,-x,1/2-z
15 y,-x+y,-z
16 x,y,1/2-z
17 x-y,x,-z
18 -y,x-y,1/2-z
19 y,x,1/2+z
20 -x+y,y,z
21 -x,-x+y,1/2+z
22 -y,-x,z
23 x-y,-y,1/2+z
24 x,x-y,z
_cell_length_a                   8.4660(10)
_cell_length_b                   8.4660(10)
_cell_length_c                   7.4109(7)
_cell_angle_alpha                90
_cell_angle_beta                 90
_cell_angle_gamma                120
_cell_volume                     460
_exptl_crystal_colour            colorless
_exptl_crystal_description       block
_cell_formula_units_Z            2
loop_
_atom_site_label
_atom_site_type_symbol
_atom_site_fract_x
_atom_site_fract_y
_atom_site_fract_z
N1 N 0.6667 0.3333 0.2500
H1 H 0.6667 0.3333 0.1272
C1 C 0.4853(17) 0.3053(15) 0.2500
C2 C 0.3268(16) 0.1634(8) 0.165(3)
H1F H 0.6667 0.3333 0.3728
C1H C 0.4853(17) 0.1800(23) 0.2500
C1B C 0.6947(15) 0.1800(23) 0.2500
C1J C 0.8200(23) 0.3053(15) 0.2500
C1D C 0.8200(23) 0.5147(17) 0.2500
C1F C 0.6947(15) 0.5147(17) 0.2500
C2F C 0.8366(8) 0.6732(16) 0.335(3)
C2D C 0.8366(18) 0.6732(16) 0.165(3)
C2J C 0.8366(18) 0.1634(8) 0.335(3)
C2B C 0.8366(8) 0.1634(18) 0.165(3)
C2H C 0.3268(16) 0.1634(18) 0.335(3)
Br1 Br 0.3333 0.6667 0.2500
H2? H 0.4531 0.3002 0.3763
H3? H 0.4971 0.4178 0.2035
H4? H 0.2249 0.1808 0.1881
H5? H 0.3015 0.0477 0.2132
H6? H 0.3469 0.1660 0.0376
loop_
_geom_bond_atom_site_label_1
_geom_bond_atom_site_label_2
_geom_bond_site_symmetry_1
_geom_bond_site_symmetry_2
N1 H1 1_555 1_555
C1 N1 1_555 1_555
C2 C1 1_555 1_555
H1F N1 1_555 1_555
C1H N1 1_555 1_555
C1B N1 1_555 1_555
C1J N1 1_555 1_555
C1D N1 1_555 1_555
C1F N1 1_555 1_555
C2F C1D 1_555 1_555
C2D C1D 1_555 1_555
C2J C1B 1_555 1_555
C2B C1B 1_555 1_555
C2H C1 1_555 1_555
C1 C1H 1_555 1_555
C2 C1H 1_555 1_555
C2 C2H 1_555 1_555
C1H C2H 1_555 1_555
C1B C1J 1_555 1_555
C1J C2J 1_555 1_555
C1J C2B 1_555 1_555
C1D C1F 1_555 1_555
C1F C2F 1_555 1_555
C1F C2D 1_555 1_555
C2F C2D 1_555 1_555
C2J C2B 1_555 1_555

#END
