
#######################################################################
#
#                 Cambridge Crystallographic Data Centre
#                                CCDC 
#
#######################################################################
#
# If this CIF has been generated from an entry in the Cambridge 
# Structural Database, then it will include bibliographic, chemical, 
# crystal, experimental, refinement or atomic coordinate data resulting 
# from the CCDC's data processing and validation procedures.
#
#######################################################################

data_ZZZWGK03
_chemical_formula_moiety         'C6 H10 O1'
_chemical_name_systematic        Cyclohexanone
_symmetry_cell_setting           orthorhombic
_symmetry_space_group_name_H-M   'P b c a'
_symmetry_Int_Tables_number      61
_space_group_name_Hall           '-P 2ac 2ab'
loop_
_symmetry_equiv_pos_site_id
_symmetry_equiv_pos_as_xyz
1 x,y,z
2 1/2-x,-y,1/2+z
3 -x,1/2+y,1/2-z
4 1/2+x,1/2-y,-z
5 -x,-y,-z
6 1/2+x,y,1/2-z
7 x,1/2-y,1/2+z
8 1/2-x,1/2+y,z
_cell_length_a                   10.482(3)
_cell_length_b                   8.625(3)
_cell_length_c                   12.993(5)
_cell_angle_alpha                90
_cell_angle_beta                 90
_cell_angle_gamma                90
_cell_volume                     1174.66
_exptl_crystal_colour            colorless
_exptl_crystal_description       speck
_cell_formula_units_Z            8
loop_
_atom_site_label
_atom_site_type_symbol
_atom_site_fract_x
_atom_site_fract_y
_atom_site_fract_z
O1 O 0.78452(14) 0.46091(17) 0.38418(14)
C1 C 0.85115(17) 0.3453(2) 0.3820(2)
C2 C 0.9044(2) 0.2727(4) 0.4780(2)
C3 C 1.0461(3) 0.2375(4) 0.4677(2)
C4 C 1.0742(2) 0.1462(3) 0.3708(2)
C5 C 1.0270(2) 0.2316(4) 0.2766(2)
C6 C 0.8849(2) 0.2651(3) 0.2830(2)
H1 H 0.885(2) 0.340(3) 0.5317(18)
H2 H 0.853(2) 0.170(3) 0.4852(18)
H3 H 1.095(2) 0.337(3) 0.4593(16)
H4 H 1.081(2) 0.189(3) 0.5278(19)
H5 H 1.0317(17) 0.055(2) 0.3722(16)
H6 H 1.175(2) 0.123(2) 0.3696(16)
H7 H 1.0407(19) 0.173(3) 0.2210(19)
H8 H 1.080(2) 0.331(3) 0.2657(19)
H9 H 0.8485(19) 0.327(3) 0.2215(19)
H10 H 0.8355(19) 0.166(3) 0.2865(17)
loop_
_geom_bond_atom_site_label_1
_geom_bond_atom_site_label_2
_geom_bond_site_symmetry_1
_geom_bond_site_symmetry_2
O1 C1 1_555 1_555
C1 C2 1_555 1_555
C2 C3 1_555 1_555
C3 C4 1_555 1_555
C4 C5 1_555 1_555
C5 C6 1_555 1_555
C6 C1 1_555 1_555
H1 C2 1_555 1_555
H2 C2 1_555 1_555
H3 C3 1_555 1_555
H4 C3 1_555 1_555
H5 C4 1_555 1_555
H6 C4 1_555 1_555
H7 C5 1_555 1_555
H8 C5 1_555 1_555
H9 C6 1_555 1_555
H10 C6 1_555 1_555

#END
