data_image0
_cell_length_a       67.313
_cell_length_b       9.993
_cell_length_c       20.184
_cell_angle_alpha    90
_cell_angle_beta     90.67
_cell_angle_gamma    90

_symmetry_space_group_name_H-M    "P 1"
_symmetry_int_tables_number       1

loop_
  _symmetry_equiv_pos_as_xyz
  'x, y, z'

loop_
  _atom_site_label
  _atom_site_occupancy
  _atom_site_fract_x
  _atom_site_fract_y
  _atom_site_fract_z
  _atom_site_thermal_displace_type
  _atom_site_B_iso_or_equiv
  _atom_site_type_symbol
  N1       1.0000 0.55076  0.56430  0.73945  Biso   1.000  N
  C1       1.0000 0.56703  0.51126  0.76581  Biso   1.000  C
  H1       1.0000 0.54709  0.54218  0.70001  Biso   1.000  H
  H2       1.0000 0.54389  0.62093  0.76169  Biso   1.000  H
  C2       1.0000 0.57264  0.54978  0.83473  Biso   1.000  C
  O1       1.0000 0.57754  0.42980  0.73712  Biso   1.000  O
  O2       1.0000 0.56466  0.67447  0.85901  Biso   1.000  O
  H3       1.0000 0.56848  0.47884  0.86421  Biso   1.000  H
  H4       1.0000 0.58698  0.55469  0.83760  Biso   1.000  H
  C3       1.0000 0.57141  0.79175  0.83230  Biso   1.000  C
  C4       1.0000 0.55697  0.88292  0.81045  Biso   1.000  C
  C5       1.0000 0.59140  0.83108  0.83091  Biso   1.000  C
  S1       1.0000 0.53126  0.84339  0.80743  Biso   1.000  S
  C6       1.0000 0.56227  0.00480  0.78290  Biso   1.000  C
  S2       1.0000 0.61184  0.73141  0.85826  Biso   1.000  S
  C7       1.0000 0.59622  0.95427  0.80282  Biso   1.000  C
  C8       1.0000 0.52394  0.80056  0.88869  Biso   1.000  C
  H5       1.0000 0.55248  0.06324  0.76769  Biso   1.000  H
  C9       1.0000 0.58201  0.03983  0.77810  Biso   1.000  C
  C10      1.0000 0.60639  0.68818  0.94126  Biso   1.000  C
  H6       1.0000 0.60948  0.97909  0.80069  Biso   1.000  H
  C11      1.0000 0.51031  0.69509  0.89468  Biso   1.000  C
  C12      1.0000 0.52875  0.87601  0.94398  Biso   1.000  C
  H7       1.0000 0.58568  0.12018  0.75838  Biso   1.000  H
  C13      1.0000 0.60514  0.78715  0.98986  Biso   1.000  C
  C14      1.0000 0.60557  0.55409  0.95969  Biso   1.000  C
  H8       1.0000 0.50688  0.64375  0.85782  Biso   1.000  H
  C15      1.0000 0.50193  0.66797  0.95488  Biso   1.000  C
  O3       1.0000 0.54329  0.97268  0.93957  Biso   1.000  O
  C16      1.0000 0.51992  0.84889  0.00463  Biso   1.000  C
  O4       1.0000 0.60620  0.92054  0.97227  Biso   1.000  O
  C17      1.0000 0.60199  0.74872  0.05526  Biso   1.000  C
  H9       1.0000 0.60698  0.48824  0.92748  Biso   1.000  H
  C18      1.0000 0.60276  0.51806  0.02350  Biso   1.000  C
  H10      1.0000 0.49288  0.59832  0.95860  Biso   1.000  H
  C19      1.0000 0.50684  0.74212  0.00943  Biso   1.000  C
  C20      1.0000 0.53662  0.10627  0.92981  Biso   1.000  C
  S3       1.0000 0.52118  0.95727  0.07380  Biso   1.000  S
  C21      1.0000 0.62595  0.97328  0.97812  Biso   1.000  C
  S4       1.0000 0.60170  0.86731  0.11987  Biso   1.000  S
  C22      1.0000 0.60062  0.61463  0.07102  Biso   1.000  C
  H11      1.0000 0.60229  0.42800  0.03500  Biso   1.000  H
  H12      1.0000 0.50140  0.72090  0.05021  Biso   1.000  H
  C23      1.0000 0.55378  0.20154  0.93382  Biso   1.000  C
  H13      1.0000 0.52698  0.12899  0.96340  Biso   1.000  H
  H14      1.0000 0.53018  0.11388  0.88680  Biso   1.000  H
  C24      1.0000 0.54595  0.01171  0.08613  Biso   1.000  C
  H15      1.0000 0.63548  0.90744  0.96330  Biso   1.000  H
  H16      1.0000 0.62900  0.99500  0.02400  Biso   1.000  H
  C25      1.0000 0.62722  0.09747  0.93585  Biso   1.000  C
  C26      1.0000 0.58095  0.97188  0.10442  Biso   1.000  C
  H17      1.0000 0.59819  0.58951  0.11452  Biso   1.000  H
  N2       1.0000 0.57137  0.14570  0.94329  Biso   1.000  N
  O5       1.0000 0.55053  0.32072  0.92837  Biso   1.000  O
  C27      1.0000 0.56224  0.92475  0.08598  Biso   1.000  C
  C28      1.0000 0.54865  0.14510  0.10382  Biso   1.000  C
  O6       1.0000 0.61321  0.17432  0.92867  Biso   1.000  O
  N3       1.0000 0.64470  0.11828  0.90855  Biso   1.000  N
  C29      1.0000 0.58325  0.10607  0.12126  Biso   1.000  C
  H18      1.0000 0.58178  0.19494  0.94621  Biso   1.000  H
  H19      1.0000 0.57238  0.06024  0.94661  Biso   1.000  H
  O7       1.0000 0.56019  0.79576  0.06265  Biso   1.000  O
  H20      1.0000 0.53790  0.20314  0.10412  Biso   1.000  H
  C30      1.0000 0.56719  0.19113  0.12062  Biso   1.000  C
  H21      1.0000 0.64659  0.18833  0.88462  Biso   1.000  H
  H22      1.0000 0.65418  0.06204  0.91480  Biso   1.000  H
  H23      1.0000 0.59570  0.13860  0.13300  Biso   1.000  H
  C31      1.0000 0.55225  0.70079  0.10843  Biso   1.000  C
  H24      1.0000 0.56900  0.28070  0.13172  Biso   1.000  H
  C32      1.0000 0.54765  0.57200  0.07310  Biso   1.000  C
  H25      1.0000 0.54020  0.73642  0.12790  Biso   1.000  H
  H26      1.0000 0.56179  0.68458  0.14381  Biso   1.000  H
  O8       1.0000 0.54041  0.47984  0.10516  Biso   1.000  O
  N4       1.0000 0.55165  0.56369  0.00983  Biso   1.000  N
  H27      1.0000 0.54919  0.49084  0.98852  Biso   1.000  H
  H28      1.0000 0.55668  0.63114  0.98961  Biso   1.000  H
  N5       1.0000 0.61360  0.66807  0.30680  Biso   1.000  N
  C33      1.0000 0.63143  0.62354  0.28990  Biso   1.000  C
  H29      1.0000 0.61220  0.71160  0.34312  Biso   1.000  H
  H30      1.0000 0.60350  0.65316  0.28138  Biso   1.000  H
  C34      1.0000 0.63134  0.54968  0.22589  Biso   1.000  C
  O9       1.0000 0.64639  0.64155  0.32409  Biso   1.000  O
  O10      1.0000 0.65103  0.53087  0.20181  Biso   1.000  O
  H31      1.0000 0.62509  0.46312  0.23188  Biso   1.000  H
  H32      1.0000 0.62359  0.59922  0.19338  Biso   1.000  H
  C35      1.0000 0.65140  0.50866  0.13522  Biso   1.000  C
  C36      1.0000 0.65506  0.61503  0.09270  Biso   1.000  C
  C37      1.0000 0.64873  0.37676  0.11019  Biso   1.000  C
  S5       1.0000 0.65627  0.78155  0.12174  Biso   1.000  S
  C38      1.0000 0.65546  0.59231  0.02408  Biso   1.000  C
  C39      1.0000 0.64945  0.35775  0.04311  Biso   1.000  C
  S6       1.0000 0.64362  0.23997  0.16192  Biso   1.000  S
  C40      1.0000 0.67733  0.79025  0.17520  Biso   1.000  C
  C41      1.0000 0.65251  0.46162  0.00089  Biso   1.000  C
  H33      1.0000 0.65758  0.66246  0.99470  Biso   1.000  H
  H34      1.0000 0.64780  0.27189  0.02601  Biso   1.000  H
  C42      1.0000 0.66497  0.22886  0.21231  Biso   1.000  C
  C43      1.0000 0.69609  0.74712  0.15637  Biso   1.000  C
  C44      1.0000 0.67527  0.85400  0.23550  Biso   1.000  C
  H35      1.0000 0.65259  0.44551  0.95546  Biso   1.000  H
  C45      1.0000 0.68395  0.21945  0.18541  Biso   1.000  C
  C46      1.0000 0.66315  0.22065  0.28212  Biso   1.000  C
  C47      1.0000 0.71243  0.76804  0.19750  Biso   1.000  C
  O11      1.0000 0.69843  0.67847  0.09805  Biso   1.000  O
  H36      1.0000 0.66279  0.88212  0.24868  Biso   1.000  H
  C48      1.0000 0.69125  0.87631  0.27578  Biso   1.000  C
  C49      1.0000 0.70027  0.20514  0.22708  Biso   1.000  C
  O12      1.0000 0.68680  0.22676  0.11777  Biso   1.000  O
  H37      1.0000 0.65059  0.22676  0.30070  Biso   1.000  H
  C50      1.0000 0.67919  0.20404  0.32251  Biso   1.000  C
  S7       1.0000 0.73709  0.72981  0.17550  Biso   1.000  S
  C51      1.0000 0.70973  0.83568  0.25730  Biso   1.000  C
  C52      1.0000 0.70526  0.75963  0.04350  Biso   1.000  C
  H38      1.0000 0.68959  0.91944  0.31621  Biso   1.000  H
  S8       1.0000 0.72408  0.17592  0.19606  Biso   1.000  S
  C53      1.0000 0.69757  0.19724  0.29461  Biso   1.000  C
  C54      1.0000 0.68438  0.10187  0.08408  Biso   1.000  C
  H39      1.0000 0.67770  0.19734  0.36809  Biso   1.000  H
  C55      1.0000 0.73843  0.56219  0.14899  Biso   1.000  C
  H40      1.0000 0.72059  0.85310  0.28480  Biso   1.000  H
  H41      1.0000 0.71679  0.81097  0.05728  Biso   1.000  H
  H42      1.0000 0.69490  0.82168  0.03008  Biso   1.000  H
  C56      1.0000 0.71035  0.67277  0.98766  Biso   1.000  C
  C57      1.0000 0.73239  0.32243  0.15731  Biso   1.000  C
  H43      1.0000 0.70859  0.18693  0.32221  Biso   1.000  H
  H44      1.0000 0.67101  0.06875  0.09062  Biso   1.000  H
  H45      1.0000 0.69360  0.03693  0.10241  Biso   1.000  H
  C58      1.0000 0.68805  0.11848  0.01150  Biso   1.000  C
  C59      1.0000 0.72882  0.45052  0.17817  Biso   1.000  C
  C60      1.0000 0.75197  0.53658  0.09969  Biso   1.000  C
  O13      1.0000 0.71639  0.71510  0.93707  Biso   1.000  O
  N6       1.0000 0.70796  0.54378  0.99589  Biso   1.000  N
  C61      1.0000 0.74614  0.30281  0.10568  Biso   1.000  C
  O14      1.0000 0.68169  0.03192  0.97176  Biso   1.000  O
  N7       1.0000 0.69766  0.22306  0.99460  Biso   1.000  N
  O15      1.0000 0.71458  0.47283  0.22554  Biso   1.000  O
  C62      1.0000 0.75567  0.41089  0.07868  Biso   1.000  C
  H46      1.0000 0.75869  0.60773  0.08051  Biso   1.000  H
  H47      1.0000 0.70360  0.51346  0.03280  Biso   1.000  H
  H48      1.0000 0.71078  0.48944  0.96428  Biso   1.000  H
  H49      1.0000 0.74870  0.21705  0.09008  Biso   1.000  H
  H50      1.0000 0.70170  0.27890  0.02428  Biso   1.000  H
  H51      1.0000 0.70018  0.23747  0.95347  Biso   1.000  H
  C63      1.0000 0.72143  0.50465  0.29104  Biso   1.000  C
  H52      1.0000 0.76490  0.39728  0.04529  Biso   1.000  H
  H53      1.0000 0.73199  0.57040  0.28911  Biso   1.000  H
  H54      1.0000 0.72659  0.42490  0.31269  Biso   1.000  H
  C64      1.0000 0.70421  0.55959  0.32880  Biso   1.000  C
  N8       1.0000 0.68649  0.54468  0.30244  Biso   1.000  N
  O16      1.0000 0.70782  0.61713  0.38211  Biso   1.000  O
  H55      1.0000 0.67629  0.57610  0.32231  Biso   1.000  H
  H56      1.0000 0.68509  0.50365  0.26518  Biso   1.000  H
  N9       1.0000 0.38637  0.33203  0.69322  Biso   1.000  N
  C65      1.0000 0.36856  0.37646  0.71012  Biso   1.000  C
  H57      1.0000 0.38779  0.28840  0.65690  Biso   1.000  H
  H58      1.0000 0.39649  0.34694  0.71859  Biso   1.000  H
  C66      1.0000 0.36865  0.45032  0.77408  Biso   1.000  C
  O17      1.0000 0.35359  0.35855  0.67593  Biso   1.000  O
  O18      1.0000 0.34896  0.46913  0.79821  Biso   1.000  O
  H59      1.0000 0.37488  0.53688  0.76809  Biso   1.000  H
  H60      1.0000 0.37638  0.40078  0.80659  Biso   1.000  H
  C67      1.0000 0.34857  0.49144  0.86480  Biso   1.000  C
  C68      1.0000 0.34493  0.38497  0.90732  Biso   1.000  C
  C69      1.0000 0.35124  0.62324  0.88978  Biso   1.000  C
  S9       1.0000 0.34371  0.21845  0.87823  Biso   1.000  S
  C70      1.0000 0.34451  0.40769  0.97589  Biso   1.000  C
  S10      1.0000 0.35635  0.76003  0.83810  Biso   1.000  S
  C71      1.0000 0.35052  0.64235  0.95691  Biso   1.000  C
  C72      1.0000 0.32265  0.20985  0.82482  Biso   1.000  C
  C73      1.0000 0.34748  0.53838  0.99908  Biso   1.000  C
  H61      1.0000 0.34240  0.33764  0.00532  Biso   1.000  H
  C74      1.0000 0.33502  0.77114  0.78771  Biso   1.000  C
  H62      1.0000 0.35217  0.72811  0.97401  Biso   1.000  H
  C75      1.0000 0.30390  0.25288  0.84365  Biso   1.000  C
  C76      1.0000 0.32470  0.14600  0.76452  Biso   1.000  C
  H63      1.0000 0.34740  0.55449  0.04451  Biso   1.000  H
  C77      1.0000 0.31602  0.78065  0.81461  Biso   1.000  C
  C78      1.0000 0.33682  0.77945  0.71789  Biso   1.000  C
  C79      1.0000 0.28756  0.23196  0.80252  Biso   1.000  C
  O19      1.0000 0.30154  0.32153  0.90196  Biso   1.000  O
  C80      1.0000 0.30872  0.12369  0.72419  Biso   1.000  C
  H64      1.0000 0.33719  0.11788  0.75129  Biso   1.000  H
  C81      1.0000 0.29971  0.79496  0.77289  Biso   1.000  C
  O20      1.0000 0.31318  0.77324  0.88224  Biso   1.000  O
  C82      1.0000 0.32078  0.79606  0.67751  Biso   1.000  C
  H65      1.0000 0.34938  0.77324  0.69931  Biso   1.000  H
  S11      1.0000 0.26289  0.27029  0.82452  Biso   1.000  S
  C83      1.0000 0.29026  0.16432  0.74272  Biso   1.000  C
  C84      1.0000 0.29472  0.24037  0.95652  Biso   1.000  C
  H66      1.0000 0.31039  0.08056  0.68381  Biso   1.000  H
  S12      1.0000 0.27589  0.82418  0.80396  Biso   1.000  S
  C85      1.0000 0.30240  0.80286  0.70541  Biso   1.000  C
  C86      1.0000 0.31560  0.89813  0.91589  Biso   1.000  C
  H67      1.0000 0.32229  0.80276  0.63188  Biso   1.000  H
  C87      1.0000 0.26154  0.43781  0.85098  Biso   1.000  C
  H68      1.0000 0.27938  0.14690  0.71522  Biso   1.000  H
  H69      1.0000 0.28318  0.18913  0.94269  Biso   1.000  H
  H70      1.0000 0.30508  0.17832  0.96989  Biso   1.000  H
  C88      1.0000 0.28962  0.32723  0.01231  Biso   1.000  C
  C89      1.0000 0.26760  0.67757  0.84271  Biso   1.000  C
  H71      1.0000 0.29138  0.81317  0.67781  Biso   1.000  H
  H72      1.0000 0.32898  0.93135  0.90940  Biso   1.000  H
  H73      1.0000 0.30639  0.96317  0.89760  Biso   1.000  H
  C90      1.0000 0.31194  0.88152  0.98852  Biso   1.000  C
  C91      1.0000 0.27115  0.54948  0.82185  Biso   1.000  C
  C92      1.0000 0.24801  0.46342  0.90028  Biso   1.000  C
  O21      1.0000 0.28358  0.28490  0.06289  Biso   1.000  O
  N10      1.0000 0.29202  0.45622  0.00413  Biso   1.000  N
  C93      1.0000 0.25383  0.69719  0.89428  Biso   1.000  C
  O22      1.0000 0.31828  0.96818  0.02826  Biso   1.000  O
  N11      1.0000 0.30232  0.77704  0.00542  Biso   1.000  N
  O23      1.0000 0.28541  0.52717  0.77443  Biso   1.000  O
  C94      1.0000 0.24431  0.58911  0.92129  Biso   1.000  C
  H74      1.0000 0.24128  0.39227  0.91950  Biso   1.000  H
  H75      1.0000 0.29638  0.48664  0.96722  Biso   1.000  H
  H76      1.0000 0.28919  0.51066  0.03574  Biso   1.000  H
  H77      1.0000 0.25129  0.78305  0.90989  Biso   1.000  H
  H78      1.0000 0.29828  0.72110  0.97569  Biso   1.000  H
  H79      1.0000 0.29979  0.76253  0.04649  Biso   1.000  H
  C95      1.0000 0.27855  0.49545  0.70898  Biso   1.000  C
  H80      1.0000 0.23509  0.60272  0.95468  Biso   1.000  H
  C96      1.0000 0.29576  0.44041  0.67122  Biso   1.000  C
  H81      1.0000 0.26798  0.42960  0.71091  Biso   1.000  H
  H82      1.0000 0.27338  0.57510  0.68732  Biso   1.000  H
  O24      1.0000 0.29216  0.38287  0.61791  Biso   1.000  O
  N12      1.0000 0.31350  0.45532  0.69758  Biso   1.000  N
  H83      1.0000 0.32368  0.42390  0.67771  Biso   1.000  H
  H84      1.0000 0.31488  0.49645  0.73479  Biso   1.000  H
  C97      1.0000 0.63132  0.45032  0.72592  Biso   1.000  C
  C98      1.0000 0.63141  0.37646  0.78989  Biso   1.000  C
  O25      1.0000 0.65101  0.46913  0.70179  Biso   1.000  O
  H85      1.0000 0.62509  0.53688  0.73192  Biso   1.000  H
  H86      1.0000 0.62359  0.40078  0.69342  Biso   1.000  H
  N13      1.0000 0.61359  0.33203  0.80678  Biso   1.000  N
  O26      1.0000 0.64638  0.35855  0.82408  Biso   1.000  O
  C99      1.0000 0.65140  0.49144  0.63520  Biso   1.000  C
  H87      1.0000 0.61218  0.28840  0.84310  Biso   1.000  H
  H88      1.0000 0.60349  0.34694  0.78141  Biso   1.000  H
  C100     1.0000 0.65504  0.38497  0.59269  Biso   1.000  C
  C101     1.0000 0.64873  0.62324  0.61018  Biso   1.000  C
  S13      1.0000 0.65626  0.21845  0.62177  Biso   1.000  S
  C102     1.0000 0.65546  0.40769  0.52411  Biso   1.000  C
  C103     1.0000 0.64943  0.64235  0.54309  Biso   1.000  C
  S14      1.0000 0.64362  0.76003  0.66191  Biso   1.000  S
  C104     1.0000 0.67732  0.20985  0.67518  Biso   1.000  C
  H89      1.0000 0.65760  0.33764  0.49468  Biso   1.000  H
  C105     1.0000 0.65249  0.53838  0.50088  Biso   1.000  C
  H90      1.0000 0.64778  0.72811  0.52600  Biso   1.000  H
  C106     1.0000 0.66496  0.77114  0.71230  Biso   1.000  C
  C107     1.0000 0.69608  0.25288  0.65636  Biso   1.000  C
  C108     1.0000 0.67526  0.14600  0.73548  Biso   1.000  C
  H91      1.0000 0.65259  0.55449  0.45549  Biso   1.000  H
  C109     1.0000 0.68395  0.78065  0.68539  Biso   1.000  C
  C110     1.0000 0.66315  0.77945  0.78211  Biso   1.000  C
  C111     1.0000 0.71241  0.23196  0.69748  Biso   1.000  C
  O27      1.0000 0.69841  0.32153  0.59804  Biso   1.000  O
  H92      1.0000 0.66278  0.11788  0.74871  Biso   1.000  H
  C112     1.0000 0.69125  0.12369  0.77582  Biso   1.000  C
  C113     1.0000 0.70026  0.79496  0.72711  Biso   1.000  C
  O28      1.0000 0.68679  0.77324  0.61776  Biso   1.000  O
  H93      1.0000 0.65059  0.77324  0.80069  Biso   1.000  H
  C114     1.0000 0.67919  0.79606  0.82249  Biso   1.000  C
  S15      1.0000 0.73707  0.27029  0.67548  Biso   1.000  S
  C115     1.0000 0.70971  0.16432  0.75729  Biso   1.000  C
  C116     1.0000 0.70525  0.24037  0.54349  Biso   1.000  C
  H94      1.0000 0.68958  0.08056  0.81620  Biso   1.000  H
  S16      1.0000 0.72408  0.82418  0.69604  Biso   1.000  S
  C117     1.0000 0.69757  0.80286  0.79459  Biso   1.000  C
  C118     1.0000 0.68437  0.89813  0.58412  Biso   1.000  C
  H95      1.0000 0.67768  0.80276  0.86812  Biso   1.000  H
  C119     1.0000 0.73843  0.43781  0.64902  Biso   1.000  C
  H96      1.0000 0.72058  0.14690  0.78478  Biso   1.000  H
  C120     1.0000 0.71037  0.32723  0.48770  Biso   1.000  C
  H97      1.0000 0.71679  0.18913  0.55731  Biso   1.000  H
  H98      1.0000 0.69489  0.17832  0.53011  Biso   1.000  H
  C121     1.0000 0.73237  0.67757  0.65730  Biso   1.000  C
  H99      1.0000 0.70859  0.81317  0.82219  Biso   1.000  H
  H100     1.0000 0.67099  0.93135  0.59061  Biso   1.000  H
  H101     1.0000 0.69358  0.96317  0.60240  Biso   1.000  H
  C122     1.0000 0.68804  0.88152  0.51148  Biso   1.000  C
  C123     1.0000 0.72882  0.54948  0.67816  Biso   1.000  C
  C124     1.0000 0.75196  0.46342  0.59972  Biso   1.000  C
  O29      1.0000 0.71640  0.28490  0.43711  Biso   1.000  O
  N14      1.0000 0.70798  0.45622  0.49592  Biso   1.000  N
  C125     1.0000 0.74614  0.69719  0.60572  Biso   1.000  C
  O30      1.0000 0.68170  0.96818  0.47179  Biso   1.000  O
  N15      1.0000 0.69768  0.77704  0.49458  Biso   1.000  N
  O31      1.0000 0.71456  0.52717  0.72557  Biso   1.000  O
  C126     1.0000 0.75566  0.58911  0.57872  Biso   1.000  C
  H102     1.0000 0.75869  0.39227  0.58050  Biso   1.000  H
  H103     1.0000 0.71079  0.51066  0.46431  Biso   1.000  H
  H104     1.0000 0.70359  0.48664  0.53279  Biso   1.000  H
  H105     1.0000 0.74869  0.78305  0.59011  Biso   1.000  H
  H106     1.0000 0.70019  0.76253  0.45351  Biso   1.000  H
  H107     1.0000 0.70169  0.72110  0.52431  Biso   1.000  H
  C127     1.0000 0.72142  0.49545  0.79103  Biso   1.000  C
  H108     1.0000 0.76489  0.60272  0.54532  Biso   1.000  H
  H109     1.0000 0.73199  0.42960  0.78909  Biso   1.000  H
  H110     1.0000 0.72659  0.57510  0.81268  Biso   1.000  H
  C128     1.0000 0.70420  0.44041  0.82878  Biso   1.000  C
  N16      1.0000 0.68647  0.45532  0.80242  Biso   1.000  N
  O32      1.0000 0.70782  0.38287  0.88210  Biso   1.000  O
  H111     1.0000 0.67629  0.42390  0.82229  Biso   1.000  H
  H112     1.0000 0.68508  0.49645  0.76521  Biso   1.000  H
  C129     1.0000 0.36866  0.54968  0.27410  Biso   1.000  C
  O33      1.0000 0.34896  0.53087  0.29823  Biso   1.000  O
  H113     1.0000 0.37489  0.46312  0.26810  Biso   1.000  H
  H114     1.0000 0.37640  0.59922  0.30660  Biso   1.000  H
  C130     1.0000 0.36857  0.62354  0.21008  Biso   1.000  C
  C131     1.0000 0.34858  0.50866  0.36482  Biso   1.000  C
  N17      1.0000 0.38638  0.66807  0.19319  Biso   1.000  N
  O34      1.0000 0.35361  0.64155  0.17594  Biso   1.000  O
  C132     1.0000 0.35125  0.37676  0.38979  Biso   1.000  C
  C133     1.0000 0.34493  0.61503  0.40728  Biso   1.000  C
  H115     1.0000 0.38780  0.71160  0.15692  Biso   1.000  H
  H116     1.0000 0.39650  0.65316  0.21860  Biso   1.000  H
  S17      1.0000 0.35636  0.23997  0.33811  Biso   1.000  S
  C134     1.0000 0.35054  0.35775  0.45688  Biso   1.000  C
  S18      1.0000 0.34371  0.78155  0.37825  Biso   1.000  S
  C135     1.0000 0.34453  0.59231  0.47590  Biso   1.000  C
  C136     1.0000 0.33503  0.22886  0.28772  Biso   1.000  C
  H117     1.0000 0.35219  0.27189  0.47402  Biso   1.000  H
  C137     1.0000 0.34749  0.46162  0.49909  Biso   1.000  C
  C138     1.0000 0.32267  0.79025  0.32478  Biso   1.000  C
  H118     1.0000 0.34239  0.66246  0.50529  Biso   1.000  H
  C139     1.0000 0.31603  0.21945  0.31458  Biso   1.000  C
  C140     1.0000 0.33684  0.22065  0.21791  Biso   1.000  C
  H119     1.0000 0.34738  0.44551  0.54448  Biso   1.000  H
  C141     1.0000 0.30391  0.74712  0.34366  Biso   1.000  C
  C142     1.0000 0.32471  0.85400  0.26448  Biso   1.000  C
  C143     1.0000 0.29971  0.20514  0.27291  Biso   1.000  C
  O35      1.0000 0.31320  0.22676  0.38221  Biso   1.000  O
  C144     1.0000 0.32080  0.20404  0.17748  Biso   1.000  C
  H120     1.0000 0.34940  0.22676  0.19928  Biso   1.000  H
  C145     1.0000 0.28756  0.76804  0.30249  Biso   1.000  C
  O36      1.0000 0.30156  0.67847  0.40198  Biso   1.000  O
  C146     1.0000 0.30874  0.87631  0.22420  Biso   1.000  C
  H121     1.0000 0.33719  0.88212  0.25131  Biso   1.000  H
  S19      1.0000 0.27590  0.17592  0.30392  Biso   1.000  S
  C147     1.0000 0.30242  0.19724  0.20542  Biso   1.000  C
  C148     1.0000 0.31562  0.10187  0.41590  Biso   1.000  C
  H122     1.0000 0.32230  0.19734  0.13190  Biso   1.000  H
  S20      1.0000 0.26290  0.72981  0.32449  Biso   1.000  S
  C149     1.0000 0.29026  0.83568  0.24268  Biso   1.000  C
  C150     1.0000 0.29472  0.75963  0.45648  Biso   1.000  C
  H123     1.0000 0.31039  0.91944  0.18382  Biso   1.000  H
  C151     1.0000 0.26760  0.32243  0.34272  Biso   1.000  C
  H124     1.0000 0.29140  0.18693  0.17778  Biso   1.000  H
  H125     1.0000 0.32899  0.06875  0.40941  Biso   1.000  H
  H126     1.0000 0.30639  0.03693  0.39762  Biso   1.000  H
  C152     1.0000 0.31194  0.11848  0.48849  Biso   1.000  C
  C153     1.0000 0.26155  0.56219  0.35100  Biso   1.000  C
  H127     1.0000 0.27939  0.85310  0.21519  Biso   1.000  H
  C154     1.0000 0.28962  0.67277  0.51232  Biso   1.000  C
  H128     1.0000 0.28319  0.81097  0.44271  Biso   1.000  H
  H129     1.0000 0.30510  0.82168  0.46991  Biso   1.000  H
  C155     1.0000 0.27117  0.45052  0.32181  Biso   1.000  C
  C156     1.0000 0.25384  0.30281  0.39430  Biso   1.000  C
  O37      1.0000 0.31828  0.03192  0.52823  Biso   1.000  O
  N18      1.0000 0.30231  0.22306  0.50539  Biso   1.000  N
  C157     1.0000 0.24803  0.53658  0.40029  Biso   1.000  C
  O38      1.0000 0.28358  0.71510  0.56291  Biso   1.000  O
  N19      1.0000 0.29201  0.54378  0.50410  Biso   1.000  N
  O39      1.0000 0.28541  0.47283  0.27444  Biso   1.000  O
  H130     1.0000 0.25128  0.21705  0.40991  Biso   1.000  H
  C158     1.0000 0.24433  0.41089  0.42130  Biso   1.000  C
  H131     1.0000 0.29979  0.23747  0.54651  Biso   1.000  H
  H132     1.0000 0.29830  0.27890  0.47571  Biso   1.000  H
  H133     1.0000 0.24129  0.60773  0.41952  Biso   1.000  H
  H134     1.0000 0.28919  0.48944  0.53571  Biso   1.000  H
  H135     1.0000 0.29640  0.51346  0.46718  Biso   1.000  H
  C159     1.0000 0.27857  0.50465  0.20899  Biso   1.000  C
  H136     1.0000 0.23509  0.39728  0.45470  Biso   1.000  H
  H137     1.0000 0.26800  0.57040  0.21092  Biso   1.000  H
  H138     1.0000 0.27340  0.42490  0.18729  Biso   1.000  H
  C160     1.0000 0.29577  0.55959  0.17119  Biso   1.000  C
  N20      1.0000 0.31350  0.54468  0.19760  Biso   1.000  N
  O40      1.0000 0.29217  0.61713  0.11792  Biso   1.000  O
  H139     1.0000 0.32370  0.57610  0.17768  Biso   1.000  H
  H140     1.0000 0.31489  0.50365  0.23481  Biso   1.000  H
  C161     1.0000 0.74432  0.91094  0.42130  Biso   1.000  C
  C162     1.0000 0.75384  0.80286  0.39430  Biso   1.000  C
  H141     1.0000 0.73509  0.89733  0.45470  Biso   1.000  H
  C163     1.0000 0.74802  0.03663  0.40029  Biso   1.000  C
  C164     1.0000 0.76761  0.82238  0.34272  Biso   1.000  C
  H142     1.0000 0.75129  0.71700  0.40991  Biso   1.000  H
  C165     1.0000 0.76156  0.06224  0.35100  Biso   1.000  C
  H143     1.0000 0.74130  0.10768  0.41952  Biso   1.000  H
  S21      1.0000 0.77589  0.67587  0.30392  Biso   1.000  S
  C166     1.0000 0.77116  0.95057  0.32181  Biso   1.000  C
  S22      1.0000 0.76291  0.22976  0.32449  Biso   1.000  S
  C167     1.0000 0.79972  0.70509  0.27291  Biso   1.000  C
  O41      1.0000 0.78542  0.97278  0.27444  Biso   1.000  O
  C168     1.0000 0.78757  0.26799  0.30249  Biso   1.000  C
  C169     1.0000 0.81603  0.71940  0.31458  Biso   1.000  C
  C170     1.0000 0.80242  0.69719  0.20542  Biso   1.000  C
  C171     1.0000 0.77856  0.00460  0.20899  Biso   1.000  C
  C172     1.0000 0.80390  0.24707  0.34366  Biso   1.000  C
  C173     1.0000 0.79027  0.33574  0.24268  Biso   1.000  C
  C174     1.0000 0.83502  0.72891  0.28772  Biso   1.000  C
  O42      1.0000 0.81319  0.72681  0.38221  Biso   1.000  O
  H144     1.0000 0.79139  0.68688  0.17778  Biso   1.000  H
  C175     1.0000 0.82079  0.70399  0.17748  Biso   1.000  C
  H145     1.0000 0.77339  0.92495  0.18729  Biso   1.000  H
  H146     1.0000 0.76799  0.07045  0.21092  Biso   1.000  H
  C176     1.0000 0.79578  0.05964  0.17119  Biso   1.000  C
  C177     1.0000 0.82266  0.29020  0.32478  Biso   1.000  C
  O43      1.0000 0.80157  0.17852  0.40198  Biso   1.000  O
  H147     1.0000 0.77940  0.35315  0.21519  Biso   1.000  H
  C178     1.0000 0.80873  0.37626  0.22420  Biso   1.000  C
  S23      1.0000 0.85635  0.74002  0.33811  Biso   1.000  S
  C179     1.0000 0.83683  0.72060  0.21791  Biso   1.000  C
  C180     1.0000 0.81561  0.60192  0.41590  Biso   1.000  C
  H148     1.0000 0.82229  0.69729  0.13190  Biso   1.000  H
  N21      1.0000 0.81351  0.04473  0.19760  Biso   1.000  N
  O44      1.0000 0.79216  0.11708  0.11792  Biso   1.000  O
  S24      1.0000 0.84372  0.28150  0.37825  Biso   1.000  S
  C181     1.0000 0.82472  0.35405  0.26448  Biso   1.000  C
  C182     1.0000 0.79473  0.25958  0.45648  Biso   1.000  C
  H149     1.0000 0.81040  0.41939  0.18382  Biso   1.000  H
  C183     1.0000 0.85125  0.87681  0.38979  Biso   1.000  C
  H150     1.0000 0.84939  0.72681  0.19928  Biso   1.000  H
  H151     1.0000 0.82899  0.56870  0.40941  Biso   1.000  H
  H152     1.0000 0.80639  0.53688  0.39762  Biso   1.000  H
  C184     1.0000 0.81194  0.61853  0.48849  Biso   1.000  C
  H153     1.0000 0.82370  0.07605  0.17768  Biso   1.000  H
  H154     1.0000 0.81490  0.00360  0.23481  Biso   1.000  H
  C185     1.0000 0.84494  0.11498  0.40728  Biso   1.000  C
  H155     1.0000 0.83720  0.38207  0.25131  Biso   1.000  H
  C186     1.0000 0.78961  0.17282  0.51232  Biso   1.000  C
  H156     1.0000 0.78318  0.31092  0.44271  Biso   1.000  H
  H157     1.0000 0.80509  0.32173  0.46991  Biso   1.000  H
  C187     1.0000 0.85055  0.85770  0.45688  Biso   1.000  C
  C188     1.0000 0.84859  0.00861  0.36482  Biso   1.000  C
  O45      1.0000 0.81828  0.53187  0.52823  Biso   1.000  O
  N22      1.0000 0.80232  0.72301  0.50539  Biso   1.000  N
  C189     1.0000 0.84454  0.09226  0.47590  Biso   1.000  C
  O46      1.0000 0.78358  0.21515  0.56291  Biso   1.000  O
  N23      1.0000 0.79202  0.04383  0.50410  Biso   1.000  N
  H158     1.0000 0.85220  0.77194  0.47402  Biso   1.000  H
  C190     1.0000 0.84749  0.96167  0.49909  Biso   1.000  C
  O47      1.0000 0.84897  0.03092  0.29823  Biso   1.000  O
  H159     1.0000 0.79979  0.73752  0.54651  Biso   1.000  H
  H160     1.0000 0.79829  0.77895  0.47571  Biso   1.000  H
  H161     1.0000 0.84238  0.16241  0.50529  Biso   1.000  H
  H162     1.0000 0.78919  0.98939  0.53571  Biso   1.000  H
  H163     1.0000 0.79639  0.01341  0.46718  Biso   1.000  H
  H164     1.0000 0.84739  0.94556  0.54448  Biso   1.000  H
  C191     1.0000 0.86865  0.04973  0.27410  Biso   1.000  C
  H165     1.0000 0.87489  0.96317  0.26810  Biso   1.000  H
  H166     1.0000 0.87639  0.09917  0.30660  Biso   1.000  H
  C192     1.0000 0.86856  0.12349  0.21008  Biso   1.000  C
  N24      1.0000 0.88639  0.16802  0.19319  Biso   1.000  N
  O48      1.0000 0.85360  0.14150  0.17594  Biso   1.000  O
  H167     1.0000 0.88779  0.21165  0.15692  Biso   1.000  H
  H168     1.0000 0.89649  0.15311  0.21860  Biso   1.000  H
  C193     1.0000 0.25567  0.08906  0.57872  Biso   1.000  C
  C194     1.0000 0.24613  0.19724  0.60572  Biso   1.000  C
  C195     1.0000 0.25195  0.96347  0.59972  Biso   1.000  C
  H169     1.0000 0.26489  0.10267  0.54532  Biso   1.000  H
  C196     1.0000 0.23238  0.17762  0.65730  Biso   1.000  C
  H170     1.0000 0.24869  0.28300  0.59011  Biso   1.000  H
  C197     1.0000 0.23843  0.93786  0.64902  Biso   1.000  C
  H171     1.0000 0.25869  0.89232  0.58050  Biso   1.000  H
  S25      1.0000 0.22408  0.32413  0.69604  Biso   1.000  S
  C198     1.0000 0.22881  0.04953  0.67816  Biso   1.000  C
  S26      1.0000 0.23708  0.77024  0.67548  Biso   1.000  S
  C199     1.0000 0.20027  0.29491  0.72711  Biso   1.000  C
  O49      1.0000 0.21457  0.02722  0.72557  Biso   1.000  O
  C200     1.0000 0.21242  0.73201  0.69748  Biso   1.000  C
  C201     1.0000 0.18394  0.28060  0.68539  Biso   1.000  C
  C202     1.0000 0.19756  0.30281  0.79459  Biso   1.000  C
  C203     1.0000 0.22141  0.99540  0.79103  Biso   1.000  C
  C204     1.0000 0.19608  0.75293  0.65636  Biso   1.000  C
  C205     1.0000 0.20972  0.66437  0.75729  Biso   1.000  C
  O50      1.0000 0.18678  0.27319  0.61776  Biso   1.000  O
  C206     1.0000 0.16496  0.27109  0.71230  Biso   1.000  C
  H172     1.0000 0.20858  0.31312  0.82219  Biso   1.000  H
  C207     1.0000 0.17918  0.29601  0.82249  Biso   1.000  C
  H173     1.0000 0.22658  0.07505  0.81268  Biso   1.000  H
  H174     1.0000 0.23198  0.92965  0.78909  Biso   1.000  H
  C208     1.0000 0.20420  0.94046  0.82878  Biso   1.000  C
  C209     1.0000 0.17731  0.70980  0.67518  Biso   1.000  C
  O51      1.0000 0.19842  0.82148  0.59804  Biso   1.000  O
  H175     1.0000 0.22058  0.64695  0.78478  Biso   1.000  H
  C210     1.0000 0.19124  0.62374  0.77582  Biso   1.000  C
  C211     1.0000 0.18436  0.39808  0.58412  Biso   1.000  C
  S27      1.0000 0.14362  0.26008  0.66191  Biso   1.000  S
  C212     1.0000 0.16314  0.27940  0.78211  Biso   1.000  C
  H176     1.0000 0.17768  0.30271  0.86812  Biso   1.000  H
  N25      1.0000 0.18648  0.95537  0.80242  Biso   1.000  N
  O52      1.0000 0.20781  0.88292  0.88210  Biso   1.000  O
  S28      1.0000 0.15627  0.71850  0.62177  Biso   1.000  S
  C213     1.0000 0.17526  0.64605  0.73548  Biso   1.000  C
  C214     1.0000 0.20525  0.74042  0.54349  Biso   1.000  C
  H177     1.0000 0.18959  0.58061  0.81620  Biso   1.000  H
  C215     1.0000 0.18804  0.38147  0.51148  Biso   1.000  C
  H178     1.0000 0.17098  0.43130  0.59061  Biso   1.000  H
  H179     1.0000 0.19359  0.46312  0.60240  Biso   1.000  H
  C216     1.0000 0.14872  0.12319  0.61018  Biso   1.000  C
  H180     1.0000 0.15058  0.27319  0.80069  Biso   1.000  H
  H181     1.0000 0.17628  0.92395  0.82229  Biso   1.000  H
  H182     1.0000 0.18508  0.99640  0.76521  Biso   1.000  H
  C217     1.0000 0.15505  0.88502  0.59269  Biso   1.000  C
  H183     1.0000 0.16279  0.61793  0.74871  Biso   1.000  H
  C218     1.0000 0.21038  0.82718  0.48770  Biso   1.000  C
  H184     1.0000 0.21679  0.68908  0.55731  Biso   1.000  H
  H185     1.0000 0.19488  0.67827  0.53011  Biso   1.000  H
  N26      1.0000 0.19767  0.27699  0.49458  Biso   1.000  N
  O53      1.0000 0.18169  0.46813  0.47179  Biso   1.000  O
  C219     1.0000 0.14944  0.14230  0.54309  Biso   1.000  C
  C220     1.0000 0.15140  0.99139  0.63520  Biso   1.000  C
  C221     1.0000 0.15545  0.90774  0.52411  Biso   1.000  C
  O54      1.0000 0.21639  0.78495  0.43711  Biso   1.000  O
  N27      1.0000 0.20797  0.95627  0.49592  Biso   1.000  N
  H186     1.0000 0.20018  0.26248  0.45351  Biso   1.000  H
  H187     1.0000 0.20170  0.22115  0.52431  Biso   1.000  H
  H188     1.0000 0.14779  0.22806  0.52600  Biso   1.000  H
  C222     1.0000 0.15248  0.03843  0.50088  Biso   1.000  C
  O55      1.0000 0.15102  0.96918  0.70179  Biso   1.000  O
  H189     1.0000 0.15759  0.83759  0.49468  Biso   1.000  H
  H190     1.0000 0.21079  0.01061  0.46431  Biso   1.000  H
  H191     1.0000 0.20358  0.98659  0.53279  Biso   1.000  H
  H192     1.0000 0.15259  0.05454  0.45549  Biso   1.000  H
  C223     1.0000 0.13133  0.95037  0.72592  Biso   1.000  C
  H193     1.0000 0.12508  0.03693  0.73192  Biso   1.000  H
  H194     1.0000 0.12358  0.90083  0.69342  Biso   1.000  H
  C224     1.0000 0.13141  0.87651  0.78989  Biso   1.000  C
  N28      1.0000 0.11359  0.83198  0.80678  Biso   1.000  N
  O56      1.0000 0.14637  0.85850  0.82408  Biso   1.000  O
  H195     1.0000 0.11218  0.78845  0.84310  Biso   1.000  H
  H196     1.0000 0.10348  0.84689  0.78141  Biso   1.000  H
  C225     1.0000 0.74431  0.08906  0.92129  Biso   1.000  C
  C226     1.0000 0.75384  0.19724  0.89428  Biso   1.000  C
  H197     1.0000 0.73508  0.10267  0.95468  Biso   1.000  H
  C227     1.0000 0.74801  0.96347  0.90028  Biso   1.000  C
  C228     1.0000 0.76759  0.17762  0.84271  Biso   1.000  C
  H198     1.0000 0.75128  0.28300  0.90989  Biso   1.000  H
  C229     1.0000 0.76154  0.93786  0.85098  Biso   1.000  C
  H199     1.0000 0.74128  0.89232  0.91950  Biso   1.000  H
  S29      1.0000 0.77589  0.32413  0.80396  Biso   1.000  S
  C230     1.0000 0.77116  0.04953  0.82185  Biso   1.000  C
  S30      1.0000 0.76289  0.77024  0.82452  Biso   1.000  S
  C231     1.0000 0.79970  0.29491  0.77289  Biso   1.000  C
  O57      1.0000 0.78540  0.02722  0.77443  Biso   1.000  O
  C232     1.0000 0.78755  0.73201  0.80252  Biso   1.000  C
  C233     1.0000 0.81603  0.28060  0.81461  Biso   1.000  C
  C234     1.0000 0.80241  0.30281  0.70541  Biso   1.000  C
  C235     1.0000 0.77856  0.99540  0.70898  Biso   1.000  C
  C236     1.0000 0.80389  0.75293  0.84365  Biso   1.000  C
  C237     1.0000 0.79025  0.66437  0.74272  Biso   1.000  C
  C238     1.0000 0.83501  0.27109  0.78771  Biso   1.000  C
  O58      1.0000 0.81317  0.27319  0.88224  Biso   1.000  O
  H200     1.0000 0.79139  0.31312  0.67781  Biso   1.000  H
  C239     1.0000 0.82079  0.29601  0.67751  Biso   1.000  C
  H201     1.0000 0.77339  0.07505  0.68732  Biso   1.000  H
  H202     1.0000 0.76799  0.92965  0.71091  Biso   1.000  H
  C240     1.0000 0.79577  0.94046  0.67122  Biso   1.000  C
  C241     1.0000 0.82266  0.70980  0.82482  Biso   1.000  C
  O59      1.0000 0.80155  0.82148  0.90196  Biso   1.000  O
  H203     1.0000 0.77939  0.64695  0.71522  Biso   1.000  H
  C242     1.0000 0.80873  0.62374  0.72419  Biso   1.000  C
  S31      1.0000 0.85635  0.26008  0.83810  Biso   1.000  S
  C243     1.0000 0.83683  0.27940  0.71789  Biso   1.000  C
  C244     1.0000 0.81560  0.39808  0.91589  Biso   1.000  C
  H204     1.0000 0.82228  0.30271  0.63188  Biso   1.000  H
  N29      1.0000 0.81349  0.95537  0.69758  Biso   1.000  N
  O60      1.0000 0.79216  0.88292  0.61791  Biso   1.000  O
  S32      1.0000 0.84370  0.71850  0.87823  Biso   1.000  S
  C245     1.0000 0.82471  0.64605  0.76452  Biso   1.000  C
  C246     1.0000 0.79472  0.74042  0.95652  Biso   1.000  C
  H205     1.0000 0.81038  0.58061  0.68381  Biso   1.000  H
  C247     1.0000 0.85125  0.12319  0.88978  Biso   1.000  C
  H206     1.0000 0.84939  0.27319  0.69931  Biso   1.000  H
  H207     1.0000 0.82899  0.43130  0.90940  Biso   1.000  H
  H208     1.0000 0.80638  0.46312  0.89760  Biso   1.000  H
  C248     1.0000 0.81193  0.38147  0.98852  Biso   1.000  C
  H209     1.0000 0.82369  0.92395  0.67771  Biso   1.000  H
  H210     1.0000 0.81489  0.99640  0.73479  Biso   1.000  H
  C249     1.0000 0.84492  0.88502  0.90732  Biso   1.000  C
  H211     1.0000 0.83718  0.61793  0.75129  Biso   1.000  H
  H212     1.0000 0.78318  0.68908  0.94269  Biso   1.000  H
  H213     1.0000 0.80507  0.67827  0.96989  Biso   1.000  H
  C250     1.0000 0.78962  0.82718  0.01231  Biso   1.000  C
  C251     1.0000 0.85053  0.14230  0.95691  Biso   1.000  C
  C252     1.0000 0.84857  0.99139  0.86480  Biso   1.000  C
  O61      1.0000 0.81829  0.46813  0.02826  Biso   1.000  O
  N30      1.0000 0.80232  0.27699  0.00542  Biso   1.000  N
  C253     1.0000 0.84452  0.90774  0.97589  Biso   1.000  C
  O62      1.0000 0.78359  0.78495  0.06289  Biso   1.000  O
  N31      1.0000 0.79202  0.95627  0.00413  Biso   1.000  N
  H214     1.0000 0.85218  0.22806  0.97401  Biso   1.000  H
  C254     1.0000 0.84749  0.03843  0.99908  Biso   1.000  C
  O63      1.0000 0.84895  0.96918  0.79821  Biso   1.000  O
  H215     1.0000 0.79827  0.22115  0.97569  Biso   1.000  H
  H216     1.0000 0.79980  0.26248  0.04649  Biso   1.000  H
  H217     1.0000 0.84240  0.83759  0.00532  Biso   1.000  H
  H218     1.0000 0.79637  0.98659  0.96722  Biso   1.000  H
  H219     1.0000 0.78920  0.01061  0.03574  Biso   1.000  H
  H220     1.0000 0.84739  0.05454  0.04451  Biso   1.000  H
  C255     1.0000 0.86864  0.95037  0.77408  Biso   1.000  C
  H221     1.0000 0.87489  0.03693  0.76809  Biso   1.000  H
  H222     1.0000 0.87639  0.90083  0.80659  Biso   1.000  H
  C256     1.0000 0.86855  0.87651  0.71012  Biso   1.000  C
  N32      1.0000 0.88638  0.83198  0.69322  Biso   1.000  N
  O64      1.0000 0.85360  0.85850  0.67593  Biso   1.000  O
  H223     1.0000 0.88779  0.78845  0.65690  Biso   1.000  H
  H224     1.0000 0.89648  0.84689  0.71859  Biso   1.000  H
  C257     1.0000 0.25566  0.91094  0.07868  Biso   1.000  C
  C258     1.0000 0.24615  0.80286  0.10568  Biso   1.000  C
  C259     1.0000 0.25197  0.03663  0.09969  Biso   1.000  C
  H225     1.0000 0.26489  0.89733  0.04529  Biso   1.000  H
  C260     1.0000 0.23239  0.82238  0.15731  Biso   1.000  C
  H226     1.0000 0.24869  0.71700  0.09008  Biso   1.000  H
  C261     1.0000 0.23844  0.06224  0.14899  Biso   1.000  C
  H227     1.0000 0.25870  0.10768  0.08051  Biso   1.000  H
  S33      1.0000 0.22409  0.67587  0.19606  Biso   1.000  S
  C262     1.0000 0.22883  0.95057  0.17817  Biso   1.000  C
  S34      1.0000 0.23709  0.22976  0.17550  Biso   1.000  S
  C263     1.0000 0.20028  0.70509  0.22708  Biso   1.000  C
  O65      1.0000 0.21457  0.97278  0.22554  Biso   1.000  O
  C264     1.0000 0.21242  0.26799  0.19750  Biso   1.000  C
  C265     1.0000 0.18396  0.71940  0.18541  Biso   1.000  C
  C266     1.0000 0.19758  0.69719  0.29461  Biso   1.000  C
  C267     1.0000 0.22142  0.00460  0.29104  Biso   1.000  C
  C268     1.0000 0.19608  0.24707  0.15637  Biso   1.000  C
  C269     1.0000 0.20972  0.33574  0.25730  Biso   1.000  C
  C270     1.0000 0.16496  0.72891  0.21231  Biso   1.000  C
  O66      1.0000 0.18680  0.72681  0.11777  Biso   1.000  O
  H228     1.0000 0.20859  0.68688  0.32221  Biso   1.000  H
  C271     1.0000 0.17919  0.70399  0.32251  Biso   1.000  C
  H229     1.0000 0.22660  0.92495  0.31269  Biso   1.000  H
  H230     1.0000 0.23199  0.07045  0.28911  Biso   1.000  H
  C272     1.0000 0.20422  0.05964  0.32880  Biso   1.000  C
  C273     1.0000 0.17733  0.29020  0.17520  Biso   1.000  C
  O67      1.0000 0.19843  0.17852  0.09805  Biso   1.000  O
  H231     1.0000 0.22060  0.35315  0.28480  Biso   1.000  H
  C274     1.0000 0.19126  0.37626  0.27578  Biso   1.000  C
  S35      1.0000 0.14363  0.74002  0.16192  Biso   1.000  S
  C275     1.0000 0.16316  0.72060  0.28212  Biso   1.000  C
  C276     1.0000 0.18438  0.60192  0.08408  Biso   1.000  C
  H232     1.0000 0.17769  0.69729  0.36809  Biso   1.000  H
  N33      1.0000 0.18648  0.04473  0.30244  Biso   1.000  N
  O68      1.0000 0.20782  0.11708  0.38211  Biso   1.000  O
  S36      1.0000 0.15627  0.28150  0.12174  Biso   1.000  S
  C277     1.0000 0.17528  0.35405  0.23550  Biso   1.000  C
  C278     1.0000 0.20525  0.25958  0.04350  Biso   1.000  C
  H233     1.0000 0.18959  0.41939  0.31621  Biso   1.000  H
  C279     1.0000 0.14874  0.87681  0.11019  Biso   1.000  C
  H234     1.0000 0.15059  0.72681  0.30070  Biso   1.000  H
  H235     1.0000 0.17100  0.56870  0.09062  Biso   1.000  H
  H236     1.0000 0.19359  0.53688  0.10241  Biso   1.000  H
  C280     1.0000 0.18804  0.61853  0.01150  Biso   1.000  C
  H237     1.0000 0.17630  0.07605  0.32231  Biso   1.000  H
  H238     1.0000 0.18510  0.00360  0.26518  Biso   1.000  H
  C281     1.0000 0.15506  0.11498  0.09270  Biso   1.000  C
  H239     1.0000 0.16280  0.38207  0.24868  Biso   1.000  H
  C282     1.0000 0.21036  0.17282  0.98766  Biso   1.000  C
  H240     1.0000 0.21680  0.31092  0.05728  Biso   1.000  H
  H241     1.0000 0.19490  0.32173  0.03008  Biso   1.000  H
  C283     1.0000 0.14945  0.85770  0.04311  Biso   1.000  C
  C284     1.0000 0.15141  0.00861  0.13522  Biso   1.000  C
  O69      1.0000 0.18169  0.53187  0.97176  Biso   1.000  O
  N34      1.0000 0.19765  0.72301  0.99460  Biso   1.000  N
  C285     1.0000 0.15546  0.09226  0.02408  Biso   1.000  C
  O70      1.0000 0.21639  0.21515  0.93707  Biso   1.000  O
  N35      1.0000 0.20795  0.04383  0.99589  Biso   1.000  N
  H242     1.0000 0.14780  0.77194  0.02601  Biso   1.000  H
  C286     1.0000 0.15250  0.96167  0.00089  Biso   1.000  C
  O71      1.0000 0.15102  0.03092  0.20181  Biso   1.000  O
  H243     1.0000 0.20170  0.77895  0.02428  Biso   1.000  H
  H244     1.0000 0.20018  0.73752  0.95347  Biso   1.000  H
  H245     1.0000 0.15757  0.16241  0.99470  Biso   1.000  H
  H246     1.0000 0.21078  0.98939  0.96428  Biso   1.000  H
  H247     1.0000 0.20360  0.01341  0.03280  Biso   1.000  H
  H248     1.0000 0.15258  0.94556  0.95546  Biso   1.000  H
  C287     1.0000 0.13133  0.04973  0.22589  Biso   1.000  C
  H249     1.0000 0.12510  0.96317  0.23188  Biso   1.000  H
  H250     1.0000 0.12360  0.09917  0.19338  Biso   1.000  H
  C288     1.0000 0.13142  0.12349  0.28990  Biso   1.000  C
  N36      1.0000 0.11361  0.16802  0.30680  Biso   1.000  N
  O72      1.0000 0.14638  0.14150  0.32409  Biso   1.000  O
  H251     1.0000 0.11219  0.21165  0.34312  Biso   1.000  H
  H252     1.0000 0.10349  0.15311  0.28138  Biso   1.000  H
  N37      1.0000 0.14470  0.61833  0.90855  Biso   1.000  N
  C289     1.0000 0.12721  0.59752  0.93585  Biso   1.000  C
  H253     1.0000 0.14658  0.68828  0.88462  Biso   1.000  H
  H254     1.0000 0.15417  0.56199  0.91480  Biso   1.000  H
  C290     1.0000 0.12595  0.47333  0.97812  Biso   1.000  C
  O73      1.0000 0.11321  0.67427  0.92867  Biso   1.000  O
  O74      1.0000 0.10620  0.42049  0.97227  Biso   1.000  O
  H255     1.0000 0.13548  0.40739  0.96330  Biso   1.000  H
  H256     1.0000 0.12900  0.49505  0.02400  Biso   1.000  H
  C291     1.0000 0.10515  0.28710  0.98986  Biso   1.000  C
  C292     1.0000 0.10640  0.18823  0.94126  Biso   1.000  C
  C293     1.0000 0.10200  0.24867  0.05526  Biso   1.000  C
  S37      1.0000 0.11184  0.23146  0.85826  Biso   1.000  S
  C294     1.0000 0.10557  0.05414  0.95969  Biso   1.000  C
  S38      1.0000 0.10169  0.36726  0.11987  Biso   1.000  S
  C295     1.0000 0.10063  0.11458  0.07102  Biso   1.000  C
  C296     1.0000 0.09140  0.33113  0.83091  Biso   1.000  C
  H257     1.0000 0.10698  0.98819  0.92748  Biso   1.000  H
  C297     1.0000 0.10277  0.01801  0.02350  Biso   1.000  C
  C298     1.0000 0.08096  0.47193  0.10442  Biso   1.000  C
  H258     1.0000 0.09820  0.08946  0.11452  Biso   1.000  H
  C299     1.0000 0.07142  0.29170  0.83230  Biso   1.000  C
  C300     1.0000 0.09623  0.45422  0.80282  Biso   1.000  C
  H259     1.0000 0.10230  0.92805  0.03500  Biso   1.000  H
  C301     1.0000 0.06225  0.42470  0.08598  Biso   1.000  C
  C302     1.0000 0.08325  0.60612  0.12126  Biso   1.000  C
  C303     1.0000 0.05698  0.38287  0.81045  Biso   1.000  C
  O75      1.0000 0.06465  0.17452  0.85901  Biso   1.000  O
  H260     1.0000 0.10949  0.47914  0.80069  Biso   1.000  H
  C304     1.0000 0.08200  0.53978  0.77810  Biso   1.000  C
  C305     1.0000 0.04595  0.51176  0.08613  Biso   1.000  C
  O76      1.0000 0.06018  0.29571  0.06265  Biso   1.000  O
  H261     1.0000 0.09569  0.63865  0.13300  Biso   1.000  H
  C306     1.0000 0.06720  0.69108  0.12062  Biso   1.000  C
  S39      1.0000 0.03125  0.34334  0.80743  Biso   1.000  S
  C307     1.0000 0.06226  0.50485  0.78290  Biso   1.000  C
  C308     1.0000 0.07263  0.04983  0.83473  Biso   1.000  C
  H262     1.0000 0.08569  0.62023  0.75838  Biso   1.000  H
  S40      1.0000 0.02119  0.45722  0.07380  Biso   1.000  S
  C309     1.0000 0.04865  0.64515  0.10382  Biso   1.000  C
  C310     1.0000 0.05224  0.20084  0.10843  Biso   1.000  C
  H263     1.0000 0.06899  0.78075  0.13172  Biso   1.000  H
  C311     1.0000 0.02394  0.30051  0.88869  Biso   1.000  C
  H264     1.0000 0.05249  0.56319  0.76769  Biso   1.000  H
  H265     1.0000 0.08698  0.05474  0.83760  Biso   1.000  H
  C312     1.0000 0.06704  0.01121  0.76581  Biso   1.000  C
  H266     1.0000 0.06849  0.97879  0.86421  Biso   1.000  H
  C313     1.0000 0.01992  0.34894  0.00463  Biso   1.000  C
  H267     1.0000 0.03789  0.70309  0.10412  Biso   1.000  H
  C314     1.0000 0.04765  0.07205  0.07310  Biso   1.000  C
  H268     1.0000 0.04020  0.23637  0.12790  Biso   1.000  H
  H269     1.0000 0.06180  0.18463  0.14381  Biso   1.000  H
  C315     1.0000 0.02874  0.37596  0.94398  Biso   1.000  C
  C316     1.0000 0.01030  0.19514  0.89468  Biso   1.000  C
  N38      1.0000 0.05077  0.06435  0.73945  Biso   1.000  N
  O77      1.0000 0.07755  0.92985  0.73712  Biso   1.000  O
  C317     1.0000 0.00685  0.24207  0.00943  Biso   1.000  C
  O78      1.0000 0.04041  0.97979  0.10516  Biso   1.000  O
  N39      1.0000 0.05164  0.06374  0.00983  Biso   1.000  N
  O79      1.0000 0.04329  0.47273  0.93957  Biso   1.000  O
  H270     1.0000 0.00689  0.14370  0.85782  Biso   1.000  H
  C318     1.0000 0.00194  0.16792  0.95488  Biso   1.000  C
  H271     1.0000 0.04708  0.04223  0.70001  Biso   1.000  H
  H272     1.0000 0.04388  0.12088  0.76169  Biso   1.000  H
  H273     1.0000 0.00139  0.22095  0.05021  Biso   1.000  H
  H274     1.0000 0.05668  0.13109  0.98961  Biso   1.000  H
  H275     1.0000 0.04918  0.99079  0.98852  Biso   1.000  H
  C319     1.0000 0.03663  0.60632  0.92981  Biso   1.000  C
  H276     1.0000 0.99287  0.09827  0.95860  Biso   1.000  H
  C320     1.0000 0.05378  0.70149  0.93382  Biso   1.000  C
  H277     1.0000 0.02698  0.62904  0.96340  Biso   1.000  H
  H278     1.0000 0.03018  0.61393  0.88680  Biso   1.000  H
  N40      1.0000 0.07138  0.64575  0.94329  Biso   1.000  N
  O80      1.0000 0.05054  0.82077  0.92837  Biso   1.000  O
  H279     1.0000 0.08179  0.69489  0.94621  Biso   1.000  H
  H280     1.0000 0.07238  0.56019  0.94661  Biso   1.000  H
