data_image0
_cell_length_a       16.763
_cell_length_b       39.135
_cell_length_c       24.128
_cell_angle_alpha    90
_cell_angle_beta     131.4
_cell_angle_gamma    90

_symmetry_space_group_name_H-M    "P 1"
_symmetry_int_tables_number       1

loop_
  _symmetry_equiv_pos_as_xyz
  'x, y, z'

loop_
  _atom_site_label
  _atom_site_occupancy
  _atom_site_fract_x
  _atom_site_fract_y
  _atom_site_fract_z
  _atom_site_thermal_displace_type
  _atom_site_B_iso_or_equiv
  _atom_site_type_symbol
  N1       1.0000 0.61778  0.55439  0.54197  Biso   1.000  N
  C1       1.0000 0.68119  0.57330  0.53871  Biso   1.000  C
  C2       1.0000 0.54670  0.57059  0.54032  Biso   1.000  C
  C3       1.0000 0.67568  0.60879  0.53280  Biso   1.000  C
  H1       1.0000 0.73168  0.56200  0.54037  Biso   1.000  H
  C4       1.0000 0.53360  0.60598  0.53501  Biso   1.000  C
  H2       1.0000 0.50289  0.55751  0.54280  Biso   1.000  H
  C5       1.0000 0.59915  0.62530  0.53087  Biso   1.000  C
  C6       1.0000 0.75010  0.62619  0.52888  Biso   1.000  C
  C7       1.0000 0.44761  0.62080  0.53192  Biso   1.000  C
  C8       1.0000 0.59097  0.66304  0.52678  Biso   1.000  C
  H3       1.0000 0.73842  0.65039  0.52501  Biso   1.000  H
  H4       1.0000 0.73841  0.61819  0.48639  Biso   1.000  H
  H5       1.0000 0.82191  0.62121  0.57280  Biso   1.000  H
  H6       1.0000 0.41277  0.60271  0.53567  Biso   1.000  H
  H7       1.0000 0.39670  0.63261  0.48589  Biso   1.000  H
  H8       1.0000 0.47869  0.63649  0.57209  Biso   1.000  H
  N2       1.0000 0.58677  0.68233  0.47838  Biso   1.000  N
  N3       1.0000 0.59378  0.68215  0.57430  Biso   1.000  N
  C9       1.0000 0.58639  0.71575  0.49628  Biso   1.000  C
  C10      1.0000 0.59091  0.71563  0.55662  Biso   1.000  C
  H9       1.0000 0.59683  0.67479  0.60922  Biso   1.000  H
  C11      1.0000 0.58686  0.74601  0.46738  Biso   1.000  C
  C12      1.0000 0.59664  0.74639  0.58927  Biso   1.000  C
  C13      1.0000 0.58979  0.77611  0.49860  Biso   1.000  C
  H10      1.0000 0.58520  0.74619  0.42810  Biso   1.000  H
  C14      1.0000 0.59499  0.77619  0.55927  Biso   1.000  C
  H11      1.0000 0.60146  0.74639  0.62999  Biso   1.000  H
  O1       1.0000 0.59309  0.80772  0.47280  Biso   1.000  O
  O2       1.0000 0.60790  0.80728  0.59220  Biso   1.000  O
  C15      1.0000 0.49350  0.82077  0.41091  Biso   1.000  C
  C16      1.0000 0.51483  0.82034  0.57452  Biso   1.000  C
  C17      1.0000 0.44317  0.80626  0.34218  Biso   1.000  C
  C18      1.0000 0.45188  0.84845  0.41920  Biso   1.000  C
  C19      1.0000 0.46514  0.84865  0.52827  Biso   1.000  C
  C20      1.0000 0.48197  0.80621  0.60850  Biso   1.000  C
  C21      1.0000 0.34706  0.81924  0.28107  Biso   1.000  C
  H12      1.0000 0.47418  0.78799  0.33759  Biso   1.000  H
  C22      1.0000 0.35420  0.86151  0.35500  Biso   1.000  C
  C23      1.0000 0.50816  0.86437  0.49457  Biso   1.000  C
  C24      1.0000 0.37558  0.86130  0.51440  Biso   1.000  C
  C25      1.0000 0.39160  0.81914  0.59258  Biso   1.000  C
  H13      1.0000 0.51972  0.78819  0.64170  Biso   1.000  H
  O3       1.0000 0.29817  0.80460  0.21178  Biso   1.000  O
  C26      1.0000 0.30000  0.84768  0.28477  Biso   1.000  C
  H14      1.0000 0.32445  0.88021  0.35947  Biso   1.000  H
  H15      1.0000 0.58268  0.85719  0.52628  Biso   1.000  H
  C27      1.0000 0.50880  0.90351  0.49379  Biso   1.000  C
  C28      1.0000 0.33686  0.84737  0.54568  Biso   1.000  C
  H16      1.0000 0.34019  0.87990  0.48280  Biso   1.000  H
  O4       1.0000 0.35829  0.80473  0.62728  Biso   1.000  O
  C29      1.0000 0.24836  0.77302  0.19919  Biso   1.000  C
  C30      1.0000 0.19725  0.86278  0.21537  Biso   1.000  C
  H17      1.0000 0.54653  0.91179  0.54352  Biso   1.000  H
  H18      1.0000 0.43606  0.91169  0.46269  Biso   1.000  H
  C31      1.0000 0.56009  0.91828  0.46589  Biso   1.000  C
  C32      1.0000 0.24037  0.86245  0.53098  Biso   1.000  C
  C33      1.0000 0.30676  0.77302  0.59778  Biso   1.000  C
  C34      1.0000 0.30589  0.74378  0.22841  Biso   1.000  C
  C35      1.0000 0.13680  0.77312  0.15117  Biso   1.000  C
  C36      1.0000 0.10029  0.84732  0.20018  Biso   1.000  C
  C37      1.0000 0.19890  0.90198  0.21742  Biso   1.000  C
  H19      1.0000 0.19239  0.85609  0.17410  Biso   1.000  H
  H20      1.0000 0.52093  0.91049  0.41572  Biso   1.000  H
  H21      1.0000 0.55446  0.94299  0.46467  Biso   1.000  H
  C38      1.0000 0.67763  0.90850  0.51291  Biso   1.000  C
  C39      1.0000 0.13790  0.84686  0.46180  Biso   1.000  C
  H22      1.0000 0.24591  0.85581  0.57258  Biso   1.000  H
  C40      1.0000 0.23820  0.90137  0.52838  Biso   1.000  C
  C41      1.0000 0.19630  0.77235  0.54998  Biso   1.000  C
  C42      1.0000 0.36514  0.74340  0.61712  Biso   1.000  C
  C43      1.0000 0.24851  0.71343  0.21062  Biso   1.000  C
  H23      1.0000 0.37957  0.74381  0.25869  Biso   1.000  H
  C44      1.0000 0.08039  0.74343  0.13227  Biso   1.000  C
  O5       1.0000 0.08436  0.80460  0.12128  Biso   1.000  O
  C45      1.0000 0.04978  0.81899  0.15520  Biso   1.000  C
  C46      1.0000 0.06061  0.86069  0.23101  Biso   1.000  C
  H24      1.0000 0.20191  0.90901  0.25731  Biso   1.000  H
  H25      1.0000 0.26450  0.90949  0.23018  Biso   1.000  H
  C47      1.0000 0.10679  0.92140  0.14741  Biso   1.000  C
  H26      1.0000 0.18935  0.91028  0.25057  Biso   1.000  H
  H27      1.0000 0.26586  0.91059  0.23399  Biso   1.000  H
  C48      1.0000 0.10403  0.91389  0.13592  Biso   1.000  C
  H28      1.0000 0.71555  0.91550  0.56347  Biso   1.000  H
  H29      1.0000 0.68226  0.88379  0.51258  Biso   1.000  H
  C49      1.0000 0.73468  0.92401  0.48849  Biso   1.000  C
  C50      1.0000 0.08211  0.86033  0.39141  Biso   1.000  C
  C51      1.0000 0.09458  0.81781  0.46650  Biso   1.000  C
  H30      1.0000 0.23639  0.90891  0.48932  Biso   1.000  H
  H31      1.0000 0.17387  0.90939  0.51689  Biso   1.000  H
  C52      1.0000 0.33642  0.91731  0.60281  Biso   1.000  C
  O6       1.0000 0.14426  0.80353  0.53617  Biso   1.000  O
  C53      1.0000 0.13880  0.74261  0.52098  Biso   1.000  C
  C54      1.0000 0.30850  0.71317  0.58651  Biso   1.000  C
  H32      1.0000 0.43894  0.74381  0.64922  Biso   1.000  H
  N4       1.0000 0.28169  0.68018  0.22919  Biso   1.000  N
  C55      1.0000 0.13822  0.71310  0.16382  Biso   1.000  C
  H33      1.0000 0.00654  0.74350  0.09962  Biso   1.000  H
  C56      1.0000 0.96111  0.80465  0.14001  Biso   1.000  C
  H34      1.0000 0.09424  0.87970  0.26151  Biso   1.000  H
  C57      1.0000 0.97318  0.84714  0.21869  Biso   1.000  C
  C58      1.0000 0.13938  0.96190  0.16410  Biso   1.000  C
  H35      1.0000 0.09741  0.91389  0.10509  Biso   1.000  H
  H36      1.0000 0.04099  0.91759  0.13719  Biso   1.000  H
  H37      1.0000 0.04025  0.90119  0.11592  Biso   1.000  H
  H38      1.0000 0.12087  0.90949  0.10498  Biso   1.000  H
  C59      1.0000 0.08501  0.95250  0.13631  Biso   1.000  C
  H39      1.0000 0.80986  0.91859  0.52567  Biso   1.000  H
  H40      1.0000 0.72778  0.94869  0.48689  Biso   1.000  H
  C60      1.0000 0.69431  0.91189  0.41412  Biso   1.000  C
  C61      1.0000 0.98559  0.84645  0.32699  Biso   1.000  C
  H41      1.0000 0.10966  0.87949  0.38638  Biso   1.000  H
  C62      1.0000 0.99892  0.80353  0.40517  Biso   1.000  C
  H42      1.0000 0.40091  0.90829  0.61590  Biso   1.000  H
  H43      1.0000 0.33601  0.91090  0.64148  Biso   1.000  H
  C63      1.0000 0.33589  0.95641  0.59767  Biso   1.000  C
  C64      1.0000 0.19732  0.71287  0.53971  Biso   1.000  C
  H44      1.0000 0.06512  0.74240  0.49070  Biso   1.000  H
  N5       1.0000 0.34409  0.67957  0.59607  Biso   1.000  N
  C65      1.0000 0.19226  0.66071  0.19377  Biso   1.000  C
  H45      1.0000 0.34630  0.67300  0.25759  Biso   1.000  H
  N6       1.0000 0.10430  0.67970  0.15382  Biso   1.000  N
  H46      1.0000 0.92598  0.78630  0.10769  Biso   1.000  H
  C66      1.0000 0.92636  0.81791  0.17289  Biso   1.000  C
  C67      1.0000 0.92742  0.86186  0.25052  Biso   1.000  C
  C68      1.0000 0.15198  0.97519  0.10890  Biso   1.000  C
  H47      1.0000 0.20570  0.96469  0.21460  Biso   1.000  H
  H48      1.0000 0.08474  0.97481  0.15802  Biso   1.000  H
  C69      1.0000 0.05698  0.98140  0.08719  Biso   1.000  C
  H49      1.0000 0.14971  0.96009  0.18410  Biso   1.000  H
  H50      1.0000 0.03068  0.95309  0.13990  Biso   1.000  H
  H51      1.0000 0.62099  0.91910  0.37588  Biso   1.000  H
  H52      1.0000 0.69556  0.88711  0.41368  Biso   1.000  H
  C70      1.0000 0.75987  0.92559  0.39688  Biso   1.000  C
  C71      1.0000 0.94748  0.81796  0.33671  Biso   1.000  C
  H53      1.0000 0.97030  0.78469  0.41020  Biso   1.000  H
  H54      1.0000 0.29017  0.96630  0.60480  Biso   1.000  H
  H55      1.0000 0.30961  0.96320  0.54938  Biso   1.000  H
  C72      1.0000 0.45029  0.96860  0.65800  Biso   1.000  C
  H56      1.0000 0.34835  0.96290  0.56507  Biso   1.000  H
  H57      1.0000 0.26690  0.96510  0.57689  Biso   1.000  H
  C73      1.0000 0.42502  0.97230  0.67651  Biso   1.000  C
  N7       1.0000 0.16799  0.67932  0.52181  Biso   1.000  N
  C74      1.0000 0.25765  0.66020  0.55678  Biso   1.000  C
  C75      1.0000 0.19847  0.62346  0.19979  Biso   1.000  C
  O7       1.0000 0.83519  0.80417  0.15620  Biso   1.000  O
  H58      1.0000 0.85366  0.85379  0.21891  Biso   1.000  H
  C76      1.0000 0.92248  0.90119  0.24991  Biso   1.000  C
  H59      1.0000 0.21709  0.96609  0.12321  Biso   1.000  H
  H60      1.0000 0.09295  0.96691  0.05967  Biso   1.000  H
  H61      1.0000 0.08241  0.97509  0.06232  Biso   1.000  H
  C77      1.0000 0.15502  0.01610  0.10802  Biso   1.000  C
  H62      1.0000 0.98000  0.98119  0.04962  Biso   1.000  H
  C78      1.0000 0.08809  0.01929  0.10890  Biso   1.000  C
  H63      1.0000 0.82511  0.93489  0.44092  Biso   1.000  H
  H64      1.0000 0.77567  0.90740  0.37870  Biso   1.000  H
  H65      1.0000 0.72074  0.94309  0.35997  Biso   1.000  H
  O8       1.0000 0.84969  0.80350  0.27472  Biso   1.000  O
  H66      1.0000 0.47321  0.96451  0.70641  Biso   1.000  H
  H67      1.0000 0.49741  0.95641  0.65480  Biso   1.000  H
  H68      1.0000 0.49235  0.97189  0.68828  Biso   1.000  H
  C79      1.0000 0.45369  0.00769  0.64679  Biso   1.000  C
  H69      1.0000 0.40726  0.99589  0.67679  Biso   1.000  H
  C80      1.0000 0.43300  0.95171  0.73492  Biso   1.000  C
  H70      1.0000 0.10403  0.67160  0.49341  Biso   1.000  H
  C81      1.0000 0.25309  0.62290  0.55048  Biso   1.000  C
  C82      1.0000 0.13780  0.60284  0.13631  Biso   1.000  C
  C83      1.0000 0.27027  0.60741  0.26908  Biso   1.000  C
  C84      1.0000 0.85035  0.77281  0.18880  Biso   1.000  C
  C85      1.0000 0.85649  0.91468  0.26869  Biso   1.000  C
  H71      1.0000 0.89146  0.90939  0.20140  Biso   1.000  H
  H72      1.0000 0.99419  0.91021  0.28538  Biso   1.000  H
  C86      1.0000 0.23901  0.02780  0.10100  Biso   1.000  C
  H73      1.0000 0.17491  0.02530  0.15261  Biso   1.000  H
  H74      1.0000 0.08499  0.02481  0.06597  Biso   1.000  H
  H75      1.0000 0.18608  0.03450  0.08619  Biso   1.000  H
  C87      1.0000 0.19105  0.03649  0.12808  Biso   1.000  C
  H76      1.0000 0.02742  0.03261  0.06879  Biso   1.000  H
  H77      1.0000 0.09482  0.02310  0.15150  Biso   1.000  H
  C88      1.0000 0.85575  0.77210  0.25018  Biso   1.000  C
  C89      1.0000 0.57372  0.01610  0.70420  Biso   1.000  C
  H78      1.0000 0.41458  0.02060  0.65640  Biso   1.000  H
  H79      1.0000 0.42438  0.01250  0.59700  Biso   1.000  H
  C90      1.0000 0.52696  0.96290  0.81658  Biso   1.000  C
  H80      1.0000 0.36687  0.95390  0.72447  Biso   1.000  H
  H81      1.0000 0.44247  0.92769  0.72989  Biso   1.000  H
  C91      1.0000 0.31428  0.60217  0.61458  Biso   1.000  C
  C92      1.0000 0.18401  0.60710  0.48191  Biso   1.000  C
  C93      1.0000 0.15572  0.56760  0.14410  Biso   1.000  C
  C94      1.0000 0.05360  0.61651  0.05951  Biso   1.000  C
  C95      1.0000 0.28244  0.57210  0.26952  Biso   1.000  C
  C96      1.0000 0.32729  0.62660  0.34052  Biso   1.000  C
  C97      1.0000 0.84947  0.74263  0.15841  Biso   1.000  C
  H82      1.0000 0.88551  0.90479  0.31560  Biso   1.000  H
  H83      1.0000 0.78468  0.90599  0.23167  Biso   1.000  H
  C98      1.0000 0.84934  0.95219  0.27378  Biso   1.000  C
  H84      1.0000 0.78856  0.90300  0.23869  Biso   1.000  H
  H85      1.0000 0.89369  0.91011  0.32019  Biso   1.000  H
  C99      1.0000 0.83793  0.95370  0.25427  Biso   1.000  C
  H86      1.0000 0.24079  0.05241  0.09968  Biso   1.000  H
  H87      1.0000 0.21845  0.01891  0.05558  Biso   1.000  H
  H88      1.0000 0.30816  0.01939  0.14200  Biso   1.000  H
  H89      1.0000 0.19484  0.06010  0.14001  Biso   1.000  H
  H90      1.0000 0.25399  0.02489  0.16957  Biso   1.000  H
  C100     1.0000 0.86174  0.74240  0.28218  Biso   1.000  C
  H91      1.0000 0.58397  0.03999  0.70149  Biso   1.000  H
  H92      1.0000 0.61070  0.00281  0.69392  Biso   1.000  H
  H93      1.0000 0.60091  0.01081  0.75282  Biso   1.000  H
  Cl1      1.0000 0.53652  0.98766  0.87620  Biso   1.000  Cl
  H94      1.0000 0.52666  0.94900  0.84929  Biso   1.000  H
  H95      1.0000 0.51742  0.98641  0.82260  Biso   1.000  H
  H96      1.0000 0.59309  0.96019  0.82802  Biso   1.000  H
  C101     1.0000 0.39209  0.61589  0.69000  Biso   1.000  C
  C102     1.0000 0.29881  0.56670  0.60491  Biso   1.000  C
  C103     1.0000 0.17251  0.57141  0.47899  Biso   1.000  C
  C104     1.0000 0.12632  0.62749  0.40959  Biso   1.000  C
  N8       1.0000 0.23050  0.55260  0.20919  Biso   1.000  N
  H97      1.0000 0.11348  0.55401  0.10211  Biso   1.000  H
  H98      1.0000 0.04877  0.64081  0.06139  Biso   1.000  H
  H99      1.0000 0.07172  0.61099  0.03022  Biso   1.000  H
  H100     1.0000 0.98628  0.60629  0.03779  Biso   1.000  H
  H101     1.0000 0.33011  0.56129  0.31522  Biso   1.000  H
  H102     1.0000 0.31025  0.65039  0.33008  Biso   1.000  H
  H103     1.0000 0.40274  0.62361  0.37102  Biso   1.000  H
  H104     1.0000 0.30538  0.61799  0.36588  Biso   1.000  H
  C105     1.0000 0.85614  0.71215  0.19117  Biso   1.000  C
  H105     1.0000 0.84459  0.74269  0.11769  Biso   1.000  H
  C106     1.0000 0.94899  0.97320  0.32350  Biso   1.000  C
  H106     1.0000 0.80729  0.96139  0.22422  Biso   1.000  H
  H107     1.0000 0.80931  0.95600  0.28919  Biso   1.000  H
  H108     1.0000 0.78186  0.96039  0.25378  Biso   1.000  H
  C107     1.0000 0.93696  0.97560  0.31168  Biso   1.000  C
  H109     1.0000 0.81370  0.95840  0.20582  Biso   1.000  H
  H110     1.0000 0.86527  0.74251  0.32229  Biso   1.000  H
  C108     1.0000 0.86242  0.71189  0.25262  Biso   1.000  C
  H111     1.0000 0.39397  0.64030  0.68790  Biso   1.000  H
  H112     1.0000 0.46115  0.60680  0.71348  Biso   1.000  H
  H113     1.0000 0.37209  0.60951  0.71768  Biso   1.000  H
  N9       1.0000 0.22849  0.55181  0.53899  Biso   1.000  N
  H114     1.0000 0.33978  0.55280  0.64657  Biso   1.000  H
  H115     1.0000 0.12362  0.56101  0.43302  Biso   1.000  H
  H116     1.0000 0.08221  0.61229  0.36820  Biso   1.000  H
  H117     1.0000 0.17782  0.63800  0.40942  Biso   1.000  H
  H118     1.0000 0.08288  0.64490  0.40638  Biso   1.000  H
  N10      1.0000 0.85539  0.67883  0.17410  Biso   1.000  N
  H119     1.0000 0.00707  0.96139  0.33157  Biso   1.000  H
  C109     1.0000 0.97948  0.97961  0.39997  Biso   1.000  C
  H120     1.0000 0.93874  0.99499  0.30008  Biso   1.000  H
  H121     1.0000 0.98586  0.97450  0.30290  Biso   1.000  H
  H122     1.0000 0.91655  0.99931  0.30748  Biso   1.000  H
  C110     1.0000 0.99195  0.96190  0.39019  Biso   1.000  C
  N11      1.0000 0.86450  0.67819  0.27090  Biso   1.000  N
  C111     1.0000 0.85929  0.65903  0.22250  Biso   1.000  C
  H123     1.0000 0.85286  0.67160  0.13929  Biso   1.000  H
  H124     1.0000 0.00399  0.95860  0.42848  Biso   1.000  H
  C112     1.0000 0.06097  0.99060  0.44849  Biso   1.000  C
  H125     1.0000 0.91856  0.98799  0.39257  Biso   1.000  H
  H126     1.0000 0.93901  0.95401  0.39180  Biso   1.000  H
  C113     1.0000 0.07101  0.00700  0.44092  Biso   1.000  C
  H127     1.0000 0.03751  0.94261  0.40152  Biso   1.000  H
  C114     1.0000 0.85548  0.62157  0.22007  Biso   1.000  C
  H128     1.0000 0.13053  0.99829  0.44760  Biso   1.000  H
  H129     1.0000 0.09429  0.98191  0.49678  Biso   1.000  H
  H130     1.0000 0.11381  0.99811  0.44721  Biso   1.000  H
  H131     1.0000 0.09317  0.01211  0.48827  Biso   1.000  H
  H132     1.0000 0.01549  0.00951  0.43749  Biso   1.000  H
  H133     1.0000 0.04560  0.02749  0.41191  Biso   1.000  H
  C115     1.0000 0.92523  0.60271  0.21858  Biso   1.000  C
  C116     1.0000 0.78009  0.60406  0.21770  Biso   1.000  C
  C117     1.0000 0.00863  0.61789  0.21952  Biso   1.000  C
  C118     1.0000 0.91614  0.56732  0.21598  Biso   1.000  C
  C119     1.0000 0.69969  0.62154  0.21709  Biso   1.000  C
  C120     1.0000 0.77993  0.56860  0.21427  Biso   1.000  C
  H134     1.0000 0.00661  0.64229  0.22129  Biso   1.000  H
  H135     1.0000 0.07752  0.60979  0.26212  Biso   1.000  H
  H136     1.0000 0.99475  0.61119  0.17548  Biso   1.000  H
  H137     1.0000 0.96231  0.55470  0.21510  Biso   1.000  H
  N12      1.0000 0.84616  0.54999  0.21460  Biso   1.000  N
  H138     1.0000 0.70968  0.64579  0.21968  Biso   1.000  H
  H139     1.0000 0.70867  0.61411  0.25880  Biso   1.000  H
  H140     1.0000 0.62924  0.61589  0.17228  Biso   1.000  H
  H141     1.0000 0.72898  0.55700  0.21151  Biso   1.000  H
  N13      1.0000 0.38220  0.44561  0.45799  Biso   1.000  N
  C121     1.0000 0.31878  0.42670  0.46130  Biso   1.000  C
  C122     1.0000 0.45332  0.42941  0.45970  Biso   1.000  C
  C123     1.0000 0.32428  0.39121  0.46722  Biso   1.000  C
  H142     1.0000 0.26829  0.43800  0.45959  Biso   1.000  H
  C124     1.0000 0.46643  0.39402  0.46501  Biso   1.000  C
  H143     1.0000 0.49713  0.44249  0.45722  Biso   1.000  H
  C125     1.0000 0.40082  0.37468  0.46909  Biso   1.000  C
  C126     1.0000 0.24988  0.37381  0.47108  Biso   1.000  C
  C127     1.0000 0.55241  0.37920  0.46810  Biso   1.000  C
  C128     1.0000 0.40901  0.33696  0.47318  Biso   1.000  C
  H144     1.0000 0.26160  0.34961  0.47501  Biso   1.000  H
  H145     1.0000 0.26157  0.38181  0.51357  Biso   1.000  H
  H146     1.0000 0.17811  0.37879  0.42721  Biso   1.000  H
  H147     1.0000 0.58720  0.39729  0.46429  Biso   1.000  H
  H148     1.0000 0.60327  0.36739  0.51407  Biso   1.000  H
  H149     1.0000 0.52128  0.36351  0.42788  Biso   1.000  H
  N14      1.0000 0.40624  0.31785  0.42572  Biso   1.000  N
  N15      1.0000 0.41320  0.31767  0.52159  Biso   1.000  N
  C129     1.0000 0.40911  0.28437  0.44340  Biso   1.000  C
  H150     1.0000 0.40319  0.32521  0.39080  Biso   1.000  H
  C130     1.0000 0.41358  0.28425  0.50368  Biso   1.000  C
  C131     1.0000 0.40327  0.25361  0.41069  Biso   1.000  C
  C132     1.0000 0.41305  0.25399  0.53258  Biso   1.000  C
  C133     1.0000 0.40499  0.22381  0.44070  Biso   1.000  C
  H151     1.0000 0.39846  0.25361  0.36997  Biso   1.000  H
  C134     1.0000 0.41023  0.22389  0.50142  Biso   1.000  C
  H152     1.0000 0.41482  0.25379  0.57192  Biso   1.000  H
  O9       1.0000 0.39213  0.19272  0.40782  Biso   1.000  O
  O10      1.0000 0.40693  0.19226  0.52722  Biso   1.000  O
  C135     1.0000 0.48520  0.17966  0.42550  Biso   1.000  C
  C136     1.0000 0.50652  0.17923  0.58910  Biso   1.000  C
  C137     1.0000 0.51799  0.19379  0.39152  Biso   1.000  C
  C138     1.0000 0.53477  0.15135  0.47169  Biso   1.000  C
  C139     1.0000 0.54809  0.15155  0.58082  Biso   1.000  C
  C140     1.0000 0.55680  0.19374  0.65778  Biso   1.000  C
  C141     1.0000 0.60837  0.18086  0.40738  Biso   1.000  C
  H153     1.0000 0.48030  0.21181  0.35831  Biso   1.000  H
  C142     1.0000 0.49181  0.13563  0.50540  Biso   1.000  C
  C143     1.0000 0.62438  0.13870  0.48562  Biso   1.000  C
  C144     1.0000 0.64583  0.13849  0.64502  Biso   1.000  C
  H154     1.0000 0.52579  0.21201  0.66237  Biso   1.000  H
  C145     1.0000 0.65291  0.18076  0.71889  Biso   1.000  C
  O11      1.0000 0.64168  0.19527  0.37268  Biso   1.000  O
  C146     1.0000 0.66305  0.15263  0.45429  Biso   1.000  C
  H155     1.0000 0.41730  0.14279  0.47368  Biso   1.000  H
  C147     1.0000 0.49117  0.09649  0.50617  Biso   1.000  C
  H156     1.0000 0.65984  0.12010  0.51722  Biso   1.000  H
  H157     1.0000 0.67546  0.11979  0.64049  Biso   1.000  H
  C148     1.0000 0.69997  0.15232  0.71519  Biso   1.000  C
  O12      1.0000 0.70180  0.19540  0.78818  Biso   1.000  O
  C149     1.0000 0.69315  0.22696  0.40218  Biso   1.000  C
  C150     1.0000 0.75960  0.13755  0.46898  Biso   1.000  C
  H158     1.0000 0.45349  0.08821  0.45650  Biso   1.000  H
  H159     1.0000 0.56385  0.08831  0.53728  Biso   1.000  H
  C151     1.0000 0.43988  0.08172  0.53407  Biso   1.000  C
  C152     1.0000 0.80266  0.13722  0.78459  Biso   1.000  C
  C153     1.0000 0.75155  0.22696  0.80078  Biso   1.000  C
  C154     1.0000 0.63489  0.25660  0.38290  Biso   1.000  C
  C155     1.0000 0.80367  0.22765  0.44998  Biso   1.000  C
  C156     1.0000 0.86213  0.15314  0.53822  Biso   1.000  C
  H160     1.0000 0.75406  0.14419  0.42738  Biso   1.000  H
  C157     1.0000 0.76177  0.09863  0.47158  Biso   1.000  C
  H161     1.0000 0.47910  0.08951  0.58430  Biso   1.000  H
  H162     1.0000 0.44551  0.05701  0.53529  Biso   1.000  H
  C158     1.0000 0.32240  0.09150  0.48711  Biso   1.000  C
  C159     1.0000 0.80106  0.09802  0.78260  Biso   1.000  C
  C160     1.0000 0.89969  0.15268  0.79978  Biso   1.000  C
  H163     1.0000 0.80758  0.14391  0.82592  Biso   1.000  H
  C161     1.0000 0.69408  0.25622  0.77160  Biso   1.000  C
  C162     1.0000 0.86318  0.22688  0.84879  Biso   1.000  C
  C163     1.0000 0.69152  0.28683  0.41351  Biso   1.000  C
  H164     1.0000 0.56108  0.25619  0.35080  Biso   1.000  H
  O13      1.0000 0.85565  0.19647  0.46379  Biso   1.000  O
  C164     1.0000 0.86117  0.25739  0.47899  Biso   1.000  C
  C165     1.0000 0.90538  0.18219  0.53352  Biso   1.000  C
  C166     1.0000 0.91792  0.13967  0.60861  Biso   1.000  C
  H165     1.0000 0.76357  0.09109  0.51070  Biso   1.000  H
  H166     1.0000 0.82604  0.09061  0.48307  Biso   1.000  H
  C167     1.0000 0.66360  0.08269  0.39721  Biso   1.000  C
  H167     1.0000 0.28442  0.08450  0.43650  Biso   1.000  H
  H168     1.0000 0.31771  0.11619  0.48738  Biso   1.000  H
  C168     1.0000 0.26530  0.07599  0.51147  Biso   1.000  C
  H169     1.0000 0.79811  0.09099  0.74271  Biso   1.000  H
  H170     1.0000 0.73547  0.09051  0.76978  Biso   1.000  H
  C169     1.0000 0.89317  0.07860  0.85260  Biso   1.000  C
  H171     1.0000 0.81056  0.08969  0.74939  Biso   1.000  H
  H172     1.0000 0.73405  0.08941  0.76597  Biso   1.000  H
  C170     1.0000 0.89600  0.08611  0.86410  Biso   1.000  C
  C171     1.0000 0.95018  0.18101  0.84481  Biso   1.000  C
  C172     1.0000 0.93941  0.13931  0.76901  Biso   1.000  C
  H173     1.0000 0.62034  0.25619  0.74127  Biso   1.000  H
  C173     1.0000 0.75146  0.28655  0.78939  Biso   1.000  C
  C174     1.0000 0.91958  0.25657  0.86769  Biso   1.000  C
  O14      1.0000 0.91555  0.19540  0.87868  Biso   1.000  O
  N16      1.0000 0.65589  0.32043  0.40390  Biso   1.000  N
  C175     1.0000 0.80271  0.28711  0.46031  Biso   1.000  C
  H174     1.0000 0.93490  0.25760  0.50932  Biso   1.000  H
  C176     1.0000 0.00099  0.19647  0.59479  Biso   1.000  C
  H175     1.0000 0.89026  0.12051  0.61358  Biso   1.000  H
  C177     1.0000 0.01438  0.15355  0.67298  Biso   1.000  C
  H176     1.0000 0.59912  0.09171  0.38412  Biso   1.000  H
  H177     1.0000 0.66396  0.08910  0.35848  Biso   1.000  H
  C178     1.0000 0.66409  0.04359  0.40229  Biso   1.000  C
  H178     1.0000 0.19011  0.08141  0.47429  Biso   1.000  H
  H179     1.0000 0.27219  0.05131  0.51308  Biso   1.000  H
  C179     1.0000 0.30571  0.08811  0.58590  Biso   1.000  C
  C180     1.0000 0.86053  0.03810  0.83586  Biso   1.000  C
  H180     1.0000 0.90256  0.08611  0.89487  Biso   1.000  H
  H181     1.0000 0.95899  0.08241  0.86277  Biso   1.000  H
  H182     1.0000 0.95978  0.09881  0.88410  Biso   1.000  H
  H183     1.0000 0.87905  0.09051  0.89498  Biso   1.000  H
  C181     1.0000 0.91502  0.04750  0.86371  Biso   1.000  C
  C182     1.0000 0.03892  0.19535  0.86001  Biso   1.000  C
  H184     1.0000 0.90579  0.12030  0.73851  Biso   1.000  H
  C183     1.0000 0.02679  0.15286  0.78127  Biso   1.000  C
  N17      1.0000 0.71828  0.31982  0.77077  Biso   1.000  N
  C184     1.0000 0.86180  0.28690  0.83619  Biso   1.000  C
  H185     1.0000 0.99349  0.25650  0.90040  Biso   1.000  H
  C185     1.0000 0.74226  0.33980  0.44318  Biso   1.000  C
  N18      1.0000 0.83198  0.32068  0.47821  Biso   1.000  N
  C186     1.0000 0.05249  0.18204  0.66331  Biso   1.000  C
  H186     1.0000 0.02967  0.21531  0.58977  Biso   1.000  H
  C187     1.0000 0.07261  0.13814  0.74950  Biso   1.000  C
  H187     1.0000 0.70979  0.03370  0.39522  Biso   1.000  H
  H188     1.0000 0.69037  0.03680  0.45059  Biso   1.000  H
  C188     1.0000 0.54968  0.03140  0.34201  Biso   1.000  C
  H189     1.0000 0.65157  0.03710  0.43489  Biso   1.000  H
  H190     1.0000 0.73308  0.03490  0.42307  Biso   1.000  H
  C189     1.0000 0.57501  0.02770  0.32350  Biso   1.000  C
  H191     1.0000 0.37898  0.08090  0.62408  Biso   1.000  H
  H192     1.0000 0.30441  0.11289  0.58629  Biso   1.000  H
  C190     1.0000 0.24010  0.07441  0.60308  Biso   1.000  C
  C191     1.0000 0.84798  0.02481  0.89111  Biso   1.000  C
  H193     1.0000 0.79432  0.03529  0.78542  Biso   1.000  H
  H194     1.0000 0.91529  0.02519  0.84200  Biso   1.000  H
  C192     1.0000 0.94299  0.01860  0.91277  Biso   1.000  C
  H195     1.0000 0.85032  0.03989  0.81592  Biso   1.000  H
  H196     1.0000 0.96923  0.04689  0.86006  Biso   1.000  H
  H197     1.0000 0.07399  0.21370  0.89228  Biso   1.000  H
  C193     1.0000 0.07361  0.18209  0.82708  Biso   1.000  C
  H198     1.0000 0.65367  0.32700  0.74237  Biso   1.000  H
  C194     1.0000 0.80765  0.33929  0.80619  Biso   1.000  C
  N19      1.0000 0.89566  0.32030  0.84619  Biso   1.000  N
  C195     1.0000 0.74688  0.37710  0.44948  Biso   1.000  C
  H199     1.0000 0.89599  0.32840  0.50661  Biso   1.000  H
  O15      1.0000 0.15033  0.19650  0.72530  Biso   1.000  O
  H200     1.0000 0.14630  0.14621  0.78111  Biso   1.000  H
  C196     1.0000 0.07754  0.09881  0.75011  Biso   1.000  C
  H201     1.0000 0.52681  0.03549  0.29361  Biso   1.000  H
  H202     1.0000 0.50262  0.04359  0.34522  Biso   1.000  H
  H203     1.0000 0.50756  0.02811  0.31168  Biso   1.000  H
  C197     1.0000 0.54628  0.99231  0.35317  Biso   1.000  C
  H204     1.0000 0.59265  0.00409  0.32317  Biso   1.000  H
  C198     1.0000 0.56696  0.04829  0.26510  Biso   1.000  C
  H205     1.0000 0.17491  0.06511  0.55910  Biso   1.000  H
  H206     1.0000 0.22429  0.09260  0.62132  Biso   1.000  H
  H207     1.0000 0.27917  0.05691  0.63999  Biso   1.000  H
  H208     1.0000 0.78288  0.03391  0.87680  Biso   1.000  H
  H209     1.0000 0.90696  0.03309  0.94029  Biso   1.000  H
  H210     1.0000 0.91755  0.02489  0.93769  Biso   1.000  H
  C199     1.0000 0.84501  0.98390  0.89200  Biso   1.000  C
  C200     1.0000 0.91187  0.98071  0.89111  Biso   1.000  C
  H211     1.0000 0.02003  0.01881  0.95040  Biso   1.000  H
  O16      1.0000 0.16478  0.19583  0.84376  Biso   1.000  O
  C201     1.0000 0.80144  0.37654  0.80017  Biso   1.000  C
  C202     1.0000 0.68569  0.39783  0.38539  Biso   1.000  C
  C203     1.0000 0.81602  0.39290  0.51810  Biso   1.000  C
  C204     1.0000 0.14416  0.22788  0.74978  Biso   1.000  C
  C205     1.0000 0.14348  0.08532  0.73127  Biso   1.000  C
  H212     1.0000 0.10846  0.09061  0.79857  Biso   1.000  H
  H213     1.0000 0.00578  0.08979  0.71458  Biso   1.000  H
  C206     1.0000 0.42631  0.98390  0.29582  Biso   1.000  C
  H214     1.0000 0.58538  0.97940  0.34362  Biso   1.000  H
  H215     1.0000 0.57558  0.98750  0.40301  Biso   1.000  H
  C207     1.0000 0.47295  0.03710  0.18338  Biso   1.000  C
  H216     1.0000 0.63311  0.04610  0.27549  Biso   1.000  H
  H217     1.0000 0.55744  0.07229  0.27007  Biso   1.000  H
  C208     1.0000 0.76101  0.97220  0.89902  Biso   1.000  C
  H218     1.0000 0.82511  0.97470  0.84741  Biso   1.000  H
  H219     1.0000 0.91498  0.97519  0.93399  Biso   1.000  H
  H220     1.0000 0.81389  0.96550  0.91377  Biso   1.000  H
  C209     1.0000 0.80886  0.96349  0.87189  Biso   1.000  C
  H221     1.0000 0.97255  0.96739  0.93117  Biso   1.000  H
  H222     1.0000 0.90521  0.97690  0.84851  Biso   1.000  H
  C210     1.0000 0.14956  0.22719  0.81116  Biso   1.000  C
  C211     1.0000 0.86222  0.39714  0.86371  Biso   1.000  C
  C212     1.0000 0.72965  0.39259  0.73088  Biso   1.000  C
  C213     1.0000 0.60793  0.38411  0.31002  Biso   1.000  C
  C214     1.0000 0.70121  0.43330  0.39511  Biso   1.000  C
  C215     1.0000 0.82746  0.42859  0.52098  Biso   1.000  C
  C216     1.0000 0.87366  0.37251  0.59037  Biso   1.000  C
  C217     1.0000 0.13817  0.25760  0.71779  Biso   1.000  C
  H223     1.0000 0.11451  0.09521  0.68441  Biso   1.000  H
  H224     1.0000 0.21529  0.09401  0.76829  Biso   1.000  H
  C218     1.0000 0.15058  0.04781  0.72619  Biso   1.000  C
  H225     1.0000 0.21135  0.09700  0.76127  Biso   1.000  H
  H226     1.0000 0.10628  0.08989  0.67977  Biso   1.000  H
  C219     1.0000 0.16198  0.04630  0.74569  Biso   1.000  C
  H227     1.0000 0.41595  0.96001  0.29847  Biso   1.000  H
  H228     1.0000 0.38932  0.99719  0.30610  Biso   1.000  H
  H229     1.0000 0.39911  0.98919  0.24720  Biso   1.000  H
  Cl2      1.0000 0.46350  0.01234  0.12382  Biso   1.000  Cl
  H230     1.0000 0.47326  0.05100  0.15067  Biso   1.000  H
  H231     1.0000 0.48260  0.01359  0.17742  Biso   1.000  H
  H232     1.0000 0.40688  0.03981  0.17200  Biso   1.000  H
  H233     1.0000 0.75918  0.94759  0.90029  Biso   1.000  H
  H234     1.0000 0.78146  0.98109  0.94438  Biso   1.000  H
  H235     1.0000 0.69175  0.98061  0.85796  Biso   1.000  H
  H236     1.0000 0.80519  0.93990  0.86001  Biso   1.000  H
  H237     1.0000 0.74598  0.97509  0.83039  Biso   1.000  H
  C220     1.0000 0.15050  0.25737  0.84161  Biso   1.000  C
  C221     1.0000 0.94642  0.38349  0.94051  Biso   1.000  C
  C222     1.0000 0.84426  0.43240  0.85586  Biso   1.000  C
  C223     1.0000 0.71759  0.42790  0.73050  Biso   1.000  C
  C224     1.0000 0.67267  0.37340  0.65950  Biso   1.000  C
  H238     1.0000 0.60599  0.35970  0.31212  Biso   1.000  H
  H239     1.0000 0.53876  0.39320  0.28648  Biso   1.000  H
  H240     1.0000 0.62788  0.39049  0.28229  Biso   1.000  H
  N20      1.0000 0.77148  0.44819  0.46097  Biso   1.000  N
  H241     1.0000 0.66019  0.44720  0.35340  Biso   1.000  H
  H242     1.0000 0.87640  0.43899  0.56700  Biso   1.000  H
  H243     1.0000 0.91781  0.38771  0.63181  Biso   1.000  H
  H244     1.0000 0.82220  0.36200  0.59060  Biso   1.000  H
  H245     1.0000 0.91709  0.35510  0.59358  Biso   1.000  H
  H246     1.0000 0.13470  0.25749  0.67767  Biso   1.000  H
  C225     1.0000 0.13760  0.28811  0.74740  Biso   1.000  C
  C226     1.0000 0.05104  0.02680  0.67651  Biso   1.000  C
  H247     1.0000 0.19273  0.03861  0.77580  Biso   1.000  H
  H248     1.0000 0.19067  0.04400  0.71077  Biso   1.000  H
  H249     1.0000 0.21811  0.03961  0.74619  Biso   1.000  H
  C227     1.0000 0.06302  0.02440  0.68828  Biso   1.000  C
  H250     1.0000 0.18633  0.04160  0.79420  Biso   1.000  H
  C228     1.0000 0.14378  0.28785  0.80879  Biso   1.000  C
  H251     1.0000 0.15538  0.25729  0.88227  Biso   1.000  H
  H252     1.0000 0.95115  0.35919  0.93858  Biso   1.000  H
  H253     1.0000 0.92830  0.38899  0.96979  Biso   1.000  H
  H254     1.0000 0.01369  0.39369  0.96217  Biso   1.000  H
  H255     1.0000 0.88649  0.44599  0.89791  Biso   1.000  H
  N21      1.0000 0.76948  0.44740  0.79078  Biso   1.000  N
  H256     1.0000 0.66991  0.43869  0.68480  Biso   1.000  H
  H257     1.0000 0.68966  0.34961  0.66988  Biso   1.000  H
  H258     1.0000 0.59729  0.37639  0.62900  Biso   1.000  H
  H259     1.0000 0.69459  0.38201  0.63408  Biso   1.000  H
  N22      1.0000 0.13553  0.32181  0.72911  Biso   1.000  N
  H260     1.0000 0.99290  0.03861  0.66839  Biso   1.000  H
  C229     1.0000 0.02049  0.02039  0.59999  Biso   1.000  C
  H261     1.0000 0.06117  0.00501  0.69989  Biso   1.000  H
  H262     1.0000 0.01405  0.02550  0.69707  Biso   1.000  H
  H263     1.0000 0.08342  0.00069  0.69248  Biso   1.000  H
  C230     1.0000 0.00797  0.03810  0.60977  Biso   1.000  C
  N23      1.0000 0.14463  0.32117  0.82592  Biso   1.000  N
  C231     1.0000 0.14073  0.34095  0.77752  Biso   1.000  C
  H264     1.0000 0.99598  0.04140  0.57148  Biso   1.000  H
  C232     1.0000 0.93894  0.00940  0.55148  Biso   1.000  C
  C233     1.0000 0.92896  0.99300  0.55910  Biso   1.000  C
  H265     1.0000 0.08141  0.01201  0.60739  Biso   1.000  H
  H266     1.0000 0.06097  0.04599  0.60817  Biso   1.000  H
  H267     1.0000 0.96246  0.05739  0.59850  Biso   1.000  H
  H268     1.0000 0.14711  0.32840  0.86067  Biso   1.000  H
  C234     1.0000 0.14449  0.37841  0.77989  Biso   1.000  C
  H269     1.0000 0.86950  0.00171  0.55242  Biso   1.000  H
  H270     1.0000 0.90568  0.01809  0.50319  Biso   1.000  H
  H271     1.0000 0.88621  0.00189  0.55280  Biso   1.000  H
  H272     1.0000 0.90680  0.98789  0.51169  Biso   1.000  H
  H273     1.0000 0.98448  0.99049  0.56247  Biso   1.000  H
  H274     1.0000 0.95442  0.97251  0.58811  Biso   1.000  H
  C235     1.0000 0.07468  0.39729  0.78138  Biso   1.000  C
  C236     1.0000 0.21989  0.39594  0.78227  Biso   1.000  C
  C237     1.0000 0.99139  0.38209  0.78050  Biso   1.000  C
  C238     1.0000 0.08377  0.43266  0.78398  Biso   1.000  C
  C239     1.0000 0.30028  0.37846  0.78287  Biso   1.000  C
  C240     1.0000 0.21999  0.43138  0.78569  Biso   1.000  C
  H275     1.0000 0.99336  0.35771  0.77868  Biso   1.000  H
  H276     1.0000 0.92251  0.39019  0.73790  Biso   1.000  H
  H277     1.0000 0.00516  0.38881  0.82448  Biso   1.000  H
  H278     1.0000 0.03767  0.44530  0.78486  Biso   1.000  H
  N24      1.0000 0.15380  0.45001  0.78542  Biso   1.000  N
  H279     1.0000 0.29030  0.35421  0.78028  Biso   1.000  H
  H280     1.0000 0.29129  0.38589  0.74121  Biso   1.000  H
  H281     1.0000 0.37068  0.38411  0.82768  Biso   1.000  H
  H282     1.0000 0.27099  0.44300  0.78851  Biso   1.000  H
  C241     1.0000 0.76097  0.52779  0.39898  Biso   1.000  C
  C242     1.0000 0.84502  0.51611  0.39202  Biso   1.000  C
  H283     1.0000 0.81390  0.53451  0.41379  Biso   1.000  H
  C243     1.0000 0.80888  0.53650  0.37191  Biso   1.000  C
  H284     1.0000 0.75919  0.55240  0.40031  Biso   1.000  H
  H285     1.0000 0.78147  0.51890  0.44440  Biso   1.000  H
  H286     1.0000 0.69176  0.51941  0.35798  Biso   1.000  H
  C244     1.0000 0.84794  0.47520  0.39108  Biso   1.000  C
  C245     1.0000 0.91184  0.51930  0.39108  Biso   1.000  C
  H287     1.0000 0.82508  0.52531  0.34737  Biso   1.000  H
  H288     1.0000 0.91500  0.52480  0.43401  Biso   1.000  H
  H289     1.0000 0.80515  0.56009  0.35997  Biso   1.000  H
  H290     1.0000 0.74599  0.52490  0.33041  Biso   1.000  H
  C246     1.0000 0.86055  0.46189  0.33588  Biso   1.000  C
  C247     1.0000 0.94300  0.48141  0.41279  Biso   1.000  C
  H291     1.0000 0.78284  0.46610  0.37677  Biso   1.000  H
  H292     1.0000 0.90697  0.46690  0.44031  Biso   1.000  H
  H293     1.0000 0.91757  0.47510  0.43771  Biso   1.000  H
  H294     1.0000 0.97257  0.53259  0.43119  Biso   1.000  H
  H295     1.0000 0.90517  0.52309  0.34848  Biso   1.000  H
  C248     1.0000 0.89319  0.42139  0.35262  Biso   1.000  C
  H296     1.0000 0.79428  0.46470  0.28538  Biso   1.000  H
  H297     1.0000 0.91530  0.47479  0.34201  Biso   1.000  H
  C249     1.0000 0.91498  0.45251  0.36367  Biso   1.000  C
  H298     1.0000 0.02004  0.48121  0.45042  Biso   1.000  H
  C250     1.0000 0.80108  0.40197  0.28262  Biso   1.000  C
  H299     1.0000 0.90258  0.41390  0.39489  Biso   1.000  H
  H300     1.0000 0.95900  0.41761  0.36279  Biso   1.000  H
  H301     1.0000 0.95979  0.40120  0.38412  Biso   1.000  H
  H302     1.0000 0.87906  0.40951  0.39500  Biso   1.000  H
  C251     1.0000 0.89601  0.41390  0.36411  Biso   1.000  C
  H303     1.0000 0.85028  0.46010  0.31588  Biso   1.000  H
  H304     1.0000 0.96925  0.45310  0.36008  Biso   1.000  H
  C252     1.0000 0.80267  0.36280  0.28461  Biso   1.000  C
  H305     1.0000 0.79807  0.40899  0.24267  Biso   1.000  H
  H306     1.0000 0.73549  0.40951  0.26980  Biso   1.000  H
  H307     1.0000 0.81057  0.41030  0.24941  Biso   1.000  H
  H308     1.0000 0.73406  0.41060  0.26599  Biso   1.000  H
  C253     1.0000 0.69999  0.34769  0.21521  Biso   1.000  C
  C254     1.0000 0.89970  0.34731  0.29980  Biso   1.000  C
  H309     1.0000 0.80754  0.35610  0.32588  Biso   1.000  H
  C255     1.0000 0.65292  0.31925  0.21891  Biso   1.000  C
  C256     1.0000 0.64579  0.36152  0.14498  Biso   1.000  C
  C257     1.0000 0.95015  0.31897  0.34478  Biso   1.000  C
  C258     1.0000 0.93937  0.36067  0.26897  Biso   1.000  C
  O17      1.0000 0.70176  0.30459  0.28820  Biso   1.000  O
  C259     1.0000 0.55682  0.30625  0.15780  Biso   1.000  C
  C260     1.0000 0.54805  0.34846  0.08078  Biso   1.000  C
  H310     1.0000 0.67547  0.38020  0.14051  Biso   1.000  H
  O18      1.0000 0.91556  0.30459  0.37870  Biso   1.000  O
  C261     1.0000 0.03888  0.30466  0.35997  Biso   1.000  C
  H311     1.0000 0.90575  0.37971  0.23847  Biso   1.000  H
  C262     1.0000 0.02680  0.34713  0.28129  Biso   1.000  C
  C263     1.0000 0.75157  0.27303  0.30080  Biso   1.000  C
  C264     1.0000 0.50654  0.32076  0.08912  Biso   1.000  C
  H312     1.0000 0.52581  0.28800  0.16239  Biso   1.000  H
  C265     1.0000 0.49182  0.36435  0.00541  Biso   1.000  C
  C266     1.0000 0.86319  0.27313  0.34881  Biso   1.000  C
  H313     1.0000 0.07400  0.28629  0.39229  Biso   1.000  H
  C267     1.0000 0.07363  0.31790  0.32710  Biso   1.000  C
  C268     1.0000 0.07262  0.36185  0.24952  Biso   1.000  C
  C269     1.0000 0.69409  0.24377  0.27162  Biso   1.000  C
  O19      1.0000 0.40689  0.30773  0.02718  Biso   1.000  O
  C270     1.0000 0.49119  0.40350  0.00619  Biso   1.000  C
  C271     1.0000 0.53473  0.34866  0.97166  Biso   1.000  C
  H314     1.0000 0.41726  0.35720  0.97364  Biso   1.000  H
  C272     1.0000 0.91960  0.24341  0.36771  Biso   1.000  C
  O20      1.0000 0.16479  0.30418  0.34378  Biso   1.000  O
  C273     1.0000 0.01440  0.34647  0.17300  Biso   1.000  C
  H315     1.0000 0.14626  0.35380  0.28107  Biso   1.000  H
  C274     1.0000 0.07750  0.40120  0.25007  Biso   1.000  C
  H316     1.0000 0.62036  0.24380  0.24129  Biso   1.000  H
  C275     1.0000 0.75147  0.21344  0.28941  Biso   1.000  C
  C276     1.0000 0.41019  0.27610  0.00138  Biso   1.000  C
  H317     1.0000 0.56387  0.41170  0.03730  Biso   1.000  H
  C277     1.0000 0.43989  0.41827  0.03409  Biso   1.000  C
  H318     1.0000 0.45346  0.41181  0.95646  Biso   1.000  H
  C278     1.0000 0.48516  0.32033  0.92546  Biso   1.000  C
  C279     1.0000 0.62435  0.36129  0.98558  Biso   1.000  C
  C280     1.0000 0.86182  0.21308  0.33621  Biso   1.000  C
  H319     1.0000 0.99350  0.24349  0.40042  Biso   1.000  H
  C281     1.0000 0.14957  0.27280  0.31118  Biso   1.000  C
  C282     1.0000 0.91788  0.36032  0.10857  Biso   1.000  C
  C283     1.0000 0.05245  0.31798  0.16327  Biso   1.000  C
  C284     1.0000 0.14350  0.41469  0.23129  Biso   1.000  C
  H320     1.0000 0.10847  0.40940  0.29859  Biso   1.000  H
  H321     1.0000 0.00580  0.41020  0.21460  Biso   1.000  H
  N25      1.0000 0.71830  0.18017  0.27079  Biso   1.000  N
  C285     1.0000 0.41306  0.24602  0.03260  Biso   1.000  C
  C286     1.0000 0.40495  0.27620  0.94066  Biso   1.000  C
  H322     1.0000 0.47911  0.41050  0.08432  Biso   1.000  H
  H323     1.0000 0.44547  0.44300  0.03531  Biso   1.000  H
  C287     1.0000 0.32236  0.40851  0.98707  Biso   1.000  C
  O21      1.0000 0.39209  0.30727  0.90778  Biso   1.000  O
  C288     1.0000 0.51796  0.30620  0.89148  Biso   1.000  C
  H324     1.0000 0.65980  0.37989  0.01718  Biso   1.000  H
  C289     1.0000 0.66307  0.34739  0.95425  Biso   1.000  C
  N26      1.0000 0.89568  0.17971  0.34621  Biso   1.000  N
  C290     1.0000 0.14417  0.27211  0.24980  Biso   1.000  C
  C291     1.0000 0.15046  0.24265  0.34157  Biso   1.000  C
  C292     1.0000 0.86209  0.34688  0.03818  Biso   1.000  C
  H325     1.0000 0.89027  0.37951  0.11360  Biso   1.000  H
  O22      1.0000 0.15035  0.30351  0.22532  Biso   1.000  O
  C293     1.0000 0.00101  0.30354  0.09481  Biso   1.000  C
  H326     1.0000 0.11448  0.40480  0.18438  Biso   1.000  H
  H327     1.0000 0.21530  0.40600  0.26831  Biso   1.000  H
  C294     1.0000 0.15059  0.45220  0.22620  Biso   1.000  C
  H328     1.0000 0.21137  0.40299  0.26129  Biso   1.000  H
  H329     1.0000 0.10629  0.41009  0.17979  Biso   1.000  H
  C295     1.0000 0.16200  0.45371  0.24571  Biso   1.000  C
  H330     1.0000 0.65368  0.17299  0.24239  Biso   1.000  H
  C296     1.0000 0.80767  0.16073  0.30621  Biso   1.000  C
  H331     1.0000 0.41478  0.24620  0.07188  Biso   1.000  H
  C297     1.0000 0.41359  0.21574  0.00370  Biso   1.000  C
  C298     1.0000 0.40323  0.24640  0.91066  Biso   1.000  C
  C299     1.0000 0.26531  0.42399  0.01149  Biso   1.000  C
  H332     1.0000 0.28438  0.41551  0.93646  Biso   1.000  H
  H333     1.0000 0.31767  0.38380  0.98735  Biso   1.000  H
  C300     1.0000 0.60839  0.31915  0.90740  Biso   1.000  C
  H334     1.0000 0.48026  0.28821  0.85828  Biso   1.000  H
  C301     1.0000 0.75956  0.36244  0.96895  Biso   1.000  C
  C302     1.0000 0.13818  0.24239  0.21781  Biso   1.000  C
  C303     1.0000 0.14379  0.21214  0.30881  Biso   1.000  C
  H335     1.0000 0.15540  0.24270  0.38229  Biso   1.000  H
  C304     1.0000 0.90534  0.31780  0.03348  Biso   1.000  C
  H336     1.0000 0.02969  0.28471  0.08979  Biso   1.000  H
  C305     1.0000 0.05100  0.47321  0.17648  Biso   1.000  C
  H337     1.0000 0.19275  0.46140  0.27582  Biso   1.000  H
  H338     1.0000 0.19068  0.45601  0.21079  Biso   1.000  H
  H339     1.0000 0.21813  0.46041  0.24621  Biso   1.000  H
  C306     1.0000 0.06303  0.47561  0.18830  Biso   1.000  C
  H340     1.0000 0.18634  0.45839  0.29422  Biso   1.000  H
  C307     1.0000 0.80146  0.12344  0.30019  Biso   1.000  C
  N27      1.0000 0.41321  0.18232  0.02160  Biso   1.000  N
  C308     1.0000 0.40908  0.21561  0.94337  Biso   1.000  C
  H341     1.0000 0.39847  0.24640  0.86999  Biso   1.000  H
  H342     1.0000 0.27220  0.44870  0.01309  Biso   1.000  H
  C309     1.0000 0.30573  0.41191  0.08592  Biso   1.000  C
  H343     1.0000 0.19007  0.41860  0.97425  Biso   1.000  H
  O23      1.0000 0.64170  0.30474  0.87270  Biso   1.000  O
  H344     1.0000 0.75407  0.35579  0.92740  Biso   1.000  H
  C310     1.0000 0.76174  0.40135  0.97154  Biso   1.000  C
  H345     1.0000 0.13472  0.24249  0.17769  Biso   1.000  H
  C311     1.0000 0.13762  0.21188  0.24742  Biso   1.000  C
  N28      1.0000 0.14459  0.17882  0.32588  Biso   1.000  N
  O24      1.0000 0.85561  0.30354  0.96375  Biso   1.000  O
  H346     1.0000 0.99291  0.46140  0.16841  Biso   1.000  H
  C312     1.0000 0.02051  0.47960  0.10001  Biso   1.000  C
  H347     1.0000 0.06119  0.49500  0.19990  Biso   1.000  H
  H348     1.0000 0.01406  0.47451  0.19709  Biso   1.000  H
  H349     1.0000 0.08337  0.49930  0.19250  Biso   1.000  H
  C313     1.0000 0.00798  0.46189  0.10979  Biso   1.000  C
  C314     1.0000 0.86219  0.10285  0.36367  Biso   1.000  C
  C315     1.0000 0.72966  0.10740  0.23090  Biso   1.000  C
  C316     1.0000 0.40897  0.16305  0.97315  Biso   1.000  C
  N29      1.0000 0.40621  0.18216  0.92569  Biso   1.000  N
  H350     1.0000 0.37900  0.41909  0.12410  Biso   1.000  H
  H351     1.0000 0.30443  0.38710  0.08630  Biso   1.000  H
  C317     1.0000 0.24012  0.42560  0.10310  Biso   1.000  C
  C318     1.0000 0.69311  0.27303  0.90215  Biso   1.000  C
  H352     1.0000 0.76359  0.40889  0.01072  Biso   1.000  H
  H353     1.0000 0.82606  0.40940  0.98309  Biso   1.000  H
  C319     1.0000 0.66356  0.41730  0.89717  Biso   1.000  C
  N30      1.0000 0.13549  0.17818  0.22908  Biso   1.000  N
  C320     1.0000 0.14070  0.15904  0.27748  Biso   1.000  C
  H354     1.0000 0.14706  0.17161  0.36069  Biso   1.000  H
  C321     1.0000 0.80368  0.27234  0.95000  Biso   1.000  C
  C322     1.0000 0.92897  0.50699  0.05912  Biso   1.000  C
  H355     1.0000 0.99599  0.45859  0.07150  Biso   1.000  H
  C323     1.0000 0.93895  0.49061  0.05150  Biso   1.000  C
  H356     1.0000 0.08142  0.48800  0.10741  Biso   1.000  H
  H357     1.0000 0.06098  0.45399  0.10818  Biso   1.000  H
  H358     1.0000 0.96247  0.44260  0.09852  Biso   1.000  H
  C324     1.0000 0.94639  0.11649  0.44047  Biso   1.000  C
  C325     1.0000 0.84427  0.06761  0.35588  Biso   1.000  C
  C326     1.0000 0.71760  0.07211  0.23051  Biso   1.000  C
  C327     1.0000 0.67269  0.12659  0.15951  Biso   1.000  C
  C328     1.0000 0.40078  0.12531  0.96906  Biso   1.000  C
  H359     1.0000 0.40315  0.17481  0.89077  Biso   1.000  H
  H360     1.0000 0.17493  0.43490  0.05912  Biso   1.000  H
  H361     1.0000 0.22425  0.40741  0.12128  Biso   1.000  H
  H362     1.0000 0.27919  0.44311  0.14001  Biso   1.000  H
  C329     1.0000 0.63485  0.24339  0.88286  Biso   1.000  C
  H363     1.0000 0.59908  0.40830  0.88408  Biso   1.000  H
  H364     1.0000 0.66397  0.41091  0.85850  Biso   1.000  H
  C330     1.0000 0.66405  0.45639  0.90226  Biso   1.000  C
  C331     1.0000 0.14450  0.12158  0.27991  Biso   1.000  C
  C332     1.0000 0.86113  0.24262  0.97895  Biso   1.000  C
  H365     1.0000 0.90681  0.51210  0.01171  Biso   1.000  H
  H366     1.0000 0.95438  0.52751  0.08807  Biso   1.000  H
  H367     1.0000 0.86946  0.49830  0.05238  Biso   1.000  H
  H368     1.0000 0.98450  0.50949  0.06249  Biso   1.000  H
  H369     1.0000 0.88623  0.49810  0.05282  Biso   1.000  H
  H370     1.0000 0.90569  0.48190  0.00320  Biso   1.000  H
  H371     1.0000 0.95116  0.14079  0.43860  Biso   1.000  H
  H372     1.0000 0.92832  0.11100  0.46981  Biso   1.000  H
  H373     1.0000 0.01371  0.10630  0.46219  Biso   1.000  H
  H374     1.0000 0.88645  0.05399  0.39787  Biso   1.000  H
  N31      1.0000 0.76949  0.05259  0.29079  Biso   1.000  N
  H375     1.0000 0.66993  0.06130  0.18482  Biso   1.000  H
  H376     1.0000 0.68967  0.15040  0.16990  Biso   1.000  H
  H377     1.0000 0.59730  0.12360  0.12901  Biso   1.000  H
  H378     1.0000 0.69461  0.11800  0.13410  Biso   1.000  H
  C333     1.0000 0.32430  0.10880  0.96718  Biso   1.000  C
  C334     1.0000 0.46639  0.10599  0.96497  Biso   1.000  C
  C335     1.0000 0.69149  0.21319  0.91347  Biso   1.000  C
  H379     1.0000 0.56104  0.24380  0.85076  Biso   1.000  H
  H380     1.0000 0.70975  0.46631  0.89519  Biso   1.000  H
  H381     1.0000 0.69033  0.46319  0.95055  Biso   1.000  H
  C336     1.0000 0.54970  0.46861  0.84198  Biso   1.000  C
  H382     1.0000 0.65153  0.46291  0.93486  Biso   1.000  H
  H383     1.0000 0.73309  0.46511  0.92309  Biso   1.000  H
  C337     1.0000 0.57497  0.47229  0.82347  Biso   1.000  C
  C338     1.0000 0.07469  0.10272  0.28140  Biso   1.000  C
  C339     1.0000 0.21990  0.10408  0.28229  Biso   1.000  C
  C340     1.0000 0.80267  0.21288  0.96027  Biso   1.000  C
  H384     1.0000 0.93486  0.24239  0.00928  Biso   1.000  H
  C341     1.0000 0.31874  0.07331  0.96127  Biso   1.000  C
  C342     1.0000 0.24984  0.12620  0.97105  Biso   1.000  C
  C343     1.0000 0.45329  0.07060  0.95967  Biso   1.000  C
  C344     1.0000 0.55237  0.12079  0.96806  Biso   1.000  C
  N32      1.0000 0.65585  0.17958  0.90386  Biso   1.000  N
  C345     1.0000 0.54629  0.50770  0.85319  Biso   1.000  C
  H385     1.0000 0.52677  0.46449  0.79358  Biso   1.000  H
  H386     1.0000 0.50258  0.45639  0.84518  Biso   1.000  H
  H387     1.0000 0.50757  0.47190  0.81170  Biso   1.000  H
  H388     1.0000 0.59266  0.49590  0.82319  Biso   1.000  H
  C346     1.0000 0.56698  0.45169  0.76507  Biso   1.000  C
  C347     1.0000 0.99141  0.11790  0.28052  Biso   1.000  C
  C348     1.0000 0.08379  0.06733  0.28400  Biso   1.000  C
  C349     1.0000 0.30030  0.12155  0.28289  Biso   1.000  C
  C350     1.0000 0.22000  0.06861  0.28571  Biso   1.000  C
  N33      1.0000 0.83194  0.17933  0.97818  Biso   1.000  N
  H389     1.0000 0.26825  0.06199  0.95956  Biso   1.000  H
  N34      1.0000 0.38216  0.05440  0.95795  Biso   1.000  N
  H390     1.0000 0.26158  0.11821  0.01359  Biso   1.000  H
  H391     1.0000 0.26157  0.15040  0.97497  Biso   1.000  H
  H392     1.0000 0.17807  0.12120  0.92718  Biso   1.000  H
  H393     1.0000 0.49709  0.05749  0.95718  Biso   1.000  H
  H394     1.0000 0.60328  0.13259  0.01409  Biso   1.000  H
  H395     1.0000 0.58716  0.10270  0.96425  Biso   1.000  H
  H396     1.0000 0.52130  0.13650  0.92790  Biso   1.000  H
  C351     1.0000 0.74222  0.16019  0.94315  Biso   1.000  C
  C352     1.0000 0.42627  0.51611  0.79579  Biso   1.000  C
  H397     1.0000 0.58534  0.52061  0.84358  Biso   1.000  H
  H398     1.0000 0.57555  0.51251  0.90298  Biso   1.000  H
  C353     1.0000 0.47291  0.46291  0.68335  Biso   1.000  C
  H399     1.0000 0.63307  0.45389  0.77545  Biso   1.000  H
  H400     1.0000 0.55745  0.42770  0.77009  Biso   1.000  H
  H401     1.0000 0.99337  0.14230  0.27869  Biso   1.000  H
  H402     1.0000 0.92252  0.10980  0.23792  Biso   1.000  H
  H403     1.0000 0.00517  0.11120  0.32450  Biso   1.000  H
  H404     1.0000 0.03768  0.05471  0.28488  Biso   1.000  H
  N35      1.0000 0.15376  0.05001  0.28538  Biso   1.000  N
  H405     1.0000 0.29031  0.14580  0.28030  Biso   1.000  H
  H406     1.0000 0.29125  0.11409  0.24118  Biso   1.000  H
  H407     1.0000 0.37069  0.11591  0.32770  Biso   1.000  H
  H408     1.0000 0.27095  0.05701  0.28847  Biso   1.000  H
  H409     1.0000 0.89596  0.17161  0.00658  Biso   1.000  H
  C354     1.0000 0.74684  0.12291  0.94944  Biso   1.000  C
  H410     1.0000 0.41596  0.54000  0.79849  Biso   1.000  H
  H411     1.0000 0.38928  0.50280  0.80606  Biso   1.000  H
  H412     1.0000 0.39908  0.51080  0.74716  Biso   1.000  H
  Cl3      1.0000 0.46346  0.48767  0.62378  Biso   1.000  Cl
  H413     1.0000 0.47327  0.44901  0.65069  Biso   1.000  H
  H414     1.0000 0.48256  0.48639  0.67738  Biso   1.000  H
  H415     1.0000 0.40684  0.46020  0.67197  Biso   1.000  H
  C355     1.0000 0.81597  0.10709  0.01812  Biso   1.000  C
  C356     1.0000 0.68566  0.10216  0.88535  Biso   1.000  C
  C357     1.0000 0.82748  0.07139  0.02100  Biso   1.000  C
  C358     1.0000 0.87367  0.12751  0.09039  Biso   1.000  C
  C359     1.0000 0.60789  0.11591  0.80999  Biso   1.000  C
  C360     1.0000 0.70118  0.06669  0.89508  Biso   1.000  C
  H416     1.0000 0.87642  0.06099  0.06702  Biso   1.000  H
  N36      1.0000 0.77150  0.05180  0.96099  Biso   1.000  N
  H417     1.0000 0.91777  0.11230  0.13178  Biso   1.000  H
  H418     1.0000 0.82222  0.13801  0.09061  Biso   1.000  H
  H419     1.0000 0.91711  0.14491  0.09360  Biso   1.000  H
  H420     1.0000 0.60595  0.14031  0.81209  Biso   1.000  H
  H421     1.0000 0.53872  0.10681  0.78645  Biso   1.000  H
  H422     1.0000 0.62784  0.10949  0.78225  Biso   1.000  H
  H423     1.0000 0.66016  0.05279  0.85336  Biso   1.000  H
  C361     1.0000 0.23900  0.47219  0.60098  Biso   1.000  C
  H424     1.0000 0.24083  0.44760  0.59971  Biso   1.000  H
  H425     1.0000 0.21855  0.48110  0.55562  Biso   1.000  H
  H426     1.0000 0.30821  0.48059  0.64198  Biso   1.000  H
  C362     1.0000 0.15500  0.48389  0.60800  Biso   1.000  C
  C363     1.0000 0.19109  0.46350  0.62811  Biso   1.000  C
  H427     1.0000 0.18607  0.46549  0.58618  Biso   1.000  H
  H428     1.0000 0.17490  0.47469  0.65259  Biso   1.000  H
  H429     1.0000 0.08503  0.47520  0.56601  Biso   1.000  H
  C364     1.0000 0.15197  0.52480  0.60888  Biso   1.000  C
  C365     1.0000 0.08808  0.48070  0.60888  Biso   1.000  C
  H430     1.0000 0.19482  0.43989  0.63999  Biso   1.000  H
  H431     1.0000 0.25403  0.47510  0.66961  Biso   1.000  H
  H432     1.0000 0.21707  0.53390  0.62319  Biso   1.000  H
  H433     1.0000 0.09299  0.53310  0.55971  Biso   1.000  H
  C366     1.0000 0.13936  0.53809  0.66408  Biso   1.000  C
  C367     1.0000 0.05697  0.51859  0.58717  Biso   1.000  C
  H434     1.0000 0.08240  0.52490  0.56231  Biso   1.000  H
  H435     1.0000 0.02740  0.46741  0.56877  Biso   1.000  H
  H436     1.0000 0.09480  0.47689  0.65148  Biso   1.000  H
  H437     1.0000 0.20569  0.53530  0.71458  Biso   1.000  H
  H438     1.0000 0.08472  0.52521  0.65800  Biso   1.000  H
  C368     1.0000 0.10678  0.57859  0.64740  Biso   1.000  C
  C369     1.0000 0.08499  0.54749  0.63629  Biso   1.000  C
  H439     1.0000 0.97998  0.51879  0.54960  Biso   1.000  H
  C370     1.0000 0.19889  0.59801  0.71740  Biso   1.000  C
  H440     1.0000 0.09739  0.58610  0.60507  Biso   1.000  H
  H441     1.0000 0.04097  0.58239  0.63717  Biso   1.000  H
  H442     1.0000 0.04023  0.59880  0.61590  Biso   1.000  H
  H443     1.0000 0.12090  0.59049  0.60502  Biso   1.000  H
  C371     1.0000 0.10401  0.58610  0.63590  Biso   1.000  C
  H444     1.0000 0.14969  0.53990  0.68408  Biso   1.000  H
  H445     1.0000 0.03066  0.54690  0.63988  Biso   1.000  H
  H446     1.0000 0.20190  0.59101  0.75729  Biso   1.000  H
  H447     1.0000 0.26449  0.59049  0.73016  Biso   1.000  H
  C372     1.0000 0.19729  0.63720  0.71541  Biso   1.000  C
  H448     1.0000 0.18939  0.58970  0.75061  Biso   1.000  H
  H449     1.0000 0.26591  0.58940  0.73398  Biso   1.000  H
  C373     1.0000 0.30004  0.65231  0.78481  Biso   1.000  C
  C374     1.0000 0.10033  0.65269  0.70022  Biso   1.000  C
  H450     1.0000 0.19237  0.64390  0.67408  Biso   1.000  H
  C375     1.0000 0.34710  0.68075  0.78111  Biso   1.000  C
  C376     1.0000 0.35418  0.63848  0.85498  Biso   1.000  C
  C377     1.0000 0.04977  0.68103  0.65519  Biso   1.000  C
  C378     1.0000 0.06060  0.63933  0.73099  Biso   1.000  C
  C379     1.0000 0.44321  0.69373  0.84222  Biso   1.000  C
  O25      1.0000 0.29816  0.69539  0.71176  Biso   1.000  O
  C380     1.0000 0.45186  0.65154  0.91918  Biso   1.000  C
  H451     1.0000 0.32449  0.61980  0.85951  Biso   1.000  H
  O26      1.0000 0.08440  0.69539  0.62132  Biso   1.000  O
  C381     1.0000 0.96109  0.69534  0.63999  Biso   1.000  C
  H452     1.0000 0.09422  0.62029  0.76149  Biso   1.000  H
  C382     1.0000 0.97317  0.65287  0.71867  Biso   1.000  C
  C383     1.0000 0.49349  0.67924  0.91090  Biso   1.000  C
  H453     1.0000 0.47417  0.71200  0.83757  Biso   1.000  H
  C384     1.0000 0.24834  0.72697  0.69917  Biso   1.000  C
  C385     1.0000 0.50820  0.63565  0.99460  Biso   1.000  C
  C386     1.0000 0.13683  0.72687  0.65121  Biso   1.000  C
  H454     1.0000 0.92597  0.71371  0.60767  Biso   1.000  H
  C387     1.0000 0.92635  0.68210  0.67287  Biso   1.000  C
  C388     1.0000 0.92740  0.63815  0.75050  Biso   1.000  C
  O27      1.0000 0.59308  0.69227  0.97278  Biso   1.000  O
  C389     1.0000 0.30587  0.75623  0.72840  Biso   1.000  C
  C390     1.0000 0.50879  0.59650  0.99377  Biso   1.000  C
  C391     1.0000 0.46518  0.65134  0.02831  Biso   1.000  C
  H455     1.0000 0.58272  0.64280  0.02632  Biso   1.000  H
  C392     1.0000 0.08043  0.75659  0.63231  Biso   1.000  C
  O28      1.0000 0.83518  0.69582  0.65618  Biso   1.000  O
  C393     1.0000 0.98557  0.65353  0.82697  Biso   1.000  C
  H456     1.0000 0.85371  0.64620  0.71889  Biso   1.000  H
  C394     1.0000 0.92247  0.59880  0.74989  Biso   1.000  C
  C395     1.0000 0.58978  0.72390  0.99858  Biso   1.000  C
  H457     1.0000 0.37956  0.75620  0.75867  Biso   1.000  H
  C396     1.0000 0.24849  0.78656  0.71060  Biso   1.000  C
  H458     1.0000 0.43605  0.58830  0.96267  Biso   1.000  H
  C397     1.0000 0.56008  0.58173  0.96587  Biso   1.000  C
  H459     1.0000 0.54652  0.58819  0.04350  Biso   1.000  H
  C398     1.0000 0.51481  0.67965  0.07450  Biso   1.000  C
  C399     1.0000 0.37562  0.63869  0.01444  Biso   1.000  C
  C400     1.0000 0.13821  0.78692  0.66381  Biso   1.000  C
  H460     1.0000 0.00652  0.75651  0.59960  Biso   1.000  H
  C401     1.0000 0.85034  0.72720  0.68878  Biso   1.000  C
  C402     1.0000 0.08209  0.63968  0.89139  Biso   1.000  C
  C403     1.0000 0.94746  0.68202  0.83669  Biso   1.000  C
  C404     1.0000 0.85647  0.58531  0.76867  Biso   1.000  C
  H461     1.0000 0.89144  0.59060  0.70138  Biso   1.000  H
  H462     1.0000 0.99423  0.58980  0.78542  Biso   1.000  H
  C405     1.0000 0.58685  0.75398  0.96736  Biso   1.000  C
  C406     1.0000 0.59502  0.72380  0.05930  Biso   1.000  C
  N37      1.0000 0.28168  0.81983  0.72917  Biso   1.000  N
  H463     1.0000 0.52091  0.58950  0.91570  Biso   1.000  H
  H464     1.0000 0.55450  0.55700  0.96471  Biso   1.000  H
  C407     1.0000 0.67761  0.59149  0.01289  Biso   1.000  C
  O29      1.0000 0.60794  0.69273  0.09223  Biso   1.000  O
  C408     1.0000 0.48201  0.69380  0.10853  Biso   1.000  C
  H465     1.0000 0.34017  0.62011  0.98278  Biso   1.000  H
  C409     1.0000 0.33690  0.65261  0.04571  Biso   1.000  C
  N38      1.0000 0.10429  0.82029  0.65380  Biso   1.000  N
  C410     1.0000 0.85574  0.72789  0.75017  Biso   1.000  C
  C411     1.0000 0.84945  0.75735  0.65839  Biso   1.000  C
  C412     1.0000 0.13788  0.65312  0.96178  Biso   1.000  C
  H466     1.0000 0.10970  0.62049  0.88636  Biso   1.000  H
  O30      1.0000 0.84968  0.69649  0.77470  Biso   1.000  O
  C413     1.0000 0.99902  0.69646  0.90520  Biso   1.000  C
  H467     1.0000 0.88550  0.59520  0.81558  Biso   1.000  H
  H468     1.0000 0.78472  0.59400  0.73171  Biso   1.000  H
  C414     1.0000 0.84937  0.54780  0.77381  Biso   1.000  C
  H469     1.0000 0.78854  0.59701  0.73867  Biso   1.000  H
  H470     1.0000 0.89368  0.58991  0.82017  Biso   1.000  H
  C415     1.0000 0.83797  0.54629  0.75431  Biso   1.000  C
  H471     1.0000 0.58519  0.75380  0.92808  Biso   1.000  H
  C416     1.0000 0.58638  0.78426  0.99626  Biso   1.000  C
  C417     1.0000 0.59668  0.75360  0.08931  Biso   1.000  C
  H472     1.0000 0.34629  0.82701  0.75757  Biso   1.000  H
  C418     1.0000 0.19230  0.83927  0.69381  Biso   1.000  C
  C419     1.0000 0.73466  0.57601  0.98847  Biso   1.000  C
  H473     1.0000 0.71559  0.58449  0.06350  Biso   1.000  H
  H474     1.0000 0.68230  0.61620  0.01262  Biso   1.000  H
  C420     1.0000 0.39164  0.68085  0.09262  Biso   1.000  C
  H475     1.0000 0.51976  0.71179  0.14174  Biso   1.000  H
  C421     1.0000 0.24041  0.63754  0.03101  Biso   1.000  C
  C422     1.0000 0.86178  0.75761  0.78221  Biso   1.000  C
  C423     1.0000 0.85617  0.78784  0.69121  Biso   1.000  C
  H476     1.0000 0.84458  0.75730  0.61767  Biso   1.000  H
  C424     1.0000 0.09457  0.68220  0.96648  Biso   1.000  C
  H477     1.0000 0.97029  0.71529  0.91018  Biso   1.000  H
  C425     1.0000 0.94897  0.52679  0.82349  Biso   1.000  C
  H478     1.0000 0.80728  0.53860  0.72420  Biso   1.000  H
  H479     1.0000 0.80929  0.54399  0.78917  Biso   1.000  H
  H480     1.0000 0.78190  0.53959  0.75381  Biso   1.000  H
  C426     1.0000 0.93700  0.52439  0.81172  Biso   1.000  C
  H481     1.0000 0.81368  0.54159  0.70580  Biso   1.000  H
  N39      1.0000 0.58681  0.81766  0.97841  Biso   1.000  N
  C427     1.0000 0.59090  0.78439  0.05660  Biso   1.000  C
  H482     1.0000 0.60150  0.75360  0.13003  Biso   1.000  H
  C428     1.0000 0.19845  0.87656  0.69977  Biso   1.000  C
  H483     1.0000 0.72777  0.55130  0.98687  Biso   1.000  H
  C429     1.0000 0.69430  0.58809  0.91410  Biso   1.000  C
  H484     1.0000 0.80990  0.58140  0.02571  Biso   1.000  H
  O31      1.0000 0.35833  0.69526  0.12732  Biso   1.000  O
  H485     1.0000 0.24595  0.64421  0.07262  Biso   1.000  H
  C430     1.0000 0.23824  0.59865  0.02842  Biso   1.000  C
  H486     1.0000 0.86525  0.75751  0.82227  Biso   1.000  H
  C431     1.0000 0.86241  0.78812  0.75260  Biso   1.000  C
  N40      1.0000 0.85538  0.82118  0.67408  Biso   1.000  N
  O32      1.0000 0.14430  0.69646  0.03621  Biso   1.000  O
  H487     1.0000 0.00711  0.53860  0.83161  Biso   1.000  H
  C432     1.0000 0.97952  0.52040  0.90001  Biso   1.000  C
  H488     1.0000 0.93878  0.50500  0.80011  Biso   1.000  H
  H489     1.0000 0.98585  0.52549  0.80288  Biso   1.000  H
  H490     1.0000 0.91659  0.50070  0.80752  Biso   1.000  H
  C433     1.0000 0.99199  0.53809  0.89018  Biso   1.000  C
  C434     1.0000 0.59100  0.83695  0.02682  Biso   1.000  C
  N41      1.0000 0.59382  0.81784  0.07433  Biso   1.000  N
  C435     1.0000 0.13779  0.89715  0.63629  Biso   1.000  C
  C436     1.0000 0.27031  0.89260  0.76912  Biso   1.000  C
  H491     1.0000 0.62098  0.58089  0.87586  Biso   1.000  H
  H492     1.0000 0.69560  0.61290  0.91371  Biso   1.000  H
  C437     1.0000 0.75991  0.57440  0.89692  Biso   1.000  C
  C438     1.0000 0.30680  0.72697  0.09781  Biso   1.000  C
  H493     1.0000 0.23638  0.59111  0.98930  Biso   1.000  H
  H494     1.0000 0.17391  0.59060  0.01692  Biso   1.000  H
  C439     1.0000 0.33646  0.58270  0.10284  Biso   1.000  C
  N42      1.0000 0.86448  0.82180  0.77088  Biso   1.000  N
  C440     1.0000 0.85928  0.84096  0.72248  Biso   1.000  C
  H495     1.0000 0.85285  0.82839  0.63927  Biso   1.000  H
  C441     1.0000 0.19634  0.72766  0.05002  Biso   1.000  C
  C442     1.0000 0.07099  0.49301  0.94090  Biso   1.000  C
  H496     1.0000 0.00398  0.54141  0.92847  Biso   1.000  H
  C443     1.0000 0.06096  0.50939  0.94847  Biso   1.000  C
  H497     1.0000 0.91860  0.51200  0.89261  Biso   1.000  H
  H498     1.0000 0.93899  0.54601  0.89178  Biso   1.000  H
  H499     1.0000 0.03749  0.55740  0.90150  Biso   1.000  H
  C444     1.0000 0.59919  0.87469  0.03090  Biso   1.000  C
  H500     1.0000 0.59682  0.82519  0.10920  Biso   1.000  H
  C445     1.0000 0.05359  0.88351  0.55949  Biso   1.000  C
  C446     1.0000 0.15570  0.93239  0.64408  Biso   1.000  C
  C447     1.0000 0.28243  0.92789  0.76950  Biso   1.000  C
  C448     1.0000 0.32728  0.87339  0.84050  Biso   1.000  C
  H501     1.0000 0.82510  0.56510  0.94090  Biso   1.000  H
  H502     1.0000 0.77566  0.59259  0.87868  Biso   1.000  H
  H503     1.0000 0.72078  0.55689  0.86001  Biso   1.000  H
  C449     1.0000 0.36512  0.75659  0.11710  Biso   1.000  C
  H504     1.0000 0.40095  0.59170  0.11594  Biso   1.000  H
  H505     1.0000 0.33599  0.58909  0.14152  Biso   1.000  H
  C450     1.0000 0.33593  0.54361  0.09770  Biso   1.000  C
  C451     1.0000 0.85552  0.87842  0.72011  Biso   1.000  C
  C452     1.0000 0.13884  0.75738  0.02101  Biso   1.000  C
  H506     1.0000 0.09321  0.48790  0.98830  Biso   1.000  H
  H507     1.0000 0.04559  0.47249  0.91189  Biso   1.000  H
  H508     1.0000 0.13051  0.50170  0.94758  Biso   1.000  H
  H509     1.0000 0.01548  0.49051  0.93747  Biso   1.000  H
  H510     1.0000 0.11380  0.50190  0.94720  Biso   1.000  H
  H511     1.0000 0.09433  0.51810  0.99681  Biso   1.000  H
  C453     1.0000 0.67572  0.89120  0.03284  Biso   1.000  C
  C454     1.0000 0.53358  0.89401  0.03499  Biso   1.000  C
  H512     1.0000 0.04875  0.85921  0.56137  Biso   1.000  H
  H513     1.0000 0.07171  0.88900  0.53020  Biso   1.000  H
  H514     1.0000 0.98627  0.89370  0.53777  Biso   1.000  H
  H515     1.0000 0.11346  0.94601  0.60209  Biso   1.000  H
  N43      1.0000 0.23048  0.94739  0.70917  Biso   1.000  N
  H516     1.0000 0.33010  0.93870  0.81520  Biso   1.000  H
  H517     1.0000 0.31029  0.84960  0.83012  Biso   1.000  H
  H518     1.0000 0.40272  0.87640  0.87100  Biso   1.000  H
  H519     1.0000 0.30537  0.88200  0.86586  Biso   1.000  H
  C455     1.0000 0.30854  0.78681  0.08654  Biso   1.000  C
  H520     1.0000 0.43887  0.75620  0.14920  Biso   1.000  H
  H521     1.0000 0.29021  0.53369  0.10483  Biso   1.000  H
  H522     1.0000 0.30959  0.53681  0.04941  Biso   1.000  H
  C456     1.0000 0.45033  0.53139  0.15804  Biso   1.000  C
  H523     1.0000 0.34838  0.53709  0.06511  Biso   1.000  H
  H524     1.0000 0.26693  0.53489  0.07693  Biso   1.000  H
  C457     1.0000 0.42500  0.52769  0.17649  Biso   1.000  C
  C458     1.0000 0.92527  0.89728  0.71862  Biso   1.000  C
  C459     1.0000 0.78007  0.89592  0.71768  Biso   1.000  C
  H525     1.0000 0.06511  0.75761  0.99068  Biso   1.000  H
  C460     1.0000 0.19736  0.78712  0.03974  Biso   1.000  C
  C461     1.0000 0.68118  0.92669  0.03869  Biso   1.000  C
  C462     1.0000 0.75007  0.87380  0.02891  Biso   1.000  C
  C463     1.0000 0.54669  0.92940  0.04030  Biso   1.000  C
  C464     1.0000 0.44760  0.87919  0.03190  Biso   1.000  C
  N44      1.0000 0.34412  0.82042  0.09610  Biso   1.000  N
  C465     1.0000 0.45373  0.49230  0.14682  Biso   1.000  C
  H526     1.0000 0.47325  0.53551  0.20644  Biso   1.000  H
  H527     1.0000 0.49745  0.54361  0.15484  Biso   1.000  H
  H528     1.0000 0.49239  0.52810  0.18832  Biso   1.000  H
  H529     1.0000 0.40730  0.50410  0.17683  Biso   1.000  H
  C466     1.0000 0.43299  0.54831  0.23490  Biso   1.000  C
  C467     1.0000 0.00862  0.88210  0.71950  Biso   1.000  C
  C468     1.0000 0.91613  0.93267  0.71596  Biso   1.000  C
  C469     1.0000 0.69967  0.87845  0.71707  Biso   1.000  C
  C470     1.0000 0.78003  0.93139  0.71431  Biso   1.000  C
  N45      1.0000 0.16803  0.82067  0.02184  Biso   1.000  N
  H530     1.0000 0.73172  0.93801  0.04041  Biso   1.000  H
  N46      1.0000 0.61782  0.94560  0.04201  Biso   1.000  N
  H531     1.0000 0.73839  0.88179  0.98637  Biso   1.000  H
  H532     1.0000 0.73841  0.84960  0.02499  Biso   1.000  H
  H533     1.0000 0.82195  0.87880  0.07284  Biso   1.000  H
  H534     1.0000 0.50293  0.94251  0.04284  Biso   1.000  H
  H535     1.0000 0.39669  0.86741  0.98587  Biso   1.000  H
  H536     1.0000 0.41281  0.89730  0.03571  Biso   1.000  H
  H537     1.0000 0.47873  0.86350  0.07212  Biso   1.000  H
  C471     1.0000 0.25769  0.83979  0.05682  Biso   1.000  C
  C472     1.0000 0.57376  0.48389  0.20423  Biso   1.000  C
  H538     1.0000 0.41462  0.47939  0.15644  Biso   1.000  H
  H539     1.0000 0.42442  0.48749  0.09704  Biso   1.000  H
  C473     1.0000 0.52700  0.53709  0.31662  Biso   1.000  C
  H540     1.0000 0.36691  0.54611  0.22451  Biso   1.000  H
  H541     1.0000 0.44251  0.57230  0.22992  Biso   1.000  H
  H542     1.0000 0.00660  0.85770  0.72127  Biso   1.000  H
  H543     1.0000 0.07750  0.89020  0.76210  Biso   1.000  H
  H544     1.0000 0.99479  0.88880  0.67552  Biso   1.000  H
  H545     1.0000 0.96229  0.94529  0.71508  Biso   1.000  H
  N47      1.0000 0.84615  0.94999  0.71458  Biso   1.000  N
  H546     1.0000 0.70966  0.85420  0.71967  Biso   1.000  H
  H547     1.0000 0.70866  0.88591  0.75878  Biso   1.000  H
  H548     1.0000 0.62933  0.88409  0.67231  Biso   1.000  H
  H549     1.0000 0.72896  0.94299  0.71149  Biso   1.000  H
  H550     1.0000 0.10402  0.82839  0.99339  Biso   1.000  H
  C474     1.0000 0.25313  0.87709  0.05052  Biso   1.000  C
  H551     1.0000 0.58401  0.46000  0.20152  Biso   1.000  H
  H552     1.0000 0.61069  0.49720  0.19390  Biso   1.000  H
  H553     1.0000 0.60090  0.48920  0.25280  Biso   1.000  H
  Cl4      1.0000 0.53656  0.51233  0.37623  Biso   1.000  Cl
  H554     1.0000 0.52670  0.55099  0.34932  Biso   1.000  H
  H555     1.0000 0.51746  0.51361  0.32264  Biso   1.000  H
  H556     1.0000 0.59307  0.53980  0.32800  Biso   1.000  H
  C475     1.0000 0.18399  0.89291  0.98189  Biso   1.000  C
  C476     1.0000 0.31432  0.89782  0.11461  Biso   1.000  C
  C477     1.0000 0.17249  0.92861  0.97897  Biso   1.000  C
  C478     1.0000 0.12630  0.87249  0.90957  Biso   1.000  C
  C479     1.0000 0.39213  0.88409  0.19003  Biso   1.000  C
  C480     1.0000 0.29885  0.93331  0.10494  Biso   1.000  C
  H557     1.0000 0.12361  0.93901  0.93300  Biso   1.000  H
  N48      1.0000 0.22853  0.94820  0.03903  Biso   1.000  N
  H558     1.0000 0.08220  0.88770  0.86818  Biso   1.000  H
  H559     1.0000 0.17781  0.86199  0.90940  Biso   1.000  H
  H560     1.0000 0.08287  0.85509  0.90636  Biso   1.000  H
  H561     1.0000 0.39401  0.85969  0.18793  Biso   1.000  H
  H562     1.0000 0.46119  0.89319  0.21351  Biso   1.000  H
  H563     1.0000 0.37213  0.89051  0.21771  Biso   1.000  H
  H564     1.0000 0.33982  0.94721  0.14660  Biso   1.000  H
