data_image0
_cell_length_a       32.968
_cell_length_b       16.014
_cell_length_c       28.885
_cell_angle_alpha    90
_cell_angle_beta     104.41
_cell_angle_gamma    90

_symmetry_space_group_name_H-M    "P 1"
_symmetry_int_tables_number       1

loop_
  _symmetry_equiv_pos_as_xyz
  'x, y, z'

loop_
  _atom_site_label
  _atom_site_occupancy
  _atom_site_fract_x
  _atom_site_fract_y
  _atom_site_fract_z
  _atom_site_thermal_displace_type
  _atom_site_B_iso_or_equiv
  _atom_site_type_symbol
  C1       1.0000 0.46688  0.56319  0.43380  Biso   1.000  C
  C2       1.0000 0.46017  0.64450  0.41092  Biso   1.000  C
  H1       1.0000 0.48080  0.59848  0.41860  Biso   1.000  H
  C3       1.0000 0.43509  0.63688  0.43741  Biso   1.000  C
  H2       1.0000 0.44049  0.54321  0.43991  Biso   1.000  H
  H3       1.0000 0.48811  0.56788  0.46421  Biso   1.000  H
  H4       1.0000 0.47640  0.52360  0.41289  Biso   1.000  H
  C4       1.0000 0.44150  0.64437  0.35648  Biso   1.000  C
  H5       1.0000 0.48741  0.67410  0.41760  Biso   1.000  H
  H6       1.0000 0.44129  0.67710  0.42590  Biso   1.000  H
  H7       1.0000 0.47579  0.69739  0.41939  Biso   1.000  H
  H8       1.0000 0.45088  0.63732  0.47101  Biso   1.000  H
  H9       1.0000 0.41978  0.58411  0.43019  Biso   1.000  H
  H10      1.0000 0.41521  0.68353  0.43162  Biso   1.000  H
  C5       1.0000 0.43541  0.73248  0.33550  Biso   1.000  C
  H11      1.0000 0.46028  0.61278  0.34090  Biso   1.000  H
  H12      1.0000 0.41409  0.61540  0.34930  Biso   1.000  H
  C6       1.0000 0.40492  0.73180  0.28610  Biso   1.000  C
  C7       1.0000 0.47582  0.77863  0.33593  Biso   1.000  C
  H13      1.0000 0.42139  0.76533  0.35659  Biso   1.000  H
  C8       1.0000 0.36249  0.71868  0.28206  Biso   1.000  C
  C9       1.0000 0.41839  0.73729  0.24406  Biso   1.000  C
  C10      1.0000 0.51366  0.73760  0.33836  Biso   1.000  C
  C11      1.0000 0.47582  0.86562  0.33539  Biso   1.000  C
  C12      1.0000 0.33529  0.70582  0.23717  Biso   1.000  C
  O1       1.0000 0.34714  0.71219  0.32295  Biso   1.000  O
  C13      1.0000 0.39145  0.73067  0.19856  Biso   1.000  C
  H14      1.0000 0.44740  0.74597  0.24649  Biso   1.000  H
  H15      1.0000 0.51380  0.67828  0.33889  Biso   1.000  H
  C14      1.0000 0.55122  0.77901  0.33997  Biso   1.000  C
  C15      1.0000 0.51337  0.90808  0.33929  Biso   1.000  C
  O2       1.0000 0.44119  0.91376  0.33125  Biso   1.000  O
  O3       1.0000 0.29369  0.68184  0.23420  Biso   1.000  O
  C16      1.0000 0.34916  0.71469  0.19645  Biso   1.000  C
  S1       1.0000 0.33184  0.79799  0.34390  Biso   1.000  S
  C17      1.0000 0.40698  0.73467  0.15349  Biso   1.000  C
  C18      1.0000 0.55044  0.86618  0.33861  Biso   1.000  C
  C19      1.0000 0.59299  0.73467  0.34651  Biso   1.000  C
  O4       1.0000 0.51321  0.99588  0.34422  Biso   1.000  O
  H16      1.0000 0.42058  0.88323  0.33160  Biso   1.000  H
  S2       1.0000 0.28644  0.58355  0.24464  Biso   1.000  S
  O5       1.0000 0.32070  0.70082  0.15202  Biso   1.000  O
  C20      1.0000 0.28278  0.81728  0.30419  Biso   1.000  C
  O6       1.0000 0.32820  0.77382  0.38983  Biso   1.000  O
  O7       1.0000 0.36122  0.86212  0.34065  Biso   1.000  O
  C21      1.0000 0.44876  0.77901  0.16006  Biso   1.000  C
  H17      1.0000 0.38600  0.76870  0.13000  Biso   1.000  H
  C22      1.0000 0.40635  0.64681  0.13154  Biso   1.000  C
  O8       1.0000 0.58624  0.90721  0.33864  Biso   1.000  O
  H18      1.0000 0.61398  0.76870  0.36999  Biso   1.000  H
  C23      1.0000 0.60853  0.73067  0.30147  Biso   1.000  C
  C24      1.0000 0.59365  0.64681  0.36846  Biso   1.000  C
  S3       1.0000 0.52766  0.03066  0.39912  Biso   1.000  S
  C25      1.0000 0.26885  0.54028  0.18687  Biso   1.000  C
  O9       1.0000 0.32566  0.54958  0.26909  Biso   1.000  O
  O10      1.0000 0.25338  0.58493  0.26801  Biso   1.000  O
  S4       1.0000 0.29053  0.77751  0.12632  Biso   1.000  S
  C26      1.0000 0.24798  0.77108  0.31041  Biso   1.000  C
  C27      1.0000 0.27976  0.87099  0.26519  Biso   1.000  C
  C28      1.0000 0.48632  0.73760  0.16167  Biso   1.000  C
  C29      1.0000 0.44956  0.86618  0.16139  Biso   1.000  C
  H19      1.0000 0.42850  0.61271  0.15259  Biso   1.000  H
  H20      1.0000 0.37910  0.62027  0.13079  Biso   1.000  H
  C30      1.0000 0.41293  0.64550  0.08118  Biso   1.000  C
  H21      1.0000 0.58089  0.95772  0.33189  Biso   1.000  H
  C31      1.0000 0.58162  0.73729  0.25597  Biso   1.000  C
  C32      1.0000 0.65084  0.71469  0.30354  Biso   1.000  C
  H22      1.0000 0.57150  0.61271  0.34740  Biso   1.000  H
  H23      1.0000 0.62090  0.62027  0.36921  Biso   1.000  H
  C33      1.0000 0.58704  0.64550  0.41882  Biso   1.000  C
  C34      1.0000 0.49365  0.97902  0.42843  Biso   1.000  C
  O11      1.0000 0.51908  0.11758  0.39355  Biso   1.000  O
  O12      1.0000 0.56983  0.00531  0.41864  Biso   1.000  O
  C35      1.0000 0.29519  0.48770  0.16804  Biso   1.000  C
  C36      1.0000 0.22742  0.55789  0.16174  Biso   1.000  C
  C37      1.0000 0.30479  0.78313  0.07127  Biso   1.000  C
  O13      1.0000 0.30280  0.84988  0.15492  Biso   1.000  O
  O14      1.0000 0.24883  0.74678  0.11860  Biso   1.000  O
  C38      1.0000 0.21060  0.78019  0.27641  Biso   1.000  C
  C39      1.0000 0.24844  0.71132  0.35094  Biso   1.000  C
  C40      1.0000 0.24141  0.87617  0.23230  Biso   1.000  C
  C41      1.0000 0.31473  0.92538  0.25611  Biso   1.000  C
  C42      1.0000 0.52416  0.77863  0.16410  Biso   1.000  C
  H24      1.0000 0.48620  0.67828  0.16110  Biso   1.000  H
  C43      1.0000 0.48660  0.90808  0.16071  Biso   1.000  C
  O15      1.0000 0.41374  0.90721  0.16139  Biso   1.000  O
  H25      1.0000 0.39300  0.68471  0.06069  Biso   1.000  H
  H26      1.0000 0.44170  0.66492  0.08221  Biso   1.000  H
  C44      1.0000 0.40670  0.55920  0.05941  Biso   1.000  C
  C45      1.0000 0.59505  0.73180  0.21390  Biso   1.000  C
  H27      1.0000 0.55260  0.74597  0.25350  Biso   1.000  H
  C46      1.0000 0.66468  0.70582  0.26283  Biso   1.000  C
  O16      1.0000 0.67927  0.70082  0.34797  Biso   1.000  O
  H28      1.0000 0.60698  0.68471  0.43930  Biso   1.000  H
  H29      1.0000 0.55828  0.66492  0.41782  Biso   1.000  H
  C47      1.0000 0.59327  0.55920  0.44059  Biso   1.000  C
  C48      1.0000 0.50686  0.90789  0.45603  Biso   1.000  C
  C49      1.0000 0.45208  0.00968  0.42129  Biso   1.000  C
  C50      1.0000 0.27736  0.44929  0.12421  Biso   1.000  C
  C51      1.0000 0.34110  0.47090  0.19009  Biso   1.000  C
  C52      1.0000 0.21246  0.51680  0.11774  Biso   1.000  C
  C53      1.0000 0.19938  0.61990  0.17740  Biso   1.000  C
  C54      1.0000 0.32170  0.85737  0.05730  Biso   1.000  C
  C55      1.0000 0.29910  0.71088  0.04282  Biso   1.000  C
  H30      1.0000 0.18669  0.75078  0.28042  Biso   1.000  H
  C56      1.0000 0.20681  0.83102  0.23663  Biso   1.000  C
  H31      1.0000 0.25290  0.74248  0.38100  Biso   1.000  H
  H32      1.0000 0.27111  0.67079  0.35319  Biso   1.000  H
  H33      1.0000 0.22159  0.68178  0.34490  Biso   1.000  H
  H34      1.0000 0.23868  0.91239  0.20560  Biso   1.000  H
  H35      1.0000 0.30460  0.95610  0.22608  Biso   1.000  H
  H36      1.0000 0.33849  0.89022  0.25379  Biso   1.000  H
  H37      1.0000 0.32370  0.96509  0.28249  Biso   1.000  H
  C57      1.0000 0.52415  0.86562  0.16460  Biso   1.000  C
  C58      1.0000 0.56459  0.73248  0.16450  Biso   1.000  C
  O17      1.0000 0.48677  0.99588  0.15577  Biso   1.000  O
  H38      1.0000 0.41909  0.95772  0.16811  Biso   1.000  H
  H39      1.0000 0.42699  0.52067  0.07900  Biso   1.000  H
  H40      1.0000 0.41088  0.56101  0.02699  Biso   1.000  H
  H41      1.0000 0.37820  0.54003  0.05808  Biso   1.000  H
  C59      1.0000 0.63748  0.71868  0.21793  Biso   1.000  C
  O18      1.0000 0.70629  0.68184  0.26583  Biso   1.000  O
  S5       1.0000 0.70948  0.77751  0.37367  Biso   1.000  S
  H42      1.0000 0.57299  0.52067  0.42100  Biso   1.000  H
  H43      1.0000 0.58909  0.56101  0.47301  Biso   1.000  H
  H44      1.0000 0.62180  0.54003  0.44191  Biso   1.000  H
  C60      1.0000 0.47788  0.86830  0.47576  Biso   1.000  C
  C61      1.0000 0.54977  0.86893  0.46561  Biso   1.000  C
  C62      1.0000 0.42555  0.96522  0.44259  Biso   1.000  C
  C63      1.0000 0.43539  0.08449  0.39162  Biso   1.000  C
  C64      1.0000 0.23647  0.46272  0.09891  Biso   1.000  C
  H45      1.0000 0.29420  0.41239  0.11120  Biso   1.000  H
  H46      1.0000 0.34409  0.43830  0.21951  Biso   1.000  H
  H47      1.0000 0.35599  0.52410  0.19760  Biso   1.000  H
  H48      1.0000 0.35298  0.43949  0.16750  Biso   1.000  H
  H49      1.0000 0.18440  0.52691  0.10019  Biso   1.000  H
  H50      1.0000 0.17341  0.62589  0.15231  Biso   1.000  H
  H51      1.0000 0.21359  0.67397  0.18330  Biso   1.000  H
  H52      1.0000 0.19289  0.60022  0.20689  Biso   1.000  H
  C65      1.0000 0.33520  0.85300  0.01555  Biso   1.000  C
  C66      1.0000 0.32500  0.94030  0.08271  Biso   1.000  C
  C67      1.0000 0.31342  0.71288  0.00122  Biso   1.000  C
  C68      1.0000 0.27941  0.63132  0.05405  Biso   1.000  C
  C69      1.0000 0.16552  0.83702  0.19920  Biso   1.000  C
  O19      1.0000 0.55882  0.91376  0.16875  Biso   1.000  O
  H53      1.0000 0.57859  0.76533  0.14341  Biso   1.000  H
  C70      1.0000 0.55847  0.64437  0.14351  Biso   1.000  C
  S6       1.0000 0.47232  0.03066  0.10091  Biso   1.000  S
  O20      1.0000 0.65286  0.71219  0.17704  Biso   1.000  O
  S7       1.0000 0.71353  0.58355  0.25536  Biso   1.000  S
  C71      1.0000 0.69518  0.78313  0.42872  Biso   1.000  C
  O21      1.0000 0.69718  0.84988  0.34511  Biso   1.000  O
  O22      1.0000 0.75117  0.74678  0.38139  Biso   1.000  O
  C72      1.0000 0.43742  0.89459  0.46990  Biso   1.000  C
  H54      1.0000 0.48660  0.81978  0.49460  Biso   1.000  H
  H55      1.0000 0.55038  0.81828  0.48480  Biso   1.000  H
  H56      1.0000 0.57069  0.90858  0.48309  Biso   1.000  H
  H57      1.0000 0.55618  0.85463  0.43519  Biso   1.000  H
  H58      1.0000 0.39759  0.98451  0.43819  Biso   1.000  H
  H59      1.0000 0.40479  0.08592  0.38579  Biso   1.000  H
  H60      1.0000 0.44318  0.08130  0.36109  Biso   1.000  H
  H61      1.0000 0.44729  0.13532  0.40860  Biso   1.000  H
  C73      1.0000 0.21881  0.42101  0.05129  Biso   1.000  C
  H62      1.0000 0.34699  0.90177  0.00550  Biso   1.000  H
  C74      1.0000 0.33255  0.78213  0.98767  Biso   1.000  C
  H63      1.0000 0.33840  0.98108  0.06598  Biso   1.000  H
  H64      1.0000 0.34178  0.93381  0.11560  Biso   1.000  H
  H65      1.0000 0.29688  0.95997  0.08300  Biso   1.000  H
  H66      1.0000 0.30980  0.66473  0.98141  Biso   1.000  H
  H67      1.0000 0.29671  0.60722  0.08361  Biso   1.000  H
  H68      1.0000 0.27730  0.59167  0.02770  Biso   1.000  H
  H69      1.0000 0.25128  0.64331  0.05819  Biso   1.000  H
  H70      1.0000 0.15970  0.89553  0.18991  Biso   1.000  H
  H71      1.0000 0.14299  0.81497  0.21229  Biso   1.000  H
  H72      1.0000 0.16711  0.80417  0.17100  Biso   1.000  H
  H73      1.0000 0.57939  0.88323  0.16839  Biso   1.000  H
  H74      1.0000 0.53969  0.61278  0.15910  Biso   1.000  H
  H75      1.0000 0.58588  0.61540  0.15070  Biso   1.000  H
  C75      1.0000 0.53981  0.64450  0.08911  Biso   1.000  C
  C76      1.0000 0.50632  0.97902  0.07156  Biso   1.000  C
  O23      1.0000 0.48090  0.11758  0.10645  Biso   1.000  O
  O24      1.0000 0.43014  0.00531  0.08135  Biso   1.000  O
  S8       1.0000 0.66814  0.79799  0.15613  Biso   1.000  S
  C77      1.0000 0.73113  0.54028  0.31312  Biso   1.000  C
  O25      1.0000 0.67432  0.54958  0.23091  Biso   1.000  O
  O26      1.0000 0.74662  0.58493  0.23198  Biso   1.000  O
  C78      1.0000 0.67827  0.85737  0.44270  Biso   1.000  C
  C79      1.0000 0.70087  0.71088  0.45717  Biso   1.000  C
  C80      1.0000 0.40650  0.84869  0.49099  Biso   1.000  C
  H76      1.0000 0.24010  0.38473  0.04350  Biso   1.000  H
  H77      1.0000 0.21041  0.46372  0.02642  Biso   1.000  H
  H78      1.0000 0.19429  0.38747  0.05290  Biso   1.000  H
  C81      1.0000 0.35000  0.77913  0.94460  Biso   1.000  C
  H79      1.0000 0.51260  0.67410  0.08239  Biso   1.000  H
  H80      1.0000 0.55868  0.67710  0.07410  Biso   1.000  H
  C82      1.0000 0.53309  0.56319  0.06620  Biso   1.000  C
  H81      1.0000 0.51920  0.59848  0.08139  Biso   1.000  H
  H82      1.0000 0.52419  0.69739  0.08060  Biso   1.000  H
  C83      1.0000 0.56488  0.63688  0.06259  Biso   1.000  C
  C84      1.0000 0.49312  0.90789  0.04397  Biso   1.000  C
  C85      1.0000 0.54789  0.00968  0.07871  Biso   1.000  C
  C86      1.0000 0.71720  0.81728  0.19581  Biso   1.000  C
  O27      1.0000 0.67177  0.77382  0.11016  Biso   1.000  O
  O28      1.0000 0.63875  0.86212  0.15935  Biso   1.000  O
  C87      1.0000 0.77256  0.55789  0.33829  Biso   1.000  C
  C88      1.0000 0.70478  0.48770  0.33196  Biso   1.000  C
  C89      1.0000 0.66478  0.85300  0.48445  Biso   1.000  C
  C90      1.0000 0.67498  0.94030  0.41732  Biso   1.000  C
  C91      1.0000 0.68659  0.71288  0.49882  Biso   1.000  C
  C92      1.0000 0.72060  0.63132  0.44595  Biso   1.000  C
  H83      1.0000 0.39211  0.88847  0.50722  Biso   1.000  H
  H84      1.0000 0.42131  0.80729  0.51411  Biso   1.000  H
  H85      1.0000 0.38589  0.82041  0.46550  Biso   1.000  H
  H86      1.0000 0.36970  0.73242  0.94760  Biso   1.000  H
  H87      1.0000 0.36460  0.83158  0.94199  Biso   1.000  H
  H88      1.0000 0.32709  0.77151  0.91589  Biso   1.000  H
  H89      1.0000 0.55948  0.54321  0.06009  Biso   1.000  H
  H90      1.0000 0.51190  0.56788  0.03582  Biso   1.000  H
  H91      1.0000 0.52360  0.52360  0.08711  Biso   1.000  H
  H92      1.0000 0.54909  0.63732  0.02899  Biso   1.000  H
  H93      1.0000 0.58019  0.58411  0.06981  Biso   1.000  H
  H94      1.0000 0.58480  0.68353  0.06842  Biso   1.000  H
  C93      1.0000 0.52209  0.86830  0.02423  Biso   1.000  C
  C94      1.0000 0.45020  0.86893  0.03439  Biso   1.000  C
  C95      1.0000 0.57446  0.96522  0.05741  Biso   1.000  C
  C96      1.0000 0.56459  0.08449  0.10841  Biso   1.000  C
  C97      1.0000 0.75200  0.77108  0.18959  Biso   1.000  C
  C98      1.0000 0.72021  0.87099  0.23481  Biso   1.000  C
  C99      1.0000 0.78754  0.51680  0.38225  Biso   1.000  C
  C100     1.0000 0.80062  0.61990  0.32259  Biso   1.000  C
  C101     1.0000 0.72262  0.44929  0.37582  Biso   1.000  C
  C102     1.0000 0.65887  0.47090  0.30991  Biso   1.000  C
  H95      1.0000 0.65298  0.90177  0.49449  Biso   1.000  H
  C103     1.0000 0.66746  0.78213  0.51233  Biso   1.000  C
  H96      1.0000 0.66161  0.98108  0.43401  Biso   1.000  H
  H97      1.0000 0.65819  0.93381  0.38440  Biso   1.000  H
  H98      1.0000 0.70309  0.95997  0.41700  Biso   1.000  H
  H99      1.0000 0.69018  0.66473  0.51862  Biso   1.000  H
  H100     1.0000 0.70329  0.60722  0.41639  Biso   1.000  H
  H101     1.0000 0.72270  0.59167  0.47229  Biso   1.000  H
  H102     1.0000 0.74869  0.64331  0.44180  Biso   1.000  H
  C104     1.0000 0.56256  0.89459  0.03010  Biso   1.000  C
  H103     1.0000 0.51340  0.81978  0.00540  Biso   1.000  H
  H104     1.0000 0.44959  0.81828  0.01519  Biso   1.000  H
  H105     1.0000 0.42928  0.90858  0.01691  Biso   1.000  H
  H106     1.0000 0.44379  0.85463  0.06480  Biso   1.000  H
  H107     1.0000 0.60238  0.98451  0.06180  Biso   1.000  H
  H108     1.0000 0.59518  0.08592  0.11420  Biso   1.000  H
  H109     1.0000 0.55680  0.08130  0.13890  Biso   1.000  H
  H110     1.0000 0.55269  0.13532  0.09140  Biso   1.000  H
  C105     1.0000 0.78938  0.78019  0.22358  Biso   1.000  C
  C106     1.0000 0.75153  0.71132  0.14905  Biso   1.000  C
  C107     1.0000 0.75860  0.87617  0.26773  Biso   1.000  C
  C108     1.0000 0.68524  0.92538  0.24389  Biso   1.000  C
  H111     1.0000 0.81558  0.52691  0.39980  Biso   1.000  H
  C109     1.0000 0.76354  0.46272  0.40113  Biso   1.000  C
  H112     1.0000 0.82660  0.62589  0.34769  Biso   1.000  H
  H113     1.0000 0.78638  0.67397  0.31670  Biso   1.000  H
  H114     1.0000 0.80708  0.60022  0.29311  Biso   1.000  H
  H115     1.0000 0.70580  0.41239  0.38879  Biso   1.000  H
  H116     1.0000 0.65589  0.43830  0.28049  Biso   1.000  H
  H117     1.0000 0.64398  0.52410  0.30240  Biso   1.000  H
  H118     1.0000 0.64699  0.43949  0.33250  Biso   1.000  H
  C110     1.0000 0.64997  0.77913  0.55540  Biso   1.000  C
  C111     1.0000 0.59351  0.84869  0.00901  Biso   1.000  C
  H119     1.0000 0.81329  0.75078  0.21961  Biso   1.000  H
  C112     1.0000 0.79320  0.83102  0.26337  Biso   1.000  C
  H120     1.0000 0.74710  0.74248  0.11899  Biso   1.000  H
  H121     1.0000 0.72890  0.67079  0.14680  Biso   1.000  H
  H122     1.0000 0.77839  0.68178  0.15510  Biso   1.000  H
  H123     1.0000 0.76129  0.91239  0.29439  Biso   1.000  H
  H124     1.0000 0.69540  0.95610  0.27391  Biso   1.000  H
  H125     1.0000 0.66148  0.89022  0.24621  Biso   1.000  H
  H126     1.0000 0.67628  0.96509  0.21751  Biso   1.000  H
  C113     1.0000 0.78119  0.42101  0.44870  Biso   1.000  C
  H127     1.0000 0.63030  0.73242  0.55240  Biso   1.000  H
  H128     1.0000 0.63538  0.83158  0.55801  Biso   1.000  H
  H129     1.0000 0.67289  0.77151  0.58410  Biso   1.000  H
  H130     1.0000 0.61408  0.82041  0.03449  Biso   1.000  H
  H131     1.0000 0.60790  0.88847  0.99282  Biso   1.000  H
  H132     1.0000 0.57871  0.80729  0.98592  Biso   1.000  H
  C114     1.0000 0.83448  0.83702  0.30079  Biso   1.000  C
  H133     1.0000 0.75990  0.38473  0.45649  Biso   1.000  H
  H134     1.0000 0.78960  0.46372  0.47362  Biso   1.000  H
  H135     1.0000 0.80569  0.38747  0.44709  Biso   1.000  H
  H136     1.0000 0.84028  0.89553  0.31012  Biso   1.000  H
  H137     1.0000 0.85699  0.81497  0.28771  Biso   1.000  H
  H138     1.0000 0.83290  0.80417  0.32899  Biso   1.000  H
  C115     1.0000 0.53309  0.43681  0.56619  Biso   1.000  C
  C116     1.0000 0.53982  0.35550  0.58911  Biso   1.000  C
  H139     1.0000 0.51918  0.40152  0.58142  Biso   1.000  H
  C117     1.0000 0.56489  0.36312  0.56262  Biso   1.000  C
  H140     1.0000 0.55949  0.45679  0.56012  Biso   1.000  H
  H141     1.0000 0.51191  0.43212  0.53581  Biso   1.000  H
  H142     1.0000 0.52361  0.47640  0.58710  Biso   1.000  H
  C118     1.0000 0.55848  0.35563  0.64355  Biso   1.000  C
  H143     1.0000 0.51260  0.32590  0.58239  Biso   1.000  H
  H144     1.0000 0.55869  0.32290  0.57409  Biso   1.000  H
  H145     1.0000 0.52419  0.30261  0.58060  Biso   1.000  H
  H146     1.0000 0.54910  0.36268  0.52902  Biso   1.000  H
  H147     1.0000 0.58020  0.41589  0.56980  Biso   1.000  H
  H148     1.0000 0.58481  0.31647  0.56841  Biso   1.000  H
  C119     1.0000 0.56457  0.26752  0.66453  Biso   1.000  C
  H149     1.0000 0.53970  0.38722  0.65909  Biso   1.000  H
  H150     1.0000 0.58588  0.38460  0.65069  Biso   1.000  H
  C120     1.0000 0.52417  0.22137  0.66410  Biso   1.000  C
  H151     1.0000 0.57859  0.23467  0.64340  Biso   1.000  H
  C121     1.0000 0.59505  0.26820  0.71389  Biso   1.000  C
  C122     1.0000 0.48633  0.26240  0.66167  Biso   1.000  C
  C123     1.0000 0.52416  0.13438  0.66463  Biso   1.000  C
  C124     1.0000 0.58163  0.26271  0.75596  Biso   1.000  C
  C125     1.0000 0.63749  0.28132  0.71793  Biso   1.000  C
  C126     1.0000 0.44876  0.22099  0.66006  Biso   1.000  C
  H152     1.0000 0.48620  0.32172  0.66110  Biso   1.000  H
  C127     1.0000 0.48661  0.09192  0.66074  Biso   1.000  C
  O29      1.0000 0.55879  0.08624  0.66875  Biso   1.000  O
  C128     1.0000 0.60853  0.26933  0.80146  Biso   1.000  C
  H153     1.0000 0.55258  0.25403  0.75350  Biso   1.000  H
  C129     1.0000 0.66469  0.29418  0.76283  Biso   1.000  C
  O30      1.0000 0.65284  0.28781  0.67704  Biso   1.000  O
  C130     1.0000 0.40698  0.26533  0.65348  Biso   1.000  C
  C131     1.0000 0.44957  0.13382  0.66142  Biso   1.000  C
  O31      1.0000 0.48677  0.00412  0.65577  Biso   1.000  O
  H154     1.0000 0.57940  0.11677  0.66839  Biso   1.000  H
  C132     1.0000 0.59300  0.26533  0.84654  Biso   1.000  C
  C133     1.0000 0.65081  0.28531  0.80354  Biso   1.000  C
  O32      1.0000 0.70629  0.31816  0.76583  Biso   1.000  O
  S9       1.0000 0.66815  0.20201  0.65613  Biso   1.000  S
  C134     1.0000 0.39145  0.26933  0.69856  Biso   1.000  C
  H155     1.0000 0.38600  0.23130  0.63000  Biso   1.000  H
  C135     1.0000 0.40632  0.35319  0.63154  Biso   1.000  C
  O33      1.0000 0.41374  0.09279  0.66138  Biso   1.000  O
  S10      1.0000 0.47232  0.96934  0.60090  Biso   1.000  S
  C136     1.0000 0.55123  0.22099  0.83996  Biso   1.000  C
  H156     1.0000 0.61399  0.23130  0.87002  Biso   1.000  H
  C137     1.0000 0.59366  0.35319  0.86849  Biso   1.000  C
  O34      1.0000 0.67928  0.29918  0.84797  Biso   1.000  O
  S11      1.0000 0.71353  0.41645  0.75535  Biso   1.000  S
  C138     1.0000 0.71720  0.18272  0.69580  Biso   1.000  C
  O35      1.0000 0.67177  0.22618  0.61016  Biso   1.000  O
  O36      1.0000 0.63877  0.13788  0.65938  Biso   1.000  O
  C139     1.0000 0.34916  0.28531  0.69645  Biso   1.000  C
  C140     1.0000 0.41836  0.26271  0.74406  Biso   1.000  C
  H157     1.0000 0.42848  0.38729  0.65259  Biso   1.000  H
  H158     1.0000 0.37911  0.37973  0.63082  Biso   1.000  H
  C141     1.0000 0.41293  0.35450  0.58117  Biso   1.000  C
  H159     1.0000 0.41909  0.04228  0.66810  Biso   1.000  H
  C142     1.0000 0.50633  0.02098  0.57159  Biso   1.000  C
  O37      1.0000 0.48090  0.88242  0.60644  Biso   1.000  O
  O38      1.0000 0.43014  0.99469  0.58135  Biso   1.000  O
  C143     1.0000 0.51366  0.26240  0.83835  Biso   1.000  C
  C144     1.0000 0.55042  0.13382  0.83860  Biso   1.000  C
  H160     1.0000 0.57150  0.38729  0.84740  Biso   1.000  H
  H161     1.0000 0.62088  0.37973  0.86920  Biso   1.000  H
  C145     1.0000 0.58705  0.35450  0.91885  Biso   1.000  C
  S12      1.0000 0.70945  0.22249  0.87367  Biso   1.000  S
  C146     1.0000 0.73114  0.45972  0.81315  Biso   1.000  C
  O39      1.0000 0.67433  0.45042  0.73094  Biso   1.000  O
  O40      1.0000 0.74659  0.41507  0.73198  Biso   1.000  O
  C147     1.0000 0.75201  0.22892  0.68962  Biso   1.000  C
  C148     1.0000 0.72021  0.12901  0.73480  Biso   1.000  C
  O41      1.0000 0.32070  0.29918  0.65202  Biso   1.000  O
  C149     1.0000 0.33530  0.29418  0.73720  Biso   1.000  C
  H162     1.0000 0.44740  0.25403  0.74649  Biso   1.000  H
  C150     1.0000 0.40494  0.26820  0.78613  Biso   1.000  C
  H163     1.0000 0.39300  0.31529  0.56069  Biso   1.000  H
  H164     1.0000 0.44170  0.33508  0.58221  Biso   1.000  H
  C151     1.0000 0.40670  0.44080  0.55940  Biso   1.000  C
  C152     1.0000 0.49312  0.09211  0.54396  Biso   1.000  C
  C153     1.0000 0.54789  0.99032  0.57870  Biso   1.000  C
  C154     1.0000 0.47582  0.22137  0.83592  Biso   1.000  C
  H165     1.0000 0.51378  0.32172  0.83889  Biso   1.000  H
  C155     1.0000 0.51338  0.09192  0.83928  Biso   1.000  C
  O42      1.0000 0.58625  0.09279  0.83864  Biso   1.000  O
  H166     1.0000 0.60698  0.31529  0.93930  Biso   1.000  H
  H167     1.0000 0.55828  0.33508  0.91781  Biso   1.000  H
  C156     1.0000 0.59329  0.44080  0.94062  Biso   1.000  C
  C157     1.0000 0.69519  0.21687  0.92872  Biso   1.000  C
  O43      1.0000 0.69719  0.15012  0.84511  Biso   1.000  O
  O44      1.0000 0.75114  0.25322  0.88139  Biso   1.000  O
  C158     1.0000 0.77256  0.44211  0.83828  Biso   1.000  C
  C159     1.0000 0.70478  0.51230  0.83196  Biso   1.000  C
  C160     1.0000 0.78938  0.21981  0.72358  Biso   1.000  C
  C161     1.0000 0.75153  0.28868  0.64905  Biso   1.000  C
  C162     1.0000 0.75860  0.12383  0.76772  Biso   1.000  C
  C163     1.0000 0.68525  0.07462  0.74392  Biso   1.000  C
  S13      1.0000 0.29053  0.22249  0.62632  Biso   1.000  S
  C164     1.0000 0.36249  0.28132  0.78206  Biso   1.000  C
  O45      1.0000 0.29370  0.31816  0.73419  Biso   1.000  O
  C165     1.0000 0.43542  0.26752  0.83549  Biso   1.000  C
  H168     1.0000 0.42699  0.47933  0.57899  Biso   1.000  H
  H169     1.0000 0.41089  0.43899  0.52702  Biso   1.000  H
  H170     1.0000 0.37818  0.45997  0.55812  Biso   1.000  H
  C166     1.0000 0.52210  0.13170  0.52427  Biso   1.000  C
  C167     1.0000 0.45021  0.13107  0.53442  Biso   1.000  C
  C168     1.0000 0.57443  0.03478  0.55740  Biso   1.000  C
  C169     1.0000 0.56459  0.91551  0.60841  Biso   1.000  C
  C170     1.0000 0.47583  0.13438  0.83539  Biso   1.000  C
  O46      1.0000 0.51322  0.00412  0.84425  Biso   1.000  O
  H171     1.0000 0.58090  0.04228  0.83192  Biso   1.000  H
  H172     1.0000 0.57299  0.47933  0.92099  Biso   1.000  H
  H173     1.0000 0.58909  0.43899  0.97300  Biso   1.000  H
  H174     1.0000 0.62178  0.45997  0.94191  Biso   1.000  H
  C171     1.0000 0.67827  0.14263  0.94269  Biso   1.000  C
  C172     1.0000 0.70087  0.28912  0.95717  Biso   1.000  C
  C173     1.0000 0.78755  0.48320  0.88228  Biso   1.000  C
  C174     1.0000 0.80059  0.38010  0.82259  Biso   1.000  C
  C175     1.0000 0.72263  0.55071  0.87581  Biso   1.000  C
  C176     1.0000 0.65888  0.52910  0.80990  Biso   1.000  C
  H175     1.0000 0.81330  0.24922  0.71961  Biso   1.000  H
  C177     1.0000 0.79317  0.16898  0.76336  Biso   1.000  C
  H176     1.0000 0.74707  0.25752  0.61899  Biso   1.000  H
  H177     1.0000 0.72890  0.32921  0.64680  Biso   1.000  H
  H178     1.0000 0.77839  0.31822  0.65509  Biso   1.000  H
  H179     1.0000 0.76130  0.08761  0.79442  Biso   1.000  H
  H180     1.0000 0.69540  0.04390  0.77391  Biso   1.000  H
  H181     1.0000 0.66149  0.10978  0.74620  Biso   1.000  H
  H182     1.0000 0.67628  0.03491  0.71750  Biso   1.000  H
  C178     1.0000 0.30480  0.21687  0.57131  Biso   1.000  C
  O47      1.0000 0.30280  0.15012  0.65491  Biso   1.000  O
  O48      1.0000 0.24884  0.25322  0.61863  Biso   1.000  O
  O49      1.0000 0.34715  0.28781  0.82298  Biso   1.000  O
  S14      1.0000 0.28645  0.41645  0.74463  Biso   1.000  S
  H183     1.0000 0.42140  0.23467  0.85662  Biso   1.000  H
  C179     1.0000 0.44151  0.35563  0.85648  Biso   1.000  C
  C180     1.0000 0.56256  0.10541  0.53009  Biso   1.000  C
  H184     1.0000 0.51340  0.18022  0.50539  Biso   1.000  H
  H185     1.0000 0.44960  0.18172  0.51519  Biso   1.000  H
  H186     1.0000 0.42928  0.09142  0.51690  Biso   1.000  H
  H187     1.0000 0.44379  0.14537  0.56480  Biso   1.000  H
  H188     1.0000 0.60238  0.01549  0.56180  Biso   1.000  H
  H189     1.0000 0.59518  0.91408  0.61420  Biso   1.000  H
  H190     1.0000 0.55680  0.91870  0.63890  Biso   1.000  H
  H191     1.0000 0.55269  0.86468  0.59139  Biso   1.000  H
  O50      1.0000 0.44120  0.08624  0.83128  Biso   1.000  O
  S15      1.0000 0.52767  0.96934  0.89912  Biso   1.000  S
  C181     1.0000 0.66478  0.14700  0.98444  Biso   1.000  C
  C182     1.0000 0.67499  0.05970  0.91731  Biso   1.000  C
  C183     1.0000 0.68657  0.28712  0.99881  Biso   1.000  C
  C184     1.0000 0.72060  0.36868  0.94594  Biso   1.000  C
  H192     1.0000 0.81558  0.47309  0.89980  Biso   1.000  H
  C185     1.0000 0.76354  0.53728  0.90112  Biso   1.000  C
  H193     1.0000 0.82658  0.37411  0.84772  Biso   1.000  H
  H194     1.0000 0.78639  0.32603  0.81669  Biso   1.000  H
  H195     1.0000 0.80709  0.39978  0.79310  Biso   1.000  H
  H196     1.0000 0.70577  0.58761  0.88879  Biso   1.000  H
  H197     1.0000 0.65590  0.56170  0.78052  Biso   1.000  H
  H198     1.0000 0.64398  0.47590  0.80239  Biso   1.000  H
  H199     1.0000 0.64700  0.56051  0.83249  Biso   1.000  H
  C186     1.0000 0.83449  0.16298  0.80082  Biso   1.000  C
  C187     1.0000 0.32171  0.14263  0.55733  Biso   1.000  C
  C188     1.0000 0.29911  0.28912  0.54282  Biso   1.000  C
  S16      1.0000 0.33184  0.20201  0.84389  Biso   1.000  S
  C189     1.0000 0.26885  0.45972  0.68687  Biso   1.000  C
  O51      1.0000 0.32566  0.45042  0.76908  Biso   1.000  O
  O52      1.0000 0.25339  0.41507  0.76801  Biso   1.000  O
  H200     1.0000 0.46028  0.38722  0.84089  Biso   1.000  H
  H201     1.0000 0.41410  0.38460  0.84929  Biso   1.000  H
  C190     1.0000 0.46017  0.35550  0.91091  Biso   1.000  C
  C191     1.0000 0.59348  0.15131  0.50900  Biso   1.000  C
  H202     1.0000 0.42058  0.11677  0.83160  Biso   1.000  H
  C192     1.0000 0.49366  0.02098  0.92843  Biso   1.000  C
  O53      1.0000 0.51909  0.88242  0.89358  Biso   1.000  O
  O54      1.0000 0.56984  0.99469  0.91864  Biso   1.000  O
  H203     1.0000 0.65299  0.09823  0.99452  Biso   1.000  H
  C193     1.0000 0.66746  0.21787  0.01232  Biso   1.000  C
  H204     1.0000 0.66158  0.01892  0.93401  Biso   1.000  H
  H205     1.0000 0.65819  0.06619  0.88439  Biso   1.000  H
  H206     1.0000 0.70309  0.04003  0.91699  Biso   1.000  H
  H207     1.0000 0.69019  0.33527  0.01861  Biso   1.000  H
  H208     1.0000 0.70330  0.39278  0.91642  Biso   1.000  H
  H209     1.0000 0.72268  0.40833  0.97232  Biso   1.000  H
  H210     1.0000 0.74869  0.35669  0.94180  Biso   1.000  H
  C194     1.0000 0.78120  0.57899  0.94870  Biso   1.000  C
  H211     1.0000 0.84028  0.10447  0.81012  Biso   1.000  H
  H212     1.0000 0.85699  0.18503  0.78770  Biso   1.000  H
  H213     1.0000 0.83287  0.19583  0.82899  Biso   1.000  H
  C195     1.0000 0.33520  0.14700  0.51554  Biso   1.000  C
  C196     1.0000 0.32500  0.05970  0.58271  Biso   1.000  C
  C197     1.0000 0.31342  0.28712  0.50121  Biso   1.000  C
  C198     1.0000 0.27938  0.36868  0.55404  Biso   1.000  C
  C199     1.0000 0.28279  0.18272  0.80422  Biso   1.000  C
  O55      1.0000 0.32821  0.22618  0.88986  Biso   1.000  O
  O56      1.0000 0.36122  0.13788  0.84064  Biso   1.000  O
  C200     1.0000 0.22743  0.44211  0.66174  Biso   1.000  C
  C201     1.0000 0.29520  0.51230  0.66807  Biso   1.000  C
  H214     1.0000 0.48738  0.32590  0.91760  Biso   1.000  H
  H215     1.0000 0.44129  0.32290  0.92589  Biso   1.000  H
  C202     1.0000 0.46689  0.43681  0.93379  Biso   1.000  C
  H216     1.0000 0.48080  0.40152  0.91860  Biso   1.000  H
  H217     1.0000 0.47580  0.30261  0.91942  Biso   1.000  H
  C203     1.0000 0.43510  0.36312  0.93740  Biso   1.000  C
  H218     1.0000 0.60791  0.11153  0.49281  Biso   1.000  H
  H219     1.0000 0.57868  0.19271  0.48591  Biso   1.000  H
  H220     1.0000 0.61408  0.17959  0.53449  Biso   1.000  H
  C204     1.0000 0.50687  0.09211  0.95606  Biso   1.000  C
  C205     1.0000 0.45210  0.99032  0.92132  Biso   1.000  C
  C206     1.0000 0.64998  0.22087  0.05539  Biso   1.000  C
  H221     1.0000 0.75987  0.61527  0.95649  Biso   1.000  H
  H222     1.0000 0.78960  0.53628  0.97361  Biso   1.000  H
  H223     1.0000 0.80570  0.61253  0.94712  Biso   1.000  H
  C207     1.0000 0.33252  0.21787  0.48766  Biso   1.000  C
  H224     1.0000 0.34699  0.09823  0.50550  Biso   1.000  H
  H225     1.0000 0.33841  0.01892  0.56602  Biso   1.000  H
  H226     1.0000 0.34179  0.06619  0.61559  Biso   1.000  H
  H227     1.0000 0.29689  0.04003  0.58299  Biso   1.000  H
  H228     1.0000 0.30980  0.33527  0.48141  Biso   1.000  H
  H229     1.0000 0.29668  0.39278  0.58360  Biso   1.000  H
  H230     1.0000 0.27731  0.40833  0.52770  Biso   1.000  H
  H231     1.0000 0.25129  0.35669  0.55819  Biso   1.000  H
  C208     1.0000 0.24798  0.22892  0.81040  Biso   1.000  C
  C209     1.0000 0.27978  0.12901  0.76522  Biso   1.000  C
  C210     1.0000 0.21243  0.48320  0.61774  Biso   1.000  C
  C211     1.0000 0.19939  0.38010  0.67743  Biso   1.000  C
  C212     1.0000 0.27736  0.55071  0.62421  Biso   1.000  C
  C213     1.0000 0.34111  0.52910  0.69012  Biso   1.000  C
  H232     1.0000 0.44050  0.45679  0.93990  Biso   1.000  H
  H233     1.0000 0.48808  0.43212  0.96421  Biso   1.000  H
  H234     1.0000 0.47638  0.47640  0.91292  Biso   1.000  H
  H235     1.0000 0.45089  0.36268  0.97100  Biso   1.000  H
  H236     1.0000 0.41979  0.41589  0.93022  Biso   1.000  H
  H237     1.0000 0.41518  0.31647  0.93161  Biso   1.000  H
  C214     1.0000 0.47789  0.13170  0.97576  Biso   1.000  C
  C215     1.0000 0.54978  0.13107  0.96560  Biso   1.000  C
  C216     1.0000 0.42556  0.03478  0.94262  Biso   1.000  C
  C217     1.0000 0.43540  0.91551  0.89161  Biso   1.000  C
  H238     1.0000 0.63027  0.26758  0.05239  Biso   1.000  H
  H239     1.0000 0.63538  0.16842  0.05800  Biso   1.000  H
  H240     1.0000 0.67289  0.22849  0.08410  Biso   1.000  H
  C218     1.0000 0.35000  0.22087  0.44459  Biso   1.000  C
  C219     1.0000 0.21060  0.21981  0.77641  Biso   1.000  C
  C220     1.0000 0.24845  0.28868  0.85094  Biso   1.000  C
  C221     1.0000 0.24138  0.12383  0.73230  Biso   1.000  C
  C222     1.0000 0.31473  0.07462  0.75611  Biso   1.000  C
  H241     1.0000 0.18440  0.47309  0.60019  Biso   1.000  H
  C223     1.0000 0.23644  0.53728  0.59890  Biso   1.000  C
  H242     1.0000 0.17341  0.37411  0.65230  Biso   1.000  H
  H243     1.0000 0.21359  0.32603  0.68329  Biso   1.000  H
  H244     1.0000 0.19290  0.39978  0.70692  Biso   1.000  H
  H245     1.0000 0.29421  0.58761  0.61120  Biso   1.000  H
  H246     1.0000 0.34409  0.56170  0.71950  Biso   1.000  H
  H247     1.0000 0.35600  0.47590  0.69759  Biso   1.000  H
  H248     1.0000 0.35298  0.56051  0.66749  Biso   1.000  H
  C224     1.0000 0.43742  0.10541  0.96989  Biso   1.000  C
  H249     1.0000 0.48658  0.18022  0.99459  Biso   1.000  H
  H250     1.0000 0.55038  0.18172  0.98480  Biso   1.000  H
  H251     1.0000 0.57070  0.09142  0.98312  Biso   1.000  H
  H252     1.0000 0.55620  0.14537  0.93522  Biso   1.000  H
  H253     1.0000 0.39760  0.01549  0.93822  Biso   1.000  H
  H254     1.0000 0.40480  0.91408  0.88582  Biso   1.000  H
  H255     1.0000 0.44319  0.91870  0.86112  Biso   1.000  H
  H256     1.0000 0.44729  0.86468  0.90859  Biso   1.000  H
  H257     1.0000 0.36970  0.26758  0.44759  Biso   1.000  H
  H258     1.0000 0.36461  0.16842  0.44202  Biso   1.000  H
  H259     1.0000 0.32709  0.22849  0.41589  Biso   1.000  H
  H260     1.0000 0.18669  0.24922  0.78041  Biso   1.000  H
  C225     1.0000 0.20681  0.16898  0.73662  Biso   1.000  C
  H261     1.0000 0.25291  0.25752  0.88100  Biso   1.000  H
  H262     1.0000 0.27109  0.32921  0.85322  Biso   1.000  H
  H263     1.0000 0.22159  0.31822  0.84489  Biso   1.000  H
  H264     1.0000 0.23869  0.08761  0.70560  Biso   1.000  H
  H265     1.0000 0.30458  0.04390  0.72612  Biso   1.000  H
  H266     1.0000 0.33850  0.10978  0.75382  Biso   1.000  H
  H267     1.0000 0.32371  0.03491  0.78252  Biso   1.000  H
  C226     1.0000 0.21878  0.57899  0.55129  Biso   1.000  C
  C227     1.0000 0.40651  0.15131  0.99102  Biso   1.000  C
  C228     1.0000 0.16550  0.16298  0.69920  Biso   1.000  C
  H268     1.0000 0.24011  0.61527  0.54350  Biso   1.000  H
  H269     1.0000 0.21039  0.53628  0.52641  Biso   1.000  H
  H270     1.0000 0.19429  0.61253  0.55290  Biso   1.000  H
  H271     1.0000 0.38590  0.17959  0.96550  Biso   1.000  H
  H272     1.0000 0.39208  0.11153  0.00721  Biso   1.000  H
  H273     1.0000 0.42131  0.19271  0.01411  Biso   1.000  H
  H274     1.0000 0.15971  0.10447  0.68991  Biso   1.000  H
  H275     1.0000 0.14300  0.18503  0.71232  Biso   1.000  H
  H276     1.0000 0.16708  0.19583  0.67100  Biso   1.000  H
  C229     1.0000 0.25153  0.78868  0.64905  Biso   1.000  C
  C230     1.0000 0.25201  0.72892  0.68962  Biso   1.000  C
  C231     1.0000 0.25204  0.72892  0.68962  Biso   1.000  C
  H277     1.0000 0.24710  0.75752  0.61899  Biso   1.000  H
  H278     1.0000 0.22890  0.82921  0.64680  Biso   1.000  H
  H279     1.0000 0.27839  0.81822  0.65509  Biso   1.000  H
  H280     1.0000 0.22887  0.82921  0.64680  Biso   1.000  H
  C232     1.0000 0.21720  0.68272  0.69580  Biso   1.000  C
  C233     1.0000 0.21723  0.68272  0.69580  Biso   1.000  C
  C234     1.0000 0.28938  0.71981  0.72358  Biso   1.000  C
  C235     1.0000 0.25150  0.78868  0.64905  Biso   1.000  C
  S17      1.0000 0.16815  0.70201  0.65613  Biso   1.000  S
  C236     1.0000 0.22021  0.62901  0.73480  Biso   1.000  C
  H281     1.0000 0.31330  0.74922  0.71961  Biso   1.000  H
  C237     1.0000 0.29320  0.66898  0.76336  Biso   1.000  C
  H282     1.0000 0.31327  0.74922  0.71961  Biso   1.000  H
  C238     1.0000 0.29317  0.66898  0.76336  Biso   1.000  C
  O57      1.0000 0.15287  0.78781  0.67704  Biso   1.000  O
  O58      1.0000 0.17177  0.72618  0.61016  Biso   1.000  O
  O59      1.0000 0.13880  0.63788  0.65938  Biso   1.000  O
  O60      1.0000 0.17180  0.72618  0.61016  Biso   1.000  O
  O61      1.0000 0.13877  0.63788  0.65938  Biso   1.000  O
  C239     1.0000 0.25860  0.62383  0.76772  Biso   1.000  C
  C240     1.0000 0.18525  0.57462  0.74392  Biso   1.000  C
  C241     1.0000 0.25857  0.62383  0.76772  Biso   1.000  C
  C242     1.0000 0.18529  0.57462  0.74392  Biso   1.000  C
  C243     1.0000 0.33449  0.66298  0.80082  Biso   1.000  C
  C244     1.0000 0.13749  0.78132  0.71793  Biso   1.000  C
  C245     1.0000 0.13752  0.78132  0.71793  Biso   1.000  C
  H283     1.0000 0.26130  0.58761  0.79442  Biso   1.000  H
  H284     1.0000 0.19540  0.54390  0.77391  Biso   1.000  H
  H285     1.0000 0.16149  0.60978  0.74620  Biso   1.000  H
  H286     1.0000 0.17631  0.53491  0.71750  Biso   1.000  H
  H287     1.0000 0.19537  0.54390  0.77391  Biso   1.000  H
  H288     1.0000 0.17628  0.53491  0.71750  Biso   1.000  H
  H289     1.0000 0.34031  0.60447  0.81012  Biso   1.000  H
  H290     1.0000 0.35699  0.68503  0.78770  Biso   1.000  H
  H291     1.0000 0.33290  0.69583  0.82899  Biso   1.000  H
  H292     1.0000 0.35702  0.68503  0.78770  Biso   1.000  H
  H293     1.0000 0.33287  0.69583  0.82899  Biso   1.000  H
  C246     1.0000 0.09505  0.76820  0.71389  Biso   1.000  C
  C247     1.0000 0.16469  0.79418  0.76283  Biso   1.000  C
  C248     1.0000 0.16472  0.79418  0.76283  Biso   1.000  C
  C249     1.0000 0.06460  0.76752  0.66453  Biso   1.000  C
  C250     1.0000 0.08163  0.76271  0.75596  Biso   1.000  C
  C251     1.0000 0.08160  0.76271  0.75596  Biso   1.000  C
  C252     1.0000 0.15085  0.78531  0.80354  Biso   1.000  C
  C253     1.0000 0.15081  0.78531  0.80354  Biso   1.000  C
  O62      1.0000 0.20629  0.81816  0.76583  Biso   1.000  O
  O63      1.0000 0.20632  0.81816  0.76583  Biso   1.000  O
  C254     1.0000 0.02417  0.72137  0.66410  Biso   1.000  C
  C255     1.0000 0.02420  0.72137  0.66410  Biso   1.000  C
  H294     1.0000 0.07859  0.73467  0.64340  Biso   1.000  H
  C256     1.0000 0.05848  0.85563  0.64355  Biso   1.000  C
  H295     1.0000 0.07862  0.73467  0.64340  Biso   1.000  H
  C257     1.0000 0.05851  0.85563  0.64355  Biso   1.000  C
  C258     1.0000 0.10853  0.76933  0.80146  Biso   1.000  C
  H296     1.0000 0.05261  0.75403  0.75350  Biso   1.000  H
  C259     1.0000 0.10856  0.76933  0.80146  Biso   1.000  C
  O64      1.0000 0.17931  0.79918  0.84797  Biso   1.000  O
  O65      1.0000 0.17928  0.79918  0.84797  Biso   1.000  O
  S18      1.0000 0.21353  0.91645  0.75535  Biso   1.000  S
  S19      1.0000 0.21356  0.91645  0.75535  Biso   1.000  S
  C260     1.0000 0.02416  0.63438  0.66463  Biso   1.000  C
  C261     1.0000 0.98633  0.76240  0.66167  Biso   1.000  C
  H297     1.0000 0.03970  0.88722  0.65909  Biso   1.000  H
  H298     1.0000 0.08588  0.88460  0.65069  Biso   1.000  H
  C262     1.0000 0.03982  0.85550  0.58911  Biso   1.000  C
  H299     1.0000 0.08591  0.88460  0.65069  Biso   1.000  H
  C263     1.0000 0.09303  0.76533  0.84654  Biso   1.000  C
  S20      1.0000 0.20948  0.72249  0.87367  Biso   1.000  S
  S21      1.0000 0.20945  0.72249  0.87367  Biso   1.000  S
  C264     1.0000 0.23114  0.95972  0.81315  Biso   1.000  C
  O66      1.0000 0.17433  0.95042  0.73094  Biso   1.000  O
  O67      1.0000 0.24662  0.91507  0.73198  Biso   1.000  O
  C265     1.0000 0.23117  0.95972  0.81315  Biso   1.000  C
  O68      1.0000 0.17436  0.95042  0.73094  Biso   1.000  O
  O69      1.0000 0.24659  0.91507  0.73198  Biso   1.000  O
  C266     1.0000 0.98661  0.59192  0.66074  Biso   1.000  C
  O70      1.0000 0.05882  0.58624  0.66875  Biso   1.000  O
  O71      1.0000 0.05879  0.58624  0.66875  Biso   1.000  O
  C267     1.0000 0.94876  0.72099  0.66006  Biso   1.000  C
  H300     1.0000 0.98620  0.82172  0.66110  Biso   1.000  H
  H301     1.0000 0.98617  0.82172  0.66110  Biso   1.000  H
  H302     1.0000 0.01260  0.82590  0.58239  Biso   1.000  H
  H303     1.0000 0.05869  0.82290  0.57409  Biso   1.000  H
  C268     1.0000 0.03309  0.93681  0.56619  Biso   1.000  C
  H304     1.0000 0.01921  0.90152  0.58142  Biso   1.000  H
  H305     1.0000 0.02419  0.80261  0.58060  Biso   1.000  H
  C269     1.0000 0.06489  0.86312  0.56262  Biso   1.000  C
  C270     1.0000 0.05123  0.72099  0.83996  Biso   1.000  C
  H306     1.0000 0.11399  0.73130  0.87002  Biso   1.000  H
  C271     1.0000 0.09366  0.85319  0.86849  Biso   1.000  C
  C272     1.0000 0.05126  0.72099  0.83996  Biso   1.000  C
  H307     1.0000 0.11402  0.73130  0.87002  Biso   1.000  H
  C273     1.0000 0.09363  0.85319  0.86849  Biso   1.000  C
  C274     1.0000 0.19519  0.71687  0.92872  Biso   1.000  C
  O72      1.0000 0.19719  0.65012  0.84511  Biso   1.000  O
  O73      1.0000 0.25117  0.75322  0.88139  Biso   1.000  O
  C275     1.0000 0.27256  0.94211  0.83828  Biso   1.000  C
  C276     1.0000 0.20478  0.01230  0.83196  Biso   1.000  C
  O74      1.0000 0.98677  0.50412  0.65577  Biso   1.000  O
  O75      1.0000 0.98674  0.50412  0.65577  Biso   1.000  O
  C277     1.0000 0.94957  0.63382  0.66142  Biso   1.000  C
  C278     1.0000 0.94954  0.63382  0.66142  Biso   1.000  C
  H308     1.0000 0.07940  0.61677  0.66839  Biso   1.000  H
  C279     1.0000 0.90698  0.76533  0.65348  Biso   1.000  C
  C280     1.0000 0.90695  0.76533  0.65348  Biso   1.000  C
  H309     1.0000 0.05949  0.95679  0.56012  Biso   1.000  H
  H310     1.0000 0.01191  0.93212  0.53581  Biso   1.000  H
  H311     1.0000 0.02361  0.97640  0.58710  Biso   1.000  H
  H312     1.0000 0.01188  0.93212  0.53581  Biso   1.000  H
  H313     1.0000 0.04910  0.86268  0.52902  Biso   1.000  H
  H314     1.0000 0.08020  0.91589  0.56980  Biso   1.000  H
  H315     1.0000 0.08481  0.81647  0.56841  Biso   1.000  H
  C281     1.0000 0.01366  0.76240  0.83835  Biso   1.000  C
  C282     1.0000 0.05045  0.63382  0.83860  Biso   1.000  C
  C283     1.0000 0.05042  0.63382  0.83860  Biso   1.000  C
  H316     1.0000 0.07150  0.88729  0.84740  Biso   1.000  H
  H317     1.0000 0.12091  0.87973  0.86920  Biso   1.000  H
  C284     1.0000 0.08705  0.85450  0.91885  Biso   1.000  C
  H318     1.0000 0.12088  0.87973  0.86920  Biso   1.000  H
  C285     1.0000 0.08702  0.85450  0.91885  Biso   1.000  C
  C286     1.0000 0.17827  0.64263  0.94269  Biso   1.000  C
  C287     1.0000 0.20087  0.78912  0.95717  Biso   1.000  C
  C288     1.0000 0.17830  0.64263  0.94269  Biso   1.000  C
  C289     1.0000 0.20090  0.78912  0.95717  Biso   1.000  C
  C290     1.0000 0.28755  0.98320  0.88228  Biso   1.000  C
  C291     1.0000 0.30063  0.88010  0.82259  Biso   1.000  C
  C292     1.0000 0.28752  0.98320  0.88228  Biso   1.000  C
  C293     1.0000 0.22263  0.05071  0.87581  Biso   1.000  C
  C294     1.0000 0.15888  0.02910  0.80990  Biso   1.000  C
  C295     1.0000 0.22266  0.05071  0.87581  Biso   1.000  C
  C296     1.0000 0.15891  0.02910  0.80990  Biso   1.000  C
  S22      1.0000 0.97229  0.46934  0.60090  Biso   1.000  S
  S23      1.0000 0.97232  0.46934  0.60090  Biso   1.000  S
  O76      1.0000 0.91374  0.59279  0.66138  Biso   1.000  O
  H319     1.0000 0.88600  0.73130  0.63000  Biso   1.000  H
  C297     1.0000 0.89145  0.76933  0.69856  Biso   1.000  C
  C298     1.0000 0.90635  0.85319  0.63154  Biso   1.000  C
  C299     1.0000 0.90632  0.85319  0.63154  Biso   1.000  C
  C300     1.0000 0.97582  0.72137  0.83592  Biso   1.000  C
  H320     1.0000 0.01381  0.82172  0.83889  Biso   1.000  H
  C301     1.0000 0.01338  0.59192  0.83928  Biso   1.000  C
  O77      1.0000 0.08625  0.59279  0.83864  Biso   1.000  O
  C302     1.0000 0.01341  0.59192  0.83928  Biso   1.000  C
  H321     1.0000 0.10701  0.81529  0.93930  Biso   1.000  H
  H322     1.0000 0.05831  0.83508  0.91781  Biso   1.000  H
  C303     1.0000 0.09332  0.94080  0.94062  Biso   1.000  C
  H323     1.0000 0.10698  0.81529  0.93930  Biso   1.000  H
  H324     1.0000 0.05828  0.83508  0.91781  Biso   1.000  H
  C304     1.0000 0.16478  0.64700  0.98444  Biso   1.000  C
  C305     1.0000 0.17499  0.55970  0.91731  Biso   1.000  C
  C306     1.0000 0.16481  0.64700  0.98444  Biso   1.000  C
  C307     1.0000 0.18660  0.78712  0.99881  Biso   1.000  C
  C308     1.0000 0.22060  0.86868  0.94594  Biso   1.000  C
  C309     1.0000 0.18657  0.78712  0.99881  Biso   1.000  C
  C310     1.0000 0.22057  0.86868  0.94594  Biso   1.000  C
  H325     1.0000 0.31558  0.97309  0.89980  Biso   1.000  H
  H326     1.0000 0.31561  0.97309  0.89980  Biso   1.000  H
  C311     1.0000 0.26354  0.03728  0.90112  Biso   1.000  C
  H327     1.0000 0.32661  0.87411  0.84772  Biso   1.000  H
  H328     1.0000 0.28639  0.82603  0.81669  Biso   1.000  H
  H329     1.0000 0.30709  0.89978  0.79310  Biso   1.000  H
  H330     1.0000 0.32658  0.87411  0.84772  Biso   1.000  H
  H331     1.0000 0.30712  0.89978  0.79310  Biso   1.000  H
  H332     1.0000 0.20580  0.08761  0.88879  Biso   1.000  H
  H333     1.0000 0.20577  0.08761  0.88879  Biso   1.000  H
  H334     1.0000 0.14398  0.97590  0.80239  Biso   1.000  H
  H335     1.0000 0.15590  0.06170  0.78052  Biso   1.000  H
  H336     1.0000 0.14700  0.06051  0.83249  Biso   1.000  H
  H337     1.0000 0.15593  0.06170  0.78052  Biso   1.000  H
  C312     1.0000 0.00633  0.52098  0.57159  Biso   1.000  C
  O78      1.0000 0.98090  0.38242  0.60644  Biso   1.000  O
  O79      1.0000 0.93014  0.49469  0.58135  Biso   1.000  O
  H338     1.0000 0.91909  0.54228  0.66810  Biso   1.000  H
  C313     1.0000 0.91839  0.76271  0.74406  Biso   1.000  C
  C314     1.0000 0.84916  0.78531  0.69645  Biso   1.000  C
  C315     1.0000 0.91836  0.76271  0.74406  Biso   1.000  C
  C316     1.0000 0.84913  0.78531  0.69645  Biso   1.000  C
  H339     1.0000 0.92851  0.88729  0.65259  Biso   1.000  H
  H340     1.0000 0.87911  0.87973  0.63082  Biso   1.000  H
  C317     1.0000 0.91296  0.85450  0.58117  Biso   1.000  C
  H341     1.0000 0.92848  0.88729  0.65259  Biso   1.000  H
  H342     1.0000 0.87908  0.87973  0.63082  Biso   1.000  H
  C318     1.0000 0.91293  0.85450  0.58117  Biso   1.000  C
  C319     1.0000 0.93542  0.76752  0.83549  Biso   1.000  C
  C320     1.0000 0.93538  0.76752  0.83549  Biso   1.000  C
  C321     1.0000 0.97583  0.63438  0.83539  Biso   1.000  C
  O80      1.0000 0.01325  0.50412  0.84425  Biso   1.000  O
  H343     1.0000 0.08090  0.54228  0.83192  Biso   1.000  H
  H344     1.0000 0.08093  0.54228  0.83192  Biso   1.000  H
  H345     1.0000 0.07299  0.97933  0.92099  Biso   1.000  H
  H346     1.0000 0.08909  0.93899  0.97300  Biso   1.000  H
  H347     1.0000 0.12181  0.95997  0.94191  Biso   1.000  H
  H348     1.0000 0.07302  0.97933  0.92099  Biso   1.000  H
  H349     1.0000 0.08912  0.93899  0.97300  Biso   1.000  H
  H350     1.0000 0.12178  0.95997  0.94191  Biso   1.000  H
  H351     1.0000 0.15299  0.59823  0.99452  Biso   1.000  H
  C322     1.0000 0.16746  0.71787  0.01232  Biso   1.000  C
  H352     1.0000 0.16161  0.51892  0.93401  Biso   1.000  H
  H353     1.0000 0.15819  0.56619  0.88439  Biso   1.000  H
  H354     1.0000 0.20309  0.54003  0.91699  Biso   1.000  H
  H355     1.0000 0.16158  0.51892  0.93401  Biso   1.000  H
  H356     1.0000 0.15822  0.56619  0.88439  Biso   1.000  H
  H357     1.0000 0.20306  0.54003  0.91699  Biso   1.000  H
  H358     1.0000 0.19019  0.83527  0.01861  Biso   1.000  H
  H359     1.0000 0.19022  0.83527  0.01861  Biso   1.000  H
  H360     1.0000 0.20330  0.89278  0.91642  Biso   1.000  H
  H361     1.0000 0.22271  0.90833  0.97232  Biso   1.000  H
  H362     1.0000 0.24869  0.85669  0.94180  Biso   1.000  H
  H363     1.0000 0.24872  0.85669  0.94180  Biso   1.000  H
  C323     1.0000 0.28120  0.07899  0.94870  Biso   1.000  C
  C324     1.0000 0.04789  0.49032  0.57870  Biso   1.000  C
  C325     1.0000 0.04792  0.49032  0.57870  Biso   1.000  C
  C326     1.0000 0.99312  0.59211  0.54396  Biso   1.000  C
  H364     1.0000 0.94740  0.75403  0.74649  Biso   1.000  H
  C327     1.0000 0.90494  0.76820  0.78613  Biso   1.000  C
  H365     1.0000 0.94737  0.75403  0.74649  Biso   1.000  H
  C328     1.0000 0.83530  0.79418  0.73720  Biso   1.000  C
  O81      1.0000 0.82070  0.79918  0.65202  Biso   1.000  O
  O82      1.0000 0.82067  0.79918  0.65202  Biso   1.000  O
  H366     1.0000 0.89300  0.81529  0.56069  Biso   1.000  H
  H367     1.0000 0.94170  0.83508  0.58221  Biso   1.000  H
  C329     1.0000 0.90670  0.94080  0.55940  Biso   1.000  C
  H368     1.0000 0.89297  0.81529  0.56069  Biso   1.000  H
  H369     1.0000 0.94167  0.83508  0.58221  Biso   1.000  H
  C330     1.0000 0.90667  0.94080  0.55940  Biso   1.000  C
  H370     1.0000 0.92140  0.73467  0.85662  Biso   1.000  H
  C331     1.0000 0.94151  0.85563  0.85648  Biso   1.000  C
  O83      1.0000 0.94117  0.58624  0.83128  Biso   1.000  O
  S24      1.0000 0.02767  0.46934  0.89912  Biso   1.000  S
  C332     1.0000 0.14998  0.72087  0.05539  Biso   1.000  C
  C333     1.0000 0.15001  0.72087  0.05539  Biso   1.000  C
  H371     1.0000 0.25990  0.11527  0.95649  Biso   1.000  H
  H372     1.0000 0.28960  0.03628  0.97361  Biso   1.000  H
  H373     1.0000 0.30570  0.11253  0.94712  Biso   1.000  H
  H374     1.0000 0.25987  0.11527  0.95649  Biso   1.000  H
  C334     1.0000 0.07446  0.53478  0.55740  Biso   1.000  C
  C335     1.0000 0.06459  0.41551  0.60841  Biso   1.000  C
  C336     1.0000 0.02210  0.63170  0.52427  Biso   1.000  C
  C337     1.0000 0.95021  0.63107  0.53442  Biso   1.000  C
  C338     1.0000 0.86246  0.78132  0.78206  Biso   1.000  C
  C339     1.0000 0.86249  0.78132  0.78206  Biso   1.000  C
  O84      1.0000 0.79370  0.81816  0.73419  Biso   1.000  O
  S25      1.0000 0.79053  0.72249  0.62632  Biso   1.000  S
  S26      1.0000 0.79050  0.72249  0.62632  Biso   1.000  S
  H375     1.0000 0.92699  0.97933  0.57899  Biso   1.000  H
  H376     1.0000 0.91089  0.93899  0.52702  Biso   1.000  H
  H377     1.0000 0.87821  0.95997  0.55812  Biso   1.000  H
  H378     1.0000 0.87818  0.95997  0.55812  Biso   1.000  H
  H379     1.0000 0.96031  0.88722  0.84089  Biso   1.000  H
  H380     1.0000 0.91410  0.88460  0.84929  Biso   1.000  H
  C340     1.0000 0.96017  0.85550  0.91091  Biso   1.000  C
  H381     1.0000 0.96028  0.88722  0.84089  Biso   1.000  H
  H382     1.0000 0.92061  0.61677  0.83160  Biso   1.000  H
  H383     1.0000 0.92058  0.61677  0.83160  Biso   1.000  H
  O85      1.0000 0.01909  0.38242  0.89358  Biso   1.000  O
  O86      1.0000 0.06984  0.49469  0.91864  Biso   1.000  O
  O87      1.0000 0.01912  0.38242  0.89358  Biso   1.000  O
  O88      1.0000 0.06987  0.49469  0.91864  Biso   1.000  O
  C341     1.0000 0.99366  0.52098  0.92843  Biso   1.000  C
  H384     1.0000 0.13031  0.76758  0.05239  Biso   1.000  H
  H385     1.0000 0.13541  0.66842  0.05800  Biso   1.000  H
  H386     1.0000 0.17289  0.72849  0.08410  Biso   1.000  H
  H387     1.0000 0.17292  0.72849  0.08410  Biso   1.000  H
  C342     1.0000 0.06259  0.60541  0.53009  Biso   1.000  C
  C343     1.0000 0.06256  0.60541  0.53009  Biso   1.000  C
  H388     1.0000 0.10238  0.51549  0.56180  Biso   1.000  H
  H389     1.0000 0.10241  0.51549  0.56180  Biso   1.000  H
  H390     1.0000 0.09518  0.41408  0.61420  Biso   1.000  H
  H391     1.0000 0.05680  0.41870  0.63890  Biso   1.000  H
  H392     1.0000 0.05269  0.36468  0.59139  Biso   1.000  H
  H393     1.0000 0.09521  0.41408  0.61420  Biso   1.000  H
  H394     1.0000 0.05272  0.36468  0.59139  Biso   1.000  H
  H395     1.0000 0.01340  0.68022  0.50539  Biso   1.000  H
  H396     1.0000 0.94960  0.68172  0.51519  Biso   1.000  H
  H397     1.0000 0.92931  0.59142  0.51690  Biso   1.000  H
  H398     1.0000 0.94379  0.64537  0.56480  Biso   1.000  H
  H399     1.0000 0.92928  0.59142  0.51690  Biso   1.000  H
  O89      1.0000 0.84715  0.78781  0.82298  Biso   1.000  O
  O90      1.0000 0.84712  0.78781  0.82298  Biso   1.000  O
  S27      1.0000 0.78645  0.91645  0.74463  Biso   1.000  S
  C344     1.0000 0.80480  0.71687  0.57131  Biso   1.000  C
  O91      1.0000 0.80280  0.65012  0.65491  Biso   1.000  O
  O92      1.0000 0.74884  0.75322  0.61863  Biso   1.000  O
  O93      1.0000 0.74881  0.75322  0.61863  Biso   1.000  O
  H400     1.0000 0.98741  0.82590  0.91760  Biso   1.000  H
  H401     1.0000 0.94129  0.82290  0.92589  Biso   1.000  H
  C345     1.0000 0.96689  0.93681  0.93379  Biso   1.000  C
  H402     1.0000 0.98738  0.82590  0.91760  Biso   1.000  H
  H403     1.0000 0.98077  0.90152  0.91860  Biso   1.000  H
  H404     1.0000 0.97580  0.80261  0.91942  Biso   1.000  H
  C346     1.0000 0.93510  0.86312  0.93740  Biso   1.000  C
  C347     1.0000 0.00687  0.59211  0.95606  Biso   1.000  C
  C348     1.0000 0.00690  0.59211  0.95606  Biso   1.000  C
  C349     1.0000 0.95210  0.49032  0.92132  Biso   1.000  C
  C350     1.0000 0.09351  0.65131  0.50900  Biso   1.000  C
  C351     1.0000 0.09348  0.65131  0.50900  Biso   1.000  C
  S28      1.0000 0.83184  0.70201  0.84389  Biso   1.000  S
  C352     1.0000 0.76885  0.95972  0.68687  Biso   1.000  C
  O94      1.0000 0.82566  0.95042  0.76908  Biso   1.000  O
  O95      1.0000 0.75339  0.91507  0.76801  Biso   1.000  O
  O96      1.0000 0.75336  0.91507  0.76801  Biso   1.000  O
  C353     1.0000 0.82171  0.64263  0.55733  Biso   1.000  C
  C354     1.0000 0.79911  0.78912  0.54282  Biso   1.000  C
  H405     1.0000 0.94050  0.95679  0.93990  Biso   1.000  H
  H406     1.0000 0.98811  0.93212  0.96421  Biso   1.000  H
  H407     1.0000 0.97641  0.97640  0.91292  Biso   1.000  H
  H408     1.0000 0.98808  0.93212  0.96421  Biso   1.000  H
  H409     1.0000 0.97638  0.97640  0.91292  Biso   1.000  H
  H410     1.0000 0.95089  0.86268  0.97100  Biso   1.000  H
  H411     1.0000 0.91979  0.91589  0.93022  Biso   1.000  H
  H412     1.0000 0.91518  0.81647  0.93161  Biso   1.000  H
  C355     1.0000 0.04978  0.63107  0.96560  Biso   1.000  C
  C356     1.0000 0.04981  0.63107  0.96560  Biso   1.000  C
  C357     1.0000 0.97789  0.63170  0.97576  Biso   1.000  C
  C358     1.0000 0.92556  0.53478  0.94262  Biso   1.000  C
  C359     1.0000 0.93540  0.41551  0.89161  Biso   1.000  C
  C360     1.0000 0.92553  0.53478  0.94262  Biso   1.000  C
  H413     1.0000 0.10791  0.61153  0.49281  Biso   1.000  H
  H414     1.0000 0.07871  0.69271  0.48591  Biso   1.000  H
  H415     1.0000 0.11408  0.67959  0.53449  Biso   1.000  H
  H416     1.0000 0.11411  0.67959  0.53449  Biso   1.000  H
  C361     1.0000 0.78279  0.68272  0.80422  Biso   1.000  C
  O97      1.0000 0.82821  0.72618  0.88986  Biso   1.000  O
  O98      1.0000 0.86122  0.63788  0.84064  Biso   1.000  O
  O99      1.0000 0.86119  0.63788  0.84064  Biso   1.000  O
  C362     1.0000 0.72743  0.94211  0.66174  Biso   1.000  C
  C363     1.0000 0.79520  0.01230  0.66807  Biso   1.000  C
  C364     1.0000 0.83520  0.64700  0.51554  Biso   1.000  C
  C365     1.0000 0.82500  0.55970  0.58271  Biso   1.000  C
  C366     1.0000 0.81342  0.78712  0.50121  Biso   1.000  C
  C367     1.0000 0.77941  0.86868  0.55404  Biso   1.000  C
  C368     1.0000 0.81339  0.78712  0.50121  Biso   1.000  C
  C369     1.0000 0.77938  0.86868  0.55404  Biso   1.000  C
  H417     1.0000 0.05038  0.68172  0.98480  Biso   1.000  H
  H418     1.0000 0.07070  0.59142  0.98312  Biso   1.000  H
  H419     1.0000 0.05620  0.64537  0.93522  Biso   1.000  H
  H420     1.0000 0.05041  0.68172  0.98480  Biso   1.000  H
  H421     1.0000 0.07067  0.59142  0.98312  Biso   1.000  H
  H422     1.0000 0.05623  0.64537  0.93522  Biso   1.000  H
  C370     1.0000 0.93742  0.60541  0.96989  Biso   1.000  C
  H423     1.0000 0.98661  0.68022  0.99459  Biso   1.000  H
  C371     1.0000 0.93739  0.60541  0.96989  Biso   1.000  C
  H424     1.0000 0.98658  0.68022  0.99459  Biso   1.000  H
  H425     1.0000 0.89760  0.51549  0.93822  Biso   1.000  H
  H426     1.0000 0.90480  0.41408  0.88582  Biso   1.000  H
  H427     1.0000 0.94322  0.41870  0.86112  Biso   1.000  H
  H428     1.0000 0.94729  0.36468  0.90859  Biso   1.000  H
  H429     1.0000 0.94319  0.41870  0.86112  Biso   1.000  H
  C372     1.0000 0.74798  0.72892  0.81040  Biso   1.000  C
  C373     1.0000 0.77978  0.62901  0.76522  Biso   1.000  C
  C374     1.0000 0.71246  0.98320  0.61774  Biso   1.000  C
  C375     1.0000 0.69939  0.88010  0.67743  Biso   1.000  C
  C376     1.0000 0.71243  0.98320  0.61774  Biso   1.000  C
  C377     1.0000 0.69936  0.88010  0.67743  Biso   1.000  C
  C378     1.0000 0.77736  0.05071  0.62421  Biso   1.000  C
  C379     1.0000 0.84111  0.02910  0.69012  Biso   1.000  C
  H430     1.0000 0.84699  0.59823  0.50550  Biso   1.000  H
  C380     1.0000 0.83255  0.71787  0.48766  Biso   1.000  C
  C381     1.0000 0.83252  0.71787  0.48766  Biso   1.000  C
  H431     1.0000 0.83841  0.51892  0.56602  Biso   1.000  H
  H432     1.0000 0.84179  0.56619  0.61559  Biso   1.000  H
  H433     1.0000 0.79689  0.54003  0.58299  Biso   1.000  H
  H434     1.0000 0.83838  0.51892  0.56602  Biso   1.000  H
  H435     1.0000 0.80980  0.83527  0.48141  Biso   1.000  H
  H436     1.0000 0.79671  0.89278  0.58360  Biso   1.000  H
  H437     1.0000 0.77731  0.90833  0.52770  Biso   1.000  H
  H438     1.0000 0.75129  0.85669  0.55819  Biso   1.000  H
  H439     1.0000 0.79668  0.89278  0.58360  Biso   1.000  H
  H440     1.0000 0.77728  0.90833  0.52770  Biso   1.000  H
  C382     1.0000 0.90651  0.65131  0.99102  Biso   1.000  C
  C383     1.0000 0.90648  0.65131  0.99102  Biso   1.000  C
  C384     1.0000 0.71060  0.71981  0.77641  Biso   1.000  C
  C385     1.0000 0.74845  0.78868  0.85094  Biso   1.000  C
  C386     1.0000 0.74138  0.62383  0.73230  Biso   1.000  C
  C387     1.0000 0.81473  0.57462  0.75611  Biso   1.000  C
  H441     1.0000 0.68440  0.97309  0.60019  Biso   1.000  H
  C388     1.0000 0.73647  0.03728  0.59890  Biso   1.000  C
  C389     1.0000 0.73644  0.03728  0.59890  Biso   1.000  C
  H442     1.0000 0.67341  0.87411  0.65230  Biso   1.000  H
  H443     1.0000 0.71359  0.82603  0.68329  Biso   1.000  H
  H444     1.0000 0.69290  0.89978  0.70692  Biso   1.000  H
  H445     1.0000 0.67338  0.87411  0.65230  Biso   1.000  H
  H446     1.0000 0.79421  0.08761  0.61120  Biso   1.000  H
  H447     1.0000 0.79418  0.08761  0.61120  Biso   1.000  H
  H448     1.0000 0.85600  0.97590  0.69759  Biso   1.000  H
  H449     1.0000 0.84409  0.06170  0.71950  Biso   1.000  H
  H450     1.0000 0.85301  0.06051  0.66749  Biso   1.000  H
  H451     1.0000 0.85298  0.06051  0.66749  Biso   1.000  H
  C390     1.0000 0.85000  0.72087  0.44459  Biso   1.000  C
  H452     1.0000 0.88590  0.67959  0.96550  Biso   1.000  H
  H453     1.0000 0.89211  0.61153  0.00721  Biso   1.000  H
  H454     1.0000 0.92131  0.69271  0.01411  Biso   1.000  H
  H455     1.0000 0.89208  0.61153  0.00721  Biso   1.000  H
  H456     1.0000 0.92128  0.69271  0.01411  Biso   1.000  H
  H457     1.0000 0.68669  0.74922  0.78041  Biso   1.000  H
  C391     1.0000 0.70681  0.66898  0.73662  Biso   1.000  C
  C392     1.0000 0.70678  0.66898  0.73662  Biso   1.000  C
  H458     1.0000 0.75291  0.75752  0.88100  Biso   1.000  H
  H459     1.0000 0.77112  0.82921  0.85322  Biso   1.000  H
  H460     1.0000 0.72159  0.81822  0.84489  Biso   1.000  H
  H461     1.0000 0.75288  0.75752  0.88100  Biso   1.000  H
  H462     1.0000 0.77109  0.82921  0.85322  Biso   1.000  H
  H463     1.0000 0.73869  0.58761  0.70560  Biso   1.000  H
  H464     1.0000 0.80461  0.54390  0.72612  Biso   1.000  H
  H465     1.0000 0.83850  0.60978  0.75382  Biso   1.000  H
  H466     1.0000 0.82371  0.53491  0.78252  Biso   1.000  H
  H467     1.0000 0.80458  0.54390  0.72612  Biso   1.000  H
  H468     1.0000 0.82368  0.53491  0.78252  Biso   1.000  H
  C393     1.0000 0.71881  0.07899  0.55129  Biso   1.000  C
  C394     1.0000 0.71878  0.07899  0.55129  Biso   1.000  C
  H469     1.0000 0.86967  0.76758  0.44759  Biso   1.000  H
  H470     1.0000 0.86458  0.66842  0.44202  Biso   1.000  H
  H471     1.0000 0.82709  0.72849  0.41589  Biso   1.000  H
  C395     1.0000 0.66553  0.66298  0.69920  Biso   1.000  C
  C396     1.0000 0.66550  0.66298  0.69920  Biso   1.000  C
  H472     1.0000 0.74008  0.11527  0.54350  Biso   1.000  H
  H473     1.0000 0.71042  0.03628  0.52641  Biso   1.000  H
  H474     1.0000 0.69429  0.11253  0.55290  Biso   1.000  H
  H475     1.0000 0.71039  0.03628  0.52641  Biso   1.000  H
  H476     1.0000 0.65971  0.60447  0.68991  Biso   1.000  H
  H477     1.0000 0.64300  0.68503  0.71232  Biso   1.000  H
  H478     1.0000 0.66708  0.69583  0.67100  Biso   1.000  H
  H479     1.0000 0.65968  0.60447  0.68991  Biso   1.000  H
  C397     1.0000 0.25153  0.78868  0.64905  Biso   1.000  C
  C398     1.0000 0.25201  0.72892  0.68962  Biso   1.000  C
  C399     1.0000 0.25204  0.72892  0.68962  Biso   1.000  C
  H480     1.0000 0.24710  0.75752  0.61899  Biso   1.000  H
  H481     1.0000 0.27839  0.81822  0.65509  Biso   1.000  H
  H482     1.0000 0.22890  0.82921  0.64680  Biso   1.000  H
  H483     1.0000 0.22887  0.82921  0.64680  Biso   1.000  H
  C400     1.0000 0.21720  0.68272  0.69580  Biso   1.000  C
  C401     1.0000 0.21723  0.68272  0.69580  Biso   1.000  C
  C402     1.0000 0.28938  0.71981  0.72358  Biso   1.000  C
  C403     1.0000 0.25150  0.78868  0.64905  Biso   1.000  C
  S29      1.0000 0.16815  0.70201  0.65613  Biso   1.000  S
  C404     1.0000 0.22021  0.62901  0.73480  Biso   1.000  C
  C405     1.0000 0.29320  0.66898  0.76336  Biso   1.000  C
  C406     1.0000 0.29317  0.66898  0.76336  Biso   1.000  C
  H484     1.0000 0.31330  0.74922  0.71961  Biso   1.000  H
  H485     1.0000 0.31327  0.74922  0.71961  Biso   1.000  H
  O100     1.0000 0.15287  0.78781  0.67704  Biso   1.000  O
  O101     1.0000 0.17177  0.72618  0.61016  Biso   1.000  O
  O102     1.0000 0.13880  0.63788  0.65938  Biso   1.000  O
  O103     1.0000 0.17180  0.72618  0.61016  Biso   1.000  O
  O104     1.0000 0.13877  0.63788  0.65938  Biso   1.000  O
  C407     1.0000 0.25860  0.62383  0.76772  Biso   1.000  C
  C408     1.0000 0.18525  0.57462  0.74392  Biso   1.000  C
  C409     1.0000 0.25857  0.62383  0.76772  Biso   1.000  C
  C410     1.0000 0.18529  0.57462  0.74392  Biso   1.000  C
  C411     1.0000 0.33449  0.66298  0.80082  Biso   1.000  C
  C412     1.0000 0.13749  0.78132  0.71793  Biso   1.000  C
  C413     1.0000 0.13752  0.78132  0.71793  Biso   1.000  C
  H486     1.0000 0.26130  0.58761  0.79442  Biso   1.000  H
  H487     1.0000 0.16149  0.60978  0.74620  Biso   1.000  H
  H488     1.0000 0.19540  0.54390  0.77391  Biso   1.000  H
  H489     1.0000 0.17631  0.53491  0.71750  Biso   1.000  H
  H490     1.0000 0.19537  0.54390  0.77391  Biso   1.000  H
  H491     1.0000 0.17628  0.53491  0.71750  Biso   1.000  H
  H492     1.0000 0.34031  0.60447  0.81012  Biso   1.000  H
  H493     1.0000 0.35699  0.68503  0.78770  Biso   1.000  H
  H494     1.0000 0.33290  0.69583  0.82899  Biso   1.000  H
  H495     1.0000 0.35702  0.68503  0.78770  Biso   1.000  H
  H496     1.0000 0.33287  0.69583  0.82899  Biso   1.000  H
  C414     1.0000 0.09505  0.76820  0.71389  Biso   1.000  C
  C415     1.0000 0.16469  0.79418  0.76283  Biso   1.000  C
  C416     1.0000 0.16472  0.79418  0.76283  Biso   1.000  C
  C417     1.0000 0.06460  0.76752  0.66453  Biso   1.000  C
  C418     1.0000 0.08163  0.76271  0.75596  Biso   1.000  C
  C419     1.0000 0.08160  0.76271  0.75596  Biso   1.000  C
  C420     1.0000 0.15085  0.78531  0.80354  Biso   1.000  C
  C421     1.0000 0.15081  0.78531  0.80354  Biso   1.000  C
  O105     1.0000 0.20629  0.81816  0.76583  Biso   1.000  O
  O106     1.0000 0.20632  0.81816  0.76583  Biso   1.000  O
  C422     1.0000 0.02417  0.72137  0.66410  Biso   1.000  C
  C423     1.0000 0.02420  0.72137  0.66410  Biso   1.000  C
  H497     1.0000 0.07859  0.73467  0.64340  Biso   1.000  H
  C424     1.0000 0.05848  0.85563  0.64355  Biso   1.000  C
  H498     1.0000 0.07862  0.73467  0.64340  Biso   1.000  H
  C425     1.0000 0.05851  0.85563  0.64355  Biso   1.000  C
  H499     1.0000 0.05261  0.75403  0.75350  Biso   1.000  H
  C426     1.0000 0.10853  0.76933  0.80146  Biso   1.000  C
  C427     1.0000 0.10856  0.76933  0.80146  Biso   1.000  C
  O107     1.0000 0.17931  0.79918  0.84797  Biso   1.000  O
  O108     1.0000 0.17928  0.79918  0.84797  Biso   1.000  O
  S30      1.0000 0.21353  0.91645  0.75535  Biso   1.000  S
  S31      1.0000 0.21356  0.91645  0.75535  Biso   1.000  S
  C428     1.0000 0.02416  0.63438  0.66463  Biso   1.000  C
  C429     1.0000 0.98633  0.76240  0.66167  Biso   1.000  C
  H500     1.0000 0.03970  0.88722  0.65909  Biso   1.000  H
  C430     1.0000 0.03982  0.85550  0.58911  Biso   1.000  C
  H501     1.0000 0.08588  0.88460  0.65069  Biso   1.000  H
  H502     1.0000 0.08591  0.88460  0.65069  Biso   1.000  H
  C431     1.0000 0.09303  0.76533  0.84654  Biso   1.000  C
  S32      1.0000 0.20948  0.72249  0.87367  Biso   1.000  S
  S33      1.0000 0.20945  0.72249  0.87367  Biso   1.000  S
  C432     1.0000 0.23114  0.95972  0.81315  Biso   1.000  C
  O109     1.0000 0.17433  0.95042  0.73094  Biso   1.000  O
  O110     1.0000 0.24662  0.91507  0.73198  Biso   1.000  O
  C433     1.0000 0.23117  0.95972  0.81315  Biso   1.000  C
  O111     1.0000 0.17436  0.95042  0.73094  Biso   1.000  O
  O112     1.0000 0.24659  0.91507  0.73198  Biso   1.000  O
  C434     1.0000 0.98661  0.59192  0.66074  Biso   1.000  C
  O113     1.0000 0.05882  0.58624  0.66875  Biso   1.000  O
  O114     1.0000 0.05879  0.58624  0.66875  Biso   1.000  O
  C435     1.0000 0.94876  0.72099  0.66006  Biso   1.000  C
  H503     1.0000 0.98620  0.82172  0.66110  Biso   1.000  H
  H504     1.0000 0.98617  0.82172  0.66110  Biso   1.000  H
  H505     1.0000 0.01260  0.82590  0.58239  Biso   1.000  H
  H506     1.0000 0.05869  0.82290  0.57409  Biso   1.000  H
  C436     1.0000 0.03309  0.93681  0.56619  Biso   1.000  C
  H507     1.0000 0.01921  0.90152  0.58142  Biso   1.000  H
  H508     1.0000 0.02419  0.80261  0.58060  Biso   1.000  H
  C437     1.0000 0.06489  0.86312  0.56262  Biso   1.000  C
  C438     1.0000 0.05123  0.72099  0.83996  Biso   1.000  C
  H509     1.0000 0.11399  0.73130  0.87002  Biso   1.000  H
  C439     1.0000 0.09366  0.85319  0.86849  Biso   1.000  C
  C440     1.0000 0.05126  0.72099  0.83996  Biso   1.000  C
  H510     1.0000 0.11402  0.73130  0.87002  Biso   1.000  H
  C441     1.0000 0.09363  0.85319  0.86849  Biso   1.000  C
  C442     1.0000 0.19519  0.71687  0.92872  Biso   1.000  C
  O115     1.0000 0.19719  0.65012  0.84511  Biso   1.000  O
  O116     1.0000 0.25117  0.75322  0.88139  Biso   1.000  O
  C443     1.0000 0.27256  0.94211  0.83828  Biso   1.000  C
  C444     1.0000 0.20478  0.01230  0.83196  Biso   1.000  C
  O117     1.0000 0.98677  0.50412  0.65577  Biso   1.000  O
  O118     1.0000 0.98674  0.50412  0.65577  Biso   1.000  O
  C445     1.0000 0.94957  0.63382  0.66142  Biso   1.000  C
  C446     1.0000 0.94954  0.63382  0.66142  Biso   1.000  C
  H511     1.0000 0.07940  0.61677  0.66839  Biso   1.000  H
  C447     1.0000 0.90698  0.76533  0.65348  Biso   1.000  C
  C448     1.0000 0.90695  0.76533  0.65348  Biso   1.000  C
  H512     1.0000 0.05949  0.95679  0.56012  Biso   1.000  H
  H513     1.0000 0.02361  0.97640  0.58710  Biso   1.000  H
  H514     1.0000 0.01191  0.93212  0.53581  Biso   1.000  H
  H515     1.0000 0.01188  0.93212  0.53581  Biso   1.000  H
  H516     1.0000 0.04910  0.86268  0.52902  Biso   1.000  H
  H517     1.0000 0.08020  0.91589  0.56980  Biso   1.000  H
  H518     1.0000 0.08481  0.81647  0.56841  Biso   1.000  H
  C449     1.0000 0.01366  0.76240  0.83835  Biso   1.000  C
  C450     1.0000 0.05045  0.63382  0.83860  Biso   1.000  C
  C451     1.0000 0.05042  0.63382  0.83860  Biso   1.000  C
  H519     1.0000 0.07150  0.88729  0.84740  Biso   1.000  H
  H520     1.0000 0.12091  0.87973  0.86920  Biso   1.000  H
  C452     1.0000 0.08705  0.85450  0.91885  Biso   1.000  C
  H521     1.0000 0.12088  0.87973  0.86920  Biso   1.000  H
  C453     1.0000 0.08702  0.85450  0.91885  Biso   1.000  C
  C454     1.0000 0.17827  0.64263  0.94269  Biso   1.000  C
  C455     1.0000 0.20087  0.78912  0.95717  Biso   1.000  C
  C456     1.0000 0.17830  0.64263  0.94269  Biso   1.000  C
  C457     1.0000 0.20090  0.78912  0.95717  Biso   1.000  C
  C458     1.0000 0.30063  0.88010  0.82259  Biso   1.000  C
  C459     1.0000 0.28755  0.98320  0.88228  Biso   1.000  C
  C460     1.0000 0.28752  0.98320  0.88228  Biso   1.000  C
  C461     1.0000 0.22263  0.05071  0.87581  Biso   1.000  C
  C462     1.0000 0.15888  0.02910  0.80990  Biso   1.000  C
  C463     1.0000 0.22266  0.05071  0.87581  Biso   1.000  C
  C464     1.0000 0.15891  0.02910  0.80990  Biso   1.000  C
  S34      1.0000 0.97229  0.46934  0.60090  Biso   1.000  S
  S35      1.0000 0.97232  0.46934  0.60090  Biso   1.000  S
  O119     1.0000 0.91374  0.59279  0.66138  Biso   1.000  O
  H522     1.0000 0.88600  0.73130  0.63000  Biso   1.000  H
  C465     1.0000 0.89145  0.76933  0.69856  Biso   1.000  C
  C466     1.0000 0.90635  0.85319  0.63154  Biso   1.000  C
  C467     1.0000 0.90632  0.85319  0.63154  Biso   1.000  C
  C468     1.0000 0.97582  0.72137  0.83592  Biso   1.000  C
  H523     1.0000 0.01381  0.82172  0.83889  Biso   1.000  H
  O120     1.0000 0.08625  0.59279  0.83864  Biso   1.000  O
  C469     1.0000 0.01338  0.59192  0.83928  Biso   1.000  C
  C470     1.0000 0.01341  0.59192  0.83928  Biso   1.000  C
  C471     1.0000 0.09332  0.94080  0.94062  Biso   1.000  C
  H524     1.0000 0.10701  0.81529  0.93930  Biso   1.000  H
  H525     1.0000 0.05831  0.83508  0.91781  Biso   1.000  H
  H526     1.0000 0.10698  0.81529  0.93930  Biso   1.000  H
  H527     1.0000 0.05828  0.83508  0.91781  Biso   1.000  H
  C472     1.0000 0.17499  0.55970  0.91731  Biso   1.000  C
  C473     1.0000 0.16478  0.64700  0.98444  Biso   1.000  C
  C474     1.0000 0.16481  0.64700  0.98444  Biso   1.000  C
  C475     1.0000 0.18660  0.78712  0.99881  Biso   1.000  C
  C476     1.0000 0.22060  0.86868  0.94594  Biso   1.000  C
  C477     1.0000 0.18657  0.78712  0.99881  Biso   1.000  C
  C478     1.0000 0.22057  0.86868  0.94594  Biso   1.000  C
  H528     1.0000 0.28639  0.82603  0.81669  Biso   1.000  H
  H529     1.0000 0.32661  0.87411  0.84772  Biso   1.000  H
  H530     1.0000 0.30709  0.89978  0.79310  Biso   1.000  H
  H531     1.0000 0.32658  0.87411  0.84772  Biso   1.000  H
  H532     1.0000 0.30712  0.89978  0.79310  Biso   1.000  H
  H533     1.0000 0.31558  0.97309  0.89980  Biso   1.000  H
  H534     1.0000 0.31561  0.97309  0.89980  Biso   1.000  H
  C479     1.0000 0.26354  0.03728  0.90112  Biso   1.000  C
  H535     1.0000 0.20580  0.08761  0.88879  Biso   1.000  H
  H536     1.0000 0.20577  0.08761  0.88879  Biso   1.000  H
  H537     1.0000 0.14398  0.97590  0.80239  Biso   1.000  H
  H538     1.0000 0.15590  0.06170  0.78052  Biso   1.000  H
  H539     1.0000 0.14700  0.06051  0.83249  Biso   1.000  H
  H540     1.0000 0.15593  0.06170  0.78052  Biso   1.000  H
  C480     1.0000 0.00633  0.52098  0.57159  Biso   1.000  C
  O121     1.0000 0.98090  0.38242  0.60644  Biso   1.000  O
  O122     1.0000 0.93014  0.49469  0.58135  Biso   1.000  O
  H541     1.0000 0.91909  0.54228  0.66810  Biso   1.000  H
  C481     1.0000 0.91839  0.76271  0.74406  Biso   1.000  C
  C482     1.0000 0.84916  0.78531  0.69645  Biso   1.000  C
  C483     1.0000 0.91836  0.76271  0.74406  Biso   1.000  C
  C484     1.0000 0.84913  0.78531  0.69645  Biso   1.000  C
  H542     1.0000 0.92851  0.88729  0.65259  Biso   1.000  H
  H543     1.0000 0.87911  0.87973  0.63082  Biso   1.000  H
  C485     1.0000 0.91296  0.85450  0.58117  Biso   1.000  C
  H544     1.0000 0.92848  0.88729  0.65259  Biso   1.000  H
  H545     1.0000 0.87908  0.87973  0.63082  Biso   1.000  H
  C486     1.0000 0.91293  0.85450  0.58117  Biso   1.000  C
  C487     1.0000 0.93542  0.76752  0.83549  Biso   1.000  C
  C488     1.0000 0.93538  0.76752  0.83549  Biso   1.000  C
  C489     1.0000 0.97583  0.63438  0.83539  Biso   1.000  C
  H546     1.0000 0.08090  0.54228  0.83192  Biso   1.000  H
  H547     1.0000 0.08093  0.54228  0.83192  Biso   1.000  H
  O123     1.0000 0.01325  0.50412  0.84425  Biso   1.000  O
  H548     1.0000 0.07299  0.97933  0.92099  Biso   1.000  H
  H549     1.0000 0.08909  0.93899  0.97300  Biso   1.000  H
  H550     1.0000 0.12181  0.95997  0.94191  Biso   1.000  H
  H551     1.0000 0.07302  0.97933  0.92099  Biso   1.000  H
  H552     1.0000 0.08912  0.93899  0.97300  Biso   1.000  H
  H553     1.0000 0.12178  0.95997  0.94191  Biso   1.000  H
  H554     1.0000 0.16161  0.51892  0.93401  Biso   1.000  H
  H555     1.0000 0.15819  0.56619  0.88439  Biso   1.000  H
  H556     1.0000 0.20309  0.54003  0.91699  Biso   1.000  H
  H557     1.0000 0.16158  0.51892  0.93401  Biso   1.000  H
  H558     1.0000 0.15822  0.56619  0.88439  Biso   1.000  H
  H559     1.0000 0.20306  0.54003  0.91699  Biso   1.000  H
  H560     1.0000 0.15299  0.59823  0.99452  Biso   1.000  H
  C490     1.0000 0.16746  0.71787  0.01232  Biso   1.000  C
  H561     1.0000 0.19019  0.83527  0.01861  Biso   1.000  H
  H562     1.0000 0.19022  0.83527  0.01861  Biso   1.000  H
  H563     1.0000 0.20330  0.89278  0.91642  Biso   1.000  H
  H564     1.0000 0.22271  0.90833  0.97232  Biso   1.000  H
  H565     1.0000 0.24869  0.85669  0.94180  Biso   1.000  H
  H566     1.0000 0.24872  0.85669  0.94180  Biso   1.000  H
  C491     1.0000 0.28120  0.07899  0.94870  Biso   1.000  C
  C492     1.0000 0.04789  0.49032  0.57870  Biso   1.000  C
  C493     1.0000 0.04792  0.49032  0.57870  Biso   1.000  C
  C494     1.0000 0.99312  0.59211  0.54396  Biso   1.000  C
  H567     1.0000 0.94740  0.75403  0.74649  Biso   1.000  H
  C495     1.0000 0.90494  0.76820  0.78613  Biso   1.000  C
  H568     1.0000 0.94737  0.75403  0.74649  Biso   1.000  H
  C496     1.0000 0.83530  0.79418  0.73720  Biso   1.000  C
  O124     1.0000 0.82070  0.79918  0.65202  Biso   1.000  O
  O125     1.0000 0.82067  0.79918  0.65202  Biso   1.000  O
  H569     1.0000 0.89300  0.81529  0.56069  Biso   1.000  H
  H570     1.0000 0.94170  0.83508  0.58221  Biso   1.000  H
  C497     1.0000 0.90670  0.94080  0.55940  Biso   1.000  C
  H571     1.0000 0.89297  0.81529  0.56069  Biso   1.000  H
  H572     1.0000 0.94167  0.83508  0.58221  Biso   1.000  H
  C498     1.0000 0.90667  0.94080  0.55940  Biso   1.000  C
  H573     1.0000 0.92140  0.73467  0.85662  Biso   1.000  H
  C499     1.0000 0.94151  0.85563  0.85648  Biso   1.000  C
  O126     1.0000 0.94117  0.58624  0.83128  Biso   1.000  O
  S36      1.0000 0.02767  0.46934  0.89912  Biso   1.000  S
  C500     1.0000 0.14998  0.72087  0.05539  Biso   1.000  C
  C501     1.0000 0.15001  0.72087  0.05539  Biso   1.000  C
  H574     1.0000 0.25990  0.11527  0.95649  Biso   1.000  H
  H575     1.0000 0.28960  0.03628  0.97361  Biso   1.000  H
  H576     1.0000 0.30570  0.11253  0.94712  Biso   1.000  H
  H577     1.0000 0.25987  0.11527  0.95649  Biso   1.000  H
  C502     1.0000 0.07446  0.53478  0.55740  Biso   1.000  C
  C503     1.0000 0.06459  0.41551  0.60841  Biso   1.000  C
  C504     1.0000 0.02210  0.63170  0.52427  Biso   1.000  C
  C505     1.0000 0.95021  0.63107  0.53442  Biso   1.000  C
  C506     1.0000 0.86246  0.78132  0.78206  Biso   1.000  C
  C507     1.0000 0.86249  0.78132  0.78206  Biso   1.000  C
  O127     1.0000 0.79370  0.81816  0.73419  Biso   1.000  O
  S37      1.0000 0.79053  0.72249  0.62632  Biso   1.000  S
  S38      1.0000 0.79050  0.72249  0.62632  Biso   1.000  S
  H578     1.0000 0.92699  0.97933  0.57899  Biso   1.000  H
  H579     1.0000 0.91089  0.93899  0.52702  Biso   1.000  H
  H580     1.0000 0.87821  0.95997  0.55812  Biso   1.000  H
  H581     1.0000 0.87818  0.95997  0.55812  Biso   1.000  H
  H582     1.0000 0.96031  0.88722  0.84089  Biso   1.000  H
  H583     1.0000 0.91410  0.88460  0.84929  Biso   1.000  H
  C508     1.0000 0.96017  0.85550  0.91091  Biso   1.000  C
  H584     1.0000 0.96028  0.88722  0.84089  Biso   1.000  H
  H585     1.0000 0.92061  0.61677  0.83160  Biso   1.000  H
  H586     1.0000 0.92058  0.61677  0.83160  Biso   1.000  H
  C509     1.0000 0.99366  0.52098  0.92843  Biso   1.000  C
  O128     1.0000 0.01909  0.38242  0.89358  Biso   1.000  O
  O129     1.0000 0.06984  0.49469  0.91864  Biso   1.000  O
  O130     1.0000 0.01912  0.38242  0.89358  Biso   1.000  O
  O131     1.0000 0.06987  0.49469  0.91864  Biso   1.000  O
  H587     1.0000 0.13031  0.76758  0.05239  Biso   1.000  H
  H588     1.0000 0.13541  0.66842  0.05800  Biso   1.000  H
  H589     1.0000 0.17289  0.72849  0.08410  Biso   1.000  H
  H590     1.0000 0.17292  0.72849  0.08410  Biso   1.000  H
  H591     1.0000 0.10238  0.51549  0.56180  Biso   1.000  H
  C510     1.0000 0.06259  0.60541  0.53009  Biso   1.000  C
  H592     1.0000 0.10241  0.51549  0.56180  Biso   1.000  H
  C511     1.0000 0.06256  0.60541  0.53009  Biso   1.000  C
  H593     1.0000 0.05680  0.41870  0.63890  Biso   1.000  H
  H594     1.0000 0.09518  0.41408  0.61420  Biso   1.000  H
  H595     1.0000 0.05269  0.36468  0.59139  Biso   1.000  H
  H596     1.0000 0.09521  0.41408  0.61420  Biso   1.000  H
  H597     1.0000 0.05272  0.36468  0.59139  Biso   1.000  H
  H598     1.0000 0.01340  0.68022  0.50539  Biso   1.000  H
  H599     1.0000 0.94960  0.68172  0.51519  Biso   1.000  H
  H600     1.0000 0.92931  0.59142  0.51690  Biso   1.000  H
  H601     1.0000 0.94379  0.64537  0.56480  Biso   1.000  H
  H602     1.0000 0.92928  0.59142  0.51690  Biso   1.000  H
  O132     1.0000 0.84715  0.78781  0.82298  Biso   1.000  O
  O133     1.0000 0.84712  0.78781  0.82298  Biso   1.000  O
  S39      1.0000 0.78645  0.91645  0.74463  Biso   1.000  S
  C512     1.0000 0.80480  0.71687  0.57131  Biso   1.000  C
  O134     1.0000 0.80280  0.65012  0.65491  Biso   1.000  O
  O135     1.0000 0.74884  0.75322  0.61863  Biso   1.000  O
  O136     1.0000 0.74881  0.75322  0.61863  Biso   1.000  O
  H603     1.0000 0.98741  0.82590  0.91760  Biso   1.000  H
  H604     1.0000 0.94129  0.82290  0.92589  Biso   1.000  H
  C513     1.0000 0.96689  0.93681  0.93379  Biso   1.000  C
  H605     1.0000 0.98738  0.82590  0.91760  Biso   1.000  H
  H606     1.0000 0.98077  0.90152  0.91860  Biso   1.000  H
  H607     1.0000 0.97580  0.80261  0.91942  Biso   1.000  H
  C514     1.0000 0.93510  0.86312  0.93740  Biso   1.000  C
  C515     1.0000 0.95210  0.49032  0.92132  Biso   1.000  C
  C516     1.0000 0.00687  0.59211  0.95606  Biso   1.000  C
  C517     1.0000 0.00690  0.59211  0.95606  Biso   1.000  C
  C518     1.0000 0.09351  0.65131  0.50900  Biso   1.000  C
  C519     1.0000 0.09348  0.65131  0.50900  Biso   1.000  C
  S40      1.0000 0.83184  0.70201  0.84389  Biso   1.000  S
  C520     1.0000 0.76885  0.95972  0.68687  Biso   1.000  C
  O137     1.0000 0.82566  0.95042  0.76908  Biso   1.000  O
  O138     1.0000 0.75339  0.91507  0.76801  Biso   1.000  O
  O139     1.0000 0.75336  0.91507  0.76801  Biso   1.000  O
  C521     1.0000 0.82171  0.64263  0.55733  Biso   1.000  C
  C522     1.0000 0.79911  0.78912  0.54282  Biso   1.000  C
  H608     1.0000 0.94050  0.95679  0.93990  Biso   1.000  H
  H609     1.0000 0.98811  0.93212  0.96421  Biso   1.000  H
  H610     1.0000 0.97641  0.97640  0.91292  Biso   1.000  H
  H611     1.0000 0.98808  0.93212  0.96421  Biso   1.000  H
  H612     1.0000 0.97638  0.97640  0.91292  Biso   1.000  H
  H613     1.0000 0.95089  0.86268  0.97100  Biso   1.000  H
  H614     1.0000 0.91979  0.91589  0.93022  Biso   1.000  H
  H615     1.0000 0.91518  0.81647  0.93161  Biso   1.000  H
  C523     1.0000 0.92556  0.53478  0.94262  Biso   1.000  C
  C524     1.0000 0.93540  0.41551  0.89161  Biso   1.000  C
  C525     1.0000 0.92553  0.53478  0.94262  Biso   1.000  C
  C526     1.0000 0.97789  0.63170  0.97576  Biso   1.000  C
  C527     1.0000 0.04978  0.63107  0.96560  Biso   1.000  C
  C528     1.0000 0.04981  0.63107  0.96560  Biso   1.000  C
  H616     1.0000 0.10791  0.61153  0.49281  Biso   1.000  H
  H617     1.0000 0.07871  0.69271  0.48591  Biso   1.000  H
  H618     1.0000 0.11408  0.67959  0.53449  Biso   1.000  H
  H619     1.0000 0.11411  0.67959  0.53449  Biso   1.000  H
  C529     1.0000 0.78279  0.68272  0.80422  Biso   1.000  C
  O140     1.0000 0.82821  0.72618  0.88986  Biso   1.000  O
  O141     1.0000 0.86122  0.63788  0.84064  Biso   1.000  O
  O142     1.0000 0.86119  0.63788  0.84064  Biso   1.000  O
  C530     1.0000 0.72743  0.94211  0.66174  Biso   1.000  C
  C531     1.0000 0.79520  0.01230  0.66807  Biso   1.000  C
  C532     1.0000 0.83520  0.64700  0.51554  Biso   1.000  C
  C533     1.0000 0.82500  0.55970  0.58271  Biso   1.000  C
  C534     1.0000 0.81342  0.78712  0.50121  Biso   1.000  C
  C535     1.0000 0.77941  0.86868  0.55404  Biso   1.000  C
  C536     1.0000 0.81339  0.78712  0.50121  Biso   1.000  C
  C537     1.0000 0.77938  0.86868  0.55404  Biso   1.000  C
  H620     1.0000 0.89760  0.51549  0.93822  Biso   1.000  H
  C538     1.0000 0.93742  0.60541  0.96989  Biso   1.000  C
  C539     1.0000 0.93739  0.60541  0.96989  Biso   1.000  C
  H621     1.0000 0.90480  0.41408  0.88582  Biso   1.000  H
  H622     1.0000 0.94322  0.41870  0.86112  Biso   1.000  H
  H623     1.0000 0.94729  0.36468  0.90859  Biso   1.000  H
  H624     1.0000 0.94319  0.41870  0.86112  Biso   1.000  H
  H625     1.0000 0.98661  0.68022  0.99459  Biso   1.000  H
  H626     1.0000 0.98658  0.68022  0.99459  Biso   1.000  H
  H627     1.0000 0.05038  0.68172  0.98480  Biso   1.000  H
  H628     1.0000 0.07070  0.59142  0.98312  Biso   1.000  H
  H629     1.0000 0.05620  0.64537  0.93522  Biso   1.000  H
  H630     1.0000 0.05041  0.68172  0.98480  Biso   1.000  H
  H631     1.0000 0.07067  0.59142  0.98312  Biso   1.000  H
  H632     1.0000 0.05623  0.64537  0.93522  Biso   1.000  H
  C540     1.0000 0.74798  0.72892  0.81040  Biso   1.000  C
  C541     1.0000 0.77978  0.62901  0.76522  Biso   1.000  C
  C542     1.0000 0.71246  0.98320  0.61774  Biso   1.000  C
  C543     1.0000 0.69939  0.88010  0.67743  Biso   1.000  C
  C544     1.0000 0.71243  0.98320  0.61774  Biso   1.000  C
  C545     1.0000 0.69936  0.88010  0.67743  Biso   1.000  C
  C546     1.0000 0.77736  0.05071  0.62421  Biso   1.000  C
  C547     1.0000 0.84111  0.02910  0.69012  Biso   1.000  C
  H633     1.0000 0.84699  0.59823  0.50550  Biso   1.000  H
  C548     1.0000 0.83255  0.71787  0.48766  Biso   1.000  C
  C549     1.0000 0.83252  0.71787  0.48766  Biso   1.000  C
  H634     1.0000 0.83841  0.51892  0.56602  Biso   1.000  H
  H635     1.0000 0.84179  0.56619  0.61559  Biso   1.000  H
  H636     1.0000 0.79689  0.54003  0.58299  Biso   1.000  H
  H637     1.0000 0.83838  0.51892  0.56602  Biso   1.000  H
  H638     1.0000 0.80980  0.83527  0.48141  Biso   1.000  H
  H639     1.0000 0.79671  0.89278  0.58360  Biso   1.000  H
  H640     1.0000 0.77731  0.90833  0.52770  Biso   1.000  H
  H641     1.0000 0.75129  0.85669  0.55819  Biso   1.000  H
  H642     1.0000 0.79668  0.89278  0.58360  Biso   1.000  H
  H643     1.0000 0.77728  0.90833  0.52770  Biso   1.000  H
  C550     1.0000 0.90651  0.65131  0.99102  Biso   1.000  C
  C551     1.0000 0.90648  0.65131  0.99102  Biso   1.000  C
  C552     1.0000 0.71060  0.71981  0.77641  Biso   1.000  C
  C553     1.0000 0.74845  0.78868  0.85094  Biso   1.000  C
  C554     1.0000 0.74138  0.62383  0.73230  Biso   1.000  C
  C555     1.0000 0.81473  0.57462  0.75611  Biso   1.000  C
  H644     1.0000 0.68440  0.97309  0.60019  Biso   1.000  H
  C556     1.0000 0.73647  0.03728  0.59890  Biso   1.000  C
  C557     1.0000 0.73644  0.03728  0.59890  Biso   1.000  C
  H645     1.0000 0.67341  0.87411  0.65230  Biso   1.000  H
  H646     1.0000 0.71359  0.82603  0.68329  Biso   1.000  H
  H647     1.0000 0.69290  0.89978  0.70692  Biso   1.000  H
  H648     1.0000 0.67338  0.87411  0.65230  Biso   1.000  H
  H649     1.0000 0.79421  0.08761  0.61120  Biso   1.000  H
  H650     1.0000 0.79418  0.08761  0.61120  Biso   1.000  H
  H651     1.0000 0.85600  0.97590  0.69759  Biso   1.000  H
  H652     1.0000 0.84409  0.06170  0.71950  Biso   1.000  H
  H653     1.0000 0.85301  0.06051  0.66749  Biso   1.000  H
  H654     1.0000 0.85298  0.06051  0.66749  Biso   1.000  H
  C558     1.0000 0.85000  0.72087  0.44459  Biso   1.000  C
  H655     1.0000 0.88590  0.67959  0.96550  Biso   1.000  H
  H656     1.0000 0.89211  0.61153  0.00721  Biso   1.000  H
  H657     1.0000 0.92131  0.69271  0.01411  Biso   1.000  H
  H658     1.0000 0.89208  0.61153  0.00721  Biso   1.000  H
  H659     1.0000 0.92128  0.69271  0.01411  Biso   1.000  H
  H660     1.0000 0.68669  0.74922  0.78041  Biso   1.000  H
  C559     1.0000 0.70681  0.66898  0.73662  Biso   1.000  C
  C560     1.0000 0.70678  0.66898  0.73662  Biso   1.000  C
  H661     1.0000 0.75291  0.75752  0.88100  Biso   1.000  H
  H662     1.0000 0.77112  0.82921  0.85322  Biso   1.000  H
  H663     1.0000 0.72159  0.81822  0.84489  Biso   1.000  H
  H664     1.0000 0.75288  0.75752  0.88100  Biso   1.000  H
  H665     1.0000 0.77109  0.82921  0.85322  Biso   1.000  H
  H666     1.0000 0.73869  0.58761  0.70560  Biso   1.000  H
  H667     1.0000 0.80461  0.54390  0.72612  Biso   1.000  H
  H668     1.0000 0.83850  0.60978  0.75382  Biso   1.000  H
  H669     1.0000 0.82371  0.53491  0.78252  Biso   1.000  H
  H670     1.0000 0.80458  0.54390  0.72612  Biso   1.000  H
  H671     1.0000 0.82368  0.53491  0.78252  Biso   1.000  H
  C561     1.0000 0.71881  0.07899  0.55129  Biso   1.000  C
  C562     1.0000 0.71878  0.07899  0.55129  Biso   1.000  C
  H672     1.0000 0.86967  0.76758  0.44759  Biso   1.000  H
  H673     1.0000 0.86458  0.66842  0.44202  Biso   1.000  H
  H674     1.0000 0.82709  0.72849  0.41589  Biso   1.000  H
  C563     1.0000 0.66553  0.66298  0.69920  Biso   1.000  C
  C564     1.0000 0.66550  0.66298  0.69920  Biso   1.000  C
  H675     1.0000 0.74008  0.11527  0.54350  Biso   1.000  H
  H676     1.0000 0.71042  0.03628  0.52641  Biso   1.000  H
  H677     1.0000 0.69429  0.11253  0.55290  Biso   1.000  H
  H678     1.0000 0.71039  0.03628  0.52641  Biso   1.000  H
  H679     1.0000 0.65971  0.60447  0.68991  Biso   1.000  H
  H680     1.0000 0.64300  0.68503  0.71232  Biso   1.000  H
  H681     1.0000 0.66708  0.69583  0.67100  Biso   1.000  H
  H682     1.0000 0.65968  0.60447  0.68991  Biso   1.000  H
  C565     1.0000 0.71060  0.28019  0.27641  Biso   1.000  C
  C566     1.0000 0.70681  0.33102  0.23663  Biso   1.000  C
  C567     1.0000 0.70678  0.33102  0.23663  Biso   1.000  C
  C568     1.0000 0.74801  0.27108  0.31041  Biso   1.000  C
  H683     1.0000 0.68672  0.25078  0.28042  Biso   1.000  H
  C569     1.0000 0.74798  0.27108  0.31041  Biso   1.000  C
  H684     1.0000 0.68669  0.25078  0.28042  Biso   1.000  H
  C570     1.0000 0.66549  0.33702  0.19920  Biso   1.000  C
  C571     1.0000 0.74141  0.37617  0.23230  Biso   1.000  C
  C572     1.0000 0.66552  0.33702  0.19920  Biso   1.000  C
  C573     1.0000 0.74138  0.37617  0.23230  Biso   1.000  C
  C574     1.0000 0.78278  0.31728  0.30419  Biso   1.000  C
  C575     1.0000 0.74847  0.21132  0.35094  Biso   1.000  C
  C576     1.0000 0.74844  0.21132  0.35094  Biso   1.000  C
  H685     1.0000 0.65970  0.39553  0.18991  Biso   1.000  H
  H686     1.0000 0.64299  0.31497  0.21229  Biso   1.000  H
  H687     1.0000 0.66711  0.30417  0.17100  Biso   1.000  H
  H688     1.0000 0.66708  0.30417  0.17100  Biso   1.000  H
  H689     1.0000 0.73871  0.41239  0.20560  Biso   1.000  H
  C577     1.0000 0.77979  0.37099  0.26519  Biso   1.000  C
  H690     1.0000 0.73868  0.41239  0.20560  Biso   1.000  H
  C578     1.0000 0.77976  0.37099  0.26519  Biso   1.000  C
  S41      1.0000 0.83184  0.29799  0.34390  Biso   1.000  S
  H691     1.0000 0.75290  0.24248  0.38100  Biso   1.000  H
  H692     1.0000 0.77111  0.17079  0.35319  Biso   1.000  H
  H693     1.0000 0.72162  0.18178  0.34490  Biso   1.000  H
  H694     1.0000 0.75287  0.24248  0.38100  Biso   1.000  H
  H695     1.0000 0.77108  0.17079  0.35319  Biso   1.000  H
  H696     1.0000 0.72159  0.18178  0.34490  Biso   1.000  H
  C579     1.0000 0.81473  0.42538  0.25611  Biso   1.000  C
  O143     1.0000 0.84714  0.21219  0.32295  Biso   1.000  O
  O144     1.0000 0.82823  0.27382  0.38983  Biso   1.000  O
  O145     1.0000 0.86122  0.36212  0.34065  Biso   1.000  O
  O146     1.0000 0.82820  0.27382  0.38983  Biso   1.000  O
  H697     1.0000 0.80460  0.45610  0.22608  Biso   1.000  H
  H698     1.0000 0.83849  0.39022  0.25379  Biso   1.000  H
  H699     1.0000 0.82370  0.46509  0.28249  Biso   1.000  H
  H700     1.0000 0.80457  0.45610  0.22608  Biso   1.000  H
  C580     1.0000 0.86249  0.21868  0.28206  Biso   1.000  C
  C581     1.0000 0.90492  0.23180  0.28610  Biso   1.000  C
  C582     1.0000 0.83526  0.20582  0.23717  Biso   1.000  C
  C583     1.0000 0.83529  0.20582  0.23717  Biso   1.000  C
  C584     1.0000 0.93541  0.23248  0.33550  Biso   1.000  C
  C585     1.0000 0.91839  0.23729  0.24406  Biso   1.000  C
  C586     1.0000 0.91836  0.23729  0.24406  Biso   1.000  C
  C587     1.0000 0.84916  0.21469  0.19645  Biso   1.000  C
  O147     1.0000 0.79369  0.18184  0.23420  Biso   1.000  O
  C588     1.0000 0.84913  0.21469  0.19645  Biso   1.000  C
  C589     1.0000 0.97585  0.27863  0.33593  Biso   1.000  C
  H701     1.0000 0.92139  0.26533  0.35659  Biso   1.000  H
  C590     1.0000 0.94150  0.14437  0.35648  Biso   1.000  C
  C591     1.0000 0.97582  0.27863  0.33593  Biso   1.000  C
  C592     1.0000 0.89145  0.23067  0.19856  Biso   1.000  C
  H702     1.0000 0.94740  0.24597  0.24649  Biso   1.000  H
  H703     1.0000 0.94737  0.24597  0.24649  Biso   1.000  H
  O148     1.0000 0.82070  0.20082  0.15202  Biso   1.000  O
  S42      1.0000 0.78648  0.08355  0.24464  Biso   1.000  S
  S43      1.0000 0.78644  0.08355  0.24464  Biso   1.000  S
  C593     1.0000 0.97582  0.36562  0.33539  Biso   1.000  C
  C594     1.0000 0.01366  0.23760  0.33836  Biso   1.000  C
  C595     1.0000 0.01369  0.23760  0.33836  Biso   1.000  C
  H704     1.0000 0.96031  0.11278  0.34090  Biso   1.000  H
  H705     1.0000 0.91409  0.11540  0.34930  Biso   1.000  H
  C596     1.0000 0.96020  0.14450  0.41092  Biso   1.000  C
  H706     1.0000 0.96028  0.11278  0.34090  Biso   1.000  H
  C597     1.0000 0.96017  0.14450  0.41092  Biso   1.000  C
  C598     1.0000 0.90698  0.23467  0.15349  Biso   1.000  C
  S44      1.0000 0.79053  0.27751  0.12632  Biso   1.000  S
  S45      1.0000 0.79049  0.27751  0.12632  Biso   1.000  S
  C599     1.0000 0.76888  0.04028  0.18687  Biso   1.000  C
  O149     1.0000 0.82569  0.04958  0.26909  Biso   1.000  O
  O150     1.0000 0.75338  0.08493  0.26801  Biso   1.000  O
  C600     1.0000 0.76885  0.04028  0.18687  Biso   1.000  C
  O151     1.0000 0.82566  0.04958  0.26909  Biso   1.000  O
  O152     1.0000 0.75335  0.08493  0.26801  Biso   1.000  O
  O153     1.0000 0.94119  0.41376  0.33125  Biso   1.000  O
  O154     1.0000 0.94116  0.41376  0.33125  Biso   1.000  O
  C601     1.0000 0.01340  0.40808  0.33929  Biso   1.000  C
  H707     1.0000 0.01380  0.17828  0.33889  Biso   1.000  H
  C602     1.0000 0.05126  0.27901  0.33997  Biso   1.000  C
  H708     1.0000 0.98738  0.17410  0.41760  Biso   1.000  H
  H709     1.0000 0.94129  0.17710  0.42590  Biso   1.000  H
  C603     1.0000 0.96688  0.06319  0.43380  Biso   1.000  C
  H710     1.0000 0.98077  0.09848  0.41860  Biso   1.000  H
  H711     1.0000 0.97579  0.19739  0.41939  Biso   1.000  H
  C604     1.0000 0.93509  0.13688  0.43741  Biso   1.000  C
  C605     1.0000 0.94876  0.27901  0.16006  Biso   1.000  C
  H712     1.0000 0.88600  0.26870  0.13000  Biso   1.000  H
  C606     1.0000 0.90635  0.14681  0.13154  Biso   1.000  C
  C607     1.0000 0.90632  0.14681  0.13154  Biso   1.000  C
  C608     1.0000 0.80479  0.28313  0.07127  Biso   1.000  C
  O155     1.0000 0.80280  0.34988  0.15492  Biso   1.000  O
  O156     1.0000 0.74883  0.24678  0.11860  Biso   1.000  O
  O157     1.0000 0.74880  0.24678  0.11860  Biso   1.000  O
  C609     1.0000 0.72742  0.05789  0.16174  Biso   1.000  C
  C610     1.0000 0.79522  0.98770  0.16804  Biso   1.000  C
  C611     1.0000 0.79519  0.98770  0.16804  Biso   1.000  C
  H713     1.0000 0.92061  0.38323  0.33160  Biso   1.000  H
  H714     1.0000 0.92058  0.38323  0.33160  Biso   1.000  H
  C612     1.0000 0.05044  0.36618  0.33861  Biso   1.000  C
  O158     1.0000 0.01324  0.49588  0.34422  Biso   1.000  O
  C613     1.0000 0.05041  0.36618  0.33861  Biso   1.000  C
  C614     1.0000 0.09302  0.23467  0.34651  Biso   1.000  C
  H715     1.0000 0.94049  0.04321  0.43991  Biso   1.000  H
  H716     1.0000 0.98808  0.06788  0.46421  Biso   1.000  H
  H717     1.0000 0.97640  0.02360  0.41289  Biso   1.000  H
  H718     1.0000 0.97637  0.02360  0.41289  Biso   1.000  H
  H719     1.0000 0.95088  0.13732  0.47101  Biso   1.000  H
  H720     1.0000 0.91978  0.08411  0.43019  Biso   1.000  H
  H721     1.0000 0.91518  0.18353  0.43162  Biso   1.000  H
  C615     1.0000 0.98635  0.23760  0.16167  Biso   1.000  C
  C616     1.0000 0.94956  0.36618  0.16139  Biso   1.000  C
  C617     1.0000 0.98632  0.23760  0.16167  Biso   1.000  C
  C618     1.0000 0.94953  0.36618  0.16139  Biso   1.000  C
  H722     1.0000 0.92850  0.11271  0.15259  Biso   1.000  H
  H723     1.0000 0.87910  0.12027  0.13079  Biso   1.000  H
  C619     1.0000 0.91296  0.14550  0.08118  Biso   1.000  C
  H724     1.0000 0.92847  0.11271  0.15259  Biso   1.000  H
  H725     1.0000 0.87907  0.12027  0.13079  Biso   1.000  H
  C620     1.0000 0.91293  0.14550  0.08118  Biso   1.000  C
  C621     1.0000 0.82170  0.35737  0.05730  Biso   1.000  C
  C622     1.0000 0.79913  0.21088  0.04282  Biso   1.000  C
  C623     1.0000 0.79910  0.21088  0.04282  Biso   1.000  C
  C624     1.0000 0.71246  0.01680  0.11774  Biso   1.000  C
  C625     1.0000 0.69938  0.11990  0.17740  Biso   1.000  C
  C626     1.0000 0.71243  0.01680  0.11774  Biso   1.000  C
  C627     1.0000 0.77736  0.94929  0.12421  Biso   1.000  C
  C628     1.0000 0.84110  0.97090  0.19009  Biso   1.000  C
  O159     1.0000 0.08627  0.40721  0.33864  Biso   1.000  O
  O160     1.0000 0.08624  0.40721  0.33864  Biso   1.000  O
  S46      1.0000 0.02766  0.53066  0.39912  Biso   1.000  S
  H726     1.0000 0.11401  0.26870  0.36999  Biso   1.000  H
  C629     1.0000 0.10853  0.23067  0.30147  Biso   1.000  C
  C630     1.0000 0.09365  0.14681  0.36846  Biso   1.000  C
  H727     1.0000 0.98620  0.17828  0.16110  Biso   1.000  H
  C631     1.0000 0.02416  0.27863  0.16410  Biso   1.000  C
  C632     1.0000 0.02419  0.27863  0.16410  Biso   1.000  C
  C633     1.0000 0.98660  0.40808  0.16071  Biso   1.000  C
  O161     1.0000 0.91374  0.40721  0.16139  Biso   1.000  O
  H728     1.0000 0.89300  0.18471  0.06069  Biso   1.000  H
  H729     1.0000 0.94170  0.16492  0.08221  Biso   1.000  H
  C634     1.0000 0.90670  0.05920  0.05941  Biso   1.000  C
  C635     1.0000 0.83523  0.35300  0.01555  Biso   1.000  C
  C636     1.0000 0.82500  0.44030  0.08271  Biso   1.000  C
  C637     1.0000 0.83520  0.35300  0.01555  Biso   1.000  C
  C638     1.0000 0.81342  0.21288  0.00122  Biso   1.000  C
  C639     1.0000 0.77938  0.13132  0.05405  Biso   1.000  C
  C640     1.0000 0.81339  0.21288  0.00122  Biso   1.000  C
  H730     1.0000 0.68440  0.02691  0.10019  Biso   1.000  H
  C641     1.0000 0.73647  0.96272  0.09891  Biso   1.000  C
  C642     1.0000 0.73644  0.96272  0.09891  Biso   1.000  C
  H731     1.0000 0.67341  0.12589  0.15231  Biso   1.000  H
  H732     1.0000 0.71359  0.17397  0.18330  Biso   1.000  H
  H733     1.0000 0.69289  0.10022  0.20689  Biso   1.000  H
  H734     1.0000 0.79420  0.91239  0.11120  Biso   1.000  H
  H735     1.0000 0.79417  0.91239  0.11120  Biso   1.000  H
  H736     1.0000 0.85599  0.02410  0.19760  Biso   1.000  H
  H737     1.0000 0.84412  0.93830  0.21951  Biso   1.000  H
  H738     1.0000 0.85301  0.93949  0.16750  Biso   1.000  H
  H739     1.0000 0.84409  0.93830  0.21951  Biso   1.000  H
  H740     1.0000 0.85298  0.93949  0.16750  Biso   1.000  H
  H741     1.0000 0.08089  0.45772  0.33189  Biso   1.000  H
  H742     1.0000 0.08092  0.45772  0.33189  Biso   1.000  H
  C643     1.0000 0.99365  0.47902  0.42843  Biso   1.000  C
  O162     1.0000 0.01908  0.61758  0.39355  Biso   1.000  O
  O163     1.0000 0.06983  0.50531  0.41864  Biso   1.000  O
  O164     1.0000 0.01911  0.61758  0.39355  Biso   1.000  O
  O165     1.0000 0.06987  0.50531  0.41864  Biso   1.000  O
  C644     1.0000 0.08162  0.23729  0.25597  Biso   1.000  C
  C645     1.0000 0.15084  0.21469  0.30354  Biso   1.000  C
  C646     1.0000 0.08159  0.23729  0.25597  Biso   1.000  C
  H743     1.0000 0.07150  0.11271  0.34740  Biso   1.000  H
  H744     1.0000 0.12090  0.12027  0.36921  Biso   1.000  H
  C647     1.0000 0.08704  0.14550  0.41882  Biso   1.000  C
  H745     1.0000 0.07147  0.11271  0.34740  Biso   1.000  H
  H746     1.0000 0.12087  0.12027  0.36921  Biso   1.000  H
  C648     1.0000 0.08707  0.14550  0.41882  Biso   1.000  C
  C649     1.0000 0.02415  0.36562  0.16460  Biso   1.000  C
  C650     1.0000 0.06459  0.23248  0.16450  Biso   1.000  C
  O166     1.0000 0.98677  0.49588  0.15577  Biso   1.000  O
  H747     1.0000 0.91912  0.45772  0.16811  Biso   1.000  H
  H748     1.0000 0.91909  0.45772  0.16811  Biso   1.000  H
  H749     1.0000 0.92699  0.02067  0.07900  Biso   1.000  H
  H750     1.0000 0.91091  0.06101  0.02699  Biso   1.000  H
  H751     1.0000 0.87820  0.04003  0.05808  Biso   1.000  H
  H752     1.0000 0.91088  0.06101  0.02699  Biso   1.000  H
  H753     1.0000 0.87817  0.04003  0.05808  Biso   1.000  H
  H754     1.0000 0.84699  0.40177  0.00550  Biso   1.000  H
  C651     1.0000 0.83252  0.28213  0.98767  Biso   1.000  C
  H755     1.0000 0.83840  0.48108  0.06598  Biso   1.000  H
  H756     1.0000 0.84181  0.43381  0.11560  Biso   1.000  H
  H757     1.0000 0.79691  0.45997  0.08300  Biso   1.000  H
  H758     1.0000 0.84178  0.43381  0.11560  Biso   1.000  H
  H759     1.0000 0.79688  0.45997  0.08300  Biso   1.000  H
  H760     1.0000 0.80977  0.16473  0.98141  Biso   1.000  H
  H761     1.0000 0.80980  0.16473  0.98141  Biso   1.000  H
  H762     1.0000 0.79671  0.10722  0.08361  Biso   1.000  H
  H763     1.0000 0.77730  0.09167  0.02770  Biso   1.000  H
  H764     1.0000 0.75131  0.14331  0.05819  Biso   1.000  H
  H765     1.0000 0.79668  0.10722  0.08361  Biso   1.000  H
  H766     1.0000 0.75128  0.14331  0.05819  Biso   1.000  H
  C652     1.0000 0.71881  0.92101  0.05129  Biso   1.000  C
  C653     1.0000 0.71878  0.92101  0.05129  Biso   1.000  C
  C654     1.0000 0.95208  0.50968  0.42129  Biso   1.000  C
  C655     1.0000 0.00686  0.40789  0.45603  Biso   1.000  C
  C656     1.0000 0.00689  0.40789  0.45603  Biso   1.000  C
  H767     1.0000 0.05260  0.24597  0.25350  Biso   1.000  H
  C657     1.0000 0.09505  0.23180  0.21390  Biso   1.000  C
  H768     1.0000 0.05257  0.24597  0.25350  Biso   1.000  H
  C658     1.0000 0.09508  0.23180  0.21390  Biso   1.000  C
  C659     1.0000 0.16471  0.20582  0.26283  Biso   1.000  C
  O167     1.0000 0.17931  0.20082  0.34797  Biso   1.000  O
  C660     1.0000 0.16468  0.20582  0.26283  Biso   1.000  C
  H769     1.0000 0.10701  0.18471  0.43930  Biso   1.000  H
  H770     1.0000 0.05831  0.16492  0.41782  Biso   1.000  H
  C661     1.0000 0.09330  0.05920  0.44059  Biso   1.000  C
  H771     1.0000 0.05828  0.16492  0.41782  Biso   1.000  H
  C662     1.0000 0.09327  0.05920  0.44059  Biso   1.000  C
  O168     1.0000 0.05882  0.41376  0.16875  Biso   1.000  O
  O169     1.0000 0.05879  0.41376  0.16875  Biso   1.000  O
  H772     1.0000 0.07859  0.26533  0.14341  Biso   1.000  H
  C663     1.0000 0.05850  0.14437  0.14351  Biso   1.000  C
  H773     1.0000 0.07862  0.26533  0.14341  Biso   1.000  H
  S47      1.0000 0.97235  0.53066  0.10091  Biso   1.000  S
  S48      1.0000 0.97232  0.53066  0.10091  Biso   1.000  S
  C664     1.0000 0.84997  0.27913  0.94460  Biso   1.000  C
  C665     1.0000 0.85000  0.27913  0.94460  Biso   1.000  C
  H774     1.0000 0.74010  0.88473  0.04350  Biso   1.000  H
  H775     1.0000 0.71041  0.96372  0.02642  Biso   1.000  H
  H776     1.0000 0.69432  0.88747  0.05290  Biso   1.000  H
  H777     1.0000 0.71038  0.96372  0.02642  Biso   1.000  H
  H778     1.0000 0.69429  0.88747  0.05290  Biso   1.000  H
  C666     1.0000 0.92555  0.46522  0.44259  Biso   1.000  C
  C667     1.0000 0.93539  0.58449  0.39162  Biso   1.000  C
  C668     1.0000 0.97792  0.36830  0.47576  Biso   1.000  C
  C669     1.0000 0.97788  0.36830  0.47576  Biso   1.000  C
  C670     1.0000 0.04980  0.36893  0.46561  Biso   1.000  C
  C671     1.0000 0.04977  0.36893  0.46561  Biso   1.000  C
  C672     1.0000 0.13748  0.21868  0.21793  Biso   1.000  C
  O170     1.0000 0.20629  0.18184  0.26583  Biso   1.000  O
  S49      1.0000 0.20948  0.27751  0.37367  Biso   1.000  S
  S50      1.0000 0.20945  0.27751  0.37367  Biso   1.000  S
  H779     1.0000 0.07299  0.02067  0.42100  Biso   1.000  H
  H780     1.0000 0.08909  0.06101  0.47301  Biso   1.000  H
  H781     1.0000 0.12180  0.04003  0.44191  Biso   1.000  H
  H782     1.0000 0.07302  0.02067  0.42100  Biso   1.000  H
  H783     1.0000 0.08912  0.06101  0.47301  Biso   1.000  H
  H784     1.0000 0.12177  0.04003  0.44191  Biso   1.000  H
  H785     1.0000 0.07939  0.38323  0.16839  Biso   1.000  H
  H786     1.0000 0.03969  0.11278  0.15910  Biso   1.000  H
  H787     1.0000 0.08591  0.11540  0.15070  Biso   1.000  H
  C673     1.0000 0.03981  0.14450  0.08911  Biso   1.000  C
  H788     1.0000 0.03972  0.11278  0.15910  Biso   1.000  H
  O171     1.0000 0.98090  0.61758  0.10645  Biso   1.000  O
  O172     1.0000 0.93014  0.50531  0.08135  Biso   1.000  O
  C674     1.0000 0.00635  0.47902  0.07156  Biso   1.000  C
  C675     1.0000 0.00632  0.47902  0.07156  Biso   1.000  C
  H789     1.0000 0.86967  0.23242  0.94760  Biso   1.000  H
  H790     1.0000 0.86457  0.33158  0.94199  Biso   1.000  H
  H791     1.0000 0.82706  0.27151  0.91589  Biso   1.000  H
  H792     1.0000 0.86970  0.23242  0.94760  Biso   1.000  H
  H793     1.0000 0.86460  0.33158  0.94199  Biso   1.000  H
  H794     1.0000 0.82709  0.27151  0.91589  Biso   1.000  H
  H795     1.0000 0.89759  0.48451  0.43819  Biso   1.000  H
  C676     1.0000 0.93742  0.39459  0.46990  Biso   1.000  C
  H796     1.0000 0.90479  0.58592  0.38579  Biso   1.000  H
  H797     1.0000 0.94321  0.58130  0.36109  Biso   1.000  H
  H798     1.0000 0.94729  0.63532  0.40860  Biso   1.000  H
  H799     1.0000 0.94318  0.58130  0.36109  Biso   1.000  H
  H800     1.0000 0.98660  0.31978  0.49460  Biso   1.000  H
  H801     1.0000 0.98657  0.31978  0.49460  Biso   1.000  H
  H802     1.0000 0.05041  0.31828  0.48480  Biso   1.000  H
  H803     1.0000 0.07069  0.40858  0.48309  Biso   1.000  H
  H804     1.0000 0.05618  0.35463  0.43519  Biso   1.000  H
  H805     1.0000 0.07072  0.40858  0.48309  Biso   1.000  H
  O173     1.0000 0.15286  0.21219  0.17704  Biso   1.000  O
  S51      1.0000 0.21353  0.08355  0.25536  Biso   1.000  S
  C677     1.0000 0.19521  0.28313  0.42872  Biso   1.000  C
  O174     1.0000 0.19718  0.34988  0.34511  Biso   1.000  O
  O175     1.0000 0.25117  0.24678  0.38139  Biso   1.000  O
  O176     1.0000 0.25114  0.24678  0.38139  Biso   1.000  O
  H806     1.0000 0.01260  0.17410  0.08239  Biso   1.000  H
  H807     1.0000 0.05871  0.17710  0.07410  Biso   1.000  H
  C678     1.0000 0.03309  0.06319  0.06620  Biso   1.000  C
  H808     1.0000 0.05868  0.17710  0.07410  Biso   1.000  H
  H809     1.0000 0.01920  0.09848  0.08139  Biso   1.000  H
  H810     1.0000 0.02419  0.19739  0.08060  Biso   1.000  H
  C679     1.0000 0.06491  0.13688  0.06259  Biso   1.000  C
  C680     1.0000 0.99312  0.40789  0.04397  Biso   1.000  C
  C681     1.0000 0.04789  0.50968  0.07871  Biso   1.000  C
  C682     1.0000 0.90650  0.34869  0.49099  Biso   1.000  C
  S52      1.0000 0.16817  0.29799  0.15613  Biso   1.000  S
  S53      1.0000 0.16814  0.29799  0.15613  Biso   1.000  S
  C683     1.0000 0.23113  0.04028  0.31312  Biso   1.000  C
  O177     1.0000 0.17432  0.04958  0.23091  Biso   1.000  O
  O178     1.0000 0.24662  0.08493  0.23198  Biso   1.000  O
  C684     1.0000 0.23116  0.04028  0.31312  Biso   1.000  C
  O179     1.0000 0.17435  0.04958  0.23091  Biso   1.000  O
  C685     1.0000 0.17830  0.35737  0.44270  Biso   1.000  C
  C686     1.0000 0.20087  0.21088  0.45717  Biso   1.000  C
  C687     1.0000 0.17827  0.35737  0.44270  Biso   1.000  C
  C688     1.0000 0.20090  0.21088  0.45717  Biso   1.000  C
  H811     1.0000 0.05951  0.04321  0.06009  Biso   1.000  H
  H812     1.0000 0.01190  0.06788  0.03582  Biso   1.000  H
  H813     1.0000 0.02360  0.02360  0.08711  Biso   1.000  H
  H814     1.0000 0.05948  0.04321  0.06009  Biso   1.000  H
  H815     1.0000 0.01187  0.06788  0.03582  Biso   1.000  H
  H816     1.0000 0.04909  0.13732  0.02899  Biso   1.000  H
  H817     1.0000 0.08019  0.08411  0.06981  Biso   1.000  H
  H818     1.0000 0.08480  0.18353  0.06842  Biso   1.000  H
  C689     1.0000 0.95020  0.36893  0.03439  Biso   1.000  C
  C690     1.0000 0.02209  0.36830  0.02423  Biso   1.000  C
  C691     1.0000 0.07446  0.46522  0.05741  Biso   1.000  C
  C692     1.0000 0.06459  0.58449  0.10841  Biso   1.000  C
  H819     1.0000 0.89211  0.38847  0.50722  Biso   1.000  H
  H820     1.0000 0.92131  0.30729  0.51411  Biso   1.000  H
  H821     1.0000 0.88589  0.32041  0.46550  Biso   1.000  H
  H822     1.0000 0.89208  0.38847  0.50722  Biso   1.000  H
  H823     1.0000 0.92128  0.30729  0.51411  Biso   1.000  H
  C693     1.0000 0.21720  0.31728  0.19581  Biso   1.000  C
  O180     1.0000 0.17177  0.27382  0.11016  Biso   1.000  O
  O181     1.0000 0.13878  0.36212  0.15935  Biso   1.000  O
  C694     1.0000 0.20478  0.98770  0.33196  Biso   1.000  C
  C695     1.0000 0.27256  0.05789  0.33829  Biso   1.000  C
  C696     1.0000 0.16478  0.35300  0.48445  Biso   1.000  C
  C697     1.0000 0.17501  0.44030  0.41732  Biso   1.000  C
  C698     1.0000 0.16481  0.35300  0.48445  Biso   1.000  C
  C699     1.0000 0.18659  0.21288  0.49882  Biso   1.000  C
  C700     1.0000 0.22060  0.13132  0.44595  Biso   1.000  C
  H824     1.0000 0.94959  0.31828  0.01519  Biso   1.000  H
  H825     1.0000 0.92931  0.40858  0.01691  Biso   1.000  H
  H826     1.0000 0.94379  0.35463  0.06480  Biso   1.000  H
  H827     1.0000 0.92928  0.40858  0.01691  Biso   1.000  H
  C701     1.0000 0.06259  0.39459  0.03010  Biso   1.000  C
  H828     1.0000 0.01340  0.31978  0.00540  Biso   1.000  H
  C702     1.0000 0.06256  0.39459  0.03010  Biso   1.000  C
  H829     1.0000 0.01337  0.31978  0.00540  Biso   1.000  H
  H830     1.0000 0.10241  0.48451  0.06180  Biso   1.000  H
  H831     1.0000 0.10238  0.48451  0.06180  Biso   1.000  H
  H832     1.0000 0.09521  0.58592  0.11420  Biso   1.000  H
  H833     1.0000 0.05680  0.58130  0.13890  Biso   1.000  H
  H834     1.0000 0.05269  0.63532  0.09140  Biso   1.000  H
  H835     1.0000 0.09518  0.58592  0.11420  Biso   1.000  H
  H836     1.0000 0.05272  0.63532  0.09140  Biso   1.000  H
  C703     1.0000 0.25200  0.27108  0.18959  Biso   1.000  C
  C704     1.0000 0.22021  0.37099  0.23481  Biso   1.000  C
  C705     1.0000 0.25203  0.27108  0.18959  Biso   1.000  C
  C706     1.0000 0.22024  0.37099  0.23481  Biso   1.000  C
  C707     1.0000 0.22266  0.94929  0.37582  Biso   1.000  C
  C708     1.0000 0.15890  0.97090  0.30991  Biso   1.000  C
  C709     1.0000 0.28754  0.01680  0.38225  Biso   1.000  C
  C710     1.0000 0.30062  0.11990  0.32259  Biso   1.000  C
  C711     1.0000 0.30059  0.11990  0.32259  Biso   1.000  C
  H837     1.0000 0.15298  0.40177  0.49449  Biso   1.000  H
  C712     1.0000 0.16746  0.28213  0.51233  Biso   1.000  C
  H838     1.0000 0.15301  0.40177  0.49449  Biso   1.000  H
  H839     1.0000 0.16161  0.48108  0.43401  Biso   1.000  H
  H840     1.0000 0.15819  0.43381  0.38440  Biso   1.000  H
  H841     1.0000 0.20309  0.45997  0.41700  Biso   1.000  H
  H842     1.0000 0.16157  0.48108  0.43401  Biso   1.000  H
  H843     1.0000 0.19021  0.16473  0.51862  Biso   1.000  H
  H844     1.0000 0.19018  0.16473  0.51862  Biso   1.000  H
  H845     1.0000 0.20329  0.10722  0.41639  Biso   1.000  H
  H846     1.0000 0.22270  0.09167  0.47229  Biso   1.000  H
  H847     1.0000 0.24869  0.14331  0.44180  Biso   1.000  H
  H848     1.0000 0.20332  0.10722  0.41639  Biso   1.000  H
  H849     1.0000 0.22267  0.09167  0.47229  Biso   1.000  H
  H850     1.0000 0.24872  0.14331  0.44180  Biso   1.000  H
  C713     1.0000 0.09351  0.34869  0.00901  Biso   1.000  C
  C714     1.0000 0.09348  0.34869  0.00901  Biso   1.000  C
  C715     1.0000 0.28941  0.28019  0.22358  Biso   1.000  C
  C716     1.0000 0.25153  0.21132  0.14905  Biso   1.000  C
  C717     1.0000 0.25860  0.37617  0.26773  Biso   1.000  C
  C718     1.0000 0.18527  0.42538  0.24389  Biso   1.000  C
  C719     1.0000 0.25863  0.37617  0.26773  Biso   1.000  C
  C720     1.0000 0.18524  0.42538  0.24389  Biso   1.000  C
  C721     1.0000 0.26354  0.96272  0.40113  Biso   1.000  C
  H851     1.0000 0.20580  0.91239  0.38879  Biso   1.000  H
  C722     1.0000 0.26351  0.96272  0.40113  Biso   1.000  C
  H852     1.0000 0.15589  0.93830  0.28049  Biso   1.000  H
  H853     1.0000 0.14699  0.93949  0.33250  Biso   1.000  H
  H854     1.0000 0.15592  0.93830  0.28049  Biso   1.000  H
  H855     1.0000 0.14401  0.02410  0.30240  Biso   1.000  H
  H856     1.0000 0.14398  0.02410  0.30240  Biso   1.000  H
  H857     1.0000 0.31561  0.02691  0.39980  Biso   1.000  H
  H858     1.0000 0.31558  0.02691  0.39980  Biso   1.000  H
  H859     1.0000 0.32660  0.12589  0.34769  Biso   1.000  H
  H860     1.0000 0.28638  0.17397  0.31670  Biso   1.000  H
  H861     1.0000 0.30708  0.10022  0.29311  Biso   1.000  H
  H862     1.0000 0.28641  0.17397  0.31670  Biso   1.000  H
  H863     1.0000 0.30711  0.10022  0.29311  Biso   1.000  H
  C723     1.0000 0.14997  0.27913  0.55540  Biso   1.000  C
  H864     1.0000 0.10790  0.38847  0.99282  Biso   1.000  H
  H865     1.0000 0.07871  0.30729  0.98592  Biso   1.000  H
  H866     1.0000 0.10787  0.38847  0.99282  Biso   1.000  H
  H867     1.0000 0.07868  0.30729  0.98592  Biso   1.000  H
  H868     1.0000 0.11411  0.32041  0.03449  Biso   1.000  H
  H869     1.0000 0.31329  0.25078  0.21961  Biso   1.000  H
  C724     1.0000 0.29320  0.33102  0.26337  Biso   1.000  C
  H870     1.0000 0.31332  0.25078  0.21961  Biso   1.000  H
  H871     1.0000 0.24710  0.24248  0.11899  Biso   1.000  H
  H872     1.0000 0.22890  0.17079  0.14680  Biso   1.000  H
  H873     1.0000 0.27839  0.18178  0.15510  Biso   1.000  H
  H874     1.0000 0.22893  0.17079  0.14680  Biso   1.000  H
  H875     1.0000 0.27842  0.18178  0.15510  Biso   1.000  H
  H876     1.0000 0.26129  0.41239  0.29439  Biso   1.000  H
  H877     1.0000 0.19540  0.45610  0.27391  Biso   1.000  H
  H878     1.0000 0.16148  0.39022  0.24621  Biso   1.000  H
  H879     1.0000 0.17631  0.46509  0.21751  Biso   1.000  H
  H880     1.0000 0.19537  0.45610  0.27391  Biso   1.000  H
  H881     1.0000 0.16151  0.39022  0.24621  Biso   1.000  H
  H882     1.0000 0.17628  0.46509  0.21751  Biso   1.000  H
  C725     1.0000 0.28119  0.92101  0.44870  Biso   1.000  C
  C726     1.0000 0.28122  0.92101  0.44870  Biso   1.000  C
  H883     1.0000 0.13030  0.23242  0.55240  Biso   1.000  H
  H884     1.0000 0.13541  0.33158  0.55801  Biso   1.000  H
  H885     1.0000 0.17289  0.27151  0.58410  Biso   1.000  H
  H886     1.0000 0.13027  0.23242  0.55240  Biso   1.000  H
  H887     1.0000 0.17292  0.27151  0.58410  Biso   1.000  H
  C727     1.0000 0.33448  0.33702  0.30079  Biso   1.000  C
  H888     1.0000 0.25990  0.88473  0.45649  Biso   1.000  H
  H889     1.0000 0.28960  0.96372  0.47362  Biso   1.000  H
  H890     1.0000 0.30569  0.88747  0.44709  Biso   1.000  H
  H891     1.0000 0.25987  0.88473  0.45649  Biso   1.000  H
  H892     1.0000 0.28957  0.96372  0.47362  Biso   1.000  H
  H893     1.0000 0.34031  0.39553  0.31012  Biso   1.000  H
  H894     1.0000 0.35699  0.31497  0.28771  Biso   1.000  H
  H895     1.0000 0.33290  0.30417  0.32899  Biso   1.000  H
  H896     1.0000 0.34028  0.39553  0.31012  Biso   1.000  H
  H897     1.0000 0.35702  0.31497  0.28771  Biso   1.000  H
  C728     1.0000 0.71060  0.28019  0.27641  Biso   1.000  C
  C729     1.0000 0.74801  0.27108  0.31041  Biso   1.000  C
  H898     1.0000 0.68672  0.25078  0.28042  Biso   1.000  H
  C730     1.0000 0.70681  0.33102  0.23663  Biso   1.000  C
  C731     1.0000 0.74798  0.27108  0.31041  Biso   1.000  C
  H899     1.0000 0.68669  0.25078  0.28042  Biso   1.000  H
  C732     1.0000 0.70678  0.33102  0.23663  Biso   1.000  C
  C733     1.0000 0.78278  0.31728  0.30419  Biso   1.000  C
  C734     1.0000 0.74847  0.21132  0.35094  Biso   1.000  C
  C735     1.0000 0.74844  0.21132  0.35094  Biso   1.000  C
  C736     1.0000 0.74141  0.37617  0.23230  Biso   1.000  C
  C737     1.0000 0.66552  0.33702  0.19920  Biso   1.000  C
  C738     1.0000 0.74138  0.37617  0.23230  Biso   1.000  C
  C739     1.0000 0.66549  0.33702  0.19920  Biso   1.000  C
  S54      1.0000 0.83184  0.29799  0.34390  Biso   1.000  S
  C740     1.0000 0.77979  0.37099  0.26519  Biso   1.000  C
  C741     1.0000 0.77976  0.37099  0.26519  Biso   1.000  C
  H900     1.0000 0.75290  0.24248  0.38100  Biso   1.000  H
  H901     1.0000 0.77111  0.17079  0.35319  Biso   1.000  H
  H902     1.0000 0.72162  0.18178  0.34490  Biso   1.000  H
  H903     1.0000 0.75287  0.24248  0.38100  Biso   1.000  H
  H904     1.0000 0.77108  0.17079  0.35319  Biso   1.000  H
  H905     1.0000 0.72159  0.18178  0.34490  Biso   1.000  H
  H906     1.0000 0.73871  0.41239  0.20560  Biso   1.000  H
  H907     1.0000 0.73868  0.41239  0.20560  Biso   1.000  H
  H908     1.0000 0.65970  0.39553  0.18991  Biso   1.000  H
  H909     1.0000 0.64299  0.31497  0.21229  Biso   1.000  H
  H910     1.0000 0.66711  0.30417  0.17100  Biso   1.000  H
  H911     1.0000 0.66708  0.30417  0.17100  Biso   1.000  H
  O182     1.0000 0.84714  0.21219  0.32295  Biso   1.000  O
  O183     1.0000 0.86122  0.36212  0.34065  Biso   1.000  O
  O184     1.0000 0.82823  0.27382  0.38983  Biso   1.000  O
  O185     1.0000 0.82820  0.27382  0.38983  Biso   1.000  O
  C742     1.0000 0.81473  0.42538  0.25611  Biso   1.000  C
  C743     1.0000 0.86249  0.21868  0.28206  Biso   1.000  C
  H912     1.0000 0.83849  0.39022  0.25379  Biso   1.000  H
  H913     1.0000 0.82370  0.46509  0.28249  Biso   1.000  H
  H914     1.0000 0.80460  0.45610  0.22608  Biso   1.000  H
  H915     1.0000 0.80457  0.45610  0.22608  Biso   1.000  H
  C744     1.0000 0.90492  0.23180  0.28610  Biso   1.000  C
  C745     1.0000 0.83526  0.20582  0.23717  Biso   1.000  C
  C746     1.0000 0.83529  0.20582  0.23717  Biso   1.000  C
  C747     1.0000 0.93541  0.23248  0.33550  Biso   1.000  C
  C748     1.0000 0.91839  0.23729  0.24406  Biso   1.000  C
  C749     1.0000 0.91836  0.23729  0.24406  Biso   1.000  C
  O186     1.0000 0.79369  0.18184  0.23420  Biso   1.000  O
  C750     1.0000 0.84916  0.21469  0.19645  Biso   1.000  C
  C751     1.0000 0.84913  0.21469  0.19645  Biso   1.000  C
  H916     1.0000 0.92139  0.26533  0.35659  Biso   1.000  H
  C752     1.0000 0.94150  0.14437  0.35648  Biso   1.000  C
  C753     1.0000 0.97585  0.27863  0.33593  Biso   1.000  C
  C754     1.0000 0.97582  0.27863  0.33593  Biso   1.000  C
  C755     1.0000 0.89145  0.23067  0.19856  Biso   1.000  C
  H917     1.0000 0.94740  0.24597  0.24649  Biso   1.000  H
  H918     1.0000 0.94737  0.24597  0.24649  Biso   1.000  H
  S55      1.0000 0.78648  0.08355  0.24464  Biso   1.000  S
  S56      1.0000 0.78644  0.08355  0.24464  Biso   1.000  S
  O187     1.0000 0.82070  0.20082  0.15202  Biso   1.000  O
  H919     1.0000 0.91409  0.11540  0.34930  Biso   1.000  H
  H920     1.0000 0.96031  0.11278  0.34090  Biso   1.000  H
  C756     1.0000 0.96020  0.14450  0.41092  Biso   1.000  C
  H921     1.0000 0.96028  0.11278  0.34090  Biso   1.000  H
  C757     1.0000 0.96017  0.14450  0.41092  Biso   1.000  C
  C758     1.0000 0.97582  0.36562  0.33539  Biso   1.000  C
  C759     1.0000 0.01366  0.23760  0.33836  Biso   1.000  C
  C760     1.0000 0.01369  0.23760  0.33836  Biso   1.000  C
  C761     1.0000 0.90698  0.23467  0.15349  Biso   1.000  C
  C762     1.0000 0.76888  0.04028  0.18687  Biso   1.000  C
  O188     1.0000 0.82569  0.04958  0.26909  Biso   1.000  O
  O189     1.0000 0.75338  0.08493  0.26801  Biso   1.000  O
  C763     1.0000 0.76885  0.04028  0.18687  Biso   1.000  C
  O190     1.0000 0.82566  0.04958  0.26909  Biso   1.000  O
  O191     1.0000 0.75335  0.08493  0.26801  Biso   1.000  O
  S57      1.0000 0.79053  0.27751  0.12632  Biso   1.000  S
  S58      1.0000 0.79049  0.27751  0.12632  Biso   1.000  S
  H922     1.0000 0.98738  0.17410  0.41760  Biso   1.000  H
  H923     1.0000 0.94129  0.17710  0.42590  Biso   1.000  H
  C764     1.0000 0.96688  0.06319  0.43380  Biso   1.000  C
  H924     1.0000 0.98077  0.09848  0.41860  Biso   1.000  H
  H925     1.0000 0.97579  0.19739  0.41939  Biso   1.000  H
  C765     1.0000 0.93509  0.13688  0.43741  Biso   1.000  C
  O192     1.0000 0.94119  0.41376  0.33125  Biso   1.000  O
  O193     1.0000 0.94116  0.41376  0.33125  Biso   1.000  O
  C766     1.0000 0.01340  0.40808  0.33929  Biso   1.000  C
  H926     1.0000 0.01380  0.17828  0.33889  Biso   1.000  H
  C767     1.0000 0.05126  0.27901  0.33997  Biso   1.000  C
  C768     1.0000 0.94876  0.27901  0.16006  Biso   1.000  C
  H927     1.0000 0.88600  0.26870  0.13000  Biso   1.000  H
  C769     1.0000 0.90635  0.14681  0.13154  Biso   1.000  C
  C770     1.0000 0.90632  0.14681  0.13154  Biso   1.000  C
  C771     1.0000 0.72742  0.05789  0.16174  Biso   1.000  C
  C772     1.0000 0.79522  0.98770  0.16804  Biso   1.000  C
  C773     1.0000 0.79519  0.98770  0.16804  Biso   1.000  C
  C774     1.0000 0.80479  0.28313  0.07127  Biso   1.000  C
  O194     1.0000 0.80280  0.34988  0.15492  Biso   1.000  O
  O195     1.0000 0.74883  0.24678  0.11860  Biso   1.000  O
  O196     1.0000 0.74880  0.24678  0.11860  Biso   1.000  O
  H928     1.0000 0.94049  0.04321  0.43991  Biso   1.000  H
  H929     1.0000 0.98808  0.06788  0.46421  Biso   1.000  H
  H930     1.0000 0.97640  0.02360  0.41289  Biso   1.000  H
  H931     1.0000 0.97637  0.02360  0.41289  Biso   1.000  H
  H932     1.0000 0.95088  0.13732  0.47101  Biso   1.000  H
  H933     1.0000 0.91978  0.08411  0.43019  Biso   1.000  H
  H934     1.0000 0.91518  0.18353  0.43162  Biso   1.000  H
  H935     1.0000 0.92061  0.38323  0.33160  Biso   1.000  H
  H936     1.0000 0.92058  0.38323  0.33160  Biso   1.000  H
  C775     1.0000 0.05044  0.36618  0.33861  Biso   1.000  C
  O197     1.0000 0.01324  0.49588  0.34422  Biso   1.000  O
  C776     1.0000 0.05041  0.36618  0.33861  Biso   1.000  C
  C777     1.0000 0.09302  0.23467  0.34651  Biso   1.000  C
  C778     1.0000 0.98635  0.23760  0.16167  Biso   1.000  C
  C779     1.0000 0.94956  0.36618  0.16139  Biso   1.000  C
  C780     1.0000 0.98632  0.23760  0.16167  Biso   1.000  C
  C781     1.0000 0.94953  0.36618  0.16139  Biso   1.000  C
  H937     1.0000 0.92850  0.11271  0.15259  Biso   1.000  H
  H938     1.0000 0.87910  0.12027  0.13079  Biso   1.000  H
  C782     1.0000 0.91296  0.14550  0.08118  Biso   1.000  C
  H939     1.0000 0.92847  0.11271  0.15259  Biso   1.000  H
  H940     1.0000 0.87907  0.12027  0.13079  Biso   1.000  H
  C783     1.0000 0.91293  0.14550  0.08118  Biso   1.000  C
  C784     1.0000 0.69938  0.11990  0.17740  Biso   1.000  C
  C785     1.0000 0.71246  0.01680  0.11774  Biso   1.000  C
  C786     1.0000 0.71243  0.01680  0.11774  Biso   1.000  C
  C787     1.0000 0.77736  0.94929  0.12421  Biso   1.000  C
  C788     1.0000 0.84110  0.97090  0.19009  Biso   1.000  C
  C789     1.0000 0.82170  0.35737  0.05730  Biso   1.000  C
  C790     1.0000 0.79913  0.21088  0.04282  Biso   1.000  C
  C791     1.0000 0.79910  0.21088  0.04282  Biso   1.000  C
  O198     1.0000 0.08627  0.40721  0.33864  Biso   1.000  O
  O199     1.0000 0.08624  0.40721  0.33864  Biso   1.000  O
  S59      1.0000 0.02766  0.53066  0.39912  Biso   1.000  S
  H941     1.0000 0.11401  0.26870  0.36999  Biso   1.000  H
  C792     1.0000 0.10853  0.23067  0.30147  Biso   1.000  C
  C793     1.0000 0.09365  0.14681  0.36846  Biso   1.000  C
  H942     1.0000 0.98620  0.17828  0.16110  Biso   1.000  H
  C794     1.0000 0.02416  0.27863  0.16410  Biso   1.000  C
  C795     1.0000 0.02419  0.27863  0.16410  Biso   1.000  C
  C796     1.0000 0.98660  0.40808  0.16071  Biso   1.000  C
  O200     1.0000 0.91374  0.40721  0.16139  Biso   1.000  O
  H943     1.0000 0.89300  0.18471  0.06069  Biso   1.000  H
  H944     1.0000 0.94170  0.16492  0.08221  Biso   1.000  H
  C797     1.0000 0.90670  0.05920  0.05941  Biso   1.000  C
  H945     1.0000 0.67341  0.12589  0.15231  Biso   1.000  H
  H946     1.0000 0.71359  0.17397  0.18330  Biso   1.000  H
  H947     1.0000 0.69289  0.10022  0.20689  Biso   1.000  H
  H948     1.0000 0.68440  0.02691  0.10019  Biso   1.000  H
  C798     1.0000 0.73647  0.96272  0.09891  Biso   1.000  C
  C799     1.0000 0.73644  0.96272  0.09891  Biso   1.000  C
  H949     1.0000 0.79420  0.91239  0.11120  Biso   1.000  H
  H950     1.0000 0.79417  0.91239  0.11120  Biso   1.000  H
  H951     1.0000 0.85599  0.02410  0.19760  Biso   1.000  H
  H952     1.0000 0.84412  0.93830  0.21951  Biso   1.000  H
  H953     1.0000 0.85301  0.93949  0.16750  Biso   1.000  H
  H954     1.0000 0.84409  0.93830  0.21951  Biso   1.000  H
  H955     1.0000 0.85298  0.93949  0.16750  Biso   1.000  H
  C800     1.0000 0.82500  0.44030  0.08271  Biso   1.000  C
  C801     1.0000 0.83523  0.35300  0.01555  Biso   1.000  C
  C802     1.0000 0.83520  0.35300  0.01555  Biso   1.000  C
  C803     1.0000 0.77938  0.13132  0.05405  Biso   1.000  C
  C804     1.0000 0.81342  0.21288  0.00122  Biso   1.000  C
  C805     1.0000 0.81339  0.21288  0.00122  Biso   1.000  C
  H956     1.0000 0.08089  0.45772  0.33189  Biso   1.000  H
  H957     1.0000 0.08092  0.45772  0.33189  Biso   1.000  H
  C806     1.0000 0.99365  0.47902  0.42843  Biso   1.000  C
  O201     1.0000 0.01908  0.61758  0.39355  Biso   1.000  O
  O202     1.0000 0.06983  0.50531  0.41864  Biso   1.000  O
  O203     1.0000 0.01911  0.61758  0.39355  Biso   1.000  O
  O204     1.0000 0.06987  0.50531  0.41864  Biso   1.000  O
  C807     1.0000 0.08162  0.23729  0.25597  Biso   1.000  C
  C808     1.0000 0.15084  0.21469  0.30354  Biso   1.000  C
  C809     1.0000 0.08159  0.23729  0.25597  Biso   1.000  C
  H958     1.0000 0.07150  0.11271  0.34740  Biso   1.000  H
  H959     1.0000 0.12090  0.12027  0.36921  Biso   1.000  H
  C810     1.0000 0.08704  0.14550  0.41882  Biso   1.000  C
  H960     1.0000 0.07147  0.11271  0.34740  Biso   1.000  H
  H961     1.0000 0.12087  0.12027  0.36921  Biso   1.000  H
  C811     1.0000 0.08707  0.14550  0.41882  Biso   1.000  C
  C812     1.0000 0.02415  0.36562  0.16460  Biso   1.000  C
  C813     1.0000 0.06459  0.23248  0.16450  Biso   1.000  C
  O205     1.0000 0.98677  0.49588  0.15577  Biso   1.000  O
  H962     1.0000 0.91912  0.45772  0.16811  Biso   1.000  H
  H963     1.0000 0.91909  0.45772  0.16811  Biso   1.000  H
  H964     1.0000 0.92699  0.02067  0.07900  Biso   1.000  H
  H965     1.0000 0.91091  0.06101  0.02699  Biso   1.000  H
  H966     1.0000 0.87820  0.04003  0.05808  Biso   1.000  H
  H967     1.0000 0.91088  0.06101  0.02699  Biso   1.000  H
  H968     1.0000 0.87817  0.04003  0.05808  Biso   1.000  H
  C814     1.0000 0.71881  0.92101  0.05129  Biso   1.000  C
  C815     1.0000 0.71878  0.92101  0.05129  Biso   1.000  C
  H969     1.0000 0.83840  0.48108  0.06598  Biso   1.000  H
  H970     1.0000 0.84181  0.43381  0.11560  Biso   1.000  H
  H971     1.0000 0.79691  0.45997  0.08300  Biso   1.000  H
  H972     1.0000 0.84178  0.43381  0.11560  Biso   1.000  H
  H973     1.0000 0.79688  0.45997  0.08300  Biso   1.000  H
  H974     1.0000 0.84699  0.40177  0.00550  Biso   1.000  H
  C816     1.0000 0.83252  0.28213  0.98767  Biso   1.000  C
  H975     1.0000 0.77730  0.09167  0.02770  Biso   1.000  H
  H976     1.0000 0.79671  0.10722  0.08361  Biso   1.000  H
  H977     1.0000 0.75131  0.14331  0.05819  Biso   1.000  H
  H978     1.0000 0.79668  0.10722  0.08361  Biso   1.000  H
  H979     1.0000 0.75128  0.14331  0.05819  Biso   1.000  H
  H980     1.0000 0.80977  0.16473  0.98141  Biso   1.000  H
  H981     1.0000 0.80980  0.16473  0.98141  Biso   1.000  H
  C817     1.0000 0.95208  0.50968  0.42129  Biso   1.000  C
  C818     1.0000 0.00686  0.40789  0.45603  Biso   1.000  C
  C819     1.0000 0.00689  0.40789  0.45603  Biso   1.000  C
  H982     1.0000 0.05260  0.24597  0.25350  Biso   1.000  H
  C820     1.0000 0.09505  0.23180  0.21390  Biso   1.000  C
  H983     1.0000 0.05257  0.24597  0.25350  Biso   1.000  H
  C821     1.0000 0.09508  0.23180  0.21390  Biso   1.000  C
  C822     1.0000 0.16471  0.20582  0.26283  Biso   1.000  C
  O206     1.0000 0.17931  0.20082  0.34797  Biso   1.000  O
  C823     1.0000 0.16468  0.20582  0.26283  Biso   1.000  C
  H984     1.0000 0.10701  0.18471  0.43930  Biso   1.000  H
  H985     1.0000 0.05831  0.16492  0.41782  Biso   1.000  H
  C824     1.0000 0.09330  0.05920  0.44059  Biso   1.000  C
  H986     1.0000 0.05828  0.16492  0.41782  Biso   1.000  H
  C825     1.0000 0.09327  0.05920  0.44059  Biso   1.000  C
  O207     1.0000 0.05882  0.41376  0.16875  Biso   1.000  O
  O208     1.0000 0.05879  0.41376  0.16875  Biso   1.000  O
  H987     1.0000 0.07859  0.26533  0.14341  Biso   1.000  H
  C826     1.0000 0.05850  0.14437  0.14351  Biso   1.000  C
  H988     1.0000 0.07862  0.26533  0.14341  Biso   1.000  H
  S60      1.0000 0.97235  0.53066  0.10091  Biso   1.000  S
  S61      1.0000 0.97232  0.53066  0.10091  Biso   1.000  S
  H989     1.0000 0.74010  0.88473  0.04350  Biso   1.000  H
  H990     1.0000 0.71041  0.96372  0.02642  Biso   1.000  H
  H991     1.0000 0.69432  0.88747  0.05290  Biso   1.000  H
  H992     1.0000 0.71038  0.96372  0.02642  Biso   1.000  H
  H993     1.0000 0.69429  0.88747  0.05290  Biso   1.000  H
  C827     1.0000 0.84997  0.27913  0.94460  Biso   1.000  C
  C828     1.0000 0.85000  0.27913  0.94460  Biso   1.000  C
  C829     1.0000 0.92555  0.46522  0.44259  Biso   1.000  C
  C830     1.0000 0.93539  0.58449  0.39162  Biso   1.000  C
  C831     1.0000 0.97792  0.36830  0.47576  Biso   1.000  C
  C832     1.0000 0.97788  0.36830  0.47576  Biso   1.000  C
  C833     1.0000 0.04980  0.36893  0.46561  Biso   1.000  C
  C834     1.0000 0.04977  0.36893  0.46561  Biso   1.000  C
  C835     1.0000 0.13748  0.21868  0.21793  Biso   1.000  C
  O209     1.0000 0.20629  0.18184  0.26583  Biso   1.000  O
  S62      1.0000 0.20948  0.27751  0.37367  Biso   1.000  S
  S63      1.0000 0.20945  0.27751  0.37367  Biso   1.000  S
  H994     1.0000 0.07299  0.02067  0.42100  Biso   1.000  H
  H995     1.0000 0.08909  0.06101  0.47301  Biso   1.000  H
  H996     1.0000 0.12180  0.04003  0.44191  Biso   1.000  H
  H997     1.0000 0.07302  0.02067  0.42100  Biso   1.000  H
  H998     1.0000 0.08912  0.06101  0.47301  Biso   1.000  H
  H999     1.0000 0.12177  0.04003  0.44191  Biso   1.000  H
  H1000    1.0000 0.07939  0.38323  0.16839  Biso   1.000  H
  H1001    1.0000 0.03969  0.11278  0.15910  Biso   1.000  H
  H1002    1.0000 0.08591  0.11540  0.15070  Biso   1.000  H
  C836     1.0000 0.03981  0.14450  0.08911  Biso   1.000  C
  H1003    1.0000 0.03972  0.11278  0.15910  Biso   1.000  H
  O210     1.0000 0.98090  0.61758  0.10645  Biso   1.000  O
  O211     1.0000 0.93014  0.50531  0.08135  Biso   1.000  O
  C837     1.0000 0.00635  0.47902  0.07156  Biso   1.000  C
  C838     1.0000 0.00632  0.47902  0.07156  Biso   1.000  C
  H1004    1.0000 0.86967  0.23242  0.94760  Biso   1.000  H
  H1005    1.0000 0.86457  0.33158  0.94199  Biso   1.000  H
  H1006    1.0000 0.82706  0.27151  0.91589  Biso   1.000  H
  H1007    1.0000 0.86970  0.23242  0.94760  Biso   1.000  H
  H1008    1.0000 0.86460  0.33158  0.94199  Biso   1.000  H
  H1009    1.0000 0.82709  0.27151  0.91589  Biso   1.000  H
  H1010    1.0000 0.89759  0.48451  0.43819  Biso   1.000  H
  C839     1.0000 0.93742  0.39459  0.46990  Biso   1.000  C
  H1011    1.0000 0.90479  0.58592  0.38579  Biso   1.000  H
  H1012    1.0000 0.94729  0.63532  0.40860  Biso   1.000  H
  H1013    1.0000 0.94321  0.58130  0.36109  Biso   1.000  H
  H1014    1.0000 0.94318  0.58130  0.36109  Biso   1.000  H
  H1015    1.0000 0.98660  0.31978  0.49460  Biso   1.000  H
  H1016    1.0000 0.98657  0.31978  0.49460  Biso   1.000  H
  H1017    1.0000 0.05041  0.31828  0.48480  Biso   1.000  H
  H1018    1.0000 0.07069  0.40858  0.48309  Biso   1.000  H
  H1019    1.0000 0.05618  0.35463  0.43519  Biso   1.000  H
  H1020    1.0000 0.07072  0.40858  0.48309  Biso   1.000  H
  O212     1.0000 0.15286  0.21219  0.17704  Biso   1.000  O
  S64      1.0000 0.21353  0.08355  0.25536  Biso   1.000  S
  C840     1.0000 0.19521  0.28313  0.42872  Biso   1.000  C
  O213     1.0000 0.19718  0.34988  0.34511  Biso   1.000  O
  O214     1.0000 0.25117  0.24678  0.38139  Biso   1.000  O
  O215     1.0000 0.25114  0.24678  0.38139  Biso   1.000  O
  H1021    1.0000 0.01260  0.17410  0.08239  Biso   1.000  H
  H1022    1.0000 0.05871  0.17710  0.07410  Biso   1.000  H
  C841     1.0000 0.03309  0.06319  0.06620  Biso   1.000  C
  H1023    1.0000 0.05868  0.17710  0.07410  Biso   1.000  H
  H1024    1.0000 0.01920  0.09848  0.08139  Biso   1.000  H
  H1025    1.0000 0.02419  0.19739  0.08060  Biso   1.000  H
  C842     1.0000 0.06491  0.13688  0.06259  Biso   1.000  C
  C843     1.0000 0.99312  0.40789  0.04397  Biso   1.000  C
  C844     1.0000 0.04789  0.50968  0.07871  Biso   1.000  C
  C845     1.0000 0.90650  0.34869  0.49099  Biso   1.000  C
  S65      1.0000 0.16817  0.29799  0.15613  Biso   1.000  S
  S66      1.0000 0.16814  0.29799  0.15613  Biso   1.000  S
  C846     1.0000 0.23113  0.04028  0.31312  Biso   1.000  C
  O216     1.0000 0.17432  0.04958  0.23091  Biso   1.000  O
  O217     1.0000 0.24662  0.08493  0.23198  Biso   1.000  O
  C847     1.0000 0.23116  0.04028  0.31312  Biso   1.000  C
  O218     1.0000 0.17435  0.04958  0.23091  Biso   1.000  O
  C848     1.0000 0.17830  0.35737  0.44270  Biso   1.000  C
  C849     1.0000 0.20087  0.21088  0.45717  Biso   1.000  C
  C850     1.0000 0.17827  0.35737  0.44270  Biso   1.000  C
  C851     1.0000 0.20090  0.21088  0.45717  Biso   1.000  C
  H1026    1.0000 0.05951  0.04321  0.06009  Biso   1.000  H
  H1027    1.0000 0.01190  0.06788  0.03582  Biso   1.000  H
  H1028    1.0000 0.02360  0.02360  0.08711  Biso   1.000  H
  H1029    1.0000 0.05948  0.04321  0.06009  Biso   1.000  H
  H1030    1.0000 0.01187  0.06788  0.03582  Biso   1.000  H
  H1031    1.0000 0.04909  0.13732  0.02899  Biso   1.000  H
  H1032    1.0000 0.08019  0.08411  0.06981  Biso   1.000  H
  H1033    1.0000 0.08480  0.18353  0.06842  Biso   1.000  H
  C852     1.0000 0.95020  0.36893  0.03439  Biso   1.000  C
  C853     1.0000 0.02209  0.36830  0.02423  Biso   1.000  C
  C854     1.0000 0.07446  0.46522  0.05741  Biso   1.000  C
  C855     1.0000 0.06459  0.58449  0.10841  Biso   1.000  C
  H1034    1.0000 0.88589  0.32041  0.46550  Biso   1.000  H
  H1035    1.0000 0.89211  0.38847  0.50722  Biso   1.000  H
  H1036    1.0000 0.92131  0.30729  0.51411  Biso   1.000  H
  H1037    1.0000 0.89208  0.38847  0.50722  Biso   1.000  H
  H1038    1.0000 0.92128  0.30729  0.51411  Biso   1.000  H
  C856     1.0000 0.21720  0.31728  0.19581  Biso   1.000  C
  O219     1.0000 0.17177  0.27382  0.11016  Biso   1.000  O
  O220     1.0000 0.13878  0.36212  0.15935  Biso   1.000  O
  C857     1.0000 0.20478  0.98770  0.33196  Biso   1.000  C
  C858     1.0000 0.27256  0.05789  0.33829  Biso   1.000  C
  C859     1.0000 0.16478  0.35300  0.48445  Biso   1.000  C
  C860     1.0000 0.17501  0.44030  0.41732  Biso   1.000  C
  C861     1.0000 0.16481  0.35300  0.48445  Biso   1.000  C
  C862     1.0000 0.18659  0.21288  0.49882  Biso   1.000  C
  C863     1.0000 0.22060  0.13132  0.44595  Biso   1.000  C
  H1039    1.0000 0.94959  0.31828  0.01519  Biso   1.000  H
  H1040    1.0000 0.94379  0.35463  0.06480  Biso   1.000  H
  H1041    1.0000 0.92931  0.40858  0.01691  Biso   1.000  H
  H1042    1.0000 0.92928  0.40858  0.01691  Biso   1.000  H
  C864     1.0000 0.06259  0.39459  0.03010  Biso   1.000  C
  H1043    1.0000 0.01340  0.31978  0.00540  Biso   1.000  H
  C865     1.0000 0.06256  0.39459  0.03010  Biso   1.000  C
  H1044    1.0000 0.01337  0.31978  0.00540  Biso   1.000  H
  H1045    1.0000 0.10241  0.48451  0.06180  Biso   1.000  H
  H1046    1.0000 0.10238  0.48451  0.06180  Biso   1.000  H
  H1047    1.0000 0.09521  0.58592  0.11420  Biso   1.000  H
  H1048    1.0000 0.05680  0.58130  0.13890  Biso   1.000  H
  H1049    1.0000 0.05269  0.63532  0.09140  Biso   1.000  H
  H1050    1.0000 0.09518  0.58592  0.11420  Biso   1.000  H
  H1051    1.0000 0.05272  0.63532  0.09140  Biso   1.000  H
  C866     1.0000 0.25200  0.27108  0.18959  Biso   1.000  C
  C867     1.0000 0.22021  0.37099  0.23481  Biso   1.000  C
  C868     1.0000 0.25203  0.27108  0.18959  Biso   1.000  C
  C869     1.0000 0.22024  0.37099  0.23481  Biso   1.000  C
  C870     1.0000 0.22266  0.94929  0.37582  Biso   1.000  C
  C871     1.0000 0.15890  0.97090  0.30991  Biso   1.000  C
  C872     1.0000 0.28754  0.01680  0.38225  Biso   1.000  C
  C873     1.0000 0.30062  0.11990  0.32259  Biso   1.000  C
  C874     1.0000 0.30059  0.11990  0.32259  Biso   1.000  C
  H1052    1.0000 0.15298  0.40177  0.49449  Biso   1.000  H
  C875     1.0000 0.16746  0.28213  0.51233  Biso   1.000  C
  H1053    1.0000 0.15301  0.40177  0.49449  Biso   1.000  H
  H1054    1.0000 0.16161  0.48108  0.43401  Biso   1.000  H
  H1055    1.0000 0.15819  0.43381  0.38440  Biso   1.000  H
  H1056    1.0000 0.20309  0.45997  0.41700  Biso   1.000  H
  H1057    1.0000 0.16157  0.48108  0.43401  Biso   1.000  H
  H1058    1.0000 0.19021  0.16473  0.51862  Biso   1.000  H
  H1059    1.0000 0.19018  0.16473  0.51862  Biso   1.000  H
  H1060    1.0000 0.20329  0.10722  0.41639  Biso   1.000  H
  H1061    1.0000 0.22270  0.09167  0.47229  Biso   1.000  H
  H1062    1.0000 0.24869  0.14331  0.44180  Biso   1.000  H
  H1063    1.0000 0.20332  0.10722  0.41639  Biso   1.000  H
  H1064    1.0000 0.22267  0.09167  0.47229  Biso   1.000  H
  H1065    1.0000 0.24872  0.14331  0.44180  Biso   1.000  H
  C876     1.0000 0.09351  0.34869  0.00901  Biso   1.000  C
  C877     1.0000 0.09348  0.34869  0.00901  Biso   1.000  C
  C878     1.0000 0.28941  0.28019  0.22358  Biso   1.000  C
  C879     1.0000 0.25153  0.21132  0.14905  Biso   1.000  C
  C880     1.0000 0.25860  0.37617  0.26773  Biso   1.000  C
  C881     1.0000 0.18527  0.42538  0.24389  Biso   1.000  C
  C882     1.0000 0.25863  0.37617  0.26773  Biso   1.000  C
  C883     1.0000 0.18524  0.42538  0.24389  Biso   1.000  C
  C884     1.0000 0.26354  0.96272  0.40113  Biso   1.000  C
  H1066    1.0000 0.20580  0.91239  0.38879  Biso   1.000  H
  C885     1.0000 0.26351  0.96272  0.40113  Biso   1.000  C
  H1067    1.0000 0.15589  0.93830  0.28049  Biso   1.000  H
  H1068    1.0000 0.14699  0.93949  0.33250  Biso   1.000  H
  H1069    1.0000 0.15592  0.93830  0.28049  Biso   1.000  H
  H1070    1.0000 0.14401  0.02410  0.30240  Biso   1.000  H
  H1071    1.0000 0.14398  0.02410  0.30240  Biso   1.000  H
  H1072    1.0000 0.31561  0.02691  0.39980  Biso   1.000  H
  H1073    1.0000 0.31558  0.02691  0.39980  Biso   1.000  H
  H1074    1.0000 0.32660  0.12589  0.34769  Biso   1.000  H
  H1075    1.0000 0.28638  0.17397  0.31670  Biso   1.000  H
  H1076    1.0000 0.30708  0.10022  0.29311  Biso   1.000  H
  H1077    1.0000 0.28641  0.17397  0.31670  Biso   1.000  H
  H1078    1.0000 0.30711  0.10022  0.29311  Biso   1.000  H
  C886     1.0000 0.14997  0.27913  0.55540  Biso   1.000  C
  H1079    1.0000 0.10790  0.38847  0.99282  Biso   1.000  H
  H1080    1.0000 0.07871  0.30729  0.98592  Biso   1.000  H
  H1081    1.0000 0.10787  0.38847  0.99282  Biso   1.000  H
  H1082    1.0000 0.07868  0.30729  0.98592  Biso   1.000  H
  H1083    1.0000 0.11411  0.32041  0.03449  Biso   1.000  H
  H1084    1.0000 0.31329  0.25078  0.21961  Biso   1.000  H
  C887     1.0000 0.29320  0.33102  0.26337  Biso   1.000  C
  H1085    1.0000 0.31332  0.25078  0.21961  Biso   1.000  H
  H1086    1.0000 0.24710  0.24248  0.11899  Biso   1.000  H
  H1087    1.0000 0.22890  0.17079  0.14680  Biso   1.000  H
  H1088    1.0000 0.27839  0.18178  0.15510  Biso   1.000  H
  H1089    1.0000 0.22893  0.17079  0.14680  Biso   1.000  H
  H1090    1.0000 0.27842  0.18178  0.15510  Biso   1.000  H
  H1091    1.0000 0.26129  0.41239  0.29439  Biso   1.000  H
  H1092    1.0000 0.19540  0.45610  0.27391  Biso   1.000  H
  H1093    1.0000 0.16148  0.39022  0.24621  Biso   1.000  H
  H1094    1.0000 0.17631  0.46509  0.21751  Biso   1.000  H
  H1095    1.0000 0.19537  0.45610  0.27391  Biso   1.000  H
  H1096    1.0000 0.16151  0.39022  0.24621  Biso   1.000  H
  H1097    1.0000 0.17628  0.46509  0.21751  Biso   1.000  H
  C888     1.0000 0.28119  0.92101  0.44870  Biso   1.000  C
  C889     1.0000 0.28122  0.92101  0.44870  Biso   1.000  C
  H1098    1.0000 0.13030  0.23242  0.55240  Biso   1.000  H
  H1099    1.0000 0.13541  0.33158  0.55801  Biso   1.000  H
  H1100    1.0000 0.17289  0.27151  0.58410  Biso   1.000  H
  H1101    1.0000 0.13027  0.23242  0.55240  Biso   1.000  H
  H1102    1.0000 0.17292  0.27151  0.58410  Biso   1.000  H
  C890     1.0000 0.33448  0.33702  0.30079  Biso   1.000  C
  H1103    1.0000 0.25990  0.88473  0.45649  Biso   1.000  H
  H1104    1.0000 0.28960  0.96372  0.47362  Biso   1.000  H
  H1105    1.0000 0.30569  0.88747  0.44709  Biso   1.000  H
  H1106    1.0000 0.25987  0.88473  0.45649  Biso   1.000  H
  H1107    1.0000 0.28957  0.96372  0.47362  Biso   1.000  H
  H1108    1.0000 0.34031  0.39553  0.31012  Biso   1.000  H
  H1109    1.0000 0.35699  0.31497  0.28771  Biso   1.000  H
  H1110    1.0000 0.33290  0.30417  0.32899  Biso   1.000  H
  H1111    1.0000 0.34028  0.39553  0.31012  Biso   1.000  H
  H1112    1.0000 0.35702  0.31497  0.28771  Biso   1.000  H
