data_image0
_cell_length_a       14.89
_cell_length_b       17.963
_cell_length_c       18.365
_cell_angle_alpha    90
_cell_angle_beta     91.79
_cell_angle_gamma    90

_symmetry_space_group_name_H-M    "P 1"
_symmetry_int_tables_number       1

loop_
  _symmetry_equiv_pos_as_xyz
  'x, y, z'

loop_
  _atom_site_label
  _atom_site_occupancy
  _atom_site_fract_x
  _atom_site_fract_y
  _atom_site_fract_z
  _atom_site_thermal_displace_type
  _atom_site_B_iso_or_equiv
  _atom_site_type_symbol
  C1       1.0000 0.37699  0.53989  0.18888  Biso   1.000  C
  C2       1.0000 0.28239  0.56438  0.19650  Biso   1.000  C
  C3       1.0000 0.33701  0.49981  0.20402  Biso   1.000  C
  H1       1.0000 0.39489  0.50983  0.22990  Biso   1.000  H
  H2       1.0000 0.38181  0.51150  0.14491  Biso   1.000  H
  C4       1.0000 0.32900  0.58570  0.19138  Biso   1.000  C
  H3       1.0000 0.39150  0.48901  0.23088  Biso   1.000  H
  H4       1.0000 0.41532  0.58281  0.18681  Biso   1.000  H
  C5       1.0000 0.41711  0.61482  0.17041  Biso   1.000  C
  C6       1.0000 0.23340  0.49429  0.20288  Biso   1.000  C
  C7       1.0000 0.28962  0.61610  0.26569  Biso   1.000  C
  C8       1.0000 0.24999  0.61348  0.12960  Biso   1.000  C
  C9       1.0000 0.25497  0.59901  0.14028  Biso   1.000  C
  H5       1.0000 0.28653  0.48288  0.23088  Biso   1.000  H
  H6       1.0000 0.33697  0.47481  0.15782  Biso   1.000  H
  H7       1.0000 0.46038  0.60669  0.20941  Biso   1.000  H
  H8       1.0000 0.41230  0.66720  0.16060  Biso   1.000  H
  H9       1.0000 0.43607  0.58949  0.12748  Biso   1.000  H
  H10      1.0000 0.17110  0.50459  0.21029  Biso   1.000  H
  H11      1.0000 0.25780  0.46651  0.24352  Biso   1.000  H
  H12      1.0000 0.23917  0.46590  0.15908  Biso   1.000  H
  N1       1.0000 0.27861  0.68981  0.26226  Biso   1.000  N
  N2       1.0000 0.28952  0.57529  0.32600  Biso   1.000  N
  H13      1.0000 0.18697  0.62323  0.13249  Biso   1.000  H
  H14      1.0000 0.26151  0.58749  0.08520  Biso   1.000  H
  H15      1.0000 0.28253  0.65980  0.13042  Biso   1.000  H
  H16      1.0000 0.27100  0.58292  0.09272  Biso   1.000  H
  H17      1.0000 0.24149  0.65139  0.13908  Biso   1.000  H
  H18      1.0000 0.20310  0.57212  0.15532  Biso   1.000  H
  C10      1.0000 0.26320  0.72043  0.32600  Biso   1.000  C
  C11      1.0000 0.27901  0.61471  0.38592  Biso   1.000  C
  N3       1.0000 0.26352  0.68686  0.39012  Biso   1.000  N
  O1       1.0000 0.24570  0.79369  0.32333  Biso   1.000  O
  O2       1.0000 0.28398  0.57490  0.44868  Biso   1.000  O
  C12      1.0000 0.19408  0.82230  0.37982  Biso   1.000  C
  C13      1.0000 0.31951  0.61354  0.50991  Biso   1.000  C
  C14      1.0000 0.23648  0.85971  0.43789  Biso   1.000  C
  C15      1.0000 0.10298  0.81562  0.37187  Biso   1.000  C
  C16      1.0000 0.26350  0.64032  0.56210  Biso   1.000  C
  C17      1.0000 0.41167  0.61927  0.51727  Biso   1.000  C
  O3       1.0000 0.32531  0.87702  0.43740  Biso   1.000  O
  C18      1.0000 0.18053  0.88643  0.49008  Biso   1.000  C
  C19      1.0000 0.04719  0.84652  0.42308  Biso   1.000  C
  H19      1.0000 0.07813  0.79018  0.33188  Biso   1.000  H
  O4       1.0000 0.17473  0.62300  0.56259  Biso   1.000  O
  C20      1.0000 0.30589  0.67773  0.62018  Biso   1.000  C
  H20      1.0000 0.44708  0.59951  0.48120  Biso   1.000  H
  C21      1.0000 0.45278  0.65351  0.57692  Biso   1.000  C
  C22      1.0000 0.38777  0.83650  0.47401  Biso   1.000  C
  O5       1.0000 0.21600  0.92507  0.55132  Biso   1.000  O
  C23      1.0000 0.08831  0.88070  0.48273  Biso   1.000  C
  C24      1.0000 0.94450  0.84479  0.41240  Biso   1.000  C
  C25      1.0000 0.11221  0.66347  0.52598  Biso   1.000  C
  C26      1.0000 0.39700  0.68441  0.62819  Biso   1.000  C
  O6       1.0000 0.25428  0.70634  0.67667  Biso   1.000  O
  C27      1.0000 0.55548  0.65518  0.58760  Biso   1.000  C
  H21      1.0000 0.39021  0.85041  0.52511  Biso   1.000  H
  H22      1.0000 0.37373  0.78389  0.47042  Biso   1.000  H
  C28      1.0000 0.47712  0.85242  0.43980  Biso   1.000  C
  C29      1.0000 0.22097  0.88532  0.61408  Biso   1.000  C
  H23      1.0000 0.05290  0.90052  0.51879  Biso   1.000  H
  C30      1.0000 0.90839  0.78879  0.46519  Biso   1.000  C
  C31      1.0000 0.90561  0.92078  0.42640  Biso   1.000  C
  C32      1.0000 0.91450  0.82141  0.33460  Biso   1.000  C
  C33      1.0000 0.89603  0.86700  0.47919  Biso   1.000  C
  C34      1.0000 0.92202  0.90570  0.35721  Biso   1.000  C
  C35      1.0000 0.91360  0.77142  0.37731  Biso   1.000  C
  H24      1.0000 0.10977  0.64961  0.47488  Biso   1.000  H
  H25      1.0000 0.12631  0.71608  0.52958  Biso   1.000  H
  C36      1.0000 0.02293  0.64761  0.56020  Biso   1.000  C
  H26      1.0000 0.42191  0.70979  0.66812  Biso   1.000  H
  C37      1.0000 0.23678  0.77960  0.67400  Biso   1.000  C
  C38      1.0000 0.59159  0.71118  0.53481  Biso   1.000  C
  C39      1.0000 0.59443  0.57919  0.57360  Biso   1.000  C
  C40      1.0000 0.58547  0.67862  0.66539  Biso   1.000  C
  C41      1.0000 0.60401  0.63302  0.52081  Biso   1.000  C
  C42      1.0000 0.57802  0.59428  0.64279  Biso   1.000  C
  C43      1.0000 0.58638  0.72861  0.62268  Biso   1.000  C
  C44      1.0000 0.49600  0.81902  0.37742  Biso   1.000  C
  C45      1.0000 0.54021  0.90158  0.47200  Biso   1.000  C
  N4       1.0000 0.23653  0.81312  0.60988  Biso   1.000  N
  N5       1.0000 0.21052  0.92468  0.67400  Biso   1.000  N
  H27      1.0000 0.91362  0.80838  0.51378  Biso   1.000  H
  H28      1.0000 0.84640  0.77888  0.45298  Biso   1.000  H
  H29      1.0000 0.94220  0.74342  0.46252  Biso   1.000  H
  H30      1.0000 0.90151  0.82881  0.51520  Biso   1.000  H
  H31      1.0000 0.95007  0.95129  0.45070  Biso   1.000  H
  H32      1.0000 0.88741  0.94327  0.38091  Biso   1.000  H
  H33      1.0000 0.85439  0.91588  0.45658  Biso   1.000  H
  H34      1.0000 0.94150  0.95290  0.37639  Biso   1.000  H
  H35      1.0000 0.91870  0.86327  0.30241  Biso   1.000  H
  H36      1.0000 0.95269  0.78211  0.31821  Biso   1.000  H
  H37      1.0000 0.85353  0.80410  0.33471  Biso   1.000  H
  H38      1.0000 0.94493  0.76368  0.33302  Biso   1.000  H
  H39      1.0000 0.92182  0.91271  0.49847  Biso   1.000  H
  H40      1.0000 0.83363  0.87552  0.46682  Biso   1.000  H
  H41      1.0000 0.95201  0.89567  0.31281  Biso   1.000  H
  H42      1.0000 0.85819  0.90681  0.34768  Biso   1.000  H
  H43      1.0000 0.92648  0.73100  0.41027  Biso   1.000  H
  H44      1.0000 0.85012  0.77348  0.36669  Biso   1.000  H
  C46      1.0000 0.00397  0.68101  0.62257  Biso   1.000  C
  C47      1.0000 0.95983  0.59840  0.52800  Biso   1.000  C
  N6       1.0000 0.22137  0.81022  0.73780  Biso   1.000  N
  H45      1.0000 0.58643  0.69159  0.48622  Biso   1.000  H
  H46      1.0000 0.65358  0.72109  0.54701  Biso   1.000  H
  H47      1.0000 0.55778  0.75661  0.53748  Biso   1.000  H
  H48      1.0000 0.59853  0.67121  0.48480  Biso   1.000  H
  H49      1.0000 0.54991  0.54868  0.54930  Biso   1.000  H
  H50      1.0000 0.61257  0.55670  0.61909  Biso   1.000  H
  H51      1.0000 0.64558  0.58409  0.54342  Biso   1.000  H
  H52      1.0000 0.55848  0.54712  0.62361  Biso   1.000  H
  H53      1.0000 0.58127  0.63670  0.69759  Biso   1.000  H
  H54      1.0000 0.54729  0.71792  0.68179  Biso   1.000  H
  H55      1.0000 0.64652  0.69587  0.66529  Biso   1.000  H
  H56      1.0000 0.55511  0.73629  0.66697  Biso   1.000  H
  H57      1.0000 0.57822  0.58732  0.50152  Biso   1.000  H
  H58      1.0000 0.66641  0.62451  0.53318  Biso   1.000  H
  H59      1.0000 0.54803  0.60430  0.68719  Biso   1.000  H
  H60      1.0000 0.64179  0.59322  0.65232  Biso   1.000  H
  H61      1.0000 0.57349  0.76903  0.58972  Biso   1.000  H
  H62      1.0000 0.64992  0.72649  0.63331  Biso   1.000  H
  H63      1.0000 0.45353  0.78740  0.35580  Biso   1.000  H
  C48      1.0000 0.57419  0.82932  0.34457  Biso   1.000  C
  C49      1.0000 0.62287  0.91299  0.43849  Biso   1.000  C
  H64      1.0000 0.52749  0.92629  0.51493  Biso   1.000  H
  C50      1.0000 0.21043  0.88387  0.73431  Biso   1.000  C
  H65      1.0000 0.04651  0.71258  0.64420  Biso   1.000  H
  C51      1.0000 0.92579  0.67071  0.65542  Biso   1.000  C
  C52      1.0000 0.87711  0.58698  0.56150  Biso   1.000  C
  H66      1.0000 0.97248  0.57368  0.48513  Biso   1.000  H
  H67      1.0000 0.58548  0.80510  0.30110  Biso   1.000  H
  C53      1.0000 0.63662  0.87519  0.37519  Biso   1.000  C
  H68      1.0000 0.66622  0.94489  0.45849  Biso   1.000  H
  C54      1.0000 0.21759  0.93559  0.80350  Biso   1.000  C
  C55      1.0000 0.17098  0.91432  0.80862  Biso   1.000  C
  H69      1.0000 0.91450  0.69487  0.69890  Biso   1.000  H
  C56      1.0000 0.86343  0.62478  0.62481  Biso   1.000  C
  H70      1.0000 0.83382  0.55509  0.54151  Biso   1.000  H
  H71      1.0000 0.69087  0.88142  0.35231  Biso   1.000  H
  C57      1.0000 0.12299  0.96008  0.81112  Biso   1.000  C
  C58      1.0000 0.24999  0.88649  0.87039  Biso   1.000  C
  C59      1.0000 0.24501  0.90102  0.85972  Biso   1.000  C
  C60      1.0000 0.26657  0.00568  0.79712  Biso   1.000  C
  C61      1.0000 0.16297  0.00022  0.79598  Biso   1.000  C
  H72      1.0000 0.08472  0.91722  0.81319  Biso   1.000  H
  C62      1.0000 0.08287  0.88521  0.82959  Biso   1.000  C
  H73      1.0000 0.80910  0.61860  0.64769  Biso   1.000  H
  H74      1.0000 0.10509  0.99020  0.77010  Biso   1.000  H
  H75      1.0000 0.11817  0.98848  0.85509  Biso   1.000  H
  H76      1.0000 0.10848  0.01102  0.76912  Biso   1.000  H
  H77      1.0000 0.31301  0.87680  0.86751  Biso   1.000  H
  H78      1.0000 0.23847  0.91249  0.91479  Biso   1.000  H
  H79      1.0000 0.21752  0.84023  0.86958  Biso   1.000  H
  H80      1.0000 0.22898  0.91711  0.90728  Biso   1.000  H
  H81      1.0000 0.25849  0.84858  0.86092  Biso   1.000  H
  H82      1.0000 0.29688  0.92791  0.84468  Biso   1.000  H
  H83      1.0000 0.32888  0.99538  0.78971  Biso   1.000  H
  H84      1.0000 0.24217  0.03351  0.75648  Biso   1.000  H
  H85      1.0000 0.26081  0.03413  0.84092  Biso   1.000  H
  H86      1.0000 0.21351  0.01709  0.76912  Biso   1.000  H
  H87      1.0000 0.16300  0.02522  0.84218  Biso   1.000  H
  H88      1.0000 0.03959  0.89328  0.79058  Biso   1.000  H
  H89      1.0000 0.08768  0.83282  0.83940  Biso   1.000  H
  H90      1.0000 0.06390  0.91048  0.87252  Biso   1.000  H
  C63      1.0000 0.57803  0.40572  0.14279  Biso   1.000  C
  C64      1.0000 0.55549  0.34482  0.08760  Biso   1.000  C
  C65      1.0000 0.59437  0.42081  0.07360  Biso   1.000  C
  C66      1.0000 0.58549  0.32138  0.16540  Biso   1.000  C
  C67      1.0000 0.59444  0.42081  0.07360  Biso   1.000  C
  C68      1.0000 0.58555  0.32138  0.16540  Biso   1.000  C
  H91      1.0000 0.61258  0.44330  0.11909  Biso   1.000  H
  H92      1.0000 0.61265  0.44330  0.11909  Biso   1.000  H
  H93      1.0000 0.55856  0.45288  0.12361  Biso   1.000  H
  H94      1.0000 0.58129  0.36330  0.19759  Biso   1.000  H
  H95      1.0000 0.58135  0.36330  0.19759  Biso   1.000  H
  H96      1.0000 0.54804  0.39570  0.18719  Biso   1.000  H
  H97      1.0000 0.64180  0.40678  0.15232  Biso   1.000  H
  C69      1.0000 0.45280  0.34649  0.07692  Biso   1.000  C
  C70      1.0000 0.59160  0.28882  0.03481  Biso   1.000  C
  C71      1.0000 0.60403  0.36698  0.02081  Biso   1.000  C
  C72      1.0000 0.58639  0.27139  0.12268  Biso   1.000  C
  H98      1.0000 0.54992  0.45132  0.04930  Biso   1.000  H
  H99      1.0000 0.64559  0.41591  0.04342  Biso   1.000  H
  H100     1.0000 0.54730  0.28208  0.18179  Biso   1.000  H
  H101     1.0000 0.64653  0.30413  0.16529  Biso   1.000  H
  H102     1.0000 0.55512  0.26371  0.16698  Biso   1.000  H
  C73      1.0000 0.39701  0.31559  0.12819  Biso   1.000  C
  C74      1.0000 0.41168  0.38073  0.01727  Biso   1.000  C
  C75      1.0000 0.41175  0.38073  0.01727  Biso   1.000  C
  H103     1.0000 0.65359  0.27891  0.04701  Biso   1.000  H
  H104     1.0000 0.55779  0.24339  0.03748  Biso   1.000  H
  H105     1.0000 0.58637  0.30841  0.98622  Biso   1.000  H
  H106     1.0000 0.58644  0.30841  0.98622  Biso   1.000  H
  H107     1.0000 0.59854  0.32879  0.98480  Biso   1.000  H
  H108     1.0000 0.57823  0.41268  0.00153  Biso   1.000  H
  H109     1.0000 0.66642  0.37549  0.03318  Biso   1.000  H
  H110     1.0000 0.57350  0.23097  0.08973  Biso   1.000  H
  H111     1.0000 0.64993  0.27351  0.13331  Biso   1.000  H
  C76      1.0000 0.30591  0.32227  0.12018  Biso   1.000  C
  H112     1.0000 0.42192  0.29021  0.16812  Biso   1.000  H
  C77      1.0000 0.31952  0.38646  0.00991  Biso   1.000  C
  H113     1.0000 0.44709  0.40049  0.98121  Biso   1.000  H
  O7       1.0000 0.25429  0.29366  0.17667  Biso   1.000  O
  O8       1.0000 0.25436  0.29366  0.17667  Biso   1.000  O
  C78      1.0000 0.26351  0.35968  0.06210  Biso   1.000  C
  O9       1.0000 0.28399  0.42510  0.94868  Biso   1.000  O
  O10      1.0000 0.28405  0.42510  0.94868  Biso   1.000  O
  C79      1.0000 0.23679  0.22040  0.17400  Biso   1.000  C
  O11      1.0000 0.17467  0.37700  0.06260  Biso   1.000  O
  O12      1.0000 0.17474  0.37700  0.06260  Biso   1.000  O
  C80      1.0000 0.27902  0.38529  0.88592  Biso   1.000  C
  N7       1.0000 0.22145  0.18978  0.23780  Biso   1.000  N
  N8       1.0000 0.23647  0.18688  0.10988  Biso   1.000  N
  N9       1.0000 0.22138  0.18978  0.23780  Biso   1.000  N
  N10      1.0000 0.23654  0.18688  0.10988  Biso   1.000  N
  C81      1.0000 0.11222  0.33653  0.02599  Biso   1.000  C
  N11      1.0000 0.26353  0.31314  0.89012  Biso   1.000  N
  N12      1.0000 0.28947  0.42471  0.82600  Biso   1.000  N
  N13      1.0000 0.28954  0.42471  0.82600  Biso   1.000  N
  C82      1.0000 0.21037  0.11613  0.23431  Biso   1.000  C
  C83      1.0000 0.21044  0.11613  0.23431  Biso   1.000  C
  C84      1.0000 0.22098  0.11468  0.11408  Biso   1.000  C
  C85      1.0000 0.22105  0.11468  0.11408  Biso   1.000  C
  H114     1.0000 0.12632  0.28392  0.02958  Biso   1.000  H
  C86      1.0000 0.02287  0.35239  0.06020  Biso   1.000  C
  C87      1.0000 0.02294  0.35239  0.06020  Biso   1.000  C
  H115     1.0000 0.10978  0.35039  0.97489  Biso   1.000  H
  H116     1.0000 0.10985  0.35039  0.97489  Biso   1.000  H
  C88      1.0000 0.26321  0.27957  0.82600  Biso   1.000  C
  C89      1.0000 0.28963  0.38390  0.76569  Biso   1.000  C
  N14      1.0000 0.21053  0.07532  0.17400  Biso   1.000  N
  C90      1.0000 0.21760  0.06441  0.30350  Biso   1.000  C
  C91      1.0000 0.17099  0.08568  0.30862  Biso   1.000  C
  O13      1.0000 0.21601  0.07493  0.05132  Biso   1.000  O
  C92      1.0000 0.00398  0.31899  0.12258  Biso   1.000  C
  C93      1.0000 0.00405  0.31899  0.12258  Biso   1.000  C
  C94      1.0000 0.95978  0.40160  0.02800  Biso   1.000  C
  C95      1.0000 0.95984  0.40160  0.02800  Biso   1.000  C
  O14      1.0000 0.24571  0.20631  0.82333  Biso   1.000  O
  N15      1.0000 0.27862  0.31019  0.76220  Biso   1.000  N
  N16      1.0000 0.27862  0.31019  0.76226  Biso   1.000  N
  C96      1.0000 0.28240  0.43562  0.69650  Biso   1.000  C
  C97      1.0000 0.32901  0.41430  0.69138  Biso   1.000  C
  C98      1.0000 0.12300  0.03992  0.31112  Biso   1.000  C
  C99      1.0000 0.25000  0.11351  0.37040  Biso   1.000  C
  C100     1.0000 0.24502  0.09898  0.35972  Biso   1.000  C
  C101     1.0000 0.26658  0.99432  0.29712  Biso   1.000  C
  C102     1.0000 0.26665  0.99432  0.29712  Biso   1.000  C
  C103     1.0000 0.16298  0.99978  0.29598  Biso   1.000  C
  H117     1.0000 0.08473  0.08278  0.31319  Biso   1.000  H
  C104     1.0000 0.08288  0.11479  0.32959  Biso   1.000  C
  C105     1.0000 0.18048  0.11357  0.99009  Biso   1.000  C
  C106     1.0000 0.18054  0.11357  0.99009  Biso   1.000  C
  H118     1.0000 0.04652  0.28742  0.14420  Biso   1.000  H
  C107     1.0000 0.92580  0.32929  0.15543  Biso   1.000  C
  H119     1.0000 0.97249  0.42632  0.98507  Biso   1.000  H
  H120     1.0000 0.97250  0.42632  0.98513  Biso   1.000  H
  C108     1.0000 0.87712  0.41302  0.06151  Biso   1.000  C
  C109     1.0000 0.19409  0.17770  0.87982  Biso   1.000  C
  C110     1.0000 0.37700  0.46011  0.68888  Biso   1.000  C
  C111     1.0000 0.23342  0.50571  0.70288  Biso   1.000  C
  C112     1.0000 0.25000  0.38652  0.62960  Biso   1.000  C
  C113     1.0000 0.33702  0.50019  0.70402  Biso   1.000  C
  C114     1.0000 0.25505  0.40099  0.64028  Biso   1.000  C
  H121     1.0000 0.41527  0.41719  0.68681  Biso   1.000  H
  H122     1.0000 0.41533  0.41719  0.68681  Biso   1.000  H
  C115     1.0000 0.41712  0.38518  0.67041  Biso   1.000  C
  H123     1.0000 0.10510  0.00980  0.27010  Biso   1.000  H
  H124     1.0000 0.11818  0.01152  0.35509  Biso   1.000  H
  H125     1.0000 0.11825  0.01152  0.35509  Biso   1.000  H
  H126     1.0000 0.10849  0.98898  0.26912  Biso   1.000  H
  H127     1.0000 0.31302  0.12320  0.36751  Biso   1.000  H
  H128     1.0000 0.23848  0.08751  0.41480  Biso   1.000  H
  H129     1.0000 0.21753  0.15977  0.36958  Biso   1.000  H
  H130     1.0000 0.23855  0.08751  0.41480  Biso   1.000  H
  H131     1.0000 0.22899  0.08289  0.40728  Biso   1.000  H
  H132     1.0000 0.25850  0.15142  0.36092  Biso   1.000  H
  H133     1.0000 0.29689  0.07209  0.34468  Biso   1.000  H
  H134     1.0000 0.32889  0.00462  0.28971  Biso   1.000  H
  H135     1.0000 0.24218  0.96649  0.25648  Biso   1.000  H
  H136     1.0000 0.26082  0.96587  0.34092  Biso   1.000  H
  H137     1.0000 0.24225  0.96649  0.25648  Biso   1.000  H
  H138     1.0000 0.21352  0.98291  0.26912  Biso   1.000  H
  H139     1.0000 0.16301  0.97478  0.34218  Biso   1.000  H
  H140     1.0000 0.03960  0.10672  0.29059  Biso   1.000  H
  H141     1.0000 0.08769  0.16718  0.33940  Biso   1.000  H
  H142     1.0000 0.06392  0.08952  0.37252  Biso   1.000  H
  C116     1.0000 0.23649  0.14029  0.93790  Biso   1.000  C
  C117     1.0000 0.08832  0.11930  0.98273  Biso   1.000  C
  H143     1.0000 0.91451  0.30513  0.19890  Biso   1.000  H
  C118     1.0000 0.86337  0.37522  0.12481  Biso   1.000  C
  C119     1.0000 0.86344  0.37522  0.12481  Biso   1.000  C
  H144     1.0000 0.83377  0.44491  0.04151  Biso   1.000  H
  H145     1.0000 0.83384  0.44491  0.04151  Biso   1.000  H
  C120     1.0000 0.10299  0.18438  0.87181  Biso   1.000  C
  C121     1.0000 0.10306  0.18438  0.87187  Biso   1.000  C
  H146     1.0000 0.39490  0.49017  0.72990  Biso   1.000  H
  H147     1.0000 0.38182  0.48850  0.64491  Biso   1.000  H
  H148     1.0000 0.39151  0.51099  0.73088  Biso   1.000  H
  H149     1.0000 0.17111  0.49541  0.71029  Biso   1.000  H
  H150     1.0000 0.25782  0.53349  0.74352  Biso   1.000  H
  H151     1.0000 0.23918  0.53410  0.65908  Biso   1.000  H
  H152     1.0000 0.23925  0.53410  0.65908  Biso   1.000  H
  H153     1.0000 0.28654  0.51712  0.73088  Biso   1.000  H
  H154     1.0000 0.18698  0.37677  0.63249  Biso   1.000  H
  H155     1.0000 0.26152  0.41251  0.58520  Biso   1.000  H
  H156     1.0000 0.28247  0.34020  0.63042  Biso   1.000  H
  H157     1.0000 0.18705  0.37677  0.63249  Biso   1.000  H
  H158     1.0000 0.28254  0.34020  0.63042  Biso   1.000  H
  H159     1.0000 0.27101  0.41708  0.59272  Biso   1.000  H
  H160     1.0000 0.24150  0.34861  0.63908  Biso   1.000  H
  H161     1.0000 0.20311  0.42788  0.65532  Biso   1.000  H
  H162     1.0000 0.33705  0.52519  0.65782  Biso   1.000  H
  H163     1.0000 0.46040  0.39331  0.70941  Biso   1.000  H
  H164     1.0000 0.41231  0.33280  0.66060  Biso   1.000  H
  H165     1.0000 0.43615  0.41051  0.62748  Biso   1.000  H
  O15      1.0000 0.32533  0.12298  0.93740  Biso   1.000  O
  H166     1.0000 0.05291  0.09948  0.01879  Biso   1.000  H
  C122     1.0000 0.04720  0.15348  0.92308  Biso   1.000  C
  H167     1.0000 0.80912  0.38140  0.14769  Biso   1.000  H
  H168     1.0000 0.07808  0.20982  0.83188  Biso   1.000  H
  H169     1.0000 0.07814  0.20982  0.83188  Biso   1.000  H
  C123     1.0000 0.38778  0.16350  0.97401  Biso   1.000  C
  C124     1.0000 0.38785  0.16350  0.97401  Biso   1.000  C
  C125     1.0000 0.94451  0.15521  0.91240  Biso   1.000  C
  H170     1.0000 0.39022  0.14959  0.02511  Biso   1.000  H
  H171     1.0000 0.37368  0.21611  0.97042  Biso   1.000  H
  C126     1.0000 0.47713  0.14758  0.93980  Biso   1.000  C
  H172     1.0000 0.37374  0.21611  0.97042  Biso   1.000  H
  C127     1.0000 0.90840  0.21121  0.96519  Biso   1.000  C
  C128     1.0000 0.90563  0.07922  0.92640  Biso   1.000  C
  C129     1.0000 0.91451  0.17859  0.83460  Biso   1.000  C
  C130     1.0000 0.89597  0.13300  0.97919  Biso   1.000  C
  C131     1.0000 0.92197  0.09430  0.85721  Biso   1.000  C
  C132     1.0000 0.91361  0.22858  0.87732  Biso   1.000  C
  C133     1.0000 0.49602  0.18098  0.87742  Biso   1.000  C
  C134     1.0000 0.54022  0.09842  0.97200  Biso   1.000  C
  H173     1.0000 0.84641  0.22112  0.95299  Biso   1.000  H
  H174     1.0000 0.94221  0.25658  0.96252  Biso   1.000  H
  H175     1.0000 0.91363  0.19162  0.01378  Biso   1.000  H
  H176     1.0000 0.90153  0.17119  0.01520  Biso   1.000  H
  H177     1.0000 0.95008  0.04871  0.95070  Biso   1.000  H
  H178     1.0000 0.88742  0.05673  0.88091  Biso   1.000  H
  H179     1.0000 0.85441  0.08412  0.95658  Biso   1.000  H
  H180     1.0000 0.95015  0.04871  0.95070  Biso   1.000  H
  H181     1.0000 0.94151  0.04710  0.87639  Biso   1.000  H
  H182     1.0000 0.91871  0.13673  0.80241  Biso   1.000  H
  H183     1.0000 0.95270  0.21789  0.81821  Biso   1.000  H
  H184     1.0000 0.85347  0.19590  0.83471  Biso   1.000  H
  H185     1.0000 0.85354  0.19590  0.83471  Biso   1.000  H
  H186     1.0000 0.94488  0.23632  0.83302  Biso   1.000  H
  H187     1.0000 0.92177  0.08729  0.99847  Biso   1.000  H
  H188     1.0000 0.83358  0.12448  0.96682  Biso   1.000  H
  H189     1.0000 0.95202  0.10433  0.81281  Biso   1.000  H
  H190     1.0000 0.85820  0.09319  0.84768  Biso   1.000  H
  H191     1.0000 0.92650  0.26900  0.91027  Biso   1.000  H
  H192     1.0000 0.85007  0.22652  0.86669  Biso   1.000  H
  H193     1.0000 0.45348  0.21260  0.85580  Biso   1.000  H
  C135     1.0000 0.57420  0.17068  0.84457  Biso   1.000  C
  H194     1.0000 0.45354  0.21260  0.85580  Biso   1.000  H
  C136     1.0000 0.57420  0.17068  0.84463  Biso   1.000  C
  H195     1.0000 0.52751  0.07371  0.01493  Biso   1.000  H
  C137     1.0000 0.62288  0.08701  0.93849  Biso   1.000  C
  C138     1.0000 0.62295  0.08701  0.93849  Biso   1.000  C
  H196     1.0000 0.58549  0.19490  0.80110  Biso   1.000  H
  C139     1.0000 0.63663  0.12481  0.87519  Biso   1.000  C
  H197     1.0000 0.58555  0.19490  0.80110  Biso   1.000  H
  H198     1.0000 0.66623  0.05511  0.95849  Biso   1.000  H
  H199     1.0000 0.69088  0.11858  0.85231  Biso   1.000  H
  H200     1.0000 0.69095  0.11858  0.85231  Biso   1.000  H
  C140     1.0000 0.57803  0.40572  0.14279  Biso   1.000  C
  C141     1.0000 0.55549  0.34482  0.08760  Biso   1.000  C
  C142     1.0000 0.59437  0.42081  0.07360  Biso   1.000  C
  C143     1.0000 0.58549  0.32138  0.16540  Biso   1.000  C
  C144     1.0000 0.59444  0.42081  0.07360  Biso   1.000  C
  C145     1.0000 0.58555  0.32138  0.16540  Biso   1.000  C
  H201     1.0000 0.61258  0.44330  0.11909  Biso   1.000  H
  H202     1.0000 0.61265  0.44330  0.11909  Biso   1.000  H
  H203     1.0000 0.55856  0.45288  0.12361  Biso   1.000  H
  H204     1.0000 0.58129  0.36330  0.19759  Biso   1.000  H
  H205     1.0000 0.58135  0.36330  0.19759  Biso   1.000  H
  H206     1.0000 0.54804  0.39570  0.18719  Biso   1.000  H
  H207     1.0000 0.64180  0.40678  0.15232  Biso   1.000  H
  C146     1.0000 0.45280  0.34649  0.07692  Biso   1.000  C
  C147     1.0000 0.59160  0.28882  0.03481  Biso   1.000  C
  C148     1.0000 0.60403  0.36698  0.02081  Biso   1.000  C
  C149     1.0000 0.58639  0.27139  0.12268  Biso   1.000  C
  H208     1.0000 0.54992  0.45132  0.04930  Biso   1.000  H
  H209     1.0000 0.64559  0.41591  0.04342  Biso   1.000  H
  H210     1.0000 0.54730  0.28208  0.18179  Biso   1.000  H
  H211     1.0000 0.64653  0.30413  0.16529  Biso   1.000  H
  H212     1.0000 0.55512  0.26371  0.16698  Biso   1.000  H
  C150     1.0000 0.39701  0.31559  0.12819  Biso   1.000  C
  C151     1.0000 0.41168  0.38073  0.01727  Biso   1.000  C
  C152     1.0000 0.41175  0.38073  0.01727  Biso   1.000  C
  H213     1.0000 0.65359  0.27891  0.04701  Biso   1.000  H
  H214     1.0000 0.55779  0.24339  0.03748  Biso   1.000  H
  H215     1.0000 0.58637  0.30841  0.98622  Biso   1.000  H
  H216     1.0000 0.58644  0.30841  0.98622  Biso   1.000  H
  H217     1.0000 0.59854  0.32879  0.98480  Biso   1.000  H
  H218     1.0000 0.57823  0.41268  0.00153  Biso   1.000  H
  H219     1.0000 0.66642  0.37549  0.03318  Biso   1.000  H
  H220     1.0000 0.57350  0.23097  0.08973  Biso   1.000  H
  H221     1.0000 0.64993  0.27351  0.13331  Biso   1.000  H
  C153     1.0000 0.30591  0.32227  0.12018  Biso   1.000  C
  H222     1.0000 0.42192  0.29021  0.16812  Biso   1.000  H
  C154     1.0000 0.31952  0.38646  0.00991  Biso   1.000  C
  H223     1.0000 0.44709  0.40049  0.98121  Biso   1.000  H
  O16      1.0000 0.25429  0.29366  0.17667  Biso   1.000  O
  O17      1.0000 0.25436  0.29366  0.17667  Biso   1.000  O
  C155     1.0000 0.26351  0.35968  0.06210  Biso   1.000  C
  O18      1.0000 0.28399  0.42510  0.94868  Biso   1.000  O
  O19      1.0000 0.28405  0.42510  0.94868  Biso   1.000  O
  C156     1.0000 0.23679  0.22040  0.17400  Biso   1.000  C
  O20      1.0000 0.17467  0.37700  0.06260  Biso   1.000  O
  O21      1.0000 0.17474  0.37700  0.06260  Biso   1.000  O
  C157     1.0000 0.27902  0.38529  0.88592  Biso   1.000  C
  N17      1.0000 0.23647  0.18688  0.10988  Biso   1.000  N
  N18      1.0000 0.22138  0.18978  0.23780  Biso   1.000  N
  N19      1.0000 0.23654  0.18688  0.10988  Biso   1.000  N
  N20      1.0000 0.22145  0.18978  0.23780  Biso   1.000  N
  C158     1.0000 0.11222  0.33653  0.02599  Biso   1.000  C
  N21      1.0000 0.26353  0.31314  0.89012  Biso   1.000  N
  N22      1.0000 0.28947  0.42471  0.82600  Biso   1.000  N
  N23      1.0000 0.28954  0.42471  0.82600  Biso   1.000  N
  C159     1.0000 0.22098  0.11468  0.11408  Biso   1.000  C
  C160     1.0000 0.22105  0.11468  0.11408  Biso   1.000  C
  C161     1.0000 0.21037  0.11613  0.23431  Biso   1.000  C
  C162     1.0000 0.21044  0.11613  0.23431  Biso   1.000  C
  H224     1.0000 0.12632  0.28392  0.02958  Biso   1.000  H
  H225     1.0000 0.10978  0.35039  0.97489  Biso   1.000  H
  H226     1.0000 0.10985  0.35039  0.97489  Biso   1.000  H
  C163     1.0000 0.02287  0.35239  0.06020  Biso   1.000  C
  C164     1.0000 0.02294  0.35239  0.06020  Biso   1.000  C
  C165     1.0000 0.26321  0.27957  0.82600  Biso   1.000  C
  C166     1.0000 0.28963  0.38390  0.76569  Biso   1.000  C
  N24      1.0000 0.21053  0.07532  0.17400  Biso   1.000  N
  O22      1.0000 0.21601  0.07493  0.05132  Biso   1.000  O
  C167     1.0000 0.21760  0.06441  0.30350  Biso   1.000  C
  C168     1.0000 0.17099  0.08568  0.30862  Biso   1.000  C
  C169     1.0000 0.95978  0.40160  0.02800  Biso   1.000  C
  C170     1.0000 0.95984  0.40160  0.02800  Biso   1.000  C
  C171     1.0000 0.00398  0.31899  0.12258  Biso   1.000  C
  C172     1.0000 0.00405  0.31899  0.12258  Biso   1.000  C
  O23      1.0000 0.24571  0.20631  0.82333  Biso   1.000  O
  N25      1.0000 0.27862  0.31019  0.76220  Biso   1.000  N
  N26      1.0000 0.27862  0.31019  0.76226  Biso   1.000  N
  C173     1.0000 0.28240  0.43562  0.69650  Biso   1.000  C
  C174     1.0000 0.32901  0.41430  0.69138  Biso   1.000  C
  C175     1.0000 0.18048  0.11357  0.99009  Biso   1.000  C
  C176     1.0000 0.18054  0.11357  0.99009  Biso   1.000  C
  C177     1.0000 0.12300  0.03992  0.31112  Biso   1.000  C
  C178     1.0000 0.25000  0.11351  0.37040  Biso   1.000  C
  C179     1.0000 0.26658  0.99432  0.29712  Biso   1.000  C
  C180     1.0000 0.26665  0.99432  0.29712  Biso   1.000  C
  C181     1.0000 0.16298  0.99978  0.29598  Biso   1.000  C
  C182     1.0000 0.24502  0.09898  0.35972  Biso   1.000  C
  H227     1.0000 0.08473  0.08278  0.31319  Biso   1.000  H
  C183     1.0000 0.08288  0.11479  0.32959  Biso   1.000  C
  H228     1.0000 0.97249  0.42632  0.98507  Biso   1.000  H
  H229     1.0000 0.97250  0.42632  0.98513  Biso   1.000  H
  C184     1.0000 0.87712  0.41302  0.06151  Biso   1.000  C
  H230     1.0000 0.04652  0.28742  0.14420  Biso   1.000  H
  C185     1.0000 0.92580  0.32929  0.15543  Biso   1.000  C
  C186     1.0000 0.19409  0.17770  0.87982  Biso   1.000  C
  C187     1.0000 0.37700  0.46011  0.68888  Biso   1.000  C
  C188     1.0000 0.23342  0.50571  0.70288  Biso   1.000  C
  C189     1.0000 0.25000  0.38652  0.62960  Biso   1.000  C
  C190     1.0000 0.33702  0.50019  0.70402  Biso   1.000  C
  C191     1.0000 0.25505  0.40099  0.64028  Biso   1.000  C
  H231     1.0000 0.41527  0.41719  0.68681  Biso   1.000  H
  H232     1.0000 0.41533  0.41719  0.68681  Biso   1.000  H
  C192     1.0000 0.41712  0.38518  0.67041  Biso   1.000  C
  C193     1.0000 0.23649  0.14029  0.93790  Biso   1.000  C
  C194     1.0000 0.08832  0.11930  0.98273  Biso   1.000  C
  H233     1.0000 0.10510  0.00980  0.27010  Biso   1.000  H
  H234     1.0000 0.10849  0.98898  0.26912  Biso   1.000  H
  H235     1.0000 0.11818  0.01152  0.35509  Biso   1.000  H
  H236     1.0000 0.11825  0.01152  0.35509  Biso   1.000  H
  H237     1.0000 0.31302  0.12320  0.36751  Biso   1.000  H
  H238     1.0000 0.21753  0.15977  0.36958  Biso   1.000  H
  H239     1.0000 0.23848  0.08751  0.41480  Biso   1.000  H
  H240     1.0000 0.23855  0.08751  0.41480  Biso   1.000  H
  H241     1.0000 0.22899  0.08289  0.40728  Biso   1.000  H
  H242     1.0000 0.25850  0.15142  0.36092  Biso   1.000  H
  H243     1.0000 0.29689  0.07209  0.34468  Biso   1.000  H
  H244     1.0000 0.32889  0.00462  0.28971  Biso   1.000  H
  H245     1.0000 0.24218  0.96649  0.25648  Biso   1.000  H
  H246     1.0000 0.26082  0.96587  0.34092  Biso   1.000  H
  H247     1.0000 0.24225  0.96649  0.25648  Biso   1.000  H
  H248     1.0000 0.21352  0.98291  0.26912  Biso   1.000  H
  H249     1.0000 0.16301  0.97478  0.34218  Biso   1.000  H
  H250     1.0000 0.03960  0.10672  0.29059  Biso   1.000  H
  H251     1.0000 0.08769  0.16718  0.33940  Biso   1.000  H
  H252     1.0000 0.06392  0.08952  0.37252  Biso   1.000  H
  C195     1.0000 0.86337  0.37522  0.12481  Biso   1.000  C
  H253     1.0000 0.83377  0.44491  0.04151  Biso   1.000  H
  C196     1.0000 0.86344  0.37522  0.12481  Biso   1.000  C
  H254     1.0000 0.83384  0.44491  0.04151  Biso   1.000  H
  H255     1.0000 0.91451  0.30513  0.19890  Biso   1.000  H
  C197     1.0000 0.10299  0.18438  0.87181  Biso   1.000  C
  C198     1.0000 0.10306  0.18438  0.87187  Biso   1.000  C
  H256     1.0000 0.39490  0.49017  0.72990  Biso   1.000  H
  H257     1.0000 0.38182  0.48850  0.64491  Biso   1.000  H
  H258     1.0000 0.39151  0.51099  0.73088  Biso   1.000  H
  H259     1.0000 0.17111  0.49541  0.71029  Biso   1.000  H
  H260     1.0000 0.25782  0.53349  0.74352  Biso   1.000  H
  H261     1.0000 0.23918  0.53410  0.65908  Biso   1.000  H
  H262     1.0000 0.23925  0.53410  0.65908  Biso   1.000  H
  H263     1.0000 0.28654  0.51712  0.73088  Biso   1.000  H
  H264     1.0000 0.18698  0.37677  0.63249  Biso   1.000  H
  H265     1.0000 0.26152  0.41251  0.58520  Biso   1.000  H
  H266     1.0000 0.28247  0.34020  0.63042  Biso   1.000  H
  H267     1.0000 0.18705  0.37677  0.63249  Biso   1.000  H
  H268     1.0000 0.28254  0.34020  0.63042  Biso   1.000  H
  H269     1.0000 0.27101  0.41708  0.59272  Biso   1.000  H
  H270     1.0000 0.24150  0.34861  0.63908  Biso   1.000  H
  H271     1.0000 0.20311  0.42788  0.65532  Biso   1.000  H
  H272     1.0000 0.33705  0.52519  0.65782  Biso   1.000  H
  H273     1.0000 0.46040  0.39331  0.70941  Biso   1.000  H
  H274     1.0000 0.41231  0.33280  0.66060  Biso   1.000  H
  H275     1.0000 0.43615  0.41051  0.62748  Biso   1.000  H
  O24      1.0000 0.32533  0.12298  0.93740  Biso   1.000  O
  H276     1.0000 0.05291  0.09948  0.01879  Biso   1.000  H
  C199     1.0000 0.04720  0.15348  0.92308  Biso   1.000  C
  H277     1.0000 0.80912  0.38140  0.14769  Biso   1.000  H
  H278     1.0000 0.07808  0.20982  0.83188  Biso   1.000  H
  H279     1.0000 0.07814  0.20982  0.83188  Biso   1.000  H
  C200     1.0000 0.38778  0.16350  0.97401  Biso   1.000  C
  C201     1.0000 0.38785  0.16350  0.97401  Biso   1.000  C
  C202     1.0000 0.94451  0.15521  0.91240  Biso   1.000  C
  H280     1.0000 0.39022  0.14959  0.02511  Biso   1.000  H
  H281     1.0000 0.37368  0.21611  0.97042  Biso   1.000  H
  C203     1.0000 0.47713  0.14758  0.93980  Biso   1.000  C
  H282     1.0000 0.37374  0.21611  0.97042  Biso   1.000  H
  C204     1.0000 0.90840  0.21121  0.96519  Biso   1.000  C
  C205     1.0000 0.90563  0.07922  0.92640  Biso   1.000  C
  C206     1.0000 0.91451  0.17859  0.83460  Biso   1.000  C
  C207     1.0000 0.89597  0.13300  0.97919  Biso   1.000  C
  C208     1.0000 0.92197  0.09430  0.85721  Biso   1.000  C
  C209     1.0000 0.91361  0.22858  0.87732  Biso   1.000  C
  C210     1.0000 0.49602  0.18098  0.87742  Biso   1.000  C
  C211     1.0000 0.54022  0.09842  0.97200  Biso   1.000  C
  H283     1.0000 0.84641  0.22112  0.95299  Biso   1.000  H
  H284     1.0000 0.94221  0.25658  0.96252  Biso   1.000  H
  H285     1.0000 0.91363  0.19162  0.01378  Biso   1.000  H
  H286     1.0000 0.90153  0.17119  0.01520  Biso   1.000  H
  H287     1.0000 0.95008  0.04871  0.95070  Biso   1.000  H
  H288     1.0000 0.88742  0.05673  0.88091  Biso   1.000  H
  H289     1.0000 0.85441  0.08412  0.95658  Biso   1.000  H
  H290     1.0000 0.95015  0.04871  0.95070  Biso   1.000  H
  H291     1.0000 0.94151  0.04710  0.87639  Biso   1.000  H
  H292     1.0000 0.91871  0.13673  0.80241  Biso   1.000  H
  H293     1.0000 0.95270  0.21789  0.81821  Biso   1.000  H
  H294     1.0000 0.85347  0.19590  0.83471  Biso   1.000  H
  H295     1.0000 0.85354  0.19590  0.83471  Biso   1.000  H
  H296     1.0000 0.94488  0.23632  0.83302  Biso   1.000  H
  H297     1.0000 0.92177  0.08729  0.99847  Biso   1.000  H
  H298     1.0000 0.83358  0.12448  0.96682  Biso   1.000  H
  H299     1.0000 0.95202  0.10433  0.81281  Biso   1.000  H
  H300     1.0000 0.85820  0.09319  0.84768  Biso   1.000  H
  H301     1.0000 0.92650  0.26900  0.91027  Biso   1.000  H
  H302     1.0000 0.85007  0.22652  0.86669  Biso   1.000  H
  H303     1.0000 0.45348  0.21260  0.85580  Biso   1.000  H
  C212     1.0000 0.57420  0.17068  0.84457  Biso   1.000  C
  H304     1.0000 0.45354  0.21260  0.85580  Biso   1.000  H
  C213     1.0000 0.57420  0.17068  0.84463  Biso   1.000  C
  H305     1.0000 0.52751  0.07371  0.01493  Biso   1.000  H
  C214     1.0000 0.62288  0.08701  0.93849  Biso   1.000  C
  C215     1.0000 0.62295  0.08701  0.93849  Biso   1.000  C
  H306     1.0000 0.58549  0.19490  0.80110  Biso   1.000  H
  C216     1.0000 0.63663  0.12481  0.87519  Biso   1.000  C
  H307     1.0000 0.58555  0.19490  0.80110  Biso   1.000  H
  H308     1.0000 0.66623  0.05511  0.95849  Biso   1.000  H
  H309     1.0000 0.69088  0.11858  0.85231  Biso   1.000  H
  H310     1.0000 0.69095  0.11858  0.85231  Biso   1.000  H
  C217     1.0000 0.62300  0.53989  0.31112  Biso   1.000  C
  C218     1.0000 0.66298  0.49981  0.29598  Biso   1.000  C
  C219     1.0000 0.71760  0.56438  0.30350  Biso   1.000  C
  H311     1.0000 0.60510  0.50983  0.27010  Biso   1.000  H
  H312     1.0000 0.61818  0.51150  0.35509  Biso   1.000  H
  H313     1.0000 0.61825  0.51150  0.35509  Biso   1.000  H
  C220     1.0000 0.67099  0.58570  0.30862  Biso   1.000  C
  H314     1.0000 0.60849  0.48901  0.26912  Biso   1.000  H
  H315     1.0000 0.58473  0.58281  0.31319  Biso   1.000  H
  C221     1.0000 0.58288  0.61482  0.32959  Biso   1.000  C
  C222     1.0000 0.76658  0.49429  0.29712  Biso   1.000  C
  C223     1.0000 0.76665  0.49429  0.29712  Biso   1.000  C
  H316     1.0000 0.66301  0.47481  0.34218  Biso   1.000  H
  H317     1.0000 0.71352  0.48288  0.26912  Biso   1.000  H
  C224     1.0000 0.71037  0.61610  0.23431  Biso   1.000  C
  C225     1.0000 0.75000  0.61348  0.37040  Biso   1.000  C
  C226     1.0000 0.71044  0.61610  0.23431  Biso   1.000  C
  C227     1.0000 0.74502  0.59901  0.35972  Biso   1.000  C
  H318     1.0000 0.53960  0.60669  0.29059  Biso   1.000  H
  H319     1.0000 0.58769  0.66720  0.33940  Biso   1.000  H
  H320     1.0000 0.56392  0.58949  0.37252  Biso   1.000  H
  H321     1.0000 0.82889  0.50459  0.28971  Biso   1.000  H
  H322     1.0000 0.74218  0.46651  0.25648  Biso   1.000  H
  H323     1.0000 0.76082  0.46590  0.34092  Biso   1.000  H
  H324     1.0000 0.74225  0.46651  0.25648  Biso   1.000  H
  N27      1.0000 0.72138  0.68981  0.23780  Biso   1.000  N
  N28      1.0000 0.71053  0.57529  0.17400  Biso   1.000  N
  N29      1.0000 0.72145  0.68981  0.23780  Biso   1.000  N
  H325     1.0000 0.81302  0.62323  0.36751  Biso   1.000  H
  H326     1.0000 0.73848  0.58749  0.41480  Biso   1.000  H
  H327     1.0000 0.71753  0.65980  0.36958  Biso   1.000  H
  H328     1.0000 0.73855  0.58749  0.41480  Biso   1.000  H
  H329     1.0000 0.72899  0.58292  0.40728  Biso   1.000  H
  H330     1.0000 0.75850  0.65139  0.36092  Biso   1.000  H
  H331     1.0000 0.79689  0.57212  0.34468  Biso   1.000  H
  C228     1.0000 0.73679  0.72043  0.17400  Biso   1.000  C
  C229     1.0000 0.72098  0.61471  0.11408  Biso   1.000  C
  C230     1.0000 0.72105  0.61471  0.11408  Biso   1.000  C
  N30      1.0000 0.73647  0.68686  0.10988  Biso   1.000  N
  O25      1.0000 0.75429  0.79369  0.17667  Biso   1.000  O
  N31      1.0000 0.73654  0.68686  0.10988  Biso   1.000  N
  O26      1.0000 0.75436  0.79369  0.17667  Biso   1.000  O
  O27      1.0000 0.71601  0.57490  0.05132  Biso   1.000  O
  C231     1.0000 0.80591  0.82230  0.12018  Biso   1.000  C
  C232     1.0000 0.68048  0.61354  0.99009  Biso   1.000  C
  C233     1.0000 0.68054  0.61354  0.99009  Biso   1.000  C
  C234     1.0000 0.76351  0.85971  0.06210  Biso   1.000  C
  C235     1.0000 0.89701  0.81562  0.12819  Biso   1.000  C
  C236     1.0000 0.73649  0.64032  0.93790  Biso   1.000  C
  C237     1.0000 0.58832  0.61927  0.98273  Biso   1.000  C
  O28      1.0000 0.67467  0.87702  0.06260  Biso   1.000  O
  C238     1.0000 0.81952  0.88643  0.00991  Biso   1.000  C
  O29      1.0000 0.67474  0.87702  0.06260  Biso   1.000  O
  C239     1.0000 0.95280  0.84652  0.07692  Biso   1.000  C
  H332     1.0000 0.92192  0.79018  0.16812  Biso   1.000  H
  O30      1.0000 0.82533  0.62300  0.93740  Biso   1.000  O
  C240     1.0000 0.69409  0.67773  0.87982  Biso   1.000  C
  H333     1.0000 0.55291  0.59951  0.01879  Biso   1.000  H
  C241     1.0000 0.54720  0.65351  0.92308  Biso   1.000  C
  C242     1.0000 0.61222  0.83650  0.02599  Biso   1.000  C
  C243     1.0000 0.91168  0.88070  0.01727  Biso   1.000  C
  C244     1.0000 0.91175  0.88070  0.01727  Biso   1.000  C
  O31      1.0000 0.78399  0.92507  0.94868  Biso   1.000  O
  O32      1.0000 0.78405  0.92507  0.94868  Biso   1.000  O
  C245     1.0000 0.05549  0.84479  0.08760  Biso   1.000  C
  C246     1.0000 0.88778  0.66347  0.97401  Biso   1.000  C
  C247     1.0000 0.88785  0.66347  0.97401  Biso   1.000  C
  C248     1.0000 0.60299  0.68441  0.87181  Biso   1.000  C
  O33      1.0000 0.74571  0.70634  0.82333  Biso   1.000  O
  C249     1.0000 0.60306  0.68441  0.87187  Biso   1.000  C
  C250     1.0000 0.44451  0.65518  0.91240  Biso   1.000  C
  H334     1.0000 0.62632  0.78389  0.02958  Biso   1.000  H
  C251     1.0000 0.52287  0.85242  0.06020  Biso   1.000  C
  C252     1.0000 0.52294  0.85242  0.06020  Biso   1.000  C
  H335     1.0000 0.60978  0.85041  0.97489  Biso   1.000  H
  H336     1.0000 0.60985  0.85041  0.97489  Biso   1.000  H
  H337     1.0000 0.94709  0.90052  0.98121  Biso   1.000  H
  C253     1.0000 0.77902  0.88532  0.88592  Biso   1.000  C
  C254     1.0000 0.09160  0.78879  0.03481  Biso   1.000  C
  C255     1.0000 0.09437  0.92078  0.07360  Biso   1.000  C
  C256     1.0000 0.08549  0.82141  0.16540  Biso   1.000  C
  C257     1.0000 0.09444  0.92078  0.07360  Biso   1.000  C
  C258     1.0000 0.08555  0.82141  0.16540  Biso   1.000  C
  C259     1.0000 0.10403  0.86700  0.02081  Biso   1.000  C
  C260     1.0000 0.07803  0.90570  0.14279  Biso   1.000  C
  C261     1.0000 0.08639  0.77142  0.12268  Biso   1.000  C
  H338     1.0000 0.89022  0.64961  0.02511  Biso   1.000  H
  H339     1.0000 0.87368  0.71608  0.97042  Biso   1.000  H
  C262     1.0000 0.97713  0.64761  0.93980  Biso   1.000  C
  H340     1.0000 0.87374  0.71608  0.97042  Biso   1.000  H
  H341     1.0000 0.57808  0.70979  0.83188  Biso   1.000  H
  H342     1.0000 0.57814  0.70979  0.83188  Biso   1.000  H
  C263     1.0000 0.76321  0.77960  0.82600  Biso   1.000  C
  C264     1.0000 0.40840  0.71118  0.96519  Biso   1.000  C
  C265     1.0000 0.40563  0.57919  0.92640  Biso   1.000  C
  C266     1.0000 0.41451  0.67862  0.83460  Biso   1.000  C
  C267     1.0000 0.39597  0.63302  0.97919  Biso   1.000  C
  C268     1.0000 0.42197  0.59428  0.85721  Biso   1.000  C
  C269     1.0000 0.41361  0.72861  0.87732  Biso   1.000  C
  C270     1.0000 0.50398  0.81902  0.12258  Biso   1.000  C
  C271     1.0000 0.45978  0.90158  0.02800  Biso   1.000  C
  C272     1.0000 0.50405  0.81902  0.12258  Biso   1.000  C
  C273     1.0000 0.45984  0.90158  0.02800  Biso   1.000  C
  N32      1.0000 0.76353  0.81312  0.89012  Biso   1.000  N
  N33      1.0000 0.78947  0.92468  0.82600  Biso   1.000  N
  N34      1.0000 0.78954  0.92468  0.82600  Biso   1.000  N
  H343     1.0000 0.08637  0.80838  0.98622  Biso   1.000  H
  H344     1.0000 0.08644  0.80838  0.98622  Biso   1.000  H
  H345     1.0000 0.09854  0.82881  0.98480  Biso   1.000  H
  H346     1.0000 0.15359  0.77888  0.04701  Biso   1.000  H
  H347     1.0000 0.05779  0.74342  0.03748  Biso   1.000  H
  H348     1.0000 0.04992  0.95129  0.04930  Biso   1.000  H
  H349     1.0000 0.11258  0.94327  0.11909  Biso   1.000  H
  H350     1.0000 0.14559  0.91588  0.04342  Biso   1.000  H
  H351     1.0000 0.11265  0.94327  0.11909  Biso   1.000  H
  H352     1.0000 0.05856  0.95290  0.12361  Biso   1.000  H
  H353     1.0000 0.08129  0.86327  0.19759  Biso   1.000  H
  H354     1.0000 0.04730  0.78211  0.18179  Biso   1.000  H
  H355     1.0000 0.14653  0.80410  0.16529  Biso   1.000  H
  H356     1.0000 0.08135  0.86327  0.19759  Biso   1.000  H
  H357     1.0000 0.05512  0.76368  0.16698  Biso   1.000  H
  H358     1.0000 0.07823  0.91271  0.00153  Biso   1.000  H
  H359     1.0000 0.16642  0.87552  0.03318  Biso   1.000  H
  H360     1.0000 0.04804  0.89567  0.18719  Biso   1.000  H
  H361     1.0000 0.14180  0.90681  0.15232  Biso   1.000  H
  H362     1.0000 0.07350  0.73100  0.08973  Biso   1.000  H
  H363     1.0000 0.14993  0.77348  0.13331  Biso   1.000  H
  C274     1.0000 0.99602  0.68101  0.87742  Biso   1.000  C
  C275     1.0000 0.04022  0.59840  0.97200  Biso   1.000  C
  N35      1.0000 0.77862  0.81022  0.76220  Biso   1.000  N
  N36      1.0000 0.77862  0.81022  0.76226  Biso   1.000  N
  H364     1.0000 0.41363  0.69159  0.01378  Biso   1.000  H
  H365     1.0000 0.40153  0.67121  0.01520  Biso   1.000  H
  H366     1.0000 0.34641  0.72109  0.95299  Biso   1.000  H
  H367     1.0000 0.44221  0.75661  0.96252  Biso   1.000  H
  H368     1.0000 0.45008  0.54868  0.95070  Biso   1.000  H
  H369     1.0000 0.38742  0.55670  0.88091  Biso   1.000  H
  H370     1.0000 0.35441  0.58409  0.95658  Biso   1.000  H
  H371     1.0000 0.45015  0.54868  0.95070  Biso   1.000  H
  H372     1.0000 0.44151  0.54712  0.87639  Biso   1.000  H
  H373     1.0000 0.41871  0.63670  0.80241  Biso   1.000  H
  H374     1.0000 0.45270  0.71792  0.81821  Biso   1.000  H
  H375     1.0000 0.35347  0.69587  0.83471  Biso   1.000  H
  H376     1.0000 0.35354  0.69587  0.83471  Biso   1.000  H
  H377     1.0000 0.44488  0.73629  0.83302  Biso   1.000  H
  H378     1.0000 0.42177  0.58732  0.99847  Biso   1.000  H
  H379     1.0000 0.33358  0.62451  0.96682  Biso   1.000  H
  H380     1.0000 0.45202  0.60430  0.81281  Biso   1.000  H
  H381     1.0000 0.35820  0.59322  0.84768  Biso   1.000  H
  H382     1.0000 0.42650  0.76903  0.91027  Biso   1.000  H
  H383     1.0000 0.35007  0.72649  0.86669  Biso   1.000  H
  H384     1.0000 0.54652  0.78740  0.14420  Biso   1.000  H
  C276     1.0000 0.42580  0.82932  0.15543  Biso   1.000  C
  C277     1.0000 0.37712  0.91299  0.06151  Biso   1.000  C
  H385     1.0000 0.47249  0.92629  0.98507  Biso   1.000  H
  H386     1.0000 0.47250  0.92629  0.98513  Biso   1.000  H
  C278     1.0000 0.78963  0.88387  0.76569  Biso   1.000  C
  H387     1.0000 0.95348  0.71258  0.85580  Biso   1.000  H
  H388     1.0000 0.95354  0.71258  0.85580  Biso   1.000  H
  C279     1.0000 0.07420  0.67071  0.84457  Biso   1.000  C
  C280     1.0000 0.07420  0.67071  0.84463  Biso   1.000  C
  C281     1.0000 0.12288  0.58698  0.93849  Biso   1.000  C
  C282     1.0000 0.12295  0.58698  0.93849  Biso   1.000  C
  H389     1.0000 0.02751  0.57368  0.01493  Biso   1.000  H
  H390     1.0000 0.41451  0.80510  0.19890  Biso   1.000  H
  C283     1.0000 0.36337  0.87519  0.12481  Biso   1.000  C
  C284     1.0000 0.36344  0.87519  0.12481  Biso   1.000  C
  H391     1.0000 0.33377  0.94489  0.04151  Biso   1.000  H
  H392     1.0000 0.33384  0.94489  0.04151  Biso   1.000  H
  C285     1.0000 0.78240  0.93559  0.69650  Biso   1.000  C
  C286     1.0000 0.82901  0.91432  0.69138  Biso   1.000  C
  H393     1.0000 0.08549  0.69487  0.80110  Biso   1.000  H
  C287     1.0000 0.13663  0.62478  0.87519  Biso   1.000  C
  H394     1.0000 0.08555  0.69487  0.80110  Biso   1.000  H
  H395     1.0000 0.16623  0.55509  0.95849  Biso   1.000  H
  H396     1.0000 0.30912  0.88142  0.14769  Biso   1.000  H
  C288     1.0000 0.87700  0.96008  0.68888  Biso   1.000  C
  C289     1.0000 0.75000  0.88649  0.62960  Biso   1.000  C
  C290     1.0000 0.75505  0.90102  0.64028  Biso   1.000  C
  C291     1.0000 0.73342  0.00568  0.70288  Biso   1.000  C
  C292     1.0000 0.83702  0.00022  0.70402  Biso   1.000  C
  H397     1.0000 0.91527  0.91722  0.68681  Biso   1.000  H
  H398     1.0000 0.91533  0.91722  0.68681  Biso   1.000  H
  C293     1.0000 0.91712  0.88521  0.67041  Biso   1.000  C
  H399     1.0000 0.19088  0.61860  0.85231  Biso   1.000  H
  H400     1.0000 0.19095  0.61860  0.85231  Biso   1.000  H
  H401     1.0000 0.89490  0.99020  0.72990  Biso   1.000  H
  H402     1.0000 0.88182  0.98848  0.64491  Biso   1.000  H
  H403     1.0000 0.89151  0.01102  0.73088  Biso   1.000  H
  H404     1.0000 0.68698  0.87680  0.63249  Biso   1.000  H
  H405     1.0000 0.76152  0.91249  0.58520  Biso   1.000  H
  H406     1.0000 0.78247  0.84023  0.63042  Biso   1.000  H
  H407     1.0000 0.68705  0.87680  0.63249  Biso   1.000  H
  H408     1.0000 0.78254  0.84023  0.63042  Biso   1.000  H
  H409     1.0000 0.77101  0.91711  0.59272  Biso   1.000  H
  H410     1.0000 0.74150  0.84858  0.63908  Biso   1.000  H
  H411     1.0000 0.70311  0.92791  0.65532  Biso   1.000  H
  H412     1.0000 0.67111  0.99538  0.71029  Biso   1.000  H
  H413     1.0000 0.75782  0.03351  0.74352  Biso   1.000  H
  H414     1.0000 0.73918  0.03413  0.65908  Biso   1.000  H
  H415     1.0000 0.73925  0.03413  0.65908  Biso   1.000  H
  H416     1.0000 0.78654  0.01709  0.73088  Biso   1.000  H
  H417     1.0000 0.83705  0.02522  0.65782  Biso   1.000  H
  H418     1.0000 0.96040  0.89328  0.70941  Biso   1.000  H
  H419     1.0000 0.91231  0.83282  0.66060  Biso   1.000  H
  H420     1.0000 0.93615  0.91048  0.62748  Biso   1.000  H
  C294     1.0000 0.62300  0.53989  0.31112  Biso   1.000  C
  C295     1.0000 0.71760  0.56438  0.30350  Biso   1.000  C
  H421     1.0000 0.60510  0.50983  0.27010  Biso   1.000  H
  H422     1.0000 0.58473  0.58281  0.31319  Biso   1.000  H
  H423     1.0000 0.61818  0.51150  0.35509  Biso   1.000  H
  H424     1.0000 0.61825  0.51150  0.35509  Biso   1.000  H
  C296     1.0000 0.67099  0.58570  0.30862  Biso   1.000  C
  C297     1.0000 0.58288  0.61482  0.32959  Biso   1.000  C
  C298     1.0000 0.66298  0.49981  0.29598  Biso   1.000  C
  H425     1.0000 0.60849  0.48901  0.26912  Biso   1.000  H
  C299     1.0000 0.75000  0.61348  0.37040  Biso   1.000  C
  C300     1.0000 0.71037  0.61610  0.23431  Biso   1.000  C
  C301     1.0000 0.76658  0.49429  0.29712  Biso   1.000  C
  C302     1.0000 0.71044  0.61610  0.23431  Biso   1.000  C
  C303     1.0000 0.76665  0.49429  0.29712  Biso   1.000  C
  C304     1.0000 0.74502  0.59901  0.35972  Biso   1.000  C
  H426     1.0000 0.53960  0.60669  0.29059  Biso   1.000  H
  H427     1.0000 0.58769  0.66720  0.33940  Biso   1.000  H
  H428     1.0000 0.56392  0.58949  0.37252  Biso   1.000  H
  H429     1.0000 0.66301  0.47481  0.34218  Biso   1.000  H
  H430     1.0000 0.71352  0.48288  0.26912  Biso   1.000  H
  H431     1.0000 0.81302  0.62323  0.36751  Biso   1.000  H
  H432     1.0000 0.71753  0.65980  0.36958  Biso   1.000  H
  H433     1.0000 0.73848  0.58749  0.41480  Biso   1.000  H
  H434     1.0000 0.73855  0.58749  0.41480  Biso   1.000  H
  H435     1.0000 0.72899  0.58292  0.40728  Biso   1.000  H
  H436     1.0000 0.75850  0.65139  0.36092  Biso   1.000  H
  H437     1.0000 0.79689  0.57212  0.34468  Biso   1.000  H
  N37      1.0000 0.71053  0.57529  0.17400  Biso   1.000  N
  N38      1.0000 0.72138  0.68981  0.23780  Biso   1.000  N
  N39      1.0000 0.72145  0.68981  0.23780  Biso   1.000  N
  H438     1.0000 0.82889  0.50459  0.28971  Biso   1.000  H
  H439     1.0000 0.76082  0.46590  0.34092  Biso   1.000  H
  H440     1.0000 0.74218  0.46651  0.25648  Biso   1.000  H
  H441     1.0000 0.74225  0.46651  0.25648  Biso   1.000  H
  C305     1.0000 0.72098  0.61471  0.11408  Biso   1.000  C
  C306     1.0000 0.72105  0.61471  0.11408  Biso   1.000  C
  C307     1.0000 0.73679  0.72043  0.17400  Biso   1.000  C
  O34      1.0000 0.71601  0.57490  0.05132  Biso   1.000  O
  N40      1.0000 0.73647  0.68686  0.10988  Biso   1.000  N
  N41      1.0000 0.73654  0.68686  0.10988  Biso   1.000  N
  O35      1.0000 0.75429  0.79369  0.17667  Biso   1.000  O
  O36      1.0000 0.75436  0.79369  0.17667  Biso   1.000  O
  C308     1.0000 0.68048  0.61354  0.99009  Biso   1.000  C
  C309     1.0000 0.68054  0.61354  0.99009  Biso   1.000  C
  C310     1.0000 0.80591  0.82230  0.12018  Biso   1.000  C
  C311     1.0000 0.73649  0.64032  0.93790  Biso   1.000  C
  C312     1.0000 0.58832  0.61927  0.98273  Biso   1.000  C
  C313     1.0000 0.76351  0.85971  0.06210  Biso   1.000  C
  C314     1.0000 0.89701  0.81562  0.12819  Biso   1.000  C
  O37      1.0000 0.82533  0.62300  0.93740  Biso   1.000  O
  C315     1.0000 0.69409  0.67773  0.87982  Biso   1.000  C
  H442     1.0000 0.55291  0.59951  0.01879  Biso   1.000  H
  C316     1.0000 0.54720  0.65351  0.92308  Biso   1.000  C
  C317     1.0000 0.81952  0.88643  0.00991  Biso   1.000  C
  O38      1.0000 0.67467  0.87702  0.06260  Biso   1.000  O
  O39      1.0000 0.67474  0.87702  0.06260  Biso   1.000  O
  C318     1.0000 0.95280  0.84652  0.07692  Biso   1.000  C
  H443     1.0000 0.92192  0.79018  0.16812  Biso   1.000  H
  C319     1.0000 0.88778  0.66347  0.97401  Biso   1.000  C
  C320     1.0000 0.88785  0.66347  0.97401  Biso   1.000  C
  C321     1.0000 0.60299  0.68441  0.87181  Biso   1.000  C
  O40      1.0000 0.74571  0.70634  0.82333  Biso   1.000  O
  C322     1.0000 0.60306  0.68441  0.87187  Biso   1.000  C
  C323     1.0000 0.44451  0.65518  0.91240  Biso   1.000  C
  O41      1.0000 0.78399  0.92507  0.94868  Biso   1.000  O
  O42      1.0000 0.78405  0.92507  0.94868  Biso   1.000  O
  C324     1.0000 0.91168  0.88070  0.01727  Biso   1.000  C
  C325     1.0000 0.91175  0.88070  0.01727  Biso   1.000  C
  C326     1.0000 0.61222  0.83650  0.02599  Biso   1.000  C
  C327     1.0000 0.05549  0.84479  0.08760  Biso   1.000  C
  H444     1.0000 0.89022  0.64961  0.02511  Biso   1.000  H
  H445     1.0000 0.87368  0.71608  0.97042  Biso   1.000  H
  C328     1.0000 0.97713  0.64761  0.93980  Biso   1.000  C
  H446     1.0000 0.87374  0.71608  0.97042  Biso   1.000  H
  H447     1.0000 0.57808  0.70979  0.83188  Biso   1.000  H
  H448     1.0000 0.57814  0.70979  0.83188  Biso   1.000  H
  C329     1.0000 0.76321  0.77960  0.82600  Biso   1.000  C
  C330     1.0000 0.40840  0.71118  0.96519  Biso   1.000  C
  C331     1.0000 0.40563  0.57919  0.92640  Biso   1.000  C
  C332     1.0000 0.41451  0.67862  0.83460  Biso   1.000  C
  C333     1.0000 0.39597  0.63302  0.97919  Biso   1.000  C
  C334     1.0000 0.42197  0.59428  0.85721  Biso   1.000  C
  C335     1.0000 0.41361  0.72861  0.87732  Biso   1.000  C
  C336     1.0000 0.77902  0.88532  0.88592  Biso   1.000  C
  H449     1.0000 0.94709  0.90052  0.98121  Biso   1.000  H
  H450     1.0000 0.62632  0.78389  0.02958  Biso   1.000  H
  H451     1.0000 0.60978  0.85041  0.97489  Biso   1.000  H
  H452     1.0000 0.60985  0.85041  0.97489  Biso   1.000  H
  C337     1.0000 0.52287  0.85242  0.06020  Biso   1.000  C
  C338     1.0000 0.52294  0.85242  0.06020  Biso   1.000  C
  C339     1.0000 0.09160  0.78879  0.03481  Biso   1.000  C
  C340     1.0000 0.09437  0.92078  0.07360  Biso   1.000  C
  C341     1.0000 0.08549  0.82141  0.16540  Biso   1.000  C
  C342     1.0000 0.09444  0.92078  0.07360  Biso   1.000  C
  C343     1.0000 0.08555  0.82141  0.16540  Biso   1.000  C
  C344     1.0000 0.10403  0.86700  0.02081  Biso   1.000  C
  C345     1.0000 0.07803  0.90570  0.14279  Biso   1.000  C
  C346     1.0000 0.08639  0.77142  0.12268  Biso   1.000  C
  C347     1.0000 0.99602  0.68101  0.87742  Biso   1.000  C
  C348     1.0000 0.04022  0.59840  0.97200  Biso   1.000  C
  N42      1.0000 0.76353  0.81312  0.89012  Biso   1.000  N
  N43      1.0000 0.77862  0.81022  0.76220  Biso   1.000  N
  N44      1.0000 0.77862  0.81022  0.76226  Biso   1.000  N
  H453     1.0000 0.41363  0.69159  0.01378  Biso   1.000  H
  H454     1.0000 0.34641  0.72109  0.95299  Biso   1.000  H
  H455     1.0000 0.44221  0.75661  0.96252  Biso   1.000  H
  H456     1.0000 0.40153  0.67121  0.01520  Biso   1.000  H
  H457     1.0000 0.45008  0.54868  0.95070  Biso   1.000  H
  H458     1.0000 0.38742  0.55670  0.88091  Biso   1.000  H
  H459     1.0000 0.35441  0.58409  0.95658  Biso   1.000  H
  H460     1.0000 0.45015  0.54868  0.95070  Biso   1.000  H
  H461     1.0000 0.44151  0.54712  0.87639  Biso   1.000  H
  H462     1.0000 0.41871  0.63670  0.80241  Biso   1.000  H
  H463     1.0000 0.45270  0.71792  0.81821  Biso   1.000  H
  H464     1.0000 0.35347  0.69587  0.83471  Biso   1.000  H
  H465     1.0000 0.35354  0.69587  0.83471  Biso   1.000  H
  H466     1.0000 0.44488  0.73629  0.83302  Biso   1.000  H
  H467     1.0000 0.42177  0.58732  0.99847  Biso   1.000  H
  H468     1.0000 0.33358  0.62451  0.96682  Biso   1.000  H
  H469     1.0000 0.45202  0.60430  0.81281  Biso   1.000  H
  H470     1.0000 0.35820  0.59322  0.84768  Biso   1.000  H
  H471     1.0000 0.42650  0.76903  0.91027  Biso   1.000  H
  H472     1.0000 0.35007  0.72649  0.86669  Biso   1.000  H
  N45      1.0000 0.78947  0.92468  0.82600  Biso   1.000  N
  N46      1.0000 0.78954  0.92468  0.82600  Biso   1.000  N
  C349     1.0000 0.50398  0.81902  0.12258  Biso   1.000  C
  C350     1.0000 0.45978  0.90158  0.02800  Biso   1.000  C
  C351     1.0000 0.50405  0.81902  0.12258  Biso   1.000  C
  C352     1.0000 0.45984  0.90158  0.02800  Biso   1.000  C
  H473     1.0000 0.08637  0.80838  0.98622  Biso   1.000  H
  H474     1.0000 0.08644  0.80838  0.98622  Biso   1.000  H
  H475     1.0000 0.09854  0.82881  0.98480  Biso   1.000  H
  H476     1.0000 0.15359  0.77888  0.04701  Biso   1.000  H
  H477     1.0000 0.05779  0.74342  0.03748  Biso   1.000  H
  H478     1.0000 0.04992  0.95129  0.04930  Biso   1.000  H
  H479     1.0000 0.11258  0.94327  0.11909  Biso   1.000  H
  H480     1.0000 0.14559  0.91588  0.04342  Biso   1.000  H
  H481     1.0000 0.11265  0.94327  0.11909  Biso   1.000  H
  H482     1.0000 0.05856  0.95290  0.12361  Biso   1.000  H
  H483     1.0000 0.08129  0.86327  0.19759  Biso   1.000  H
  H484     1.0000 0.04730  0.78211  0.18179  Biso   1.000  H
  H485     1.0000 0.14653  0.80410  0.16529  Biso   1.000  H
  H486     1.0000 0.08135  0.86327  0.19759  Biso   1.000  H
  H487     1.0000 0.05512  0.76368  0.16698  Biso   1.000  H
  H488     1.0000 0.07823  0.91271  0.00153  Biso   1.000  H
  H489     1.0000 0.16642  0.87552  0.03318  Biso   1.000  H
  H490     1.0000 0.04804  0.89567  0.18719  Biso   1.000  H
  H491     1.0000 0.14180  0.90681  0.15232  Biso   1.000  H
  H492     1.0000 0.07350  0.73100  0.08973  Biso   1.000  H
  H493     1.0000 0.14993  0.77348  0.13331  Biso   1.000  H
  H494     1.0000 0.95348  0.71258  0.85580  Biso   1.000  H
  H495     1.0000 0.95354  0.71258  0.85580  Biso   1.000  H
  C353     1.0000 0.07420  0.67071  0.84457  Biso   1.000  C
  C354     1.0000 0.07420  0.67071  0.84463  Biso   1.000  C
  C355     1.0000 0.12288  0.58698  0.93849  Biso   1.000  C
  C356     1.0000 0.12295  0.58698  0.93849  Biso   1.000  C
  H496     1.0000 0.02751  0.57368  0.01493  Biso   1.000  H
  C357     1.0000 0.78963  0.88387  0.76569  Biso   1.000  C
  H497     1.0000 0.54652  0.78740  0.14420  Biso   1.000  H
  C358     1.0000 0.42580  0.82932  0.15543  Biso   1.000  C
  C359     1.0000 0.37712  0.91299  0.06151  Biso   1.000  C
  H498     1.0000 0.47249  0.92629  0.98507  Biso   1.000  H
  H499     1.0000 0.47250  0.92629  0.98513  Biso   1.000  H
  H500     1.0000 0.08549  0.69487  0.80110  Biso   1.000  H
  C360     1.0000 0.13663  0.62478  0.87519  Biso   1.000  C
  H501     1.0000 0.08555  0.69487  0.80110  Biso   1.000  H
  H502     1.0000 0.16623  0.55509  0.95849  Biso   1.000  H
  C361     1.0000 0.78240  0.93559  0.69650  Biso   1.000  C
  C362     1.0000 0.82901  0.91432  0.69138  Biso   1.000  C
  H503     1.0000 0.41451  0.80510  0.19890  Biso   1.000  H
  C363     1.0000 0.36337  0.87519  0.12481  Biso   1.000  C
  C364     1.0000 0.36344  0.87519  0.12481  Biso   1.000  C
  H504     1.0000 0.33377  0.94489  0.04151  Biso   1.000  H
  H505     1.0000 0.33384  0.94489  0.04151  Biso   1.000  H
  H506     1.0000 0.19088  0.61860  0.85231  Biso   1.000  H
  H507     1.0000 0.19095  0.61860  0.85231  Biso   1.000  H
  C365     1.0000 0.87700  0.96008  0.68888  Biso   1.000  C
  C366     1.0000 0.75000  0.88649  0.62960  Biso   1.000  C
  C367     1.0000 0.75505  0.90102  0.64028  Biso   1.000  C
  C368     1.0000 0.73342  0.00568  0.70288  Biso   1.000  C
  C369     1.0000 0.83702  0.00022  0.70402  Biso   1.000  C
  H508     1.0000 0.91527  0.91722  0.68681  Biso   1.000  H
  H509     1.0000 0.91533  0.91722  0.68681  Biso   1.000  H
  C370     1.0000 0.91712  0.88521  0.67041  Biso   1.000  C
  H510     1.0000 0.30912  0.88142  0.14769  Biso   1.000  H
  H511     1.0000 0.89490  0.99020  0.72990  Biso   1.000  H
  H512     1.0000 0.88182  0.98848  0.64491  Biso   1.000  H
  H513     1.0000 0.89151  0.01102  0.73088  Biso   1.000  H
  H514     1.0000 0.68698  0.87680  0.63249  Biso   1.000  H
  H515     1.0000 0.76152  0.91249  0.58520  Biso   1.000  H
  H516     1.0000 0.78247  0.84023  0.63042  Biso   1.000  H
  H517     1.0000 0.68705  0.87680  0.63249  Biso   1.000  H
  H518     1.0000 0.78254  0.84023  0.63042  Biso   1.000  H
  H519     1.0000 0.77101  0.91711  0.59272  Biso   1.000  H
  H520     1.0000 0.74150  0.84858  0.63908  Biso   1.000  H
  H521     1.0000 0.70311  0.92791  0.65532  Biso   1.000  H
  H522     1.0000 0.67111  0.99538  0.71029  Biso   1.000  H
  H523     1.0000 0.75782  0.03351  0.74352  Biso   1.000  H
  H524     1.0000 0.73918  0.03413  0.65908  Biso   1.000  H
  H525     1.0000 0.73925  0.03413  0.65908  Biso   1.000  H
  H526     1.0000 0.78654  0.01709  0.73088  Biso   1.000  H
  H527     1.0000 0.83705  0.02522  0.65782  Biso   1.000  H
  H528     1.0000 0.96040  0.89328  0.70941  Biso   1.000  H
  H529     1.0000 0.91231  0.83282  0.66060  Biso   1.000  H
  H530     1.0000 0.93615  0.91048  0.62748  Biso   1.000  H
  C371     1.0000 0.42202  0.40572  0.35721  Biso   1.000  C
  C372     1.0000 0.41450  0.32138  0.33460  Biso   1.000  C
  C373     1.0000 0.44450  0.34482  0.41240  Biso   1.000  C
  H531     1.0000 0.41870  0.36330  0.30241  Biso   1.000  H
  C374     1.0000 0.40561  0.42081  0.42640  Biso   1.000  C
  H532     1.0000 0.38741  0.44330  0.38091  Biso   1.000  H
  H533     1.0000 0.44150  0.45288  0.37639  Biso   1.000  H
  H534     1.0000 0.45201  0.39570  0.31281  Biso   1.000  H
  H535     1.0000 0.35819  0.40678  0.34768  Biso   1.000  H
  H536     1.0000 0.45269  0.28208  0.31821  Biso   1.000  H
  H537     1.0000 0.35353  0.30413  0.33471  Biso   1.000  H
  C375     1.0000 0.41360  0.27139  0.37731  Biso   1.000  C
  H538     1.0000 0.44493  0.26371  0.33302  Biso   1.000  H
  C376     1.0000 0.54719  0.34649  0.42308  Biso   1.000  C
  C377     1.0000 0.40839  0.28882  0.46519  Biso   1.000  C
  C378     1.0000 0.39603  0.36698  0.47919  Biso   1.000  C
  H539     1.0000 0.45007  0.45132  0.45070  Biso   1.000  H
  H540     1.0000 0.35439  0.41591  0.45658  Biso   1.000  H
  H541     1.0000 0.42648  0.23097  0.41027  Biso   1.000  H
  H542     1.0000 0.35012  0.27351  0.36669  Biso   1.000  H
  C379     1.0000 0.58831  0.38073  0.48273  Biso   1.000  C
  C380     1.0000 0.60298  0.31559  0.37187  Biso   1.000  C
  H543     1.0000 0.41362  0.30841  0.51378  Biso   1.000  H
  H544     1.0000 0.34640  0.27891  0.45298  Biso   1.000  H
  H545     1.0000 0.44220  0.24339  0.46252  Biso   1.000  H
  H546     1.0000 0.40151  0.32879  0.51520  Biso   1.000  H
  H547     1.0000 0.42182  0.41268  0.49847  Biso   1.000  H
  H548     1.0000 0.33363  0.37549  0.46682  Biso   1.000  H
  C381     1.0000 0.68053  0.38646  0.49008  Biso   1.000  C
  H549     1.0000 0.55290  0.40049  0.51879  Biso   1.000  H
  C382     1.0000 0.69408  0.32227  0.37982  Biso   1.000  C
  H550     1.0000 0.57813  0.29021  0.33188  Biso   1.000  H
  O43      1.0000 0.71600  0.42510  0.55132  Biso   1.000  O
  C383     1.0000 0.73648  0.35968  0.43789  Biso   1.000  C
  O44      1.0000 0.74570  0.29366  0.32333  Biso   1.000  O
  C384     1.0000 0.72097  0.38529  0.61408  Biso   1.000  C
  O45      1.0000 0.82531  0.37700  0.43740  Biso   1.000  O
  C385     1.0000 0.76320  0.22040  0.32600  Biso   1.000  C
  N47      1.0000 0.73653  0.31314  0.60988  Biso   1.000  N
  N48      1.0000 0.71052  0.42471  0.67400  Biso   1.000  N
  C386     1.0000 0.88777  0.33653  0.47401  Biso   1.000  C
  N49      1.0000 0.76352  0.18688  0.39012  Biso   1.000  N
  N50      1.0000 0.77861  0.18978  0.26226  Biso   1.000  N
  C387     1.0000 0.73678  0.27957  0.67400  Biso   1.000  C
  C388     1.0000 0.71043  0.38390  0.73431  Biso   1.000  C
  H551     1.0000 0.89021  0.35039  0.52511  Biso   1.000  H
  H552     1.0000 0.87373  0.28392  0.47042  Biso   1.000  H
  C389     1.0000 0.97712  0.35239  0.43980  Biso   1.000  C
  C390     1.0000 0.77901  0.11468  0.38592  Biso   1.000  C
  C391     1.0000 0.78962  0.11613  0.26569  Biso   1.000  C
  N51      1.0000 0.72137  0.31019  0.73780  Biso   1.000  N
  O46      1.0000 0.75428  0.20631  0.67667  Biso   1.000  O
  C392     1.0000 0.71759  0.43562  0.80350  Biso   1.000  C
  C393     1.0000 0.67098  0.41430  0.80862  Biso   1.000  C
  C394     1.0000 0.99600  0.31899  0.37742  Biso   1.000  C
  C395     1.0000 0.04021  0.40160  0.47200  Biso   1.000  C
  N52      1.0000 0.78952  0.07532  0.32600  Biso   1.000  N
  O47      1.0000 0.78398  0.07493  0.44868  Biso   1.000  O
  C396     1.0000 0.78239  0.06441  0.19650  Biso   1.000  C
  C397     1.0000 0.82900  0.08568  0.19138  Biso   1.000  C
  C398     1.0000 0.80589  0.17770  0.62018  Biso   1.000  C
  C399     1.0000 0.62299  0.46011  0.81112  Biso   1.000  C
  C400     1.0000 0.76657  0.50571  0.79712  Biso   1.000  C
  C401     1.0000 0.74999  0.38652  0.87039  Biso   1.000  C
  C402     1.0000 0.66297  0.50019  0.79598  Biso   1.000  C
  C403     1.0000 0.74501  0.40099  0.85972  Biso   1.000  C
  H553     1.0000 0.58472  0.41719  0.81319  Biso   1.000  H
  C404     1.0000 0.58287  0.38518  0.82959  Biso   1.000  C
  H554     1.0000 0.95353  0.28742  0.35580  Biso   1.000  H
  C405     1.0000 0.07419  0.32929  0.34457  Biso   1.000  C
  C406     1.0000 0.12287  0.41302  0.43849  Biso   1.000  C
  H555     1.0000 0.02749  0.42632  0.51493  Biso   1.000  H
  C407     1.0000 0.81951  0.11357  0.50991  Biso   1.000  C
  C408     1.0000 0.87699  0.03992  0.18888  Biso   1.000  C
  C409     1.0000 0.74999  0.11351  0.12960  Biso   1.000  C
  C410     1.0000 0.75497  0.09898  0.14028  Biso   1.000  C
  C411     1.0000 0.73340  0.99432  0.20288  Biso   1.000  C
  C412     1.0000 0.83701  0.99978  0.20402  Biso   1.000  C
  H556     1.0000 0.91532  0.08278  0.18681  Biso   1.000  H
  C413     1.0000 0.91711  0.11479  0.17041  Biso   1.000  C
  C414     1.0000 0.76350  0.14029  0.56210  Biso   1.000  C
  C415     1.0000 0.89700  0.18438  0.62819  Biso   1.000  C
  H557     1.0000 0.60509  0.49017  0.77010  Biso   1.000  H
  H558     1.0000 0.61817  0.48850  0.85509  Biso   1.000  H
  H559     1.0000 0.60848  0.51099  0.76912  Biso   1.000  H
  H560     1.0000 0.82888  0.49541  0.78971  Biso   1.000  H
  H561     1.0000 0.74217  0.53349  0.75648  Biso   1.000  H
  H562     1.0000 0.76081  0.53410  0.84092  Biso   1.000  H
  H563     1.0000 0.71351  0.51712  0.76912  Biso   1.000  H
  H564     1.0000 0.81301  0.37677  0.86751  Biso   1.000  H
  H565     1.0000 0.73847  0.41251  0.91479  Biso   1.000  H
  H566     1.0000 0.71752  0.34020  0.86958  Biso   1.000  H
  H567     1.0000 0.72898  0.41708  0.90728  Biso   1.000  H
  H568     1.0000 0.75849  0.34861  0.86092  Biso   1.000  H
  H569     1.0000 0.79688  0.42788  0.84468  Biso   1.000  H
  H570     1.0000 0.66300  0.52519  0.84218  Biso   1.000  H
  H571     1.0000 0.53959  0.39331  0.79058  Biso   1.000  H
  H572     1.0000 0.58768  0.33280  0.83940  Biso   1.000  H
  H573     1.0000 0.56390  0.41051  0.87252  Biso   1.000  H
  H574     1.0000 0.08548  0.30513  0.30110  Biso   1.000  H
  C416     1.0000 0.13662  0.37522  0.37519  Biso   1.000  C
  H575     1.0000 0.16622  0.44491  0.45849  Biso   1.000  H
  C417     1.0000 0.91167  0.11930  0.51727  Biso   1.000  C
  H576     1.0000 0.89489  0.00980  0.22990  Biso   1.000  H
  H577     1.0000 0.88181  0.01152  0.14491  Biso   1.000  H
  H578     1.0000 0.89150  0.98898  0.23088  Biso   1.000  H
  H579     1.0000 0.68697  0.12320  0.13249  Biso   1.000  H
  H580     1.0000 0.76151  0.08751  0.08520  Biso   1.000  H
  H581     1.0000 0.78253  0.15977  0.13042  Biso   1.000  H
  H582     1.0000 0.77100  0.08289  0.09272  Biso   1.000  H
  H583     1.0000 0.74149  0.15142  0.13908  Biso   1.000  H
  H584     1.0000 0.70310  0.07209  0.15532  Biso   1.000  H
  H585     1.0000 0.67110  0.00462  0.21029  Biso   1.000  H
  H586     1.0000 0.75780  0.96649  0.24352  Biso   1.000  H
  H587     1.0000 0.73917  0.96587  0.15908  Biso   1.000  H
  H588     1.0000 0.78653  0.98291  0.23088  Biso   1.000  H
  H589     1.0000 0.83697  0.97478  0.15782  Biso   1.000  H
  H590     1.0000 0.96038  0.10672  0.20941  Biso   1.000  H
  H591     1.0000 0.91230  0.16718  0.16060  Biso   1.000  H
  H592     1.0000 0.93607  0.08952  0.12748  Biso   1.000  H
  O48      1.0000 0.67473  0.12298  0.56259  Biso   1.000  O
  C418     1.0000 0.95278  0.15348  0.57692  Biso   1.000  C
  H593     1.0000 0.92191  0.20982  0.66812  Biso   1.000  H
  H594     1.0000 0.19087  0.38140  0.35231  Biso   1.000  H
  H595     1.0000 0.94708  0.09948  0.48120  Biso   1.000  H
  C419     1.0000 0.61221  0.16350  0.52598  Biso   1.000  C
  C420     1.0000 0.05548  0.15521  0.58760  Biso   1.000  C
  H596     1.0000 0.60977  0.14959  0.47488  Biso   1.000  H
  H597     1.0000 0.62631  0.21611  0.52958  Biso   1.000  H
  C421     1.0000 0.52293  0.14758  0.56020  Biso   1.000  C
  C422     1.0000 0.09159  0.21121  0.53481  Biso   1.000  C
  C423     1.0000 0.09443  0.07922  0.57360  Biso   1.000  C
  C424     1.0000 0.08547  0.17859  0.66539  Biso   1.000  C
  C425     1.0000 0.10401  0.13300  0.52081  Biso   1.000  C
  C426     1.0000 0.07802  0.09430  0.64279  Biso   1.000  C
  C427     1.0000 0.08638  0.22858  0.62268  Biso   1.000  C
  C428     1.0000 0.50397  0.18098  0.62257  Biso   1.000  C
  C429     1.0000 0.45983  0.09842  0.52800  Biso   1.000  C
  H598     1.0000 0.08643  0.19162  0.48622  Biso   1.000  H
  H599     1.0000 0.15358  0.22112  0.54701  Biso   1.000  H
  H600     1.0000 0.05778  0.25658  0.53748  Biso   1.000  H
  H601     1.0000 0.09853  0.17119  0.48480  Biso   1.000  H
  H602     1.0000 0.04991  0.04871  0.54930  Biso   1.000  H
  H603     1.0000 0.11257  0.05673  0.61909  Biso   1.000  H
  H604     1.0000 0.14558  0.08412  0.54342  Biso   1.000  H
  H605     1.0000 0.05848  0.04710  0.62361  Biso   1.000  H
  H606     1.0000 0.08127  0.13673  0.69759  Biso   1.000  H
  H607     1.0000 0.04729  0.21789  0.68179  Biso   1.000  H
  H608     1.0000 0.14652  0.19590  0.66529  Biso   1.000  H
  H609     1.0000 0.05511  0.23632  0.66697  Biso   1.000  H
  H610     1.0000 0.07822  0.08729  0.50152  Biso   1.000  H
  H611     1.0000 0.16641  0.12448  0.53318  Biso   1.000  H
  H612     1.0000 0.04803  0.10433  0.68719  Biso   1.000  H
  H613     1.0000 0.14179  0.09319  0.65232  Biso   1.000  H
  H614     1.0000 0.07349  0.26900  0.58972  Biso   1.000  H
  H615     1.0000 0.14992  0.22652  0.63331  Biso   1.000  H
  H616     1.0000 0.54651  0.21260  0.64420  Biso   1.000  H
  C430     1.0000 0.42579  0.17068  0.65542  Biso   1.000  C
  C431     1.0000 0.37711  0.08701  0.56150  Biso   1.000  C
  H617     1.0000 0.47248  0.07371  0.48513  Biso   1.000  H
  H618     1.0000 0.41450  0.19490  0.69890  Biso   1.000  H
  C432     1.0000 0.36343  0.12481  0.62481  Biso   1.000  C
  H619     1.0000 0.33382  0.05511  0.54151  Biso   1.000  H
  H620     1.0000 0.30910  0.11858  0.64769  Biso   1.000  H
