data_image0
_cell_length_a       27.338
_cell_length_b       26.705
_cell_length_c       23.373
_cell_angle_alpha    90
_cell_angle_beta     96.75
_cell_angle_gamma    90

_symmetry_space_group_name_H-M    "P 1"
_symmetry_int_tables_number       1

loop_
  _symmetry_equiv_pos_as_xyz
  'x, y, z'

loop_
  _atom_site_label
  _atom_site_occupancy
  _atom_site_fract_x
  _atom_site_fract_y
  _atom_site_fract_z
  _atom_site_thermal_displace_type
  _atom_site_B_iso_or_equiv
  _atom_site_type_symbol
  O1       1.0000 0.45981  0.43760  0.50898  Biso   1.000  O
  C1       1.0000 0.42530  0.44471  0.45931  Biso   1.000  C
  C2       1.0000 0.50390  0.41322  0.50002  Biso   1.000  C
  C3       1.0000 0.38279  0.41921  0.45560  Biso   1.000  C
  C4       1.0000 0.43641  0.47999  0.41920  Biso   1.000  C
  C5       1.0000 0.50529  0.36068  0.51639  Biso   1.000  C
  C6       1.0000 0.54262  0.43760  0.48201  Biso   1.000  C
  C7       1.0000 0.37239  0.38072  0.50209  Biso   1.000  C
  C8       1.0000 0.34729  0.42891  0.40808  Biso   1.000  C
  C9       1.0000 0.40039  0.49028  0.37379  Biso   1.000  C
  H1       1.0000 0.46749  0.49639  0.42273  Biso   1.000  H
  O2       1.0000 0.46650  0.34039  0.53949  Biso   1.000  O
  C10      1.0000 0.54622  0.33350  0.51092  Biso   1.000  C
  C11      1.0000 0.58703  0.41060  0.47762  Biso   1.000  C
  H2       1.0000 0.54018  0.47216  0.47232  Biso   1.000  H
  C12      1.0000 0.38782  0.32840  0.48529  Biso   1.000  C
  H3       1.0000 0.39428  0.38993  0.53789  Biso   1.000  H
  C13      1.0000 0.31980  0.38169  0.51790  Biso   1.000  C
  C14      1.0000 0.35561  0.46531  0.36681  Biso   1.000  C
  H4       1.0000 0.31735  0.41052  0.40395  Biso   1.000  H
  O3       1.0000 0.40809  0.52941  0.33579  Biso   1.000  O
  C15      1.0000 0.43440  0.30960  0.50368  Biso   1.000  C
  C16      1.0000 0.58940  0.35720  0.49029  Biso   1.000  C
  H5       1.0000 0.54706  0.29886  0.52040  Biso   1.000  H
  N1       1.0000 0.62661  0.43209  0.46271  Biso   1.000  N
  C17      1.0000 0.35601  0.29721  0.45091  Biso   1.000  C
  H6       1.0000 0.29724  0.36836  0.48516  Biso   1.000  H
  H7       1.0000 0.31022  0.41674  0.52445  Biso   1.000  H
  C18      1.0000 0.31411  0.35068  0.57188  Biso   1.000  C
  C19      1.0000 0.31790  0.47661  0.31511  Biso   1.000  C
  C20      1.0000 0.44471  0.52391  0.29900  Biso   1.000  C
  C21      1.0000 0.44980  0.26160  0.49059  Biso   1.000  C
  N2       1.0000 0.63142  0.33338  0.48481  Biso   1.000  N
  Te1      1.0000 0.68084  0.38083  0.46189  Biso   1.000  Te
  C22      1.0000 0.36900  0.24759  0.43669  Biso   1.000  C
  H8       1.0000 0.32444  0.30949  0.43626  Biso   1.000  H
  H9       1.0000 0.33507  0.32046  0.57115  Biso   1.000  H
  H10      1.0000 0.32730  0.37060  0.60601  Biso   1.000  H
  C23      1.0000 0.26321  0.33398  0.58041  Biso   1.000  C
  C24      1.0000 0.32531  0.44082  0.26729  Biso   1.000  C
  H11      1.0000 0.32475  0.51103  0.30141  Biso   1.000  H
  C25      1.0000 0.26399  0.47579  0.32980  Biso   1.000  C
  C26      1.0000 0.42780  0.50728  0.24032  Biso   1.000  C
  C27      1.0000 0.49079  0.53559  0.31528  Biso   1.000  C
  C28      1.0000 0.41519  0.23112  0.45810  Biso   1.000  C
  H12      1.0000 0.48218  0.25010  0.50304  Biso   1.000  H
  C29      1.0000 0.33240  0.21430  0.40050  Biso   1.000  C
  C30      1.0000 0.22740  0.37618  0.58662  Biso   1.000  C
  H13      1.0000 0.26511  0.31283  0.61540  Biso   1.000  H
  H14      1.0000 0.25018  0.31298  0.54724  Biso   1.000  H
  C31      1.0000 0.30390  0.39330  0.26061  Biso   1.000  C
  C32      1.0000 0.35690  0.45299  0.22459  Biso   1.000  C
  C33      1.0000 0.25680  0.51638  0.37508  Biso   1.000  C
  H15      1.0000 0.24116  0.48208  0.29443  Biso   1.000  H
  H16      1.0000 0.25641  0.44250  0.34497  Biso   1.000  H
  O4       1.0000 0.37649  0.50152  0.22662  Biso   1.000  O
  C34      1.0000 0.45961  0.50279  0.20051  Biso   1.000  C
  H17      1.0000 0.50053  0.54731  0.35328  Biso   1.000  H
  C35      1.0000 0.52682  0.53039  0.27521  Biso   1.000  C
  O5       1.0000 0.42839  0.18079  0.44970  Biso   1.000  O
  C36      1.0000 0.33819  0.22359  0.33721  Biso   1.000  C
  H18      1.0000 0.34291  0.17896  0.40899  Biso   1.000  H
  C37      1.0000 0.27942  0.21891  0.41562  Biso   1.000  C
  H19      1.0000 0.22620  0.39831  0.55250  Biso   1.000  H
  H20      1.0000 0.23920  0.39629  0.62104  Biso   1.000  H
  C38      1.0000 0.17592  0.35679  0.59231  Biso   1.000  C
  C39      1.0000 0.30979  0.35948  0.21770  Biso   1.000  C
  H21      1.0000 0.28310  0.38352  0.28844  Biso   1.000  H
  C40      1.0000 0.36389  0.42161  0.18022  Biso   1.000  C
  H22      1.0000 0.26790  0.54915  0.36138  Biso   1.000  H
  H23      1.0000 0.27751  0.50822  0.41153  Biso   1.000  H
  C41      1.0000 0.20249  0.52039  0.38650  Biso   1.000  C
  C42      1.0000 0.50989  0.51391  0.21748  Biso   1.000  C
  H24      1.0000 0.44852  0.49245  0.16225  Biso   1.000  H
  N3       1.0000 0.57422  0.54069  0.28870  Biso   1.000  N
  C43      1.0000 0.46322  0.17090  0.41192  Biso   1.000  C
  C44      1.0000 0.31161  0.26010  0.30498  Biso   1.000  C
  C45      1.0000 0.37069  0.19468  0.31050  Biso   1.000  C
  H25      1.0000 0.26886  0.25433  0.41136  Biso   1.000  H
  H26      1.0000 0.25732  0.19880  0.38788  Biso   1.000  H
  C46      1.0000 0.27401  0.20150  0.47641  Biso   1.000  C
  H27      1.0000 0.16345  0.33908  0.55633  Biso   1.000  H
  H28      1.0000 0.17808  0.33211  0.62401  Biso   1.000  H
  C47      1.0000 0.13910  0.39659  0.60381  Biso   1.000  C
  C48      1.0000 0.28551  0.30859  0.21300  Biso   1.000  C
  C49      1.0000 0.34159  0.37499  0.17742  Biso   1.000  C
  H29      1.0000 0.38384  0.43160  0.15161  Biso   1.000  H
  C50      1.0000 0.19639  0.55540  0.43570  Biso   1.000  C
  H30      1.0000 0.18238  0.53267  0.35126  Biso   1.000  H
  H31      1.0000 0.19023  0.48680  0.39550  Biso   1.000  H
  N4       1.0000 0.54429  0.50751  0.18160  Biso   1.000  N
  Te2      1.0000 0.61019  0.52492  0.22110  Biso   1.000  Te
  C51      1.0000 0.44559  0.15720  0.35289  Biso   1.000  C
  C52      1.0000 0.51080  0.17060  0.43139  Biso   1.000  C
  C53      1.0000 0.31632  0.26890  0.24661  Biso   1.000  C
  H32      1.0000 0.28923  0.28010  0.32321  Biso   1.000  H
  C54      1.0000 0.37550  0.20191  0.25130  Biso   1.000  C
  O6       1.0000 0.39442  0.15432  0.33911  Biso   1.000  O
  H33      1.0000 0.28596  0.16656  0.48107  Biso   1.000  H
  H34      1.0000 0.29500  0.22258  0.50407  Biso   1.000  H
  C55      1.0000 0.22200  0.20378  0.49072  Biso   1.000  C
  H35      1.0000 0.15097  0.42943  0.59269  Biso   1.000  H
  H36      1.0000 0.13500  0.39682  0.64487  Biso   1.000  H
  H37      1.0000 0.10735  0.38940  0.58119  Biso   1.000  H
  H38      1.0000 0.28441  0.29882  0.17156  Biso   1.000  H
  C56      1.0000 0.23180  0.31080  0.22528  Biso   1.000  C
  O7       1.0000 0.34642  0.34338  0.13080  Biso   1.000  O
  H39      1.0000 0.21072  0.58824  0.42721  Biso   1.000  H
  H40      1.0000 0.21576  0.54207  0.47085  Biso   1.000  H
  C57      1.0000 0.14410  0.56379  0.44858  Biso   1.000  C
  C58      1.0000 0.47650  0.14200  0.31649  Biso   1.000  C
  H41      1.0000 0.52104  0.17948  0.47034  Biso   1.000  H
  C59      1.0000 0.54830  0.15660  0.39331  Biso   1.000  C
  C60      1.0000 0.34881  0.23868  0.22119  Biso   1.000  C
  H42      1.0000 0.39710  0.18131  0.23261  Biso   1.000  H
  H43      1.0000 0.20074  0.18292  0.46297  Biso   1.000  H
  H44      1.0000 0.21006  0.23872  0.48692  Biso   1.000  H
  C61      1.0000 0.21822  0.18528  0.55172  Biso   1.000  C
  H45      1.0000 0.23104  0.31470  0.26729  Biso   1.000  H
  H46      1.0000 0.21602  0.34080  0.20620  Biso   1.000  H
  C62      1.0000 0.20202  0.26542  0.20520  Biso   1.000  C
  C63      1.0000 0.39182  0.31852  0.13050  Biso   1.000  C
  H47      1.0000 0.12457  0.57806  0.41407  Biso   1.000  H
  H48      1.0000 0.14424  0.58850  0.48016  Biso   1.000  H
  C64      1.0000 0.11929  0.51530  0.46599  Biso   1.000  C
  C65      1.0000 0.52880  0.14188  0.33359  Biso   1.000  C
  H49      1.0000 0.46391  0.13102  0.27892  Biso   1.000  H
  N5       1.0000 0.59470  0.15769  0.40800  Biso   1.000  N
  O8       1.0000 0.35150  0.24471  0.16212  Biso   1.000  O
  H50      1.0000 0.24123  0.20543  0.57830  Biso   1.000  H
  H51      1.0000 0.18449  0.19289  0.56081  Biso   1.000  H
  C66      1.0000 0.22832  0.13039  0.56559  Biso   1.000  C
  H52      1.0000 0.21590  0.23569  0.22653  Biso   1.000  H
  H53      1.0000 0.20455  0.25991  0.16376  Biso   1.000  H
  C67      1.0000 0.14811  0.27100  0.21408  Biso   1.000  C
  H54      1.0000 0.22349  0.23651  0.21718  Biso   1.000  H
  H55      1.0000 0.19964  0.26650  0.16260  Biso   1.000  H
  C68      1.0000 0.15091  0.25022  0.21899  Biso   1.000  C
  C69      1.0000 0.39539  0.26662  0.14709  Biso   1.000  C
  C70      1.0000 0.43132  0.34308  0.11150  Biso   1.000  C
  H56      1.0000 0.11276  0.49343  0.43230  Biso   1.000  H
  H57      1.0000 0.08823  0.52346  0.48085  Biso   1.000  H
  H58      1.0000 0.14117  0.49807  0.49593  Biso   1.000  H
  N6       1.0000 0.56201  0.12960  0.29891  Biso   1.000  N
  Te3      1.0000 0.62923  0.13739  0.34027  Biso   1.000  Te
  H59      1.0000 0.26031  0.12046  0.55301  Biso   1.000  H
  H60      1.0000 0.23014  0.12496  0.60769  Biso   1.000  H
  C71      1.0000 0.18739  0.09890  0.53470  Biso   1.000  C
  H61      1.0000 0.26423  0.12485  0.57464  Biso   1.000  H
  H62      1.0000 0.21212  0.12046  0.59954  Biso   1.000  H
  C72      1.0000 0.20799  0.09908  0.51398  Biso   1.000  C
  H63      1.0000 0.14525  0.26841  0.25587  Biso   1.000  H
  H64      1.0000 0.13694  0.30496  0.20150  Biso   1.000  H
  C73      1.0000 0.11381  0.23292  0.18250  Biso   1.000  C
  C74      1.0000 0.11711  0.29099  0.19099  Biso   1.000  C
  H65      1.0000 0.14954  0.24890  0.26070  Biso   1.000  H
  H66      1.0000 0.14161  0.21704  0.20176  Biso   1.000  H
  C75      1.0000 0.43541  0.24040  0.14601  Biso   1.000  C
  C76      1.0000 0.47580  0.31661  0.11012  Biso   1.000  C
  H67      1.0000 0.42854  0.37716  0.09956  Biso   1.000  H
  H68      1.0000 0.19373  0.06347  0.54354  Biso   1.000  H
  H69      1.0000 0.15588  0.10871  0.54763  Biso   1.000  H
  H70      1.0000 0.18595  0.10421  0.49309  Biso   1.000  H
  H71      1.0000 0.21481  0.06358  0.52217  Biso   1.000  H
  H72      1.0000 0.17290  0.10459  0.50519  Biso   1.000  H
  H73      1.0000 0.22488  0.10897  0.48038  Biso   1.000  H
  C77      1.0000 0.05971  0.24179  0.18909  Biso   1.000  C
  H74      1.0000 0.12322  0.19906  0.19710  Biso   1.000  H
  H75      1.0000 0.11805  0.23381  0.14101  Biso   1.000  H
  H76      1.0000 0.12537  0.32279  0.21158  Biso   1.000  H
  H77      1.0000 0.12444  0.29564  0.15070  Biso   1.000  H
  C78      1.0000 0.06211  0.28201  0.19000  Biso   1.000  C
  C79      1.0000 0.48049  0.26388  0.12869  Biso   1.000  C
  H78      1.0000 0.43575  0.20603  0.15635  Biso   1.000  H
  N7       1.0000 0.51621  0.33780  0.09431  Biso   1.000  N
  C80      1.0000 0.03760  0.29171  0.16811  Biso   1.000  C
  H79      1.0000 0.04028  0.21479  0.16828  Biso   1.000  H
  H80      1.0000 0.05560  0.23838  0.23045  Biso   1.000  H
  H81      1.0000 0.05499  0.25014  0.16867  Biso   1.000  H
  H82      1.0000 0.05552  0.31904  0.18922  Biso   1.000  H
  H83      1.0000 0.05618  0.27572  0.23002  Biso   1.000  H
  C81      1.0000 0.02251  0.31900  0.16501  Biso   1.000  C
  N8       1.0000 0.52160  0.24040  0.12791  Biso   1.000  N
  Te4      1.0000 0.57164  0.28845  0.10030  Biso   1.000  Te
  H84      1.0000 0.00288  0.29287  0.17466  Biso   1.000  H
  H85      1.0000 0.04014  0.29534  0.12679  Biso   1.000  H
  H86      1.0000 0.02670  0.35050  0.18633  Biso   1.000  H
  H87      1.0000 0.02548  0.32470  0.12438  Biso   1.000  H
  H88      1.0000 0.98993  0.30489  0.16919  Biso   1.000  H
  C82      1.0000 0.45739  0.56240  0.51799  Biso   1.000  C
  C83      1.0000 0.41302  0.58940  0.52238  Biso   1.000  C
  C84      1.0000 0.49611  0.58678  0.50002  Biso   1.000  C
  H89      1.0000 0.45982  0.52784  0.52768  Biso   1.000  H
  N9       1.0000 0.37340  0.56791  0.53729  Biso   1.000  N
  C85      1.0000 0.41061  0.64280  0.50972  Biso   1.000  C
  C86      1.0000 0.49472  0.63932  0.48361  Biso   1.000  C
  O9       1.0000 0.54020  0.56240  0.49102  Biso   1.000  O
  Te5      1.0000 0.31916  0.61917  0.53811  Biso   1.000  Te
  N10      1.0000 0.36862  0.66662  0.51519  Biso   1.000  N
  C87      1.0000 0.45379  0.66650  0.48912  Biso   1.000  C
  O10      1.0000 0.53351  0.65961  0.46051  Biso   1.000  O
  C88      1.0000 0.57471  0.55529  0.54069  Biso   1.000  C
  H90      1.0000 0.45294  0.70114  0.47960  Biso   1.000  H
  C89      1.0000 0.56560  0.69040  0.49632  Biso   1.000  C
  C90      1.0000 0.61722  0.58079  0.54440  Biso   1.000  C
  C91      1.0000 0.56360  0.52001  0.58080  Biso   1.000  C
  C92      1.0000 0.61223  0.67160  0.51471  Biso   1.000  C
  C93      1.0000 0.55020  0.73840  0.50941  Biso   1.000  C
  C94      1.0000 0.62762  0.61928  0.49791  Biso   1.000  C
  C95      1.0000 0.65272  0.57109  0.59192  Biso   1.000  C
  H91      1.0000 0.53255  0.50361  0.57727  Biso   1.000  H
  C96      1.0000 0.59962  0.50972  0.62621  Biso   1.000  C
  C97      1.0000 0.64399  0.70279  0.54909  Biso   1.000  C
  H92      1.0000 0.51782  0.74990  0.49696  Biso   1.000  H
  C98      1.0000 0.58482  0.76888  0.54190  Biso   1.000  C
  H93      1.0000 0.60577  0.61007  0.46211  Biso   1.000  H
  C99      1.0000 0.68020  0.61831  0.48210  Biso   1.000  C
  H94      1.0000 0.68269  0.58948  0.59605  Biso   1.000  H
  C100     1.0000 0.64440  0.53469  0.63319  Biso   1.000  C
  O11      1.0000 0.59191  0.47059  0.66421  Biso   1.000  O
  H95      1.0000 0.67557  0.69051  0.56374  Biso   1.000  H
  C101     1.0000 0.63101  0.75241  0.56331  Biso   1.000  C
  O12      1.0000 0.57161  0.81921  0.55030  Biso   1.000  O
  H96      1.0000 0.70277  0.63164  0.51484  Biso   1.000  H
  H97      1.0000 0.68979  0.58326  0.47555  Biso   1.000  H
  C102     1.0000 0.68590  0.64932  0.42812  Biso   1.000  C
  C103     1.0000 0.68211  0.52339  0.68489  Biso   1.000  C
  C104     1.0000 0.55530  0.47609  0.70100  Biso   1.000  C
  C105     1.0000 0.66760  0.78570  0.59950  Biso   1.000  C
  C106     1.0000 0.53682  0.82910  0.58808  Biso   1.000  C
  H98      1.0000 0.66494  0.67954  0.42885  Biso   1.000  H
  H99      1.0000 0.67270  0.62940  0.39399  Biso   1.000  H
  C107     1.0000 0.73680  0.66602  0.41959  Biso   1.000  C
  C108     1.0000 0.67470  0.55918  0.73271  Biso   1.000  C
  H100     1.0000 0.67526  0.48897  0.69863  Biso   1.000  H
  C109     1.0000 0.73601  0.52421  0.67020  Biso   1.000  C
  C110     1.0000 0.50922  0.46441  0.68472  Biso   1.000  C
  C111     1.0000 0.57221  0.49272  0.75968  Biso   1.000  C
  C112     1.0000 0.66182  0.77641  0.66279  Biso   1.000  C
  H101     1.0000 0.65709  0.82104  0.59101  Biso   1.000  H
  C113     1.0000 0.72063  0.78109  0.58442  Biso   1.000  C
  C114     1.0000 0.55442  0.84280  0.64711  Biso   1.000  C
  C115     1.0000 0.48921  0.82940  0.56861  Biso   1.000  C
  C116     1.0000 0.77261  0.62382  0.41338  Biso   1.000  C
  H102     1.0000 0.73490  0.68717  0.38460  Biso   1.000  H
  H103     1.0000 0.74983  0.68702  0.45276  Biso   1.000  H
  C117     1.0000 0.64310  0.54701  0.77541  Biso   1.000  C
  C118     1.0000 0.69611  0.60670  0.73939  Biso   1.000  C
  C119     1.0000 0.74321  0.48362  0.62492  Biso   1.000  C
  H104     1.0000 0.75885  0.51792  0.70561  Biso   1.000  H
  H105     1.0000 0.74360  0.55750  0.65503  Biso   1.000  H
  H106     1.0000 0.49948  0.45269  0.64672  Biso   1.000  H
  C120     1.0000 0.47319  0.46961  0.72479  Biso   1.000  C
  O13      1.0000 0.62351  0.49848  0.77338  Biso   1.000  O
  C121     1.0000 0.54040  0.49721  0.79949  Biso   1.000  C
  C122     1.0000 0.68840  0.73990  0.69502  Biso   1.000  C
  C123     1.0000 0.62931  0.80532  0.68950  Biso   1.000  C
  H107     1.0000 0.73115  0.74567  0.58864  Biso   1.000  H
  H108     1.0000 0.74269  0.80120  0.61212  Biso   1.000  H
  C124     1.0000 0.72600  0.79850  0.52359  Biso   1.000  C
  O14      1.0000 0.60559  0.84568  0.66089  Biso   1.000  O
  C125     1.0000 0.52351  0.85800  0.68351  Biso   1.000  C
  H109     1.0000 0.47897  0.82052  0.52966  Biso   1.000  H
  C126     1.0000 0.45171  0.84340  0.60670  Biso   1.000  C
  H110     1.0000 0.77381  0.60169  0.44750  Biso   1.000  H
  H111     1.0000 0.76081  0.60371  0.37896  Biso   1.000  H
  C127     1.0000 0.82409  0.64321  0.40769  Biso   1.000  C
  C128     1.0000 0.63612  0.57839  0.81978  Biso   1.000  C
  H112     1.0000 0.71691  0.61648  0.71156  Biso   1.000  H
  C129     1.0000 0.69022  0.64052  0.78230  Biso   1.000  C
  H113     1.0000 0.73211  0.45085  0.63862  Biso   1.000  H
  H114     1.0000 0.72250  0.49178  0.58847  Biso   1.000  H
  C130     1.0000 0.79751  0.47961  0.61350  Biso   1.000  C
  N11      1.0000 0.42582  0.45931  0.71130  Biso   1.000  N
  C131     1.0000 0.49011  0.48609  0.78252  Biso   1.000  C
  H115     1.0000 0.55148  0.50755  0.83775  Biso   1.000  H
  H116     1.0000 0.71082  0.71990  0.67679  Biso   1.000  H
  C132     1.0000 0.68369  0.73110  0.75339  Biso   1.000  C
  C133     1.0000 0.62451  0.79809  0.74870  Biso   1.000  C
  H117     1.0000 0.71405  0.83344  0.51894  Biso   1.000  H
  H118     1.0000 0.70500  0.77742  0.49593  Biso   1.000  H
  C134     1.0000 0.77801  0.79622  0.50928  Biso   1.000  C
  C135     1.0000 0.47120  0.85812  0.66641  Biso   1.000  C
  H119     1.0000 0.53610  0.86898  0.72108  Biso   1.000  H
  N12      1.0000 0.40531  0.84231  0.59200  Biso   1.000  N
  H120     1.0000 0.83656  0.66092  0.44371  Biso   1.000  H
  H121     1.0000 0.82193  0.66789  0.37599  Biso   1.000  H
  C136     1.0000 0.86090  0.60341  0.39619  Biso   1.000  C
  C137     1.0000 0.65842  0.62501  0.82258  Biso   1.000  C
  H122     1.0000 0.61616  0.56840  0.84839  Biso   1.000  H
  C138     1.0000 0.71450  0.69141  0.78700  Biso   1.000  C
  C139     1.0000 0.80362  0.44460  0.56430  Biso   1.000  C
  H123     1.0000 0.81762  0.46733  0.64874  Biso   1.000  H
  H124     1.0000 0.80978  0.51320  0.60450  Biso   1.000  H
  Te6      1.0000 0.38982  0.47508  0.77890  Biso   1.000  Te
  N13      1.0000 0.45571  0.49249  0.81841  Biso   1.000  N
  C140     1.0000 0.65120  0.76132  0.77881  Biso   1.000  C
  H125     1.0000 0.60291  0.81869  0.76744  Biso   1.000  H
  H126     1.0000 0.79927  0.81708  0.53703  Biso   1.000  H
  H127     1.0000 0.78995  0.76128  0.51308  Biso   1.000  H
  C141     1.0000 0.78183  0.81472  0.44832  Biso   1.000  C
  N14      1.0000 0.43800  0.87040  0.70109  Biso   1.000  N
  Te7      1.0000 0.37078  0.86261  0.65973  Biso   1.000  Te
  H128     1.0000 0.84904  0.57057  0.40731  Biso   1.000  H
  H129     1.0000 0.86501  0.60318  0.35513  Biso   1.000  H
  H130     1.0000 0.89266  0.61060  0.41881  Biso   1.000  H
  O15      1.0000 0.65359  0.65662  0.86920  Biso   1.000  O
  H131     1.0000 0.71559  0.70118  0.82844  Biso   1.000  H
  C142     1.0000 0.76821  0.68920  0.77472  Biso   1.000  C
  H132     1.0000 0.78929  0.41176  0.57283  Biso   1.000  H
  H133     1.0000 0.78424  0.45793  0.52915  Biso   1.000  H
  C143     1.0000 0.85591  0.43621  0.55142  Biso   1.000  C
  O16      1.0000 0.64851  0.75529  0.83792  Biso   1.000  O
  H134     1.0000 0.75878  0.79457  0.42170  Biso   1.000  H
  H135     1.0000 0.81551  0.80711  0.43919  Biso   1.000  H
  C144     1.0000 0.77172  0.86961  0.43441  Biso   1.000  C
  C145     1.0000 0.60819  0.68148  0.86950  Biso   1.000  C
  H136     1.0000 0.76896  0.68530  0.73271  Biso   1.000  H
  H137     1.0000 0.78399  0.65920  0.79381  Biso   1.000  H
  C146     1.0000 0.79799  0.73458  0.79480  Biso   1.000  C
  H138     1.0000 0.87544  0.42194  0.58597  Biso   1.000  H
  H139     1.0000 0.85577  0.41150  0.51984  Biso   1.000  H
  C147     1.0000 0.88072  0.48470  0.53401  Biso   1.000  C
  C148     1.0000 0.60462  0.73338  0.85291  Biso   1.000  C
  H140     1.0000 0.73970  0.87954  0.44699  Biso   1.000  H
  H141     1.0000 0.76987  0.87504  0.39231  Biso   1.000  H
  C149     1.0000 0.81261  0.90110  0.46530  Biso   1.000  C
  H142     1.0000 0.73577  0.87515  0.42536  Biso   1.000  H
  H143     1.0000 0.78788  0.87954  0.40046  Biso   1.000  H
  C150     1.0000 0.79202  0.90092  0.48602  Biso   1.000  C
  C151     1.0000 0.56869  0.65692  0.88850  Biso   1.000  C
  H144     1.0000 0.78411  0.76431  0.77347  Biso   1.000  H
  H145     1.0000 0.79546  0.74009  0.83624  Biso   1.000  H
  C152     1.0000 0.85189  0.72900  0.78592  Biso   1.000  C
  H146     1.0000 0.77653  0.76349  0.78286  Biso   1.000  H
  H147     1.0000 0.80037  0.73350  0.83741  Biso   1.000  H
  C153     1.0000 0.84910  0.74978  0.78101  Biso   1.000  C
  H148     1.0000 0.88725  0.50657  0.56771  Biso   1.000  H
  H149     1.0000 0.91178  0.47654  0.51915  Biso   1.000  H
  H150     1.0000 0.85883  0.50193  0.50407  Biso   1.000  H
  C154     1.0000 0.56460  0.75960  0.85399  Biso   1.000  C
  H151     1.0000 0.80628  0.93653  0.45646  Biso   1.000  H
  H152     1.0000 0.84413  0.89129  0.45237  Biso   1.000  H
  H153     1.0000 0.81405  0.89579  0.50692  Biso   1.000  H
  H154     1.0000 0.78520  0.93642  0.47783  Biso   1.000  H
  H155     1.0000 0.82710  0.89541  0.49481  Biso   1.000  H
  H156     1.0000 0.77513  0.89103  0.51962  Biso   1.000  H
  C155     1.0000 0.52421  0.68339  0.88992  Biso   1.000  C
  H157     1.0000 0.57146  0.62284  0.90044  Biso   1.000  H
  H158     1.0000 0.85475  0.73159  0.74413  Biso   1.000  H
  H159     1.0000 0.86307  0.69504  0.79850  Biso   1.000  H
  C156     1.0000 0.88620  0.76708  0.81750  Biso   1.000  C
  C157     1.0000 0.88289  0.70901  0.80901  Biso   1.000  C
  H160     1.0000 0.85047  0.75110  0.73930  Biso   1.000  H
  H161     1.0000 0.85840  0.78296  0.79824  Biso   1.000  H
  C158     1.0000 0.51952  0.73612  0.87131  Biso   1.000  C
  H162     1.0000 0.56426  0.79397  0.84365  Biso   1.000  H
  N15      1.0000 0.48380  0.66220  0.90569  Biso   1.000  N
  C159     1.0000 0.94029  0.75821  0.81091  Biso   1.000  C
  H163     1.0000 0.87679  0.80094  0.80290  Biso   1.000  H
  H164     1.0000 0.88195  0.76619  0.85899  Biso   1.000  H
  H165     1.0000 0.87464  0.67721  0.78842  Biso   1.000  H
  H166     1.0000 0.87557  0.70436  0.84934  Biso   1.000  H
  C160     1.0000 0.93790  0.71799  0.81000  Biso   1.000  C
  N16      1.0000 0.47841  0.75960  0.87209  Biso   1.000  N
  Te8      1.0000 0.42837  0.71155  0.89970  Biso   1.000  Te
  C161     1.0000 0.96241  0.70829  0.83189  Biso   1.000  C
  H167     1.0000 0.95976  0.78521  0.83172  Biso   1.000  H
  H168     1.0000 0.94440  0.76162  0.76955  Biso   1.000  H
  H169     1.0000 0.94502  0.74986  0.83133  Biso   1.000  H
  H170     1.0000 0.94449  0.68096  0.81078  Biso   1.000  H
  H171     1.0000 0.94383  0.72428  0.76998  Biso   1.000  H
  C162     1.0000 0.97750  0.68100  0.83499  Biso   1.000  C
  H172     1.0000 0.99712  0.70713  0.82534  Biso   1.000  H
  H173     1.0000 0.95987  0.70466  0.87321  Biso   1.000  H
  H174     1.0000 0.97331  0.64950  0.81367  Biso   1.000  H
  H175     1.0000 0.97452  0.67530  0.87562  Biso   1.000  H
  H176     1.0000 0.01007  0.69511  0.83081  Biso   1.000  H
  Te9      1.0000 0.35634  0.49886  0.61686  Biso   1.000  Te
  N17      1.0000 0.29331  0.53020  0.58291  Biso   1.000  N
  N18      1.0000 0.31611  0.47441  0.67882  Biso   1.000  N
  C163     1.0000 0.25781  0.52230  0.61630  Biso   1.000  C
  C164     1.0000 0.27171  0.49189  0.66869  Biso   1.000  C
  C165     1.0000 0.21012  0.54110  0.60321  Biso   1.000  C
  C166     1.0000 0.23480  0.48272  0.70432  Biso   1.000  C
  C167     1.0000 0.17619  0.53140  0.64021  Biso   1.000  C
  H177     1.0000 0.20140  0.56023  0.56930  Biso   1.000  H
  C168     1.0000 0.18852  0.50212  0.69222  Biso   1.000  C
  H178     1.0000 0.24221  0.46250  0.73762  Biso   1.000  H
  O17      1.0000 0.12642  0.54522  0.62720  Biso   1.000  O
  O18      1.0000 0.15031  0.49152  0.72479  Biso   1.000  O
  C169     1.0000 0.11290  0.59461  0.63862  Biso   1.000  C
  C170     1.0000 0.14649  0.52320  0.77192  Biso   1.000  C
  C171     1.0000 0.08340  0.60371  0.68140  Biso   1.000  C
  C172     1.0000 0.12690  0.63310  0.60282  Biso   1.000  C
  C173     1.0000 0.18101  0.51829  0.82060  Biso   1.000  C
  C174     1.0000 0.10639  0.55491  0.77119  Biso   1.000  C
  C175     1.0000 0.06779  0.55990  0.71901  Biso   1.000  C
  C176     1.0000 0.06770  0.65201  0.68860  Biso   1.000  C
  H179     1.0000 0.14637  0.62617  0.57270  Biso   1.000  H
  C177     1.0000 0.11168  0.68088  0.61268  Biso   1.000  C
  C178     1.0000 0.17670  0.54750  0.86799  Biso   1.000  C
  H180     1.0000 0.20729  0.49504  0.82078  Biso   1.000  H
  C179     1.0000 0.10230  0.58401  0.82142  Biso   1.000  C
  H181     1.0000 0.06960  0.52859  0.69588  Biso   1.000  H
  C180     1.0000 0.01471  0.56431  0.73319  Biso   1.000  C
  C181     1.0000 0.08029  0.69099  0.65379  Biso   1.000  C
  H182     1.0000 0.04771  0.65883  0.71828  Biso   1.000  H
  O19      1.0000 0.12080  0.72091  0.57529  Biso   1.000  O
  O20      1.0000 0.21011  0.54001  0.91801  Biso   1.000  O
  C182     1.0000 0.13641  0.58012  0.87002  Biso   1.000  C
  H183     1.0000 0.07557  0.60667  0.82155  Biso   1.000  H
  H184     1.0000 0.00735  0.53499  0.75671  Biso   1.000  H
  H185     1.0000 0.01197  0.59465  0.75688  Biso   1.000  H
  C183     1.0000 0.97582  0.56708  0.68032  Biso   1.000  C
  C184     1.0000 0.05950  0.74492  0.66051  Biso   1.000  C
  C185     1.0000 0.16812  0.73930  0.57951  Biso   1.000  C
  C186     1.0000 0.25649  0.55881  0.91651  Biso   1.000  C
  C187     1.0000 0.13042  0.61071  0.92292  Biso   1.000  C
  H186     1.0000 0.98330  0.54076  0.65284  Biso   1.000  H
  H187     1.0000 0.97936  0.59981  0.66128  Biso   1.000  H
  C188     1.0000 0.92222  0.56132  0.69110  Biso   1.000  C
  H188     1.0000 0.98708  0.54874  0.64750  Biso   1.000  H
  H189     1.0000 0.96943  0.60240  0.66873  Biso   1.000  H
  C189     1.0000 0.92942  0.54301  0.69799  Biso   1.000  C
  C190     1.0000 0.09662  0.77529  0.70230  Biso   1.000  C
  H190     1.0000 0.05891  0.76117  0.62195  Biso   1.000  H
  C191     1.0000 0.00871  0.74619  0.67490  Biso   1.000  C
  C192     1.0000 0.17470  0.78820  0.60239  Biso   1.000  C
  C193     1.0000 0.20502  0.71361  0.55762  Biso   1.000  C
  C194     1.0000 0.26661  0.60749  0.94339  Biso   1.000  C
  C195     1.0000 0.29270  0.53218  0.89501  Biso   1.000  C
  C196     1.0000 0.15518  0.66149  0.91819  Biso   1.000  C
  H191     1.0000 0.14958  0.59300  0.95597  Biso   1.000  H
  C197     1.0000 0.07721  0.61479  0.93792  Biso   1.000  C
  H192     1.0000 0.91221  0.52627  0.68218  Biso   1.000  H
  H193     1.0000 0.90191  0.58304  0.66339  Biso   1.000  H
  C198     1.0000 0.90982  0.57349  0.75120  Biso   1.000  C
  H194     1.0000 0.90953  0.54084  0.66025  Biso   1.000  H
  H195     1.0000 0.91555  0.57236  0.71686  Biso   1.000  H
  C199     1.0000 0.90499  0.50099  0.72901  Biso   1.000  C
  C200     1.0000 0.13331  0.80461  0.68300  Biso   1.000  C
  C201     1.0000 0.09331  0.77341  0.76111  Biso   1.000  C
  H196     1.0000 0.00752  0.73024  0.71290  Biso   1.000  H
  H197     1.0000 0.99837  0.78154  0.67795  Biso   1.000  H
  C202     1.0000 0.97140  0.71889  0.62910  Biso   1.000  C
  O21      1.0000 0.13462  0.81030  0.62358  Biso   1.000  O
  C203     1.0000 0.21899  0.81329  0.60161  Biso   1.000  C
  C204     1.0000 0.25198  0.73619  0.55939  Biso   1.000  C
  H198     1.0000 0.19920  0.68111  0.54155  Biso   1.000  H
  O22      1.0000 0.22921  0.63011  0.96829  Biso   1.000  O
  C205     1.0000 0.31251  0.62700  0.94761  Biso   1.000  C
  C206     1.0000 0.34159  0.55169  0.89781  Biso   1.000  C
  H199     1.0000 0.28532  0.50039  0.87803  Biso   1.000  H
  C207     1.0000 0.20451  0.66920  0.93869  Biso   1.000  C
  C208     1.0000 0.12969  0.70380  0.89380  Biso   1.000  C
  H200     1.0000 0.06285  0.58068  0.93706  Biso   1.000  H
  H201     1.0000 0.05778  0.63449  0.90733  Biso   1.000  H
  C209     1.0000 0.07090  0.63760  0.99380  Biso   1.000  C
  H202     1.0000 0.93199  0.55372  0.77924  Biso   1.000  H
  H203     1.0000 0.91726  0.60929  0.75895  Biso   1.000  H
  C210     1.0000 0.85669  0.56371  0.76270  Biso   1.000  C
  H204     1.0000 0.87266  0.49414  0.70751  Biso   1.000  H
  H205     1.0000 0.92547  0.47081  0.72819  Biso   1.000  H
  C211     1.0000 0.89702  0.51099  0.79200  Biso   1.000  C
  C212     1.0000 0.16569  0.83082  0.72061  Biso   1.000  C
  C213     1.0000 0.12611  0.80011  0.80031  Biso   1.000  C
  H206     1.0000 0.06830  0.75364  0.77502  Biso   1.000  H
  H207     1.0000 0.98353  0.68455  0.62307  Biso   1.000  H
  H208     1.0000 0.97005  0.73694  0.59192  Biso   1.000  H
  C214     1.0000 0.92121  0.71590  0.64650  Biso   1.000  C
  C215     1.0000 0.25989  0.78790  0.58162  Biso   1.000  C
  H209     1.0000 0.22227  0.84707  0.61428  Biso   1.000  H
  N19      1.0000 0.29008  0.71350  0.54138  Biso   1.000  N
  C216     1.0000 0.35160  0.60060  0.92461  Biso   1.000  C
  H210     1.0000 0.31895  0.65849  0.96592  Biso   1.000  H
  N20      1.0000 0.37729  0.52829  0.87700  Biso   1.000  N
  C217     1.0000 0.22640  0.71440  0.93451  Biso   1.000  C
  C218     1.0000 0.14952  0.75038  0.89022  Biso   1.000  C
  H211     1.0000 0.09614  0.69949  0.87881  Biso   1.000  H
  H212     1.0000 0.08429  0.67208  0.99565  Biso   1.000  H
  H213     1.0000 0.07615  0.67396  0.98893  Biso   1.000  H
  H214     1.0000 0.08885  0.61782  0.02542  Biso   1.000  H
  C219     1.0000 0.01623  0.63868  0.00052  Biso   1.000  C
  H215     1.0000 0.09904  0.62561  0.02085  Biso   1.000  H
  C220     1.0000 0.02599  0.63299  0.02598  Biso   1.000  C
  H216     1.0000 0.83447  0.58498  0.73663  Biso   1.000  H
  H217     1.0000 0.84847  0.52829  0.75326  Biso   1.000  H
  C221     1.0000 0.84710  0.57379  0.82482  Biso   1.000  C
  H218     1.0000 0.86436  0.52634  0.79238  Biso   1.000  H
  H219     1.0000 0.89724  0.47864  0.81199  Biso   1.000  H
  C222     1.0000 0.93500  0.54499  0.82599  Biso   1.000  C
  C223     1.0000 0.16271  0.82880  0.77972  Biso   1.000  C
  H220     1.0000 0.19053  0.85063  0.70639  Biso   1.000  H
  C224     1.0000 0.12162  0.79659  0.86588  Biso   1.000  C
  H221     1.0000 0.92366  0.70167  0.68580  Biso   1.000  H
  H222     1.0000 0.90833  0.75046  0.64866  Biso   1.000  H
  C225     1.0000 0.88260  0.68459  0.60700  Biso   1.000  C
  N21      1.0000 0.30351  0.80779  0.58141  Biso   1.000  N
  Te10     1.0000 0.35001  0.75769  0.55060  Biso   1.000  Te
  N22      1.0000 0.39771  0.61921  0.92629  Biso   1.000  N
  Te11     1.0000 0.43938  0.57102  0.88958  Biso   1.000  Te
  C226     1.0000 0.20061  0.75559  0.91121  Biso   1.000  C
  H223     1.0000 0.26038  0.71781  0.94796  Biso   1.000  H
  H224     1.0000 0.00342  0.60427  0.99358  Biso   1.000  H
  H225     1.0000 0.99987  0.65988  0.96915  Biso   1.000  H
  C227     1.0000 0.99894  0.65669  0.05631  Biso   1.000  C
  H226     1.0000 0.00611  0.60322  0.01491  Biso   1.000  H
  C228     1.0000 0.00011  0.68100  0.00500  Biso   1.000  C
  H227     1.0000 0.03507  0.63344  0.06863  Biso   1.000  H
  H228     1.0000 0.81246  0.56671  0.82887  Biso   1.000  H
  H229     1.0000 0.85428  0.60895  0.83439  Biso   1.000  H
  H230     1.0000 0.86828  0.55218  0.85106  Biso   1.000  H
  H231     1.0000 0.92652  0.54889  0.86532  Biso   1.000  H
  H232     1.0000 0.93482  0.57802  0.80742  Biso   1.000  H
  H233     1.0000 0.96786  0.53016  0.82711  Biso   1.000  H
  O23      1.0000 0.19369  0.85872  0.81651  Biso   1.000  O
  H234     1.0000 0.13927  0.82632  0.88428  Biso   1.000  H
  C229     1.0000 0.06970  0.79850  0.88182  Biso   1.000  C
  H235     1.0000 0.89760  0.65156  0.60079  Biso   1.000  H
  H236     1.0000 0.87743  0.70148  0.56904  Biso   1.000  H
  C230     1.0000 0.83429  0.67572  0.62570  Biso   1.000  C
  O24      1.0000 0.22039  0.80258  0.91258  Biso   1.000  O
  C231     1.0000 0.94351  0.66261  0.05588  Biso   1.000  C
  C232     1.0000 0.95200  0.69399  0.02900  Biso   1.000  C
  H237     1.0000 0.01083  0.63292  0.08729  Biso   1.000  H
  H238     1.0000 0.01454  0.68950  0.06635  Biso   1.000  H
  H239     1.0000 0.99307  0.67927  0.96260  Biso   1.000  H
  H240     1.0000 0.02325  0.70949  0.01400  Biso   1.000  H
  C233     1.0000 0.24141  0.84441  0.82689  Biso   1.000  C
  H241     1.0000 0.05270  0.82842  0.86407  Biso   1.000  H
  H242     1.0000 0.05140  0.76847  0.86640  Biso   1.000  H
  C234     1.0000 0.06938  0.80060  0.94778  Biso   1.000  C
  C235     1.0000 0.79902  0.64550  0.59140  Biso   1.000  C
  H243     1.0000 0.81900  0.70882  0.63039  Biso   1.000  H
  H244     1.0000 0.83984  0.66033  0.66451  Biso   1.000  H
  C236     1.0000 0.25710  0.81322  0.87640  Biso   1.000  C
  C237     1.0000 0.91671  0.69451  0.00832  Biso   1.000  C
  H245     1.0000 0.92860  0.62876  0.05347  Biso   1.000  H
  H246     1.0000 0.93729  0.67714  0.09336  Biso   1.000  H
  H247     1.0000 0.93008  0.66459  0.02301  Biso   1.000  H
  H248     1.0000 0.95977  0.69856  0.07135  Biso   1.000  H
  H249     1.0000 0.93520  0.72559  0.00444  Biso   1.000  H
  C238     1.0000 0.92502  0.74001  0.00401  Biso   1.000  C
  C239     1.0000 0.27692  0.86201  0.79402  Biso   1.000  C
  H250     1.0000 0.08426  0.83269  0.96226  Biso   1.000  H
  H251     1.0000 0.09034  0.77319  0.96558  Biso   1.000  H
  C240     1.0000 0.01900  0.79611  0.96661  Biso   1.000  C
  H252     1.0000 0.79446  0.61393  0.61152  Biso   1.000  H
  H253     1.0000 0.76758  0.66340  0.58502  Biso   1.000  H
  H254     1.0000 0.81091  0.63846  0.55431  Biso   1.000  H
  C241     1.0000 0.30341  0.79899  0.89022  Biso   1.000  C
  H255     1.0000 0.91415  0.67602  0.97187  Biso   1.000  H
  H256     1.0000 0.88369  0.70257  0.01784  Biso   1.000  H
  H257     1.0000 0.92300  0.73911  0.96209  Biso   1.000  H
  H258     1.0000 0.94225  0.77012  0.01891  Biso   1.000  H
  H259     1.0000 0.89139  0.73997  0.01551  Biso   1.000  H
  C242     1.0000 0.32672  0.84729  0.80660  Biso   1.000  C
  H260     1.0000 0.26763  0.88407  0.76274  Biso   1.000  H
  H261     1.0000 0.00136  0.76877  0.94429  Biso   1.000  H
  C243     1.0000 0.98770  0.84149  0.96019  Biso   1.000  C
  H262     1.0000 0.02272  0.78611  0.00763  Biso   1.000  H
  C244     1.0000 0.34099  0.81419  0.85761  Biso   1.000  C
  H263     1.0000 0.31144  0.77813  0.92284  Biso   1.000  H
  N23      1.0000 0.36271  0.86250  0.77782  Biso   1.000  N
  H264     1.0000 0.98593  0.85366  0.92000  Biso   1.000  H
  H265     1.0000 0.95394  0.83269  0.96786  Biso   1.000  H
  C245     1.0000 0.00932  0.88789  0.00530  Biso   1.000  C
  N24      1.0000 0.38649  0.80049  0.86739  Biso   1.000  N
  Te12     1.0000 0.42706  0.83190  0.81104  Biso   1.000  Te
  H266     1.0000 0.04236  0.89732  0.99556  Biso   1.000  H
  C246     1.0000 0.98153  0.93159  0.00612  Biso   1.000  C
  H267     1.0000 0.01370  0.87414  0.04485  Biso   1.000  H
  H268     1.0000 0.97922  0.94773  0.96821  Biso   1.000  H
  H269     1.0000 0.94839  0.92327  0.01521  Biso   1.000  H
  H270     1.0000 0.99738  0.95443  0.03537  Biso   1.000  H
  Te13     1.0000 0.64367  0.50114  0.38314  Biso   1.000  Te
  N25      1.0000 0.70670  0.46980  0.41709  Biso   1.000  N
  N26      1.0000 0.68390  0.52559  0.32118  Biso   1.000  N
  C247     1.0000 0.74219  0.47770  0.38370  Biso   1.000  C
  C248     1.0000 0.72830  0.50811  0.33131  Biso   1.000  C
  C249     1.0000 0.78989  0.45890  0.39679  Biso   1.000  C
  C250     1.0000 0.76521  0.51728  0.29572  Biso   1.000  C
  C251     1.0000 0.82381  0.46860  0.35979  Biso   1.000  C
  H271     1.0000 0.79860  0.43977  0.43070  Biso   1.000  H
  C252     1.0000 0.81149  0.49788  0.30779  Biso   1.000  C
  H272     1.0000 0.75780  0.53750  0.26238  Biso   1.000  H
  O25      1.0000 0.87362  0.45478  0.37280  Biso   1.000  O
  O26      1.0000 0.84970  0.50848  0.27521  Biso   1.000  O
  C253     1.0000 0.88711  0.40539  0.36138  Biso   1.000  C
  C254     1.0000 0.85352  0.47680  0.22808  Biso   1.000  C
  C255     1.0000 0.87311  0.36690  0.39718  Biso   1.000  C
  C256     1.0000 0.91661  0.39629  0.31860  Biso   1.000  C
  C257     1.0000 0.81900  0.48171  0.17940  Biso   1.000  C
  C258     1.0000 0.89361  0.44509  0.22881  Biso   1.000  C
  C259     1.0000 0.88833  0.31912  0.38732  Biso   1.000  C
  H273     1.0000 0.85365  0.37383  0.42734  Biso   1.000  H
  C260     1.0000 0.93231  0.34799  0.31140  Biso   1.000  C
  C261     1.0000 0.93222  0.44010  0.28099  Biso   1.000  C
  C262     1.0000 0.82331  0.45250  0.13201  Biso   1.000  C
  H274     1.0000 0.79272  0.50496  0.17923  Biso   1.000  H
  C263     1.0000 0.89771  0.41599  0.17862  Biso   1.000  C
  C264     1.0000 0.91971  0.30901  0.34622  Biso   1.000  C
  O27      1.0000 0.87921  0.27909  0.42471  Biso   1.000  O
  H275     1.0000 0.95230  0.34117  0.28172  Biso   1.000  H
  H276     1.0000 0.93041  0.47141  0.30412  Biso   1.000  H
  C265     1.0000 0.98529  0.43569  0.26681  Biso   1.000  C
  C266     1.0000 0.86360  0.41988  0.12998  Biso   1.000  C
  O28      1.0000 0.78990  0.45999  0.08199  Biso   1.000  O
  H277     1.0000 0.92444  0.39333  0.17845  Biso   1.000  H
  C267     1.0000 0.94051  0.25508  0.33949  Biso   1.000  C
  C268     1.0000 0.83193  0.26070  0.42049  Biso   1.000  C
  H278     1.0000 0.99266  0.46501  0.24329  Biso   1.000  H
  H279     1.0000 0.98803  0.40535  0.24312  Biso   1.000  H
  C269     1.0000 0.02419  0.43292  0.31972  Biso   1.000  C
  C270     1.0000 0.86963  0.38929  0.07712  Biso   1.000  C
  C271     1.0000 0.74352  0.44119  0.08349  Biso   1.000  C
  C272     1.0000 0.90343  0.22471  0.29770  Biso   1.000  C
  H280     1.0000 0.94109  0.23883  0.37805  Biso   1.000  H
  C273     1.0000 0.99130  0.25381  0.32510  Biso   1.000  C
  C274     1.0000 0.82531  0.21180  0.39761  Biso   1.000  C
  C275     1.0000 0.79503  0.28639  0.44242  Biso   1.000  C
  H281     1.0000 0.01671  0.45924  0.34716  Biso   1.000  H
  H282     1.0000 0.02069  0.40019  0.33872  Biso   1.000  H
  C276     1.0000 0.07779  0.43868  0.30891  Biso   1.000  C
  H283     1.0000 0.01296  0.45126  0.35251  Biso   1.000  H
  H284     1.0000 0.03058  0.39760  0.33127  Biso   1.000  H
  C277     1.0000 0.07059  0.45699  0.30201  Biso   1.000  C
  C278     1.0000 0.84482  0.33851  0.08181  Biso   1.000  C
  H285     1.0000 0.85043  0.40700  0.04403  Biso   1.000  H
  C279     1.0000 0.92280  0.38521  0.06208  Biso   1.000  C
  C280     1.0000 0.73339  0.39251  0.05661  Biso   1.000  C
  C281     1.0000 0.70731  0.46782  0.10499  Biso   1.000  C
  C282     1.0000 0.90670  0.22659  0.23890  Biso   1.000  C
  C283     1.0000 0.86670  0.19539  0.31701  Biso   1.000  C
  H286     1.0000 0.99249  0.26976  0.28711  Biso   1.000  H
  H287     1.0000 0.00164  0.21846  0.32205  Biso   1.000  H
  C284     1.0000 0.02860  0.28111  0.37090  Biso   1.000  C
  O29      1.0000 0.86543  0.18970  0.37642  Biso   1.000  O
  C285     1.0000 0.78102  0.18671  0.39839  Biso   1.000  C
  C286     1.0000 0.74802  0.26381  0.44061  Biso   1.000  C
  H288     1.0000 0.80081  0.31889  0.45845  Biso   1.000  H
  H289     1.0000 0.08779  0.47373  0.31782  Biso   1.000  H
  H290     1.0000 0.09810  0.41696  0.33661  Biso   1.000  H
  C287     1.0000 0.09019  0.42651  0.24880  Biso   1.000  C
  H291     1.0000 0.09047  0.45916  0.33975  Biso   1.000  H
  H292     1.0000 0.08449  0.42764  0.28314  Biso   1.000  H
  C288     1.0000 0.09501  0.49901  0.27099  Biso   1.000  C
  C289     1.0000 0.79550  0.33080  0.06131  Biso   1.000  C
  C290     1.0000 0.87032  0.29620  0.10620  Biso   1.000  C
  H293     1.0000 0.93715  0.41932  0.06294  Biso   1.000  H
  H294     1.0000 0.94223  0.36551  0.09267  Biso   1.000  H
  C291     1.0000 0.92911  0.36240  0.00620  Biso   1.000  C
  O30      1.0000 0.77080  0.36989  0.03171  Biso   1.000  O
  C292     1.0000 0.68750  0.37300  0.05239  Biso   1.000  C
  C293     1.0000 0.65841  0.44831  0.10219  Biso   1.000  C
  H295     1.0000 0.71469  0.49961  0.12197  Biso   1.000  H
  C294     1.0000 0.87390  0.19989  0.19969  Biso   1.000  C
  H296     1.0000 0.93171  0.24636  0.22498  Biso   1.000  H
  C295     1.0000 0.83432  0.16918  0.27939  Biso   1.000  C
  H297     1.0000 0.01648  0.31545  0.37693  Biso   1.000  H
  H298     1.0000 0.02996  0.26306  0.40808  Biso   1.000  H
  C296     1.0000 0.07880  0.28410  0.35350  Biso   1.000  C
  C297     1.0000 0.74012  0.21210  0.41842  Biso   1.000  C
  H299     1.0000 0.77773  0.15293  0.38572  Biso   1.000  H
  N27      1.0000 0.70992  0.28650  0.45862  Biso   1.000  N
  H300     1.0000 0.06802  0.44628  0.22076  Biso   1.000  H
  H301     1.0000 0.08275  0.39071  0.24105  Biso   1.000  H
  C298     1.0000 0.14331  0.43629  0.23730  Biso   1.000  C
  H302     1.0000 0.12735  0.50586  0.29249  Biso   1.000  H
  H303     1.0000 0.07454  0.52919  0.27181  Biso   1.000  H
  C299     1.0000 0.10299  0.48901  0.20800  Biso   1.000  C
  C300     1.0000 0.77361  0.28560  0.06549  Biso   1.000  C
  C301     1.0000 0.85053  0.24962  0.10982  Biso   1.000  C
  H304     1.0000 0.90387  0.30051  0.12119  Biso   1.000  H
  H305     1.0000 0.91572  0.32792  0.00435  Biso   1.000  H
  H306     1.0000 0.92386  0.32604  0.01107  Biso   1.000  H
  H307     1.0000 0.91116  0.38218  0.97458  Biso   1.000  H
  C302     1.0000 0.98382  0.36132  0.99948  Biso   1.000  C
  H308     1.0000 0.90097  0.37439  0.97915  Biso   1.000  H
  C303     1.0000 0.97402  0.36701  0.97402  Biso   1.000  C
  C304     1.0000 0.64841  0.39940  0.07540  Biso   1.000  C
  H309     1.0000 0.68105  0.34151  0.03408  Biso   1.000  H
  N28      1.0000 0.62272  0.47171  0.12300  Biso   1.000  N
  C305     1.0000 0.83730  0.17120  0.22028  Biso   1.000  C
  C306     1.0000 0.87843  0.20341  0.13412  Biso   1.000  C
  H310     1.0000 0.80948  0.14937  0.29361  Biso   1.000  H
  H311     1.0000 0.07635  0.29833  0.31420  Biso   1.000  H
  H312     1.0000 0.09167  0.24954  0.35134  Biso   1.000  H
  C307     1.0000 0.11741  0.31541  0.39300  Biso   1.000  C
  N29      1.0000 0.69650  0.19221  0.41859  Biso   1.000  N
  Te14     1.0000 0.65004  0.24231  0.44944  Biso   1.000  Te
  H313     1.0000 0.16554  0.41502  0.26337  Biso   1.000  H
  H314     1.0000 0.15154  0.47171  0.24674  Biso   1.000  H
  C308     1.0000 0.15291  0.42621  0.17522  Biso   1.000  C
  H315     1.0000 0.13565  0.47366  0.20762  Biso   1.000  H
  H316     1.0000 0.10277  0.52136  0.18801  Biso   1.000  H
  C309     1.0000 0.06500  0.45501  0.17401  Biso   1.000  C
  C310     1.0000 0.79940  0.24441  0.08879  Biso   1.000  C
  H317     1.0000 0.73963  0.28219  0.05209  Biso   1.000  H
  H318     1.0000 0.99662  0.39573  0.00642  Biso   1.000  H
  H319     1.0000 0.99393  0.39678  0.98509  Biso   1.000  H
  C311     1.0000 0.99990  0.31900  0.99500  Biso   1.000  C
  C312     1.0000 0.00111  0.34331  0.94369  Biso   1.000  C
  H320     1.0000 0.00014  0.34012  0.03085  Biso   1.000  H
  H321     1.0000 0.96494  0.36656  0.93137  Biso   1.000  H
  N30      1.0000 0.60229  0.38079  0.07372  Biso   1.000  N
  Te15     1.0000 0.56062  0.42898  0.11042  Biso   1.000  Te
  O31      1.0000 0.80632  0.14128  0.18349  Biso   1.000  O
  H322     1.0000 0.86074  0.17368  0.11572  Biso   1.000  H
  C313     1.0000 0.93031  0.20150  0.11822  Biso   1.000  C
  H323     1.0000 0.10241  0.34844  0.39921  Biso   1.000  H
  H324     1.0000 0.12257  0.29852  0.43096  Biso   1.000  H
  C314     1.0000 0.16571  0.32428  0.37431  Biso   1.000  C
  H325     1.0000 0.18755  0.43329  0.17113  Biso   1.000  H
  H326     1.0000 0.14573  0.39105  0.16561  Biso   1.000  H
  H327     1.0000 0.13173  0.44782  0.14894  Biso   1.000  H
  H328     1.0000 0.07349  0.45111  0.13468  Biso   1.000  H
  H329     1.0000 0.06519  0.42198  0.19258  Biso   1.000  H
  H330     1.0000 0.03215  0.46984  0.17289  Biso   1.000  H
  O32      1.0000 0.77962  0.19742  0.08742  Biso   1.000  O
  H331     1.0000 0.97676  0.29051  0.98600  Biso   1.000  H
  C315     1.0000 0.04800  0.30601  0.97101  Biso   1.000  C
  H332     1.0000 0.00694  0.32073  0.03740  Biso   1.000  H
  H333     1.0000 0.98918  0.36708  0.91271  Biso   1.000  H
  H334     1.0000 0.98547  0.31050  0.93365  Biso   1.000  H
  C316     1.0000 0.05650  0.33739  0.94412  Biso   1.000  C
  C317     1.0000 0.75860  0.15559  0.17311  Biso   1.000  C
  H335     1.0000 0.94730  0.17158  0.13593  Biso   1.000  H
  H336     1.0000 0.94861  0.23153  0.13364  Biso   1.000  H
  C318     1.0000 0.93063  0.19940  0.05222  Biso   1.000  C
  C319     1.0000 0.20098  0.35450  0.40860  Biso   1.000  C
  H337     1.0000 0.18101  0.29118  0.36965  Biso   1.000  H
  H338     1.0000 0.16020  0.33967  0.33549  Biso   1.000  H
  C320     1.0000 0.74291  0.18678  0.12361  Biso   1.000  C
  C321     1.0000 0.08330  0.30549  0.99168  Biso   1.000  C
  H339     1.0000 0.06481  0.27441  0.99556  Biso   1.000  H
  H340     1.0000 0.06993  0.33541  0.97699  Biso   1.000  H
  H341     1.0000 0.04024  0.30144  0.92865  Biso   1.000  H
  C322     1.0000 0.07499  0.25999  0.99599  Biso   1.000  C
  H342     1.0000 0.07141  0.37124  0.94653  Biso   1.000  H
  H343     1.0000 0.06272  0.32286  0.90664  Biso   1.000  H
  C323     1.0000 0.72309  0.13799  0.20598  Biso   1.000  C
  H344     1.0000 0.91575  0.16731  0.03774  Biso   1.000  H
  H345     1.0000 0.90967  0.22681  0.03442  Biso   1.000  H
  C324     1.0000 0.98101  0.20389  0.03339  Biso   1.000  C
  H346     1.0000 0.20555  0.38607  0.38848  Biso   1.000  H
  H347     1.0000 0.23242  0.33660  0.41498  Biso   1.000  H
  H348     1.0000 0.18909  0.36154  0.44569  Biso   1.000  H
  C325     1.0000 0.69660  0.20101  0.10982  Biso   1.000  C
  H349     1.0000 0.11632  0.29743  0.98216  Biso   1.000  H
  H350     1.0000 0.08586  0.32398  0.02813  Biso   1.000  H
  H351     1.0000 0.05776  0.22988  0.98109  Biso   1.000  H
  H352     1.0000 0.10862  0.26003  0.98449  Biso   1.000  H
  H353     1.0000 0.07700  0.26089  0.03791  Biso   1.000  H
  C326     1.0000 0.67332  0.15271  0.19340  Biso   1.000  C
  H354     1.0000 0.73238  0.11593  0.23726  Biso   1.000  H
  H355     1.0000 0.99865  0.23123  0.05571  Biso   1.000  H
  H356     1.0000 0.97729  0.21389  0.99237  Biso   1.000  H
  C327     1.0000 0.01230  0.15851  0.03981  Biso   1.000  C
  C328     1.0000 0.65902  0.18581  0.14239  Biso   1.000  C
  H357     1.0000 0.68857  0.22187  0.07720  Biso   1.000  H
  N31      1.0000 0.63730  0.13750  0.22222  Biso   1.000  N
  C329     1.0000 0.99069  0.11211  0.99470  Biso   1.000  C
  H358     1.0000 0.01408  0.14634  0.08001  Biso   1.000  H
  H359     1.0000 0.04610  0.16731  0.03214  Biso   1.000  H
  N32      1.0000 0.61352  0.19951  0.13261  Biso   1.000  N
  Te16     1.0000 0.57294  0.16810  0.18896  Biso   1.000  Te
  H360     1.0000 0.95765  0.10268  0.00444  Biso   1.000  H
  H361     1.0000 0.98631  0.12586  0.95515  Biso   1.000  H
  C330     1.0000 0.01848  0.06841  0.99393  Biso   1.000  C
  H362     1.0000 0.05162  0.07673  0.98479  Biso   1.000  H
  H363     1.0000 0.00263  0.04557  0.96463  Biso   1.000  H
  H364     1.0000 0.02079  0.05227  0.03180  Biso   1.000  H
  Te17     1.0000 0.42708  0.66808  0.31102  Biso   1.000  Te
  N33      1.0000 0.36269  0.63748  0.27780  Biso   1.000  N
  N34      1.0000 0.38651  0.69949  0.36741  Biso   1.000  N
  C331     1.0000 0.32670  0.65269  0.30662  Biso   1.000  C
  C332     1.0000 0.34100  0.68579  0.35759  Biso   1.000  C
  C333     1.0000 0.27689  0.63801  0.29400  Biso   1.000  C
  C334     1.0000 0.30339  0.70099  0.39020  Biso   1.000  C
  C335     1.0000 0.24139  0.65561  0.32691  Biso   1.000  C
  H365     1.0000 0.26764  0.61591  0.26276  Biso   1.000  H
  C336     1.0000 0.25712  0.68680  0.37642  Biso   1.000  C
  H366     1.0000 0.31142  0.72189  0.42282  Biso   1.000  H
  O33      1.0000 0.19370  0.64130  0.31649  Biso   1.000  O
  O34      1.0000 0.22041  0.69740  0.41261  Biso   1.000  O
  C337     1.0000 0.16272  0.67119  0.27970  Biso   1.000  C
  C338     1.0000 0.20059  0.74439  0.41118  Biso   1.000  C
  C339     1.0000 0.12609  0.69991  0.30029  Biso   1.000  C
  C340     1.0000 0.16570  0.66920  0.22059  Biso   1.000  C
  C341     1.0000 0.22641  0.78558  0.43449  Biso   1.000  C
  C342     1.0000 0.14950  0.74960  0.39020  Biso   1.000  C
  C343     1.0000 0.12160  0.70339  0.36590  Biso   1.000  C
  C344     1.0000 0.09329  0.72661  0.26108  Biso   1.000  C
  C345     1.0000 0.13329  0.69541  0.18302  Biso   1.000  C
  H367     1.0000 0.19054  0.64939  0.20637  Biso   1.000  H
  C346     1.0000 0.20449  0.83082  0.43871  Biso   1.000  C
  H368     1.0000 0.26039  0.78218  0.44793  Biso   1.000  H
  C347     1.0000 0.12971  0.79622  0.39382  Biso   1.000  C
  H369     1.0000 0.13928  0.67366  0.38430  Biso   1.000  H
  C348     1.0000 0.06972  0.70152  0.38180  Biso   1.000  C
  C349     1.0000 0.09660  0.72470  0.20232  Biso   1.000  C
  H370     1.0000 0.06827  0.74634  0.27500  Biso   1.000  H
  O35      1.0000 0.13460  0.68968  0.12361  Biso   1.000  O
  O36      1.0000 0.22919  0.86991  0.46831  Biso   1.000  O
  C350     1.0000 0.15520  0.83849  0.41821  Biso   1.000  C
  H371     1.0000 0.09615  0.80049  0.37879  Biso   1.000  H
  H372     1.0000 0.05272  0.67160  0.36405  Biso   1.000  H
  H373     1.0000 0.05141  0.73151  0.36638  Biso   1.000  H
  C351     1.0000 0.06940  0.69938  0.44781  Biso   1.000  C
  C352     1.0000 0.05951  0.75510  0.16048  Biso   1.000  C
  C353     1.0000 0.17471  0.71181  0.10241  Biso   1.000  C
  C354     1.0000 0.26659  0.89249  0.44341  Biso   1.000  C
  C355     1.0000 0.13040  0.88931  0.42290  Biso   1.000  C
  H374     1.0000 0.08427  0.66733  0.46224  Biso   1.000  H
  H375     1.0000 0.09032  0.72683  0.46560  Biso   1.000  H
  C356     1.0000 0.01901  0.70391  0.46659  Biso   1.000  C
  C357     1.0000 0.08031  0.80899  0.15381  Biso   1.000  C
  H376     1.0000 0.05889  0.73881  0.12193  Biso   1.000  H
  C358     1.0000 0.00869  0.75379  0.17492  Biso   1.000  C
  C359     1.0000 0.16809  0.76068  0.07949  Biso   1.000  C
  C360     1.0000 0.21900  0.68669  0.10159  Biso   1.000  C
  C361     1.0000 0.25650  0.94121  0.41648  Biso   1.000  C
  C362     1.0000 0.31252  0.87298  0.44759  Biso   1.000  C
  H377     1.0000 0.14956  0.90698  0.45599  Biso   1.000  H
  C363     1.0000 0.13638  0.91990  0.37000  Biso   1.000  C
  C364     1.0000 0.07722  0.88519  0.43790  Biso   1.000  C
  H378     1.0000 0.02270  0.71391  0.50765  Biso   1.000  H
  H379     1.0000 0.00134  0.73125  0.44432  Biso   1.000  H
  C365     1.0000 0.98772  0.65849  0.46021  Biso   1.000  C
  C366     1.0000 0.11170  0.81910  0.11271  Biso   1.000  C
  C367     1.0000 0.06771  0.84801  0.18862  Biso   1.000  C
  H380     1.0000 0.00753  0.76978  0.21292  Biso   1.000  H
  H381     1.0000 0.99835  0.71848  0.17798  Biso   1.000  H
  C368     1.0000 0.97142  0.78109  0.12912  Biso   1.000  C
  O37      1.0000 0.12082  0.77911  0.07531  Biso   1.000  O
  C369     1.0000 0.20500  0.78641  0.05760  Biso   1.000  C
  C370     1.0000 0.25990  0.71211  0.08160  Biso   1.000  C
  H382     1.0000 0.22229  0.65291  0.11426  Biso   1.000  H
  O38      1.0000 0.21009  0.96001  0.41799  Biso   1.000  O
  C371     1.0000 0.29271  0.96780  0.39499  Biso   1.000  C
  C372     1.0000 0.35161  0.89938  0.42458  Biso   1.000  C
  H383     1.0000 0.31897  0.84149  0.46590  Biso   1.000  H
  C373     1.0000 0.17671  0.95252  0.36802  Biso   1.000  C
  C374     1.0000 0.10231  0.91601  0.32140  Biso   1.000  C
  H384     1.0000 0.06287  0.91934  0.43703  Biso   1.000  H
  H385     1.0000 0.05780  0.86549  0.40735  Biso   1.000  H
  C375     1.0000 0.07091  0.86239  0.49382  Biso   1.000  C
  C376     1.0000 0.00930  0.61210  0.50532  Biso   1.000  C
  H386     1.0000 0.98591  0.64636  0.41997  Biso   1.000  H
  H387     1.0000 0.95392  0.66729  0.46788  Biso   1.000  H
  C377     1.0000 0.12691  0.86692  0.10280  Biso   1.000  C
  C378     1.0000 0.08341  0.89631  0.18138  Biso   1.000  C
  H388     1.0000 0.04772  0.84119  0.21826  Biso   1.000  H
  H389     1.0000 0.98351  0.81547  0.12309  Biso   1.000  H
  H390     1.0000 0.97006  0.76308  0.09190  Biso   1.000  H
  C379     1.0000 0.92122  0.78409  0.14648  Biso   1.000  C
  C380     1.0000 0.25200  0.76379  0.05941  Biso   1.000  C
  H391     1.0000 0.19921  0.81887  0.04153  Biso   1.000  H
  N35      1.0000 0.30352  0.69219  0.08138  Biso   1.000  N
  C381     1.0000 0.34161  0.94829  0.39779  Biso   1.000  C
  H392     1.0000 0.28534  0.99963  0.37805  Biso   1.000  H
  N36      1.0000 0.39769  0.88081  0.42631  Biso   1.000  N
  C382     1.0000 0.18098  0.98169  0.32058  Biso   1.000  C
  H393     1.0000 0.07555  0.89335  0.32153  Biso   1.000  H
  C383     1.0000 0.10641  0.94510  0.27121  Biso   1.000  C
  H394     1.0000 0.08887  0.88216  0.52544  Biso   1.000  H
  H395     1.0000 0.08426  0.82793  0.49563  Biso   1.000  H
  C384     1.0000 0.01620  0.86130  0.50050  Biso   1.000  C
  H396     1.0000 0.09902  0.87437  0.52087  Biso   1.000  H
  H397     1.0000 0.07617  0.82606  0.48895  Biso   1.000  H
  C385     1.0000 0.02601  0.86699  0.52600  Biso   1.000  C
  H398     1.0000 0.04234  0.60266  0.49558  Biso   1.000  H
  H399     1.0000 0.01367  0.62588  0.54483  Biso   1.000  H
  C386     1.0000 0.98150  0.56840  0.50610  Biso   1.000  C
  H400     1.0000 0.14638  0.87384  0.07268  Biso   1.000  H
  C387     1.0000 0.11291  0.90541  0.13860  Biso   1.000  C
  C388     1.0000 0.06780  0.94009  0.21899  Biso   1.000  C
  H401     1.0000 0.92368  0.79835  0.18582  Biso   1.000  H
  H402     1.0000 0.90834  0.74956  0.14864  Biso   1.000  H
  C389     1.0000 0.88262  0.81539  0.10702  Biso   1.000  C
  N37      1.0000 0.29010  0.78648  0.04140  Biso   1.000  N
  Te18     1.0000 0.34999  0.74230  0.05058  Biso   1.000  Te
  N38      1.0000 0.37730  0.97169  0.37702  Biso   1.000  N
  Te19     1.0000 0.43936  0.92900  0.38956  Biso   1.000  Te
  C390     1.0000 0.14650  0.97678  0.27190  Biso   1.000  C
  H403     1.0000 0.20730  0.00494  0.32080  Biso   1.000  H
  H404     1.0000 0.00340  0.89575  0.49360  Biso   1.000  H
  H405     1.0000 0.00609  0.89680  0.51493  Biso   1.000  H
  C391     1.0000 0.00009  0.81899  0.50502  Biso   1.000  C
  H406     1.0000 0.99989  0.84010  0.46917  Biso   1.000  H
  C392     1.0000 0.99891  0.84329  0.55629  Biso   1.000  C
  H407     1.0000 0.03508  0.86654  0.56861  Biso   1.000  H
  H408     1.0000 0.94836  0.57675  0.51519  Biso   1.000  H
  H409     1.0000 0.99740  0.54559  0.53539  Biso   1.000  H
  H410     1.0000 0.97920  0.55226  0.46823  Biso   1.000  H
  O39      1.0000 0.12640  0.95480  0.12718  Biso   1.000  O
  H411     1.0000 0.06961  0.97139  0.19586  Biso   1.000  H
  C393     1.0000 0.01469  0.93570  0.23321  Biso   1.000  C
  H412     1.0000 0.89761  0.84842  0.10077  Biso   1.000  H
  H413     1.0000 0.87741  0.79854  0.06902  Biso   1.000  H
  C394     1.0000 0.83431  0.82430  0.12572  Biso   1.000  C
  O40      1.0000 0.15029  0.00850  0.22481  Biso   1.000  O
  H414     1.0000 0.02323  0.79049  0.51402  Biso   1.000  H
  H415     1.0000 0.99308  0.82071  0.46258  Biso   1.000  H
  C395     1.0000 0.95202  0.80599  0.52902  Biso   1.000  C
  H416     1.0000 0.01084  0.86710  0.58726  Biso   1.000  H
  H417     1.0000 0.01456  0.81048  0.56637  Biso   1.000  H
  C396     1.0000 0.94353  0.83741  0.55590  Biso   1.000  C
  C397     1.0000 0.17621  0.96858  0.14019  Biso   1.000  C
  H418     1.0000 0.00732  0.96499  0.25669  Biso   1.000  H
  H419     1.0000 0.01195  0.90534  0.25686  Biso   1.000  H
  C398     1.0000 0.97580  0.93290  0.18030  Biso   1.000  C
  C399     1.0000 0.79900  0.85448  0.09138  Biso   1.000  C
  H420     1.0000 0.81901  0.79120  0.13037  Biso   1.000  H
  H421     1.0000 0.83982  0.83969  0.16449  Biso   1.000  H
  C400     1.0000 0.18849  0.99790  0.19219  Biso   1.000  C
  C401     1.0000 0.91672  0.80550  0.50829  Biso   1.000  C
  H422     1.0000 0.93518  0.77442  0.50446  Biso   1.000  H
  H423     1.0000 0.93005  0.83542  0.52299  Biso   1.000  H
  H424     1.0000 0.95975  0.80142  0.57137  Biso   1.000  H
  C402     1.0000 0.92500  0.76001  0.50399  Biso   1.000  C
  H425     1.0000 0.92862  0.87122  0.55349  Biso   1.000  H
  H426     1.0000 0.93727  0.82288  0.59338  Biso   1.000  H
  C403     1.0000 0.21009  0.95888  0.10318  Biso   1.000  C
  H427     1.0000 0.98328  0.95926  0.15286  Biso   1.000  H
  H428     1.0000 0.97933  0.90017  0.16126  Biso   1.000  H
  C404     1.0000 0.92220  0.93870  0.19112  Biso   1.000  C
  H429     1.0000 0.98706  0.95128  0.14747  Biso   1.000  H
  H430     1.0000 0.96940  0.89762  0.16871  Biso   1.000  H
  C405     1.0000 0.92940  0.95701  0.19801  Biso   1.000  C
  H431     1.0000 0.79444  0.88605  0.11150  Biso   1.000  H
  H432     1.0000 0.76760  0.83658  0.08500  Biso   1.000  H
  H433     1.0000 0.81089  0.86152  0.05428  Biso   1.000  H
  C406     1.0000 0.23481  0.01730  0.20430  Biso   1.000  C
  H434     1.0000 0.91416  0.82397  0.47185  Biso   1.000  H
  H435     1.0000 0.88370  0.79745  0.51782  Biso   1.000  H
  H436     1.0000 0.94223  0.72986  0.51894  Biso   1.000  H
  H437     1.0000 0.92302  0.76087  0.46211  Biso   1.000  H
  H438     1.0000 0.89137  0.76004  0.51553  Biso   1.000  H
  C407     1.0000 0.25779  0.97768  0.11628  Biso   1.000  C
  H439     1.0000 0.20138  0.93979  0.06928  Biso   1.000  H
  H440     1.0000 0.91223  0.97371  0.18220  Biso   1.000  H
  H441     1.0000 0.90189  0.91694  0.16341  Biso   1.000  H
  C408     1.0000 0.90980  0.92649  0.25122  Biso   1.000  C
  H442     1.0000 0.90955  0.95915  0.16027  Biso   1.000  H
  H443     1.0000 0.91553  0.92762  0.21684  Biso   1.000  H
  C409     1.0000 0.90501  0.99899  0.22899  Biso   1.000  C
  C410     1.0000 0.27169  0.00809  0.16871  Biso   1.000  C
  H444     1.0000 0.24222  0.03752  0.23765  Biso   1.000  H
  N39      1.0000 0.29332  0.96982  0.08289  Biso   1.000  N
  H445     1.0000 0.93197  0.94626  0.27922  Biso   1.000  H
  H446     1.0000 0.91723  0.89069  0.25893  Biso   1.000  H
  C411     1.0000 0.85671  0.93630  0.26272  Biso   1.000  C
  C412     1.0000 0.89700  0.98899  0.29202  Biso   1.000  C
  H447     1.0000 0.87263  0.00584  0.20749  Biso   1.000  H
  H448     1.0000 0.92549  0.02917  0.22821  Biso   1.000  H
  N40      1.0000 0.31609  0.02561  0.17879  Biso   1.000  N
  Te20     1.0000 0.35632  0.00116  0.11688  Biso   1.000  Te
  H449     1.0000 0.83448  0.91503  0.23666  Biso   1.000  H
  H450     1.0000 0.84848  0.97169  0.25324  Biso   1.000  H
  C413     1.0000 0.84711  0.92619  0.32480  Biso   1.000  C
  H451     1.0000 0.86433  0.97364  0.29236  Biso   1.000  H
  C414     1.0000 0.93502  0.95499  0.32601  Biso   1.000  C
  H452     1.0000 0.89725  0.02134  0.31201  Biso   1.000  H
  H453     1.0000 0.81248  0.93331  0.32890  Biso   1.000  H
  H454     1.0000 0.85426  0.89103  0.33441  Biso   1.000  H
  H455     1.0000 0.86829  0.94780  0.35104  Biso   1.000  H
  H456     1.0000 0.92654  0.95113  0.36534  Biso   1.000  H
  H457     1.0000 0.93484  0.92196  0.30744  Biso   1.000  H
  H458     1.0000 0.96784  0.96982  0.32713  Biso   1.000  H
  Te21     1.0000 0.57293  0.33192  0.68898  Biso   1.000  Te
  N41      1.0000 0.61350  0.30051  0.63259  Biso   1.000  N
  N42      1.0000 0.63732  0.36252  0.72220  Biso   1.000  N
  C415     1.0000 0.65900  0.31421  0.64241  Biso   1.000  C
  C416     1.0000 0.67331  0.34731  0.69342  Biso   1.000  C
  C417     1.0000 0.69662  0.29901  0.60980  Biso   1.000  C
  C418     1.0000 0.72312  0.36199  0.70600  Biso   1.000  C
  C419     1.0000 0.74289  0.31320  0.62358  Biso   1.000  C
  H459     1.0000 0.68859  0.27811  0.57718  Biso   1.000  H
  C420     1.0000 0.75862  0.34439  0.67309  Biso   1.000  C
  H460     1.0000 0.73240  0.38409  0.73724  Biso   1.000  H
  O41      1.0000 0.77960  0.30260  0.58739  Biso   1.000  O
  O42      1.0000 0.80630  0.35870  0.68351  Biso   1.000  O
  C421     1.0000 0.79942  0.25561  0.58882  Biso   1.000  C
  C422     1.0000 0.83733  0.32881  0.72031  Biso   1.000  C
  C423     1.0000 0.77360  0.21442  0.56551  Biso   1.000  C
  C424     1.0000 0.85051  0.25040  0.60980  Biso   1.000  C
  C425     1.0000 0.87392  0.30009  0.69971  Biso   1.000  C
  C426     1.0000 0.83430  0.33080  0.77942  Biso   1.000  C
  C427     1.0000 0.79552  0.16918  0.56129  Biso   1.000  C
  H461     1.0000 0.73965  0.21782  0.55207  Biso   1.000  H
  C428     1.0000 0.87031  0.20378  0.60622  Biso   1.000  C
  C429     1.0000 0.87841  0.29661  0.63410  Biso   1.000  C
  C430     1.0000 0.90672  0.27339  0.73892  Biso   1.000  C
  C431     1.0000 0.86672  0.30459  0.81698  Biso   1.000  C
  H462     1.0000 0.80947  0.35061  0.79363  Biso   1.000  H
  O43      1.0000 0.77082  0.13009  0.53169  Biso   1.000  O
  C432     1.0000 0.84481  0.16151  0.58179  Biso   1.000  C
  H463     1.0000 0.90386  0.19951  0.62121  Biso   1.000  H
  H464     1.0000 0.86072  0.32634  0.61570  Biso   1.000  H
  C433     1.0000 0.93029  0.29848  0.61820  Biso   1.000  C
  C434     1.0000 0.90341  0.27530  0.79768  Biso   1.000  C
  H465     1.0000 0.93173  0.25366  0.72500  Biso   1.000  H
  O44      1.0000 0.86541  0.31032  0.87640  Biso   1.000  O
  C435     1.0000 0.73341  0.10751  0.55659  Biso   1.000  C
  C436     1.0000 0.86961  0.11069  0.57710  Biso   1.000  C
  H466     1.0000 0.94729  0.32840  0.63595  Biso   1.000  H
  H467     1.0000 0.94859  0.26849  0.63362  Biso   1.000  H
  C437     1.0000 0.93061  0.30062  0.55220  Biso   1.000  C
  C438     1.0000 0.94050  0.24490  0.83952  Biso   1.000  C
  C439     1.0000 0.82529  0.28819  0.89759  Biso   1.000  C
  C440     1.0000 0.68753  0.12702  0.55241  Biso   1.000  C
  C441     1.0000 0.74351  0.05879  0.58352  Biso   1.000  C
  C442     1.0000 0.86362  0.08010  0.63000  Biso   1.000  C
  H468     1.0000 0.85045  0.09302  0.54401  Biso   1.000  H
  C443     1.0000 0.92283  0.11481  0.56210  Biso   1.000  C
  H469     1.0000 0.91573  0.33267  0.53776  Biso   1.000  H
  H470     1.0000 0.90969  0.27317  0.53440  Biso   1.000  H
  C444     1.0000 0.98103  0.29609  0.53341  Biso   1.000  C
  C445     1.0000 0.91970  0.19101  0.84619  Biso   1.000  C
  H471     1.0000 0.94112  0.26119  0.87808  Biso   1.000  H
  C446     1.0000 0.99132  0.24621  0.82508  Biso   1.000  C
  C447     1.0000 0.83191  0.23932  0.92051  Biso   1.000  C
  C448     1.0000 0.78101  0.31331  0.89841  Biso   1.000  C
  C449     1.0000 0.64839  0.10062  0.57542  Biso   1.000  C
  H472     1.0000 0.68104  0.15851  0.53410  Biso   1.000  H
  C450     1.0000 0.70730  0.03220  0.60502  Biso   1.000  C
  O45      1.0000 0.78992  0.03999  0.58201  Biso   1.000  O
  C451     1.0000 0.82329  0.04748  0.63199  Biso   1.000  C
  C452     1.0000 0.89770  0.08399  0.67860  Biso   1.000  C
  H473     1.0000 0.93714  0.08066  0.56297  Biso   1.000  H
  H474     1.0000 0.94221  0.13451  0.59265  Biso   1.000  H
  C453     1.0000 0.92909  0.13761  0.50618  Biso   1.000  C
  H475     1.0000 0.97731  0.28609  0.49235  Biso   1.000  H
  H476     1.0000 0.99867  0.26875  0.55569  Biso   1.000  H
  C454     1.0000 0.01229  0.34151  0.53979  Biso   1.000  C
  C455     1.0000 0.93229  0.15199  0.81138  Biso   1.000  C
  C456     1.0000 0.88831  0.18090  0.88730  Biso   1.000  C
  H477     1.0000 0.99251  0.23022  0.78708  Biso   1.000  H
  H478     1.0000 0.00166  0.28152  0.82207  Biso   1.000  H
  C457     1.0000 0.02859  0.21891  0.87092  Biso   1.000  C
  O46      1.0000 0.87919  0.22089  0.92469  Biso   1.000  O
  C458     1.0000 0.79501  0.21359  0.94240  Biso   1.000  C
  C459     1.0000 0.74011  0.28789  0.91840  Biso   1.000  C
  H479     1.0000 0.77772  0.34709  0.88574  Biso   1.000  H
  N43      1.0000 0.60231  0.11919  0.57369  Biso   1.000  N
  C460     1.0000 0.65840  0.05171  0.60221  Biso   1.000  C
  H480     1.0000 0.71467  0.00037  0.62195  Biso   1.000  H
  C461     1.0000 0.81902  0.01831  0.67942  Biso   1.000  C
  C462     1.0000 0.89360  0.05490  0.72879  Biso   1.000  C
  H481     1.0000 0.92446  0.10665  0.67847  Biso   1.000  H
  H482     1.0000 0.91114  0.11784  0.47456  Biso   1.000  H
  H483     1.0000 0.91574  0.17207  0.50437  Biso   1.000  H
  C463     1.0000 0.98380  0.13870  0.49950  Biso   1.000  C
  H484     1.0000 0.90099  0.12563  0.47913  Biso   1.000  H
  H485     1.0000 0.92385  0.17394  0.51109  Biso   1.000  H
  C464     1.0000 0.97400  0.13301  0.47400  Biso   1.000  C
  C465     1.0000 0.99071  0.38790  0.49472  Biso   1.000  C
  H486     1.0000 0.01410  0.35364  0.58003  Biso   1.000  H
  H487     1.0000 0.04608  0.33271  0.53212  Biso   1.000  H
  C466     1.0000 0.91660  0.10369  0.81862  Biso   1.000  C
  H488     1.0000 0.95229  0.15881  0.78174  Biso   1.000  H
  C467     1.0000 0.87310  0.13308  0.89720  Biso   1.000  C
  H489     1.0000 0.01650  0.18453  0.87691  Biso   1.000  H
  H490     1.0000 0.02999  0.23692  0.90810  Biso   1.000  H
  C468     1.0000 0.07882  0.21591  0.85352  Biso   1.000  C
  C469     1.0000 0.74801  0.23621  0.94059  Biso   1.000  C
  H491     1.0000 0.80079  0.18113  0.95847  Biso   1.000  H
  N44      1.0000 0.69653  0.30781  0.91862  Biso   1.000  N
  Te22     1.0000 0.56065  0.07100  0.61044  Biso   1.000  Te
  N45      1.0000 0.62271  0.02831  0.62302  Biso   1.000  N
  C470     1.0000 0.85351  0.02322  0.72810  Biso   1.000  C
  H492     1.0000 0.79274  0.99506  0.67920  Biso   1.000  H
  C471     1.0000 0.93220  0.05991  0.78101  Biso   1.000  C
  H493     1.0000 0.99660  0.10425  0.50640  Biso   1.000  H
  H494     1.0000 0.99391  0.10320  0.48507  Biso   1.000  H
  C472     1.0000 0.99992  0.18101  0.49498  Biso   1.000  C
  H495     1.0000 0.00012  0.15990  0.53083  Biso   1.000  H
  C473     1.0000 0.00110  0.15671  0.44371  Biso   1.000  C
  H496     1.0000 0.96492  0.13346  0.43139  Biso   1.000  H
  H497     1.0000 0.95767  0.39734  0.50446  Biso   1.000  H
  H498     1.0000 0.98634  0.37412  0.45517  Biso   1.000  H
  C474     1.0000 0.01850  0.43160  0.49390  Biso   1.000  C
  C475     1.0000 0.88710  0.09459  0.86140  Biso   1.000  C
  H499     1.0000 0.85363  0.12616  0.92732  Biso   1.000  H
  H500     1.0000 0.07633  0.20165  0.81418  Biso   1.000  H
  H501     1.0000 0.09166  0.25044  0.85136  Biso   1.000  H
  C476     1.0000 0.11739  0.18461  0.89303  Biso   1.000  C
  N46      1.0000 0.70991  0.21352  0.95860  Biso   1.000  N
  Te23     1.0000 0.65002  0.25770  0.94942  Biso   1.000  Te
  O47      1.0000 0.84972  0.99150  0.77519  Biso   1.000  O
  H502     1.0000 0.93040  0.02861  0.80414  Biso   1.000  H
  C477     1.0000 0.98531  0.06430  0.76679  Biso   1.000  C
  H503     1.0000 0.97678  0.20951  0.48598  Biso   1.000  H
  H504     1.0000 0.00693  0.17929  0.53742  Biso   1.000  H
  C478     1.0000 0.04799  0.19401  0.47098  Biso   1.000  C
  H505     1.0000 0.98917  0.13290  0.41274  Biso   1.000  H
  H506     1.0000 0.98546  0.18952  0.43367  Biso   1.000  H
  C479     1.0000 0.05652  0.16259  0.44410  Biso   1.000  C
  H507     1.0000 0.05165  0.42325  0.48481  Biso   1.000  H
  H508     1.0000 0.00265  0.45441  0.46461  Biso   1.000  H
  H509     1.0000 0.02081  0.44774  0.53177  Biso   1.000  H
  O48      1.0000 0.87361  0.04520  0.87282  Biso   1.000  O
  H510     1.0000 0.10240  0.15158  0.89923  Biso   1.000  H
  H511     1.0000 0.12260  0.20146  0.93098  Biso   1.000  H
  C480     1.0000 0.16570  0.17570  0.87428  Biso   1.000  C
  C481     1.0000 0.81152  0.00210  0.80781  Biso   1.000  C
  H512     1.0000 0.99269  0.03501  0.74331  Biso   1.000  H
  H513     1.0000 0.98806  0.09466  0.74314  Biso   1.000  H
  C482     1.0000 0.02421  0.06710  0.81970  Biso   1.000  C
  C483     1.0000 0.08328  0.19450  0.49171  Biso   1.000  C
  H514     1.0000 0.06483  0.22558  0.49554  Biso   1.000  H
  H515     1.0000 0.06996  0.16458  0.47702  Biso   1.000  H
  H516     1.0000 0.04026  0.19858  0.42863  Biso   1.000  H
  C484     1.0000 0.07501  0.23999  0.49602  Biso   1.000  C
  H517     1.0000 0.07139  0.12878  0.44651  Biso   1.000  H
  H518     1.0000 0.06274  0.17712  0.40662  Biso   1.000  H
  C485     1.0000 0.82380  0.03142  0.85981  Biso   1.000  C
  C486     1.0000 0.20101  0.14552  0.90862  Biso   1.000  C
  H519     1.0000 0.18103  0.20880  0.86963  Biso   1.000  H
  H520     1.0000 0.16019  0.16031  0.83551  Biso   1.000  H
  C487     1.0000 0.76520  0.98270  0.79570  Biso   1.000  C
  H521     1.0000 0.01673  0.04074  0.84714  Biso   1.000  H
  H522     1.0000 0.02067  0.09983  0.83874  Biso   1.000  H
  C488     1.0000 0.07781  0.06130  0.80888  Biso   1.000  C
  H523     1.0000 0.01295  0.04872  0.85253  Biso   1.000  H
  H524     1.0000 0.03061  0.10238  0.83129  Biso   1.000  H
  C489     1.0000 0.07061  0.04299  0.80199  Biso   1.000  C
  H525     1.0000 0.08585  0.17603  0.52816  Biso   1.000  H
  H526     1.0000 0.11631  0.20255  0.48219  Biso   1.000  H
  H527     1.0000 0.05778  0.27014  0.48107  Biso   1.000  H
  H528     1.0000 0.07702  0.23913  0.53789  Biso   1.000  H
  H529     1.0000 0.10864  0.23996  0.48447  Biso   1.000  H
  C490     1.0000 0.78992  0.04112  0.89682  Biso   1.000  C
  H530     1.0000 0.20557  0.11395  0.88850  Biso   1.000  H
  H531     1.0000 0.23241  0.16342  0.91500  Biso   1.000  H
  H532     1.0000 0.18912  0.13848  0.94572  Biso   1.000  H
  C491     1.0000 0.72832  0.99191  0.83129  Biso   1.000  C
  H533     1.0000 0.75779  0.96248  0.76240  Biso   1.000  H
  H534     1.0000 0.08778  0.02629  0.81780  Biso   1.000  H
  H535     1.0000 0.09812  0.08306  0.83659  Biso   1.000  H
  C492     1.0000 0.09021  0.07351  0.74878  Biso   1.000  C
  H536     1.0000 0.09046  0.04085  0.83973  Biso   1.000  H
  H537     1.0000 0.08448  0.07238  0.78316  Biso   1.000  H
  C493     1.0000 0.09500  0.00101  0.77101  Biso   1.000  C
  C494     1.0000 0.74222  0.02232  0.88372  Biso   1.000  C
  H538     1.0000 0.79863  0.06021  0.93072  Biso   1.000  H
  N47      1.0000 0.68392  0.97439  0.82121  Biso   1.000  N
  H539     1.0000 0.06804  0.05374  0.72078  Biso   1.000  H
  H540     1.0000 0.08277  0.10931  0.74107  Biso   1.000  H
  C495     1.0000 0.14330  0.06370  0.73732  Biso   1.000  C
  H541     1.0000 0.12738  0.99416  0.79251  Biso   1.000  H
  H542     1.0000 0.07452  0.97083  0.77179  Biso   1.000  H
  C496     1.0000 0.10301  0.01101  0.70798  Biso   1.000  C
  N48      1.0000 0.70673  0.03018  0.91711  Biso   1.000  N
  Te24     1.0000 0.64369  0.99884  0.88312  Biso   1.000  Te
  H543     1.0000 0.16556  0.08497  0.76339  Biso   1.000  H
  H544     1.0000 0.15153  0.02831  0.74676  Biso   1.000  H
  C497     1.0000 0.15290  0.07381  0.67520  Biso   1.000  C
  H545     1.0000 0.13567  0.02636  0.70764  Biso   1.000  H
  H546     1.0000 0.10275  0.97866  0.68799  Biso   1.000  H
  C498     1.0000 0.06499  0.04501  0.67399  Biso   1.000  C
  H547     1.0000 0.18753  0.06669  0.67115  Biso   1.000  H
  H548     1.0000 0.14575  0.10897  0.66559  Biso   1.000  H
  H549     1.0000 0.13171  0.05220  0.64896  Biso   1.000  H
  H550     1.0000 0.07347  0.04887  0.63466  Biso   1.000  H
  H551     1.0000 0.06517  0.07804  0.69256  Biso   1.000  H
  H552     1.0000 0.03217  0.03018  0.67287  Biso   1.000  H
  N49      1.0000 0.52162  0.25961  0.62789  Biso   1.000  N
  C499     1.0000 0.48051  0.23610  0.62871  Biso   1.000  C
  Te25     1.0000 0.57162  0.21157  0.60028  Biso   1.000  Te
  C500     1.0000 0.47579  0.18341  0.61010  Biso   1.000  C
  C501     1.0000 0.43539  0.25961  0.64599  Biso   1.000  C
  N50      1.0000 0.51619  0.16222  0.59429  Biso   1.000  N
  C502     1.0000 0.43130  0.15690  0.61152  Biso   1.000  C
  C503     1.0000 0.39541  0.23340  0.64711  Biso   1.000  C
  H553     1.0000 0.43573  0.29395  0.65633  Biso   1.000  H
  C504     1.0000 0.39181  0.18150  0.63052  Biso   1.000  C
  H554     1.0000 0.42857  0.12286  0.59959  Biso   1.000  H
  O49      1.0000 0.35149  0.25531  0.66210  Biso   1.000  O
  O50      1.0000 0.34640  0.15660  0.63082  Biso   1.000  O
  C505     1.0000 0.34879  0.26130  0.72121  Biso   1.000  C
  C506     1.0000 0.34161  0.12500  0.67739  Biso   1.000  C
  C507     1.0000 0.31630  0.23112  0.74659  Biso   1.000  C
  C508     1.0000 0.37552  0.29811  0.75128  Biso   1.000  C
  C509     1.0000 0.36391  0.07841  0.68020  Biso   1.000  C
  C510     1.0000 0.30982  0.14050  0.71772  Biso   1.000  C
  C511     1.0000 0.28549  0.19139  0.71302  Biso   1.000  C
  C512     1.0000 0.31160  0.23992  0.80501  Biso   1.000  C
  H555     1.0000 0.39709  0.31870  0.73258  Biso   1.000  H
  C513     1.0000 0.37072  0.30530  0.81052  Biso   1.000  C
  C514     1.0000 0.35689  0.04699  0.72461  Biso   1.000  C
  H556     1.0000 0.38387  0.06838  0.65163  Biso   1.000  H
  C515     1.0000 0.30392  0.10668  0.76059  Biso   1.000  C
  H557     1.0000 0.28443  0.20120  0.67154  Biso   1.000  H
  C516     1.0000 0.23179  0.18922  0.72530  Biso   1.000  C
  H558     1.0000 0.28921  0.21992  0.82319  Biso   1.000  H
  C517     1.0000 0.33821  0.27639  0.83719  Biso   1.000  C
  O51      1.0000 0.39440  0.34570  0.83909  Biso   1.000  O
  C518     1.0000 0.32530  0.05920  0.76731  Biso   1.000  C
  O52      1.0000 0.37651  0.99850  0.72660  Biso   1.000  O
  H559     1.0000 0.28309  0.11650  0.78846  Biso   1.000  H
  H560     1.0000 0.23103  0.18532  0.76731  Biso   1.000  H
  H561     1.0000 0.21604  0.15918  0.70622  Biso   1.000  H
  C519     1.0000 0.20200  0.23460  0.70518  Biso   1.000  C
  C520     1.0000 0.33239  0.28571  0.90052  Biso   1.000  C
  C521     1.0000 0.44561  0.34278  0.85291  Biso   1.000  C
  C522     1.0000 0.31792  0.02340  0.81509  Biso   1.000  C
  C523     1.0000 0.42782  0.99270  0.74030  Biso   1.000  C
  H562     1.0000 0.21589  0.26433  0.72655  Biso   1.000  H
  H563     1.0000 0.20457  0.24007  0.66374  Biso   1.000  H
  C524     1.0000 0.14810  0.22898  0.71410  Biso   1.000  C
  H564     1.0000 0.22347  0.26347  0.71716  Biso   1.000  H
  H565     1.0000 0.19966  0.23348  0.66262  Biso   1.000  H
  C525     1.0000 0.15090  0.24980  0.71901  Biso   1.000  C
  C526     1.0000 0.36902  0.25239  0.93671  Biso   1.000  C
  H566     1.0000 0.34290  0.32106  0.90901  Biso   1.000  H
  C527     1.0000 0.27940  0.28111  0.91560  Biso   1.000  C
  C528     1.0000 0.46321  0.32911  0.91190  Biso   1.000  C
  C529     1.0000 0.47652  0.35799  0.81651  Biso   1.000  C
  C530     1.0000 0.35559  0.03471  0.86679  Biso   1.000  C
  C531     1.0000 0.26402  0.02419  0.82982  Biso   1.000  C
  H567     1.0000 0.32477  0.98895  0.80139  Biso   1.000  H
  C532     1.0000 0.44469  0.97611  0.79902  Biso   1.000  C
  C533     1.0000 0.45959  0.99719  0.70049  Biso   1.000  C
  H568     1.0000 0.14527  0.23157  0.75585  Biso   1.000  H
  H569     1.0000 0.13696  0.19502  0.70148  Biso   1.000  H
  C534     1.0000 0.11380  0.26710  0.68252  Biso   1.000  C
  C535     1.0000 0.11710  0.20899  0.69101  Biso   1.000  C
  H570     1.0000 0.14953  0.25111  0.76067  Biso   1.000  H
  H571     1.0000 0.14160  0.28294  0.70178  Biso   1.000  H
  C536     1.0000 0.35600  0.20281  0.95089  Biso   1.000  C
  C537     1.0000 0.41522  0.26890  0.95812  Biso   1.000  C
  H572     1.0000 0.26888  0.24568  0.91138  Biso   1.000  H
  H573     1.0000 0.25734  0.30122  0.88790  Biso   1.000  H
  C538     1.0000 0.27399  0.29848  0.97639  Biso   1.000  C
  O53      1.0000 0.42842  0.31919  0.94972  Biso   1.000  O
  C539     1.0000 0.51082  0.32941  0.93141  Biso   1.000  C
  C540     1.0000 0.52879  0.35810  0.83361  Biso   1.000  C
  H574     1.0000 0.46393  0.36896  0.77894  Biso   1.000  H
  C541     1.0000 0.34731  0.07111  0.90810  Biso   1.000  C
  C542     1.0000 0.40041  0.00970  0.87381  Biso   1.000  C
  H575     1.0000 0.24118  0.01794  0.79441  Biso   1.000  H
  H576     1.0000 0.25639  0.05752  0.84494  Biso   1.000  H
  C543     1.0000 0.25679  0.98360  0.87510  Biso   1.000  C
  O54      1.0000 0.40812  0.97060  0.83581  Biso   1.000  O
  C544     1.0000 0.49081  0.96439  0.81530  Biso   1.000  C
  H577     1.0000 0.44851  0.00756  0.66227  Biso   1.000  H
  C545     1.0000 0.50992  0.98611  0.71750  Biso   1.000  C
  C546     1.0000 0.05970  0.25819  0.68911  Biso   1.000  C
  H578     1.0000 0.12320  0.30095  0.69713  Biso   1.000  H
  H579     1.0000 0.11804  0.26620  0.64103  Biso   1.000  H
  H580     1.0000 0.12539  0.17723  0.71160  Biso   1.000  H
  H581     1.0000 0.12446  0.20438  0.65068  Biso   1.000  H
  C547     1.0000 0.06210  0.21801  0.69002  Biso   1.000  C
  C548     1.0000 0.38781  0.17162  0.98531  Biso   1.000  C
  H582     1.0000 0.32443  0.19049  0.93628  Biso   1.000  H
  C549     1.0000 0.44979  0.23838  0.99061  Biso   1.000  C
  H583     1.0000 0.28594  0.33342  0.98104  Biso   1.000  H
  C550     1.0000 0.22199  0.29620  0.99069  Biso   1.000  C
  H584     1.0000 0.29503  0.27740  0.00409  Biso   1.000  H
  H585     1.0000 0.52106  0.32054  0.97036  Biso   1.000  H
  C551     1.0000 0.54832  0.34338  0.89328  Biso   1.000  C
  N51      1.0000 0.56199  0.37042  0.79889  Biso   1.000  N
  C552     1.0000 0.38281  0.08081  0.95562  Biso   1.000  C
  H586     1.0000 0.31734  0.08946  0.90397  Biso   1.000  H
  C553     1.0000 0.43640  0.02000  0.91922  Biso   1.000  C
  H587     1.0000 0.26789  0.95087  0.86140  Biso   1.000  H
  H588     1.0000 0.27753  0.99180  0.91155  Biso   1.000  H
  C554     1.0000 0.20252  0.97959  0.88652  Biso   1.000  C
  H589     1.0000 0.50056  0.95267  0.85330  Biso   1.000  H
  C555     1.0000 0.52680  0.96959  0.77519  Biso   1.000  C
  N52      1.0000 0.54432  0.99251  0.68162  Biso   1.000  N
  C556     1.0000 0.03762  0.20831  0.66809  Biso   1.000  C
  H590     1.0000 0.04027  0.28523  0.66830  Biso   1.000  H
  H591     1.0000 0.05562  0.26160  0.73043  Biso   1.000  H
  H592     1.0000 0.05498  0.24988  0.66865  Biso   1.000  H
  H593     1.0000 0.05554  0.18098  0.68920  Biso   1.000  H
  H594     1.0000 0.05621  0.22430  0.73004  Biso   1.000  H
  C557     1.0000 0.02249  0.18101  0.66499  Biso   1.000  C
  C558     1.0000 0.37241  0.11930  0.00211  Biso   1.000  C
  C559     1.0000 0.43443  0.19041  0.00371  Biso   1.000  C
  H595     1.0000 0.48217  0.24992  0.00302  Biso   1.000  H
  H596     1.0000 0.20073  0.31706  0.96299  Biso   1.000  H
  H597     1.0000 0.21005  0.26126  0.98695  Biso   1.000  H
  C560     1.0000 0.21820  0.31470  0.05170  Biso   1.000  C
  N53      1.0000 0.59472  0.34230  0.90802  Biso   1.000  N
  Te26     1.0000 0.62925  0.36259  0.84025  Biso   1.000  Te
  C561     1.0000 0.42532  0.05531  0.95929  Biso   1.000  C
  H598     1.0000 0.46748  0.00359  0.92275  Biso   1.000  H
  H599     1.0000 0.19021  0.01322  0.89548  Biso   1.000  H
  C562     1.0000 0.19642  0.94462  0.93572  Biso   1.000  C
  H600     1.0000 0.18241  0.96731  0.85128  Biso   1.000  H
  N54      1.0000 0.57421  0.95930  0.78872  Biso   1.000  N
  Te27     1.0000 0.61022  0.97506  0.72112  Biso   1.000  Te
  H601     1.0000 0.00287  0.20715  0.67468  Biso   1.000  H
  H602     1.0000 0.04013  0.20468  0.62682  Biso   1.000  H
  H603     1.0000 0.02672  0.14949  0.68636  Biso   1.000  H
  H604     1.0000 0.02547  0.17529  0.62440  Biso   1.000  H
  H605     1.0000 0.98996  0.19509  0.66921  Biso   1.000  H
  H606     1.0000 0.39426  0.11009  0.03791  Biso   1.000  H
  C563     1.0000 0.31982  0.11829  0.01788  Biso   1.000  C
  O55      1.0000 0.46652  0.15960  0.03951  Biso   1.000  O
  H607     1.0000 0.24122  0.29459  0.07833  Biso   1.000  H
  H608     1.0000 0.18451  0.30713  0.06079  Biso   1.000  H
  C564     1.0000 0.22831  0.36959  0.06562  Biso   1.000  C
  O56      1.0000 0.45980  0.06239  0.00900  Biso   1.000  O
  H609     1.0000 0.21070  0.91174  0.92719  Biso   1.000  H
  H610     1.0000 0.21575  0.95791  0.97083  Biso   1.000  H
  C565     1.0000 0.14409  0.93619  0.94860  Biso   1.000  C
  H611     1.0000 0.29726  0.13162  0.98518  Biso   1.000  H
  H612     1.0000 0.31021  0.08324  0.02447  Biso   1.000  H
  C566     1.0000 0.31410  0.14930  0.07191  Biso   1.000  C
  C567     1.0000 0.50531  0.13930  0.01642  Biso   1.000  C
  H613     1.0000 0.26029  0.37952  0.05299  Biso   1.000  H
  H614     1.0000 0.23016  0.37506  0.10766  Biso   1.000  H
  C568     1.0000 0.18741  0.40109  0.03468  Biso   1.000  C
  H615     1.0000 0.26422  0.37514  0.07466  Biso   1.000  H
  H616     1.0000 0.21211  0.37952  0.09957  Biso   1.000  H
  C569     1.0000 0.20801  0.40090  0.01400  Biso   1.000  C
  C570     1.0000 0.50392  0.08680  0.00000  Biso   1.000  C
  H617     1.0000 0.12459  0.92192  0.91405  Biso   1.000  H
  H618     1.0000 0.14426  0.91148  0.98018  Biso   1.000  H
  C571     1.0000 0.11931  0.98468  0.96601  Biso   1.000  C
  H619     1.0000 0.33509  0.17952  0.07117  Biso   1.000  H
  H620     1.0000 0.32732  0.12938  0.10598  Biso   1.000  H
  C572     1.0000 0.26323  0.16600  0.08039  Biso   1.000  C
  C573     1.0000 0.54620  0.16649  0.01090  Biso   1.000  C
  H621     1.0000 0.18594  0.39577  0.99311  Biso   1.000  H
  H622     1.0000 0.19371  0.43655  0.04351  Biso   1.000  H
  H623     1.0000 0.15590  0.39131  0.04765  Biso   1.000  H
  H624     1.0000 0.21483  0.43640  0.02215  Biso   1.000  H
  H625     1.0000 0.17293  0.39539  0.00521  Biso   1.000  H
  H626     1.0000 0.22486  0.39105  0.98035  Biso   1.000  H
  C574     1.0000 0.54260  0.06239  0.98199  Biso   1.000  C
  H627     1.0000 0.11274  0.00655  0.93227  Biso   1.000  H
  H628     1.0000 0.14120  0.00195  0.99595  Biso   1.000  H
  H629     1.0000 0.08822  0.97652  0.98087  Biso   1.000  H
  C575     1.0000 0.22742  0.12380  0.08660  Biso   1.000  C
  H630     1.0000 0.26513  0.18716  0.11538  Biso   1.000  H
  H631     1.0000 0.25016  0.18701  0.04722  Biso   1.000  H
  C576     1.0000 0.58942  0.14278  0.99031  Biso   1.000  C
  H632     1.0000 0.54705  0.20112  0.02038  Biso   1.000  H
  C577     1.0000 0.58701  0.08938  0.97760  Biso   1.000  C
  H633     1.0000 0.54017  0.02782  0.97234  Biso   1.000  H
  H634     1.0000 0.22618  0.10170  0.05248  Biso   1.000  H
  H635     1.0000 0.23918  0.10373  0.12102  Biso   1.000  H
  C578     1.0000 0.17590  0.14319  0.09228  Biso   1.000  C
  N55      1.0000 0.63141  0.16660  0.98479  Biso   1.000  N
  N56      1.0000 0.62659  0.06789  0.96269  Biso   1.000  N
  H636     1.0000 0.16347  0.16094  0.05631  Biso   1.000  H
  H637     1.0000 0.17807  0.16791  0.12404  Biso   1.000  H
  C579     1.0000 0.13912  0.10339  0.10379  Biso   1.000  C
  Te28     1.0000 0.68083  0.11919  0.96192  Biso   1.000  Te
  H638     1.0000 0.15099  0.07059  0.09267  Biso   1.000  H
  H639     1.0000 0.13502  0.10320  0.14485  Biso   1.000  H
  H640     1.0000 0.10737  0.11058  0.08121  Biso   1.000  H
  N57      1.0000 0.47839  0.74039  0.37211  Biso   1.000  N
  C580     1.0000 0.51950  0.76390  0.37129  Biso   1.000  C
  Te29     1.0000 0.42838  0.78843  0.39972  Biso   1.000  Te
  C581     1.0000 0.56462  0.74039  0.35401  Biso   1.000  C
  C582     1.0000 0.52422  0.81659  0.38990  Biso   1.000  C
  N58      1.0000 0.48382  0.83778  0.40571  Biso   1.000  N
  C583     1.0000 0.60460  0.76660  0.35289  Biso   1.000  C
  H641     1.0000 0.56427  0.70605  0.34367  Biso   1.000  H
  C584     1.0000 0.56871  0.84310  0.38852  Biso   1.000  C
  O57      1.0000 0.64852  0.74469  0.33790  Biso   1.000  O
  C585     1.0000 0.60820  0.81850  0.36948  Biso   1.000  C
  H642     1.0000 0.57144  0.87714  0.40041  Biso   1.000  H
  C586     1.0000 0.65121  0.73870  0.27879  Biso   1.000  C
  O58      1.0000 0.65361  0.84340  0.36922  Biso   1.000  O
  C587     1.0000 0.62453  0.70189  0.24872  Biso   1.000  C
  C588     1.0000 0.68371  0.76888  0.25341  Biso   1.000  C
  C589     1.0000 0.65840  0.87500  0.32261  Biso   1.000  C
  C590     1.0000 0.62929  0.69470  0.18952  Biso   1.000  C
  H643     1.0000 0.60292  0.68130  0.26742  Biso   1.000  H
  C591     1.0000 0.68841  0.76008  0.19499  Biso   1.000  C
  C592     1.0000 0.71452  0.80861  0.28702  Biso   1.000  C
  C593     1.0000 0.69019  0.85950  0.28228  Biso   1.000  C
  C594     1.0000 0.63610  0.92159  0.31981  Biso   1.000  C
  O59      1.0000 0.60561  0.65430  0.16092  Biso   1.000  O
  C595     1.0000 0.66180  0.72361  0.16281  Biso   1.000  C
  H644     1.0000 0.71080  0.78008  0.17681  Biso   1.000  H
  H645     1.0000 0.71557  0.79880  0.32847  Biso   1.000  H
  C596     1.0000 0.76822  0.81078  0.27470  Biso   1.000  C
  C597     1.0000 0.69613  0.89332  0.23941  Biso   1.000  C
  C598     1.0000 0.64312  0.95301  0.27539  Biso   1.000  C
  H646     1.0000 0.61614  0.93162  0.34837  Biso   1.000  H
  C599     1.0000 0.55440  0.65722  0.14709  Biso   1.000  C
  C600     1.0000 0.66762  0.71429  0.09952  Biso   1.000  C
  H647     1.0000 0.76898  0.81468  0.23273  Biso   1.000  H
  H648     1.0000 0.78397  0.84082  0.29378  Biso   1.000  H
  C601     1.0000 0.79801  0.76540  0.29482  Biso   1.000  C
  C602     1.0000 0.67471  0.94080  0.23269  Biso   1.000  C
  H649     1.0000 0.71692  0.88350  0.21154  Biso   1.000  H
  O60      1.0000 0.62349  0.00150  0.27340  Biso   1.000  O
  C603     1.0000 0.52349  0.64201  0.18349  Biso   1.000  C
  C604     1.0000 0.53680  0.67089  0.08810  Biso   1.000  C
  C605     1.0000 0.63102  0.74761  0.06329  Biso   1.000  C
  H650     1.0000 0.65711  0.67894  0.09103  Biso   1.000  H
  C606     1.0000 0.72060  0.71889  0.08440  Biso   1.000  C
  H651     1.0000 0.78412  0.73567  0.27345  Biso   1.000  H
  H652     1.0000 0.79544  0.75993  0.33626  Biso   1.000  H
  C607     1.0000 0.85191  0.77102  0.28590  Biso   1.000  C
  H653     1.0000 0.77654  0.73653  0.28284  Biso   1.000  H
  H654     1.0000 0.80035  0.76652  0.33738  Biso   1.000  H
  C608     1.0000 0.84911  0.75020  0.28099  Biso   1.000  C
  C609     1.0000 0.68209  0.97660  0.18491  Biso   1.000  C
  C610     1.0000 0.57222  0.00730  0.25970  Biso   1.000  C
  C611     1.0000 0.47122  0.64190  0.16639  Biso   1.000  C
  H655     1.0000 0.53611  0.63104  0.22106  Biso   1.000  H
  C612     1.0000 0.48919  0.67059  0.06859  Biso   1.000  C
  O61      1.0000 0.57159  0.68081  0.05032  Biso   1.000  O
  C613     1.0000 0.58480  0.73110  0.04192  Biso   1.000  C
  C614     1.0000 0.64401  0.79719  0.04911  Biso   1.000  C
  H656     1.0000 0.73112  0.75432  0.08862  Biso   1.000  H
  H657     1.0000 0.74266  0.69878  0.11210  Biso   1.000  H
  C615     1.0000 0.72602  0.70152  0.02361  Biso   1.000  C
  H658     1.0000 0.85473  0.76843  0.24415  Biso   1.000  H
  H659     1.0000 0.86305  0.80498  0.29852  Biso   1.000  H
  C616     1.0000 0.88621  0.73290  0.31752  Biso   1.000  C
  C617     1.0000 0.88291  0.79101  0.30899  Biso   1.000  C
  H660     1.0000 0.85048  0.74889  0.23933  Biso   1.000  H
  H661     1.0000 0.85841  0.71706  0.29822  Biso   1.000  H
  C618     1.0000 0.64441  0.96529  0.13321  Biso   1.000  C
  C619     1.0000 0.73600  0.97581  0.17022  Biso   1.000  C
  H662     1.0000 0.67527  0.01105  0.19861  Biso   1.000  H
  C620     1.0000 0.55531  0.02389  0.20098  Biso   1.000  C
  C621     1.0000 0.54041  0.00281  0.29951  Biso   1.000  C
  N59      1.0000 0.43802  0.62958  0.20111  Biso   1.000  N
  C622     1.0000 0.45172  0.65662  0.10672  Biso   1.000  C
  H663     1.0000 0.47895  0.67946  0.02964  Biso   1.000  H
  C623     1.0000 0.55022  0.76162  0.00939  Biso   1.000  C
  C624     1.0000 0.61220  0.82838  0.01469  Biso   1.000  C
  H664     1.0000 0.67558  0.80951  0.06372  Biso   1.000  H
  H665     1.0000 0.71406  0.66658  0.01896  Biso   1.000  H
  C625     1.0000 0.77802  0.70380  0.00931  Biso   1.000  C
  H666     1.0000 0.70498  0.72260  0.99591  Biso   1.000  H
  C626     1.0000 0.94031  0.74181  0.31089  Biso   1.000  C
  H667     1.0000 0.87681  0.69905  0.30292  Biso   1.000  H
  H668     1.0000 0.88196  0.73380  0.35897  Biso   1.000  H
  H669     1.0000 0.87462  0.82277  0.28840  Biso   1.000  H
  H670     1.0000 0.87554  0.79562  0.34932  Biso   1.000  H
  C627     1.0000 0.93791  0.78199  0.30998  Biso   1.000  C
  C628     1.0000 0.65270  0.92889  0.09190  Biso   1.000  C
  C629     1.0000 0.59959  0.99030  0.12619  Biso   1.000  C
  H671     1.0000 0.75886  0.98206  0.20559  Biso   1.000  H
  H672     1.0000 0.74362  0.94248  0.15506  Biso   1.000  H
  C630     1.0000 0.74322  0.01640  0.12490  Biso   1.000  C
  O62      1.0000 0.59189  0.02940  0.16419  Biso   1.000  O
  C631     1.0000 0.50920  0.03561  0.18470  Biso   1.000  C
  H673     1.0000 0.55150  0.99244  0.33773  Biso   1.000  H
  C632     1.0000 0.49009  0.01389  0.28250  Biso   1.000  C
  Te30     1.0000 0.37076  0.63741  0.15975  Biso   1.000  Te
  N60      1.0000 0.40529  0.65770  0.09198  Biso   1.000  N
  C633     1.0000 0.56558  0.80959  0.99629  Biso   1.000  C
  H674     1.0000 0.51784  0.75008  0.99698  Biso   1.000  H
  C634     1.0000 0.62760  0.88070  0.99789  Biso   1.000  C
  H675     1.0000 0.79928  0.68294  0.03701  Biso   1.000  H
  H676     1.0000 0.78996  0.73874  0.01305  Biso   1.000  H
  C635     1.0000 0.78180  0.68530  0.94830  Biso   1.000  C
  C636     1.0000 0.96243  0.79169  0.33191  Biso   1.000  C
  H677     1.0000 0.95974  0.71477  0.33170  Biso   1.000  H
  H678     1.0000 0.94442  0.73840  0.26957  Biso   1.000  H
  H679     1.0000 0.94503  0.75012  0.33135  Biso   1.000  H
  H680     1.0000 0.94447  0.81902  0.31080  Biso   1.000  H
  H681     1.0000 0.94380  0.77570  0.26996  Biso   1.000  H
  C637     1.0000 0.97752  0.81899  0.33501  Biso   1.000  C
  C638     1.0000 0.61720  0.91919  0.04442  Biso   1.000  C
  H682     1.0000 0.68267  0.91054  0.09603  Biso   1.000  H
  C639     1.0000 0.56361  0.98000  0.08078  Biso   1.000  C
  H683     1.0000 0.73212  0.04913  0.13860  Biso   1.000  H
  H684     1.0000 0.72247  0.00820  0.08845  Biso   1.000  H
  C640     1.0000 0.79749  0.02041  0.11348  Biso   1.000  C
  H685     1.0000 0.49946  0.04733  0.14674  Biso   1.000  H
  C641     1.0000 0.47321  0.03041  0.22481  Biso   1.000  C
  N61      1.0000 0.45569  0.00749  0.31838  Biso   1.000  N
  O63      1.0000 0.53349  0.84040  0.96049  Biso   1.000  O
  H686     1.0000 0.60575  0.88991  0.96213  Biso   1.000  H
  C642     1.0000 0.68018  0.88171  0.98212  Biso   1.000  C
  H687     1.0000 0.75879  0.70541  0.92168  Biso   1.000  H
  H688     1.0000 0.81549  0.69287  0.93921  Biso   1.000  H
  C643     1.0000 0.77170  0.63041  0.93438  Biso   1.000  C
  H689     1.0000 0.99714  0.79285  0.32532  Biso   1.000  H
  H690     1.0000 0.95988  0.79532  0.37319  Biso   1.000  H
  H691     1.0000 0.97328  0.85051  0.31364  Biso   1.000  H
  H692     1.0000 0.97454  0.82471  0.37560  Biso   1.000  H
  H693     1.0000 0.01009  0.80491  0.33079  Biso   1.000  H
  C644     1.0000 0.57473  0.94469  0.04071  Biso   1.000  C
  H694     1.0000 0.53253  0.99641  0.07725  Biso   1.000  H
  H695     1.0000 0.80979  0.98678  0.10452  Biso   1.000  H
  C645     1.0000 0.80359  0.05538  0.06428  Biso   1.000  C
  H696     1.0000 0.81761  0.03269  0.14877  Biso   1.000  H
  N62      1.0000 0.42580  0.04070  0.21132  Biso   1.000  N
  Te31     1.0000 0.38979  0.02494  0.27888  Biso   1.000  Te
  C646     1.0000 0.49469  0.86070  0.98359  Biso   1.000  C
  H697     1.0000 0.70278  0.86838  0.01482  Biso   1.000  H
  H698     1.0000 0.68981  0.91676  0.97557  Biso   1.000  H
  C647     1.0000 0.68591  0.85070  0.92809  Biso   1.000  C
  H699     1.0000 0.73972  0.62048  0.94701  Biso   1.000  H
  H700     1.0000 0.76985  0.62494  0.89234  Biso   1.000  H
  C648     1.0000 0.81259  0.59891  0.96532  Biso   1.000  C
  H701     1.0000 0.73578  0.62486  0.92534  Biso   1.000  H
  H702     1.0000 0.78790  0.62048  0.90044  Biso   1.000  H
  C649     1.0000 0.79199  0.59910  0.98600  Biso   1.000  C
  O64      1.0000 0.54021  0.93761  0.99100  Biso   1.000  O
  H703     1.0000 0.78931  0.08826  0.07281  Biso   1.000  H
  H704     1.0000 0.78426  0.04209  0.02917  Biso   1.000  H
  C650     1.0000 0.85592  0.06381  0.05140  Biso   1.000  C
  C651     1.0000 0.49612  0.91320  0.00000  Biso   1.000  C
  C652     1.0000 0.45380  0.83351  0.98910  Biso   1.000  C
  H705     1.0000 0.66492  0.82048  0.92883  Biso   1.000  H
  H706     1.0000 0.67268  0.87062  0.89402  Biso   1.000  H
  C653     1.0000 0.73682  0.83400  0.91961  Biso   1.000  C
  H707     1.0000 0.81407  0.60423  0.00689  Biso   1.000  H
  H708     1.0000 0.80629  0.56345  0.95649  Biso   1.000  H
  H709     1.0000 0.84411  0.60869  0.95239  Biso   1.000  H
  H710     1.0000 0.78518  0.56360  0.97786  Biso   1.000  H
  H711     1.0000 0.82708  0.60461  0.99483  Biso   1.000  H
  H712     1.0000 0.77515  0.60895  0.01965  Biso   1.000  H
  H713     1.0000 0.87545  0.07808  0.08595  Biso   1.000  H
  H714     1.0000 0.85575  0.08852  0.01982  Biso   1.000  H
  C654     1.0000 0.88069  0.01532  0.03399  Biso   1.000  C
  C655     1.0000 0.45740  0.93761  0.01801  Biso   1.000  C
  C656     1.0000 0.41059  0.85722  0.00969  Biso   1.000  C
  H715     1.0000 0.45296  0.79888  0.97962  Biso   1.000  H
  C657     1.0000 0.77259  0.87620  0.91340  Biso   1.000  C
  H716     1.0000 0.73488  0.81284  0.88462  Biso   1.000  H
  H717     1.0000 0.74985  0.81299  0.95278  Biso   1.000  H
  H718     1.0000 0.88727  0.99345  0.06773  Biso   1.000  H
  H719     1.0000 0.85881  0.99805  0.00405  Biso   1.000  H
  H720     1.0000 0.91179  0.02348  0.01913  Biso   1.000  H
  C658     1.0000 0.41300  0.91062  0.02240  Biso   1.000  C
  H721     1.0000 0.45984  0.97218  0.02766  Biso   1.000  H
  N63      1.0000 0.36860  0.83340  0.01521  Biso   1.000  N
  H722     1.0000 0.77383  0.89830  0.94752  Biso   1.000  H
  H723     1.0000 0.76083  0.89627  0.87898  Biso   1.000  H
  C659     1.0000 0.82411  0.85681  0.90772  Biso   1.000  C
  N64      1.0000 0.37342  0.93211  0.03731  Biso   1.000  N
  Te32     1.0000 0.31918  0.88081  0.03809  Biso   1.000  Te
  H724     1.0000 0.83654  0.83906  0.94369  Biso   1.000  H
  H725     1.0000 0.82194  0.83209  0.87596  Biso   1.000  H
  C660     1.0000 0.86089  0.89661  0.89621  Biso   1.000  C
  H726     1.0000 0.84902  0.92941  0.90733  Biso   1.000  H
  H727     1.0000 0.86499  0.89680  0.85515  Biso   1.000  H
  H728     1.0000 0.89264  0.88942  0.91883  Biso   1.000  H
