data_image0
_cell_length_a       29.455
_cell_length_b       15.409
_cell_length_c       25.479
_cell_angle_alpha    90
_cell_angle_beta     99.5
_cell_angle_gamma    90

_symmetry_space_group_name_H-M    "P 1"
_symmetry_int_tables_number       1

loop_
  _symmetry_equiv_pos_as_xyz
  'x, y, z'

loop_
  _atom_site_label
  _atom_site_occupancy
  _atom_site_fract_x
  _atom_site_fract_y
  _atom_site_fract_z
  _atom_site_thermal_displace_type
  _atom_site_B_iso_or_equiv
  _atom_site_type_symbol
  O1       1.0000 0.55829  0.39042  0.59623  Biso   1.000  O
  C1       1.0000 0.58097  0.39879  0.64760  Biso   1.000  C
  H1       1.0000 0.56558  0.34298  0.58358  Biso   1.000  H
  C2       1.0000 0.61909  0.34700  0.66850  Biso   1.000  C
  C3       1.0000 0.56468  0.46090  0.67809  Biso   1.000  C
  C4       1.0000 0.63798  0.28068  0.63411  Biso   1.000  C
  C5       1.0000 0.63796  0.36122  0.72130  Biso   1.000  C
  C6       1.0000 0.58507  0.47466  0.73010  Biso   1.000  C
  H2       1.0000 0.53899  0.49510  0.66320  Biso   1.000  H
  C7       1.0000 0.61747  0.19093  0.64028  Biso   1.000  C
  H3       1.0000 0.62726  0.29872  0.59639  Biso   1.000  H
  C8       1.0000 0.69098  0.28087  0.64251  Biso   1.000  C
  H4       1.0000 0.66336  0.32598  0.73630  Biso   1.000  H
  C9       1.0000 0.62260  0.42339  0.75401  Biso   1.000  C
  O2       1.0000 0.56786  0.53917  0.75891  Biso   1.000  O
  C10      1.0000 0.57959  0.16250  0.60490  Biso   1.000  C
  C11      1.0000 0.63477  0.13388  0.68131  Biso   1.000  C
  H5       1.0000 0.70177  0.34129  0.63961  Biso   1.000  H
  H6       1.0000 0.70286  0.26011  0.67888  Biso   1.000  H
  C12      1.0000 0.71098  0.22390  0.60208  Biso   1.000  C
  C13      1.0000 0.64443  0.43630  0.81199  Biso   1.000  C
  H7       1.0000 0.56597  0.52099  0.78919  Biso   1.000  H
  O3       1.0000 0.56089  0.21617  0.56360  Biso   1.000  O
  C14      1.0000 0.55886  0.08333  0.61119  Biso   1.000  C
  C15      1.0000 0.61626  0.05302  0.68891  Biso   1.000  C
  H8       1.0000 0.66108  0.15166  0.70558  Biso   1.000  H
  H9       1.0000 0.70289  0.16250  0.60749  Biso   1.000  H
  H10      1.0000 0.74487  0.22857  0.60900  Biso   1.000  H
  C16      1.0000 0.69369  0.24836  0.54541  Biso   1.000  C
  H11      1.0000 0.63716  0.49698  0.82170  Biso   1.000  H
  C17      1.0000 0.62216  0.37588  0.84840  Biso   1.000  C
  C18      1.0000 0.69707  0.42871  0.82118  Biso   1.000  C
  H12      1.0000 0.54099  0.18892  0.54259  Biso   1.000  H
  H13      1.0000 0.53229  0.06600  0.58700  Biso   1.000  H
  C19      1.0000 0.57717  0.02907  0.65310  Biso   1.000  C
  C20      1.0000 0.63700  0.99078  0.73240  Biso   1.000  C
  C21      1.0000 0.66608  0.19242  0.51159  Biso   1.000  C
  C22      1.0000 0.70666  0.32442  0.52500  Biso   1.000  C
  C23      1.0000 0.63914  0.29288  0.86150  Biso   1.000  C
  C24      1.0000 0.58326  0.40171  0.86937  Biso   1.000  C
  H14      1.0000 0.70926  0.46259  0.79361  Biso   1.000  H
  H15      1.0000 0.70578  0.36719  0.81748  Biso   1.000  H
  C25      1.0000 0.71896  0.46161  0.87630  Biso   1.000  C
  O4       1.0000 0.55637  0.95107  0.65799  Biso   1.000  O
  C26      1.0000 0.61717  0.00409  0.78298  Biso   1.000  C
  H16      1.0000 0.62727  0.93127  0.71939  Biso   1.000  H
  C27      1.0000 0.68963  0.99085  0.74168  Biso   1.000  C
  H17      1.0000 0.65758  0.13810  0.52480  Biso   1.000  H
  C28      1.0000 0.65058  0.21429  0.45870  Biso   1.000  C
  C29      1.0000 0.69040  0.34700  0.47291  Biso   1.000  C
  H18      1.0000 0.72719  0.36219  0.54681  Biso   1.000  H
  C30      1.0000 0.62035  0.23623  0.89468  Biso   1.000  C
  H19      1.0000 0.66506  0.27387  0.84689  Biso   1.000  H
  C31      1.0000 0.56297  0.34558  0.90181  Biso   1.000  C
  O5       1.0000 0.56525  0.48251  0.85879  Biso   1.000  O
  H20      1.0000 0.69776  0.44850  0.90161  Biso   1.000  H
  H21      1.0000 0.72188  0.52547  0.87459  Biso   1.000  H
  C32      1.0000 0.76555  0.42430  0.89799  Biso   1.000  C
  H22      1.0000 0.54997  0.92699  0.62858  Biso   1.000  H
  C33      1.0000 0.63437  0.06697  0.82071  Biso   1.000  C
  C34      1.0000 0.58175  0.95165  0.79651  Biso   1.000  C
  H23      1.0000 0.70076  0.04887  0.75449  Biso   1.000  H
  H24      1.0000 0.70027  0.98027  0.70729  Biso   1.000  H
  C35      1.0000 0.71083  0.92258  0.78179  Biso   1.000  C
  H25      1.0000 0.63218  0.17490  0.43558  Biso   1.000  H
  C36      1.0000 0.66169  0.29106  0.44091  Biso   1.000  C
  H26      1.0000 0.69896  0.40087  0.45918  Biso   1.000  H
  C37      1.0000 0.64096  0.14712  0.90901  Biso   1.000  C
  C38      1.0000 0.58105  0.26329  0.91378  Biso   1.000  C
  H27      1.0000 0.53647  0.36381  0.91569  Biso   1.000  H
  H28      1.0000 0.55296  0.49951  0.88450  Biso   1.000  H
  C39      1.0000 0.80586  0.47219  0.90590  Biso   1.000  C
  C40      1.0000 0.76976  0.33740  0.91108  Biso   1.000  C
  C41      1.0000 0.61993  0.07820  0.86918  Biso   1.000  C
  H29      1.0000 0.65766  0.10481  0.81239  Biso   1.000  H
  O6       1.0000 0.56181  0.89006  0.76078  Biso   1.000  O
  C42      1.0000 0.56618  0.96106  0.84391  Biso   1.000  C
  H30      1.0000 0.70096  0.93497  0.81629  Biso   1.000  H
  H31      1.0000 0.74478  0.92887  0.78700  Biso   1.000  H
  C43      1.0000 0.69881  0.82887  0.76679  Biso   1.000  C
  H32      1.0000 0.64969  0.30768  0.40538  Biso   1.000  H
  H33      1.0000 0.63247  0.13103  0.94419  Biso   1.000  H
  C44      1.0000 0.69339  0.14641  0.91641  Biso   1.000  C
  O7       1.0000 0.55867  0.21202  0.94490  Biso   1.000  O
  H34      1.0000 0.80485  0.53216  0.89719  Biso   1.000  H
  C45      1.0000 0.84806  0.43358  0.92660  Biso   1.000  C
  C46      1.0000 0.81157  0.30080  0.93137  Biso   1.000  C
  H35      1.0000 0.74305  0.30177  0.90590  Biso   1.000  H
  C47      1.0000 0.58504  0.02297  0.88068  Biso   1.000  C
  H36      1.0000 0.55895  0.90596  0.72858  Biso   1.000  H
  H37      1.0000 0.54205  0.92478  0.85179  Biso   1.000  H
  C48      1.0000 0.68216  0.77500  0.80188  Biso   1.000  C
  C49      1.0000 0.70568  0.79518  0.71860  Biso   1.000  C
  H38      1.0000 0.70306  0.15991  0.88191  Biso   1.000  H
  H39      1.0000 0.70547  0.19268  0.94180  Biso   1.000  H
  C50      1.0000 0.71488  0.05938  0.93690  Biso   1.000  C
  H40      1.0000 0.55596  0.15997  0.93499  Biso   1.000  H
  H41      1.0000 0.87556  0.46687  0.93161  Biso   1.000  H
  C51      1.0000 0.84925  0.34798  0.93949  Biso   1.000  C
  H42      1.0000 0.81326  0.24057  0.93969  Biso   1.000  H
  O8       1.0000 0.56915  0.03238  0.92799  Biso   1.000  O
  H43      1.0000 0.67637  0.79707  0.83499  Biso   1.000  H
  C52      1.0000 0.67378  0.68726  0.78931  Biso   1.000  C
  C53      1.0000 0.69868  0.70881  0.70690  Biso   1.000  C
  H44      1.0000 0.71547  0.83237  0.69301  Biso   1.000  H
  H45      1.0000 0.70115  0.01220  0.91299  Biso   1.000  H
  H46      1.0000 0.70765  0.04802  0.97280  Biso   1.000  H
  C54      1.0000 0.76627  0.05912  0.93941  Biso   1.000  C
  H47      1.0000 0.87767  0.32202  0.95449  Biso   1.000  H
  H48      1.0000 0.56996  0.00201  0.95501  Biso   1.000  H
  H49      1.0000 0.66165  0.65046  0.81350  Biso   1.000  H
  C55      1.0000 0.68288  0.65468  0.74271  Biso   1.000  C
  H50      1.0000 0.70468  0.68635  0.67399  Biso   1.000  H
  C56      1.0000 0.79586  0.08138  0.98498  Biso   1.000  C
  C57      1.0000 0.78597  0.03771  0.89548  Biso   1.000  C
  H51      1.0000 0.67827  0.59465  0.73491  Biso   1.000  H
  C58      1.0000 0.84275  0.08080  0.98740  Biso   1.000  C
  H52      1.0000 0.78351  0.09780  0.01574  Biso   1.000  H
  C59      1.0000 0.83285  0.03680  0.89639  Biso   1.000  C
  H53      1.0000 0.76637  0.02310  0.86329  Biso   1.000  H
  C60      1.0000 0.86155  0.05938  0.94379  Biso   1.000  C
  H54      1.0000 0.86230  0.09527  0.01971  Biso   1.000  H
  H55      1.0000 0.84537  0.02122  0.86567  Biso   1.000  H
  H56      1.0000 0.89404  0.05977  0.94550  Biso   1.000  H
  O9       1.0000 0.44165  0.60958  0.40375  Biso   1.000  O
  C61      1.0000 0.41898  0.60121  0.35241  Biso   1.000  C
  H57      1.0000 0.43439  0.65695  0.41640  Biso   1.000  H
  C62      1.0000 0.38088  0.65300  0.33148  Biso   1.000  C
  C63      1.0000 0.43530  0.53910  0.32189  Biso   1.000  C
  C64      1.0000 0.36198  0.63878  0.27872  Biso   1.000  C
  C65      1.0000 0.36200  0.71925  0.36590  Biso   1.000  C
  C66      1.0000 0.41490  0.52528  0.26988  Biso   1.000  C
  H58      1.0000 0.46099  0.50490  0.33681  Biso   1.000  H
  C67      1.0000 0.37737  0.57661  0.24600  Biso   1.000  C
  H59      1.0000 0.33658  0.67396  0.26371  Biso   1.000  H
  C68      1.0000 0.38247  0.80907  0.35970  Biso   1.000  C
  H60      1.0000 0.37268  0.70128  0.40359  Biso   1.000  H
  C69      1.0000 0.30899  0.71906  0.35751  Biso   1.000  C
  O10      1.0000 0.43211  0.46077  0.24111  Biso   1.000  O
  C70      1.0000 0.35551  0.56370  0.18799  Biso   1.000  C
  C71      1.0000 0.36521  0.86605  0.31871  Biso   1.000  C
  C72      1.0000 0.42039  0.83750  0.39511  Biso   1.000  C
  H61      1.0000 0.29817  0.65871  0.36041  Biso   1.000  H
  H62      1.0000 0.29707  0.73989  0.32110  Biso   1.000  H
  C73      1.0000 0.28899  0.77610  0.39790  Biso   1.000  C
  H63      1.0000 0.43400  0.47901  0.21079  Biso   1.000  H
  C74      1.0000 0.30290  0.57129  0.17879  Biso   1.000  C
  H64      1.0000 0.36279  0.50302  0.17832  Biso   1.000  H
  C75      1.0000 0.37782  0.62412  0.15161  Biso   1.000  C
  C76      1.0000 0.38371  0.94698  0.31111  Biso   1.000  C
  H65      1.0000 0.33889  0.84827  0.29439  Biso   1.000  H
  O11      1.0000 0.43908  0.78376  0.43638  Biso   1.000  O
  C77      1.0000 0.44108  0.91667  0.38878  Biso   1.000  C
  H66      1.0000 0.29708  0.83750  0.39249  Biso   1.000  H
  H67      1.0000 0.25508  0.77137  0.39101  Biso   1.000  H
  C78      1.0000 0.30629  0.75157  0.45460  Biso   1.000  C
  H68      1.0000 0.29068  0.53741  0.20641  Biso   1.000  H
  H69      1.0000 0.29419  0.63281  0.18249  Biso   1.000  H
  C79      1.0000 0.28101  0.53839  0.12372  Biso   1.000  C
  C80      1.0000 0.36083  0.70705  0.13848  Biso   1.000  C
  C81      1.0000 0.41671  0.59829  0.13060  Biso   1.000  C
  C82      1.0000 0.42277  0.97086  0.34688  Biso   1.000  C
  C83      1.0000 0.36297  0.00922  0.26761  Biso   1.000  C
  H70      1.0000 0.45899  0.81108  0.45739  Biso   1.000  H
  H71      1.0000 0.46769  0.93400  0.41298  Biso   1.000  H
  C84      1.0000 0.33389  0.80758  0.48839  Biso   1.000  C
  C85      1.0000 0.29327  0.67558  0.47498  Biso   1.000  C
  H72      1.0000 0.30218  0.55150  0.09841  Biso   1.000  H
  H73      1.0000 0.27810  0.47446  0.12539  Biso   1.000  H
  C86      1.0000 0.23439  0.57570  0.10199  Biso   1.000  C
  H74      1.0000 0.33488  0.72607  0.15309  Biso   1.000  H
  C87      1.0000 0.37959  0.76377  0.10529  Biso   1.000  C
  C88      1.0000 0.43701  0.65436  0.09821  Biso   1.000  C
  O12      1.0000 0.43469  0.51749  0.14119  Biso   1.000  O
  O13      1.0000 0.44356  0.04887  0.34199  Biso   1.000  O
  C89      1.0000 0.38277  0.99585  0.21700  Biso   1.000  C
  H75      1.0000 0.37270  0.06873  0.28059  Biso   1.000  H
  C90      1.0000 0.31031  0.00909  0.25830  Biso   1.000  C
  H76      1.0000 0.34236  0.86190  0.47518  Biso   1.000  H
  C91      1.0000 0.34939  0.78571  0.54131  Biso   1.000  C
  C92      1.0000 0.30958  0.65300  0.52711  Biso   1.000  C
  H77      1.0000 0.27278  0.63781  0.45321  Biso   1.000  H
  C93      1.0000 0.19408  0.52781  0.09411  Biso   1.000  C
  C94      1.0000 0.23021  0.66260  0.08890  Biso   1.000  C
  C95      1.0000 0.41889  0.73671  0.08619  Biso   1.000  C
  C96      1.0000 0.35901  0.85288  0.09101  Biso   1.000  C
  H78      1.0000 0.46350  0.63619  0.08428  Biso   1.000  H
  H79      1.0000 0.44701  0.50049  0.11548  Biso   1.000  H
  H80      1.0000 0.44997  0.07301  0.37140  Biso   1.000  H
  C97      1.0000 0.36561  0.93296  0.17931  Biso   1.000  C
  C98      1.0000 0.41819  0.04828  0.20351  Biso   1.000  C
  H81      1.0000 0.29918  0.95107  0.24549  Biso   1.000  H
  H82      1.0000 0.29967  0.01973  0.29268  Biso   1.000  H
  C99      1.0000 0.28910  0.07742  0.21819  Biso   1.000  C
  H83      1.0000 0.36776  0.82510  0.56439  Biso   1.000  H
  C100     1.0000 0.33828  0.70887  0.55910  Biso   1.000  C
  H84      1.0000 0.30097  0.59907  0.54080  Biso   1.000  H
  H85      1.0000 0.19509  0.46778  0.10279  Biso   1.000  H
  C101     1.0000 0.15188  0.56636  0.07338  Biso   1.000  C
  C102     1.0000 0.18841  0.69920  0.06860  Biso   1.000  C
  H86      1.0000 0.25689  0.69816  0.09411  Biso   1.000  H
  O14      1.0000 0.44130  0.78798  0.05507  Biso   1.000  O
  H87      1.0000 0.36750  0.86897  0.05579  Biso   1.000  H
  C103     1.0000 0.38004  0.92180  0.13080  Biso   1.000  C
  C104     1.0000 0.30656  0.85359  0.08361  Biso   1.000  C
  H88      1.0000 0.34228  0.89519  0.18759  Biso   1.000  H
  C105     1.0000 0.43380  0.03887  0.15611  Biso   1.000  C
  O15      1.0000 0.43812  0.10987  0.23920  Biso   1.000  O
  H89      1.0000 0.29898  0.06503  0.18369  Biso   1.000  H
  H90      1.0000 0.25520  0.07113  0.21302  Biso   1.000  H
  C106     1.0000 0.30116  0.17107  0.23319  Biso   1.000  C
  H91      1.0000 0.35028  0.69226  0.59460  Biso   1.000  H
  H92      1.0000 0.12438  0.53307  0.06841  Biso   1.000  H
  C107     1.0000 0.15068  0.65196  0.06049  Biso   1.000  C
  H93      1.0000 0.18671  0.75936  0.06029  Biso   1.000  H
  H94      1.0000 0.44401  0.83996  0.06498  Biso   1.000  H
  C108     1.0000 0.41489  0.97696  0.11930  Biso   1.000  C
  H95      1.0000 0.29688  0.84009  0.11811  Biso   1.000  H
  H96      1.0000 0.29451  0.80726  0.05822  Biso   1.000  H
  C109     1.0000 0.28506  0.94055  0.06311  Biso   1.000  C
  H97      1.0000 0.45789  0.07522  0.14819  Biso   1.000  H
  H98      1.0000 0.44099  0.09397  0.27139  Biso   1.000  H
  C110     1.0000 0.31781  0.22500  0.19809  Biso   1.000  C
  C111     1.0000 0.29429  0.20482  0.28138  Biso   1.000  C
  H99      1.0000 0.12230  0.67798  0.04548  Biso   1.000  H
  O16      1.0000 0.43079  0.96755  0.07203  Biso   1.000  O
  H100     1.0000 0.29879  0.98780  0.08699  Biso   1.000  H
  H101     1.0000 0.29229  0.95198  0.02722  Biso   1.000  H
  C112     1.0000 0.23371  0.94088  0.06061  Biso   1.000  C
  H102     1.0000 0.32361  0.20287  0.16498  Biso   1.000  H
  C113     1.0000 0.32620  0.31267  0.21071  Biso   1.000  C
  C114     1.0000 0.30129  0.29119  0.29308  Biso   1.000  C
  H103     1.0000 0.28450  0.16756  0.30701  Biso   1.000  H
  H104     1.0000 0.42999  0.99799  0.04501  Biso   1.000  H
  C115     1.0000 0.20411  0.91855  0.01500  Biso   1.000  C
  C116     1.0000 0.21400  0.96229  0.10450  Biso   1.000  C
  H105     1.0000 0.33829  0.34947  0.18651  Biso   1.000  H
  C117     1.0000 0.31710  0.34532  0.25731  Biso   1.000  C
  H106     1.0000 0.29529  0.31358  0.32599  Biso   1.000  H
  C118     1.0000 0.15719  0.91920  0.01261  Biso   1.000  C
  H107     1.0000 0.21646  0.90220  0.98428  Biso   1.000  H
  C119     1.0000 0.16709  0.96320  0.10358  Biso   1.000  C
  H108     1.0000 0.23360  0.97690  0.13669  Biso   1.000  H
  H109     1.0000 0.32171  0.40528  0.26511  Biso   1.000  H
  C120     1.0000 0.13839  0.94055  0.05619  Biso   1.000  C
  H110     1.0000 0.13763  0.90467  0.98026  Biso   1.000  H
  H111     1.0000 0.15460  0.97878  0.13430  Biso   1.000  H
  H112     1.0000 0.10590  0.94016  0.05452  Biso   1.000  H
  C121     1.0000 0.63836  0.55941  0.55620  Biso   1.000  C
  C122     1.0000 0.65719  0.58076  0.51258  Biso   1.000  C
  H113     1.0000 0.60586  0.55980  0.55449  Biso   1.000  H
  C123     1.0000 0.66706  0.53676  0.60359  Biso   1.000  C
  C124     1.0000 0.70408  0.58141  0.51501  Biso   1.000  C
  H114     1.0000 0.63768  0.59530  0.48031  Biso   1.000  H
  H115     1.0000 0.65457  0.52119  0.63431  Biso   1.000  H
  C125     1.0000 0.71397  0.53767  0.60451  Biso   1.000  C
  C126     1.0000 0.73368  0.55909  0.56061  Biso   1.000  C
  H116     1.0000 0.71647  0.59777  0.48429  Biso   1.000  H
  H117     1.0000 0.73358  0.52307  0.63670  Biso   1.000  H
  C127     1.0000 0.78506  0.55941  0.56308  Biso   1.000  C
  C128     1.0000 0.80652  0.64638  0.58358  Biso   1.000  C
  H118     1.0000 0.79876  0.51217  0.58700  Biso   1.000  H
  H119     1.0000 0.79229  0.54799  0.52719  Biso   1.000  H
  C129     1.0000 0.85898  0.64709  0.59098  Biso   1.000  C
  H120     1.0000 0.79688  0.65987  0.61808  Biso   1.000  H
  H121     1.0000 0.79448  0.69271  0.55819  Biso   1.000  H
  C130     1.0000 0.87959  0.73619  0.60530  Biso   1.000  C
  H122     1.0000 0.86747  0.63099  0.55580  Biso   1.000  H
  C131     1.0000 0.88001  0.57817  0.63081  Biso   1.000  C
  C132     1.0000 0.86081  0.79285  0.63849  Biso   1.000  C
  C133     1.0000 0.91890  0.76326  0.58620  Biso   1.000  C
  C134     1.0000 0.86558  0.56701  0.67928  Biso   1.000  C
  C135     1.0000 0.91487  0.52301  0.61931  Biso   1.000  C
  C136     1.0000 0.87778  0.87585  0.65158  Biso   1.000  C
  H123     1.0000 0.83488  0.77390  0.65310  Biso   1.000  H
  O17      1.0000 0.94128  0.71199  0.55508  Biso   1.000  O
  C137     1.0000 0.93697  0.84561  0.59818  Biso   1.000  C
  H124     1.0000 0.84229  0.60478  0.68760  Biso   1.000  H
  C138     1.0000 0.88278  0.50406  0.71700  Biso   1.000  C
  C139     1.0000 0.93376  0.46109  0.65608  Biso   1.000  C
  O18      1.0000 0.93079  0.53242  0.57200  Biso   1.000  O
  C140     1.0000 0.85551  0.93627  0.68799  Biso   1.000  C
  C141     1.0000 0.91668  0.90168  0.63061  Biso   1.000  C
  H125     1.0000 0.94398  0.66000  0.56499  Biso   1.000  H
  H126     1.0000 0.96347  0.86378  0.58429  Biso   1.000  H
  C142     1.0000 0.91816  0.45168  0.70347  Biso   1.000  C
  C143     1.0000 0.86294  0.49082  0.76758  Biso   1.000  C
  H127     1.0000 0.95786  0.42482  0.64820  Biso   1.000  H
  H128     1.0000 0.92999  0.50198  0.54498  Biso   1.000  H
  C144     1.0000 0.87734  0.92336  0.74597  Biso   1.000  C
  H129     1.0000 0.86279  0.99695  0.67828  Biso   1.000  H
  C145     1.0000 0.80287  0.92868  0.67880  Biso   1.000  C
  O19      1.0000 0.93466  0.98248  0.64120  Biso   1.000  O
  O20      1.0000 0.93813  0.39010  0.73921  Biso   1.000  O
  H130     1.0000 0.87267  0.43131  0.78059  Biso   1.000  H
  C146     1.0000 0.88368  0.55299  0.81108  Biso   1.000  C
  C147     1.0000 0.81032  0.49088  0.75831  Biso   1.000  C
  C148     1.0000 0.86198  0.86119  0.77868  Biso   1.000  C
  C149     1.0000 0.91487  0.97469  0.76989  Biso   1.000  C
  H131     1.0000 0.79068  0.96255  0.70638  Biso   1.000  H
  H132     1.0000 0.79416  0.86716  0.68250  Biso   1.000  H
  C150     1.0000 0.78098  0.96158  0.62369  Biso   1.000  C
  H133     1.0000 0.94698  0.99948  0.61549  Biso   1.000  H
  H134     1.0000 0.94096  0.40600  0.77140  Biso   1.000  H
  C151     1.0000 0.86518  0.63392  0.81868  Biso   1.000  C
  C152     1.0000 0.92278  0.52911  0.84689  Biso   1.000  C
  H135     1.0000 0.79919  0.54890  0.74550  Biso   1.000  H
  H136     1.0000 0.79968  0.48030  0.79269  Biso   1.000  H
  C153     1.0000 0.78907  0.42261  0.71820  Biso   1.000  C
  C154     1.0000 0.88086  0.84697  0.83149  Biso   1.000  C
  H137     1.0000 0.83658  0.82601  0.76368  Biso   1.000  H
  C155     1.0000 0.93527  0.96087  0.82190  Biso   1.000  C
  O21      1.0000 0.93208  0.03920  0.74108  Biso   1.000  O
  H138     1.0000 0.80218  0.94847  0.59838  Biso   1.000  H
  C156     1.0000 0.73436  0.92427  0.60200  Biso   1.000  C
  H139     1.0000 0.77807  0.02550  0.62540  Biso   1.000  H
  H140     1.0000 0.83886  0.65170  0.79440  Biso   1.000  H
  C157     1.0000 0.88247  0.69089  0.85970  Biso   1.000  C
  C158     1.0000 0.94105  0.58330  0.88879  Biso   1.000  C
  O22      1.0000 0.94353  0.45110  0.84200  Biso   1.000  O
  H141     1.0000 0.79899  0.43501  0.68370  Biso   1.000  H
  H142     1.0000 0.75516  0.42891  0.71298  Biso   1.000  H
  C159     1.0000 0.80113  0.32890  0.73320  Biso   1.000  C
  C160     1.0000 0.91898  0.89876  0.85238  Biso   1.000  C
  C161     1.0000 0.86197  0.78065  0.86591  Biso   1.000  C
  H143     1.0000 0.96095  0.99507  0.83678  Biso   1.000  H
  H144     1.0000 0.93397  0.02103  0.71080  Biso   1.000  H
  C162     1.0000 0.69408  0.97216  0.59408  Biso   1.000  C
  C163     1.0000 0.73018  0.83737  0.58891  Biso   1.000  C
  C164     1.0000 0.92035  0.66247  0.89508  Biso   1.000  C
  H145     1.0000 0.96766  0.56597  0.91299  Biso   1.000  H
  H146     1.0000 0.94997  0.42696  0.87140  Biso   1.000  H
  C165     1.0000 0.81778  0.27497  0.69810  Biso   1.000  C
  C166     1.0000 0.79426  0.29522  0.78139  Biso   1.000  C
  O23      1.0000 0.94166  0.89039  0.90376  Biso   1.000  O
  H147     1.0000 0.87265  0.79869  0.90360  Biso   1.000  H
  C167     1.0000 0.80896  0.78091  0.85748  Biso   1.000  C
  C168     1.0000 0.65188  0.93355  0.57339  Biso   1.000  C
  H148     1.0000 0.69509  0.03219  0.60280  Biso   1.000  H
  C169     1.0000 0.68838  0.80077  0.56861  Biso   1.000  C
  H149     1.0000 0.75686  0.80180  0.59408  Biso   1.000  H
  O24      1.0000 0.93905  0.71620  0.93639  Biso   1.000  O
  H150     1.0000 0.82358  0.29710  0.66499  Biso   1.000  H
  C170     1.0000 0.82616  0.18729  0.71068  Biso   1.000  C
  C171     1.0000 0.80126  0.20877  0.79309  Biso   1.000  C
  H151     1.0000 0.78447  0.33240  0.80698  Biso   1.000  H
  H152     1.0000 0.93437  0.84295  0.91641  Biso   1.000  H
  H153     1.0000 0.79817  0.84126  0.86038  Biso   1.000  H
  H154     1.0000 0.79708  0.76008  0.82110  Biso   1.000  H
  C172     1.0000 0.78896  0.72386  0.89791  Biso   1.000  C
  H155     1.0000 0.62439  0.96690  0.56841  Biso   1.000  H
  C173     1.0000 0.65069  0.84795  0.56050  Biso   1.000  C
  H156     1.0000 0.68668  0.74061  0.56030  Biso   1.000  H
  H157     1.0000 0.95896  0.68888  0.95740  Biso   1.000  H
  H158     1.0000 0.83826  0.15050  0.68648  Biso   1.000  H
  C174     1.0000 0.81706  0.15471  0.75728  Biso   1.000  C
  H159     1.0000 0.79526  0.18638  0.82600  Biso   1.000  H
  H160     1.0000 0.79705  0.66247  0.89249  Biso   1.000  H
  H161     1.0000 0.75504  0.72860  0.89098  Biso   1.000  H
  C175     1.0000 0.80625  0.74839  0.95457  Biso   1.000  C
  H162     1.0000 0.62227  0.82199  0.54549  Biso   1.000  H
  H163     1.0000 0.82167  0.09468  0.76507  Biso   1.000  H
  C176     1.0000 0.83386  0.69239  0.98840  Biso   1.000  C
  C177     1.0000 0.79325  0.82439  0.97499  Biso   1.000  C
  H164     1.0000 0.84237  0.63807  0.97519  Biso   1.000  H
  C178     1.0000 0.84940  0.71426  0.04132  Biso   1.000  C
  H165     1.0000 0.77275  0.86216  0.95318  Biso   1.000  H
  C179     1.0000 0.80962  0.84697  0.02712  Biso   1.000  C
  H166     1.0000 0.86780  0.67487  0.06440  Biso   1.000  H
  C180     1.0000 0.83832  0.79110  0.05911  Biso   1.000  C
  H167     1.0000 0.80101  0.90090  0.04081  Biso   1.000  H
  H168     1.0000 0.85032  0.80771  0.09461  Biso   1.000  H
  C181     1.0000 0.56298  0.65436  0.40180  Biso   1.000  C
  C182     1.0000 0.58328  0.59829  0.36941  Biso   1.000  C
  C183     1.0000 0.58106  0.73671  0.41382  Biso   1.000  C
  H169     1.0000 0.53648  0.63619  0.41569  Biso   1.000  H
  C184     1.0000 0.62217  0.62412  0.34839  Biso   1.000  C
  O25      1.0000 0.56529  0.51749  0.35878  Biso   1.000  O
  C185     1.0000 0.62037  0.76377  0.39471  Biso   1.000  C
  O26      1.0000 0.55868  0.78798  0.44493  Biso   1.000  O
  C186     1.0000 0.64444  0.56370  0.31198  Biso   1.000  C
  C187     1.0000 0.63915  0.70705  0.36149  Biso   1.000  C
  H170     1.0000 0.55297  0.50049  0.38449  Biso   1.000  H
  C188     1.0000 0.64098  0.85288  0.40900  Biso   1.000  C
  H171     1.0000 0.55597  0.83996  0.43499  Biso   1.000  H
  C189     1.0000 0.62262  0.57661  0.25400  Biso   1.000  C
  H172     1.0000 0.63720  0.50302  0.32169  Biso   1.000  H
  C190     1.0000 0.69709  0.57129  0.32122  Biso   1.000  C
  H173     1.0000 0.66507  0.72607  0.34688  Biso   1.000  H
  H174     1.0000 0.63249  0.86897  0.44418  Biso   1.000  H
  C191     1.0000 0.61995  0.92180  0.36921  Biso   1.000  C
  C192     1.0000 0.69343  0.85359  0.41640  Biso   1.000  C
  C193     1.0000 0.58508  0.52528  0.23009  Biso   1.000  C
  C194     1.0000 0.63798  0.63878  0.22129  Biso   1.000  C
  H175     1.0000 0.70927  0.53741  0.29360  Biso   1.000  H
  H176     1.0000 0.70580  0.63281  0.31751  Biso   1.000  H
  C195     1.0000 0.71897  0.53839  0.37629  Biso   1.000  C
  C196     1.0000 0.63438  0.93296  0.32070  Biso   1.000  C
  C197     1.0000 0.58509  0.97696  0.38071  Biso   1.000  C
  H177     1.0000 0.70307  0.84009  0.38190  Biso   1.000  H
  H178     1.0000 0.70548  0.80726  0.44179  Biso   1.000  H
  C198     1.0000 0.71490  0.94055  0.43690  Biso   1.000  C
  O27      1.0000 0.56787  0.46077  0.25890  Biso   1.000  O
  C199     1.0000 0.56469  0.53910  0.17812  Biso   1.000  C
  C200     1.0000 0.61910  0.65300  0.16849  Biso   1.000  C
  H179     1.0000 0.66341  0.67396  0.23630  Biso   1.000  H
  H180     1.0000 0.69777  0.55150  0.40160  Biso   1.000  H
  H181     1.0000 0.72189  0.47446  0.37458  Biso   1.000  H
  C201     1.0000 0.76559  0.57570  0.39798  Biso   1.000  C
  C202     1.0000 0.61722  0.99585  0.28301  Biso   1.000  C
  H182     1.0000 0.65767  0.89519  0.31238  Biso   1.000  H
  O28      1.0000 0.56917  0.96755  0.42798  Biso   1.000  O
  C203     1.0000 0.56619  0.03887  0.34390  Biso   1.000  C
  H183     1.0000 0.70119  0.98780  0.41298  Biso   1.000  H
  H184     1.0000 0.70770  0.95198  0.47279  Biso   1.000  H
  C204     1.0000 0.76628  0.94088  0.43940  Biso   1.000  C
  H185     1.0000 0.56598  0.47901  0.28918  Biso   1.000  H
  H186     1.0000 0.53900  0.50490  0.16319  Biso   1.000  H
  C205     1.0000 0.58101  0.60121  0.14760  Biso   1.000  C
  C206     1.0000 0.63799  0.71925  0.13410  Biso   1.000  C
  C207     1.0000 0.80587  0.52781  0.40590  Biso   1.000  C
  C208     1.0000 0.76978  0.66260  0.41111  Biso   1.000  C
  C209     1.0000 0.63702  0.00922  0.23240  Biso   1.000  C
  C210     1.0000 0.58180  0.04828  0.29650  Biso   1.000  C
  H187     1.0000 0.56997  0.99799  0.45500  Biso   1.000  H
  H188     1.0000 0.54210  0.07522  0.35182  Biso   1.000  H
  C211     1.0000 0.79588  0.91855  0.48501  Biso   1.000  C
  C212     1.0000 0.78599  0.96229  0.39551  Biso   1.000  C
  O29      1.0000 0.55833  0.60958  0.09622  Biso   1.000  O
  C213     1.0000 0.61749  0.80907  0.14031  Biso   1.000  C
  H189     1.0000 0.62731  0.70128  0.09638  Biso   1.000  H
  C214     1.0000 0.69099  0.71906  0.14250  Biso   1.000  C
  H190     1.0000 0.80490  0.46778  0.39718  Biso   1.000  H
  C215     1.0000 0.84807  0.56636  0.42659  Biso   1.000  C
  C216     1.0000 0.81158  0.69920  0.43140  Biso   1.000  C
  H191     1.0000 0.74310  0.69816  0.40590  Biso   1.000  H
  C217     1.0000 0.61627  0.94698  0.18890  Biso   1.000  C
  H192     1.0000 0.62728  0.06873  0.21938  Biso   1.000  H
  C218     1.0000 0.68968  0.00909  0.24171  Biso   1.000  C
  O30      1.0000 0.56187  0.10987  0.26081  Biso   1.000  O
  H193     1.0000 0.78349  0.90220  0.51569  Biso   1.000  H
  C219     1.0000 0.84276  0.91920  0.48739  Biso   1.000  C
  C220     1.0000 0.83289  0.96320  0.39639  Biso   1.000  C
  H194     1.0000 0.76638  0.97690  0.36328  Biso   1.000  H
  H195     1.0000 0.56559  0.65695  0.08361  Biso   1.000  H
  C221     1.0000 0.63478  0.86605  0.18130  Biso   1.000  C
  C222     1.0000 0.57960  0.83750  0.10490  Biso   1.000  C
  H196     1.0000 0.70178  0.65871  0.13960  Biso   1.000  H
  H197     1.0000 0.70288  0.73989  0.17891  Biso   1.000  H
  C223     1.0000 0.71100  0.77610  0.10211  Biso   1.000  C
  H198     1.0000 0.87557  0.53307  0.43160  Biso   1.000  H
  C224     1.0000 0.84927  0.65196  0.43948  Biso   1.000  C
  H199     1.0000 0.81327  0.75936  0.43968  Biso   1.000  H
  C225     1.0000 0.57718  0.97086  0.15309  Biso   1.000  C
  H200     1.0000 0.70080  0.95107  0.25448  Biso   1.000  H
  H201     1.0000 0.70028  0.01973  0.20729  Biso   1.000  H
  C226     1.0000 0.71088  0.07742  0.28178  Biso   1.000  C
  H202     1.0000 0.55900  0.09397  0.22862  Biso   1.000  H
  H203     1.0000 0.86228  0.90467  0.51971  Biso   1.000  H
  C227     1.0000 0.86159  0.94055  0.44378  Biso   1.000  C
  H204     1.0000 0.84539  0.97878  0.36570  Biso   1.000  H
  H205     1.0000 0.66110  0.84827  0.20561  Biso   1.000  H
  O31      1.0000 0.56090  0.78376  0.06359  Biso   1.000  O
  C228     1.0000 0.55891  0.91667  0.11118  Biso   1.000  C
  H206     1.0000 0.70290  0.83750  0.10748  Biso   1.000  H
  H207     1.0000 0.74491  0.77137  0.10900  Biso   1.000  H
  C229     1.0000 0.69370  0.75157  0.04540  Biso   1.000  C
  H208     1.0000 0.87769  0.67798  0.45448  Biso   1.000  H
  O32      1.0000 0.55642  0.04887  0.15798  Biso   1.000  O
  H209     1.0000 0.70097  0.06503  0.31628  Biso   1.000  H
  H210     1.0000 0.74479  0.07113  0.28699  Biso   1.000  H
  C230     1.0000 0.69883  0.17107  0.26682  Biso   1.000  C
  H211     1.0000 0.89409  0.94016  0.44549  Biso   1.000  H
  H212     1.0000 0.54100  0.81108  0.04262  Biso   1.000  H
  H213     1.0000 0.53230  0.93400  0.08699  Biso   1.000  H
  C231     1.0000 0.66610  0.80758  0.01162  Biso   1.000  C
  C232     1.0000 0.70671  0.67558  0.02499  Biso   1.000  C
  H214     1.0000 0.54999  0.07301  0.12861  Biso   1.000  H
  C233     1.0000 0.68218  0.22500  0.30192  Biso   1.000  C
  C234     1.0000 0.70569  0.20482  0.21859  Biso   1.000  C
  H215     1.0000 0.65759  0.86190  0.02479  Biso   1.000  H
  C235     1.0000 0.65056  0.78571  0.95869  Biso   1.000  C
  H216     1.0000 0.72720  0.63781  0.04680  Biso   1.000  H
  C236     1.0000 0.69034  0.65300  0.97286  Biso   1.000  C
  H217     1.0000 0.67638  0.20287  0.33498  Biso   1.000  H
  C237     1.0000 0.67379  0.31267  0.28930  Biso   1.000  C
  C238     1.0000 0.69869  0.29119  0.20689  Biso   1.000  C
  H218     1.0000 0.71549  0.16756  0.19300  Biso   1.000  H
  H219     1.0000 0.63215  0.82510  0.93557  Biso   1.000  H
  C239     1.0000 0.66163  0.70887  0.94087  Biso   1.000  C
  H220     1.0000 0.69894  0.59907  0.95917  Biso   1.000  H
  H221     1.0000 0.66170  0.34947  0.31350  Biso   1.000  H
  C240     1.0000 0.68289  0.34532  0.24270  Biso   1.000  C
  H222     1.0000 0.70469  0.31358  0.17402  Biso   1.000  H
  H223     1.0000 0.64964  0.69226  0.90537  Biso   1.000  H
  H224     1.0000 0.67828  0.40528  0.23490  Biso   1.000  H
  C241     1.0000 0.43699  0.34558  0.59818  Biso   1.000  C
  C242     1.0000 0.41888  0.26329  0.58620  Biso   1.000  C
  C243     1.0000 0.41667  0.40171  0.63061  Biso   1.000  C
  H225     1.0000 0.46349  0.36381  0.58429  Biso   1.000  H
  C244     1.0000 0.37958  0.23623  0.60530  Biso   1.000  C
  O33      1.0000 0.44126  0.21202  0.55508  Biso   1.000  O
  C245     1.0000 0.37780  0.37588  0.65158  Biso   1.000  C
  O34      1.0000 0.43468  0.48251  0.64120  Biso   1.000  O
  C246     1.0000 0.35896  0.14712  0.59098  Biso   1.000  C
  C247     1.0000 0.36082  0.29288  0.63849  Biso   1.000  C
  H226     1.0000 0.44396  0.15997  0.56499  Biso   1.000  H
  C248     1.0000 0.35550  0.43630  0.68799  Biso   1.000  C
  H227     1.0000 0.44696  0.49951  0.61549  Biso   1.000  H
  C249     1.0000 0.30654  0.14641  0.58358  Biso   1.000  C
  H228     1.0000 0.36749  0.13103  0.55580  Biso   1.000  H
  C250     1.0000 0.37999  0.07820  0.63081  Biso   1.000  C
  H229     1.0000 0.33486  0.27387  0.65310  Biso   1.000  H
  C251     1.0000 0.37736  0.42339  0.74597  Biso   1.000  C
  H230     1.0000 0.36277  0.49698  0.67828  Biso   1.000  H
  C252     1.0000 0.30289  0.42871  0.67880  Biso   1.000  C
  C253     1.0000 0.28504  0.05938  0.56308  Biso   1.000  C
  H231     1.0000 0.29687  0.15991  0.61808  Biso   1.000  H
  H232     1.0000 0.29446  0.19268  0.55819  Biso   1.000  H
  C254     1.0000 0.36559  0.06697  0.67928  Biso   1.000  C
  C255     1.0000 0.41488  0.02297  0.61931  Biso   1.000  C
  C256     1.0000 0.36196  0.36122  0.77868  Biso   1.000  C
  C257     1.0000 0.41486  0.47466  0.76989  Biso   1.000  C
  H233     1.0000 0.29066  0.46259  0.70638  Biso   1.000  H
  H234     1.0000 0.29418  0.36719  0.68250  Biso   1.000  H
  C258     1.0000 0.28096  0.46161  0.62369  Biso   1.000  C
  C259     1.0000 0.23366  0.05912  0.56061  Biso   1.000  C
  H235     1.0000 0.29878  0.01220  0.58700  Biso   1.000  H
  H236     1.0000 0.29227  0.04802  0.52719  Biso   1.000  H
  H237     1.0000 0.34227  0.10481  0.68760  Biso   1.000  H
  C260     1.0000 0.38276  0.00409  0.71700  Biso   1.000  C
  O35      1.0000 0.43077  0.03238  0.57200  Biso   1.000  O
  C261     1.0000 0.43378  0.96106  0.65608  Biso   1.000  C
  C262     1.0000 0.38087  0.34700  0.83149  Biso   1.000  C
  H238     1.0000 0.33656  0.32598  0.76368  Biso   1.000  H
  O36      1.0000 0.43210  0.53917  0.74108  Biso   1.000  O
  C263     1.0000 0.43525  0.46090  0.82190  Biso   1.000  C
  H239     1.0000 0.30217  0.44850  0.59838  Biso   1.000  H
  H240     1.0000 0.27808  0.52547  0.62540  Biso   1.000  H
  C264     1.0000 0.23438  0.42430  0.60200  Biso   1.000  C
  C265     1.0000 0.20407  0.08138  0.51501  Biso   1.000  C
  C266     1.0000 0.21399  0.03771  0.60451  Biso   1.000  C
  C267     1.0000 0.41817  0.95165  0.70347  Biso   1.000  C
  C268     1.0000 0.36296  0.99078  0.76758  Biso   1.000  C
  H241     1.0000 0.42997  0.00201  0.54498  Biso   1.000  H
  H242     1.0000 0.45788  0.92478  0.64820  Biso   1.000  H
  C269     1.0000 0.41896  0.39879  0.85238  Biso   1.000  C
  C270     1.0000 0.36195  0.28068  0.86591  Biso   1.000  C
  H243     1.0000 0.43395  0.52099  0.71080  Biso   1.000  H
  H244     1.0000 0.46097  0.49510  0.83678  Biso   1.000  H
  C271     1.0000 0.19407  0.47219  0.59408  Biso   1.000  C
  C272     1.0000 0.23016  0.33740  0.58891  Biso   1.000  C
  H245     1.0000 0.21648  0.09780  0.48429  Biso   1.000  H
  C273     1.0000 0.15717  0.08080  0.51258  Biso   1.000  C
  C274     1.0000 0.16708  0.03680  0.60359  Biso   1.000  C
  H246     1.0000 0.23356  0.02310  0.63670  Biso   1.000  H
  O37      1.0000 0.43811  0.89006  0.73921  Biso   1.000  O
  C275     1.0000 0.38366  0.05302  0.81108  Biso   1.000  C
  H247     1.0000 0.37266  0.93127  0.78059  Biso   1.000  H
  C276     1.0000 0.31030  0.99085  0.75831  Biso   1.000  C
  O38      1.0000 0.44164  0.39042  0.90376  Biso   1.000  O
  C277     1.0000 0.38246  0.19093  0.85970  Biso   1.000  C
  H248     1.0000 0.37267  0.29872  0.90360  Biso   1.000  H
  C278     1.0000 0.30894  0.28087  0.85748  Biso   1.000  C
  H249     1.0000 0.19507  0.53216  0.60280  Biso   1.000  H
  C279     1.0000 0.15187  0.43358  0.57339  Biso   1.000  C
  C280     1.0000 0.18836  0.30080  0.56861  Biso   1.000  C
  H250     1.0000 0.25688  0.30177  0.59408  Biso   1.000  H
  H251     1.0000 0.13770  0.09527  0.48031  Biso   1.000  H
  C281     1.0000 0.13838  0.05938  0.55620  Biso   1.000  C
  H252     1.0000 0.15459  0.02122  0.63431  Biso   1.000  H
  H253     1.0000 0.44098  0.90596  0.77140  Biso   1.000  H
  C282     1.0000 0.36519  0.13388  0.81868  Biso   1.000  C
  C283     1.0000 0.42276  0.02907  0.84689  Biso   1.000  C
  H254     1.0000 0.29917  0.04887  0.74550  Biso   1.000  H
  H255     1.0000 0.29966  0.98027  0.79269  Biso   1.000  H
  C284     1.0000 0.28909  0.92258  0.71820  Biso   1.000  C
  H256     1.0000 0.43435  0.34298  0.91641  Biso   1.000  H
  C285     1.0000 0.42037  0.16250  0.89508  Biso   1.000  C
  H257     1.0000 0.29815  0.34129  0.86038  Biso   1.000  H
  H258     1.0000 0.29706  0.26011  0.82110  Biso   1.000  H
  C286     1.0000 0.28895  0.22390  0.89791  Biso   1.000  C
  H259     1.0000 0.12437  0.46687  0.56841  Biso   1.000  H
  C287     1.0000 0.15067  0.34798  0.56050  Biso   1.000  C
  H260     1.0000 0.18666  0.24057  0.56030  Biso   1.000  H
  H261     1.0000 0.10588  0.05977  0.55449  Biso   1.000  H
  H262     1.0000 0.33888  0.15166  0.79440  Biso   1.000  H
  C288     1.0000 0.44107  0.08333  0.88879  Biso   1.000  C
  O39      1.0000 0.44355  0.95107  0.84200  Biso   1.000  O
  H263     1.0000 0.29897  0.93497  0.68370  Biso   1.000  H
  H264     1.0000 0.25518  0.92887  0.71298  Biso   1.000  H
  C289     1.0000 0.30111  0.82887  0.73320  Biso   1.000  C
  O40      1.0000 0.43907  0.21617  0.93639  Biso   1.000  O
  H265     1.0000 0.29707  0.16250  0.89249  Biso   1.000  H
  H266     1.0000 0.25506  0.22857  0.89098  Biso   1.000  H
  C290     1.0000 0.30627  0.24836  0.95457  Biso   1.000  C
  H267     1.0000 0.12229  0.32202  0.54549  Biso   1.000  H
  H268     1.0000 0.46767  0.06600  0.91299  Biso   1.000  H
  H269     1.0000 0.44996  0.92699  0.87140  Biso   1.000  H
  C291     1.0000 0.31776  0.77500  0.69810  Biso   1.000  C
  C292     1.0000 0.29428  0.79518  0.78139  Biso   1.000  C
  H270     1.0000 0.45897  0.18892  0.95740  Biso   1.000  H
  C293     1.0000 0.33385  0.19242  0.98840  Biso   1.000  C
  C294     1.0000 0.29326  0.32442  0.97499  Biso   1.000  C
  H271     1.0000 0.32356  0.79707  0.66499  Biso   1.000  H
  C295     1.0000 0.32618  0.68726  0.71068  Biso   1.000  C
  C296     1.0000 0.30128  0.70881  0.79309  Biso   1.000  C
  H272     1.0000 0.28445  0.83237  0.80698  Biso   1.000  H
  H273     1.0000 0.34235  0.13810  0.97519  Biso   1.000  H
  C297     1.0000 0.34942  0.21429  0.04132  Biso   1.000  C
  H274     1.0000 0.27277  0.36219  0.95318  Biso   1.000  H
  C298     1.0000 0.30960  0.34700  0.02712  Biso   1.000  C
  H275     1.0000 0.33827  0.65046  0.68648  Biso   1.000  H
  C299     1.0000 0.31708  0.65468  0.75728  Biso   1.000  C
  H276     1.0000 0.29525  0.68635  0.82600  Biso   1.000  H
  H277     1.0000 0.36782  0.17490  0.06440  Biso   1.000  H
  C300     1.0000 0.33831  0.29106  0.05911  Biso   1.000  C
  H278     1.0000 0.30100  0.40087  0.04081  Biso   1.000  H
  H279     1.0000 0.32165  0.59465  0.76507  Biso   1.000  H
  H280     1.0000 0.35030  0.30768  0.09461  Biso   1.000  H
  C301     1.0000 0.36158  0.44059  0.44378  Biso   1.000  C
  C302     1.0000 0.34278  0.41917  0.48739  Biso   1.000  C
  C303     1.0000 0.33288  0.46317  0.39639  Biso   1.000  C
  H281     1.0000 0.39407  0.44020  0.44549  Biso   1.000  H
  C304     1.0000 0.29589  0.41859  0.48501  Biso   1.000  C
  H282     1.0000 0.36226  0.40470  0.51971  Biso   1.000  H
  C305     1.0000 0.28597  0.46226  0.39551  Biso   1.000  C
  H283     1.0000 0.34537  0.47881  0.36570  Biso   1.000  H
  C306     1.0000 0.26630  0.44091  0.43940  Biso   1.000  C
  H284     1.0000 0.28347  0.40217  0.51569  Biso   1.000  H
  H285     1.0000 0.26640  0.47686  0.36328  Biso   1.000  H
  C307     1.0000 0.21491  0.44059  0.43690  Biso   1.000  C
  C308     1.0000 0.19342  0.35356  0.41640  Biso   1.000  C
  H286     1.0000 0.20118  0.48777  0.41298  Biso   1.000  H
  H287     1.0000 0.20768  0.45201  0.47279  Biso   1.000  H
  C309     1.0000 0.14099  0.35291  0.40900  Biso   1.000  C
  H288     1.0000 0.20309  0.34006  0.38190  Biso   1.000  H
  H289     1.0000 0.20549  0.30729  0.44179  Biso   1.000  H
  C310     1.0000 0.12038  0.26381  0.39471  Biso   1.000  C
  C311     1.0000 0.11997  0.42177  0.36921  Biso   1.000  C
  H290     1.0000 0.13247  0.36901  0.44418  Biso   1.000  H
  C312     1.0000 0.13913  0.20709  0.36149  Biso   1.000  C
  C313     1.0000 0.08108  0.23668  0.41382  Biso   1.000  C
  C314     1.0000 0.13436  0.43299  0.32070  Biso   1.000  C
  C315     1.0000 0.08508  0.47699  0.38071  Biso   1.000  C
  C316     1.0000 0.12216  0.12408  0.34839  Biso   1.000  C
  H291     1.0000 0.16509  0.22610  0.34688  Biso   1.000  H
  C317     1.0000 0.06297  0.15439  0.40180  Biso   1.000  C
  O41      1.0000 0.05870  0.28801  0.44493  Biso   1.000  O
  C318     1.0000 0.11720  0.49588  0.28301  Biso   1.000  C
  H292     1.0000 0.15769  0.39516  0.31238  Biso   1.000  H
  C319     1.0000 0.06617  0.53891  0.34390  Biso   1.000  C
  O42      1.0000 0.06918  0.46758  0.42798  Biso   1.000  O
  C320     1.0000 0.14446  0.06373  0.31198  Biso   1.000  C
  C321     1.0000 0.08329  0.09832  0.36941  Biso   1.000  C
  H293     1.0000 0.03646  0.13622  0.41569  Biso   1.000  H
  H294     1.0000 0.05599  0.34000  0.43499  Biso   1.000  H
  C322     1.0000 0.13700  0.50918  0.23240  Biso   1.000  C
  C323     1.0000 0.08178  0.54832  0.29650  Biso   1.000  C
  H295     1.0000 0.04208  0.57518  0.35182  Biso   1.000  H
  H296     1.0000 0.06998  0.49796  0.45500  Biso   1.000  H
  C324     1.0000 0.12260  0.07658  0.25400  Biso   1.000  C
  H297     1.0000 0.13719  0.00299  0.32169  Biso   1.000  H
  C325     1.0000 0.19707  0.07132  0.32122  Biso   1.000  C
  O43      1.0000 0.06528  0.01752  0.35878  Biso   1.000  O
  C326     1.0000 0.11629  0.44701  0.18890  Biso   1.000  C
  H298     1.0000 0.12730  0.56869  0.21938  Biso   1.000  H
  C327     1.0000 0.18966  0.50912  0.24171  Biso   1.000  C
  O44      1.0000 0.06185  0.60990  0.26081  Biso   1.000  O
  C328     1.0000 0.13799  0.13881  0.22129  Biso   1.000  C
  C329     1.0000 0.08510  0.02531  0.23009  Biso   1.000  C
  H299     1.0000 0.20929  0.03738  0.29360  Biso   1.000  H
  H300     1.0000 0.20578  0.13278  0.31751  Biso   1.000  H
  C330     1.0000 0.21899  0.03842  0.37629  Biso   1.000  C
  H301     1.0000 0.05299  0.00052  0.38449  Biso   1.000  H
  C331     1.0000 0.13476  0.36608  0.18130  Biso   1.000  C
  C332     1.0000 0.07719  0.47089  0.15309  Biso   1.000  C
  H302     1.0000 0.20079  0.45110  0.25448  Biso   1.000  H
  H303     1.0000 0.20029  0.51970  0.20729  Biso   1.000  H
  C333     1.0000 0.21086  0.57739  0.28178  Biso   1.000  C
  H304     1.0000 0.05898  0.59400  0.22862  Biso   1.000  H
  C334     1.0000 0.11908  0.15303  0.16849  Biso   1.000  C
  H305     1.0000 0.16339  0.17399  0.23630  Biso   1.000  H
  C335     1.0000 0.06471  0.03907  0.17812  Biso   1.000  C
  O45      1.0000 0.06786  0.96080  0.25890  Biso   1.000  O
  H306     1.0000 0.19779  0.05153  0.40160  Biso   1.000  H
  C336     1.0000 0.26558  0.07567  0.39798  Biso   1.000  C
  H307     1.0000 0.22187  0.97450  0.37458  Biso   1.000  H
  C337     1.0000 0.11750  0.30911  0.14031  Biso   1.000  C
  H308     1.0000 0.16108  0.34830  0.20561  Biso   1.000  H
  C338     1.0000 0.05889  0.41670  0.11118  Biso   1.000  C
  O46      1.0000 0.05640  0.54890  0.15798  Biso   1.000  O
  H309     1.0000 0.20099  0.56499  0.31628  Biso   1.000  H
  H310     1.0000 0.24478  0.57109  0.28699  Biso   1.000  H
  C339     1.0000 0.19885  0.67110  0.26682  Biso   1.000  C
  C340     1.0000 0.13801  0.21929  0.13410  Biso   1.000  C
  C341     1.0000 0.08099  0.10117  0.14760  Biso   1.000  C
  H311     1.0000 0.03898  0.00493  0.16319  Biso   1.000  H
  H312     1.0000 0.06597  0.97897  0.28918  Biso   1.000  H
  C342     1.0000 0.30589  0.02778  0.40590  Biso   1.000  C
  C343     1.0000 0.26980  0.16257  0.41111  Biso   1.000  C
  C344     1.0000 0.07958  0.33747  0.10490  Biso   1.000  C
  H313     1.0000 0.03228  0.43397  0.08699  Biso   1.000  H
  H314     1.0000 0.05000  0.57298  0.12861  Biso   1.000  H
  C345     1.0000 0.18220  0.72497  0.30192  Biso   1.000  C
  C346     1.0000 0.20568  0.70478  0.21859  Biso   1.000  C
  C347     1.0000 0.19098  0.21909  0.14250  Biso   1.000  C
  H315     1.0000 0.12729  0.20131  0.09638  Biso   1.000  H
  O47      1.0000 0.05831  0.10961  0.09622  Biso   1.000  O
  C348     1.0000 0.34809  0.06639  0.42659  Biso   1.000  C
  H316     1.0000 0.30488  0.96775  0.39718  Biso   1.000  H
  C349     1.0000 0.31157  0.19917  0.43140  Biso   1.000  C
  H317     1.0000 0.24308  0.19820  0.40590  Biso   1.000  H
  O48      1.0000 0.06089  0.28380  0.06359  Biso   1.000  O
  H318     1.0000 0.17639  0.70290  0.33498  Biso   1.000  H
  C350     1.0000 0.17378  0.81271  0.28930  Biso   1.000  C
  C351     1.0000 0.19868  0.79116  0.20689  Biso   1.000  C
  H319     1.0000 0.21550  0.66760  0.19300  Biso   1.000  H
  H320     1.0000 0.20180  0.15867  0.13960  Biso   1.000  H
  H321     1.0000 0.20290  0.23992  0.17891  Biso   1.000  H
  C352     1.0000 0.21101  0.27607  0.10211  Biso   1.000  C
  H322     1.0000 0.06561  0.15699  0.08361  Biso   1.000  H
  H323     1.0000 0.37559  0.03310  0.43160  Biso   1.000  H
  C353     1.0000 0.34928  0.15199  0.43948  Biso   1.000  C
  H324     1.0000 0.31329  0.25939  0.43968  Biso   1.000  H
  H325     1.0000 0.04099  0.31112  0.04262  Biso   1.000  H
  H326     1.0000 0.16168  0.84950  0.31350  Biso   1.000  H
  C354     1.0000 0.18288  0.84529  0.24270  Biso   1.000  C
  H327     1.0000 0.20471  0.81355  0.17402  Biso   1.000  H
  H328     1.0000 0.20289  0.33747  0.10748  Biso   1.000  H
  H329     1.0000 0.24489  0.27140  0.10900  Biso   1.000  H
  C355     1.0000 0.19368  0.25161  0.04540  Biso   1.000  C
  H330     1.0000 0.37767  0.17801  0.45448  Biso   1.000  H
  H331     1.0000 0.17830  0.90525  0.23490  Biso   1.000  H
  C356     1.0000 0.16611  0.30761  0.01162  Biso   1.000  C
  C357     1.0000 0.20669  0.17561  0.02499  Biso   1.000  C
  H332     1.0000 0.15760  0.36187  0.02479  Biso   1.000  H
  C358     1.0000 0.15054  0.28568  0.95869  Biso   1.000  C
  H333     1.0000 0.22719  0.13778  0.04680  Biso   1.000  H
  C359     1.0000 0.19035  0.15303  0.97286  Biso   1.000  C
  H334     1.0000 0.13214  0.32507  0.93557  Biso   1.000  H
  C360     1.0000 0.16165  0.20890  0.94087  Biso   1.000  C
  H335     1.0000 0.19896  0.09910  0.95917  Biso   1.000  H
  H336     1.0000 0.14965  0.19229  0.90537  Biso   1.000  H
  C361     1.0000 0.78898  0.27607  0.39790  Biso   1.000  C
  C362     1.0000 0.80898  0.21909  0.35751  Biso   1.000  C
  H337     1.0000 0.79710  0.33747  0.39249  Biso   1.000  H
  H338     1.0000 0.75509  0.27140  0.39101  Biso   1.000  H
  C363     1.0000 0.80627  0.25161  0.45460  Biso   1.000  C
  C364     1.0000 0.86198  0.21929  0.36590  Biso   1.000  C
  H339     1.0000 0.79819  0.15867  0.36041  Biso   1.000  H
  H340     1.0000 0.79709  0.23992  0.32110  Biso   1.000  H
  C365     1.0000 0.83388  0.30761  0.48839  Biso   1.000  C
  C366     1.0000 0.79329  0.17561  0.47498  Biso   1.000  C
  C367     1.0000 0.88090  0.15303  0.33148  Biso   1.000  C
  C368     1.0000 0.88249  0.30911  0.35970  Biso   1.000  C
  H341     1.0000 0.87269  0.20131  0.40359  Biso   1.000  H
  H342     1.0000 0.84238  0.36187  0.47518  Biso   1.000  H
  C369     1.0000 0.84938  0.28568  0.54131  Biso   1.000  C
  C370     1.0000 0.80959  0.15303  0.52711  Biso   1.000  C
  H343     1.0000 0.77277  0.13778  0.45321  Biso   1.000  H
  C371     1.0000 0.86200  0.13881  0.27872  Biso   1.000  C
  C372     1.0000 0.91899  0.10117  0.35241  Biso   1.000  C
  C373     1.0000 0.86523  0.36608  0.31871  Biso   1.000  C
  C374     1.0000 0.92037  0.33747  0.39511  Biso   1.000  C
  H344     1.0000 0.86778  0.32507  0.56439  Biso   1.000  H
  C375     1.0000 0.83827  0.20890  0.55910  Biso   1.000  C
  H345     1.0000 0.80099  0.09910  0.54080  Biso   1.000  H
  C376     1.0000 0.87739  0.07658  0.24600  Biso   1.000  C
  H346     1.0000 0.83660  0.17399  0.26371  Biso   1.000  H
  C377     1.0000 0.93528  0.03907  0.32189  Biso   1.000  C
  O49      1.0000 0.94167  0.10961  0.40375  Biso   1.000  O
  C378     1.0000 0.88370  0.44701  0.31111  Biso   1.000  C
  H347     1.0000 0.83887  0.34830  0.29439  Biso   1.000  H
  C379     1.0000 0.94109  0.41670  0.38878  Biso   1.000  C
  O50      1.0000 0.93910  0.28380  0.43638  Biso   1.000  O
  H348     1.0000 0.85026  0.19229  0.59460  Biso   1.000  H
  C380     1.0000 0.85553  0.06373  0.18799  Biso   1.000  C
  C381     1.0000 0.91488  0.02531  0.26988  Biso   1.000  C
  H349     1.0000 0.96100  0.00493  0.33681  Biso   1.000  H
  H350     1.0000 0.93438  0.15699  0.41640  Biso   1.000  H
  C382     1.0000 0.86296  0.50918  0.26761  Biso   1.000  C
  C383     1.0000 0.92279  0.47089  0.34688  Biso   1.000  C
  H351     1.0000 0.96767  0.43397  0.41298  Biso   1.000  H
  H352     1.0000 0.95897  0.31112  0.45739  Biso   1.000  H
  C384     1.0000 0.87783  0.12408  0.15161  Biso   1.000  C
  H353     1.0000 0.86280  0.00299  0.17832  Biso   1.000  H
  C385     1.0000 0.80288  0.07132  0.17879  Biso   1.000  C
  O51      1.0000 0.93210  0.96080  0.24111  Biso   1.000  O
  C386     1.0000 0.88279  0.49588  0.21700  Biso   1.000  C
  H354     1.0000 0.87268  0.56869  0.28059  Biso   1.000  H
  C387     1.0000 0.81033  0.50912  0.25830  Biso   1.000  C
  O52      1.0000 0.94358  0.54890  0.34199  Biso   1.000  O
  C388     1.0000 0.86085  0.20709  0.13848  Biso   1.000  C
  C389     1.0000 0.91669  0.09832  0.13060  Biso   1.000  C
  H355     1.0000 0.79070  0.03738  0.20641  Biso   1.000  H
  H356     1.0000 0.79421  0.13278  0.18249  Biso   1.000  H
  C390     1.0000 0.78100  0.03842  0.12372  Biso   1.000  C
  H357     1.0000 0.93398  0.97897  0.21079  Biso   1.000  H
  C391     1.0000 0.86559  0.43299  0.17931  Biso   1.000  C
  C392     1.0000 0.91821  0.54832  0.20351  Biso   1.000  C
  H358     1.0000 0.79920  0.45110  0.24549  Biso   1.000  H
  H359     1.0000 0.79969  0.51970  0.29268  Biso   1.000  H
  C393     1.0000 0.78912  0.57739  0.21819  Biso   1.000  C
  H360     1.0000 0.94999  0.57298  0.37140  Biso   1.000  H
  C394     1.0000 0.87961  0.26381  0.10529  Biso   1.000  C
  H361     1.0000 0.83489  0.22610  0.15309  Biso   1.000  H
  C395     1.0000 0.93699  0.15439  0.09821  Biso   1.000  C
  O53      1.0000 0.93470  0.01752  0.14119  Biso   1.000  O
  H362     1.0000 0.80220  0.05153  0.09841  Biso   1.000  H
  C396     1.0000 0.73440  0.07567  0.10199  Biso   1.000  C
  H363     1.0000 0.77811  0.97450  0.12539  Biso   1.000  H
  C397     1.0000 0.88002  0.42177  0.13080  Biso   1.000  C
  H364     1.0000 0.84230  0.39516  0.18759  Biso   1.000  H
  C398     1.0000 0.93381  0.53891  0.15611  Biso   1.000  C
  O54      1.0000 0.93814  0.60990  0.23920  Biso   1.000  O
  H365     1.0000 0.79900  0.56499  0.18369  Biso   1.000  H
  H366     1.0000 0.75518  0.57109  0.21302  Biso   1.000  H
  C399     1.0000 0.80114  0.67110  0.23319  Biso   1.000  C
  C400     1.0000 0.85900  0.35291  0.09101  Biso   1.000  C
  C401     1.0000 0.91891  0.23668  0.08619  Biso   1.000  C
  H367     1.0000 0.96348  0.13622  0.08428  Biso   1.000  H
  H368     1.0000 0.94699  0.00052  0.11548  Biso   1.000  H
  C402     1.0000 0.69410  0.02778  0.09411  Biso   1.000  C
  C403     1.0000 0.73019  0.16257  0.08890  Biso   1.000  C
  C404     1.0000 0.91491  0.47699  0.11930  Biso   1.000  C
  H369     1.0000 0.95791  0.57518  0.14819  Biso   1.000  H
  H370     1.0000 0.94100  0.59400  0.27139  Biso   1.000  H
  C405     1.0000 0.81779  0.72497  0.19809  Biso   1.000  C
  C406     1.0000 0.79427  0.70478  0.28138  Biso   1.000  C
  C407     1.0000 0.80657  0.35356  0.08361  Biso   1.000  C
  H371     1.0000 0.86751  0.36901  0.05579  Biso   1.000  H
  O55      1.0000 0.94129  0.28801  0.05507  Biso   1.000  O
  C408     1.0000 0.65190  0.06639  0.07338  Biso   1.000  C
  H372     1.0000 0.69510  0.96775  0.10279  Biso   1.000  H
  C409     1.0000 0.68839  0.19917  0.06860  Biso   1.000  C
  H373     1.0000 0.75691  0.19820  0.09411  Biso   1.000  H
  O56      1.0000 0.93081  0.46758  0.07203  Biso   1.000  O
  H374     1.0000 0.82359  0.70290  0.16498  Biso   1.000  H
  C410     1.0000 0.82618  0.81271  0.21071  Biso   1.000  C
  C411     1.0000 0.80127  0.79116  0.29308  Biso   1.000  C
  H375     1.0000 0.78449  0.66760  0.30701  Biso   1.000  H
  C412     1.0000 0.78508  0.44059  0.06311  Biso   1.000  C
  H376     1.0000 0.79690  0.34006  0.11811  Biso   1.000  H
  H377     1.0000 0.79449  0.30729  0.05822  Biso   1.000  H
  H378     1.0000 0.94399  0.34000  0.06498  Biso   1.000  H
  H379     1.0000 0.62440  0.03310  0.06841  Biso   1.000  H
  C413     1.0000 0.65070  0.15199  0.06049  Biso   1.000  C
  H380     1.0000 0.68669  0.25939  0.06029  Biso   1.000  H
  H381     1.0000 0.93000  0.49796  0.04501  Biso   1.000  H
  H382     1.0000 0.83831  0.84950  0.18651  Biso   1.000  H
  C414     1.0000 0.81708  0.84529  0.25731  Biso   1.000  C
  H383     1.0000 0.79528  0.81355  0.32599  Biso   1.000  H
  C415     1.0000 0.73369  0.44091  0.06061  Biso   1.000  C
  H384     1.0000 0.79881  0.48777  0.08699  Biso   1.000  H
  H385     1.0000 0.79231  0.45201  0.02722  Biso   1.000  H
  H386     1.0000 0.62231  0.17801  0.04548  Biso   1.000  H
  H387     1.0000 0.82169  0.90525  0.26511  Biso   1.000  H
  C416     1.0000 0.70409  0.41859  0.01500  Biso   1.000  C
  C417     1.0000 0.71399  0.46226  0.10450  Biso   1.000  C
  C418     1.0000 0.65721  0.41917  0.01261  Biso   1.000  C
  H388     1.0000 0.71645  0.40217  0.98428  Biso   1.000  H
  C419     1.0000 0.66711  0.46317  0.10358  Biso   1.000  C
  H389     1.0000 0.73359  0.47686  0.13669  Biso   1.000  H
  C420     1.0000 0.63841  0.44059  0.05619  Biso   1.000  C
  H390     1.0000 0.63765  0.40470  0.98026  Biso   1.000  H
  H391     1.0000 0.65458  0.47881  0.13430  Biso   1.000  H
  H392     1.0000 0.60592  0.44020  0.05452  Biso   1.000  H
  C421     1.0000 0.21096  0.72386  0.60208  Biso   1.000  C
  C422     1.0000 0.19367  0.74839  0.54541  Biso   1.000  C
  C423     1.0000 0.19097  0.78091  0.64251  Biso   1.000  C
  H393     1.0000 0.20287  0.66247  0.60749  Biso   1.000  H
  H394     1.0000 0.24488  0.72860  0.60900  Biso   1.000  H
  C424     1.0000 0.16606  0.69239  0.51159  Biso   1.000  C
  C425     1.0000 0.20668  0.82439  0.52500  Biso   1.000  C
  C426     1.0000 0.13796  0.78065  0.63411  Biso   1.000  C
  H395     1.0000 0.20179  0.84126  0.63961  Biso   1.000  H
  H396     1.0000 0.20288  0.76008  0.67888  Biso   1.000  H
  C427     1.0000 0.15057  0.71426  0.45870  Biso   1.000  C
  H397     1.0000 0.15759  0.63807  0.52480  Biso   1.000  H
  C428     1.0000 0.19038  0.84697  0.47291  Biso   1.000  C
  H398     1.0000 0.22718  0.86216  0.54681  Biso   1.000  H
  C429     1.0000 0.11907  0.84697  0.66850  Biso   1.000  C
  C430     1.0000 0.11749  0.69089  0.64028  Biso   1.000  C
  H399     1.0000 0.12728  0.79869  0.59639  Biso   1.000  H
  H400     1.0000 0.13219  0.67487  0.43558  Biso   1.000  H
  C431     1.0000 0.16168  0.79110  0.44091  Biso   1.000  C
  H401     1.0000 0.19898  0.90090  0.45918  Biso   1.000  H
  C432     1.0000 0.13798  0.86119  0.72130  Biso   1.000  C
  C433     1.0000 0.08098  0.89876  0.64760  Biso   1.000  C
  C434     1.0000 0.13475  0.63392  0.68131  Biso   1.000  C
  C435     1.0000 0.07957  0.66247  0.60490  Biso   1.000  C
  H402     1.0000 0.14968  0.80771  0.40538  Biso   1.000  H
  H403     1.0000 0.16338  0.82601  0.73630  Biso   1.000  H
  C436     1.0000 0.12259  0.92336  0.75401  Biso   1.000  C
  C437     1.0000 0.06466  0.96087  0.67809  Biso   1.000  C
  O57      1.0000 0.05830  0.89039  0.59623  Biso   1.000  O
  C438     1.0000 0.11625  0.55299  0.68891  Biso   1.000  C
  H404     1.0000 0.16106  0.65170  0.70558  Biso   1.000  H
  O58      1.0000 0.06088  0.71620  0.56360  Biso   1.000  O
  C439     1.0000 0.05888  0.58330  0.61119  Biso   1.000  C
  C440     1.0000 0.08505  0.97469  0.73010  Biso   1.000  C
  C441     1.0000 0.14444  0.93627  0.81199  Biso   1.000  C
  H405     1.0000 0.03897  0.99507  0.66320  Biso   1.000  H
  H406     1.0000 0.06556  0.84295  0.58358  Biso   1.000  H
  C442     1.0000 0.13699  0.49082  0.73240  Biso   1.000  C
  C443     1.0000 0.07718  0.52911  0.65310  Biso   1.000  C
  H407     1.0000 0.04097  0.68888  0.54259  Biso   1.000  H
  H408     1.0000 0.03227  0.56597  0.58700  Biso   1.000  H
  O59      1.0000 0.06785  0.03920  0.75891  Biso   1.000  O
  H409     1.0000 0.13717  0.99695  0.82170  Biso   1.000  H
  C444     1.0000 0.12214  0.87585  0.84840  Biso   1.000  C
  C445     1.0000 0.19706  0.92868  0.82118  Biso   1.000  C
  C446     1.0000 0.11718  0.50406  0.78298  Biso   1.000  C
  H410     1.0000 0.12725  0.43131  0.71939  Biso   1.000  H
  C447     1.0000 0.18964  0.49088  0.74168  Biso   1.000  C
  O60      1.0000 0.05639  0.45110  0.65799  Biso   1.000  O
  H411     1.0000 0.06596  0.02103  0.78919  Biso   1.000  H
  C448     1.0000 0.13912  0.79285  0.86150  Biso   1.000  C
  C449     1.0000 0.08324  0.90168  0.86937  Biso   1.000  C
  H412     1.0000 0.20928  0.96255  0.79361  Biso   1.000  H
  H413     1.0000 0.20576  0.86716  0.81748  Biso   1.000  H
  C450     1.0000 0.21895  0.96158  0.87630  Biso   1.000  C
  C451     1.0000 0.13435  0.56701  0.82071  Biso   1.000  C
  C452     1.0000 0.08177  0.45168  0.79651  Biso   1.000  C
  H414     1.0000 0.20077  0.54890  0.75449  Biso   1.000  H
  H415     1.0000 0.20028  0.48030  0.70729  Biso   1.000  H
  C453     1.0000 0.21085  0.42261  0.78179  Biso   1.000  C
  H416     1.0000 0.04999  0.42696  0.62858  Biso   1.000  H
  H417     1.0000 0.16504  0.77390  0.84689  Biso   1.000  H
  C454     1.0000 0.12033  0.73619  0.89468  Biso   1.000  C
  C455     1.0000 0.06295  0.84561  0.90181  Biso   1.000  C
  O61      1.0000 0.06527  0.98248  0.85879  Biso   1.000  O
  H418     1.0000 0.19778  0.94847  0.90161  Biso   1.000  H
  C456     1.0000 0.26557  0.92427  0.89799  Biso   1.000  C
  H419     1.0000 0.22186  0.02550  0.87459  Biso   1.000  H
  C457     1.0000 0.11992  0.57817  0.86918  Biso   1.000  C
  H420     1.0000 0.15767  0.60478  0.81239  Biso   1.000  H
  O62      1.0000 0.06183  0.39010  0.76078  Biso   1.000  O
  C458     1.0000 0.06616  0.46109  0.84391  Biso   1.000  C
  H421     1.0000 0.20097  0.43501  0.81629  Biso   1.000  H
  H422     1.0000 0.24476  0.42891  0.78700  Biso   1.000  H
  C459     1.0000 0.19880  0.32890  0.76679  Biso   1.000  C
  C460     1.0000 0.08106  0.76326  0.91378  Biso   1.000  C
  C461     1.0000 0.14095  0.64709  0.90901  Biso   1.000  C
  H423     1.0000 0.03645  0.86378  0.91569  Biso   1.000  H
  H424     1.0000 0.05295  0.99948  0.88450  Biso   1.000  H
  C462     1.0000 0.30588  0.97216  0.90590  Biso   1.000  C
  C463     1.0000 0.26974  0.83737  0.91108  Biso   1.000  C
  C464     1.0000 0.08506  0.52301  0.88068  Biso   1.000  C
  H425     1.0000 0.05897  0.40600  0.72858  Biso   1.000  H
  H426     1.0000 0.04206  0.42482  0.85179  Biso   1.000  H
  C465     1.0000 0.18215  0.27497  0.80188  Biso   1.000  C
  C466     1.0000 0.20567  0.29522  0.71860  Biso   1.000  C
  O63      1.0000 0.05865  0.71199  0.94490  Biso   1.000  O
  H427     1.0000 0.13246  0.63099  0.94419  Biso   1.000  H
  C467     1.0000 0.19340  0.64638  0.91641  Biso   1.000  C
  C468     1.0000 0.34808  0.93355  0.92660  Biso   1.000  C
  H428     1.0000 0.30487  0.03219  0.89719  Biso   1.000  H
  C469     1.0000 0.31155  0.80077  0.93137  Biso   1.000  C
  H429     1.0000 0.24307  0.80180  0.90590  Biso   1.000  H
  O64      1.0000 0.06917  0.53242  0.92799  Biso   1.000  O
  H430     1.0000 0.17635  0.29710  0.83499  Biso   1.000  H
  C470     1.0000 0.17376  0.18729  0.78931  Biso   1.000  C
  C471     1.0000 0.19866  0.20877  0.70690  Biso   1.000  C
  H431     1.0000 0.21546  0.33240  0.69301  Biso   1.000  H
  H432     1.0000 0.05595  0.66000  0.93499  Biso   1.000  H
  H433     1.0000 0.20308  0.65987  0.88191  Biso   1.000  H
  H434     1.0000 0.20545  0.69271  0.94180  Biso   1.000  H
  C472     1.0000 0.21490  0.55941  0.93690  Biso   1.000  C
  H435     1.0000 0.37558  0.96690  0.93161  Biso   1.000  H
  C473     1.0000 0.34927  0.84795  0.93949  Biso   1.000  C
  H436     1.0000 0.31324  0.74061  0.93969  Biso   1.000  H
  H437     1.0000 0.06997  0.50198  0.95501  Biso   1.000  H
  H438     1.0000 0.16167  0.15050  0.81350  Biso   1.000  H
  C474     1.0000 0.18286  0.15471  0.74271  Biso   1.000  C
  H439     1.0000 0.20466  0.18638  0.67399  Biso   1.000  H
  H440     1.0000 0.20117  0.51217  0.91299  Biso   1.000  H
  H441     1.0000 0.20767  0.54799  0.97280  Biso   1.000  H
  C475     1.0000 0.26625  0.55909  0.93941  Biso   1.000  C
  H442     1.0000 0.37766  0.82199  0.95449  Biso   1.000  H
  H443     1.0000 0.17825  0.09468  0.73491  Biso   1.000  H
  C476     1.0000 0.29584  0.58141  0.98498  Biso   1.000  C
  C477     1.0000 0.28595  0.53767  0.89548  Biso   1.000  C
  C478     1.0000 0.34277  0.58076  0.98740  Biso   1.000  C
  H444     1.0000 0.28350  0.59777  0.01574  Biso   1.000  H
  C479     1.0000 0.33287  0.53676  0.89639  Biso   1.000  C
  H445     1.0000 0.26635  0.52307  0.86329  Biso   1.000  H
  C480     1.0000 0.36156  0.55941  0.94379  Biso   1.000  C
  H446     1.0000 0.36232  0.59530  0.01971  Biso   1.000  H
  H447     1.0000 0.34535  0.52119  0.86567  Biso   1.000  H
  H448     1.0000 0.39406  0.55980  0.94550  Biso   1.000  H
