data_image0
_cell_length_a       22.507
_cell_length_b       23.493
_cell_length_c       26.119
_cell_angle_alpha    90
_cell_angle_beta     90
_cell_angle_gamma    90

_symmetry_space_group_name_H-M    "P 1"
_symmetry_int_tables_number       1

loop_
  _symmetry_equiv_pos_as_xyz
  'x, y, z'

loop_
  _atom_site_label
  _atom_site_occupancy
  _atom_site_fract_x
  _atom_site_fract_y
  _atom_site_fract_z
  _atom_site_thermal_displace_type
  _atom_site_B_iso_or_equiv
  _atom_site_type_symbol
  C1       1.0000 0.50740  0.54910  0.56101  Biso   1.000  C
  C2       1.0000 0.47141  0.59618  0.53631  Biso   1.000  C
  C3       1.0000 0.50402  0.55148  0.61989  Biso   1.000  C
  H1       1.0000 0.54858  0.55251  0.55040  Biso   1.000  H
  H2       1.0000 0.49282  0.51249  0.54929  Biso   1.000  H
  H3       1.0000 0.47199  0.59158  0.49979  Biso   1.000  H
  H4       1.0000 0.48811  0.63240  0.54531  Biso   1.000  H
  H5       1.0000 0.43111  0.59418  0.54830  Biso   1.000  H
  C4       1.0000 0.52752  0.60529  0.64451  Biso   1.000  C
  C5       1.0000 0.53192  0.49721  0.64382  Biso   1.000  C
  H6       1.0000 0.46159  0.54999  0.62839  Biso   1.000  H
  C6       1.0000 0.57369  0.63649  0.62211  Biso   1.000  C
  C7       1.0000 0.50411  0.62440  0.69072  Biso   1.000  C
  C8       1.0000 0.50149  0.46542  0.68000  Biso   1.000  C
  C9       1.0000 0.58831  0.48002  0.62962  Biso   1.000  C
  C10      1.0000 0.59613  0.68650  0.64413  Biso   1.000  C
  H7       1.0000 0.59008  0.62359  0.59160  Biso   1.000  H
  O1       1.0000 0.46070  0.59260  0.71370  Biso   1.000  O
  C11      1.0000 0.52499  0.67399  0.71370  Biso   1.000  C
  O2       1.0000 0.44648  0.47861  0.69880  Biso   1.000  O
  C12      1.0000 0.52641  0.41438  0.69823  Biso   1.000  C
  C13      1.0000 0.61501  0.43051  0.64830  Biso   1.000  C
  H8       1.0000 0.60950  0.50249  0.60661  Biso   1.000  H
  C14      1.0000 0.57009  0.70570  0.68931  Biso   1.000  C
  C15      1.0000 0.64900  0.71928  0.62192  Biso   1.000  C
  H9       1.0000 0.47381  0.57830  0.74000  Biso   1.000  H
  C16      1.0000 0.50109  0.69570  0.76312  Biso   1.000  C
  H10      1.0000 0.44408  0.51309  0.70320  Biso   1.000  H
  C17      1.0000 0.58240  0.39748  0.68192  Biso   1.000  C
  C18      1.0000 0.49509  0.38411  0.74153  Biso   1.000  C
  C19      1.0000 0.67912  0.41480  0.63180  Biso   1.000  C
  O3       1.0000 0.58289  0.75618  0.71190  Biso   1.000  O
  C20      1.0000 0.70662  0.70289  0.65029  Biso   1.000  C
  H11      1.0000 0.64189  0.75959  0.62920  Biso   1.000  H
  C21      1.0000 0.65500  0.71400  0.56331  Biso   1.000  C
  N1       1.0000 0.54890  0.69621  0.80440  Biso   1.000  N
  H12      1.0000 0.46830  0.67182  0.77411  Biso   1.000  H
  H13      1.0000 0.48598  0.73401  0.75830  Biso   1.000  H
  O4       1.0000 0.60390  0.34640  0.70202  Biso   1.000  O
  N2       1.0000 0.50251  0.41621  0.79100  Biso   1.000  N
  H14      1.0000 0.45310  0.38058  0.73360  Biso   1.000  H
  H15      1.0000 0.51131  0.34610  0.74532  Biso   1.000  H
  H16      1.0000 0.68530  0.37522  0.64241  Biso   1.000  H
  C22      1.0000 0.72391  0.45052  0.66201  Biso   1.000  C
  C23      1.0000 0.68841  0.41621  0.57491  Biso   1.000  C
  H17      1.0000 0.61821  0.76329  0.70761  Biso   1.000  H
  C24      1.0000 0.72880  0.73669  0.68980  Biso   1.000  C
  C25      1.0000 0.73750  0.65360  0.63842  Biso   1.000  C
  H18      1.0000 0.66410  0.67480  0.55469  Biso   1.000  H
  H19      1.0000 0.61732  0.72349  0.54761  Biso   1.000  H
  C26      1.0000 0.70343  0.75269  0.54152  Biso   1.000  C
  H20      1.0000 0.56671  0.66228  0.80432  Biso   1.000  H
  H21      1.0000 0.57609  0.72192  0.79563  Biso   1.000  H
  C27      1.0000 0.52979  0.70830  0.85692  Biso   1.000  C
  H22      1.0000 0.63731  0.35130  0.71370  Biso   1.000  H
  H23      1.0000 0.49180  0.45218  0.78602  Biso   1.000  H
  H24      1.0000 0.54081  0.41600  0.79949  Biso   1.000  H
  C28      1.0000 0.46670  0.39220  0.83552  Biso   1.000  C
  C29      1.0000 0.75181  0.49721  0.64130  Biso   1.000  C
  C30      1.0000 0.73719  0.43651  0.71239  Biso   1.000  C
  H25      1.0000 0.67441  0.45230  0.56170  Biso   1.000  H
  H26      1.0000 0.73062  0.41361  0.56782  Biso   1.000  H
  C31      1.0000 0.65740  0.36951  0.54780  Biso   1.000  C
  O5       1.0000 0.69889  0.78611  0.70152  Biso   1.000  O
  C32      1.0000 0.78060  0.72128  0.71653  Biso   1.000  C
  C33      1.0000 0.79002  0.63708  0.66220  Biso   1.000  C
  H27      1.0000 0.72231  0.63019  0.61293  Biso   1.000  H
  H28      1.0000 0.71000  0.74350  0.50622  Biso   1.000  H
  H29      1.0000 0.73959  0.74729  0.56040  Biso   1.000  H
  H30      1.0000 0.69112  0.79168  0.54439  Biso   1.000  H
  H31      1.0000 0.49660  0.68259  0.86401  Biso   1.000  H
  C34      1.0000 0.57720  0.69459  0.89571  Biso   1.000  C
  C35      1.0000 0.50580  0.76848  0.86339  Biso   1.000  C
  C36      1.0000 0.40210  0.40931  0.83081  Biso   1.000  C
  H32      1.0000 0.46852  0.35062  0.83330  Biso   1.000  H
  C37      1.0000 0.49531  0.40940  0.88491  Biso   1.000  C
  H33      1.0000 0.74381  0.50670  0.60741  Biso   1.000  H
  C38      1.0000 0.79189  0.53131  0.66882  Biso   1.000  C
  O6       1.0000 0.71080  0.38841  0.73322  Biso   1.000  O
  C39      1.0000 0.77802  0.46648  0.74172  Biso   1.000  C
  H34      1.0000 0.66442  0.37279  0.51170  Biso   1.000  H
  H35      1.0000 0.61550  0.37198  0.55442  Biso   1.000  H
  H36      1.0000 0.67210  0.33350  0.55982  Biso   1.000  H
  H37      1.0000 0.70183  0.79241  0.73230  Biso   1.000  H
  C40      1.0000 0.81033  0.67131  0.70202  Biso   1.000  C
  C41      1.0000 0.80659  0.75571  0.75891  Biso   1.000  C
  C42      1.0000 0.82321  0.58239  0.64650  Biso   1.000  C
  H38      1.0000 0.61221  0.71741  0.88863  Biso   1.000  H
  H39      1.0000 0.58822  0.65492  0.89242  Biso   1.000  H
  C43      1.0000 0.55649  0.70608  0.95073  Biso   1.000  C
  C44      1.0000 0.48589  0.77959  0.91811  Biso   1.000  C
  H40      1.0000 0.53641  0.79560  0.85421  Biso   1.000  H
  H41      1.0000 0.47239  0.77402  0.84042  Biso   1.000  H
  H42      1.0000 0.38530  0.39250  0.80022  Biso   1.000  H
  H43      1.0000 0.39930  0.45030  0.82771  Biso   1.000  H
  C45      1.0000 0.36682  0.38939  0.87790  Biso   1.000  C
  H44      1.0000 0.49731  0.45052  0.88713  Biso   1.000  H
  H45      1.0000 0.53552  0.39450  0.88640  Biso   1.000  H
  C46      1.0000 0.45879  0.38582  0.93013  Biso   1.000  C
  C47      1.0000 0.80402  0.51530  0.71883  Biso   1.000  C
  H46      1.0000 0.68779  0.39761  0.75880  Biso   1.000  H
  C48      1.0000 0.80113  0.44511  0.79100  Biso   1.000  C
  O7       1.0000 0.86151  0.66071  0.72912  Biso   1.000  O
  N3       1.0000 0.79371  0.73069  0.81021  Biso   1.000  N
  H47      1.0000 0.79060  0.79398  0.75742  Biso   1.000  H
  H48      1.0000 0.84929  0.75810  0.75420  Biso   1.000  H
  H49      1.0000 0.86262  0.58409  0.66251  Biso   1.000  H
  C49      1.0000 0.83330  0.57992  0.58861  Biso   1.000  C
  H50      1.0000 0.52450  0.68020  0.95942  Biso   1.000  H
  H51      1.0000 0.58911  0.69940  0.97423  Biso   1.000  H
  C50      1.0000 0.53552  0.76619  0.95582  Biso   1.000  C
  H52      1.0000 0.45150  0.75618  0.92580  Biso   1.000  H
  H53      1.0000 0.47430  0.81918  0.92163  Biso   1.000  H
  C51      1.0000 0.39401  0.40518  0.92703  Biso   1.000  C
  H54      1.0000 0.32719  0.40561  0.87630  Biso   1.000  H
  H55      1.0000 0.36269  0.34832  0.87660  Biso   1.000  H
  H56      1.0000 0.46039  0.34461  0.92982  Biso   1.000  H
  H57      1.0000 0.47599  0.39888  0.96210  Biso   1.000  H
  O8       1.0000 0.84543  0.54608  0.74532  Biso   1.000  O
  N4       1.0000 0.76781  0.46691  0.83552  Biso   1.000  N
  H58      1.0000 0.79931  0.40378  0.79100  Biso   1.000  H
  H59      1.0000 0.84240  0.45601  0.79440  Biso   1.000  H
  H60      1.0000 0.86231  0.62708  0.73762  Biso   1.000  H
  H61      1.0000 0.79962  0.69319  0.80880  Biso   1.000  H
  H62      1.0000 0.75559  0.73652  0.81760  Biso   1.000  H
  C52      1.0000 0.83192  0.75559  0.85290  Biso   1.000  C
  H63      1.0000 0.85102  0.54348  0.57981  Biso   1.000  H
  H64      1.0000 0.79522  0.58230  0.57131  Biso   1.000  H
  C53      1.0000 0.87320  0.62738  0.56962  Biso   1.000  C
  H65      1.0000 0.56862  0.79181  0.94981  Biso   1.000  H
  H66      1.0000 0.52130  0.77240  0.99043  Biso   1.000  H
  H67      1.0000 0.37162  0.38799  0.95471  Biso   1.000  H
  H68      1.0000 0.39210  0.44622  0.93112  Biso   1.000  H
  H69      1.0000 0.83090  0.55578  0.77281  Biso   1.000  H
  H70      1.0000 0.73013  0.45720  0.82989  Biso   1.000  H
  H71      1.0000 0.76923  0.50462  0.83292  Biso   1.000  H
  C54      1.0000 0.77922  0.45371  0.89402  Biso   1.000  C
  H72      1.0000 0.72920  0.45890  0.83280  Biso   1.000  H
  H73      1.0000 0.77243  0.50428  0.83893  Biso   1.000  H
  C55      1.0000 0.79669  0.43400  0.88193  Biso   1.000  C
  H74      1.0000 0.83601  0.79649  0.84670  Biso   1.000  H
  C56      1.0000 0.80233  0.74801  0.90382  Biso   1.000  C
  C57      1.0000 0.89341  0.72971  0.85310  Biso   1.000  C
  H75      1.0000 0.87213  0.62870  0.53291  Biso   1.000  H
  H76      1.0000 0.91323  0.62061  0.58073  Biso   1.000  H
  H77      1.0000 0.85969  0.66309  0.58322  Biso   1.000  H
  C58      1.0000 0.83881  0.48521  0.90911  Biso   1.000  C
  C59      1.0000 0.76749  0.40089  0.91141  Biso   1.000  C
  H78      1.0000 0.74892  0.47670  0.91110  Biso   1.000  H
  C60      1.0000 0.85342  0.43421  0.89203  Biso   1.000  C
  C61      1.0000 0.75390  0.46771  0.92611  Biso   1.000  C
  H79      1.0000 0.78371  0.39420  0.88020  Biso   1.000  H
  C62      1.0000 0.84001  0.77551  0.94563  Biso   1.000  C
  H80      1.0000 0.79749  0.70770  0.91102  Biso   1.000  H
  H81      1.0000 0.76318  0.76529  0.90321  Biso   1.000  H
  H82      1.0000 0.91163  0.73528  0.81982  Biso   1.000  H
  H83      1.0000 0.89030  0.68910  0.85903  Biso   1.000  H
  C63      1.0000 0.93269  0.75618  0.89410  Biso   1.000  C
  H84      1.0000 0.87040  0.47418  0.88591  Biso   1.000  H
  H85      1.0000 0.83330  0.52611  0.90662  Biso   1.000  H
  C64      1.0000 0.85591  0.46869  0.96543  Biso   1.000  C
  H86      1.0000 0.86853  0.47261  0.88832  Biso   1.000  H
  C65      1.0000 0.78869  0.38760  0.96321  Biso   1.000  C
  H87      1.0000 0.78491  0.37360  0.88790  Biso   1.000  H
  H88      1.0000 0.72480  0.39531  0.91072  Biso   1.000  H
  C66      1.0000 0.86782  0.41229  0.94713  Biso   1.000  C
  H89      1.0000 0.87373  0.41029  0.86730  Biso   1.000  H
  C67      1.0000 0.76523  0.44490  0.97703  Biso   1.000  C
  H90      1.0000 0.76261  0.50819  0.92572  Biso   1.000  H
  H91      1.0000 0.71231  0.46269  0.91761  Biso   1.000  H
  C68      1.0000 0.90252  0.75180  0.94651  Biso   1.000  C
  H92      1.0000 0.84169  0.81629  0.93981  Biso   1.000  H
  H93      1.0000 0.82139  0.76921  0.97860  Biso   1.000  H
  H94      1.0000 0.94002  0.79581  0.88602  Biso   1.000  H
  H95      1.0000 0.97059  0.73660  0.89510  Biso   1.000  H
  H96      1.0000 0.89852  0.47329  0.96872  Biso   1.000  H
  H97      1.0000 0.83769  0.49662  0.98790  Biso   1.000  H
  C69      1.0000 0.84303  0.42021  0.98262  Biso   1.000  C
  C70      1.0000 0.82659  0.44379  0.99142  Biso   1.000  C
  H98      1.0000 0.84063  0.48248  0.99652  Biso   1.000  H
  H99      1.0000 0.79780  0.34729  0.96451  Biso   1.000  H
  H100     1.0000 0.75621  0.39442  0.98691  Biso   1.000  H
  H101     1.0000 0.74972  0.40650  0.97871  Biso   1.000  H
  H102     1.0000 0.87733  0.39612  0.97691  Biso   1.000  H
  H103     1.0000 0.90949  0.41919  0.95440  Biso   1.000  H
  H104     1.0000 0.86120  0.37151  0.94850  Biso   1.000  H
  H105     1.0000 0.74359  0.46771  0.00180  Biso   1.000  H
  H106     1.0000 0.90119  0.71221  0.95700  Biso   1.000  H
  H107     1.0000 0.92580  0.77249  0.97163  Biso   1.000  H
  H108     1.0000 0.83863  0.42408  0.01941  Biso   1.000  H
  H109     1.0000 0.83081  0.42362  0.02358  Biso   1.000  H
  C71      1.0000 0.49260  0.45090  0.43899  Biso   1.000  C
  C72      1.0000 0.49602  0.44852  0.38011  Biso   1.000  C
  H110     1.0000 0.45142  0.44749  0.44960  Biso   1.000  H
  H111     1.0000 0.50722  0.48751  0.45071  Biso   1.000  H
  C73      1.0000 0.52859  0.40378  0.46372  Biso   1.000  C
  C74      1.0000 0.47252  0.39471  0.35549  Biso   1.000  C
  C75      1.0000 0.46812  0.50279  0.35622  Biso   1.000  C
  H112     1.0000 0.53841  0.45001  0.37161  Biso   1.000  H
  H113     1.0000 0.52801  0.40842  0.50021  Biso   1.000  H
  H114     1.0000 0.51189  0.36760  0.45469  Biso   1.000  H
  H115     1.0000 0.56889  0.40578  0.45170  Biso   1.000  H
  C76      1.0000 0.42631  0.36351  0.37792  Biso   1.000  C
  C77      1.0000 0.49589  0.37560  0.30932  Biso   1.000  C
  C78      1.0000 0.49851  0.53458  0.32000  Biso   1.000  C
  C79      1.0000 0.41169  0.51998  0.37042  Biso   1.000  C
  C80      1.0000 0.40392  0.31350  0.35591  Biso   1.000  C
  H116     1.0000 0.40992  0.37641  0.40840  Biso   1.000  H
  C81      1.0000 0.47501  0.32601  0.28630  Biso   1.000  C
  O9       1.0000 0.53930  0.40740  0.28630  Biso   1.000  O
  O10      1.0000 0.55352  0.52139  0.30120  Biso   1.000  O
  C82      1.0000 0.47359  0.58558  0.30181  Biso   1.000  C
  C83      1.0000 0.38499  0.56949  0.35170  Biso   1.000  C
  H117     1.0000 0.39050  0.49751  0.39339  Biso   1.000  H
  C84      1.0000 0.35100  0.28068  0.37812  Biso   1.000  C
  C85      1.0000 0.42991  0.29430  0.31069  Biso   1.000  C
  C86      1.0000 0.49891  0.30430  0.23692  Biso   1.000  C
  H118     1.0000 0.52619  0.42170  0.26000  Biso   1.000  H
  H119     1.0000 0.55592  0.48691  0.29680  Biso   1.000  H
  C87      1.0000 0.41760  0.60248  0.31812  Biso   1.000  C
  C88      1.0000 0.50491  0.61589  0.25851  Biso   1.000  C
  C89      1.0000 0.32092  0.58520  0.36820  Biso   1.000  C
  C90      1.0000 0.29342  0.29711  0.34971  Biso   1.000  C
  H120     1.0000 0.35811  0.24041  0.37080  Biso   1.000  H
  C91      1.0000 0.34500  0.28600  0.43669  Biso   1.000  C
  O11      1.0000 0.41711  0.24382  0.28810  Biso   1.000  O
  N5       1.0000 0.45110  0.30379  0.19560  Biso   1.000  N
  H121     1.0000 0.53170  0.32818  0.22589  Biso   1.000  H
  H122     1.0000 0.51402  0.26599  0.24170  Biso   1.000  H
  O12      1.0000 0.39610  0.65360  0.29802  Biso   1.000  O
  N6       1.0000 0.49749  0.58379  0.20900  Biso   1.000  N
  H123     1.0000 0.54690  0.61942  0.26640  Biso   1.000  H
  H124     1.0000 0.48869  0.65390  0.25472  Biso   1.000  H
  C92      1.0000 0.27609  0.54948  0.33799  Biso   1.000  C
  H125     1.0000 0.31470  0.62478  0.35759  Biso   1.000  H
  C93      1.0000 0.31159  0.58379  0.42509  Biso   1.000  C
  C94      1.0000 0.27120  0.26331  0.31020  Biso   1.000  C
  C95      1.0000 0.26250  0.34640  0.36161  Biso   1.000  C
  H126     1.0000 0.33590  0.32520  0.44531  Biso   1.000  H
  H127     1.0000 0.38273  0.27651  0.45239  Biso   1.000  H
  C96      1.0000 0.29662  0.24731  0.45852  Biso   1.000  C
  H128     1.0000 0.38179  0.23671  0.29239  Biso   1.000  H
  H129     1.0000 0.43329  0.33772  0.19572  Biso   1.000  H
  H130     1.0000 0.42391  0.27808  0.20441  Biso   1.000  H
  C97      1.0000 0.47021  0.29170  0.14311  Biso   1.000  C
  H131     1.0000 0.36269  0.64870  0.28630  Biso   1.000  H
  H132     1.0000 0.50820  0.54778  0.21402  Biso   1.000  H
  H133     1.0000 0.45919  0.58400  0.20051  Biso   1.000  H
  C98      1.0000 0.53330  0.60780  0.16452  Biso   1.000  C
  C99      1.0000 0.24819  0.50279  0.35870  Biso   1.000  C
  C100     1.0000 0.26281  0.56349  0.28761  Biso   1.000  C
  H134     1.0000 0.32559  0.54770  0.43830  Biso   1.000  H
  H135     1.0000 0.26938  0.58639  0.43221  Biso   1.000  H
  C101     1.0000 0.34260  0.63049  0.45220  Biso   1.000  C
  C102     1.0000 0.21940  0.27868  0.28351  Biso   1.000  C
  O13      1.0000 0.30111  0.21389  0.29852  Biso   1.000  O
  C103     1.0000 0.21002  0.36292  0.33780  Biso   1.000  C
  H136     1.0000 0.27769  0.36981  0.38711  Biso   1.000  H
  H137     1.0000 0.29000  0.25650  0.49382  Biso   1.000  H
  H138     1.0000 0.26041  0.25271  0.43960  Biso   1.000  H
  H139     1.0000 0.30888  0.20832  0.45561  Biso   1.000  H
  H140     1.0000 0.50340  0.31741  0.13599  Biso   1.000  H
  C104     1.0000 0.42280  0.30541  0.10429  Biso   1.000  C
  C105     1.0000 0.49420  0.23152  0.13661  Biso   1.000  C
  C106     1.0000 0.59790  0.59069  0.16919  Biso   1.000  C
  H141     1.0000 0.53152  0.64938  0.16670  Biso   1.000  H
  C107     1.0000 0.50469  0.59060  0.11509  Biso   1.000  C
  C108     1.0000 0.20811  0.46869  0.33121  Biso   1.000  C
  H142     1.0000 0.25619  0.49330  0.39259  Biso   1.000  H
  C109     1.0000 0.22202  0.53348  0.25832  Biso   1.000  C
  O14      1.0000 0.28920  0.61159  0.26682  Biso   1.000  O
  H143     1.0000 0.33558  0.62721  0.48830  Biso   1.000  H
  H144     1.0000 0.38450  0.62802  0.44561  Biso   1.000  H
  H145     1.0000 0.32790  0.66650  0.44022  Biso   1.000  H
  C110     1.0000 0.18972  0.32869  0.29802  Biso   1.000  C
  C111     1.0000 0.19341  0.24429  0.24109  Biso   1.000  C
  H146     1.0000 0.29822  0.20759  0.26770  Biso   1.000  H
  C112     1.0000 0.17679  0.41761  0.35350  Biso   1.000  C
  H147     1.0000 0.38779  0.28259  0.11141  Biso   1.000  H
  H148     1.0000 0.41178  0.34508  0.10758  Biso   1.000  H
  C113     1.0000 0.44351  0.29392  0.04931  Biso   1.000  C
  C114     1.0000 0.51411  0.22041  0.08189  Biso   1.000  C
  H149     1.0000 0.46359  0.20440  0.14579  Biso   1.000  H
  H150     1.0000 0.52761  0.22598  0.15962  Biso   1.000  H
  H151     1.0000 0.61470  0.60750  0.19982  Biso   1.000  H
  H152     1.0000 0.60070  0.54970  0.17229  Biso   1.000  H
  C115     1.0000 0.63323  0.61061  0.12210  Biso   1.000  C
  H153     1.0000 0.50269  0.54948  0.11291  Biso   1.000  H
  H154     1.0000 0.46452  0.60550  0.11360  Biso   1.000  H
  C116     1.0000 0.54121  0.61418  0.06991  Biso   1.000  C
  C117     1.0000 0.19598  0.48470  0.28121  Biso   1.000  C
  C118     1.0000 0.19892  0.55489  0.20900  Biso   1.000  C
  H155     1.0000 0.31221  0.60239  0.24120  Biso   1.000  H
  O15      1.0000 0.13849  0.33929  0.27091  Biso   1.000  O
  N7       1.0000 0.20629  0.26931  0.18979  Biso   1.000  N
  H156     1.0000 0.20940  0.20602  0.24262  Biso   1.000  H
  H157     1.0000 0.15071  0.24190  0.24580  Biso   1.000  H
  H158     1.0000 0.13738  0.41591  0.33749  Biso   1.000  H
  C119     1.0000 0.16670  0.42008  0.41142  Biso   1.000  C
  H159     1.0000 0.47550  0.31980  0.04058  Biso   1.000  H
  H160     1.0000 0.41089  0.30060  0.02580  Biso   1.000  H
  C120     1.0000 0.46452  0.23381  0.04418  Biso   1.000  C
  H161     1.0000 0.54850  0.24382  0.07420  Biso   1.000  H
  H162     1.0000 0.52570  0.18082  0.07841  Biso   1.000  H
  C121     1.0000 0.60599  0.59482  0.07301  Biso   1.000  C
  H163     1.0000 0.67281  0.59439  0.12370  Biso   1.000  H
  H164     1.0000 0.63731  0.65168  0.12340  Biso   1.000  H
  H165     1.0000 0.53961  0.65539  0.07022  Biso   1.000  H
  H166     1.0000 0.52401  0.60112  0.03790  Biso   1.000  H
  O16      1.0000 0.15462  0.45388  0.25472  Biso   1.000  O
  N8       1.0000 0.23219  0.53309  0.16452  Biso   1.000  N
  H167     1.0000 0.20069  0.59618  0.20900  Biso   1.000  H
  H168     1.0000 0.15760  0.54399  0.20560  Biso   1.000  H
  H169     1.0000 0.13769  0.37292  0.26241  Biso   1.000  H
  H170     1.0000 0.20038  0.30681  0.19120  Biso   1.000  H
  H171     1.0000 0.24441  0.26348  0.18240  Biso   1.000  H
  C122     1.0000 0.16808  0.24441  0.14710  Biso   1.000  C
  H172     1.0000 0.14902  0.45652  0.42019  Biso   1.000  H
  H173     1.0000 0.20478  0.41770  0.42869  Biso   1.000  H
  C123     1.0000 0.12680  0.37258  0.43041  Biso   1.000  C
  H174     1.0000 0.43142  0.20819  0.05019  Biso   1.000  H
  H175     1.0000 0.47870  0.22760  0.00961  Biso   1.000  H
  H176     1.0000 0.62843  0.61201  0.04529  Biso   1.000  H
  H177     1.0000 0.60790  0.55378  0.06892  Biso   1.000  H
  H178     1.0000 0.16910  0.44422  0.22719  Biso   1.000  H
  H179     1.0000 0.26992  0.54280  0.17011  Biso   1.000  H
  H180     1.0000 0.23082  0.49538  0.16712  Biso   1.000  H
  C124     1.0000 0.22082  0.54629  0.10601  Biso   1.000  C
  H181     1.0000 0.27080  0.54110  0.16720  Biso   1.000  H
  H182     1.0000 0.22762  0.49568  0.16111  Biso   1.000  H
  C125     1.0000 0.20331  0.56600  0.11811  Biso   1.000  C
  H183     1.0000 0.16399  0.20351  0.15330  Biso   1.000  H
  C126     1.0000 0.19772  0.25199  0.09621  Biso   1.000  C
  C127     1.0000 0.10659  0.27029  0.14690  Biso   1.000  C
  H184     1.0000 0.12792  0.37130  0.46709  Biso   1.000  H
  H185     1.0000 0.08682  0.37939  0.41931  Biso   1.000  H
  H186     1.0000 0.14031  0.33691  0.41682  Biso   1.000  H
  C128     1.0000 0.16119  0.51479  0.09089  Biso   1.000  C
  C129     1.0000 0.23251  0.59911  0.08859  Biso   1.000  C
  H187     1.0000 0.25112  0.52330  0.08890  Biso   1.000  H
  C130     1.0000 0.14662  0.56579  0.10801  Biso   1.000  C
  C131     1.0000 0.24610  0.53229  0.07389  Biso   1.000  C
  H188     1.0000 0.21629  0.60580  0.11980  Biso   1.000  H
  C132     1.0000 0.15999  0.22449  0.05440  Biso   1.000  C
  H189     1.0000 0.20251  0.29230  0.08902  Biso   1.000  H
  H190     1.0000 0.23682  0.23471  0.09679  Biso   1.000  H
  H191     1.0000 0.08842  0.26472  0.18021  Biso   1.000  H
  H192     1.0000 0.10970  0.31090  0.14101  Biso   1.000  H
  C133     1.0000 0.06731  0.24382  0.10590  Biso   1.000  C
  H193     1.0000 0.12960  0.52582  0.11409  Biso   1.000  H
  H194     1.0000 0.16670  0.47389  0.09342  Biso   1.000  H
  C134     1.0000 0.14409  0.53131  0.03461  Biso   1.000  C
  H195     1.0000 0.13151  0.52739  0.11172  Biso   1.000  H
  C135     1.0000 0.21131  0.61240  0.03679  Biso   1.000  C
  H196     1.0000 0.21509  0.62640  0.11210  Biso   1.000  H
  H197     1.0000 0.27520  0.60469  0.08928  Biso   1.000  H
  C136     1.0000 0.13218  0.58771  0.05291  Biso   1.000  C
  H198     1.0000 0.12632  0.58971  0.13270  Biso   1.000  H
  C137     1.0000 0.23482  0.55510  0.02301  Biso   1.000  C
  H199     1.0000 0.23739  0.49181  0.07431  Biso   1.000  H
  H200     1.0000 0.28769  0.53731  0.08239  Biso   1.000  H
  C138     1.0000 0.09748  0.24820  0.05349  Biso   1.000  C
  H201     1.0000 0.15831  0.18371  0.06019  Biso   1.000  H
  H202     1.0000 0.17861  0.23079  0.02140  Biso   1.000  H
  H203     1.0000 0.05998  0.20419  0.11402  Biso   1.000  H
  H204     1.0000 0.02941  0.26340  0.10490  Biso   1.000  H
  H205     1.0000 0.10148  0.52671  0.03132  Biso   1.000  H
  H206     1.0000 0.16231  0.50338  0.01210  Biso   1.000  H
  C139     1.0000 0.15702  0.57979  0.01738  Biso   1.000  C
  C140     1.0000 0.17341  0.55621  0.00861  Biso   1.000  C
  H207     1.0000 0.15942  0.51752  0.00348  Biso   1.000  H
  H208     1.0000 0.20220  0.65271  0.03549  Biso   1.000  H
  H209     1.0000 0.24379  0.60558  0.01309  Biso   1.000  H
  H210     1.0000 0.25032  0.59350  0.02129  Biso   1.000  H
  H211     1.0000 0.12272  0.60388  0.02309  Biso   1.000  H
  H212     1.0000 0.09051  0.58081  0.04560  Biso   1.000  H
  H213     1.0000 0.13880  0.62849  0.05150  Biso   1.000  H
  H214     1.0000 0.25641  0.53229  0.99820  Biso   1.000  H
  H215     1.0000 0.09881  0.28779  0.04300  Biso   1.000  H
  H216     1.0000 0.07420  0.22751  0.02841  Biso   1.000  H
  H217     1.0000 0.16142  0.57592  0.98063  Biso   1.000  H
  H218     1.0000 0.16919  0.57638  0.97642  Biso   1.000  H
  C141     1.0000 0.64411  0.53131  0.46541  Biso   1.000  C
  C142     1.0000 0.66122  0.51479  0.40909  Biso   1.000  C
  C143     1.0000 0.63220  0.58771  0.44711  Biso   1.000  C
  H219     1.0000 0.60150  0.52671  0.46870  Biso   1.000  H
  H220     1.0000 0.66233  0.50338  0.48792  Biso   1.000  H
  C144     1.0000 0.65700  0.57979  0.48260  Biso   1.000  C
  C145     1.0000 0.67339  0.55621  0.49140  Biso   1.000  C
  H221     1.0000 0.65939  0.51752  0.49650  Biso   1.000  H
  C146     1.0000 0.72080  0.54629  0.39400  Biso   1.000  C
  C147     1.0000 0.70329  0.56600  0.38191  Biso   1.000  C
  C148     1.0000 0.64660  0.56579  0.39201  Biso   1.000  C
  H222     1.0000 0.62963  0.52582  0.38589  Biso   1.000  H
  H223     1.0000 0.66673  0.47389  0.40660  Biso   1.000  H
  H224     1.0000 0.63149  0.52739  0.38830  Biso   1.000  H
  H225     1.0000 0.62270  0.60388  0.47689  Biso   1.000  H
  H226     1.0000 0.59053  0.58081  0.45442  Biso   1.000  H
  H227     1.0000 0.63882  0.62849  0.44852  Biso   1.000  H
  C149     1.0000 0.71129  0.61240  0.46323  Biso   1.000  C
  H228     1.0000 0.66139  0.57592  0.51939  Biso   1.000  H
  H229     1.0000 0.66921  0.57638  0.52360  Biso   1.000  H
  C150     1.0000 0.73479  0.55510  0.47701  Biso   1.000  C
  N9       1.0000 0.73222  0.53309  0.33550  Biso   1.000  N
  C151     1.0000 0.73253  0.59911  0.41142  Biso   1.000  C
  H230     1.0000 0.75110  0.52330  0.41112  Biso   1.000  H
  C152     1.0000 0.74612  0.53229  0.42609  Biso   1.000  C
  H231     1.0000 0.71631  0.60580  0.38022  Biso   1.000  H
  H232     1.0000 0.62629  0.58971  0.36732  Biso   1.000  H
  H233     1.0000 0.70223  0.65271  0.46449  Biso   1.000  H
  H234     1.0000 0.74381  0.60558  0.48693  Biso   1.000  H
  H235     1.0000 0.75030  0.59350  0.47869  Biso   1.000  H
  H236     1.0000 0.75639  0.53229  0.50182  Biso   1.000  H
  C153     1.0000 0.69889  0.55489  0.29101  Biso   1.000  C
  H237     1.0000 0.76989  0.54280  0.32991  Biso   1.000  H
  H238     1.0000 0.73079  0.49538  0.33290  Biso   1.000  H
  H239     1.0000 0.77083  0.54110  0.33282  Biso   1.000  H
  H240     1.0000 0.72760  0.49568  0.33891  Biso   1.000  H
  H241     1.0000 0.71511  0.62640  0.38792  Biso   1.000  H
  H242     1.0000 0.77523  0.60469  0.41070  Biso   1.000  H
  H243     1.0000 0.73742  0.49181  0.42571  Biso   1.000  H
  H244     1.0000 0.78771  0.53731  0.41759  Biso   1.000  H
  C154     1.0000 0.72200  0.53348  0.24170  Biso   1.000  C
  H245     1.0000 0.70072  0.59618  0.29101  Biso   1.000  H
  H246     1.0000 0.65762  0.54399  0.29442  Biso   1.000  H
  C155     1.0000 0.69601  0.48470  0.21881  Biso   1.000  C
  C156     1.0000 0.76278  0.56349  0.21241  Biso   1.000  C
  C157     1.0000 0.70809  0.46869  0.16880  Biso   1.000  C
  O17      1.0000 0.65460  0.45388  0.24530  Biso   1.000  O
  C158     1.0000 0.77611  0.54948  0.16199  Biso   1.000  C
  O18      1.0000 0.78922  0.61159  0.23320  Biso   1.000  O
  C159     1.0000 0.67681  0.41761  0.14648  Biso   1.000  C
  C160     1.0000 0.74821  0.50279  0.14131  Biso   1.000  C
  H247     1.0000 0.66913  0.44422  0.27279  Biso   1.000  H
  C161     1.0000 0.82090  0.58520  0.13182  Biso   1.000  C
  H248     1.0000 0.81219  0.60239  0.25882  Biso   1.000  H
  C162     1.0000 0.71000  0.36292  0.16222  Biso   1.000  C
  H249     1.0000 0.63740  0.41591  0.16249  Biso   1.000  H
  C163     1.0000 0.66673  0.42008  0.08859  Biso   1.000  C
  H250     1.0000 0.75621  0.49330  0.10739  Biso   1.000  H
  C164     1.0000 0.88501  0.56949  0.14832  Biso   1.000  C
  H251     1.0000 0.81472  0.62478  0.14239  Biso   1.000  H
  C165     1.0000 0.81161  0.58379  0.07489  Biso   1.000  C
  C166     1.0000 0.68970  0.32869  0.20200  Biso   1.000  C
  C167     1.0000 0.76252  0.34640  0.13840  Biso   1.000  C
  H252     1.0000 0.64900  0.45652  0.07979  Biso   1.000  H
  H253     1.0000 0.70480  0.41770  0.07129  Biso   1.000  H
  C168     1.0000 0.62683  0.37258  0.06960  Biso   1.000  C
  C169     1.0000 0.91172  0.51998  0.12960  Biso   1.000  C
  C170     1.0000 0.91763  0.60248  0.18190  Biso   1.000  C
  H254     1.0000 0.82561  0.54770  0.06172  Biso   1.000  H
  H255     1.0000 0.76941  0.58639  0.06781  Biso   1.000  H
  C171     1.0000 0.84263  0.63049  0.04782  Biso   1.000  C
  C172     1.0000 0.71942  0.27868  0.21651  Biso   1.000  C
  O19      1.0000 0.63851  0.33929  0.22911  Biso   1.000  O
  C173     1.0000 0.79340  0.29711  0.15031  Biso   1.000  C
  H256     1.0000 0.77771  0.36981  0.11291  Biso   1.000  H
  H257     1.0000 0.62789  0.37130  0.03289  Biso   1.000  H
  H258     1.0000 0.58680  0.37939  0.08071  Biso   1.000  H
  H259     1.0000 0.64029  0.33691  0.08320  Biso   1.000  H
  C174     1.0000 0.96810  0.50279  0.14380  Biso   1.000  C
  H260     1.0000 0.89052  0.49751  0.10659  Biso   1.000  H
  C175     1.0000 0.97361  0.58558  0.19821  Biso   1.000  C
  O20      1.0000 0.89612  0.65360  0.20200  Biso   1.000  O
  H261     1.0000 0.83561  0.62721  0.01172  Biso   1.000  H
  H262     1.0000 0.88452  0.62802  0.05440  Biso   1.000  H
  H263     1.0000 0.82792  0.66650  0.05980  Biso   1.000  H
  C176     1.0000 0.69338  0.24429  0.25889  Biso   1.000  C
  C177     1.0000 0.77123  0.26331  0.18979  Biso   1.000  C
  H264     1.0000 0.63771  0.37292  0.23760  Biso   1.000  H
  C178     1.0000 0.85102  0.28068  0.12190  Biso   1.000  C
  C179     1.0000 0.99600  0.44852  0.11991  Biso   1.000  C
  C180     1.0000 0.99849  0.53458  0.17998  Biso   1.000  C
  C181     1.0000 0.00489  0.61589  0.24151  Biso   1.000  C
  H265     1.0000 0.86271  0.64870  0.21371  Biso   1.000  H
  N10      1.0000 0.70631  0.26931  0.31020  Biso   1.000  N
  H266     1.0000 0.70942  0.20602  0.25740  Biso   1.000  H
  H267     1.0000 0.65069  0.24190  0.25422  Biso   1.000  H
  O21      1.0000 0.80113  0.21389  0.20150  Biso   1.000  O
  C182     1.0000 0.90390  0.31350  0.14411  Biso   1.000  C
  H268     1.0000 0.85809  0.24041  0.12922  Biso   1.000  H
  C183     1.0000 0.84503  0.28600  0.06329  Biso   1.000  C
  C184     1.0000 0.97250  0.39471  0.14449  Biso   1.000  C
  C185     1.0000 0.99262  0.45090  0.06099  Biso   1.000  C
  H269     1.0000 0.03839  0.45001  0.12841  Biso   1.000  H
  O22      1.0000 0.05349  0.52139  0.19882  Biso   1.000  O
  N11      1.0000 0.99751  0.58379  0.29101  Biso   1.000  N
  H270     1.0000 0.98871  0.65390  0.24530  Biso   1.000  H
  H271     1.0000 0.04692  0.61942  0.23358  Biso   1.000  H
  C186     1.0000 0.66810  0.24441  0.35292  Biso   1.000  C
  H272     1.0000 0.70040  0.30681  0.30882  Biso   1.000  H
  H273     1.0000 0.74439  0.26348  0.31762  Biso   1.000  H
  H274     1.0000 0.79820  0.20759  0.23232  Biso   1.000  H
  C187     1.0000 0.92989  0.29430  0.18929  Biso   1.000  C
  C188     1.0000 0.92629  0.36351  0.12210  Biso   1.000  C
  H275     1.0000 0.83592  0.32520  0.05471  Biso   1.000  H
  H276     1.0000 0.88270  0.27651  0.04759  Biso   1.000  H
  C189     1.0000 0.79660  0.24731  0.04150  Biso   1.000  C
  C190     1.0000 0.99591  0.37560  0.19070  Biso   1.000  C
  H277     1.0000 0.95139  0.44749  0.05038  Biso   1.000  H
  H278     1.0000 0.00720  0.48751  0.04931  Biso   1.000  H
  C191     1.0000 0.02861  0.40378  0.03630  Biso   1.000  C
  H279     1.0000 0.05589  0.48691  0.20319  Biso   1.000  H
  H280     1.0000 0.95921  0.58400  0.29951  Biso   1.000  H
  H281     1.0000 0.00822  0.54778  0.28600  Biso   1.000  H
  C192     1.0000 0.03328  0.60780  0.33550  Biso   1.000  C
  C193     1.0000 0.60661  0.27029  0.35311  Biso   1.000  C
  C194     1.0000 0.69769  0.25199  0.40381  Biso   1.000  C
  H282     1.0000 0.66402  0.20351  0.34672  Biso   1.000  H
  O23      1.0000 0.91709  0.24382  0.21191  Biso   1.000  O
  C195     1.0000 0.97503  0.32601  0.21371  Biso   1.000  C
  H283     1.0000 0.90989  0.37641  0.09162  Biso   1.000  H
  H284     1.0000 0.79002  0.25650  0.00620  Biso   1.000  H
  H285     1.0000 0.76039  0.25271  0.06042  Biso   1.000  H
  H286     1.0000 0.80890  0.20832  0.04441  Biso   1.000  H
  O24      1.0000 0.03932  0.40740  0.21371  Biso   1.000  O
  H287     1.0000 0.02799  0.40842  0.99981  Biso   1.000  H
  H288     1.0000 0.01191  0.36760  0.04529  Biso   1.000  H
  H289     1.0000 0.06891  0.40578  0.04832  Biso   1.000  H
  C196     1.0000 0.09788  0.59069  0.33079  Biso   1.000  C
  H290     1.0000 0.03150  0.64938  0.33332  Biso   1.000  H
  C197     1.0000 0.00471  0.59060  0.38489  Biso   1.000  C
  C198     1.0000 0.56729  0.24382  0.39412  Biso   1.000  C
  H291     1.0000 0.58839  0.26472  0.31981  Biso   1.000  H
  H292     1.0000 0.60972  0.31090  0.35901  Biso   1.000  H
  C199     1.0000 0.66002  0.22449  0.44561  Biso   1.000  C
  H293     1.0000 0.70249  0.29230  0.41100  Biso   1.000  H
  H294     1.0000 0.73679  0.23471  0.40319  Biso   1.000  H
  H295     1.0000 0.88181  0.23671  0.20759  Biso   1.000  H
  C200     1.0000 0.99889  0.30430  0.26310  Biso   1.000  C
  H296     1.0000 0.02621  0.42170  0.24002  Biso   1.000  H
  H297     1.0000 0.11472  0.60750  0.30020  Biso   1.000  H
  H298     1.0000 0.10068  0.54970  0.32769  Biso   1.000  H
  C201     1.0000 0.13320  0.61061  0.37792  Biso   1.000  C
  H299     1.0000 0.96450  0.60550  0.38642  Biso   1.000  H
  H300     1.0000 0.00271  0.54948  0.38711  Biso   1.000  H
  C202     1.0000 0.04119  0.61418  0.43011  Biso   1.000  C
  C203     1.0000 0.59750  0.24820  0.44649  Biso   1.000  C
  H301     1.0000 0.56000  0.20419  0.38600  Biso   1.000  H
  H302     1.0000 0.52939  0.26340  0.39511  Biso   1.000  H
  H303     1.0000 0.65828  0.18371  0.43979  Biso   1.000  H
  H304     1.0000 0.67859  0.23079  0.47862  Biso   1.000  H
  N12      1.0000 0.95113  0.30379  0.30441  Biso   1.000  N
  H305     1.0000 0.03168  0.32818  0.27409  Biso   1.000  H
  H306     1.0000 0.01400  0.26599  0.25832  Biso   1.000  H
  C204     1.0000 0.10601  0.59482  0.42701  Biso   1.000  C
  H307     1.0000 0.17279  0.59439  0.37632  Biso   1.000  H
  H308     1.0000 0.13729  0.65168  0.37662  Biso   1.000  H
  H309     1.0000 0.03959  0.65539  0.42980  Biso   1.000  H
  H310     1.0000 0.02399  0.60112  0.46212  Biso   1.000  H
  H311     1.0000 0.59879  0.28779  0.45702  Biso   1.000  H
  H312     1.0000 0.57422  0.22751  0.47161  Biso   1.000  H
  H313     1.0000 0.93331  0.33772  0.30430  Biso   1.000  H
  H314     1.0000 0.92389  0.27808  0.29561  Biso   1.000  H
  C205     1.0000 0.97019  0.29170  0.35690  Biso   1.000  C
  H315     1.0000 0.12840  0.61201  0.45469  Biso   1.000  H
  H316     1.0000 0.10792  0.55378  0.43110  Biso   1.000  H
  C206     1.0000 0.92282  0.30541  0.39569  Biso   1.000  C
  C207     1.0000 0.99422  0.23152  0.36341  Biso   1.000  C
  H317     1.0000 0.00342  0.31741  0.36399  Biso   1.000  H
  H318     1.0000 0.88781  0.28259  0.38861  Biso   1.000  H
  H319     1.0000 0.91181  0.34508  0.39240  Biso   1.000  H
  C208     1.0000 0.94353  0.29392  0.45071  Biso   1.000  C
  H320     1.0000 0.96361  0.20440  0.35419  Biso   1.000  H
  C209     1.0000 0.01408  0.22041  0.41812  Biso   1.000  C
  H321     1.0000 0.02759  0.22598  0.34040  Biso   1.000  H
  H322     1.0000 0.97552  0.31980  0.45940  Biso   1.000  H
  H323     1.0000 0.91092  0.30060  0.47421  Biso   1.000  H
  C210     1.0000 0.96450  0.23381  0.45580  Biso   1.000  C
  H324     1.0000 0.04852  0.24382  0.42582  Biso   1.000  H
  H325     1.0000 0.02568  0.18082  0.42161  Biso   1.000  H
  H326     1.0000 0.93140  0.20819  0.44983  Biso   1.000  H
  H327     1.0000 0.97872  0.22760  0.49041  Biso   1.000  H
  C211     1.0000 0.35589  0.46869  0.53459  Biso   1.000  C
  C212     1.0000 0.34300  0.42021  0.51740  Biso   1.000  C
  C213     1.0000 0.32661  0.44379  0.50860  Biso   1.000  C
  C214     1.0000 0.36780  0.41229  0.55289  Biso   1.000  C
  H328     1.0000 0.33772  0.49662  0.51212  Biso   1.000  H
  H329     1.0000 0.34061  0.48248  0.50350  Biso   1.000  H
  C215     1.0000 0.33878  0.48521  0.59091  Biso   1.000  C
  H330     1.0000 0.39850  0.47329  0.53130  Biso   1.000  H
  C216     1.0000 0.28871  0.38760  0.53681  Biso   1.000  C
  H331     1.0000 0.33861  0.42408  0.48061  Biso   1.000  H
  H332     1.0000 0.37730  0.39612  0.52311  Biso   1.000  H
  H333     1.0000 0.33079  0.42362  0.47640  Biso   1.000  H
  C217     1.0000 0.26521  0.44490  0.52299  Biso   1.000  C
  C218     1.0000 0.35340  0.43421  0.60802  Biso   1.000  C
  H334     1.0000 0.40952  0.41919  0.54562  Biso   1.000  H
  H335     1.0000 0.36122  0.37151  0.55151  Biso   1.000  H
  C219     1.0000 0.27920  0.45371  0.60600  Biso   1.000  C
  C220     1.0000 0.29671  0.43400  0.61809  Biso   1.000  C
  H336     1.0000 0.37042  0.47418  0.61411  Biso   1.000  H
  H337     1.0000 0.33332  0.52611  0.59340  Biso   1.000  H
  H338     1.0000 0.36851  0.47261  0.61170  Biso   1.000  H
  H339     1.0000 0.29782  0.34729  0.53551  Biso   1.000  H
  H340     1.0000 0.25619  0.39442  0.51311  Biso   1.000  H
  C221     1.0000 0.26752  0.40089  0.58861  Biso   1.000  C
  H341     1.0000 0.24970  0.40650  0.52131  Biso   1.000  H
  C222     1.0000 0.25392  0.46771  0.57391  Biso   1.000  C
  H342     1.0000 0.24361  0.46771  0.49822  Biso   1.000  H
  H343     1.0000 0.37371  0.41029  0.63272  Biso   1.000  H
  N13      1.0000 0.26778  0.46691  0.66450  Biso   1.000  N
  H344     1.0000 0.24890  0.47670  0.58892  Biso   1.000  H
  H345     1.0000 0.28369  0.39420  0.61982  Biso   1.000  H
  H346     1.0000 0.28489  0.37360  0.61212  Biso   1.000  H
  H347     1.0000 0.22482  0.39531  0.58930  Biso   1.000  H
  H348     1.0000 0.26258  0.50819  0.57429  Biso   1.000  H
  H349     1.0000 0.21229  0.46269  0.58241  Biso   1.000  H
  H350     1.0000 0.23011  0.45720  0.67013  Biso   1.000  H
  H351     1.0000 0.26921  0.50462  0.66710  Biso   1.000  H
  C223     1.0000 0.30111  0.44511  0.70902  Biso   1.000  C
  H352     1.0000 0.22922  0.45890  0.66722  Biso   1.000  H
  H353     1.0000 0.27240  0.50428  0.66113  Biso   1.000  H
  C224     1.0000 0.27800  0.46648  0.75830  Biso   1.000  C
  H354     1.0000 0.29928  0.40378  0.70902  Biso   1.000  H
  H355     1.0000 0.34238  0.45601  0.70562  Biso   1.000  H
  C225     1.0000 0.30399  0.51530  0.78119  Biso   1.000  C
  C226     1.0000 0.23722  0.43651  0.78763  Biso   1.000  C
  O25      1.0000 0.34540  0.54608  0.75470  Biso   1.000  O
  C227     1.0000 0.29191  0.53131  0.83120  Biso   1.000  C
  O26      1.0000 0.21082  0.38841  0.76680  Biso   1.000  O
  C228     1.0000 0.22389  0.45052  0.83801  Biso   1.000  C
  H356     1.0000 0.33092  0.55578  0.72721  Biso   1.000  H
  C229     1.0000 0.25179  0.49721  0.85872  Biso   1.000  C
  C230     1.0000 0.32319  0.58239  0.85352  Biso   1.000  C
  H357     1.0000 0.18781  0.39761  0.74122  Biso   1.000  H
  C231     1.0000 0.17910  0.41480  0.86822  Biso   1.000  C
  H358     1.0000 0.24379  0.50670  0.89261  Biso   1.000  H
  C232     1.0000 0.29000  0.63708  0.83782  Biso   1.000  C
  H359     1.0000 0.36260  0.58409  0.83751  Biso   1.000  H
  C233     1.0000 0.33332  0.57992  0.91141  Biso   1.000  C
  C234     1.0000 0.11499  0.43051  0.85172  Biso   1.000  C
  H360     1.0000 0.18532  0.37522  0.85761  Biso   1.000  H
  C235     1.0000 0.18839  0.41621  0.92511  Biso   1.000  C
  C236     1.0000 0.23748  0.65360  0.86160  Biso   1.000  C
  C237     1.0000 0.31030  0.67131  0.79800  Biso   1.000  C
  H361     1.0000 0.35100  0.54348  0.92021  Biso   1.000  H
  H362     1.0000 0.29520  0.58230  0.92871  Biso   1.000  H
  C238     1.0000 0.37322  0.62738  0.93040  Biso   1.000  C
  C239     1.0000 0.08828  0.48002  0.87040  Biso   1.000  C
  C240     1.0000 0.08242  0.39748  0.81810  Biso   1.000  C
  H363     1.0000 0.17439  0.45230  0.93832  Biso   1.000  H
  H364     1.0000 0.23059  0.41361  0.93223  Biso   1.000  H
  C241     1.0000 0.15742  0.36951  0.95222  Biso   1.000  C
  C242     1.0000 0.20660  0.70289  0.84973  Biso   1.000  C
  H365     1.0000 0.22229  0.63019  0.88713  Biso   1.000  H
  O27      1.0000 0.36149  0.66071  0.77089  Biso   1.000  O
  C243     1.0000 0.28062  0.72128  0.78353  Biso   1.000  C
  H366     1.0000 0.37211  0.62870  0.96711  Biso   1.000  H
  H367     1.0000 0.41320  0.62061  0.91933  Biso   1.000  H
  H368     1.0000 0.35971  0.66309  0.91680  Biso   1.000  H
  C244     1.0000 0.03190  0.49721  0.85620  Biso   1.000  C
  H369     1.0000 0.10952  0.50249  0.89341  Biso   1.000  H
  O28      1.0000 0.10388  0.34640  0.79800  Biso   1.000  O
  C245     1.0000 0.02639  0.41438  0.80183  Biso   1.000  C
  H370     1.0000 0.16439  0.37279  0.98832  Biso   1.000  H
  H371     1.0000 0.11552  0.37198  0.94563  Biso   1.000  H
  H372     1.0000 0.17208  0.33350  0.94020  Biso   1.000  H
  C246     1.0000 0.14902  0.71928  0.87810  Biso   1.000  C
  C247     1.0000 0.22882  0.73669  0.81021  Biso   1.000  C
  H373     1.0000 0.36229  0.62708  0.76240  Biso   1.000  H
  C248     1.0000 0.30662  0.75571  0.74111  Biso   1.000  C
  C249     1.0000 0.00151  0.46542  0.82002  Biso   1.000  C
  C250     1.0000 0.00400  0.55148  0.88013  Biso   1.000  C
  H374     1.0000 0.13729  0.35130  0.78632  Biso   1.000  H
  C251     1.0000 0.99511  0.38411  0.75853  Biso   1.000  C
  C252     1.0000 0.09610  0.68650  0.85593  Biso   1.000  C
  H375     1.0000 0.14191  0.75959  0.87082  Biso   1.000  H
  C253     1.0000 0.15502  0.71400  0.93671  Biso   1.000  C
  O29      1.0000 0.19892  0.78611  0.79850  Biso   1.000  O
  N14      1.0000 0.29369  0.73069  0.68980  Biso   1.000  N
  H376     1.0000 0.29062  0.79398  0.74260  Biso   1.000  H
  H377     1.0000 0.34931  0.75810  0.74582  Biso   1.000  H
  O30      1.0000 0.94651  0.47861  0.80122  Biso   1.000  O
  C254     1.0000 0.02750  0.60529  0.85551  Biso   1.000  C
  C255     1.0000 0.00742  0.54910  0.93901  Biso   1.000  C
  H378     1.0000 0.96161  0.54999  0.87163  Biso   1.000  H
  N15      1.0000 0.00249  0.41621  0.70902  Biso   1.000  N
  H379     1.0000 0.01129  0.34610  0.75470  Biso   1.000  H
  H380     1.0000 0.95313  0.38058  0.76642  Biso   1.000  H
  C256     1.0000 0.07011  0.70570  0.81071  Biso   1.000  C
  C257     1.0000 0.07371  0.63649  0.87790  Biso   1.000  C
  H381     1.0000 0.16408  0.67480  0.94533  Biso   1.000  H
  H382     1.0000 0.11730  0.72349  0.95241  Biso   1.000  H
  C258     1.0000 0.20340  0.75269  0.95850  Biso   1.000  C
  H383     1.0000 0.20180  0.79241  0.76772  Biso   1.000  H
  H384     1.0000 0.29960  0.69319  0.69122  Biso   1.000  H
  H385     1.0000 0.25561  0.73652  0.68242  Biso   1.000  H
  C259     1.0000 0.33190  0.75559  0.64712  Biso   1.000  C
  H386     1.0000 0.94411  0.51309  0.79681  Biso   1.000  H
  C260     1.0000 0.00409  0.62440  0.80930  Biso   1.000  C
  H387     1.0000 0.04861  0.55251  0.94962  Biso   1.000  H
  H388     1.0000 0.99280  0.51249  0.95073  Biso   1.000  H
  C261     1.0000 0.97139  0.59618  0.96370  Biso   1.000  C
  H389     1.0000 0.04079  0.41600  0.70052  Biso   1.000  H
  H390     1.0000 0.99182  0.45218  0.71400  Biso   1.000  H
  C262     1.0000 0.96672  0.39220  0.66450  Biso   1.000  C
  O31      1.0000 0.08291  0.75618  0.78812  Biso   1.000  O
  C263     1.0000 0.02501  0.67399  0.78632  Biso   1.000  C
  H391     1.0000 0.09011  0.62359  0.90842  Biso   1.000  H
  H392     1.0000 0.21002  0.74350  0.99380  Biso   1.000  H
  H393     1.0000 0.23961  0.74729  0.93962  Biso   1.000  H
  H394     1.0000 0.19110  0.79168  0.95563  Biso   1.000  H
  H395     1.0000 0.33598  0.79649  0.65332  Biso   1.000  H
  C264     1.0000 0.30231  0.74801  0.59619  Biso   1.000  C
  C265     1.0000 0.39339  0.72971  0.64692  Biso   1.000  C
  O32      1.0000 0.96072  0.59260  0.78632  Biso   1.000  O
  H396     1.0000 0.98809  0.63240  0.95471  Biso   1.000  H
  H397     1.0000 0.93109  0.59418  0.95172  Biso   1.000  H
  H398     1.0000 0.97201  0.59158  0.00019  Biso   1.000  H
  C266     1.0000 0.90212  0.40931  0.66921  Biso   1.000  C
  H399     1.0000 0.96850  0.35062  0.66672  Biso   1.000  H
  C267     1.0000 0.99529  0.40940  0.61511  Biso   1.000  C
  H400     1.0000 0.11819  0.76329  0.79241  Biso   1.000  H
  C268     1.0000 0.00111  0.69570  0.73690  Biso   1.000  C
  C269     1.0000 0.33998  0.77551  0.55442  Biso   1.000  C
  H401     1.0000 0.29751  0.70770  0.58900  Biso   1.000  H
  H402     1.0000 0.26321  0.76529  0.59681  Biso   1.000  H
  H403     1.0000 0.41161  0.73528  0.68019  Biso   1.000  H
  H404     1.0000 0.39032  0.68910  0.64103  Biso   1.000  H
  C270     1.0000 0.43271  0.75618  0.60592  Biso   1.000  C
  H405     1.0000 0.97383  0.57830  0.76002  Biso   1.000  H
  H406     1.0000 0.88532  0.39250  0.69980  Biso   1.000  H
  H407     1.0000 0.89932  0.45030  0.67231  Biso   1.000  H
  C271     1.0000 0.86680  0.38939  0.62211  Biso   1.000  C
  H408     1.0000 0.03550  0.39450  0.61361  Biso   1.000  H
  H409     1.0000 0.99729  0.45052  0.61293  Biso   1.000  H
  C272     1.0000 0.95881  0.38582  0.56989  Biso   1.000  C
  N16      1.0000 0.04892  0.69621  0.69562  Biso   1.000  N
  H410     1.0000 0.96832  0.67182  0.72591  Biso   1.000  H
  H411     1.0000 0.98600  0.73401  0.74172  Biso   1.000  H
  C273     1.0000 0.40250  0.75180  0.55351  Biso   1.000  C
  H412     1.0000 0.34172  0.81629  0.56021  Biso   1.000  H
  H413     1.0000 0.32141  0.76921  0.52142  Biso   1.000  H
  H414     1.0000 0.44000  0.79581  0.61400  Biso   1.000  H
  H415     1.0000 0.47061  0.73660  0.60492  Biso   1.000  H
  C274     1.0000 0.89399  0.40518  0.57299  Biso   1.000  C
  H416     1.0000 0.82721  0.40561  0.62372  Biso   1.000  H
  H417     1.0000 0.86271  0.34832  0.62342  Biso   1.000  H
  H418     1.0000 0.96041  0.34461  0.57020  Biso   1.000  H
  H419     1.0000 0.97601  0.39888  0.53792  Biso   1.000  H
  H420     1.0000 0.06669  0.66228  0.69570  Biso   1.000  H
  H421     1.0000 0.07611  0.72192  0.70443  Biso   1.000  H
  C275     1.0000 0.02981  0.70830  0.64310  Biso   1.000  C
  H422     1.0000 0.40121  0.71221  0.54301  Biso   1.000  H
  H423     1.0000 0.42582  0.77249  0.52839  Biso   1.000  H
  H424     1.0000 0.87160  0.38799  0.54531  Biso   1.000  H
  H425     1.0000 0.89212  0.44622  0.56890  Biso   1.000  H
  C276     1.0000 0.07722  0.69459  0.60431  Biso   1.000  C
  C277     1.0000 0.00582  0.76848  0.63662  Biso   1.000  C
  H426     1.0000 0.99662  0.68259  0.63601  Biso   1.000  H
  H427     1.0000 0.11219  0.71741  0.61139  Biso   1.000  H
  H428     1.0000 0.08819  0.65492  0.60760  Biso   1.000  H
  C278     1.0000 0.05652  0.70608  0.54929  Biso   1.000  C
  H429     1.0000 0.03639  0.79560  0.64581  Biso   1.000  H
  C279     1.0000 0.98592  0.77959  0.58191  Biso   1.000  C
  H430     1.0000 0.97241  0.77402  0.65960  Biso   1.000  H
  H431     1.0000 0.02448  0.68020  0.54060  Biso   1.000  H
  H432     1.0000 0.08908  0.69940  0.52582  Biso   1.000  H
  C280     1.0000 0.03550  0.76619  0.54420  Biso   1.000  C
  H433     1.0000 0.95153  0.75618  0.57422  Biso   1.000  H
  H434     1.0000 0.97432  0.81918  0.57839  Biso   1.000  H
  H435     1.0000 0.06860  0.79181  0.55021  Biso   1.000  H
  H436     1.0000 0.02128  0.77240  0.50959  Biso   1.000  H
  C281     1.0000 0.51411  0.27962  0.58191  Biso   1.000  C
  C282     1.0000 0.49420  0.26851  0.63662  Biso   1.000  C
  C283     1.0000 0.46452  0.26621  0.54420  Biso   1.000  C
  H437     1.0000 0.54850  0.25620  0.57422  Biso   1.000  H
  H438     1.0000 0.52570  0.31920  0.57839  Biso   1.000  H
  C284     1.0000 0.47021  0.20832  0.64310  Biso   1.000  C
  H439     1.0000 0.46359  0.29562  0.64581  Biso   1.000  H
  H440     1.0000 0.52761  0.27400  0.65960  Biso   1.000  H
  C285     1.0000 0.44351  0.20610  0.54929  Biso   1.000  C
  H441     1.0000 0.43142  0.29179  0.55021  Biso   1.000  H
  H442     1.0000 0.47870  0.27238  0.50959  Biso   1.000  H
  N17      1.0000 0.45110  0.19619  0.69562  Biso   1.000  N
  H443     1.0000 0.50340  0.18261  0.63601  Biso   1.000  H
  C286     1.0000 0.42280  0.19461  0.60431  Biso   1.000  C
  H444     1.0000 0.47550  0.18018  0.54060  Biso   1.000  H
  H445     1.0000 0.41089  0.19938  0.52582  Biso   1.000  H
  C287     1.0000 0.49891  0.19572  0.73690  Biso   1.000  C
  H446     1.0000 0.43329  0.16230  0.69570  Biso   1.000  H
  H447     1.0000 0.42391  0.22190  0.70443  Biso   1.000  H
  H448     1.0000 0.38779  0.21738  0.61139  Biso   1.000  H
  H449     1.0000 0.41178  0.15490  0.60760  Biso   1.000  H
  C288     1.0000 0.47501  0.17401  0.78632  Biso   1.000  C
  H450     1.0000 0.53170  0.17180  0.72591  Biso   1.000  H
  H451     1.0000 0.51402  0.23398  0.74172  Biso   1.000  H
  C289     1.0000 0.42991  0.20568  0.81071  Biso   1.000  C
  C290     1.0000 0.49589  0.12442  0.80930  Biso   1.000  C
  C291     1.0000 0.40392  0.18648  0.85593  Biso   1.000  C
  O33      1.0000 0.41711  0.25620  0.78812  Biso   1.000  O
  C292     1.0000 0.47252  0.10531  0.85551  Biso   1.000  C
  O34      1.0000 0.53930  0.09258  0.78632  Biso   1.000  O
  C293     1.0000 0.35100  0.21930  0.87810  Biso   1.000  C
  C294     1.0000 0.42631  0.13651  0.87790  Biso   1.000  C
  H452     1.0000 0.38179  0.26331  0.79241  Biso   1.000  H
  C295     1.0000 0.49602  0.05150  0.88013  Biso   1.000  C
  H453     1.0000 0.52619  0.07828  0.76002  Biso   1.000  H
  C296     1.0000 0.29342  0.20291  0.84973  Biso   1.000  C
  H454     1.0000 0.35811  0.25961  0.87082  Biso   1.000  H
  C297     1.0000 0.34500  0.21398  0.93671  Biso   1.000  C
  H455     1.0000 0.40992  0.12361  0.90842  Biso   1.000  H
  H456     1.0000 0.53841  0.05001  0.87163  Biso   1.000  H
  C298     1.0000 0.49260  0.04912  0.93901  Biso   1.000  C
  C299     1.0000 0.46812  0.99719  0.85620  Biso   1.000  C
  C300     1.0000 0.27120  0.23671  0.81021  Biso   1.000  C
  C301     1.0000 0.26250  0.15362  0.86160  Biso   1.000  C
  H457     1.0000 0.33590  0.17482  0.94533  Biso   1.000  H
  H458     1.0000 0.38273  0.22351  0.95241  Biso   1.000  H
  C302     1.0000 0.29662  0.25271  0.95850  Biso   1.000  C
  H459     1.0000 0.45142  0.05248  0.94962  Biso   1.000  H
  H460     1.0000 0.50722  0.01251  0.95073  Biso   1.000  H
  C303     1.0000 0.52859  0.09620  0.96370  Biso   1.000  C
  C304     1.0000 0.49851  0.96539  0.82002  Biso   1.000  C
  C305     1.0000 0.41169  0.97999  0.87040  Biso   1.000  C
  C306     1.0000 0.21940  0.22130  0.78353  Biso   1.000  C
  O35      1.0000 0.30111  0.28609  0.79850  Biso   1.000  O
  C307     1.0000 0.21002  0.13710  0.83782  Biso   1.000  C
  H461     1.0000 0.27769  0.13021  0.88713  Biso   1.000  H
  H462     1.0000 0.29000  0.24352  0.99380  Biso   1.000  H
  H463     1.0000 0.26041  0.24731  0.93962  Biso   1.000  H
  H464     1.0000 0.30888  0.29170  0.95563  Biso   1.000  H
  H465     1.0000 0.51189  0.13238  0.95471  Biso   1.000  H
  H466     1.0000 0.56889  0.09420  0.95172  Biso   1.000  H
  H467     1.0000 0.52801  0.09160  0.00019  Biso   1.000  H
  O36      1.0000 0.55352  0.97859  0.80122  Biso   1.000  O
  C308     1.0000 0.47359  0.91440  0.80183  Biso   1.000  C
  C309     1.0000 0.38499  0.93049  0.85172  Biso   1.000  C
  H468     1.0000 0.39050  0.00251  0.89341  Biso   1.000  H
  C310     1.0000 0.19341  0.25569  0.74111  Biso   1.000  C
  C311     1.0000 0.18972  0.17129  0.79800  Biso   1.000  C
  H469     1.0000 0.29822  0.29238  0.76772  Biso   1.000  H
  C312     1.0000 0.17679  0.08241  0.85352  Biso   1.000  C
  H470     1.0000 0.55592  0.01311  0.79681  Biso   1.000  H
  C313     1.0000 0.41760  0.89750  0.81810  Biso   1.000  C
  C314     1.0000 0.50491  0.88409  0.75853  Biso   1.000  C
  C315     1.0000 0.32092  0.91478  0.86822  Biso   1.000  C
  N18      1.0000 0.20629  0.23071  0.68980  Biso   1.000  N
  H471     1.0000 0.20940  0.29400  0.74260  Biso   1.000  H
  H472     1.0000 0.15071  0.25812  0.74582  Biso   1.000  H
  O37      1.0000 0.13849  0.16069  0.77089  Biso   1.000  O
  H473     1.0000 0.13738  0.08411  0.83751  Biso   1.000  H
  C316     1.0000 0.16670  0.07990  0.91141  Biso   1.000  C
  C317     1.0000 0.20811  0.03129  0.83120  Biso   1.000  C
  O38      1.0000 0.39610  0.84638  0.79800  Biso   1.000  O
  N19      1.0000 0.49749  0.91619  0.70902  Biso   1.000  N
  H474     1.0000 0.54690  0.88060  0.76642  Biso   1.000  H
  H475     1.0000 0.48869  0.84608  0.75470  Biso   1.000  H
  C318     1.0000 0.27609  0.95050  0.83801  Biso   1.000  C
  H476     1.0000 0.31470  0.87520  0.85761  Biso   1.000  H
  C319     1.0000 0.31159  0.91619  0.92511  Biso   1.000  C
  C320     1.0000 0.16808  0.25561  0.64712  Biso   1.000  C
  H477     1.0000 0.20038  0.19321  0.69122  Biso   1.000  H
  H478     1.0000 0.24441  0.23650  0.68242  Biso   1.000  H
  H479     1.0000 0.13769  0.12710  0.76240  Biso   1.000  H
  H480     1.0000 0.14902  0.04350  0.92021  Biso   1.000  H
  H481     1.0000 0.20478  0.08228  0.92871  Biso   1.000  H
  C321     1.0000 0.12680  0.12740  0.93040  Biso   1.000  C
  C322     1.0000 0.19598  0.01528  0.78119  Biso   1.000  C
  C323     1.0000 0.24819  0.99719  0.85872  Biso   1.000  C
  H482     1.0000 0.36269  0.85132  0.78632  Biso   1.000  H
  H483     1.0000 0.50820  0.95220  0.71400  Biso   1.000  H
  H484     1.0000 0.45919  0.91597  0.70052  Biso   1.000  H
  C324     1.0000 0.53330  0.89218  0.66450  Biso   1.000  C
  C325     1.0000 0.26281  0.93649  0.78763  Biso   1.000  C
  H485     1.0000 0.32559  0.95228  0.93832  Biso   1.000  H
  H486     1.0000 0.26938  0.91359  0.93223  Biso   1.000  H
  C326     1.0000 0.34260  0.86949  0.95222  Biso   1.000  C
  C327     1.0000 0.19772  0.24799  0.59619  Biso   1.000  C
  C328     1.0000 0.10659  0.22969  0.64692  Biso   1.000  C
  H487     1.0000 0.16399  0.29651  0.65332  Biso   1.000  H
  H488     1.0000 0.12792  0.12872  0.96711  Biso   1.000  H
  H489     1.0000 0.08682  0.12059  0.91933  Biso   1.000  H
  H490     1.0000 0.14031  0.16311  0.91680  Biso   1.000  H
  O39      1.0000 0.15462  0.04610  0.75470  Biso   1.000  O
  C329     1.0000 0.22202  0.96650  0.75830  Biso   1.000  C
  H491     1.0000 0.25619  0.00668  0.89261  Biso   1.000  H
  C330     1.0000 0.59790  0.90929  0.66921  Biso   1.000  C
  H492     1.0000 0.53152  0.85059  0.66672  Biso   1.000  H
  C331     1.0000 0.50469  0.90938  0.61511  Biso   1.000  C
  O40      1.0000 0.28920  0.88839  0.76680  Biso   1.000  O
  H493     1.0000 0.33558  0.87281  0.98832  Biso   1.000  H
  H494     1.0000 0.38450  0.87200  0.94563  Biso   1.000  H
  H495     1.0000 0.32790  0.83348  0.94020  Biso   1.000  H
  C332     1.0000 0.15999  0.27549  0.55442  Biso   1.000  C
  H496     1.0000 0.20251  0.20768  0.58900  Biso   1.000  H
  H497     1.0000 0.23682  0.26531  0.59681  Biso   1.000  H
  C333     1.0000 0.06731  0.25620  0.60592  Biso   1.000  C
  H498     1.0000 0.08842  0.23530  0.68019  Biso   1.000  H
  H499     1.0000 0.10970  0.18912  0.64103  Biso   1.000  H
  H500     1.0000 0.16910  0.05580  0.72721  Biso   1.000  H
  C334     1.0000 0.19892  0.94509  0.70902  Biso   1.000  C
  H501     1.0000 0.61470  0.89248  0.69980  Biso   1.000  H
  H502     1.0000 0.60070  0.95028  0.67231  Biso   1.000  H
  C335     1.0000 0.63323  0.88941  0.62211  Biso   1.000  C
  H503     1.0000 0.50269  0.95050  0.61293  Biso   1.000  H
  H504     1.0000 0.46452  0.89448  0.61361  Biso   1.000  H
  C336     1.0000 0.54121  0.88580  0.56989  Biso   1.000  C
  H505     1.0000 0.31221  0.89759  0.74122  Biso   1.000  H
  C337     1.0000 0.09748  0.25182  0.55351  Biso   1.000  C
  H506     1.0000 0.15831  0.31631  0.56021  Biso   1.000  H
  H507     1.0000 0.17861  0.26919  0.52142  Biso   1.000  H
  H508     1.0000 0.05998  0.29579  0.61400  Biso   1.000  H
  H509     1.0000 0.02941  0.23658  0.60492  Biso   1.000  H
  N20      1.0000 0.23219  0.96688  0.66450  Biso   1.000  N
  H510     1.0000 0.20069  0.90380  0.70902  Biso   1.000  H
  H511     1.0000 0.15760  0.95599  0.70562  Biso   1.000  H
  C338     1.0000 0.60599  0.90521  0.57299  Biso   1.000  C
  H512     1.0000 0.67281  0.90559  0.62372  Biso   1.000  H
  H513     1.0000 0.63731  0.84830  0.62342  Biso   1.000  H
  H514     1.0000 0.53961  0.84459  0.57020  Biso   1.000  H
  H515     1.0000 0.52401  0.89891  0.53792  Biso   1.000  H
  H516     1.0000 0.09881  0.21219  0.54301  Biso   1.000  H
  H517     1.0000 0.07420  0.27251  0.52839  Biso   1.000  H
  H518     1.0000 0.23082  0.00460  0.66710  Biso   1.000  H
  H519     1.0000 0.22762  0.00430  0.66113  Biso   1.000  H
  H520     1.0000 0.26992  0.95718  0.67013  Biso   1.000  H
  C339     1.0000 0.22082  0.95369  0.60600  Biso   1.000  C
  H521     1.0000 0.27080  0.95888  0.66722  Biso   1.000  H
  C340     1.0000 0.20331  0.93398  0.61809  Biso   1.000  C
  H522     1.0000 0.62843  0.88801  0.54531  Biso   1.000  H
  H523     1.0000 0.60790  0.94620  0.56890  Biso   1.000  H
  C341     1.0000 0.16119  0.98519  0.59091  Biso   1.000  C
  C342     1.0000 0.23251  0.90091  0.58861  Biso   1.000  C
  H524     1.0000 0.25112  0.97672  0.58892  Biso   1.000  H
  C343     1.0000 0.14662  0.93419  0.60802  Biso   1.000  C
  C344     1.0000 0.24610  0.96769  0.57391  Biso   1.000  C
  H525     1.0000 0.21629  0.89418  0.61982  Biso   1.000  H
  H526     1.0000 0.16670  0.02609  0.59340  Biso   1.000  H
  H527     1.0000 0.12960  0.97421  0.61411  Biso   1.000  H
  C345     1.0000 0.14409  0.96871  0.53459  Biso   1.000  C
  H528     1.0000 0.13151  0.97259  0.61170  Biso   1.000  H
  C346     1.0000 0.21131  0.88758  0.53681  Biso   1.000  C
  H529     1.0000 0.21509  0.87358  0.61212  Biso   1.000  H
  H530     1.0000 0.27520  0.89529  0.58930  Biso   1.000  H
  C347     1.0000 0.13218  0.91231  0.55289  Biso   1.000  C
  H531     1.0000 0.12632  0.91031  0.63272  Biso   1.000  H
  H532     1.0000 0.23739  0.00822  0.57429  Biso   1.000  H
  C348     1.0000 0.23482  0.94488  0.52299  Biso   1.000  C
  H533     1.0000 0.28769  0.96271  0.58241  Biso   1.000  H
  H534     1.0000 0.10148  0.97331  0.53130  Biso   1.000  H
  H535     1.0000 0.16231  0.99659  0.51212  Biso   1.000  H
  C349     1.0000 0.15702  0.92019  0.51740  Biso   1.000  C
  C350     1.0000 0.17341  0.94381  0.50860  Biso   1.000  C
  H536     1.0000 0.15942  0.98251  0.50350  Biso   1.000  H
  H537     1.0000 0.20220  0.84732  0.53551  Biso   1.000  H
  H538     1.0000 0.24379  0.89439  0.51311  Biso   1.000  H
  H539     1.0000 0.25032  0.90648  0.52131  Biso   1.000  H
  H540     1.0000 0.12272  0.89610  0.52311  Biso   1.000  H
  H541     1.0000 0.09051  0.91921  0.54562  Biso   1.000  H
  H542     1.0000 0.13880  0.87149  0.55151  Biso   1.000  H
  H543     1.0000 0.25641  0.96769  0.49822  Biso   1.000  H
  H544     1.0000 0.16142  0.92411  0.48061  Biso   1.000  H
  H545     1.0000 0.16919  0.92359  0.47640  Biso   1.000  H
  C351     1.0000 0.48589  0.72038  0.41812  Biso   1.000  C
  H546     1.0000 0.45150  0.74380  0.42582  Biso   1.000  H
  H547     1.0000 0.47430  0.68080  0.42161  Biso   1.000  H
  C352     1.0000 0.50580  0.73149  0.36341  Biso   1.000  C
  C353     1.0000 0.53552  0.73379  0.45580  Biso   1.000  C
  C354     1.0000 0.52979  0.79168  0.35690  Biso   1.000  C
  H548     1.0000 0.53641  0.70438  0.35419  Biso   1.000  H
  H549     1.0000 0.47239  0.72600  0.34040  Biso   1.000  H
  C355     1.0000 0.55649  0.79390  0.45071  Biso   1.000  C
  H550     1.0000 0.56862  0.70821  0.44983  Biso   1.000  H
  H551     1.0000 0.52130  0.72758  0.49041  Biso   1.000  H
  N21      1.0000 0.54890  0.80381  0.30441  Biso   1.000  N
  H552     1.0000 0.49660  0.81739  0.36399  Biso   1.000  H
  C356     1.0000 0.57720  0.80539  0.39569  Biso   1.000  C
  H553     1.0000 0.52450  0.81978  0.45940  Biso   1.000  H
  H554     1.0000 0.58911  0.80058  0.47421  Biso   1.000  H
  H555     1.0000 0.56671  0.83770  0.30430  Biso   1.000  H
  H556     1.0000 0.57609  0.77810  0.29561  Biso   1.000  H
  C357     1.0000 0.50109  0.80428  0.26310  Biso   1.000  C
  H557     1.0000 0.61221  0.78262  0.38861  Biso   1.000  H
  H558     1.0000 0.58822  0.84510  0.39240  Biso   1.000  H
  C358     1.0000 0.52499  0.82599  0.21371  Biso   1.000  C
  H559     1.0000 0.46830  0.82820  0.27409  Biso   1.000  H
  H560     1.0000 0.48598  0.76602  0.25832  Biso   1.000  H
  C359     1.0000 0.57009  0.79428  0.18929  Biso   1.000  C
  C360     1.0000 0.50411  0.87558  0.19070  Biso   1.000  C
  O41      1.0000 0.58289  0.74380  0.21191  Biso   1.000  O
  C361     1.0000 0.59613  0.81348  0.14411  Biso   1.000  C
  O42      1.0000 0.46070  0.90738  0.21371  Biso   1.000  O
  C362     1.0000 0.52752  0.89469  0.14449  Biso   1.000  C
  H561     1.0000 0.61821  0.73669  0.20759  Biso   1.000  H
  C363     1.0000 0.57369  0.86349  0.12210  Biso   1.000  C
  C364     1.0000 0.64900  0.78070  0.12190  Biso   1.000  C
  H562     1.0000 0.47381  0.92168  0.24002  Biso   1.000  H
  C365     1.0000 0.50402  0.94850  0.11991  Biso   1.000  C
  H563     1.0000 0.59008  0.87639  0.09162  Biso   1.000  H
  C366     1.0000 0.70662  0.79709  0.15031  Biso   1.000  C
  H564     1.0000 0.64189  0.74039  0.12922  Biso   1.000  H
  C367     1.0000 0.65500  0.78598  0.06329  Biso   1.000  C
  H565     1.0000 0.46159  0.94999  0.12841  Biso   1.000  H
  C368     1.0000 0.50740  0.95088  0.06099  Biso   1.000  C
  C369     1.0000 0.53192  0.00281  0.14380  Biso   1.000  C
  C370     1.0000 0.72880  0.76329  0.18979  Biso   1.000  C
  C371     1.0000 0.73750  0.84638  0.13840  Biso   1.000  C
  H566     1.0000 0.66410  0.82518  0.05471  Biso   1.000  H
  H567     1.0000 0.61732  0.77649  0.04759  Biso   1.000  H
  C372     1.0000 0.70343  0.74729  0.04150  Biso   1.000  C
  H568     1.0000 0.54858  0.94752  0.05038  Biso   1.000  H
  H569     1.0000 0.49282  0.98749  0.04931  Biso   1.000  H
  C373     1.0000 0.47141  0.90380  0.03630  Biso   1.000  C
  C374     1.0000 0.50149  0.03461  0.17998  Biso   1.000  C
  C375     1.0000 0.58831  0.02001  0.12960  Biso   1.000  C
  O43      1.0000 0.69889  0.71391  0.20150  Biso   1.000  O
  C376     1.0000 0.78060  0.77870  0.21651  Biso   1.000  C
  C377     1.0000 0.79002  0.86290  0.16222  Biso   1.000  C
  H570     1.0000 0.72231  0.86979  0.11291  Biso   1.000  H
  H571     1.0000 0.71000  0.75648  0.00620  Biso   1.000  H
  H572     1.0000 0.73959  0.75269  0.06042  Biso   1.000  H
  H573     1.0000 0.69112  0.70830  0.04441  Biso   1.000  H
  H574     1.0000 0.48811  0.86758  0.04529  Biso   1.000  H
  H575     1.0000 0.43111  0.90580  0.04832  Biso   1.000  H
  H576     1.0000 0.47199  0.90840  0.99981  Biso   1.000  H
  O44      1.0000 0.44648  0.02141  0.19882  Biso   1.000  O
  C378     1.0000 0.52641  0.08560  0.19821  Biso   1.000  C
  H577     1.0000 0.60950  0.99749  0.10659  Biso   1.000  H
  C379     1.0000 0.61501  0.06951  0.14832  Biso   1.000  C
  H578     1.0000 0.70183  0.70762  0.23232  Biso   1.000  H
  C380     1.0000 0.81033  0.82871  0.20200  Biso   1.000  C
  C381     1.0000 0.80659  0.74431  0.25889  Biso   1.000  C
  C382     1.0000 0.82321  0.91759  0.14648  Biso   1.000  C
  H579     1.0000 0.44408  0.98689  0.20319  Biso   1.000  H
  C383     1.0000 0.58240  0.10250  0.18190  Biso   1.000  C
  C384     1.0000 0.49509  0.11591  0.24151  Biso   1.000  C
  C385     1.0000 0.67912  0.08522  0.13182  Biso   1.000  C
  O45      1.0000 0.86151  0.83931  0.22911  Biso   1.000  O
  N22      1.0000 0.79371  0.76929  0.31020  Biso   1.000  N
  H580     1.0000 0.79060  0.70600  0.25740  Biso   1.000  H
  H581     1.0000 0.84929  0.74188  0.25422  Biso   1.000  H
  H582     1.0000 0.86262  0.91589  0.16249  Biso   1.000  H
  C386     1.0000 0.83330  0.92010  0.08859  Biso   1.000  C
  C387     1.0000 0.79189  0.96871  0.16880  Biso   1.000  C
  O46      1.0000 0.60390  0.15362  0.20200  Biso   1.000  O
  N23      1.0000 0.50251  0.08381  0.29101  Biso   1.000  N
  H583     1.0000 0.45310  0.11940  0.23358  Biso   1.000  H
  H584     1.0000 0.51131  0.15392  0.24530  Biso   1.000  H
  H585     1.0000 0.68530  0.12480  0.14239  Biso   1.000  H
  C388     1.0000 0.72391  0.04950  0.16199  Biso   1.000  C
  C389     1.0000 0.68841  0.08381  0.07489  Biso   1.000  C
  H586     1.0000 0.86231  0.87290  0.23760  Biso   1.000  H
  H587     1.0000 0.79962  0.80679  0.30882  Biso   1.000  H
  H588     1.0000 0.75559  0.76350  0.31762  Biso   1.000  H
  C390     1.0000 0.83192  0.74439  0.35292  Biso   1.000  C
  H589     1.0000 0.85102  0.95650  0.07979  Biso   1.000  H
  H590     1.0000 0.79522  0.91768  0.07129  Biso   1.000  H
  C391     1.0000 0.87320  0.87260  0.06960  Biso   1.000  C
  C392     1.0000 0.80402  0.98468  0.21881  Biso   1.000  C
  C393     1.0000 0.75181  0.00281  0.14131  Biso   1.000  C
  H591     1.0000 0.63731  0.14868  0.21371  Biso   1.000  H
  H592     1.0000 0.49180  0.04780  0.28600  Biso   1.000  H
  H593     1.0000 0.54081  0.08398  0.29951  Biso   1.000  H
  C394     1.0000 0.46670  0.10782  0.33550  Biso   1.000  C
  C395     1.0000 0.73719  0.06351  0.21241  Biso   1.000  C
  H594     1.0000 0.67441  0.04772  0.06172  Biso   1.000  H
  H595     1.0000 0.73062  0.08641  0.06781  Biso   1.000  H
  C396     1.0000 0.65740  0.13051  0.04782  Biso   1.000  C
  H596     1.0000 0.83601  0.70349  0.34672  Biso   1.000  H
  C397     1.0000 0.80233  0.75201  0.40381  Biso   1.000  C
  C398     1.0000 0.89341  0.77031  0.35311  Biso   1.000  C
  H597     1.0000 0.87213  0.87128  0.03289  Biso   1.000  H
  H598     1.0000 0.91323  0.87941  0.08071  Biso   1.000  H
  H599     1.0000 0.85969  0.83689  0.08320  Biso   1.000  H
  O47      1.0000 0.84543  0.95390  0.24530  Biso   1.000  O
  C399     1.0000 0.77802  0.03350  0.24170  Biso   1.000  C
  H600     1.0000 0.74381  0.99327  0.10739  Biso   1.000  H
  C400     1.0000 0.40210  0.09071  0.33079  Biso   1.000  C
  H601     1.0000 0.46852  0.14941  0.33332  Biso   1.000  H
  C401     1.0000 0.49531  0.09058  0.38489  Biso   1.000  C
  O48      1.0000 0.71080  0.11161  0.23320  Biso   1.000  O
  H602     1.0000 0.66442  0.12719  0.01172  Biso   1.000  H
  H603     1.0000 0.61550  0.12800  0.05440  Biso   1.000  H
  H604     1.0000 0.67210  0.16652  0.05980  Biso   1.000  H
  C402     1.0000 0.84001  0.72451  0.44561  Biso   1.000  C
  H605     1.0000 0.79749  0.79228  0.41100  Biso   1.000  H
  H606     1.0000 0.76318  0.73469  0.40319  Biso   1.000  H
  H607     1.0000 0.91163  0.76470  0.31981  Biso   1.000  H
  H608     1.0000 0.89030  0.81088  0.35901  Biso   1.000  H
  C403     1.0000 0.93269  0.74380  0.39412  Biso   1.000  C
  H609     1.0000 0.83090  0.94420  0.27279  Biso   1.000  H
  C404     1.0000 0.80113  0.05491  0.29101  Biso   1.000  C
  H610     1.0000 0.38530  0.10748  0.30020  Biso   1.000  H
  H611     1.0000 0.39930  0.04972  0.32769  Biso   1.000  H
  C405     1.0000 0.36682  0.11059  0.37792  Biso   1.000  C
  H612     1.0000 0.49731  0.04950  0.38711  Biso   1.000  H
  H613     1.0000 0.53552  0.10552  0.38642  Biso   1.000  H
  C406     1.0000 0.45879  0.11420  0.43011  Biso   1.000  C
  H614     1.0000 0.68779  0.10241  0.25882  Biso   1.000  H
  C407     1.0000 0.90252  0.74818  0.44649  Biso   1.000  C
  H615     1.0000 0.84169  0.68369  0.43979  Biso   1.000  H
  H616     1.0000 0.82139  0.73081  0.47862  Biso   1.000  H
  H617     1.0000 0.94002  0.70421  0.38600  Biso   1.000  H
  H618     1.0000 0.97059  0.76338  0.39511  Biso   1.000  H
  N24      1.0000 0.76781  0.03312  0.33550  Biso   1.000  N
  H619     1.0000 0.79931  0.09620  0.29101  Biso   1.000  H
  H620     1.0000 0.84240  0.04401  0.29442  Biso   1.000  H
  C408     1.0000 0.39401  0.09479  0.42701  Biso   1.000  C
  H621     1.0000 0.32719  0.09441  0.37632  Biso   1.000  H
  H622     1.0000 0.36269  0.15170  0.37662  Biso   1.000  H
  H623     1.0000 0.46039  0.15541  0.42980  Biso   1.000  H
  H624     1.0000 0.47599  0.10109  0.46212  Biso   1.000  H
  H625     1.0000 0.90119  0.78781  0.45702  Biso   1.000  H
  H626     1.0000 0.92580  0.72749  0.47161  Biso   1.000  H
  H627     1.0000 0.76923  0.99540  0.33290  Biso   1.000  H
  H628     1.0000 0.77243  0.99570  0.33891  Biso   1.000  H
  H629     1.0000 0.73013  0.04278  0.32991  Biso   1.000  H
  C409     1.0000 0.77922  0.04631  0.39400  Biso   1.000  C
  H630     1.0000 0.72920  0.04112  0.33282  Biso   1.000  H
  C410     1.0000 0.79669  0.06602  0.38191  Biso   1.000  C
  H631     1.0000 0.37162  0.11199  0.45469  Biso   1.000  H
  H632     1.0000 0.39210  0.05380  0.43110  Biso   1.000  H
  C411     1.0000 0.83881  0.01481  0.40909  Biso   1.000  C
  C412     1.0000 0.76749  0.09909  0.41142  Biso   1.000  C
  H633     1.0000 0.74892  0.02328  0.41112  Biso   1.000  H
  C413     1.0000 0.85342  0.06581  0.39201  Biso   1.000  C
  C414     1.0000 0.75390  0.03231  0.42609  Biso   1.000  C
  H634     1.0000 0.78371  0.10582  0.38022  Biso   1.000  H
  H635     1.0000 0.83330  0.97391  0.40660  Biso   1.000  H
  H636     1.0000 0.87040  0.02579  0.38589  Biso   1.000  H
  C415     1.0000 0.85591  0.03129  0.46541  Biso   1.000  C
  H637     1.0000 0.86853  0.02741  0.38830  Biso   1.000  H
  C416     1.0000 0.78869  0.11242  0.46323  Biso   1.000  C
  H638     1.0000 0.78491  0.12642  0.38792  Biso   1.000  H
  H639     1.0000 0.72480  0.10471  0.41070  Biso   1.000  H
  C417     1.0000 0.86782  0.08769  0.44711  Biso   1.000  C
  H640     1.0000 0.87373  0.08969  0.36732  Biso   1.000  H
  H641     1.0000 0.76261  0.99178  0.42571  Biso   1.000  H
  C418     1.0000 0.76523  0.05508  0.47701  Biso   1.000  C
  H642     1.0000 0.71231  0.03729  0.41759  Biso   1.000  H
  H643     1.0000 0.89852  0.02669  0.46870  Biso   1.000  H
  H644     1.0000 0.83769  0.00341  0.48792  Biso   1.000  H
  C419     1.0000 0.84303  0.07981  0.48260  Biso   1.000  C
  C420     1.0000 0.82659  0.05619  0.49140  Biso   1.000  C
  H645     1.0000 0.84063  0.01749  0.49650  Biso   1.000  H
  H646     1.0000 0.79780  0.15268  0.46449  Biso   1.000  H
  H647     1.0000 0.75621  0.10561  0.48693  Biso   1.000  H
  H648     1.0000 0.74972  0.09352  0.47869  Biso   1.000  H
  H649     1.0000 0.87733  0.10390  0.47689  Biso   1.000  H
  H650     1.0000 0.90949  0.08079  0.45442  Biso   1.000  H
  H651     1.0000 0.86120  0.12851  0.44852  Biso   1.000  H
  H652     1.0000 0.74359  0.03231  0.50182  Biso   1.000  H
  H653     1.0000 0.83863  0.07589  0.51939  Biso   1.000  H
  H654     1.0000 0.83081  0.07641  0.52360  Biso   1.000  H
  C421     1.0000 0.79660  0.25271  0.54152  Biso   1.000  C
  C422     1.0000 0.84503  0.21398  0.56331  Biso   1.000  C
  H655     1.0000 0.79002  0.24352  0.50622  Biso   1.000  H
  H656     1.0000 0.76039  0.24731  0.56040  Biso   1.000  H
  H657     1.0000 0.80890  0.29170  0.54439  Biso   1.000  H
  C423     1.0000 0.85102  0.21930  0.62192  Biso   1.000  C
  H658     1.0000 0.83592  0.17482  0.55469  Biso   1.000  H
  H659     1.0000 0.88270  0.22351  0.54761  Biso   1.000  H
  C424     1.0000 0.79340  0.20291  0.65029  Biso   1.000  C
  C425     1.0000 0.90390  0.18648  0.64413  Biso   1.000  C
  H660     1.0000 0.85809  0.25961  0.62920  Biso   1.000  H
  C426     1.0000 0.76252  0.15362  0.63842  Biso   1.000  C
  C427     1.0000 0.77123  0.23671  0.68980  Biso   1.000  C
  C428     1.0000 0.92989  0.20568  0.68931  Biso   1.000  C
  C429     1.0000 0.92629  0.13651  0.62211  Biso   1.000  C
  C430     1.0000 0.71000  0.13710  0.66220  Biso   1.000  C
  H661     1.0000 0.77771  0.13021  0.61293  Biso   1.000  H
  C431     1.0000 0.71942  0.22130  0.71653  Biso   1.000  C
  O49      1.0000 0.80113  0.28609  0.70152  Biso   1.000  O
  O50      1.0000 0.91709  0.25620  0.71190  Biso   1.000  O
  C432     1.0000 0.97503  0.17401  0.71370  Biso   1.000  C
  H662     1.0000 0.90989  0.12361  0.59160  Biso   1.000  H
  C433     1.0000 0.97250  0.10531  0.64451  Biso   1.000  C
  C434     1.0000 0.67681  0.08241  0.64650  Biso   1.000  C
  C435     1.0000 0.68970  0.17129  0.70202  Biso   1.000  C
  C436     1.0000 0.69338  0.25569  0.75891  Biso   1.000  C
  H663     1.0000 0.79820  0.29238  0.73230  Biso   1.000  H
  H664     1.0000 0.88181  0.26331  0.70761  Biso   1.000  H
  C437     1.0000 0.99591  0.12442  0.69072  Biso   1.000  C
  C438     1.0000 0.99889  0.19572  0.76312  Biso   1.000  C
  C439     1.0000 0.99600  0.05150  0.61989  Biso   1.000  C
  C440     1.0000 0.66673  0.07990  0.58861  Biso   1.000  C
  H665     1.0000 0.63740  0.08411  0.66251  Biso   1.000  H
  C441     1.0000 0.70809  0.03129  0.66882  Biso   1.000  C
  O51      1.0000 0.63851  0.16069  0.72912  Biso   1.000  O
  N25      1.0000 0.70631  0.23071  0.81021  Biso   1.000  N
  H666     1.0000 0.70942  0.29400  0.75742  Biso   1.000  H
  H667     1.0000 0.65069  0.25812  0.75420  Biso   1.000  H
  O52      1.0000 0.03932  0.09258  0.71370  Biso   1.000  O
  N26      1.0000 0.95113  0.19619  0.80440  Biso   1.000  N
  H668     1.0000 0.03168  0.17180  0.77411  Biso   1.000  H
  H669     1.0000 0.01400  0.23398  0.75830  Biso   1.000  H
  C442     1.0000 0.96810  0.99719  0.64382  Biso   1.000  C
  C443     1.0000 0.99262  0.04912  0.56101  Biso   1.000  C
  H670     1.0000 0.03839  0.05001  0.62839  Biso   1.000  H
  C444     1.0000 0.62683  0.12740  0.56962  Biso   1.000  C
  H671     1.0000 0.64900  0.04350  0.57981  Biso   1.000  H
  H672     1.0000 0.70480  0.08228  0.57131  Biso   1.000  H
  C445     1.0000 0.69601  0.01528  0.71883  Biso   1.000  C
  C446     1.0000 0.74821  0.99719  0.64130  Biso   1.000  C
  H673     1.0000 0.63771  0.12710  0.73762  Biso   1.000  H
  H674     1.0000 0.70040  0.19321  0.80880  Biso   1.000  H
  H675     1.0000 0.74439  0.23650  0.81760  Biso   1.000  H
  C447     1.0000 0.66810  0.25561  0.85290  Biso   1.000  C
  H676     1.0000 0.02621  0.07828  0.74000  Biso   1.000  H
  H677     1.0000 0.93331  0.16230  0.80432  Biso   1.000  H
  H678     1.0000 0.92389  0.22190  0.79563  Biso   1.000  H
  C448     1.0000 0.97019  0.20832  0.85692  Biso   1.000  C
  C449     1.0000 0.91172  0.97999  0.62962  Biso   1.000  C
  C450     1.0000 0.99849  0.96539  0.68000  Biso   1.000  C
  H679     1.0000 0.95139  0.05248  0.55040  Biso   1.000  H
  H680     1.0000 0.00720  0.01251  0.54929  Biso   1.000  H
  C451     1.0000 0.02861  0.09620  0.53631  Biso   1.000  C
  H681     1.0000 0.62789  0.12872  0.53291  Biso   1.000  H
  H682     1.0000 0.58680  0.12059  0.58073  Biso   1.000  H
  H683     1.0000 0.64029  0.16311  0.58322  Biso   1.000  H
  O53      1.0000 0.65460  0.04610  0.74532  Biso   1.000  O
  C452     1.0000 0.72200  0.96650  0.74172  Biso   1.000  C
  H684     1.0000 0.75621  0.00668  0.60741  Biso   1.000  H
  C453     1.0000 0.77611  0.95050  0.66201  Biso   1.000  C
  H685     1.0000 0.66402  0.29651  0.84670  Biso   1.000  H
  C454     1.0000 0.69769  0.24799  0.90382  Biso   1.000  C
  C455     1.0000 0.60661  0.22969  0.85310  Biso   1.000  C
  C456     1.0000 0.92282  0.19461  0.89571  Biso   1.000  C
  C457     1.0000 0.99422  0.26851  0.86339  Biso   1.000  C
  H686     1.0000 0.00342  0.18261  0.86401  Biso   1.000  H
  C458     1.0000 0.88501  0.93049  0.64830  Biso   1.000  C
  H687     1.0000 0.89052  0.00251  0.60661  Biso   1.000  H
  C459     1.0000 0.97361  0.91440  0.69823  Biso   1.000  C
  O54      1.0000 0.05349  0.97859  0.69880  Biso   1.000  O
  H688     1.0000 0.02799  0.09160  0.49979  Biso   1.000  H
  H689     1.0000 0.01191  0.13238  0.54531  Biso   1.000  H
  H690     1.0000 0.06891  0.09420  0.54830  Biso   1.000  H
  H691     1.0000 0.66913  0.05580  0.77281  Biso   1.000  H
  C460     1.0000 0.76278  0.93649  0.71239  Biso   1.000  C
  C461     1.0000 0.69889  0.94509  0.79100  Biso   1.000  C
  C462     1.0000 0.82090  0.91478  0.63180  Biso   1.000  C
  C463     1.0000 0.66002  0.27549  0.94563  Biso   1.000  C
  H692     1.0000 0.70249  0.20768  0.91102  Biso   1.000  H
  H693     1.0000 0.73679  0.26531  0.90321  Biso   1.000  H
  H694     1.0000 0.58839  0.23530  0.81982  Biso   1.000  H
  H695     1.0000 0.60972  0.18912  0.85903  Biso   1.000  H
  C464     1.0000 0.56729  0.25620  0.89410  Biso   1.000  C
  H696     1.0000 0.88781  0.21738  0.88863  Biso   1.000  H
  H697     1.0000 0.91181  0.15490  0.89242  Biso   1.000  H
  C465     1.0000 0.94353  0.20610  0.95073  Biso   1.000  C
  H698     1.0000 0.96361  0.29562  0.85421  Biso   1.000  H
  C466     1.0000 0.01408  0.27962  0.91811  Biso   1.000  C
  H699     1.0000 0.02759  0.27400  0.84042  Biso   1.000  H
  C467     1.0000 0.91763  0.89750  0.68192  Biso   1.000  C
  C468     1.0000 0.00489  0.88409  0.74153  Biso   1.000  C
  H700     1.0000 0.05589  0.01311  0.70320  Biso   1.000  H
  O55      1.0000 0.78922  0.88839  0.73322  Biso   1.000  O
  N27      1.0000 0.73222  0.96688  0.83552  Biso   1.000  N
  H701     1.0000 0.70072  0.90380  0.79100  Biso   1.000  H
  H702     1.0000 0.65762  0.95599  0.79440  Biso   1.000  H
  H703     1.0000 0.81472  0.87520  0.64241  Biso   1.000  H
  C469     1.0000 0.81161  0.91619  0.57491  Biso   1.000  C
  C470     1.0000 0.59750  0.25182  0.94651  Biso   1.000  C
  H704     1.0000 0.65828  0.31631  0.93981  Biso   1.000  H
  H705     1.0000 0.67859  0.26919  0.97860  Biso   1.000  H
  H706     1.0000 0.56000  0.29579  0.88602  Biso   1.000  H
  H707     1.0000 0.52939  0.23658  0.89510  Biso   1.000  H
  H708     1.0000 0.97552  0.18018  0.95942  Biso   1.000  H
  H709     1.0000 0.91092  0.19938  0.97423  Biso   1.000  H
  C471     1.0000 0.96450  0.26621  0.95582  Biso   1.000  C
  H710     1.0000 0.04852  0.25620  0.92580  Biso   1.000  H
  H711     1.0000 0.02568  0.31920  0.92163  Biso   1.000  H
  O56      1.0000 0.89612  0.84638  0.70202  Biso   1.000  O
  N28      1.0000 0.99751  0.91619  0.79100  Biso   1.000  N
  H712     1.0000 0.98871  0.84608  0.74532  Biso   1.000  H
  H713     1.0000 0.04692  0.88060  0.73360  Biso   1.000  H
  H714     1.0000 0.81219  0.89759  0.75880  Biso   1.000  H
  H715     1.0000 0.73079  0.00460  0.83292  Biso   1.000  H
  H716     1.0000 0.72760  0.00430  0.83893  Biso   1.000  H
  H717     1.0000 0.76989  0.95718  0.82989  Biso   1.000  H
  C472     1.0000 0.72080  0.95369  0.89402  Biso   1.000  C
  H718     1.0000 0.77083  0.95888  0.83280  Biso   1.000  H
  C473     1.0000 0.70329  0.93398  0.88193  Biso   1.000  C
  H719     1.0000 0.82561  0.95228  0.56170  Biso   1.000  H
  H720     1.0000 0.76941  0.91359  0.56782  Biso   1.000  H
  C474     1.0000 0.84263  0.86949  0.54780  Biso   1.000  C
  H721     1.0000 0.59879  0.21219  0.95700  Biso   1.000  H
  H722     1.0000 0.57422  0.27251  0.97163  Biso   1.000  H
  H723     1.0000 0.93140  0.29179  0.94981  Biso   1.000  H
  H724     1.0000 0.97872  0.27238  0.99043  Biso   1.000  H
  H725     1.0000 0.86271  0.85132  0.71370  Biso   1.000  H
  H726     1.0000 0.95921  0.91597  0.79949  Biso   1.000  H
  H727     1.0000 0.00822  0.95220  0.78602  Biso   1.000  H
  C475     1.0000 0.03328  0.89218  0.83552  Biso   1.000  C
  C476     1.0000 0.66122  0.98519  0.90911  Biso   1.000  C
  C477     1.0000 0.73253  0.90091  0.91141  Biso   1.000  C
  H728     1.0000 0.75110  0.97672  0.91110  Biso   1.000  H
  C478     1.0000 0.64660  0.93419  0.89203  Biso   1.000  C
  C479     1.0000 0.74612  0.96769  0.92611  Biso   1.000  C
  H729     1.0000 0.71631  0.89418  0.88020  Biso   1.000  H
  H730     1.0000 0.83561  0.87281  0.51170  Biso   1.000  H
  H731     1.0000 0.88452  0.87200  0.55442  Biso   1.000  H
  H732     1.0000 0.82792  0.83348  0.55982  Biso   1.000  H
  C480     1.0000 0.09788  0.90929  0.83081  Biso   1.000  C
  H733     1.0000 0.03150  0.85059  0.83330  Biso   1.000  H
  C481     1.0000 0.00471  0.90938  0.88491  Biso   1.000  C
  H734     1.0000 0.66673  0.02609  0.90662  Biso   1.000  H
  H735     1.0000 0.62963  0.97421  0.88591  Biso   1.000  H
  C482     1.0000 0.64411  0.96871  0.96543  Biso   1.000  C
  H736     1.0000 0.63149  0.97259  0.88832  Biso   1.000  H
  C483     1.0000 0.71129  0.88758  0.96321  Biso   1.000  C
  H737     1.0000 0.71511  0.87358  0.88790  Biso   1.000  H
  H738     1.0000 0.77523  0.89529  0.91072  Biso   1.000  H
  C484     1.0000 0.63220  0.91231  0.94713  Biso   1.000  C
  H739     1.0000 0.62629  0.91031  0.86730  Biso   1.000  H
  H740     1.0000 0.73742  0.00822  0.92572  Biso   1.000  H
  C485     1.0000 0.73479  0.94488  0.97703  Biso   1.000  C
  H741     1.0000 0.78771  0.96271  0.91761  Biso   1.000  H
  H742     1.0000 0.11472  0.89248  0.80022  Biso   1.000  H
  H743     1.0000 0.10068  0.95028  0.82771  Biso   1.000  H
  C486     1.0000 0.13320  0.88941  0.87790  Biso   1.000  C
  H744     1.0000 0.96450  0.89448  0.88640  Biso   1.000  H
  H745     1.0000 0.00271  0.95050  0.88713  Biso   1.000  H
  C487     1.0000 0.04119  0.88580  0.93013  Biso   1.000  C
  H746     1.0000 0.60150  0.97331  0.96872  Biso   1.000  H
  H747     1.0000 0.66233  0.99659  0.98790  Biso   1.000  H
  C488     1.0000 0.65700  0.92019  0.98262  Biso   1.000  C
  C489     1.0000 0.67339  0.94381  0.99142  Biso   1.000  C
  H748     1.0000 0.65939  0.98251  0.99652  Biso   1.000  H
  H749     1.0000 0.70223  0.84732  0.96451  Biso   1.000  H
  H750     1.0000 0.74381  0.89439  0.98691  Biso   1.000  H
  H751     1.0000 0.75030  0.90648  0.97871  Biso   1.000  H
  H752     1.0000 0.62270  0.89610  0.97691  Biso   1.000  H
  H753     1.0000 0.59053  0.91921  0.95440  Biso   1.000  H
  H754     1.0000 0.63882  0.87149  0.94850  Biso   1.000  H
  H755     1.0000 0.75639  0.96769  0.00180  Biso   1.000  H
  C490     1.0000 0.10601  0.90521  0.92703  Biso   1.000  C
  H756     1.0000 0.17279  0.90559  0.87630  Biso   1.000  H
  H757     1.0000 0.13729  0.84830  0.87660  Biso   1.000  H
  H758     1.0000 0.03959  0.84459  0.92982  Biso   1.000  H
  H759     1.0000 0.02399  0.89891  0.96210  Biso   1.000  H
  H760     1.0000 0.66139  0.92411  0.01941  Biso   1.000  H
  H761     1.0000 0.66921  0.92359  0.02358  Biso   1.000  H
  H762     1.0000 0.12840  0.88801  0.95471  Biso   1.000  H
  H763     1.0000 0.10792  0.94620  0.93112  Biso   1.000  H
  C491     1.0000 0.20340  0.74729  0.45852  Biso   1.000  C
  C492     1.0000 0.15502  0.78598  0.43669  Biso   1.000  C
  H764     1.0000 0.21002  0.75648  0.49382  Biso   1.000  H
  H765     1.0000 0.23961  0.75269  0.43960  Biso   1.000  H
  H766     1.0000 0.19110  0.70830  0.45561  Biso   1.000  H
  C493     1.0000 0.14902  0.78070  0.37812  Biso   1.000  C
  H767     1.0000 0.16408  0.82518  0.44531  Biso   1.000  H
  H768     1.0000 0.11730  0.77649  0.45239  Biso   1.000  H
  C494     1.0000 0.20660  0.79709  0.34971  Biso   1.000  C
  C495     1.0000 0.09610  0.81348  0.35591  Biso   1.000  C
  H769     1.0000 0.14191  0.74039  0.37080  Biso   1.000  H
  C496     1.0000 0.22882  0.76329  0.31020  Biso   1.000  C
  C497     1.0000 0.23748  0.84638  0.36161  Biso   1.000  C
  C498     1.0000 0.07011  0.79428  0.31069  Biso   1.000  C
  C499     1.0000 0.07371  0.86349  0.37792  Biso   1.000  C
  O57      1.0000 0.19892  0.71391  0.29852  Biso   1.000  O
  C500     1.0000 0.28062  0.77870  0.28351  Biso   1.000  C
  C501     1.0000 0.29000  0.86290  0.33780  Biso   1.000  C
  H770     1.0000 0.22229  0.86979  0.38711  Biso   1.000  H
  O58      1.0000 0.08291  0.74380  0.28810  Biso   1.000  O
  C502     1.0000 0.02501  0.82599  0.28630  Biso   1.000  C
  H771     1.0000 0.09011  0.87639  0.40840  Biso   1.000  H
  C503     1.0000 0.02750  0.89469  0.35549  Biso   1.000  C
  H772     1.0000 0.20180  0.70762  0.26770  Biso   1.000  H
  C504     1.0000 0.31030  0.82871  0.29802  Biso   1.000  C
  C505     1.0000 0.30662  0.74431  0.24109  Biso   1.000  C
  C506     1.0000 0.32319  0.91759  0.35350  Biso   1.000  C
  H773     1.0000 0.11819  0.73669  0.29239  Biso   1.000  H
  C507     1.0000 0.00409  0.87558  0.30932  Biso   1.000  C
  C508     1.0000 0.00111  0.80428  0.23692  Biso   1.000  C
  C509     1.0000 0.00400  0.94850  0.38011  Biso   1.000  C
  O59      1.0000 0.36149  0.83931  0.27091  Biso   1.000  O
  N29      1.0000 0.29369  0.76929  0.18979  Biso   1.000  N
  H774     1.0000 0.29062  0.70600  0.24262  Biso   1.000  H
  H775     1.0000 0.34931  0.74188  0.24580  Biso   1.000  H
  H776     1.0000 0.36260  0.91589  0.33749  Biso   1.000  H
  C510     1.0000 0.33332  0.92010  0.41142  Biso   1.000  C
  C511     1.0000 0.29191  0.96871  0.33121  Biso   1.000  C
  O60      1.0000 0.96072  0.90738  0.28630  Biso   1.000  O
  N30      1.0000 0.04892  0.80381  0.19560  Biso   1.000  N
  H777     1.0000 0.96832  0.82820  0.22589  Biso   1.000  H
  H778     1.0000 0.98600  0.76602  0.24170  Biso   1.000  H
  C512     1.0000 0.00742  0.95088  0.43899  Biso   1.000  C
  H779     1.0000 0.96161  0.94999  0.37161  Biso   1.000  H
  C513     1.0000 0.03190  0.00281  0.35622  Biso   1.000  C
  H780     1.0000 0.36229  0.87290  0.26241  Biso   1.000  H
  H781     1.0000 0.29960  0.80679  0.19120  Biso   1.000  H
  H782     1.0000 0.25561  0.76350  0.18240  Biso   1.000  H
  C514     1.0000 0.33190  0.74439  0.14710  Biso   1.000  C
  H783     1.0000 0.35100  0.95650  0.42019  Biso   1.000  H
  H784     1.0000 0.29520  0.91768  0.42869  Biso   1.000  H
  C515     1.0000 0.37322  0.87260  0.43041  Biso   1.000  C
  C516     1.0000 0.30399  0.98468  0.28121  Biso   1.000  C
  C517     1.0000 0.25179  0.00281  0.35870  Biso   1.000  C
  H785     1.0000 0.97383  0.92168  0.26000  Biso   1.000  H
  H786     1.0000 0.06669  0.83770  0.19572  Biso   1.000  H
  H787     1.0000 0.07611  0.77810  0.20441  Biso   1.000  H
  C518     1.0000 0.02981  0.79168  0.14311  Biso   1.000  C
  H788     1.0000 0.04861  0.94752  0.44960  Biso   1.000  H
  H789     1.0000 0.99280  0.98749  0.45071  Biso   1.000  H
  C519     1.0000 0.97139  0.90380  0.46372  Biso   1.000  C
  C520     1.0000 0.00151  0.03461  0.32000  Biso   1.000  C
  C521     1.0000 0.08828  0.02001  0.37042  Biso   1.000  C
  H790     1.0000 0.33598  0.70349  0.15330  Biso   1.000  H
  C522     1.0000 0.30231  0.75201  0.09621  Biso   1.000  C
  C523     1.0000 0.39339  0.77031  0.14690  Biso   1.000  C
  H791     1.0000 0.37211  0.87128  0.46709  Biso   1.000  H
  H792     1.0000 0.41320  0.87941  0.41931  Biso   1.000  H
  H793     1.0000 0.35971  0.83689  0.41682  Biso   1.000  H
  O61      1.0000 0.34540  0.95390  0.25472  Biso   1.000  O
  C524     1.0000 0.27800  0.03350  0.25832  Biso   1.000  C
  H794     1.0000 0.24379  0.99327  0.39259  Biso   1.000  H
  C525     1.0000 0.22389  0.04950  0.33799  Biso   1.000  C
  C526     1.0000 0.07722  0.80539  0.10429  Biso   1.000  C
  C527     1.0000 0.00582  0.73149  0.13661  Biso   1.000  C
  H795     1.0000 0.99662  0.81739  0.13599  Biso   1.000  H
  H796     1.0000 0.97201  0.90840  0.50021  Biso   1.000  H
  H797     1.0000 0.98809  0.86758  0.45469  Biso   1.000  H
  H798     1.0000 0.93109  0.90580  0.45170  Biso   1.000  H
  O62      1.0000 0.94651  0.02141  0.30120  Biso   1.000  O
  C528     1.0000 0.02639  0.08560  0.30181  Biso   1.000  C
  H799     1.0000 0.10952  0.99749  0.39339  Biso   1.000  H
  C529     1.0000 0.11499  0.06951  0.35170  Biso   1.000  C
  C530     1.0000 0.33998  0.72451  0.05440  Biso   1.000  C
  H800     1.0000 0.29751  0.79228  0.08902  Biso   1.000  H
  H801     1.0000 0.26321  0.73469  0.09679  Biso   1.000  H
  H802     1.0000 0.41161  0.76470  0.18021  Biso   1.000  H
  H803     1.0000 0.39032  0.81088  0.14101  Biso   1.000  H
  C531     1.0000 0.43271  0.74380  0.10590  Biso   1.000  C
  H804     1.0000 0.33092  0.94420  0.22719  Biso   1.000  H
  C532     1.0000 0.23722  0.06351  0.28761  Biso   1.000  C
  C533     1.0000 0.30111  0.05491  0.20900  Biso   1.000  C
  C534     1.0000 0.17910  0.08522  0.36820  Biso   1.000  C
  H805     1.0000 0.11219  0.78262  0.11141  Biso   1.000  H
  H806     1.0000 0.08819  0.84510  0.10758  Biso   1.000  H
  C535     1.0000 0.05652  0.79390  0.04931  Biso   1.000  C
  H807     1.0000 0.03639  0.70438  0.14579  Biso   1.000  H
  C536     1.0000 0.98592  0.72038  0.08189  Biso   1.000  C
  H808     1.0000 0.97241  0.72600  0.15962  Biso   1.000  H
  H809     1.0000 0.94411  0.98689  0.29680  Biso   1.000  H
  C537     1.0000 0.99511  0.11591  0.25851  Biso   1.000  C
  C538     1.0000 0.08242  0.10250  0.31812  Biso   1.000  C
  C539     1.0000 0.40250  0.74818  0.05349  Biso   1.000  C
  H810     1.0000 0.34172  0.68369  0.06019  Biso   1.000  H
  H811     1.0000 0.32141  0.73081  0.02140  Biso   1.000  H
  H812     1.0000 0.44000  0.70421  0.11402  Biso   1.000  H
  H813     1.0000 0.47061  0.76338  0.10490  Biso   1.000  H
  O63      1.0000 0.21082  0.11161  0.26682  Biso   1.000  O
  N31      1.0000 0.26778  0.03312  0.16452  Biso   1.000  N
  H814     1.0000 0.29928  0.09620  0.20900  Biso   1.000  H
  H815     1.0000 0.34238  0.04401  0.20560  Biso   1.000  H
  H816     1.0000 0.18532  0.12480  0.35759  Biso   1.000  H
  C540     1.0000 0.18839  0.08381  0.42509  Biso   1.000  C
  H817     1.0000 0.02448  0.81978  0.04058  Biso   1.000  H
  H818     1.0000 0.08908  0.80058  0.02580  Biso   1.000  H
  C541     1.0000 0.03550  0.73379  0.04418  Biso   1.000  C
  H819     1.0000 0.95153  0.74380  0.07420  Biso   1.000  H
  H820     1.0000 0.97432  0.68080  0.07841  Biso   1.000  H
  H821     1.0000 0.95313  0.11940  0.26640  Biso   1.000  H
  N32      1.0000 0.00249  0.08381  0.20900  Biso   1.000  N
  H822     1.0000 0.01129  0.15392  0.25472  Biso   1.000  H
  O64      1.0000 0.10388  0.15362  0.29802  Biso   1.000  O
  H823     1.0000 0.40121  0.78781  0.04300  Biso   1.000  H
  H824     1.0000 0.42582  0.72749  0.02841  Biso   1.000  H
  H825     1.0000 0.18781  0.10241  0.24120  Biso   1.000  H
  H826     1.0000 0.26921  0.99540  0.16712  Biso   1.000  H
  H827     1.0000 0.27240  0.99570  0.16111  Biso   1.000  H
  H828     1.0000 0.23011  0.04278  0.17011  Biso   1.000  H
  C542     1.0000 0.27920  0.04631  0.10601  Biso   1.000  C
  H829     1.0000 0.22922  0.04112  0.16720  Biso   1.000  H
  C543     1.0000 0.29671  0.06602  0.11811  Biso   1.000  C
  H830     1.0000 0.17439  0.04772  0.43830  Biso   1.000  H
  H831     1.0000 0.23059  0.08641  0.43221  Biso   1.000  H
  C544     1.0000 0.15742  0.13051  0.45220  Biso   1.000  C
  H832     1.0000 0.06860  0.70821  0.05019  Biso   1.000  H
  H833     1.0000 0.02128  0.72758  0.00961  Biso   1.000  H
  H834     1.0000 0.99182  0.04780  0.21402  Biso   1.000  H
  C545     1.0000 0.96672  0.10782  0.16452  Biso   1.000  C
  H835     1.0000 0.04079  0.08398  0.20051  Biso   1.000  H
  H836     1.0000 0.13729  0.14868  0.28630  Biso   1.000  H
  C546     1.0000 0.33878  0.01481  0.09089  Biso   1.000  C
  C547     1.0000 0.26752  0.09909  0.08859  Biso   1.000  C
  H837     1.0000 0.24890  0.02328  0.08890  Biso   1.000  H
  C548     1.0000 0.35340  0.06581  0.10801  Biso   1.000  C
  C549     1.0000 0.25392  0.03231  0.07389  Biso   1.000  C
  H838     1.0000 0.28369  0.10582  0.11980  Biso   1.000  H
  H839     1.0000 0.16439  0.12719  0.48830  Biso   1.000  H
  H840     1.0000 0.11552  0.12800  0.44561  Biso   1.000  H
  H841     1.0000 0.17208  0.16652  0.44022  Biso   1.000  H
  C550     1.0000 0.90212  0.09071  0.16919  Biso   1.000  C
  H842     1.0000 0.96850  0.14941  0.16670  Biso   1.000  H
  C551     1.0000 0.99529  0.09058  0.11509  Biso   1.000  C
  H843     1.0000 0.33332  0.97391  0.09342  Biso   1.000  H
  H844     1.0000 0.37042  0.02579  0.11409  Biso   1.000  H
  C552     1.0000 0.35589  0.03129  0.03461  Biso   1.000  C
  H845     1.0000 0.36851  0.02741  0.11172  Biso   1.000  H
  C553     1.0000 0.28871  0.11242  0.03679  Biso   1.000  C
  H846     1.0000 0.28489  0.12642  0.11210  Biso   1.000  H
  H847     1.0000 0.22482  0.10471  0.08928  Biso   1.000  H
  C554     1.0000 0.36780  0.08769  0.05291  Biso   1.000  C
  H848     1.0000 0.37371  0.08969  0.13270  Biso   1.000  H
  H849     1.0000 0.26258  0.99178  0.07431  Biso   1.000  H
  C555     1.0000 0.26521  0.05508  0.02301  Biso   1.000  C
  H850     1.0000 0.21229  0.03729  0.08239  Biso   1.000  H
  H851     1.0000 0.88532  0.10748  0.19982  Biso   1.000  H
  H852     1.0000 0.89932  0.04972  0.17229  Biso   1.000  H
  C556     1.0000 0.86680  0.11059  0.12210  Biso   1.000  C
  H853     1.0000 0.99729  0.04950  0.11291  Biso   1.000  H
  C557     1.0000 0.95881  0.11420  0.06991  Biso   1.000  C
  H854     1.0000 0.03550  0.10552  0.11360  Biso   1.000  H
  H855     1.0000 0.39850  0.02669  0.03132  Biso   1.000  H
  H856     1.0000 0.33772  0.00341  0.01210  Biso   1.000  H
  C558     1.0000 0.34300  0.07981  0.01738  Biso   1.000  C
  C559     1.0000 0.32661  0.05619  0.00861  Biso   1.000  C
  H857     1.0000 0.34061  0.01749  0.00348  Biso   1.000  H
  H858     1.0000 0.29782  0.15268  0.03549  Biso   1.000  H
  H859     1.0000 0.25619  0.10561  0.01309  Biso   1.000  H
  H860     1.0000 0.24970  0.09352  0.02129  Biso   1.000  H
  H861     1.0000 0.37730  0.10390  0.02309  Biso   1.000  H
  H862     1.0000 0.40952  0.08079  0.04560  Biso   1.000  H
  H863     1.0000 0.36122  0.12851  0.05150  Biso   1.000  H
  H864     1.0000 0.24361  0.03231  0.99820  Biso   1.000  H
  C560     1.0000 0.89399  0.09479  0.07301  Biso   1.000  C
  H865     1.0000 0.82721  0.09441  0.12370  Biso   1.000  H
  H866     1.0000 0.86271  0.15170  0.12340  Biso   1.000  H
  H867     1.0000 0.96041  0.15541  0.07022  Biso   1.000  H
  H868     1.0000 0.97601  0.10109  0.03790  Biso   1.000  H
  H869     1.0000 0.33861  0.07589  0.98063  Biso   1.000  H
  H870     1.0000 0.33079  0.07641  0.97642  Biso   1.000  H
  H871     1.0000 0.87160  0.11199  0.04529  Biso   1.000  H
  H872     1.0000 0.89212  0.05380  0.06892  Biso   1.000  H
