data_image0
_cell_length_a       20.637
_cell_length_b       20.636
_cell_length_c       44.899
_cell_angle_alpha    90
_cell_angle_beta     90
_cell_angle_gamma    120

_symmetry_space_group_name_H-M    "P 1"
_symmetry_int_tables_number       1

loop_
  _symmetry_equiv_pos_as_xyz
  'x, y, z'

loop_
  _atom_site_label
  _atom_site_occupancy
  _atom_site_fract_x
  _atom_site_fract_y
  _atom_site_fract_z
  _atom_site_thermal_displace_type
  _atom_site_B_iso_or_equiv
  _atom_site_type_symbol
  C1       1.0000 0.74279  0.37971  0.57166  Biso   1.000  C
  C2       1.0000 0.69756  0.41088  0.57184  Biso   1.000  C
  C3       1.0000 0.71331  0.30244  0.57184  Biso   1.000  C
  H1       1.0000 0.79448  0.41099  0.57139  Biso   1.000  H
  C4       1.0000 0.72965  0.49213  0.57449  Biso   1.000  C
  C5       1.0000 0.62027  0.36310  0.57166  Biso   1.000  C
  C6       1.0000 0.63689  0.25717  0.57166  Biso   1.000  C
  C7       1.0000 0.76243  0.27032  0.57449  Biso   1.000  C
  N1       1.0000 0.69049  0.52100  0.58079  Biso   1.000  N
  H2       1.0000 0.78074  0.52319  0.57139  Biso   1.000  H
  C8       1.0000 0.58908  0.28666  0.57184  Biso   1.000  C
  H3       1.0000 0.58900  0.38352  0.57139  Biso   1.000  H
  H4       1.0000 0.61650  0.20553  0.57139  Biso   1.000  H
  N2       1.0000 0.83047  0.30949  0.58079  Biso   1.000  N
  H5       1.0000 0.74238  0.21918  0.57139  Biso   1.000  H
  C9       1.0000 0.72695  0.60186  0.58351  Biso   1.000  C
  C10      1.0000 0.50790  0.23759  0.57449  Biso   1.000  C
  C11      1.0000 0.87491  0.27306  0.58351  Biso   1.000  C
  C12      1.0000 0.69807  0.63124  0.55872  Biso   1.000  C
  C13      1.0000 0.70953  0.62139  0.61396  Biso   1.000  C
  H6       1.0000 0.78119  0.62351  0.58139  Biso   1.000  H
  N3       1.0000 0.47898  0.16949  0.58079  Biso   1.000  N
  H7       1.0000 0.47682  0.25762  0.57139  Biso   1.000  H
  C14      1.0000 0.93307  0.30188  0.55872  Biso   1.000  C
  C15      1.0000 0.91181  0.29047  0.61396  Biso   1.000  C
  H8       1.0000 0.84225  0.21879  0.58139  Biso   1.000  H
  N4       1.0000 0.72047  0.61546  0.53010  Biso   1.000  N
  H9       1.0000 0.64329  0.60589  0.55970  Biso   1.000  H
  C16      1.0000 0.73023  0.71522  0.56242  Biso   1.000  C
  H10      1.0000 0.65579  0.59582  0.61681  Biso   1.000  H
  H11      1.0000 0.73058  0.60410  0.62919  Biso   1.000  H
  C17      1.0000 0.74112  0.70493  0.61730  Biso   1.000  C
  C18      1.0000 0.39812  0.12512  0.58351  Biso   1.000  C
  N5       1.0000 0.89492  0.27955  0.53010  Biso   1.000  N
  H12      1.0000 0.96257  0.35672  0.55970  Biso   1.000  H
  C19      1.0000 0.98495  0.26976  0.56242  Biso   1.000  C
  H13      1.0000 0.93998  0.34418  0.61681  Biso   1.000  H
  H14      1.0000 0.87348  0.26943  0.62919  Biso   1.000  H
  C20      1.0000 0.96375  0.25885  0.61730  Biso   1.000  C
  C21      1.0000 0.67021  0.57259  0.51242  Biso   1.000  C
  C22      1.0000 0.71364  0.73459  0.59277  Biso   1.000  C
  H15      1.0000 0.78397  0.74063  0.55950  Biso   1.000  H
  H16      1.0000 0.70917  0.73291  0.54730  Biso   1.000  H
  H17      1.0000 0.72620  0.71522  0.63641  Biso   1.000  H
  H18      1.0000 0.79539  0.73022  0.61681  Biso   1.000  H
  C23      1.0000 0.36875  0.06687  0.55872  Biso   1.000  C
  C24      1.0000 0.37864  0.08819  0.61396  Biso   1.000  C
  H19      1.0000 0.37646  0.15768  0.58139  Biso   1.000  H
  C25      1.0000 0.90233  0.32975  0.51242  Biso   1.000  C
  H20      1.0000 0.95656  0.21599  0.55950  Biso   1.000  H
  C26      1.0000 0.02090  0.28632  0.59277  Biso   1.000  C
  H21      1.0000 0.02372  0.29080  0.54730  Biso   1.000  H
  H22      1.0000 0.98895  0.27379  0.63641  Biso   1.000  H
  H23      1.0000 0.93480  0.20463  0.61681  Biso   1.000  H
  C27      1.0000 0.68540  0.55318  0.48282  Biso   1.000  C
  H24      1.0000 0.62056  0.55200  0.51841  Biso   1.000  H
  H25      1.0000 0.73737  0.78853  0.59460  Biso   1.000  H
  H26      1.0000 0.66009  0.71383  0.59489  Biso   1.000  H
  N6       1.0000 0.38454  0.10503  0.53010  Biso   1.000  N
  H27      1.0000 0.39408  0.03738  0.55970  Biso   1.000  H
  C28      1.0000 0.28477  0.01500  0.56242  Biso   1.000  C
  H28      1.0000 0.40417  0.05998  0.61681  Biso   1.000  H
  H29      1.0000 0.39591  0.12652  0.62919  Biso   1.000  H
  C29      1.0000 0.29503  0.03620  0.61730  Biso   1.000  C
  C30      1.0000 0.86771  0.31458  0.48282  Biso   1.000  C
  H30      1.0000 0.93139  0.37944  0.51841  Biso   1.000  H
  H31      1.0000 0.05110  0.26260  0.59460  Biso   1.000  H
  H32      1.0000 0.05371  0.33993  0.59489  Biso   1.000  H
  C31      1.0000 0.62786  0.51591  0.46264  Biso   1.000  C
  C32      1.0000 0.75800  0.57394  0.47373  Biso   1.000  C
  C33      1.0000 0.42736  0.09764  0.51242  Biso   1.000  C
  H33      1.0000 0.25939  0.04342  0.55950  Biso   1.000  H
  C34      1.0000 0.26543  0.97913  0.59277  Biso   1.000  C
  H34      1.0000 0.26708  0.97633  0.54730  Biso   1.000  H
  H35      1.0000 0.28482  0.01102  0.63641  Biso   1.000  H
  H36      1.0000 0.26979  0.06519  0.61681  Biso   1.000  H
  C35      1.0000 0.81592  0.24201  0.47373  Biso   1.000  C
  C36      1.0000 0.88801  0.37216  0.46264  Biso   1.000  C
  C37      1.0000 0.64103  0.50019  0.43413  Biso   1.000  C
  H37      1.0000 0.57909  0.50114  0.46841  Biso   1.000  H
  C38      1.0000 0.77270  0.55788  0.44542  Biso   1.000  C
  H38      1.0000 0.79739  0.59912  0.48700  Biso   1.000  H
  C39      1.0000 0.44686  0.13228  0.48282  Biso   1.000  C
  H39      1.0000 0.44797  0.06860  0.51841  Biso   1.000  H
  H40      1.0000 0.21151  0.94891  0.59460  Biso   1.000  H
  H41      1.0000 0.28620  0.94634  0.59489  Biso   1.000  H
  C40      1.0000 0.78515  0.22729  0.44542  Biso   1.000  C
  H42      1.0000 0.80170  0.20262  0.48700  Biso   1.000  H
  C41      1.0000 0.85912  0.35896  0.43413  Biso   1.000  C
  H43      1.0000 0.92198  0.42090  0.46841  Biso   1.000  H
  C42      1.0000 0.57868  0.46454  0.41244  Biso   1.000  C
  C43      1.0000 0.71337  0.52072  0.42551  Biso   1.000  C
  C44      1.0000 0.85020  0.58205  0.43658  Biso   1.000  C
  C45      1.0000 0.42610  0.18409  0.47373  Biso   1.000  C
  C46      1.0000 0.48410  0.11197  0.46264  Biso   1.000  C
  C47      1.0000 0.73177  0.14979  0.43658  Biso   1.000  C
  C48      1.0000 0.80730  0.28660  0.42551  Biso   1.000  C
  C49      1.0000 0.88583  0.42129  0.41244  Biso   1.000  C
  N7       1.0000 0.51451  0.45346  0.41814  Biso   1.000  N
  H44      1.0000 0.58759  0.45000  0.39400  Biso   1.000  H
  H45      1.0000 0.72240  0.50970  0.40640  Biso   1.000  H
  H46      1.0000 0.88709  0.60359  0.45110  Biso   1.000  H
  N8       1.0000 0.86990  0.57562  0.41103  Biso   1.000  N
  C50      1.0000 0.44209  0.21481  0.44542  Biso   1.000  C
  H47      1.0000 0.40089  0.19831  0.48700  Biso   1.000  H
  C51      1.0000 0.49977  0.14090  0.43413  Biso   1.000  C
  H48      1.0000 0.49890  0.07800  0.46841  Biso   1.000  H
  N9       1.0000 0.70564  0.13010  0.41103  Biso   1.000  N
  H49      1.0000 0.71648  0.11292  0.45110  Biso   1.000  H
  H50      1.0000 0.78729  0.27760  0.40640  Biso   1.000  H
  N10      1.0000 0.93893  0.48553  0.41814  Biso   1.000  N
  H51      1.0000 0.86239  0.41239  0.39400  Biso   1.000  H
  C52      1.0000 0.45725  0.42056  0.39531  Biso   1.000  C
  C53      1.0000 0.94928  0.60432  0.40589  Biso   1.000  C
  C54      1.0000 0.41800  0.26820  0.43658  Biso   1.000  C
  C55      1.0000 0.47928  0.19266  0.42551  Biso   1.000  C
  C56      1.0000 0.53544  0.11415  0.41244  Biso   1.000  C
  C57      1.0000 0.65499  0.05070  0.40589  Biso   1.000  C
  C58      1.0000 0.96328  0.54277  0.39531  Biso   1.000  C
  C59      1.0000 0.39569  0.34502  0.40589  Biso   1.000  C
  C60      1.0000 0.42491  0.47187  0.38972  Biso   1.000  C
  H52      1.0000 0.47910  0.41463  0.37689  Biso   1.000  H
  H53      1.0000 0.97649  0.62491  0.42460  Biso   1.000  H
  C61      1.0000 0.97779  0.66677  0.38266  Biso   1.000  C
  N11      1.0000 0.42443  0.29433  0.41103  Biso   1.000  N
  H54      1.0000 0.39640  0.28353  0.45110  Biso   1.000  H
  H55      1.0000 0.49026  0.21269  0.40640  Biso   1.000  H
  N12      1.0000 0.54654  0.06105  0.41814  Biso   1.000  N
  H56      1.0000 0.54997  0.13759  0.39400  Biso   1.000  H
  C62      1.0000 0.57943  0.03671  0.39531  Biso   1.000  C
  H57      1.0000 0.64837  0.02350  0.42460  Biso   1.000  H
  C63      1.0000 0.68889  0.02216  0.38266  Biso   1.000  C
  H58      1.0000 0.93548  0.52089  0.37689  Biso   1.000  H
  C64      1.0000 0.04693  0.57506  0.38972  Biso   1.000  C
  C65      1.0000 0.33324  0.31111  0.38266  Biso   1.000  C
  H59      1.0000 0.37511  0.35163  0.42460  Biso   1.000  H
  C66      1.0000 0.35981  0.43724  0.36769  Biso   1.000  C
  H60      1.0000 0.40777  0.48150  0.40841  Biso   1.000  H
  H61      1.0000 0.46389  0.51932  0.38190  Biso   1.000  H
  H62      1.0000 0.95119  0.64690  0.36411  Biso   1.000  H
  H63      1.0000 0.96789  0.70560  0.38941  Biso   1.000  H
  C67      1.0000 0.06042  0.69984  0.37747  Biso   1.000  C
  H64      1.0000 0.58539  0.06452  0.37689  Biso   1.000  H
  C68      1.0000 0.52814  0.95311  0.38972  Biso   1.000  C
  H65      1.0000 0.69567  0.04879  0.36411  Biso   1.000  H
  H66      1.0000 0.73768  0.03212  0.38941  Biso   1.000  H
  C69      1.0000 0.63939  0.93962  0.37747  Biso   1.000  C
  C70      1.0000 0.07741  0.64019  0.36769  Biso   1.000  C
  H67      1.0000 0.07369  0.59223  0.40841  Biso   1.000  H
  H68      1.0000 0.05541  0.53611  0.38190  Biso   1.000  H
  C71      1.0000 0.30019  0.36063  0.37747  Biso   1.000  C
  H69      1.0000 0.35309  0.30429  0.36411  Biso   1.000  H
  H70      1.0000 0.29440  0.26232  0.38941  Biso   1.000  H
  H71      1.0000 0.33820  0.46941  0.36591  Biso   1.000  H
  H72      1.0000 0.37831  0.43382  0.34820  Biso   1.000  H
  H73      1.0000 0.08741  0.72289  0.39571  Biso   1.000  H
  H74      1.0000 0.07691  0.73833  0.36230  Biso   1.000  H
  C72      1.0000 0.56280  0.92261  0.36769  Biso   1.000  C
  H75      1.0000 0.51850  0.92636  0.40841  Biso   1.000  H
  H76      1.0000 0.48069  0.94466  0.38190  Biso   1.000  H
  H77      1.0000 0.63550  0.91265  0.39571  Biso   1.000  H
  H78      1.0000 0.66137  0.92312  0.36230  Biso   1.000  H
  H79      1.0000 0.13122  0.66184  0.36591  Biso   1.000  H
  H80      1.0000 0.05548  0.62172  0.34820  Biso   1.000  H
  H81      1.0000 0.27707  0.36450  0.39571  Biso   1.000  H
  H82      1.0000 0.26169  0.33859  0.36230  Biso   1.000  H
  H83      1.0000 0.53059  0.86884  0.36591  Biso   1.000  H
  H84      1.0000 0.56621  0.94455  0.34820  Biso   1.000  H
  C73      1.0000 0.47184  0.42493  0.61028  Biso   1.000  C
  C74      1.0000 0.42056  0.45727  0.60469  Biso   1.000  C
  C75      1.0000 0.43719  0.35979  0.63231  Biso   1.000  C
  H85      1.0000 0.48150  0.40780  0.59159  Biso   1.000  H
  H86      1.0000 0.51930  0.46393  0.61810  Biso   1.000  H
  C76      1.0000 0.34498  0.39566  0.59411  Biso   1.000  C
  H87      1.0000 0.41456  0.47909  0.62311  Biso   1.000  H
  N13      1.0000 0.45344  0.51451  0.58186  Biso   1.000  N
  C77      1.0000 0.36059  0.30020  0.62253  Biso   1.000  C
  H88      1.0000 0.46938  0.33820  0.63409  Biso   1.000  H
  H89      1.0000 0.43381  0.37832  0.65180  Biso   1.000  H
  N14      1.0000 0.29429  0.42442  0.58897  Biso   1.000  N
  H90      1.0000 0.35158  0.37513  0.57540  Biso   1.000  H
  C78      1.0000 0.31108  0.33327  0.61734  Biso   1.000  C
  C79      1.0000 0.46458  0.57875  0.58756  Biso   1.000  C
  H91      1.0000 0.36449  0.27709  0.60429  Biso   1.000  H
  H92      1.0000 0.33858  0.26170  0.63770  Biso   1.000  H
  C80      1.0000 0.26815  0.41799  0.56342  Biso   1.000  C
  H93      1.0000 0.30429  0.35314  0.63589  Biso   1.000  H
  H94      1.0000 0.26227  0.29438  0.61059  Biso   1.000  H
  C81      1.0000 0.50020  0.64108  0.56587  Biso   1.000  C
  H95      1.0000 0.44996  0.58759  0.60600  Biso   1.000  H
  C82      1.0000 0.21482  0.44216  0.55458  Biso   1.000  C
  H96      1.0000 0.28347  0.39639  0.54890  Biso   1.000  H
  C83      1.0000 0.51589  0.62788  0.53736  Biso   1.000  C
  C84      1.0000 0.52070  0.71338  0.57449  Biso   1.000  C
  C85      1.0000 0.18406  0.42610  0.52627  Biso   1.000  C
  C86      1.0000 0.19264  0.47932  0.57449  Biso   1.000  C
  C87      1.0000 0.55313  0.68540  0.51718  Biso   1.000  C
  H97      1.0000 0.50112  0.57914  0.53159  Biso   1.000  H
  C88      1.0000 0.55786  0.77269  0.55458  Biso   1.000  C
  H98      1.0000 0.50972  0.72244  0.59360  Biso   1.000  H
  C89      1.0000 0.13227  0.44686  0.51718  Biso   1.000  C
  H99      1.0000 0.19832  0.40092  0.51300  Biso   1.000  H
  C90      1.0000 0.14086  0.49980  0.56587  Biso   1.000  C
  H100     1.0000 0.21269  0.49034  0.59360  Biso   1.000  H
  C91      1.0000 0.57262  0.67029  0.48758  Biso   1.000  C
  C92      1.0000 0.57389  0.75803  0.52627  Biso   1.000  C
  C93      1.0000 0.58198  0.85019  0.56342  Biso   1.000  C
  C94      1.0000 0.09763  0.42739  0.48758  Biso   1.000  C
  C95      1.0000 0.11195  0.48413  0.53736  Biso   1.000  C
  C96      1.0000 0.11415  0.53544  0.58756  Biso   1.000  C
  N15      1.0000 0.61540  0.72048  0.46990  Biso   1.000  N
  H101     1.0000 0.55199  0.62060  0.48159  Biso   1.000  H
  H102     1.0000 0.59911  0.79742  0.51300  Biso   1.000  H
  H103     1.0000 0.60359  0.88712  0.54890  Biso   1.000  H
  N16      1.0000 0.57554  0.86989  0.58897  Biso   1.000  N
  N17      1.0000 0.10506  0.38458  0.46990  Biso   1.000  N
  H104     1.0000 0.06861  0.44804  0.48159  Biso   1.000  H
  H105     1.0000 0.07800  0.49890  0.53159  Biso   1.000  H
  N18      1.0000 0.06108  0.54657  0.58186  Biso   1.000  N
  H106     1.0000 0.13761  0.54999  0.60600  Biso   1.000  H
  C97      1.0000 0.63120  0.69810  0.44128  Biso   1.000  C
  C98      1.0000 0.60432  0.94934  0.59411  Biso   1.000  C
  C99      1.0000 0.06689  0.36880  0.44128  Biso   1.000  C
  C100     1.0000 0.03666  0.57942  0.60469  Biso   1.000  C
  C101     1.0000 0.60183  0.72698  0.41649  Biso   1.000  C
  H107     1.0000 0.60589  0.64332  0.44030  Biso   1.000  H
  C102     1.0000 0.71522  0.73028  0.43758  Biso   1.000  C
  C103     1.0000 0.54275  0.96333  0.60469  Biso   1.000  C
  H108     1.0000 0.62489  0.97654  0.57540  Biso   1.000  H
  C104     1.0000 0.66675  0.97788  0.61734  Biso   1.000  C
  C105     1.0000 0.12511  0.39812  0.41649  Biso   1.000  C
  C106     1.0000 0.01506  0.28481  0.43758  Biso   1.000  C
  H109     1.0000 0.03737  0.39410  0.44030  Biso   1.000  H
  C107     1.0000 0.05066  0.65502  0.59411  Biso   1.000  C
  H110     1.0000 0.06451  0.58541  0.62311  Biso   1.000  H
  C108     1.0000 0.95303  0.52817  0.61028  Biso   1.000  C
  N19      1.0000 0.52098  0.69049  0.41921  Biso   1.000  N
  C109     1.0000 0.62138  0.70957  0.38604  Biso   1.000  C
  H111     1.0000 0.62346  0.78120  0.41861  Biso   1.000  H
  C110     1.0000 0.73453  0.71366  0.40723  Biso   1.000  C
  H112     1.0000 0.74058  0.78399  0.44050  Biso   1.000  H
  H113     1.0000 0.73290  0.70924  0.45270  Biso   1.000  H
  N20      1.0000 0.48546  0.93899  0.58186  Biso   1.000  N
  H114     1.0000 0.52090  0.93552  0.62311  Biso   1.000  H
  C111     1.0000 0.57505  0.04693  0.61028  Biso   1.000  C
  H115     1.0000 0.64689  0.95125  0.63589  Biso   1.000  H
  H116     1.0000 0.70558  0.96792  0.61059  Biso   1.000  H
  C112     1.0000 0.69983  0.06042  0.62253  Biso   1.000  C
  C113     1.0000 0.08819  0.37865  0.38604  Biso   1.000  C
  N21      1.0000 0.16949  0.47904  0.41921  Biso   1.000  N
  H117     1.0000 0.15773  0.37653  0.41861  Biso   1.000  H
  C114     1.0000 0.97906  0.26545  0.40723  Biso   1.000  C
  H118     1.0000 0.04340  0.25941  0.44050  Biso   1.000  H
  H119     1.0000 0.97627  0.26713  0.45270  Biso   1.000  H
  N22      1.0000 0.13013  0.70571  0.58897  Biso   1.000  N
  H120     1.0000 0.02352  0.64841  0.57540  Biso   1.000  H
  C115     1.0000 0.02216  0.68893  0.61734  Biso   1.000  C
  C116     1.0000 0.92257  0.56280  0.63231  Biso   1.000  C
  H121     1.0000 0.92628  0.51848  0.59159  Biso   1.000  H
  H122     1.0000 0.94457  0.48071  0.61810  Biso   1.000  H
  C117     1.0000 0.49206  0.72966  0.42551  Biso   1.000  C
  H123     1.0000 0.59580  0.65580  0.38319  Biso   1.000  H
  H124     1.0000 0.60408  0.73061  0.37081  Biso   1.000  H
  C118     1.0000 0.70490  0.74113  0.38270  Biso   1.000  C
  H125     1.0000 0.78848  0.73744  0.40540  Biso   1.000  H
  H126     1.0000 0.71377  0.66011  0.40511  Biso   1.000  H
  C119     1.0000 0.42124  0.88583  0.58756  Biso   1.000  C
  C120     1.0000 0.64018  0.07737  0.63231  Biso   1.000  C
  H127     1.0000 0.59215  0.07368  0.59159  Biso   1.000  H
  H128     1.0000 0.53610  0.05538  0.61810  Biso   1.000  H
  H129     1.0000 0.72286  0.08739  0.60429  Biso   1.000  H
  H130     1.0000 0.73824  0.07687  0.63770  Biso   1.000  H
  C121     1.0000 0.03621  0.29505  0.38270  Biso   1.000  C
  H131     1.0000 0.06003  0.40422  0.38319  Biso   1.000  H
  H132     1.0000 0.12651  0.39589  0.37081  Biso   1.000  H
  C122     1.0000 0.23756  0.50791  0.42551  Biso   1.000  C
  H133     1.0000 0.94890  0.21151  0.40540  Biso   1.000  H
  H134     1.0000 0.94627  0.28621  0.40511  Biso   1.000  H
  C123     1.0000 0.14979  0.73184  0.56342  Biso   1.000  C
  H135     1.0000 0.04881  0.69570  0.63589  Biso   1.000  H
  H136     1.0000 0.03212  0.73772  0.61059  Biso   1.000  H
  C124     1.0000 0.93954  0.63941  0.62253  Biso   1.000  C
  H137     1.0000 0.86878  0.53063  0.63409  Biso   1.000  H
  H138     1.0000 0.94448  0.56622  0.65180  Biso   1.000  H
  C125     1.0000 0.41090  0.69760  0.42816  Biso   1.000  C
  H139     1.0000 0.52320  0.78080  0.42861  Biso   1.000  H
  H140     1.0000 0.71516  0.72619  0.36359  Biso   1.000  H
  H141     1.0000 0.73019  0.79541  0.38319  Biso   1.000  H
  C126     1.0000 0.35890  0.85914  0.56587  Biso   1.000  C
  H142     1.0000 0.41240  0.86244  0.60600  Biso   1.000  H
  H143     1.0000 0.66176  0.13120  0.63409  Biso   1.000  H
  H144     1.0000 0.62168  0.05549  0.65180  Biso   1.000  H
  H145     1.0000 0.01099  0.28481  0.36359  Biso   1.000  H
  H146     1.0000 0.06522  0.26982  0.38319  Biso   1.000  H
  C127     1.0000 0.28664  0.58910  0.42816  Biso   1.000  C
  H147     1.0000 0.25758  0.47680  0.42861  Biso   1.000  H
  H148     1.0000 0.11290  0.71651  0.54890  Biso   1.000  H
  C128     1.0000 0.22728  0.78517  0.55458  Biso   1.000  C
  H149     1.0000 0.91258  0.63549  0.60429  Biso   1.000  H
  H150     1.0000 0.92306  0.66140  0.63770  Biso   1.000  H
  C129     1.0000 0.36308  0.62027  0.42834  Biso   1.000  C
  C130     1.0000 0.37975  0.74287  0.42834  Biso   1.000  C
  C131     1.0000 0.37215  0.88807  0.53736  Biso   1.000  C
  C132     1.0000 0.28660  0.80738  0.57449  Biso   1.000  C
  C133     1.0000 0.25716  0.63694  0.42834  Biso   1.000  C
  C134     1.0000 0.24199  0.81595  0.52627  Biso   1.000  C
  H151     1.0000 0.38350  0.58899  0.42861  Biso   1.000  H
  C135     1.0000 0.30242  0.71332  0.42816  Biso   1.000  C
  H152     1.0000 0.41100  0.79451  0.42861  Biso   1.000  H
  C136     1.0000 0.31456  0.86776  0.51718  Biso   1.000  C
  H153     1.0000 0.42087  0.92204  0.53159  Biso   1.000  H
  H154     1.0000 0.27758  0.78730  0.59360  Biso   1.000  H
  H155     1.0000 0.20552  0.61652  0.42861  Biso   1.000  H
  H156     1.0000 0.20261  0.80173  0.51300  Biso   1.000  H
  C137     1.0000 0.27034  0.76245  0.42551  Biso   1.000  C
  C138     1.0000 0.32974  0.90240  0.48758  Biso   1.000  C
  N23      1.0000 0.30949  0.83049  0.41921  Biso   1.000  N
  H157     1.0000 0.21918  0.74242  0.42861  Biso   1.000  H
  N24      1.0000 0.27950  0.89495  0.46990  Biso   1.000  N
  H158     1.0000 0.37939  0.93144  0.48159  Biso   1.000  H
  C139     1.0000 0.27303  0.87492  0.41649  Biso   1.000  C
  C140     1.0000 0.30188  0.93312  0.44128  Biso   1.000  C
  C141     1.0000 0.29042  0.91185  0.38604  Biso   1.000  C
  H159     1.0000 0.21877  0.84230  0.41861  Biso   1.000  H
  H160     1.0000 0.35670  0.96260  0.44030  Biso   1.000  H
  C142     1.0000 0.26976  0.98499  0.43758  Biso   1.000  C
  H161     1.0000 0.34418  0.94000  0.38319  Biso   1.000  H
  H162     1.0000 0.26937  0.87352  0.37081  Biso   1.000  H
  C143     1.0000 0.25885  0.96384  0.38270  Biso   1.000  C
  H163     1.0000 0.21599  0.95662  0.44050  Biso   1.000  H
  C144     1.0000 0.28632  0.02091  0.40723  Biso   1.000  C
  H164     1.0000 0.29082  0.02371  0.45270  Biso   1.000  H
  H165     1.0000 0.27381  0.98902  0.36359  Biso   1.000  H
  H166     1.0000 0.20459  0.93479  0.38319  Biso   1.000  H
  H167     1.0000 0.26258  0.05107  0.40540  Biso   1.000  H
  H168     1.0000 0.33988  0.05370  0.40511  Biso   1.000  H
  C145     1.0000 0.92551  0.29712  0.71605  Biso   1.000  C
  C146     1.0000 0.95709  0.24514  0.71937  Biso   1.000  C
  H169     1.0000 0.94045  0.32236  0.69694  Biso   1.000  H
  H170     1.0000 0.87123  0.26814  0.71654  Biso   1.000  H
  C147     1.0000 0.95301  0.35426  0.74055  Biso   1.000  C
  H171     1.0000 0.93603  0.20681  0.70414  Biso   1.000  H
  C148     1.0000 0.93969  0.20821  0.74982  Biso   1.000  C
  H172     1.0000 0.01087  0.27334  0.71654  Biso   1.000  H
  H173     1.0000 0.92922  0.38442  0.73872  Biso   1.000  H
  C149     1.0000 0.93640  0.31833  0.77093  Biso   1.000  C
  H174     1.0000 0.00657  0.38705  0.73844  Biso   1.000  H
  C150     1.0000 0.96857  0.26646  0.77461  Biso   1.000  C
  N25      1.0000 0.97613  0.16384  0.75253  Biso   1.000  N
  H175     1.0000 0.88546  0.17564  0.75193  Biso   1.000  H
  H176     1.0000 0.88268  0.28996  0.77383  Biso   1.000  H
  H177     1.0000 0.95746  0.35705  0.78603  Biso   1.000  H
  N26      1.0000 0.94614  0.22830  0.80323  Biso   1.000  N
  H178     1.0000 0.02339  0.29595  0.77363  Biso   1.000  H
  C151     1.0000 0.93698  0.09580  0.75884  Biso   1.000  C
  C152     1.0000 0.99640  0.23569  0.82093  Biso   1.000  C
  C153     1.0000 0.96906  0.04667  0.76149  Biso   1.000  C
  H179     1.0000 0.88584  0.07571  0.76193  Biso   1.000  H
  C154     1.0000 0.98125  0.20110  0.85051  Biso   1.000  C
  H180     1.0000 0.04606  0.26473  0.81494  Biso   1.000  H
  C155     1.0000 0.92385  0.97029  0.76167  Biso   1.000  C
  C156     1.0000 0.04641  0.07616  0.76167  Biso   1.000  C
  C157     1.0000 0.90865  0.14923  0.85962  Biso   1.000  C
  C158     1.0000 0.03881  0.22136  0.87071  Biso   1.000  C
  C159     1.0000 0.95335  0.92250  0.76149  Biso   1.000  C
  H181     1.0000 0.87216  0.94986  0.76193  Biso   1.000  H
  C160     1.0000 0.07756  0.03089  0.76149  Biso   1.000  C
  H182     1.0000 0.07769  0.12786  0.76193  Biso   1.000  H
  H183     1.0000 0.86922  0.13502  0.84634  Biso   1.000  H
  C161     1.0000 0.89397  0.11851  0.88790  Biso   1.000  C
  H184     1.0000 0.08753  0.25533  0.86494  Biso   1.000  H
  C162     1.0000 0.02556  0.19243  0.89920  Biso   1.000  C
  C163     1.0000 0.90420  0.84125  0.75884  Biso   1.000  C
  C164     1.0000 0.02980  0.95367  0.76167  Biso   1.000  C
  C165     1.0000 0.15875  0.06301  0.75884  Biso   1.000  C
  C166     1.0000 0.81645  0.06513  0.89675  Biso   1.000  C
  C167     1.0000 0.95326  0.14067  0.90782  Biso   1.000  C
  C168     1.0000 0.08792  0.21918  0.92089  Biso   1.000  C
  N27      1.0000 0.83618  0.81238  0.75253  Biso   1.000  N
  H185     1.0000 0.92422  0.81014  0.76193  Biso   1.000  H
  H186     1.0000 0.05016  0.92239  0.76193  Biso   1.000  H
  N28      1.0000 0.18767  0.02384  0.75253  Biso   1.000  N
  H187     1.0000 0.18989  0.11415  0.76193  Biso   1.000  H
  H188     1.0000 0.77954  0.04986  0.88222  Biso   1.000  H
  N29      1.0000 0.79674  0.03900  0.92229  Biso   1.000  N
  H189     1.0000 0.94426  0.12064  0.92692  Biso   1.000  H
  N30      1.0000 0.15212  0.27228  0.91521  Biso   1.000  N
  H190     1.0000 0.07906  0.19573  0.93933  Biso   1.000  H
  C169     1.0000 0.79178  0.73152  0.74982  Biso   1.000  C
  C170     1.0000 0.26852  0.06032  0.74982  Biso   1.000  C
  C171     1.0000 0.71735  0.98836  0.92746  Biso   1.000  C
  C172     1.0000 0.20944  0.29668  0.93802  Biso   1.000  C
  C173     1.0000 0.73353  0.70215  0.77461  Biso   1.000  C
  C174     1.0000 0.75483  0.71200  0.71937  Biso   1.000  C
  H191     1.0000 0.82437  0.70987  0.75193  Biso   1.000  H
  C175     1.0000 0.29789  0.03145  0.77461  Biso   1.000  C
  C176     1.0000 0.28804  0.04286  0.71937  Biso   1.000  C
  H192     1.0000 0.29015  0.11454  0.75193  Biso   1.000  H
  C177     1.0000 0.68880  0.02227  0.95069  Biso   1.000  C
  H193     1.0000 0.69016  0.98176  0.90873  Biso   1.000  H
  C178     1.0000 0.70337  0.91282  0.93802  Biso   1.000  C
  C179     1.0000 0.27101  0.28269  0.92746  Biso   1.000  C
  H194     1.0000 0.18758  0.26887  0.95644  Biso   1.000  H
  C180     1.0000 0.24173  0.38027  0.94361  Biso   1.000  C
  N31      1.0000 0.77170  0.71793  0.80323  Biso   1.000  N
  H195     1.0000 0.70406  0.72744  0.77363  Biso   1.000  H
  C181     1.0000 0.68170  0.61816  0.77093  Biso   1.000  C
  H196     1.0000 0.72667  0.73757  0.71654  Biso   1.000  H
  H197     1.0000 0.79318  0.72929  0.70414  Biso   1.000  H
  C182     1.0000 0.70285  0.62840  0.71605  Biso   1.000  C
  H198     1.0000 0.27258  0.97667  0.77363  Biso   1.000  H
  N32      1.0000 0.28209  0.05383  0.80323  Biso   1.000  N
  C183     1.0000 0.38188  0.06357  0.77093  Biso   1.000  C
  H199     1.0000 0.26247  0.98920  0.71654  Biso   1.000  H
  H200     1.0000 0.27077  0.06396  0.70414  Biso   1.000  H
  C184     1.0000 0.37159  0.07448  0.71605  Biso   1.000  C
  H201     1.0000 0.71545  0.02904  0.96924  Biso   1.000  H
  H202     1.0000 0.69873  0.07101  0.94394  Biso   1.000  H
  C185     1.0000 0.60623  0.97275  0.95586  Biso   1.000  C
  H203     1.0000 0.73115  0.91875  0.95644  Biso   1.000  H
  N33      1.0000 0.72772  0.87992  0.91521  Biso   1.000  N
  C186     1.0000 0.61971  0.86151  0.94361  Biso   1.000  C
  N34      1.0000 0.24223  0.20323  0.92229  Biso   1.000  N
  H204     1.0000 0.29155  0.30983  0.90873  Biso   1.000  H
  C187     1.0000 0.33341  0.31117  0.95069  Biso   1.000  C
  C188     1.0000 0.30689  0.41077  0.96563  Biso   1.000  C
  H205     1.0000 0.25884  0.40702  0.92494  Biso   1.000  H
  H206     1.0000 0.20274  0.38872  0.95142  Biso   1.000  H
  C189     1.0000 0.76430  0.76079  0.82093  Biso   1.000  C
  C190     1.0000 0.64575  0.59880  0.74055  Biso   1.000  C
  H207     1.0000 0.71004  0.59275  0.77383  Biso   1.000  H
  H208     1.0000 0.64296  0.60048  0.78603  Biso   1.000  H
  H209     1.0000 0.67767  0.61816  0.69694  Biso   1.000  H
  H210     1.0000 0.73186  0.60316  0.71654  Biso   1.000  H
  C191     1.0000 0.23928  0.00358  0.82093  Biso   1.000  C
  C192     1.0000 0.40122  0.04700  0.74055  Biso   1.000  C
  H211     1.0000 0.40726  0.11734  0.77383  Biso   1.000  H
  H212     1.0000 0.39956  0.04253  0.78603  Biso   1.000  H
  H213     1.0000 0.38185  0.05954  0.69694  Biso   1.000  H
  H214     1.0000 0.39688  0.12875  0.71654  Biso   1.000  H
  C193     1.0000 0.58925  0.89615  0.96563  Biso   1.000  C
  H215     1.0000 0.57925  0.96889  0.93764  Biso   1.000  H
  H216     1.0000 0.58978  0.99480  0.97102  Biso   1.000  H
  C194     1.0000 0.78079  0.86878  0.92089  Biso   1.000  C
  H217     1.0000 0.59295  0.85189  0.92494  Biso   1.000  H
  H218     1.0000 0.61125  0.81406  0.95142  Biso   1.000  H
  C195     1.0000 0.24867  0.18353  0.89675  Biso   1.000  C
  H219     1.0000 0.31355  0.28453  0.96924  Biso   1.000  H
  H220     1.0000 0.37227  0.30127  0.94394  Biso   1.000  H
  C196     1.0000 0.36647  0.39376  0.95586  Biso   1.000  C
  H221     1.0000 0.32845  0.46454  0.96744  Biso   1.000  H
  H222     1.0000 0.28837  0.38884  0.98514  Biso   1.000  H
  C197     1.0000 0.79891  0.78021  0.85051  Biso   1.000  C
  H223     1.0000 0.73525  0.78138  0.81494  Biso   1.000  H
  H224     1.0000 0.61554  0.54486  0.73872  Biso   1.000  H
  H225     1.0000 0.61296  0.61956  0.73844  Biso   1.000  H
  H226     1.0000 0.21868  0.95395  0.81494  Biso   1.000  H
  C198     1.0000 0.21982  0.01875  0.85051  Biso   1.000  C
  H227     1.0000 0.38046  0.99345  0.73844  Biso   1.000  H
  H228     1.0000 0.45514  0.07073  0.73872  Biso   1.000  H
  H229     1.0000 0.53547  0.86397  0.96744  Biso   1.000  H
  H230     1.0000 0.61117  0.89956  0.98514  Biso   1.000  H
  C199     1.0000 0.80753  0.83320  0.89920  Biso   1.000  C
  H231     1.0000 0.80427  0.88339  0.93933  Biso   1.000  H
  H232     1.0000 0.27028  0.22047  0.88222  Biso   1.000  H
  C200     1.0000 0.22455  0.10604  0.88790  Biso   1.000  C
  H233     1.0000 0.38955  0.42073  0.93764  Biso   1.000  H
  H234     1.0000 0.40496  0.41027  0.97102  Biso   1.000  H
  C201     1.0000 0.85075  0.75945  0.85962  Biso   1.000  C
  C202     1.0000 0.77863  0.81747  0.87071  Biso   1.000  C
  C203     1.0000 0.18258  0.96122  0.87071  Biso   1.000  C
  C204     1.0000 0.24055  0.09132  0.85962  Biso   1.000  C
  C205     1.0000 0.85933  0.81266  0.90782  Biso   1.000  C
  C206     1.0000 0.18739  0.04672  0.90782  Biso   1.000  C
  H235     1.0000 0.86496  0.73427  0.84634  Biso   1.000  H
  C207     1.0000 0.88151  0.77551  0.88790  Biso   1.000  C
  H236     1.0000 0.74464  0.83224  0.86494  Biso   1.000  H
  H237     1.0000 0.16776  0.91249  0.86494  Biso   1.000  H
  C208     1.0000 0.16684  0.97443  0.89920  Biso   1.000  C
  H238     1.0000 0.26577  0.13071  0.84634  Biso   1.000  H
  H239     1.0000 0.87938  0.82368  0.92692  Biso   1.000  H
  H240     1.0000 0.17638  0.05573  0.92692  Biso   1.000  H
  C209     1.0000 0.93484  0.75133  0.89675  Biso   1.000  C
  C210     1.0000 0.13122  0.91209  0.92089  Biso   1.000  C
  H241     1.0000 0.95019  0.72979  0.88222  Biso   1.000  H
  N35      1.0000 0.96098  0.75777  0.92229  Biso   1.000  N
  N36      1.0000 0.12013  0.84786  0.91521  Biso   1.000  N
  H242     1.0000 0.11667  0.92099  0.93933  Biso   1.000  H
  C211     1.0000 0.01170  0.72906  0.92746  Biso   1.000  C
  C212     1.0000 0.08725  0.79061  0.93802  Biso   1.000  C
  C213     1.0000 0.97772  0.66662  0.95069  Biso   1.000  C
  H243     1.0000 0.01827  0.70847  0.90873  Biso   1.000  H
  H244     1.0000 0.08128  0.81249  0.95644  Biso   1.000  H
  C214     1.0000 0.13853  0.75827  0.94361  Biso   1.000  C
  H245     1.0000 0.97098  0.68648  0.96924  Biso   1.000  H
  H246     1.0000 0.92899  0.62778  0.94394  Biso   1.000  H
  C215     1.0000 0.02728  0.63355  0.95586  Biso   1.000  C
  C216     1.0000 0.10388  0.69314  0.96563  Biso   1.000  C
  H247     1.0000 0.14814  0.74115  0.92494  Biso   1.000  H
  H248     1.0000 0.18599  0.79727  0.95142  Biso   1.000  H
  H249     1.0000 0.03121  0.61049  0.93764  Biso   1.000  H
  H250     1.0000 0.00527  0.59505  0.97102  Biso   1.000  H
  H251     1.0000 0.13606  0.67154  0.96744  Biso   1.000  H
  H252     1.0000 0.10045  0.71166  0.98514  Biso   1.000  H
  C217     1.0000 0.75388  0.12394  0.27134  Biso   1.000  C
  C218     1.0000 0.67830  0.06233  0.26079  Biso   1.000  C
  H253     1.0000 0.74793  0.14576  0.28976  Biso   1.000  H
  N37      1.0000 0.78676  0.18118  0.24854  Biso   1.000  N
  C219     1.0000 0.80516  0.09160  0.27695  Biso   1.000  C
  N38      1.0000 0.62766  0.09110  0.25564  Biso   1.000  N
  H254     1.0000 0.68492  0.04174  0.24208  Biso   1.000  H
  C220     1.0000 0.64440  0.99994  0.28402  Biso   1.000  C
  C221     1.0000 0.79787  0.24537  0.25424  Biso   1.000  C
  C222     1.0000 0.77051  0.02647  0.29896  Biso   1.000  C
  H255     1.0000 0.81482  0.07448  0.25827  Biso   1.000  H
  H256     1.0000 0.85259  0.13054  0.28477  Biso   1.000  H
  C223     1.0000 0.60152  0.08466  0.23007  Biso   1.000  C
  H257     1.0000 0.63763  0.01975  0.30257  Biso   1.000  H
  H258     1.0000 0.59562  0.96111  0.27727  Biso   1.000  H
  C224     1.0000 0.69391  0.96687  0.28920  Biso   1.000  C
  C225     1.0000 0.83352  0.30776  0.23252  Biso   1.000  C
  H259     1.0000 0.78333  0.25426  0.27266  Biso   1.000  H
  H260     1.0000 0.80270  0.00487  0.30076  Biso   1.000  H
  H261     1.0000 0.76713  0.04499  0.31847  Biso   1.000  H
  C226     1.0000 0.54816  0.10878  0.22125  Biso   1.000  C
  H262     1.0000 0.61684  0.06306  0.21557  Biso   1.000  H
  H263     1.0000 0.69784  0.94382  0.27096  Biso   1.000  H
  H264     1.0000 0.67193  0.92843  0.30437  Biso   1.000  H
  C227     1.0000 0.85402  0.38005  0.24116  Biso   1.000  C
  C228     1.0000 0.84921  0.29455  0.20404  Biso   1.000  C
  C229     1.0000 0.52598  0.14593  0.24116  Biso   1.000  C
  C230     1.0000 0.51743  0.09277  0.19294  Biso   1.000  C
  C231     1.0000 0.89118  0.43936  0.22125  Biso   1.000  C
  H265     1.0000 0.84302  0.38906  0.26027  Biso   1.000  H
  C232     1.0000 0.88645  0.35207  0.18386  Biso   1.000  C
  H266     1.0000 0.83441  0.24576  0.19827  Biso   1.000  H
  C233     1.0000 0.47418  0.16647  0.23252  Biso   1.000  C
  H267     1.0000 0.54603  0.15696  0.26027  Biso   1.000  H
  C234     1.0000 0.46559  0.11353  0.18386  Biso   1.000  C
  H268     1.0000 0.53164  0.06759  0.17967  Biso   1.000  H
  C235     1.0000 0.91530  0.51686  0.23007  Biso   1.000  C
  C236     1.0000 0.90726  0.42470  0.19294  Biso   1.000  C
  C237     1.0000 0.90591  0.33691  0.15426  Biso   1.000  C
  C238     1.0000 0.44747  0.20211  0.25424  Biso   1.000  C
  C239     1.0000 0.44529  0.15074  0.20404  Biso   1.000  C
  C240     1.0000 0.43095  0.09406  0.15426  Biso   1.000  C
  N39      1.0000 0.90886  0.53656  0.25564  Biso   1.000  N
  H269     1.0000 0.93691  0.55379  0.21557  Biso   1.000  H
  H270     1.0000 0.93243  0.46410  0.17967  Biso   1.000  H
  N40      1.0000 0.94872  0.38716  0.13657  Biso   1.000  N
  H271     1.0000 0.88531  0.28728  0.14827  Biso   1.000  H
  N41      1.0000 0.39437  0.21319  0.24854  Biso   1.000  N
  H272     1.0000 0.47093  0.21666  0.27266  Biso   1.000  H
  H273     1.0000 0.41132  0.16557  0.19827  Biso   1.000  H
  N42      1.0000 0.43838  0.05126  0.13657  Biso   1.000  N
  H274     1.0000 0.40190  0.11465  0.14827  Biso   1.000  H
  C241     1.0000 0.93764  0.61602  0.26079  Biso   1.000  C
  C242     1.0000 0.96452  0.36477  0.10793  Biso   1.000  C
  C243     1.0000 0.37002  0.24609  0.27134  Biso   1.000  C
  C244     1.0000 0.40021  0.03548  0.10793  Biso   1.000  C
  C245     1.0000 0.87607  0.63000  0.27134  Biso   1.000  C
  H275     1.0000 0.95821  0.64321  0.24208  Biso   1.000  H
  C246     1.0000 0.00009  0.64450  0.28402  Biso   1.000  C
  C247     1.0000 0.93520  0.39365  0.08314  Biso   1.000  C
  H276     1.0000 0.93921  0.30999  0.10697  Biso   1.000  H
  C248     1.0000 0.04856  0.39689  0.10426  Biso   1.000  C
  C249     1.0000 0.28637  0.19478  0.27695  Biso   1.000  C
  C250     1.0000 0.38403  0.32169  0.26079  Biso   1.000  C
  H277     1.0000 0.39783  0.25208  0.28976  Biso   1.000  H
  H278     1.0000 0.37074  0.06077  0.10697  Biso   1.000  H
  C251     1.0000 0.45843  0.06480  0.08314  Biso   1.000  C
  C252     1.0000 0.34838  0.95149  0.10426  Biso   1.000  C
  N43      1.0000 0.81880  0.60561  0.24854  Biso   1.000  N
  H279     1.0000 0.85422  0.60219  0.28976  Biso   1.000  H
  C253     1.0000 0.90837  0.71360  0.27695  Biso   1.000  C
  H280     1.0000 0.98019  0.61786  0.30257  Biso   1.000  H
  H281     1.0000 0.03895  0.63459  0.27727  Biso   1.000  H
  C254     1.0000 0.03315  0.72709  0.28920  Biso   1.000  C
  N44      1.0000 0.85430  0.35716  0.08588  Biso   1.000  N
  C255     1.0000 0.95470  0.37625  0.05270  Biso   1.000  C
  H282     1.0000 0.95678  0.44787  0.08526  Biso   1.000  H
  C256     1.0000 0.06790  0.38033  0.07388  Biso   1.000  C
  H283     1.0000 0.07394  0.45067  0.10717  Biso   1.000  H
  H284     1.0000 0.06624  0.37585  0.11936  Biso   1.000  H
  C257     1.0000 0.25593  0.22947  0.29896  Biso   1.000  C
  H285     1.0000 0.25960  0.18516  0.25827  Biso   1.000  H
  H286     1.0000 0.27793  0.14739  0.28477  Biso   1.000  H
  N45      1.0000 0.46345  0.37238  0.25564  Biso   1.000  N
  H287     1.0000 0.35684  0.31509  0.24208  Biso   1.000  H
  C258     1.0000 0.35548  0.35560  0.28402  Biso   1.000  C
  N46      1.0000 0.50283  0.14565  0.08588  Biso   1.000  N
  C259     1.0000 0.42148  0.04527  0.05270  Biso   1.000  C
  H288     1.0000 0.49102  0.04314  0.08526  Biso   1.000  H
  C260     1.0000 0.31243  0.93213  0.07388  Biso   1.000  C
  H289     1.0000 0.37672  0.92608  0.10717  Biso   1.000  H
  H290     1.0000 0.30964  0.93380  0.11936  Biso   1.000  H
  C261     1.0000 0.75460  0.55251  0.25424  Biso   1.000  C
  C262     1.0000 0.97352  0.74410  0.29896  Biso   1.000  C
  H291     1.0000 0.92550  0.74040  0.25827  Biso   1.000  H
  H292     1.0000 0.86944  0.72211  0.28477  Biso   1.000  H
  H293     1.0000 0.05623  0.75406  0.27096  Biso   1.000  H
  H294     1.0000 0.07164  0.74359  0.30437  Biso   1.000  H
  C263     1.0000 0.82543  0.39633  0.09216  Biso   1.000  C
  H295     1.0000 0.92912  0.32247  0.04987  Biso   1.000  H
  H296     1.0000 0.93740  0.39729  0.03746  Biso   1.000  H
  C264     1.0000 0.03827  0.40780  0.04938  Biso   1.000  C
  H297     1.0000 0.12182  0.40406  0.07207  Biso   1.000  H
  H298     1.0000 0.04714  0.32678  0.07176  Biso   1.000  H
  H299     1.0000 0.20212  0.19724  0.30076  Biso   1.000  H
  H300     1.0000 0.27785  0.23289  0.31847  Biso   1.000  H
  C265     1.0000 0.27291  0.30608  0.28920  Biso   1.000  C
  C266     1.0000 0.48316  0.39852  0.23007  Biso   1.000  C
  H301     1.0000 0.38213  0.36237  0.30257  Biso   1.000  H
  H302     1.0000 0.36544  0.40439  0.27727  Biso   1.000  H
  C267     1.0000 0.57088  0.17458  0.09216  Biso   1.000  C
  H303     1.0000 0.39335  0.07090  0.04987  Biso   1.000  H
  H304     1.0000 0.45983  0.06256  0.03746  Biso   1.000  H
  C268     1.0000 0.36956  0.96178  0.04938  Biso   1.000  C
  H305     1.0000 0.28222  0.87818  0.07207  Biso   1.000  H
  H306     1.0000 0.27964  0.95289  0.07176  Biso   1.000  H
  C269     1.0000 0.69222  0.52582  0.23252  Biso   1.000  C
  H307     1.0000 0.74569  0.52906  0.27266  Biso   1.000  H
  H308     1.0000 0.99508  0.79787  0.30076  Biso   1.000  H
  H309     1.0000 0.95500  0.72216  0.31847  Biso   1.000  H
  C270     1.0000 0.74420  0.36422  0.09484  Biso   1.000  C
  H310     1.0000 0.85652  0.44748  0.09526  Biso   1.000  H
  H311     1.0000 0.04853  0.39286  0.03027  Biso   1.000  H
  H312     1.0000 0.06351  0.46208  0.04987  Biso   1.000  H
  H313     1.0000 0.24590  0.30216  0.27096  Biso   1.000  H
  H314     1.0000 0.25643  0.32807  0.30437  Biso   1.000  H
  H315     1.0000 0.44622  0.38318  0.21557  Biso   1.000  H
  C271     1.0000 0.56060  0.45184  0.22125  Biso   1.000  C
  C272     1.0000 0.62001  0.25577  0.09484  Biso   1.000  C
  H316     1.0000 0.59090  0.14347  0.09526  Biso   1.000  H
  H317     1.0000 0.34431  0.95149  0.03027  Biso   1.000  H
  H318     1.0000 0.39854  0.93649  0.04987  Biso   1.000  H
  C273     1.0000 0.61994  0.47400  0.24116  Biso   1.000  C
  C274     1.0000 0.70547  0.55474  0.20404  Biso   1.000  C
  C275     1.0000 0.69640  0.28694  0.09501  Biso   1.000  C
  C276     1.0000 0.71304  0.40948  0.09501  Biso   1.000  C
  C277     1.0000 0.57533  0.48256  0.19294  Biso   1.000  C
  C278     1.0000 0.59050  0.30356  0.09501  Biso   1.000  C
  H319     1.0000 0.61090  0.45397  0.26027  Biso   1.000  H
  C279     1.0000 0.64793  0.53443  0.18386  Biso   1.000  C
  H320     1.0000 0.75421  0.58865  0.19827  Biso   1.000  H
  H321     1.0000 0.71682  0.25566  0.09526  Biso   1.000  H
  C280     1.0000 0.63574  0.37999  0.09484  Biso   1.000  C
  H322     1.0000 0.74432  0.46119  0.09526  Biso   1.000  H
  H323     1.0000 0.53593  0.46840  0.17967  Biso   1.000  H
  H324     1.0000 0.53884  0.28319  0.09526  Biso   1.000  H
  C281     1.0000 0.66304  0.56901  0.15426  Biso   1.000  C
  C282     1.0000 0.60366  0.42912  0.09216  Biso   1.000  C
  N47      1.0000 0.61282  0.56163  0.13657  Biso   1.000  N
  H325     1.0000 0.71269  0.59805  0.14827  Biso   1.000  H
  N48      1.0000 0.64281  0.49717  0.08588  Biso   1.000  N
  H326     1.0000 0.55255  0.40909  0.09526  Biso   1.000  H
  C283     1.0000 0.63520  0.59979  0.10793  Biso   1.000  C
  C284     1.0000 0.60635  0.54159  0.08314  Biso   1.000  C
  H327     1.0000 0.69002  0.62928  0.10697  Biso   1.000  H
  C285     1.0000 0.60308  0.65166  0.10426  Biso   1.000  C
  C286     1.0000 0.62379  0.57853  0.05270  Biso   1.000  C
  H328     1.0000 0.55209  0.50897  0.08526  Biso   1.000  H
  C287     1.0000 0.61964  0.68758  0.07388  Biso   1.000  C
  H329     1.0000 0.54931  0.62329  0.10717  Biso   1.000  H
  H330     1.0000 0.62414  0.69038  0.11936  Biso   1.000  H
  H331     1.0000 0.67750  0.60667  0.04987  Biso   1.000  H
  H332     1.0000 0.60274  0.54020  0.03746  Biso   1.000  H
  C288     1.0000 0.59217  0.63051  0.04938  Biso   1.000  C
  H333     1.0000 0.59593  0.71780  0.07207  Biso   1.000  H
  H334     1.0000 0.67320  0.72037  0.07176  Biso   1.000  H
  H335     1.0000 0.60713  0.65569  0.03027  Biso   1.000  H
  H336     1.0000 0.53791  0.60147  0.04987  Biso   1.000  H
  C289     1.0000 0.30604  0.27290  0.71080  Biso   1.000  C
  C290     1.0000 0.22948  0.25594  0.70104  Biso   1.000  C
  C291     1.0000 0.35557  0.35549  0.71598  Biso   1.000  C
  H337     1.0000 0.30215  0.24593  0.72904  Biso   1.000  H
  H338     1.0000 0.32805  0.25644  0.69563  Biso   1.000  H
  H339     1.0000 0.19724  0.20211  0.69924  Biso   1.000  H
  H340     1.0000 0.23286  0.27782  0.68153  Biso   1.000  H
  C292     1.0000 0.19479  0.28638  0.72305  Biso   1.000  C
  C293     1.0000 0.32167  0.38402  0.73921  Biso   1.000  C
  H341     1.0000 0.36235  0.38212  0.69743  Biso   1.000  H
  H342     1.0000 0.40436  0.36545  0.72273  Biso   1.000  H
  C294     1.0000 0.24611  0.37003  0.72866  Biso   1.000  C
  H343     1.0000 0.18515  0.25963  0.74173  Biso   1.000  H
  H344     1.0000 0.14734  0.27793  0.71523  Biso   1.000  H
  N49      1.0000 0.37235  0.46348  0.74436  Biso   1.000  N
  H345     1.0000 0.31505  0.35683  0.75792  Biso   1.000  H
  H346     1.0000 0.25207  0.39784  0.71024  Biso   1.000  H
  N50      1.0000 0.21317  0.39438  0.75146  Biso   1.000  N
  C295     1.0000 0.39848  0.48318  0.76993  Biso   1.000  C
  C296     1.0000 0.20207  0.44748  0.74576  Biso   1.000  C
  H347     1.0000 0.38316  0.44625  0.78443  Biso   1.000  H
  C297     1.0000 0.45183  0.56062  0.77875  Biso   1.000  C
  C298     1.0000 0.16645  0.47422  0.76748  Biso   1.000  C
  H348     1.0000 0.21665  0.47092  0.72734  Biso   1.000  H
  C299     1.0000 0.48255  0.57534  0.80706  Biso   1.000  C
  C300     1.0000 0.47400  0.61999  0.75884  Biso   1.000  C
  C301     1.0000 0.14591  0.52598  0.75884  Biso   1.000  C
  C302     1.0000 0.15078  0.44529  0.79596  Biso   1.000  C
  H349     1.0000 0.46838  0.53594  0.82033  Biso   1.000  H
  C303     1.0000 0.53441  0.64797  0.81614  Biso   1.000  C
  H350     1.0000 0.45397  0.61092  0.73973  Biso   1.000  H
  C304     1.0000 0.52580  0.69228  0.76748  Biso   1.000  C
  C305     1.0000 0.10880  0.54820  0.77875  Biso   1.000  C
  H351     1.0000 0.15697  0.54607  0.73973  Biso   1.000  H
  C306     1.0000 0.11349  0.46561  0.81614  Biso   1.000  C
  H352     1.0000 0.16553  0.41133  0.80173  Biso   1.000  H
  C307     1.0000 0.56901  0.66307  0.84574  Biso   1.000  C
  C308     1.0000 0.55469  0.70549  0.79596  Biso   1.000  C
  C309     1.0000 0.55251  0.75462  0.74576  Biso   1.000  C
  C310     1.0000 0.08463  0.60152  0.76993  Biso   1.000  C
  C311     1.0000 0.09273  0.51742  0.80706  Biso   1.000  C
  C312     1.0000 0.09404  0.43097  0.84574  Biso   1.000  C
  N51      1.0000 0.56160  0.61288  0.86343  Biso   1.000  N
  H353     1.0000 0.59807  0.71276  0.85173  Biso   1.000  H
  H354     1.0000 0.58866  0.75423  0.80173  Biso   1.000  H
  N52      1.0000 0.60561  0.81885  0.75146  Biso   1.000  N
  H355     1.0000 0.52905  0.74578  0.72734  Biso   1.000  H
  H356     1.0000 0.06308  0.61685  0.78443  Biso   1.000  H
  N53      1.0000 0.09111  0.62765  0.74436  Biso   1.000  N
  H357     1.0000 0.06757  0.53163  0.82033  Biso   1.000  H
  N54      1.0000 0.05124  0.43841  0.86343  Biso   1.000  N
  H358     1.0000 0.11465  0.40193  0.85173  Biso   1.000  H
  C313     1.0000 0.59978  0.63526  0.89207  Biso   1.000  C
  C314     1.0000 0.62996  0.87610  0.72866  Biso   1.000  C
  C315     1.0000 0.06233  0.67835  0.73921  Biso   1.000  C
  C316     1.0000 0.03546  0.40025  0.89207  Biso   1.000  C
  H359     1.0000 0.62925  0.69004  0.89303  Biso   1.000  H
  C317     1.0000 0.54154  0.60639  0.91686  Biso   1.000  C
  C318     1.0000 0.65163  0.60309  0.89574  Biso   1.000  C
  C319     1.0000 0.61599  0.93770  0.73921  Biso   1.000  C
  H360     1.0000 0.60214  0.85427  0.71024  Biso   1.000  H
  C320     1.0000 0.71359  0.90844  0.72305  Biso   1.000  C
  H361     1.0000 0.04179  0.68495  0.75792  Biso   1.000  H
  C321     1.0000 0.12391  0.75395  0.72866  Biso   1.000  C
  C322     1.0000 0.99987  0.64444  0.71598  Biso   1.000  C
  H362     1.0000 0.06079  0.37076  0.89303  Biso   1.000  H
  C323     1.0000 0.06480  0.45844  0.91686  Biso   1.000  C
  C324     1.0000 0.95143  0.34838  0.89574  Biso   1.000  C
  N55      1.0000 0.49717  0.64287  0.91412  Biso   1.000  N
  C325     1.0000 0.57849  0.62379  0.94730  Biso   1.000  C
  H363     1.0000 0.50895  0.55217  0.91474  Biso   1.000  H
  C326     1.0000 0.68756  0.61971  0.92612  Biso   1.000  C
  H364     1.0000 0.62327  0.54937  0.89283  Biso   1.000  H
  H365     1.0000 0.69035  0.62413  0.88064  Biso   1.000  H
  N56      1.0000 0.53654  0.90894  0.74436  Biso   1.000  N
  H366     1.0000 0.64312  0.95824  0.75792  Biso   1.000  H
  C327     1.0000 0.64447  0.00010  0.71598  Biso   1.000  C
  C328     1.0000 0.74407  0.97357  0.70104  Biso   1.000  C
  H367     1.0000 0.74037  0.92556  0.74173  Biso   1.000  H
  H368     1.0000 0.72205  0.86944  0.71523  Biso   1.000  H
  H369     1.0000 0.14578  0.74796  0.71024  Biso   1.000  H
  N57      1.0000 0.18119  0.78679  0.75146  Biso   1.000  N
  C329     1.0000 0.09159  0.80520  0.72305  Biso   1.000  C
  H370     1.0000 0.01979  0.63767  0.69743  Biso   1.000  H
  H371     1.0000 0.96104  0.59565  0.72273  Biso   1.000  H
  C330     1.0000 0.96682  0.69396  0.71080  Biso   1.000  C
  N58      1.0000 0.14569  0.50287  0.91412  Biso   1.000  N
  C331     1.0000 0.04527  0.42151  0.94730  Biso   1.000  C
  H372     1.0000 0.04317  0.49107  0.91474  Biso   1.000  H
  C332     1.0000 0.93211  0.31246  0.92612  Biso   1.000  C
  H373     1.0000 0.92607  0.37675  0.89283  Biso   1.000  H
  H374     1.0000 0.93376  0.30966  0.88064  Biso   1.000  H
  C333     1.0000 0.42909  0.60371  0.90784  Biso   1.000  C
  H375     1.0000 0.60668  0.67757  0.95013  Biso   1.000  H
  H376     1.0000 0.54016  0.60275  0.96254  Biso   1.000  H
  C334     1.0000 0.63045  0.59223  0.95062  Biso   1.000  C
  H377     1.0000 0.71773  0.59593  0.92793  Biso   1.000  H
  H378     1.0000 0.72034  0.67326  0.92824  Biso   1.000  H
  C335     1.0000 0.51683  0.91538  0.76993  Biso   1.000  C
  H379     1.0000 0.61782  0.98023  0.69743  Biso   1.000  H
  H380     1.0000 0.63457  0.03893  0.72273  Biso   1.000  H
  C336     1.0000 0.72710  0.03316  0.71080  Biso   1.000  C
  H381     1.0000 0.79785  0.99517  0.69924  Biso   1.000  H
  H382     1.0000 0.72216  0.95505  0.68153  Biso   1.000  H
  C337     1.0000 0.24539  0.79793  0.74576  Biso   1.000  C
  C338     1.0000 0.02649  0.77057  0.70104  Biso   1.000  C
  H383     1.0000 0.07445  0.81483  0.74173  Biso   1.000  H
  H384     1.0000 0.13057  0.85265  0.71523  Biso   1.000  H
  H385     1.0000 0.94375  0.69782  0.72904  Biso   1.000  H
  H386     1.0000 0.92835  0.67197  0.69563  Biso   1.000  H
  C339     1.0000 0.17458  0.57092  0.90784  Biso   1.000  C
  H387     1.0000 0.07088  0.39337  0.95013  Biso   1.000  H
  H388     1.0000 0.06254  0.45984  0.96254  Biso   1.000  H
  C340     1.0000 0.96171  0.36953  0.95062  Biso   1.000  C
  H389     1.0000 0.87814  0.28224  0.92793  Biso   1.000  H
  H390     1.0000 0.95288  0.27967  0.92824  Biso   1.000  H
  C341     1.0000 0.37999  0.63577  0.90516  Biso   1.000  C
  H391     1.0000 0.40909  0.55256  0.90474  Biso   1.000  H
  H392     1.0000 0.65566  0.60717  0.96973  Biso   1.000  H
  H393     1.0000 0.60148  0.53796  0.95013  Biso   1.000  H
  H394     1.0000 0.55375  0.93698  0.78443  Biso   1.000  H
  C342     1.0000 0.43933  0.89121  0.77875  Biso   1.000  C
  H395     1.0000 0.75404  0.05622  0.72904  Biso   1.000  H
  H396     1.0000 0.74351  0.07161  0.69563  Biso   1.000  H
  C343     1.0000 0.30774  0.83357  0.76748  Biso   1.000  C
  H397     1.0000 0.25430  0.78338  0.72734  Biso   1.000  H
  H398     1.0000 0.00488  0.80274  0.69924  Biso   1.000  H
  H399     1.0000 0.04494  0.76715  0.68153  Biso   1.000  H
  C344     1.0000 0.25578  0.62004  0.90516  Biso   1.000  C
  H400     1.0000 0.14345  0.59095  0.90474  Biso   1.000  H
  H401     1.0000 0.95145  0.34435  0.96973  Biso   1.000  H
  H402     1.0000 0.93642  0.39852  0.95013  Biso   1.000  H
  C345     1.0000 0.30357  0.59050  0.90499  Biso   1.000  C
  C346     1.0000 0.40950  0.71310  0.90499  Biso   1.000  C
  C347     1.0000 0.38000  0.85405  0.75884  Biso   1.000  C
  C348     1.0000 0.42463  0.90726  0.80706  Biso   1.000  C
  C349     1.0000 0.29449  0.84924  0.79596  Biso   1.000  C
  C350     1.0000 0.28690  0.69642  0.90499  Biso   1.000  C
  H403     1.0000 0.28318  0.53885  0.90474  Biso   1.000  H
  C351     1.0000 0.36422  0.74427  0.90516  Biso   1.000  C
  H404     1.0000 0.46119  0.74438  0.90474  Biso   1.000  H
  H405     1.0000 0.38903  0.84303  0.73973  Biso   1.000  H
  C352     1.0000 0.35208  0.88651  0.81614  Biso   1.000  C
  H406     1.0000 0.46407  0.93244  0.82033  Biso   1.000  H
  H407     1.0000 0.24577  0.83447  0.80173  Biso   1.000  H
  H408     1.0000 0.25568  0.71685  0.90474  Biso   1.000  H
  C353     1.0000 0.39633  0.82546  0.90784  Biso   1.000  C
  C354     1.0000 0.33691  0.90598  0.84574  Biso   1.000  C
  N59      1.0000 0.35712  0.85433  0.91412  Biso   1.000  N
  H409     1.0000 0.44745  0.85657  0.90474  Biso   1.000  H
  N60      1.0000 0.38715  0.94878  0.86343  Biso   1.000  N
  H410     1.0000 0.28724  0.88533  0.85173  Biso   1.000  H
  C355     1.0000 0.39365  0.93524  0.91686  Biso   1.000  C
  C356     1.0000 0.36475  0.96456  0.89207  Biso   1.000  C
  C357     1.0000 0.37621  0.95472  0.94730  Biso   1.000  C
  H411     1.0000 0.44787  0.95684  0.91474  Biso   1.000  H
  H412     1.0000 0.30995  0.93927  0.89303  Biso   1.000  H
  C358     1.0000 0.39691  0.04855  0.89574  Biso   1.000  C
  H413     1.0000 0.32247  0.92914  0.95013  Biso   1.000  H
  H414     1.0000 0.39729  0.93748  0.96254  Biso   1.000  H
  C359     1.0000 0.40780  0.03826  0.95062  Biso   1.000  C
  C360     1.0000 0.38030  0.06786  0.92612  Biso   1.000  C
  H415     1.0000 0.45062  0.07390  0.89283  Biso   1.000  H
  H416     1.0000 0.37585  0.06623  0.88064  Biso   1.000  H
  H417     1.0000 0.39286  0.04850  0.96973  Biso   1.000  H
  H418     1.0000 0.46204  0.06349  0.95013  Biso   1.000  H
  H419     1.0000 0.40402  0.12180  0.92793  Biso   1.000  H
  H420     1.0000 0.32674  0.04710  0.92824  Biso   1.000  H
  C361     1.0000 0.07449  0.37160  0.28395  Biso   1.000  C
  C362     1.0000 0.04289  0.28806  0.28063  Biso   1.000  C
  C363     1.0000 0.04701  0.40126  0.25945  Biso   1.000  C
  H421     1.0000 0.05952  0.38190  0.30306  Biso   1.000  H
  H422     1.0000 0.12876  0.39689  0.28346  Biso   1.000  H
  C364     1.0000 0.06031  0.26853  0.25018  Biso   1.000  C
  H423     1.0000 0.98911  0.26249  0.28346  Biso   1.000  H
  H424     1.0000 0.06395  0.27077  0.29586  Biso   1.000  H
  C365     1.0000 0.06360  0.38190  0.22907  Biso   1.000  C
  H425     1.0000 0.99341  0.38050  0.26156  Biso   1.000  H
  H426     1.0000 0.07073  0.45520  0.26128  Biso   1.000  H
  C366     1.0000 0.03144  0.29791  0.22539  Biso   1.000  C
  N61      1.0000 0.02381  0.18768  0.24747  Biso   1.000  N
  H427     1.0000 0.11456  0.29019  0.24807  Biso   1.000  H
  H428     1.0000 0.11734  0.40730  0.22617  Biso   1.000  H
  H429     1.0000 0.04254  0.39958  0.21397  Biso   1.000  H
  N62      1.0000 0.05384  0.28213  0.19677  Biso   1.000  N
  H430     1.0000 0.97661  0.27256  0.22637  Biso   1.000  H
  C367     1.0000 0.06299  0.15875  0.24116  Biso   1.000  C
  C368     1.0000 0.00357  0.23927  0.17907  Biso   1.000  C
  C369     1.0000 0.03088  0.07755  0.23851  Biso   1.000  C
  H431     1.0000 0.11411  0.18986  0.23807  Biso   1.000  H
  C370     1.0000 0.01877  0.21985  0.14949  Biso   1.000  C
  H432     1.0000 0.95393  0.21867  0.18506  Biso   1.000  H
  C371     1.0000 0.95359  0.02977  0.23833  Biso   1.000  C
  C372     1.0000 0.07616  0.04639  0.23833  Biso   1.000  C
  C373     1.0000 0.96118  0.18258  0.12929  Biso   1.000  C
  C374     1.0000 0.09132  0.24061  0.14038  Biso   1.000  C
  C375     1.0000 0.92242  0.95339  0.23851  Biso   1.000  C
  H433     1.0000 0.92232  0.05019  0.23807  Biso   1.000  H
  C376     1.0000 0.04666  0.96917  0.23851  Biso   1.000  C
  H434     1.0000 0.12785  0.07767  0.23807  Biso   1.000  H
  C377     1.0000 0.97440  0.16686  0.10080  Biso   1.000  C
  H435     1.0000 0.91239  0.16776  0.13506  Biso   1.000  H
  C378     1.0000 0.10602  0.22455  0.11210  Biso   1.000  C
  H436     1.0000 0.13076  0.26579  0.15366  Biso   1.000  H
  C379     1.0000 0.84121  0.90426  0.24116  Biso   1.000  C
  C380     1.0000 0.97024  0.92390  0.23833  Biso   1.000  C
  C381     1.0000 0.09577  0.93705  0.24116  Biso   1.000  C
  C382     1.0000 0.91205  0.13122  0.07911  Biso   1.000  C
  C383     1.0000 0.04669  0.18740  0.09218  Biso   1.000  C
  C384     1.0000 0.18349  0.24867  0.10325  Biso   1.000  C
  N63      1.0000 0.81233  0.83622  0.24747  Biso   1.000  N
  H437     1.0000 0.81014  0.92429  0.23807  Biso   1.000  H
  H438     1.0000 0.94981  0.87220  0.23807  Biso   1.000  H
  N64      1.0000 0.16386  0.97622  0.24747  Biso   1.000  N
  H439     1.0000 0.07573  0.88591  0.23807  Biso   1.000  H
  N65      1.0000 0.84783  0.12014  0.08479  Biso   1.000  N
  H440     1.0000 0.92091  0.11667  0.06067  Biso   1.000  H
  H441     1.0000 0.05572  0.17637  0.07308  Biso   1.000  H
  H442     1.0000 0.22041  0.27027  0.11778  Biso   1.000  H
  N66      1.0000 0.20320  0.24223  0.07771  Biso   1.000  N
  C385     1.0000 0.73144  0.79179  0.25018  Biso   1.000  C
  C386     1.0000 0.20823  0.93974  0.25018  Biso   1.000  C
  C387     1.0000 0.79057  0.08723  0.06198  Biso   1.000  C
  C388     1.0000 0.28265  0.27099  0.07254  Biso   1.000  C
  C389     1.0000 0.70210  0.73360  0.22539  Biso   1.000  C
  C390     1.0000 0.71196  0.75486  0.28063  Biso   1.000  C
  H443     1.0000 0.70981  0.82441  0.24807  Biso   1.000  H
  C391     1.0000 0.26647  0.96861  0.22539  Biso   1.000  C
  C392     1.0000 0.24518  0.95714  0.28063  Biso   1.000  C
  H444     1.0000 0.17564  0.88551  0.24807  Biso   1.000  H
  C393     1.0000 0.75823  0.13855  0.05639  Biso   1.000  C
  C394     1.0000 0.72899  0.01164  0.07254  Biso   1.000  C
  H445     1.0000 0.81239  0.08125  0.04356  Biso   1.000  H
  H446     1.0000 0.30981  0.29158  0.09127  Biso   1.000  H
  C395     1.0000 0.29662  0.20939  0.06198  Biso   1.000  C
  C396     1.0000 0.31116  0.33344  0.04931  Biso   1.000  C
  N67      1.0000 0.71788  0.77176  0.19677  Biso   1.000  N
  H447     1.0000 0.72743  0.70411  0.22637  Biso   1.000  H
  C397     1.0000 0.61811  0.68172  0.22907  Biso   1.000  C
  H448     1.0000 0.73752  0.72671  0.28346  Biso   1.000  H
  H449     1.0000 0.72923  0.79319  0.29586  Biso   1.000  H
  C398     1.0000 0.62835  0.70288  0.28395  Biso   1.000  C
  N68      1.0000 0.22829  0.94623  0.19677  Biso   1.000  N
  C399     1.0000 0.31835  0.93649  0.22907  Biso   1.000  C
  H450     1.0000 0.29594  0.02339  0.22637  Biso   1.000  H
  H451     1.0000 0.20685  0.93610  0.29586  Biso   1.000  H
  C400     1.0000 0.29714  0.92558  0.28395  Biso   1.000  C
  H452     1.0000 0.27334  0.01086  0.28346  Biso   1.000  H
  C401     1.0000 0.69310  0.10385  0.03437  Biso   1.000  C
  H453     1.0000 0.74114  0.14817  0.07506  Biso   1.000  H
  H454     1.0000 0.79721  0.18600  0.04858  Biso   1.000  H
  C402     1.0000 0.66656  0.97779  0.04931  Biso   1.000  C
  H455     1.0000 0.70840  0.01824  0.09127  Biso   1.000  H
  N69      1.0000 0.75775  0.96100  0.07771  Biso   1.000  N
  H456     1.0000 0.26880  0.18756  0.04356  Biso   1.000  H
  N70      1.0000 0.27227  0.15214  0.08479  Biso   1.000  N
  C403     1.0000 0.38025  0.24173  0.05639  Biso   1.000  C
  H457     1.0000 0.28451  0.31358  0.03076  Biso   1.000  H
  H458     1.0000 0.30121  0.37227  0.05606  Biso   1.000  H
  C404     1.0000 0.39374  0.36651  0.04414  Biso   1.000  C
  C405     1.0000 0.76071  0.76437  0.17907  Biso   1.000  C
  C406     1.0000 0.59875  0.64580  0.25945  Biso   1.000  C
  H459     1.0000 0.59271  0.71009  0.22617  Biso   1.000  H
  H460     1.0000 0.60045  0.64300  0.21397  Biso   1.000  H
  H461     1.0000 0.61814  0.67770  0.30306  Biso   1.000  H
  H462     1.0000 0.60314  0.73192  0.28346  Biso   1.000  H
  C407     1.0000 0.23568  0.99647  0.17907  Biso   1.000  C
  C408     1.0000 0.35425  0.95305  0.25945  Biso   1.000  C
  H463     1.0000 0.28996  0.88272  0.22617  Biso   1.000  H
  H464     1.0000 0.35707  0.95753  0.21397  Biso   1.000  H
  H465     1.0000 0.32235  0.94052  0.30306  Biso   1.000  H
  H466     1.0000 0.26812  0.87130  0.28346  Biso   1.000  H
  C409     1.0000 0.63348  0.02725  0.04414  Biso   1.000  C
  H467     1.0000 0.67152  0.13608  0.03256  Biso   1.000  H
  H468     1.0000 0.71163  0.10050  0.01486  Biso   1.000  H
  H469     1.0000 0.68643  0.97101  0.03076  Biso   1.000  H
  H470     1.0000 0.62772  0.92899  0.05606  Biso   1.000  H
  C410     1.0000 0.75132  0.93487  0.10325  Biso   1.000  C
  C411     1.0000 0.21920  0.08796  0.07911  Biso   1.000  C
  C412     1.0000 0.41073  0.30686  0.03437  Biso   1.000  C
  H471     1.0000 0.40703  0.25885  0.07506  Biso   1.000  H
  H472     1.0000 0.38873  0.20278  0.04858  Biso   1.000  H
  H473     1.0000 0.42073  0.38956  0.06236  Biso   1.000  H
  H474     1.0000 0.41020  0.40495  0.02898  Biso   1.000  H
  C413     1.0000 0.78018  0.79895  0.14949  Biso   1.000  C
  H475     1.0000 0.78129  0.73527  0.18506  Biso   1.000  H
  H476     1.0000 0.54483  0.61558  0.26128  Biso   1.000  H
  H477     1.0000 0.61952  0.61301  0.26156  Biso   1.000  H
  C414     1.0000 0.20110  0.98131  0.14949  Biso   1.000  C
  H478     1.0000 0.26473  0.04605  0.18506  Biso   1.000  H
  H479     1.0000 0.38445  0.92933  0.26128  Biso   1.000  H
  H480     1.0000 0.38700  0.00655  0.26156  Biso   1.000  H
  H481     1.0000 0.61044  0.03117  0.06236  Biso   1.000  H
  H482     1.0000 0.59501  0.00526  0.02898  Biso   1.000  H
  H483     1.0000 0.72972  0.95020  0.11778  Biso   1.000  H
  C415     1.0000 0.77544  0.88154  0.11210  Biso   1.000  C
  C416     1.0000 0.19246  0.02557  0.10080  Biso   1.000  C
  H484     1.0000 0.19571  0.07907  0.06067  Biso   1.000  H
  H485     1.0000 0.46451  0.32846  0.03256  Biso   1.000  H
  H486     1.0000 0.38885  0.28840  0.01486  Biso   1.000  H
  C417     1.0000 0.75942  0.85077  0.14038  Biso   1.000  C
  C418     1.0000 0.81742  0.77864  0.12929  Biso   1.000  C
  C419     1.0000 0.14924  0.90868  0.14038  Biso   1.000  C
  C420     1.0000 0.22138  0.03883  0.12929  Biso   1.000  C
  C421     1.0000 0.81262  0.85938  0.09218  Biso   1.000  C
  C422     1.0000 0.14069  0.95333  0.09218  Biso   1.000  C
  H487     1.0000 0.73421  0.86498  0.15366  Biso   1.000  H
  C423     1.0000 0.83309  0.80757  0.10080  Biso   1.000  C
  H488     1.0000 0.83222  0.74467  0.13506  Biso   1.000  H
  C424     1.0000 0.11850  0.89402  0.11210  Biso   1.000  C
  H489     1.0000 0.13502  0.86929  0.15366  Biso   1.000  H
  H490     1.0000 0.25534  0.08757  0.13506  Biso   1.000  H
  H491     1.0000 0.82361  0.87942  0.07308  Biso   1.000  H
  H492     1.0000 0.12063  0.94432  0.07308  Biso   1.000  H
  C425     1.0000 0.86878  0.78088  0.07911  Biso   1.000  C
  C426     1.0000 0.06517  0.81652  0.10325  Biso   1.000  C
  N71      1.0000 0.87989  0.72778  0.08479  Biso   1.000  N
  H493     1.0000 0.88332  0.80432  0.06067  Biso   1.000  H
  N72      1.0000 0.03904  0.79683  0.07771  Biso   1.000  N
  H494     1.0000 0.04985  0.77959  0.11778  Biso   1.000  H
  C427     1.0000 0.91275  0.70338  0.06198  Biso   1.000  C
  C428     1.0000 0.98831  0.71737  0.07254  Biso   1.000  C
  H495     1.0000 0.91871  0.73119  0.04356  Biso   1.000  H
  C429     1.0000 0.86146  0.61978  0.05639  Biso   1.000  C
  H496     1.0000 0.98169  0.69017  0.09127  Biso   1.000  H
  C430     1.0000 0.02229  0.68889  0.04931  Biso   1.000  C
  C431     1.0000 0.89612  0.58929  0.03437  Biso   1.000  C
  H497     1.0000 0.85179  0.59298  0.07506  Biso   1.000  H
  H498     1.0000 0.81403  0.61128  0.04858  Biso   1.000  H
  C432     1.0000 0.97273  0.60624  0.04414  Biso   1.000  C
  H499     1.0000 0.02906  0.71552  0.03076  Biso   1.000  H
  H500     1.0000 0.07104  0.69879  0.05606  Biso   1.000  H
  H501     1.0000 0.86391  0.53551  0.03256  Biso   1.000  H
  H502     1.0000 0.89953  0.61122  0.01486  Biso   1.000  H
  H503     1.0000 0.96879  0.57927  0.06236  Biso   1.000  H
  H504     1.0000 0.99469  0.58979  0.02898  Biso   1.000  H
