data_image0
_cell_length_a       18.939
_cell_length_b       10.29
_cell_length_c       39.34
_cell_angle_alpha    90
_cell_angle_beta     101.62
_cell_angle_gamma    90

_symmetry_space_group_name_H-M    "P 1"
_symmetry_int_tables_number       1

loop_
  _symmetry_equiv_pos_as_xyz
  'x, y, z'

loop_
  _atom_site_label
  _atom_site_occupancy
  _atom_site_fract_x
  _atom_site_fract_y
  _atom_site_fract_z
  _atom_site_thermal_displace_type
  _atom_site_B_iso_or_equiv
  _atom_site_type_symbol
  C1       1.0000 0.57988  0.34917  0.47141  Biso   1.000  C
  N1       1.0000 0.60928  0.42682  0.45005  Biso   1.000  N
  H1       1.0000 0.55557  0.38824  0.48700  Biso   1.000  H
  C2       1.0000 0.58427  0.21778  0.47117  Biso   1.000  C
  C3       1.0000 0.64273  0.36560  0.42905  Biso   1.000  C
  C4       1.0000 0.61968  0.15889  0.44854  Biso   1.000  C
  H2       1.0000 0.56325  0.16851  0.48630  Biso   1.000  H
  O1       1.0000 0.67462  0.43654  0.40733  Biso   1.000  O
  C5       1.0000 0.64907  0.23304  0.42677  Biso   1.000  C
  H3       1.0000 0.62346  0.06880  0.44810  Biso   1.000  H
  C6       1.0000 0.67114  0.57055  0.40723  Biso   1.000  C
  H4       1.0000 0.67297  0.19553  0.41071  Biso   1.000  H
  C7       1.0000 0.62182  0.62721  0.38058  Biso   1.000  C
  C8       1.0000 0.72031  0.64062  0.43123  Biso   1.000  C
  C9       1.0000 0.56829  0.54733  0.35574  Biso   1.000  C
  C10      1.0000 0.62226  0.76025  0.37860  Biso   1.000  C
  C11      1.0000 0.71837  0.77444  0.42760  Biso   1.000  C
  C12      1.0000 0.77187  0.57775  0.46069  Biso   1.000  C
  C13      1.0000 0.59878  0.44344  0.33674  Biso   1.000  C
  H5       1.0000 0.53534  0.50729  0.36861  Biso   1.000  H
  H6       1.0000 0.54024  0.60544  0.33879  Biso   1.000  H
  C14      1.0000 0.66944  0.83353  0.40152  Biso   1.000  C
  H7       1.0000 0.58944  0.80146  0.36111  Biso   1.000  H
  H8       1.0000 0.75069  0.82527  0.44301  Biso   1.000  H
  C15      1.0000 0.81221  0.46239  0.45186  Biso   1.000  C
  H9       1.0000 0.80657  0.64257  0.47120  Biso   1.000  H
  H10      1.0000 0.74499  0.55160  0.47810  Biso   1.000  H
  C16      1.0000 0.57775  0.31429  0.33796  Biso   1.000  C
  C17      1.0000 0.64955  0.46958  0.31725  Biso   1.000  C
  H11      1.0000 0.66865  0.92362  0.39949  Biso   1.000  H
  C18      1.0000 0.80548  0.34295  0.46668  Biso   1.000  C
  C19      1.0000 0.85692  0.47191  0.42861  Biso   1.000  C
  H12      1.0000 0.54276  0.29252  0.35050  Biso   1.000  H
  C20      1.0000 0.60733  0.21905  0.32120  Biso   1.000  C
  O2       1.0000 0.67200  0.59835  0.31424  Biso   1.000  O
  C21      1.0000 0.68287  0.37493  0.30135  Biso   1.000  C
  C22      1.0000 0.84035  0.23693  0.45752  Biso   1.000  C
  H13      1.0000 0.77666  0.33460  0.48311  Biso   1.000  H
  C23      1.0000 0.89174  0.36501  0.41782  Biso   1.000  C
  O3       1.0000 0.86373  0.59271  0.41372  Biso   1.000  O
  H14      1.0000 0.59162  0.13362  0.32190  Biso   1.000  H
  C24      1.0000 0.65984  0.24908  0.30347  Biso   1.000  C
  C25      1.0000 0.62613  0.67843  0.29206  Biso   1.000  C
  C26      1.0000 0.74366  0.40748  0.28360  Biso   1.000  C
  C27      1.0000 0.88228  0.24645  0.43344  Biso   1.000  C
  H15      1.0000 0.83545  0.15714  0.46790  Biso   1.000  H
  C28      1.0000 0.93837  0.37775  0.39194  Biso   1.000  C
  C29      1.0000 0.92109  0.66910  0.42827  Biso   1.000  C
  H16      1.0000 0.68053  0.18319  0.29260  Biso   1.000  H
  C30      1.0000 0.64697  0.80457  0.29089  Biso   1.000  C
  N2       1.0000 0.56781  0.62974  0.27345  Biso   1.000  N
  H17      1.0000 0.72657  0.47143  0.26572  Biso   1.000  H
  H18      1.0000 0.75612  0.32983  0.27210  Biso   1.000  H
  C31      1.0000 0.81162  0.45986  0.30659  Biso   1.000  C
  H19      1.0000 0.90506  0.17269  0.42731  Biso   1.000  H
  C32      1.0000 0.90744  0.44402  0.35815  Biso   1.000  C
  H20      1.0000 0.95344  0.29116  0.38670  Biso   1.000  H
  H21      1.0000 0.98146  0.42478  0.40282  Biso   1.000  H
  C33      1.0000 0.92266  0.79261  0.41535  Biso   1.000  C
  N3       1.0000 0.97056  0.62031  0.45236  Biso   1.000  N
  H22      1.0000 0.69002  0.83421  0.30430  Biso   1.000  H
  C34      1.0000 0.60205  0.88533  0.26935  Biso   1.000  C
  C35      1.0000 0.52552  0.71186  0.25238  Biso   1.000  C
  C36      1.0000 0.84722  0.56599  0.29626  Biso   1.000  C
  C37      1.0000 0.84375  0.40078  0.33719  Biso   1.000  C
  C38      1.0000 0.94033  0.54548  0.34692  Biso   1.000  C
  H23      1.0000 0.88596  0.82342  0.39781  Biso   1.000  H
  C39      1.0000 0.98046  0.86871  0.42934  Biso   1.000  C
  C40      1.0000 0.02595  0.69922  0.46510  Biso   1.000  C
  H24      1.0000 0.61383  0.97269  0.26810  Biso   1.000  H
  C41      1.0000 0.54053  0.83916  0.24976  Biso   1.000  C
  H25      1.0000 0.48326  0.67969  0.23870  Biso   1.000  H
  H26      1.0000 0.82773  0.61011  0.27591  Biso   1.000  H
  C42      1.0000 0.91253  0.60583  0.31668  Biso   1.000  C
  O4       1.0000 0.81032  0.29699  0.34915  Biso   1.000  O
  H27      1.0000 0.98347  0.57551  0.36031  Biso   1.000  H
  H28      1.0000 0.98364  0.95306  0.42140  Biso   1.000  H
  C43      1.0000 0.03306  0.82119  0.45472  Biso   1.000  C
  H29      1.0000 0.06217  0.66638  0.48251  Biso   1.000  H
  H30      1.0000 0.50934  0.89349  0.23491  Biso   1.000  H
  H31      1.0000 0.93737  0.67493  0.30942  Biso   1.000  H
  C44      1.0000 0.82523  0.17784  0.33973  Biso   1.000  C
  H32      1.0000 0.07268  0.87162  0.46461  Biso   1.000  H
  N4       1.0000 0.86792  0.16259  0.31733  Biso   1.000  N
  C45      1.0000 0.79333  0.08017  0.35460  Biso   1.000  C
  C46      1.0000 0.87885  0.03732  0.30776  Biso   1.000  C
  H33      1.0000 0.76495  0.09640  0.37082  Biso   1.000  H
  C47      1.0000 0.80535  0.96142  0.34461  Biso   1.000  C
  H34      1.0000 0.90792  0.02148  0.29180  Biso   1.000  H
  C48      1.0000 0.84645  0.93197  0.32180  Biso   1.000  C
  H35      1.0000 0.78377  0.89310  0.35411  Biso   1.000  H
  H36      1.0000 0.85323  0.84665  0.31541  Biso   1.000  H
  C49      1.0000 0.42027  0.65083  0.52860  Biso   1.000  C
  N5       1.0000 0.39089  0.57318  0.54999  Biso   1.000  N
  H37      1.0000 0.44458  0.61176  0.51301  Biso   1.000  H
  C50      1.0000 0.41588  0.78222  0.52884  Biso   1.000  C
  C51      1.0000 0.35743  0.63440  0.57098  Biso   1.000  C
  H38      1.0000 0.43685  0.83149  0.51371  Biso   1.000  H
  C52      1.0000 0.38047  0.84111  0.55146  Biso   1.000  C
  O5       1.0000 0.32553  0.56346  0.59268  Biso   1.000  O
  C53      1.0000 0.35110  0.76696  0.57326  Biso   1.000  C
  H39      1.0000 0.37669  0.93120  0.55191  Biso   1.000  H
  C54      1.0000 0.32896  0.42945  0.59278  Biso   1.000  C
  H40      1.0000 0.32718  0.80447  0.58930  Biso   1.000  H
  C55      1.0000 0.27984  0.35938  0.56877  Biso   1.000  C
  C56      1.0000 0.37833  0.37279  0.61943  Biso   1.000  C
  C57      1.0000 0.22829  0.42225  0.53932  Biso   1.000  C
  C58      1.0000 0.28178  0.22556  0.57241  Biso   1.000  C
  C59      1.0000 0.37790  0.23975  0.62143  Biso   1.000  C
  C60      1.0000 0.43186  0.45267  0.64427  Biso   1.000  C
  C61      1.0000 0.18794  0.53761  0.54814  Biso   1.000  C
  H41      1.0000 0.19358  0.35743  0.52881  Biso   1.000  H
  H42      1.0000 0.25516  0.44840  0.52191  Biso   1.000  H
  H43      1.0000 0.24947  0.17473  0.55702  Biso   1.000  H
  C62      1.0000 0.33067  0.16647  0.59851  Biso   1.000  C
  H44      1.0000 0.41072  0.19854  0.63892  Biso   1.000  H
  H45      1.0000 0.46482  0.49271  0.63142  Biso   1.000  H
  H46      1.0000 0.45992  0.39456  0.66121  Biso   1.000  H
  C63      1.0000 0.40138  0.55656  0.66329  Biso   1.000  C
  C64      1.0000 0.19468  0.65705  0.53333  Biso   1.000  C
  C65      1.0000 0.14323  0.52809  0.57140  Biso   1.000  C
  H47      1.0000 0.33151  0.07638  0.60051  Biso   1.000  H
  C66      1.0000 0.42241  0.68571  0.66204  Biso   1.000  C
  C67      1.0000 0.35056  0.53042  0.68278  Biso   1.000  C
  C68      1.0000 0.15975  0.76307  0.54249  Biso   1.000  C
  H48      1.0000 0.22350  0.66540  0.51690  Biso   1.000  H
  C69      1.0000 0.10842  0.63499  0.58222  Biso   1.000  C
  O6       1.0000 0.13637  0.40729  0.58629  Biso   1.000  O
  H49      1.0000 0.45740  0.70748  0.64951  Biso   1.000  H
  C70      1.0000 0.39278  0.78095  0.67881  Biso   1.000  C
  O7       1.0000 0.32815  0.40165  0.68576  Biso   1.000  O
  C71      1.0000 0.31730  0.62507  0.69869  Biso   1.000  C
  C72      1.0000 0.11787  0.75355  0.56657  Biso   1.000  C
  H50      1.0000 0.16470  0.84286  0.53211  Biso   1.000  H
  C73      1.0000 0.06179  0.62225  0.60806  Biso   1.000  C
  C74      1.0000 0.07907  0.33090  0.57176  Biso   1.000  C
  H51      1.0000 0.40848  0.86638  0.67811  Biso   1.000  H
  C75      1.0000 0.34031  0.75092  0.69653  Biso   1.000  C
  C76      1.0000 0.37403  0.32157  0.70795  Biso   1.000  C
  C77      1.0000 0.25649  0.59252  0.71641  Biso   1.000  C
  H52      1.0000 0.09510  0.82731  0.57272  Biso   1.000  H
  C78      1.0000 0.09272  0.55598  0.64185  Biso   1.000  C
  H53      1.0000 0.04672  0.70884  0.61331  Biso   1.000  H
  H54      1.0000 0.01871  0.57522  0.59722  Biso   1.000  H
  C79      1.0000 0.07750  0.20739  0.58466  Biso   1.000  C
  N6       1.0000 0.02961  0.37969  0.54768  Biso   1.000  N
  H55      1.0000 0.31963  0.81681  0.70741  Biso   1.000  H
  C80      1.0000 0.35318  0.19543  0.70912  Biso   1.000  C
  N7       1.0000 0.43229  0.37026  0.72656  Biso   1.000  N
  H56      1.0000 0.27360  0.52857  0.73432  Biso   1.000  H
  H57      1.0000 0.24399  0.67017  0.72791  Biso   1.000  H
  C81      1.0000 0.18848  0.54014  0.69342  Biso   1.000  C
  C82      1.0000 0.05982  0.45452  0.65309  Biso   1.000  C
  C83      1.0000 0.15640  0.59922  0.66282  Biso   1.000  C
  H58      1.0000 0.11420  0.17658  0.60220  Biso   1.000  H
  C84      1.0000 0.01969  0.13129  0.57067  Biso   1.000  C
  C85      1.0000 0.97416  0.30078  0.53491  Biso   1.000  C
  H59      1.0000 0.31008  0.16579  0.69570  Biso   1.000  H
  C86      1.0000 0.39810  0.11467  0.73066  Biso   1.000  C
  C87      1.0000 0.47464  0.28814  0.74763  Biso   1.000  C
  C88      1.0000 0.15288  0.43401  0.70375  Biso   1.000  C
  C89      1.0000 0.08763  0.39417  0.68332  Biso   1.000  C
  H60      1.0000 0.01668  0.42449  0.63970  Biso   1.000  H
  O8       1.0000 0.18984  0.70301  0.65086  Biso   1.000  O
  H61      1.0000 0.01646  0.04694  0.57861  Biso   1.000  H
  C90      1.0000 0.96709  0.17881  0.54529  Biso   1.000  C
  H62      1.0000 0.93799  0.33362  0.51749  Biso   1.000  H
  H63      1.0000 0.38632  0.02731  0.73190  Biso   1.000  H
  C91      1.0000 0.45963  0.16084  0.75025  Biso   1.000  C
  H64      1.0000 0.51690  0.32031  0.76131  Biso   1.000  H
  H65      1.0000 0.17239  0.38989  0.72412  Biso   1.000  H
  H66      1.0000 0.06280  0.32507  0.69062  Biso   1.000  H
  C92      1.0000 0.17487  0.82216  0.66028  Biso   1.000  C
  H67      1.0000 0.92747  0.12838  0.53540  Biso   1.000  H
  H68      1.0000 0.49082  0.10651  0.76512  Biso   1.000  H
  N8       1.0000 0.13218  0.83741  0.68267  Biso   1.000  N
  C93      1.0000 0.20678  0.91983  0.64541  Biso   1.000  C
  C94      1.0000 0.12130  0.96268  0.69225  Biso   1.000  C
  H69      1.0000 0.23522  0.90360  0.62922  Biso   1.000  H
  C95      1.0000 0.19480  0.03858  0.65540  Biso   1.000  C
  H70      1.0000 0.09223  0.97852  0.70821  Biso   1.000  H
  C96      1.0000 0.15371  0.06803  0.67821  Biso   1.000  C
  H71      1.0000 0.21638  0.10690  0.64590  Biso   1.000  H
  H72      1.0000 0.14688  0.15335  0.68462  Biso   1.000  H
  C97      1.0000 0.65638  0.67979  0.54041  Biso   1.000  C
  C98      1.0000 0.61436  0.69057  0.56480  Biso   1.000  C
  H73      1.0000 0.66038  0.60010  0.52980  Biso   1.000  H
  C99      1.0000 0.69220  0.78484  0.53151  Biso   1.000  C
  C100     1.0000 0.60601  0.80952  0.58030  Biso   1.000  C
  H74      1.0000 0.59118  0.61749  0.57111  Biso   1.000  H
  H75      1.0000 0.72149  0.77570  0.51531  Biso   1.000  H
  C101     1.0000 0.68590  0.90476  0.54622  Biso   1.000  C
  C102     1.0000 0.55887  0.82235  0.60620  Biso   1.000  C
  C103     1.0000 0.64097  0.91390  0.56958  Biso   1.000  C
  C104     1.0000 0.72657  0.01885  0.53768  Biso   1.000  C
  C105     1.0000 0.58987  0.88873  0.64004  Biso   1.000  C
  H76      1.0000 0.51587  0.86958  0.59530  Biso   1.000  H
  H77      1.0000 0.54368  0.73586  0.61141  Biso   1.000  H
  O9       1.0000 0.63481  0.03528  0.58466  Biso   1.000  O
  H78      1.0000 0.75427  0.99174  0.52071  Biso   1.000  H
  H79      1.0000 0.69195  0.08290  0.52650  Biso   1.000  H
  C106     1.0000 0.77698  0.08503  0.56680  Biso   1.000  C
  C107     1.0000 0.55638  0.99164  0.65148  Biso   1.000  C
  C108     1.0000 0.65336  0.84577  0.66103  Biso   1.000  C
  C109     1.0000 0.57764  0.11186  0.57041  Biso   1.000  C
  C110     1.0000 0.77858  0.21808  0.56986  Biso   1.000  C
  C111     1.0000 0.82608  0.01623  0.59127  Biso   1.000  C
  C112     1.0000 0.58492  0.05190  0.68184  Biso   1.000  C
  H80      1.0000 0.51311  0.02138  0.63830  Biso   1.000  H
  O10      1.0000 0.68700  0.74208  0.64894  Biso   1.000  O
  C113     1.0000 0.68522  0.90457  0.69189  Biso   1.000  C
  N9       1.0000 0.52935  0.06608  0.54485  Biso   1.000  N
  C114     1.0000 0.57468  0.23324  0.58429  Biso   1.000  C
  H81      1.0000 0.74687  0.26822  0.55401  Biso   1.000  H
  C115     1.0000 0.82691  0.27852  0.59628  Biso   1.000  C
  O11      1.0000 0.82209  0.88134  0.59133  Biso   1.000  O
  C116     1.0000 0.87481  0.07405  0.61764  Biso   1.000  C
  C117     1.0000 0.64950  0.01050  0.70180  Biso   1.000  C
  H82      1.0000 0.56080  0.12177  0.68932  Biso   1.000  H
  C118     1.0000 0.67323  0.62206  0.65880  Biso   1.000  C
  C119     1.0000 0.75311  0.85394  0.71483  Biso   1.000  C
  C120     1.0000 0.47446  0.14441  0.53203  Biso   1.000  C
  C121     1.0000 0.51737  0.30952  0.57062  Biso   1.000  C
  H83      1.0000 0.61051  0.26239  0.60241  Biso   1.000  H
  H84      1.0000 0.82697  0.36861  0.59820  Biso   1.000  H
  C122     1.0000 0.87420  0.20622  0.61946  Biso   1.000  C
  C123     1.0000 0.85663  0.81069  0.57077  Biso   1.000  C
  C124     1.0000 0.92830  0.99397  0.64250  Biso   1.000  C
  H85      1.0000 0.66913  0.05442  0.72220  Biso   1.000  H
  C125     1.0000 0.70369  0.52381  0.64364  Biso   1.000  C
  N10      1.0000 0.63229  0.60748  0.68223  Biso   1.000  N
  C126     1.0000 0.81329  0.82138  0.69700  Biso   1.000  C
  H86      1.0000 0.74100  0.77638  0.72651  Biso   1.000  H
  H87      1.0000 0.77022  0.91846  0.73250  Biso   1.000  H
  H88      1.0000 0.43976  0.11380  0.51360  Biso   1.000  H
  C127     1.0000 0.46576  0.26472  0.54394  Biso   1.000  C
  H89      1.0000 0.51339  0.39242  0.57952  Biso   1.000  H
  H90      1.0000 0.90668  0.24801  0.63690  Biso   1.000  H
  N11      1.0000 0.89251  0.86880  0.55040  Biso   1.000  N
  C128     1.0000 0.85032  0.67804  0.57337  Biso   1.000  C
  H91      1.0000 0.96097  0.95335  0.62960  Biso   1.000  H
  C129     1.0000 0.89757  0.88970  0.66194  Biso   1.000  C
  H92      1.0000 0.95672  0.05219  0.65932  Biso   1.000  H
  H93      1.0000 0.73028  0.54023  0.62670  Biso   1.000  H
  C130     1.0000 0.69408  0.40544  0.65387  Biso   1.000  C
  C131     1.0000 0.62297  0.48299  0.69202  Biso   1.000  C
  C132     1.0000 0.83710  0.69553  0.69498  Biso   1.000  C
  C133     1.0000 0.84659  0.91594  0.68143  Biso   1.000  C
  H94      1.0000 0.42609  0.31526  0.53431  Biso   1.000  H
  C134     1.0000 0.92451  0.78950  0.53070  Biso   1.000  C
  C135     1.0000 0.88299  0.60233  0.55326  Biso   1.000  C
  H95      1.0000 0.82428  0.64159  0.58860  Biso   1.000  H
  C136     1.0000 0.91930  0.76084  0.66075  Biso   1.000  C
  H96      1.0000 0.71528  0.33703  0.64421  Biso   1.000  H
  C137     1.0000 0.65439  0.37833  0.67800  Biso   1.000  C
  H97      1.0000 0.59503  0.46706  0.70852  Biso   1.000  H
  C138     1.0000 0.88948  0.66550  0.67743  Biso   1.000  C
  H98      1.0000 0.81669  0.62964  0.70600  Biso   1.000  H
  O12      1.0000 0.82470  0.04422  0.68439  Biso   1.000  O
  H99      1.0000 0.95060  0.82760  0.51570  Biso   1.000  H
  C139     1.0000 0.92098  0.65802  0.53135  Biso   1.000  C
  H100     1.0000 0.87940  0.51234  0.55440  Biso   1.000  H
  H101     1.0000 0.95470  0.73926  0.64842  Biso   1.000  H
  H102     1.0000 0.64829  0.29339  0.68501  Biso   1.000  H
  H103     1.0000 0.90518  0.57998  0.67671  Biso   1.000  H
  C140     1.0000 0.86985  0.12439  0.70673  Biso   1.000  C
  H104     1.0000 0.94399  0.60758  0.51721  Biso   1.000  H
  C141     1.0000 0.84989  0.25034  0.70787  Biso   1.000  C
  N12      1.0000 0.92830  0.07502  0.72555  Biso   1.000  N
  H105     1.0000 0.80721  0.28027  0.69420  Biso   1.000  H
  C142     1.0000 0.89442  0.33188  0.72975  Biso   1.000  C
  C143     1.0000 0.97009  0.15821  0.74680  Biso   1.000  C
  H106     1.0000 0.88270  0.41934  0.73102  Biso   1.000  H
  C144     1.0000 0.95533  0.28465  0.74950  Biso   1.000  C
  H107     1.0000 0.01219  0.12614  0.76061  Biso   1.000  H
  H108     1.0000 0.98630  0.33839  0.76460  Biso   1.000  H
  C145     1.0000 0.38575  0.30943  0.43523  Biso   1.000  C
  C146     1.0000 0.39410  0.19048  0.41974  Biso   1.000  C
  H109     1.0000 0.40897  0.38251  0.42890  Biso   1.000  H
  C147     1.0000 0.34379  0.32021  0.45962  Biso   1.000  C
  C148     1.0000 0.44130  0.17765  0.39384  Biso   1.000  C
  C149     1.0000 0.35919  0.08610  0.43043  Biso   1.000  C
  H110     1.0000 0.33977  0.39990  0.47021  Biso   1.000  H
  C150     1.0000 0.30795  0.21516  0.46850  Biso   1.000  C
  C151     1.0000 0.41028  0.11127  0.35997  Biso   1.000  C
  H111     1.0000 0.48428  0.13042  0.40471  Biso   1.000  H
  H112     1.0000 0.45647  0.26414  0.38859  Biso   1.000  H
  C152     1.0000 0.31426  0.09524  0.45378  Biso   1.000  C
  O13      1.0000 0.36529  0.96472  0.41535  Biso   1.000  O
  H113     1.0000 0.27868  0.22430  0.48472  Biso   1.000  H
  C153     1.0000 0.34680  0.15423  0.33898  Biso   1.000  C
  C154     1.0000 0.44373  0.00836  0.34855  Biso   1.000  C
  C155     1.0000 0.27358  0.98115  0.46232  Biso   1.000  C
  C156     1.0000 0.42252  0.88814  0.42960  Biso   1.000  C
  C157     1.0000 0.31493  0.09543  0.30812  Biso   1.000  C
  O14      1.0000 0.31315  0.25792  0.35107  Biso   1.000  O
  C158     1.0000 0.41523  0.94810  0.31816  Biso   1.000  C
  H114     1.0000 0.48704  0.97862  0.36171  Biso   1.000  H
  C159     1.0000 0.22317  0.91497  0.43320  Biso   1.000  C
  H115     1.0000 0.24589  0.00826  0.47929  Biso   1.000  H
  H116     1.0000 0.30815  0.91710  0.47351  Biso   1.000  H
  N13      1.0000 0.47081  0.93392  0.45516  Biso   1.000  N
  C160     1.0000 0.42547  0.76676  0.41571  Biso   1.000  C
  C161     1.0000 0.24705  0.14606  0.28520  Biso   1.000  C
  C162     1.0000 0.35065  0.98950  0.29821  Biso   1.000  C
  C163     1.0000 0.32694  0.37794  0.34123  Biso   1.000  C
  H117     1.0000 0.43936  0.87823  0.31071  Biso   1.000  H
  C164     1.0000 0.17408  0.98377  0.40876  Biso   1.000  C
  C165     1.0000 0.22157  0.78192  0.43014  Biso   1.000  C
  C166     1.0000 0.52565  0.85559  0.46798  Biso   1.000  C
  C167     1.0000 0.48278  0.69048  0.42939  Biso   1.000  C
  H118     1.0000 0.38965  0.73761  0.39760  Biso   1.000  H
  C168     1.0000 0.18686  0.17862  0.30301  Biso   1.000  C
  H119     1.0000 0.25916  0.22362  0.27350  Biso   1.000  H
  H120     1.0000 0.22993  0.08154  0.26751  Biso   1.000  H
  H121     1.0000 0.33103  0.94558  0.27781  Biso   1.000  H
  C169     1.0000 0.29647  0.47619  0.35636  Biso   1.000  C
  N14      1.0000 0.36786  0.39252  0.31777  Biso   1.000  N
  C170     1.0000 0.12534  0.92595  0.38237  Biso   1.000  C
  O15      1.0000 0.17807  0.11866  0.40871  Biso   1.000  O
  C171     1.0000 0.17324  0.72148  0.40372  Biso   1.000  C
  H122     1.0000 0.25329  0.73178  0.44600  Biso   1.000  H
  H123     1.0000 0.56039  0.88620  0.48641  Biso   1.000  H
  C172     1.0000 0.53439  0.73528  0.45607  Biso   1.000  C
  H124     1.0000 0.48678  0.60758  0.42051  Biso   1.000  H
  C173     1.0000 0.16305  0.30447  0.30503  Biso   1.000  C
  C174     1.0000 0.15356  0.08406  0.31858  Biso   1.000  C
  H125     1.0000 0.26987  0.45977  0.37331  Biso   1.000  H
  C175     1.0000 0.30607  0.59456  0.34614  Biso   1.000  C
  C176     1.0000 0.37713  0.51701  0.30799  Biso   1.000  C
  C177     1.0000 0.07180  0.00603  0.35751  Biso   1.000  C
  C178     1.0000 0.12596  0.79378  0.38058  Biso   1.000  C
  C179     1.0000 0.14352  0.18931  0.42923  Biso   1.000  C
  H126     1.0000 0.17318  0.63139  0.40180  Biso   1.000  H
  H127     1.0000 0.57406  0.68474  0.46570  Biso   1.000  H
  C180     1.0000 0.11063  0.33450  0.32260  Biso   1.000  C
  H128     1.0000 0.18346  0.37036  0.29400  Biso   1.000  H
  C181     1.0000 0.10258  0.11030  0.33807  Biso   1.000  C
  O16      1.0000 0.17545  0.95578  0.31562  Biso   1.000  O
  H129     1.0000 0.28482  0.66297  0.35579  Biso   1.000  H
  C182     1.0000 0.34577  0.62167  0.32200  Biso   1.000  C
  H130     1.0000 0.40514  0.53294  0.29151  Biso   1.000  H
  H131     1.0000 0.03918  0.04665  0.37040  Biso   1.000  H
  H132     1.0000 0.04344  0.94781  0.34071  Biso   1.000  H
  H133     1.0000 0.09347  0.75199  0.36311  Biso   1.000  H
  N15      1.0000 0.10764  0.13120  0.44961  Biso   1.000  N
  C183     1.0000 0.14983  0.32196  0.42664  Biso   1.000  C
  C184     1.0000 0.08085  0.23916  0.33926  Biso   1.000  C
  H134     1.0000 0.09493  0.42002  0.32330  Biso   1.000  H
  C185     1.0000 0.13031  0.87561  0.29328  Biso   1.000  C
  H135     1.0000 0.35187  0.70661  0.31500  Biso   1.000  H
  C186     1.0000 0.07566  0.21050  0.46933  Biso   1.000  C
  C187     1.0000 0.11717  0.39767  0.44675  Biso   1.000  C
  H136     1.0000 0.17588  0.35841  0.41141  Biso   1.000  H
  H137     1.0000 0.04547  0.26074  0.35161  Biso   1.000  H
  C188     1.0000 0.15026  0.74966  0.29213  Biso   1.000  C
  N16      1.0000 0.07186  0.92498  0.27449  Biso   1.000  N
  H138     1.0000 0.04956  0.17240  0.48430  Biso   1.000  H
  C189     1.0000 0.07918  0.34198  0.46865  Biso   1.000  C
  H139     1.0000 0.12075  0.48766  0.44561  Biso   1.000  H
  H140     1.0000 0.19295  0.71973  0.30581  Biso   1.000  H
  C190     1.0000 0.10573  0.66812  0.27026  Biso   1.000  C
  C191     1.0000 0.03001  0.84179  0.25321  Biso   1.000  C
  H141     1.0000 0.05616  0.39242  0.48280  Biso   1.000  H
  H142     1.0000 0.11746  0.58066  0.26901  Biso   1.000  H
  C192     1.0000 0.04484  0.71535  0.25053  Biso   1.000  C
  H143     1.0000 0.98796  0.87386  0.23940  Biso   1.000  H
  H144     1.0000 0.01385  0.66161  0.23540  Biso   1.000  H
  C193     1.0000 0.47001  0.34179  0.24680  Biso   1.000  C
  N17      1.0000 0.42823  0.42498  0.22554  Biso   1.000  N
  C194     1.0000 0.45525  0.21535  0.24950  Biso   1.000  C
  H145     1.0000 0.51212  0.37386  0.26060  Biso   1.000  H
  C195     1.0000 0.36977  0.37561  0.20673  Biso   1.000  C
  C196     1.0000 0.39434  0.16812  0.22975  Biso   1.000  C
  H146     1.0000 0.48623  0.16161  0.26460  Biso   1.000  H
  C197     1.0000 0.34981  0.24966  0.20787  Biso   1.000  C
  O17      1.0000 0.32462  0.45578  0.18438  Biso   1.000  O
  H147     1.0000 0.38262  0.08066  0.23099  Biso   1.000  H
  H148     1.0000 0.30713  0.21973  0.19419  Biso   1.000  H
  C198     1.0000 0.34651  0.58406  0.18143  Biso   1.000  C
  C199     1.0000 0.39750  0.61030  0.16194  Biso   1.000  C
  C200     1.0000 0.31321  0.67862  0.19700  Biso   1.000  C
  C201     1.0000 0.42822  0.50603  0.14250  Biso   1.000  C
  C202     1.0000 0.41922  0.73916  0.16074  Biso   1.000  C
  C203     1.0000 0.33703  0.80447  0.19497  Biso   1.000  C
  C204     1.0000 0.25304  0.64606  0.21482  Biso   1.000  C
  C205     1.0000 0.37474  0.42595  0.11764  Biso   1.000  C
  H149     1.0000 0.45664  0.44781  0.15931  Biso   1.000  H
  H150     1.0000 0.46090  0.54665  0.12960  Biso   1.000  H
  H151     1.0000 0.45461  0.76074  0.14839  Biso   1.000  H
  C206     1.0000 0.38945  0.83450  0.17740  Biso   1.000  C
  H152     1.0000 0.31661  0.87036  0.20600  Biso   1.000  H
  C207     1.0000 0.18514  0.59543  0.19188  Biso   1.000  C
  H153     1.0000 0.24092  0.72362  0.22650  Biso   1.000  H
  H154     1.0000 0.27015  0.58154  0.23250  Biso   1.000  H
  C208     1.0000 0.37412  0.29378  0.11945  Biso   1.000  C
  C209     1.0000 0.32601  0.48377  0.09127  Biso   1.000  C
  H155     1.0000 0.40515  0.92002  0.17670  Biso   1.000  H
  C210     1.0000 0.14943  0.48950  0.20180  Biso   1.000  C
  C211     1.0000 0.15328  0.65423  0.16103  Biso   1.000  C
  C212     1.0000 0.32683  0.22148  0.09628  Biso   1.000  C
  H156     1.0000 0.40661  0.25199  0.13689  Biso   1.000  H
  O18      1.0000 0.32201  0.61866  0.09132  Biso   1.000  O
  C213     1.0000 0.27690  0.41497  0.06680  Biso   1.000  C
  H157     1.0000 0.16905  0.44558  0.22219  Biso   1.000  H
  C214     1.0000 0.08485  0.44810  0.18184  Biso   1.000  C
  O19      1.0000 0.18692  0.75792  0.14893  Biso   1.000  O
  C215     1.0000 0.08979  0.61127  0.14003  Biso   1.000  C
  C216     1.0000 0.27850  0.28192  0.06986  Biso   1.000  C
  H158     1.0000 0.32690  0.13139  0.09820  Biso   1.000  H
  C217     1.0000 0.35655  0.68931  0.07077  Biso   1.000  C
  C218     1.0000 0.22649  0.48115  0.03768  Biso   1.000  C
  H159     1.0000 0.06073  0.37823  0.18931  Biso   1.000  H
  C219     1.0000 0.05634  0.50836  0.15145  Biso   1.000  C
  C220     1.0000 0.17314  0.87794  0.15877  Biso   1.000  C
  C221     1.0000 0.05879  0.67765  0.10619  Biso   1.000  C
  H160     1.0000 0.24679  0.23178  0.05400  Biso   1.000  H
  N18      1.0000 0.39244  0.63120  0.05040  Biso   1.000  N
  C222     1.0000 0.35025  0.82196  0.07336  Biso   1.000  C
  C223     1.0000 0.18582  0.59524  0.04622  Biso   1.000  C
  H161     1.0000 0.25419  0.50826  0.02071  Biso   1.000  H
  H162     1.0000 0.19188  0.41710  0.02650  Biso   1.000  H
  H163     1.0000 0.01303  0.47862  0.13829  Biso   1.000  H
  C224     1.0000 0.20361  0.97619  0.14364  Biso   1.000  C
  N19      1.0000 0.13221  0.89252  0.18223  Biso   1.000  N
  H164     1.0000 0.01579  0.63042  0.09529  Biso   1.000  H
  H165     1.0000 0.04360  0.76414  0.11141  Biso   1.000  H
  C225     1.0000 0.10593  0.69048  0.08029  Biso   1.000  C
  C226     1.0000 0.42443  0.71050  0.03070  Biso   1.000  C
  C227     1.0000 0.38291  0.89767  0.05325  Biso   1.000  C
  H166     1.0000 0.32420  0.85841  0.08860  Biso   1.000  H
  C228     1.0000 0.19212  0.71516  0.03150  Biso   1.000  C
  C229     1.0000 0.14089  0.58610  0.06958  Biso   1.000  C
  H167     1.0000 0.23021  0.95977  0.12669  Biso   1.000  H
  C230     1.0000 0.19400  0.09456  0.15387  Biso   1.000  C
  C231     1.0000 0.12295  0.01701  0.19201  Biso   1.000  C
  C232     1.0000 0.11434  0.80943  0.06480  Biso   1.000  C
  H168     1.0000 0.45052  0.67240  0.01570  Biso   1.000  H
  C233     1.0000 0.42090  0.84198  0.03135  Biso   1.000  C
  H169     1.0000 0.37932  0.98766  0.05439  Biso   1.000  H
  C234     1.0000 0.15629  0.82021  0.04038  Biso   1.000  C
  H170     1.0000 0.22141  0.72430  0.01531  Biso   1.000  H
  O20      1.0000 0.13474  0.46472  0.08465  Biso   1.000  O
  H171     1.0000 0.21520  0.16297  0.14421  Biso   1.000  H
  C235     1.0000 0.15431  0.12167  0.17800  Biso   1.000  C
  H172     1.0000 0.09494  0.03294  0.20849  Biso   1.000  H
  H173     1.0000 0.09111  0.88251  0.07111  Biso   1.000  H
  H174     1.0000 0.44392  0.89242  0.01721  Biso   1.000  H
  H175     1.0000 0.16031  0.89990  0.02979  Biso   1.000  H
  C236     1.0000 0.07756  0.38814  0.07041  Biso   1.000  C
  H176     1.0000 0.14821  0.20661  0.18501  Biso   1.000  H
  N20      1.0000 0.02927  0.43392  0.04484  Biso   1.000  N
  C237     1.0000 0.07460  0.26676  0.08429  Biso   1.000  C
  C238     1.0000 0.97438  0.35559  0.03202  Biso   1.000  C
  C239     1.0000 0.01729  0.19048  0.07061  Biso   1.000  C
  H177     1.0000 0.11043  0.23761  0.10240  Biso   1.000  H
  H178     1.0000 0.93969  0.38620  0.01360  Biso   1.000  H
  C240     1.0000 0.96569  0.23528  0.04394  Biso   1.000  C
  H179     1.0000 0.01330  0.10758  0.07949  Biso   1.000  H
  H180     1.0000 0.92602  0.18474  0.03431  Biso   1.000  H
  C241     1.0000 0.53009  0.65821  0.75321  Biso   1.000  C
  C242     1.0000 0.54492  0.78465  0.75054  Biso   1.000  C
  H181     1.0000 0.48798  0.62614  0.73940  Biso   1.000  H
  N21      1.0000 0.57189  0.57502  0.77449  Biso   1.000  N
  C243     1.0000 0.60581  0.83188  0.77026  Biso   1.000  C
  H182     1.0000 0.51393  0.83839  0.73541  Biso   1.000  H
  C244     1.0000 0.63038  0.62439  0.79328  Biso   1.000  C
  C245     1.0000 0.65034  0.75034  0.79214  Biso   1.000  C
  H183     1.0000 0.61754  0.91934  0.76901  Biso   1.000  H
  O21      1.0000 0.67553  0.54422  0.81562  Biso   1.000  O
  H184     1.0000 0.69302  0.78027  0.80581  Biso   1.000  H
  C246     1.0000 0.65364  0.41594  0.81858  Biso   1.000  C
  C247     1.0000 0.60266  0.38970  0.83807  Biso   1.000  C
  C248     1.0000 0.68694  0.32138  0.80301  Biso   1.000  C
  C249     1.0000 0.57188  0.49397  0.85751  Biso   1.000  C
  C250     1.0000 0.58093  0.26084  0.83926  Biso   1.000  C
  C251     1.0000 0.66313  0.19553  0.80504  Biso   1.000  C
  C252     1.0000 0.74713  0.35394  0.78521  Biso   1.000  C
  C253     1.0000 0.62542  0.57405  0.88237  Biso   1.000  C
  H185     1.0000 0.54352  0.55219  0.84072  Biso   1.000  H
  H186     1.0000 0.53920  0.45335  0.87041  Biso   1.000  H
  H187     1.0000 0.54555  0.23926  0.85162  Biso   1.000  H
  C254     1.0000 0.61071  0.16550  0.82260  Biso   1.000  C
  H188     1.0000 0.68354  0.12964  0.79401  Biso   1.000  H
  C255     1.0000 0.81501  0.40457  0.80812  Biso   1.000  C
  H189     1.0000 0.75923  0.27638  0.77350  Biso   1.000  H
  H190     1.0000 0.73001  0.41846  0.76751  Biso   1.000  H
  C256     1.0000 0.62604  0.70622  0.88058  Biso   1.000  C
  C257     1.0000 0.67416  0.51623  0.90876  Biso   1.000  C
  H191     1.0000 0.59500  0.07998  0.82330  Biso   1.000  H
  C258     1.0000 0.85073  0.51050  0.79821  Biso   1.000  C
  C259     1.0000 0.84687  0.34577  0.83898  Biso   1.000  C
  C260     1.0000 0.67333  0.77852  0.90375  Biso   1.000  C
  H192     1.0000 0.59355  0.74801  0.86311  Biso   1.000  H
  O22      1.0000 0.67815  0.38134  0.90871  Biso   1.000  O
  C261     1.0000 0.72325  0.58503  0.93321  Biso   1.000  C
  H193     1.0000 0.83110  0.55442  0.77781  Biso   1.000  H
  C262     1.0000 0.91531  0.55190  0.81817  Biso   1.000  C
  O23      1.0000 0.81323  0.24208  0.85107  Biso   1.000  O
  C263     1.0000 0.91036  0.38873  0.85997  Biso   1.000  C
  C264     1.0000 0.72165  0.71808  0.93015  Biso   1.000  C
  H194     1.0000 0.67326  0.86861  0.90181  Biso   1.000  H
  C265     1.0000 0.64361  0.31069  0.92926  Biso   1.000  C
  C266     1.0000 0.77366  0.51885  0.96233  Biso   1.000  C
  H195     1.0000 0.93944  0.62177  0.81072  Biso   1.000  H
  C267     1.0000 0.94381  0.49164  0.84856  Biso   1.000  C
  C268     1.0000 0.82702  0.12206  0.84124  Biso   1.000  C
  C269     1.0000 0.94137  0.32235  0.89384  Biso   1.000  C
  H196     1.0000 0.75331  0.76822  0.94600  Biso   1.000  H
  N22      1.0000 0.60772  0.36880  0.94961  Biso   1.000  N
  C270     1.0000 0.64991  0.17804  0.92664  Biso   1.000  C
  C271     1.0000 0.81433  0.40476  0.95379  Biso   1.000  C
  H197     1.0000 0.74598  0.49174  0.97932  Biso   1.000  H
  H198     1.0000 0.80822  0.58290  0.97351  Biso   1.000  H
  H199     1.0000 0.98712  0.52138  0.86171  Biso   1.000  H
  C272     1.0000 0.79654  0.02381  0.85637  Biso   1.000  C
  N23      1.0000 0.86794  0.10748  0.81778  Biso   1.000  N
  H200     1.0000 0.98431  0.36958  0.90471  Biso   1.000  H
  H201     1.0000 0.95656  0.23586  0.88862  Biso   1.000  H
  C273     1.0000 0.89418  0.30952  0.91974  Biso   1.000  C
  C274     1.0000 0.57574  0.28950  0.96933  Biso   1.000  C
  C275     1.0000 0.61724  0.10233  0.94676  Biso   1.000  C
  H202     1.0000 0.67595  0.14159  0.91141  Biso   1.000  H
  C276     1.0000 0.80803  0.28484  0.96850  Biso   1.000  C
  C277     1.0000 0.85921  0.41390  0.93043  Biso   1.000  C
  H203     1.0000 0.76995  0.04023  0.87331  Biso   1.000  H
  C278     1.0000 0.80610  0.90544  0.84614  Biso   1.000  C
  C279     1.0000 0.87721  0.98299  0.80799  Biso   1.000  C
  C280     1.0000 0.88583  0.19057  0.93523  Biso   1.000  C
  H204     1.0000 0.54963  0.32760  0.98431  Biso   1.000  H
  C281     1.0000 0.57925  0.15802  0.96866  Biso   1.000  C
  H205     1.0000 0.62083  0.01234  0.94561  Biso   1.000  H
  C282     1.0000 0.84386  0.17979  0.95963  Biso   1.000  C
  H206     1.0000 0.77875  0.27570  0.98472  Biso   1.000  H
  O24      1.0000 0.86536  0.53528  0.91535  Biso   1.000  O
  H207     1.0000 0.78491  0.83703  0.85582  Biso   1.000  H
  C283     1.0000 0.84585  0.87833  0.82201  Biso   1.000  C
  H208     1.0000 0.90521  0.96706  0.79151  Biso   1.000  H
  H209     1.0000 0.90905  0.11749  0.92890  Biso   1.000  H
  H210     1.0000 0.55624  0.10758  0.98280  Biso   1.000  H
  H211     1.0000 0.83985  0.10010  0.97022  Biso   1.000  H
  C284     1.0000 0.92260  0.61186  0.92960  Biso   1.000  C
  H212     1.0000 0.85189  0.79339  0.81500  Biso   1.000  H
  N24      1.0000 0.97088  0.56608  0.95516  Biso   1.000  N
  C285     1.0000 0.92555  0.73324  0.91572  Biso   1.000  C
  C286     1.0000 0.02572  0.64441  0.96798  Biso   1.000  C
  C287     1.0000 0.98286  0.80952  0.92939  Biso   1.000  C
  H213     1.0000 0.88972  0.76239  0.89760  Biso   1.000  H
  H214     1.0000 0.06047  0.61380  0.98641  Biso   1.000  H
  C288     1.0000 0.03441  0.76472  0.95607  Biso   1.000  C
  H215     1.0000 0.98686  0.89242  0.92052  Biso   1.000  H
  H216     1.0000 0.07415  0.81526  0.96573  Biso   1.000  H
  C289     1.0000 0.62122  0.53732  0.19225  Biso   1.000  C
  N25      1.0000 0.63211  0.66259  0.18267  Biso   1.000  N
  H217     1.0000 0.59215  0.52148  0.20821  Biso   1.000  H
  C290     1.0000 0.65363  0.43197  0.17821  Biso   1.000  C
  C291     1.0000 0.67480  0.67784  0.16028  Biso   1.000  C
  H218     1.0000 0.64680  0.34665  0.18459  Biso   1.000  H
  C292     1.0000 0.69472  0.46142  0.15540  Biso   1.000  C
  O25      1.0000 0.68976  0.79699  0.15085  Biso   1.000  O
  C293     1.0000 0.70670  0.58017  0.14541  Biso   1.000  C
  H219     1.0000 0.71630  0.39310  0.14590  Biso   1.000  H
  C294     1.0000 0.65633  0.90078  0.16282  Biso   1.000  C
  H220     1.0000 0.73514  0.59640  0.12921  Biso   1.000  H
  C295     1.0000 0.68845  0.95986  0.19341  Biso   1.000  C
  C296     1.0000 0.59264  0.94402  0.14185  Biso   1.000  C
  C297     1.0000 0.75642  0.90748  0.21641  Biso   1.000  C
  C298     1.0000 0.65280  0.06599  0.20374  Biso   1.000  C
  C299     1.0000 0.56171  0.87775  0.10806  Biso   1.000  C
  C300     1.0000 0.55975  0.04548  0.15309  Biso   1.000  C
  C301     1.0000 0.81722  0.87493  0.19868  Biso   1.000  C
  H221     1.0000 0.77352  0.97143  0.23431  Biso   1.000  H
  H222     1.0000 0.74391  0.82983  0.22790  Biso   1.000  H
  H223     1.0000 0.67236  0.11011  0.22412  Biso   1.000  H
  C302     1.0000 0.58755  0.10583  0.18332  Biso   1.000  C
  C303     1.0000 0.60835  0.86501  0.08221  Biso   1.000  C
  H224     1.0000 0.54664  0.79116  0.11330  Biso   1.000  H
  H225     1.0000 0.51863  0.92478  0.09721  Biso   1.000  H
  H226     1.0000 0.51660  0.07551  0.13970  Biso   1.000  H
  C304     1.0000 0.84024  0.74908  0.19653  Biso   1.000  C
  C305     1.0000 0.85054  0.96958  0.18277  Biso   1.000  C
  H227     1.0000 0.56272  0.17493  0.19061  Biso   1.000  H
  C306     1.0000 0.61780  0.74645  0.06657  Biso   1.000  C
  C307     1.0000 0.64315  0.97191  0.07139  Biso   1.000  C
  C308     1.0000 0.89270  0.71905  0.17880  Biso   1.000  C
  H228     1.0000 0.81955  0.68319  0.20740  Biso   1.000  H
  C309     1.0000 0.90130  0.94344  0.16326  Biso   1.000  C
  O26      1.0000 0.82808  0.09835  0.18576  Biso   1.000  O
  H229     1.0000 0.59501  0.67269  0.07269  Biso   1.000  H
  C310     1.0000 0.65973  0.73693  0.04248  Biso   1.000  C
  C311     1.0000 0.68786  0.96239  0.04814  Biso   1.000  C
  O27      1.0000 0.63629  0.09271  0.08629  Biso   1.000  O
  C312     1.0000 0.92233  0.81429  0.16204  Biso   1.000  C
  H230     1.0000 0.90840  0.63362  0.17810  Biso   1.000  H
  C313     1.0000 0.93179  0.04733  0.14426  Biso   1.000  C
  C314     1.0000 0.87395  0.17843  0.20795  Biso   1.000  C
  H231     1.0000 0.66463  0.65714  0.03210  Biso   1.000  H
  C315     1.0000 0.69460  0.84295  0.03332  Biso   1.000  C
  C316     1.0000 0.72821  0.07775  0.03932  Biso   1.000  C
  C317     1.0000 0.57898  0.16910  0.07173  Biso   1.000  C
  H232     1.0000 0.95732  0.79252  0.14951  Biso   1.000  H
  C318     1.0000 0.87826  0.12721  0.11943  Biso   1.000  C
  H233     1.0000 0.96474  0.00729  0.13139  Biso   1.000  H
  H234     1.0000 0.95984  0.10544  0.16121  Biso   1.000  H
  C319     1.0000 0.85311  0.30457  0.20912  Biso   1.000  C
  N26      1.0000 0.93227  0.12974  0.22655  Biso   1.000  N
  H235     1.0000 0.72342  0.83460  0.01689  Biso   1.000  H
  H236     1.0000 0.69350  0.14257  0.02881  Biso   1.000  H
  H237     1.0000 0.75509  0.05160  0.02190  Biso   1.000  H
  C320     1.0000 0.77976  0.14062  0.06877  Biso   1.000  C
  C321     1.0000 0.57742  0.29261  0.08465  Biso   1.000  C
  N27      1.0000 0.52953  0.12031  0.04767  Biso   1.000  N
  C322     1.0000 0.87782  0.26025  0.12140  Biso   1.000  C
  C323     1.0000 0.82888  0.07055  0.09278  Biso   1.000  C
  H238     1.0000 0.81001  0.33421  0.19570  Biso   1.000  H
  C324     1.0000 0.89802  0.38533  0.23066  Biso   1.000  C
  C325     1.0000 0.97456  0.21186  0.24763  Biso   1.000  C
  C326     1.0000 0.78171  0.27444  0.07240  Biso   1.000  C
  H239     1.0000 0.61412  0.32342  0.10220  Biso   1.000  H
  C327     1.0000 0.51961  0.36871  0.07067  Biso   1.000  C
  C328     1.0000 0.47413  0.19922  0.03490  Biso   1.000  C
  C329     1.0000 0.83059  0.33353  0.09851  Biso   1.000  C
  H240     1.0000 0.91064  0.30146  0.13889  Biso   1.000  H
  O28      1.0000 0.82546  0.93654  0.09267  Biso   1.000  O
  H241     1.0000 0.88624  0.47269  0.23190  Biso   1.000  H
  C330     1.0000 0.95955  0.33916  0.25025  Biso   1.000  C
  H242     1.0000 0.01682  0.17969  0.26130  Biso   1.000  H
  H243     1.0000 0.74938  0.32527  0.05699  Biso   1.000  H
  H244     1.0000 0.51639  0.45306  0.07861  Biso   1.000  H
  C331     1.0000 0.46702  0.32119  0.04529  Biso   1.000  C
  H245     1.0000 0.43791  0.16638  0.01749  Biso   1.000  H
  H246     1.0000 0.83143  0.42362  0.10051  Biso   1.000  H
  C332     1.0000 0.85734  0.86560  0.07095  Biso   1.000  C
  H247     1.0000 0.99074  0.39349  0.26509  Biso   1.000  H
  H248     1.0000 0.42740  0.37162  0.03540  Biso   1.000  H
  N28      1.0000 0.89081  0.92682  0.04998  Biso   1.000  N
  C333     1.0000 0.85102  0.73304  0.07326  Biso   1.000  C
  C334     1.0000 0.92020  0.84917  0.02860  Biso   1.000  C
  C335     1.0000 0.88039  0.65889  0.05146  Biso   1.000  C
  H249     1.0000 0.82711  0.69553  0.08930  Biso   1.000  H
  H250     1.0000 0.94451  0.88824  0.01300  Biso   1.000  H
  C336     1.0000 0.91581  0.71778  0.02883  Biso   1.000  C
  H251     1.0000 0.87662  0.56880  0.05190  Biso   1.000  H
  H252     1.0000 0.93683  0.66851  0.01370  Biso   1.000  H
  C337     1.0000 0.37893  0.46268  0.80776  Biso   1.000  C
  N29      1.0000 0.36801  0.33741  0.81736  Biso   1.000  N
  H253     1.0000 0.40800  0.47852  0.79180  Biso   1.000  H
  C338     1.0000 0.34652  0.56803  0.82180  Biso   1.000  C
  C339     1.0000 0.32530  0.32216  0.83973  Biso   1.000  C
  C340     1.0000 0.30543  0.53858  0.84461  Biso   1.000  C
  H254     1.0000 0.35330  0.65335  0.81542  Biso   1.000  H
  O29      1.0000 0.31039  0.20301  0.84915  Biso   1.000  O
  C341     1.0000 0.29340  0.41983  0.85460  Biso   1.000  C
  H255     1.0000 0.28385  0.60690  0.85411  Biso   1.000  H
  C342     1.0000 0.34384  0.09922  0.83721  Biso   1.000  C
  H256     1.0000 0.26502  0.40360  0.87082  Biso   1.000  H
  C343     1.0000 0.31170  0.04014  0.80659  Biso   1.000  C
  C344     1.0000 0.40753  0.05598  0.85818  Biso   1.000  C
  C345     1.0000 0.24374  0.09252  0.78360  Biso   1.000  C
  C346     1.0000 0.34730  0.93401  0.79626  Biso   1.000  C
  C347     1.0000 0.43844  0.12225  0.89195  Biso   1.000  C
  C348     1.0000 0.44041  0.95452  0.84692  Biso   1.000  C
  C349     1.0000 0.18294  0.12507  0.80135  Biso   1.000  C
  H257     1.0000 0.22659  0.02857  0.76572  Biso   1.000  H
  H258     1.0000 0.25619  0.17017  0.77210  Biso   1.000  H
  H259     1.0000 0.32780  0.88989  0.77592  Biso   1.000  H
  C350     1.0000 0.41262  0.89417  0.81671  Biso   1.000  C
  C351     1.0000 0.39182  0.13499  0.91782  Biso   1.000  C
  H260     1.0000 0.45351  0.20884  0.88670  Biso   1.000  H
  H261     1.0000 0.48154  0.07522  0.90282  Biso   1.000  H
  H262     1.0000 0.48355  0.92449  0.86031  Biso   1.000  H
  C352     1.0000 0.15993  0.25092  0.80350  Biso   1.000  C
  C353     1.0000 0.14963  0.03042  0.81726  Biso   1.000  C
  H263     1.0000 0.43744  0.82507  0.80942  Biso   1.000  H
  C354     1.0000 0.38236  0.25355  0.93344  Biso   1.000  C
  C355     1.0000 0.35700  0.02809  0.92862  Biso   1.000  C
  C356     1.0000 0.10740  0.28095  0.82120  Biso   1.000  C
  H264     1.0000 0.18061  0.31681  0.79260  Biso   1.000  H
  C357     1.0000 0.09886  0.05656  0.83675  Biso   1.000  C
  O30      1.0000 0.17208  0.90165  0.81425  Biso   1.000  O
  H265     1.0000 0.40514  0.32731  0.92732  Biso   1.000  H
  C358     1.0000 0.34042  0.26307  0.95752  Biso   1.000  C
  C359     1.0000 0.31230  0.03761  0.95189  Biso   1.000  C
  O31      1.0000 0.36382  0.90729  0.91374  Biso   1.000  O
  C360     1.0000 0.07784  0.18571  0.83799  Biso   1.000  C
  H266     1.0000 0.09170  0.36638  0.82190  Biso   1.000  H
  C361     1.0000 0.06837  0.95267  0.85574  Biso   1.000  C
  C362     1.0000 0.12620  0.82157  0.79206  Biso   1.000  C
  H267     1.0000 0.33553  0.34286  0.96791  Biso   1.000  H
  C363     1.0000 0.30555  0.15705  0.96669  Biso   1.000  C
  C364     1.0000 0.27195  0.92225  0.96069  Biso   1.000  C
  C365     1.0000 0.42112  0.83090  0.92828  Biso   1.000  C
  H268     1.0000 0.04284  0.20748  0.85050  Biso   1.000  H
  C366     1.0000 0.12191  0.87279  0.88061  Biso   1.000  C
  H269     1.0000 0.03542  0.99271  0.86862  Biso   1.000  H
  H270     1.0000 0.04033  0.89456  0.83882  Biso   1.000  H
  C367     1.0000 0.14699  0.69543  0.79089  Biso   1.000  C
  N30      1.0000 0.06789  0.87026  0.77345  Biso   1.000  N
  H271     1.0000 0.27673  0.16540  0.98311  Biso   1.000  H
  C368     1.0000 0.22039  0.85938  0.93124  Biso   1.000  C
  H272     1.0000 0.30665  0.85743  0.97120  Biso   1.000  H
  H273     1.0000 0.24502  0.94840  0.97810  Biso   1.000  H
  C369     1.0000 0.42273  0.70739  0.91535  Biso   1.000  C
  N31      1.0000 0.47064  0.87969  0.95236  Biso   1.000  N
  C370     1.0000 0.12234  0.73975  0.87861  Biso   1.000  C
  C371     1.0000 0.17122  0.92945  0.90723  Biso   1.000  C
  H274     1.0000 0.19010  0.66579  0.80431  Biso   1.000  H
  C372     1.0000 0.10213  0.61467  0.76935  Biso   1.000  C
  C373     1.0000 0.02560  0.78814  0.75238  Biso   1.000  C
  C374     1.0000 0.21845  0.72556  0.92760  Biso   1.000  C
  H275     1.0000 0.38604  0.67658  0.89781  Biso   1.000  H
  C375     1.0000 0.48054  0.63129  0.92934  Biso   1.000  C
  C376     1.0000 0.52602  0.80078  0.96510  Biso   1.000  C
  C377     1.0000 0.16952  0.66647  0.90152  Biso   1.000  C
  H276     1.0000 0.08952  0.69854  0.86112  Biso   1.000  H
  O32      1.0000 0.17470  0.06346  0.90734  Biso   1.000  O
  H277     1.0000 0.11391  0.52731  0.76811  Biso   1.000  H
  C378     1.0000 0.04060  0.66084  0.74976  Biso   1.000  C
  H278     1.0000 0.98328  0.82031  0.73870  Biso   1.000  H
  H279     1.0000 0.25072  0.67473  0.94302  Biso   1.000  H
  H280     1.0000 0.48371  0.54694  0.92140  Biso   1.000  H
  C379     1.0000 0.53314  0.67881  0.95472  Biso   1.000  C
  H281     1.0000 0.56224  0.83362  0.98252  Biso   1.000  H
  H282     1.0000 0.16874  0.57638  0.89952  Biso   1.000  H
  C380     1.0000 0.14281  0.13440  0.92906  Biso   1.000  C
  H283     1.0000 0.00942  0.60651  0.73491  Biso   1.000  H
  H284     1.0000 0.57276  0.62838  0.96461  Biso   1.000  H
  N32      1.0000 0.10935  0.07318  0.95005  Biso   1.000  N
  C381     1.0000 0.14914  0.26696  0.92677  Biso   1.000  C
  C382     1.0000 0.07997  0.15083  0.97143  Biso   1.000  C
  C383     1.0000 0.11976  0.34111  0.94855  Biso   1.000  C
  H285     1.0000 0.17305  0.30447  0.91071  Biso   1.000  H
  H286     1.0000 0.05565  0.11176  0.98701  Biso   1.000  H
  C384     1.0000 0.08435  0.28222  0.97118  Biso   1.000  C
  H287     1.0000 0.12354  0.43120  0.94810  Biso   1.000  H
  H288     1.0000 0.06333  0.33149  0.98630  Biso   1.000  H
