data_image0
_cell_length_a       30.448
_cell_length_b       30.448
_cell_length_c       13.754
_cell_angle_alpha    90
_cell_angle_beta     90
_cell_angle_gamma    90

_symmetry_space_group_name_H-M    "P 1"
_symmetry_int_tables_number       1

loop_
  _symmetry_equiv_pos_as_xyz
  'x, y, z'

loop_
  _atom_site_label
  _atom_site_occupancy
  _atom_site_fract_x
  _atom_site_fract_y
  _atom_site_fract_z
  _atom_site_thermal_displace_type
  _atom_site_B_iso_or_equiv
  _atom_site_type_symbol
  C1       1.0000 0.52821  0.44141  0.46496  Biso   1.000  C
  C2       1.0000 0.49540  0.42371  0.40832  Biso   1.000  C
  C3       1.0000 0.53061  0.43862  0.56747  Biso   1.000  C
  C4       1.0000 0.56132  0.47379  0.41101  Biso   1.000  C
  C5       1.0000 0.46341  0.39861  0.46466  Biso   1.000  C
  H1       1.0000 0.49369  0.42752  0.33983  Biso   1.000  H
  C6       1.0000 0.50292  0.41339  0.61030  Biso   1.000  C
  H2       1.0000 0.55179  0.45471  0.60317  Biso   1.000  H
  H3       1.0000 0.58322  0.48450  0.45739  Biso   1.000  H
  H4       1.0000 0.57610  0.45809  0.35822  Biso   1.000  H
  H5       1.0000 0.54490  0.49882  0.38432  Biso   1.000  H
  C7       1.0000 0.42689  0.37539  0.41021  Biso   1.000  C
  C8       1.0000 0.46850  0.39402  0.56616  Biso   1.000  C
  C9       1.0000 0.51051  0.40272  0.71928  Biso   1.000  C
  H6       1.0000 0.42880  0.38272  0.34092  Biso   1.000  H
  H7       1.0000 0.42991  0.34360  0.41879  Biso   1.000  H
  H8       1.0000 0.39842  0.38512  0.43566  Biso   1.000  H
  C10      1.0000 0.43392  0.36889  0.62127  Biso   1.000  C
  H9       1.0000 0.48699  0.38331  0.74255  Biso   1.000  H
  H10      1.0000 0.53892  0.38810  0.72721  Biso   1.000  H
  H11      1.0000 0.51021  0.43001  0.75709  Biso   1.000  H
  C11      1.0000 0.43349  0.32551  0.65079  Biso   1.000  C
  C12      1.0000 0.39319  0.38810  0.64977  Biso   1.000  C
  C13      1.0000 0.46341  0.29089  0.62382  Biso   1.000  C
  C14      1.0000 0.39559  0.31700  0.70641  Biso   1.000  C
  C15      1.0000 0.36722  0.35661  0.70278  Biso   1.000  C
  C16      1.0000 0.37152  0.42830  0.62760  Biso   1.000  C
  H12      1.0000 0.49041  0.29601  0.59110  Biso   1.000  H
  C17      1.0000 0.44831  0.24790  0.65116  Biso   1.000  C
  C18      1.0000 0.38439  0.27269  0.73150  Biso   1.000  C
  C19      1.0000 0.32692  0.36081  0.73157  Biso   1.000  C
  H13      1.0000 0.38722  0.45120  0.59590  Biso   1.000  H
  C20      1.0000 0.32771  0.43451  0.65166  Biso   1.000  C
  C21      1.0000 0.46581  0.20569  0.62142  Biso   1.000  C
  C22      1.0000 0.40840  0.24031  0.70241  Biso   1.000  C
  H14      1.0000 0.35901  0.26721  0.76981  Biso   1.000  H
  C23      1.0000 0.30429  0.39921  0.70721  Biso   1.000  C
  H15      1.0000 0.31299  0.33841  0.76829  Biso   1.000  H
  C24      1.0000 0.29431  0.46581  0.62142  Biso   1.000  C
  C25      1.0000 0.43451  0.17229  0.65166  Biso   1.000  C
  C26      1.0000 0.50542  0.19610  0.56325  Biso   1.000  C
  C27      1.0000 0.39921  0.19571  0.70721  Biso   1.000  C
  C28      1.0000 0.25969  0.40840  0.70241  Biso   1.000  C
  C29      1.0000 0.25210  0.44831  0.65116  Biso   1.000  C
  C30      1.0000 0.30390  0.50542  0.56325  Biso   1.000  C
  C31      1.0000 0.42830  0.12851  0.62760  Biso   1.000  C
  C32      1.0000 0.54299  0.18359  0.61611  Biso   1.000  C
  C33      1.0000 0.50709  0.19719  0.46190  Biso   1.000  C
  C34      1.0000 0.36081  0.17311  0.73157  Biso   1.000  C
  C35      1.0000 0.22731  0.38439  0.73150  Biso   1.000  C
  C36      1.0000 0.20911  0.46341  0.62382  Biso   1.000  C
  C37      1.0000 0.31641  0.54299  0.61611  Biso   1.000  C
  C38      1.0000 0.30281  0.50709  0.46190  Biso   1.000  C
  C39      1.0000 0.38810  0.10681  0.64977  Biso   1.000  C
  H16      1.0000 0.45120  0.11282  0.59590  Biso   1.000  H
  C40      1.0000 0.58382  0.17709  0.56369  Biso   1.000  C
  C41      1.0000 0.54450  0.18011  0.72379  Biso   1.000  C
  C42      1.0000 0.54122  0.18950  0.40977  Biso   1.000  C
  C43      1.0000 0.46410  0.20221  0.41297  Biso   1.000  C
  C44      1.0000 0.35661  0.13282  0.70278  Biso   1.000  C
  H17      1.0000 0.33841  0.18701  0.76829  Biso   1.000  H
  C45      1.0000 0.18300  0.39559  0.70641  Biso   1.000  C
  H18      1.0000 0.23279  0.35901  0.76981  Biso   1.000  H
  H19      1.0000 0.20399  0.49041  0.59110  Biso   1.000  H
  C46      1.0000 0.17449  0.43349  0.65079  Biso   1.000  C
  C47      1.0000 0.32291  0.58382  0.56369  Biso   1.000  C
  C48      1.0000 0.31989  0.54450  0.72379  Biso   1.000  C
  C49      1.0000 0.31050  0.54122  0.40977  Biso   1.000  C
  C50      1.0000 0.29782  0.46410  0.41297  Biso   1.000  C
  C51      1.0000 0.36889  0.06611  0.62127  Biso   1.000  C
  H20      1.0000 0.61121  0.17420  0.59641  Biso   1.000  H
  C52      1.0000 0.58069  0.17541  0.46641  Biso   1.000  C
  H21      1.0000 0.57390  0.17091  0.74429  Biso   1.000  H
  H22      1.0000 0.53761  0.20872  0.75258  Biso   1.000  H
  H23      1.0000 0.52289  0.15840  0.74560  Biso   1.000  H
  H24      1.0000 0.54132  0.19259  0.34106  Biso   1.000  H
  H25      1.0000 0.44131  0.20780  0.46176  Biso   1.000  H
  H26      1.0000 0.46542  0.22681  0.36731  Biso   1.000  H
  H27      1.0000 0.45701  0.17512  0.37756  Biso   1.000  H
  C53      1.0000 0.31700  0.10441  0.70641  Biso   1.000  C
  C54      1.0000 0.14339  0.36722  0.70278  Biso   1.000  C
  C55      1.0000 0.13111  0.43392  0.62127  Biso   1.000  C
  H28      1.0000 0.32580  0.61121  0.59641  Biso   1.000  H
  C56      1.0000 0.32462  0.58069  0.46641  Biso   1.000  C
  H29      1.0000 0.32912  0.57390  0.74429  Biso   1.000  H
  H30      1.0000 0.29132  0.53761  0.75258  Biso   1.000  H
  H31      1.0000 0.34160  0.52289  0.74560  Biso   1.000  H
  H32      1.0000 0.30741  0.54132  0.34106  Biso   1.000  H
  H33      1.0000 0.29220  0.44131  0.46176  Biso   1.000  H
  H34      1.0000 0.27322  0.46542  0.36731  Biso   1.000  H
  H35      1.0000 0.32491  0.45701  0.37756  Biso   1.000  H
  C57      1.0000 0.32551  0.06651  0.65079  Biso   1.000  C
  C58      1.0000 0.39402  0.03150  0.56616  Biso   1.000  C
  C59      1.0000 0.62802  0.16270  0.40672  Biso   1.000  C
  C60      1.0000 0.27269  0.11561  0.73150  Biso   1.000  C
  C61      1.0000 0.11190  0.39319  0.64977  Biso   1.000  C
  C62      1.0000 0.13919  0.32692  0.73157  Biso   1.000  C
  C63      1.0000 0.10602  0.46850  0.56616  Biso   1.000  C
  C64      1.0000 0.33730  0.62802  0.40672  Biso   1.000  C
  C65      1.0000 0.29089  0.03659  0.62382  Biso   1.000  C
  C66      1.0000 0.39861  0.03659  0.46466  Biso   1.000  C
  C67      1.0000 0.41339  0.99711  0.61030  Biso   1.000  C
  H36      1.0000 0.62250  0.16231  0.33648  Biso   1.000  H
  H37      1.0000 0.65042  0.18481  0.42148  Biso   1.000  H
  H38      1.0000 0.63830  0.13380  0.42766  Biso   1.000  H
  C68      1.0000 0.24031  0.09160  0.70241  Biso   1.000  C
  H39      1.0000 0.26721  0.14099  0.76981  Biso   1.000  H
  C69      1.0000 0.07170  0.37152  0.62760  Biso   1.000  C
  C70      1.0000 0.10079  0.30429  0.70721  Biso   1.000  C
  H40      1.0000 0.16159  0.31299  0.76829  Biso   1.000  H
  C71      1.0000 0.08661  0.50292  0.61030  Biso   1.000  C
  C72      1.0000 0.10139  0.46341  0.46466  Biso   1.000  C
  H41      1.0000 0.33769  0.62250  0.33648  Biso   1.000  H
  H42      1.0000 0.31519  0.65042  0.42148  Biso   1.000  H
  H43      1.0000 0.36620  0.63830  0.42766  Biso   1.000  H
  H44      1.0000 0.29601  0.00959  0.59110  Biso   1.000  H
  C73      1.0000 0.24790  0.05169  0.65116  Biso   1.000  C
  C74      1.0000 0.42371  0.00460  0.40832  Biso   1.000  C
  C75      1.0000 0.37539  0.07311  0.41021  Biso   1.000  C
  C76      1.0000 0.43862  0.96942  0.56747  Biso   1.000  C
  C77      1.0000 0.40272  0.98952  0.71928  Biso   1.000  C
  C78      1.0000 0.19571  0.10079  0.70721  Biso   1.000  C
  H45      1.0000 0.04880  0.38722  0.59590  Biso   1.000  H
  C79      1.0000 0.06549  0.32771  0.65166  Biso   1.000  C
  C80      1.0000 0.09160  0.25969  0.70241  Biso   1.000  C
  C81      1.0000 0.06142  0.53061  0.56747  Biso   1.000  C
  C82      1.0000 0.09731  0.51051  0.71928  Biso   1.000  C
  C83      1.0000 0.07629  0.49540  0.40832  Biso   1.000  C
  C84      1.0000 0.12461  0.42689  0.41021  Biso   1.000  C
  C85      1.0000 0.20569  0.03419  0.62142  Biso   1.000  C
  H46      1.0000 0.42752  0.00631  0.33983  Biso   1.000  H
  C86      1.0000 0.44141  0.97182  0.46496  Biso   1.000  C
  H47      1.0000 0.38272  0.07120  0.34092  Biso   1.000  H
  H48      1.0000 0.34360  0.07009  0.41879  Biso   1.000  H
  H49      1.0000 0.38512  0.10162  0.43566  Biso   1.000  H
  H50      1.0000 0.45471  0.94821  0.60317  Biso   1.000  H
  H51      1.0000 0.38331  0.01301  0.74255  Biso   1.000  H
  H52      1.0000 0.38810  0.96111  0.72721  Biso   1.000  H
  H53      1.0000 0.43001  0.98982  0.75709  Biso   1.000  H
  C87      1.0000 0.17229  0.06549  0.65166  Biso   1.000  C
  C88      1.0000 0.17311  0.13919  0.73157  Biso   1.000  C
  C89      1.0000 0.03419  0.29431  0.62142  Biso   1.000  C
  C90      1.0000 0.05169  0.25210  0.65116  Biso   1.000  C
  C91      1.0000 0.11561  0.22731  0.73150  Biso   1.000  C
  H54      1.0000 0.04529  0.55179  0.60317  Biso   1.000  H
  C92      1.0000 0.05859  0.52821  0.46496  Biso   1.000  C
  H55      1.0000 0.11669  0.48699  0.74255  Biso   1.000  H
  H56      1.0000 0.11190  0.53892  0.72721  Biso   1.000  H
  H57      1.0000 0.06999  0.51021  0.75709  Biso   1.000  H
  H58      1.0000 0.07252  0.49369  0.33983  Biso   1.000  H
  H59      1.0000 0.11731  0.42880  0.34092  Biso   1.000  H
  H60      1.0000 0.15640  0.42991  0.41879  Biso   1.000  H
  H61      1.0000 0.11492  0.39842  0.43566  Biso   1.000  H
  C93      1.0000 0.19610  0.99461  0.56325  Biso   1.000  C
  C94      1.0000 0.47379  0.93872  0.41101  Biso   1.000  C
  C95      1.0000 0.12851  0.07170  0.62760  Biso   1.000  C
  C96      1.0000 0.13282  0.14339  0.70278  Biso   1.000  C
  H62      1.0000 0.18701  0.16159  0.76829  Biso   1.000  H
  C97      1.0000 0.99461  0.30390  0.56325  Biso   1.000  C
  C98      1.0000 0.03659  0.20911  0.62382  Biso   1.000  C
  C99      1.0000 0.10441  0.18300  0.70641  Biso   1.000  C
  H63      1.0000 0.14099  0.23279  0.76981  Biso   1.000  H
  C100     1.0000 0.02621  0.56132  0.41101  Biso   1.000  C
  C101     1.0000 0.18359  0.95701  0.61611  Biso   1.000  C
  C102     1.0000 0.19719  0.99291  0.46190  Biso   1.000  C
  H64      1.0000 0.48450  0.91681  0.45739  Biso   1.000  H
  H65      1.0000 0.45809  0.92390  0.35822  Biso   1.000  H
  H66      1.0000 0.49882  0.95510  0.38432  Biso   1.000  H
  C103     1.0000 0.10681  0.11190  0.64977  Biso   1.000  C
  H67      1.0000 0.11282  0.04880  0.59590  Biso   1.000  H
  C104     1.0000 0.95701  0.31641  0.61611  Biso   1.000  C
  C105     1.0000 0.99291  0.30281  0.46190  Biso   1.000  C
  H68      1.0000 0.00959  0.20399  0.59110  Biso   1.000  H
  C106     1.0000 0.06651  0.17449  0.65079  Biso   1.000  C
  H69      1.0000 0.01550  0.58322  0.45739  Biso   1.000  H
  H70      1.0000 0.04191  0.57610  0.35822  Biso   1.000  H
  H71      1.0000 0.00122  0.54490  0.38432  Biso   1.000  H
  C107     1.0000 0.17709  0.91622  0.56369  Biso   1.000  C
  C108     1.0000 0.18011  0.95550  0.72379  Biso   1.000  C
  C109     1.0000 0.20221  0.03590  0.41297  Biso   1.000  C
  C110     1.0000 0.18950  0.95882  0.40977  Biso   1.000  C
  C111     1.0000 0.06611  0.13111  0.62127  Biso   1.000  C
  C112     1.0000 0.91622  0.32291  0.56369  Biso   1.000  C
  C113     1.0000 0.95550  0.31989  0.72379  Biso   1.000  C
  C114     1.0000 0.03590  0.29782  0.41297  Biso   1.000  C
  C115     1.0000 0.95882  0.31050  0.40977  Biso   1.000  C
  H72      1.0000 0.17420  0.88883  0.59641  Biso   1.000  H
  C116     1.0000 0.17541  0.91931  0.46641  Biso   1.000  C
  H73      1.0000 0.17091  0.92610  0.74429  Biso   1.000  H
  H74      1.0000 0.20872  0.96243  0.75258  Biso   1.000  H
  H75      1.0000 0.15840  0.97711  0.74560  Biso   1.000  H
  H76      1.0000 0.20780  0.05869  0.46176  Biso   1.000  H
  H77      1.0000 0.22681  0.03462  0.36731  Biso   1.000  H
  H78      1.0000 0.17512  0.04299  0.37756  Biso   1.000  H
  H79      1.0000 0.19259  0.95872  0.34106  Biso   1.000  H
  C117     1.0000 0.03150  0.10602  0.56616  Biso   1.000  C
  H80      1.0000 0.88883  0.32580  0.59641  Biso   1.000  H
  C118     1.0000 0.91931  0.32462  0.46641  Biso   1.000  C
  H81      1.0000 0.92610  0.32912  0.74429  Biso   1.000  H
  H82      1.0000 0.96243  0.29132  0.75258  Biso   1.000  H
  H83      1.0000 0.97711  0.34160  0.74560  Biso   1.000  H
  H84      1.0000 0.05869  0.29220  0.46176  Biso   1.000  H
  H85      1.0000 0.03462  0.27322  0.36731  Biso   1.000  H
  H86      1.0000 0.04299  0.32491  0.37756  Biso   1.000  H
  H87      1.0000 0.95872  0.30741  0.34106  Biso   1.000  H
  C119     1.0000 0.16270  0.87201  0.40672  Biso   1.000  C
  C120     1.0000 0.03659  0.10139  0.46466  Biso   1.000  C
  C121     1.0000 0.99711  0.08661  0.61030  Biso   1.000  C
  C122     1.0000 0.87201  0.33730  0.40672  Biso   1.000  C
  H88      1.0000 0.16231  0.87750  0.33648  Biso   1.000  H
  H89      1.0000 0.18481  0.84961  0.42148  Biso   1.000  H
  H90      1.0000 0.13380  0.86170  0.42766  Biso   1.000  H
  C123     1.0000 0.00460  0.07629  0.40832  Biso   1.000  C
  C124     1.0000 0.07311  0.12461  0.41021  Biso   1.000  C
  C125     1.0000 0.96942  0.06142  0.56747  Biso   1.000  C
  C126     1.0000 0.98952  0.09731  0.71928  Biso   1.000  C
  H91      1.0000 0.87750  0.33769  0.33648  Biso   1.000  H
  H92      1.0000 0.84961  0.31519  0.42148  Biso   1.000  H
  H93      1.0000 0.86170  0.36620  0.42766  Biso   1.000  H
  H94      1.0000 0.00631  0.07252  0.33983  Biso   1.000  H
  C127     1.0000 0.97182  0.05859  0.46496  Biso   1.000  C
  H95      1.0000 0.07120  0.11731  0.34092  Biso   1.000  H
  H96      1.0000 0.07009  0.15640  0.41879  Biso   1.000  H
  H97      1.0000 0.10162  0.11492  0.43566  Biso   1.000  H
  H98      1.0000 0.94821  0.04529  0.60317  Biso   1.000  H
  H99      1.0000 0.01301  0.11669  0.74255  Biso   1.000  H
  H100     1.0000 0.96111  0.11190  0.72721  Biso   1.000  H
  H101     1.0000 0.98982  0.06999  0.75709  Biso   1.000  H
  C128     1.0000 0.93872  0.02621  0.41101  Biso   1.000  C
  H102     1.0000 0.91681  0.01550  0.45739  Biso   1.000  H
  H103     1.0000 0.92390  0.04191  0.35822  Biso   1.000  H
  H104     1.0000 0.95510  0.00122  0.38432  Biso   1.000  H
  C129     1.0000 0.47182  0.55859  0.53497  Biso   1.000  C
  C130     1.0000 0.43872  0.52621  0.58899  Biso   1.000  C
  C131     1.0000 0.46939  0.56142  0.43246  Biso   1.000  C
  C132     1.0000 0.50460  0.57629  0.59168  Biso   1.000  C
  H105     1.0000 0.41681  0.51550  0.54261  Biso   1.000  H
  H106     1.0000 0.42390  0.54191  0.64178  Biso   1.000  H
  H107     1.0000 0.45510  0.50122  0.61568  Biso   1.000  H
  C133     1.0000 0.49711  0.58661  0.38970  Biso   1.000  C
  H108     1.0000 0.44821  0.54532  0.39676  Biso   1.000  H
  H109     1.0000 0.50631  0.57252  0.66017  Biso   1.000  H
  C134     1.0000 0.53662  0.60142  0.53526  Biso   1.000  C
  C135     1.0000 0.53150  0.60602  0.43376  Biso   1.000  C
  C136     1.0000 0.48949  0.59731  0.28072  Biso   1.000  C
  C137     1.0000 0.57311  0.62461  0.58979  Biso   1.000  C
  C138     1.0000 0.56611  0.63111  0.37873  Biso   1.000  C
  H110     1.0000 0.51301  0.61672  0.25738  Biso   1.000  H
  H111     1.0000 0.46111  0.61190  0.27279  Biso   1.000  H
  H112     1.0000 0.48982  0.57002  0.24291  Biso   1.000  H
  H113     1.0000 0.57120  0.61731  0.65908  Biso   1.000  H
  H114     1.0000 0.57012  0.65640  0.58121  Biso   1.000  H
  H115     1.0000 0.60162  0.61492  0.56427  Biso   1.000  H
  C139     1.0000 0.56651  0.67449  0.34921  Biso   1.000  C
  C140     1.0000 0.60681  0.61190  0.35023  Biso   1.000  C
  C141     1.0000 0.53662  0.70911  0.37618  Biso   1.000  C
  C142     1.0000 0.60441  0.68300  0.29359  Biso   1.000  C
  C143     1.0000 0.63282  0.64342  0.29722  Biso   1.000  C
  C144     1.0000 0.62851  0.57170  0.37240  Biso   1.000  C
  H116     1.0000 0.50962  0.70402  0.40890  Biso   1.000  H
  C145     1.0000 0.55169  0.75210  0.34877  Biso   1.000  C
  C146     1.0000 0.61561  0.72731  0.26850  Biso   1.000  C
  C147     1.0000 0.67311  0.63922  0.26836  Biso   1.000  C
  H117     1.0000 0.61282  0.54880  0.40410  Biso   1.000  H
  C148     1.0000 0.67229  0.56552  0.34826  Biso   1.000  C
  C149     1.0000 0.53422  0.79431  0.37858  Biso   1.000  C
  C150     1.0000 0.59160  0.75972  0.29759  Biso   1.000  C
  H118     1.0000 0.64099  0.73282  0.23019  Biso   1.000  H
  C151     1.0000 0.69571  0.60079  0.29279  Biso   1.000  C
  H119     1.0000 0.68701  0.66162  0.23171  Biso   1.000  H
  C152     1.0000 0.70569  0.53422  0.37858  Biso   1.000  C
  C153     1.0000 0.56552  0.82771  0.34826  Biso   1.000  C
  C154     1.0000 0.49461  0.80390  0.43667  Biso   1.000  C
  C155     1.0000 0.60079  0.80432  0.29279  Biso   1.000  C
  C156     1.0000 0.74031  0.59160  0.29759  Biso   1.000  C
  C157     1.0000 0.74790  0.55169  0.34877  Biso   1.000  C
  C158     1.0000 0.69610  0.49461  0.43667  Biso   1.000  C
  C159     1.0000 0.57170  0.87152  0.37240  Biso   1.000  C
  C160     1.0000 0.45701  0.81641  0.38389  Biso   1.000  C
  C161     1.0000 0.49291  0.80281  0.53810  Biso   1.000  C
  C162     1.0000 0.63922  0.82692  0.26836  Biso   1.000  C
  C163     1.0000 0.77269  0.61561  0.26850  Biso   1.000  C
  C164     1.0000 0.79092  0.53662  0.37618  Biso   1.000  C
  C165     1.0000 0.68362  0.45701  0.38389  Biso   1.000  C
  C166     1.0000 0.69722  0.49291  0.53810  Biso   1.000  C
  C167     1.0000 0.61190  0.89323  0.35023  Biso   1.000  C
  H120     1.0000 0.54880  0.88722  0.40410  Biso   1.000  H
  C168     1.0000 0.41622  0.82291  0.43631  Biso   1.000  C
  C169     1.0000 0.45550  0.81992  0.27621  Biso   1.000  C
  C170     1.0000 0.45882  0.81050  0.59016  Biso   1.000  C
  C171     1.0000 0.53590  0.79782  0.58696  Biso   1.000  C
  C172     1.0000 0.64342  0.86722  0.29722  Biso   1.000  C
  H121     1.0000 0.66162  0.81303  0.23171  Biso   1.000  H
  C173     1.0000 0.81700  0.60441  0.29359  Biso   1.000  C
  H122     1.0000 0.76721  0.64099  0.23019  Biso   1.000  H
  H123     1.0000 0.79601  0.50962  0.40890  Biso   1.000  H
  C174     1.0000 0.82551  0.56651  0.34921  Biso   1.000  C
  C175     1.0000 0.67712  0.41622  0.43631  Biso   1.000  C
  C176     1.0000 0.68011  0.45550  0.27621  Biso   1.000  C
  C177     1.0000 0.68950  0.45882  0.59016  Biso   1.000  C
  C178     1.0000 0.70221  0.53590  0.58696  Biso   1.000  C
  C179     1.0000 0.63111  0.93392  0.37873  Biso   1.000  C
  H124     1.0000 0.38879  0.82580  0.40359  Biso   1.000  H
  C180     1.0000 0.41931  0.82462  0.53359  Biso   1.000  C
  H125     1.0000 0.42610  0.82912  0.25571  Biso   1.000  H
  H126     1.0000 0.46239  0.79132  0.24742  Biso   1.000  H
  H127     1.0000 0.47711  0.84160  0.25440  Biso   1.000  H
  H128     1.0000 0.45872  0.80741  0.65886  Biso   1.000  H
  H129     1.0000 0.55872  0.79220  0.53817  Biso   1.000  H
  H130     1.0000 0.53462  0.77322  0.63269  Biso   1.000  H
  H131     1.0000 0.54299  0.82491  0.62236  Biso   1.000  H
  C181     1.0000 0.68300  0.89563  0.29359  Biso   1.000  C
  C182     1.0000 0.85661  0.63282  0.29722  Biso   1.000  C
  C183     1.0000 0.86892  0.56611  0.37873  Biso   1.000  C
  H132     1.0000 0.67420  0.38879  0.40359  Biso   1.000  H
  C184     1.0000 0.67541  0.41931  0.53359  Biso   1.000  C
  H133     1.0000 0.67091  0.42610  0.25571  Biso   1.000  H
  H134     1.0000 0.70872  0.46239  0.24742  Biso   1.000  H
  H135     1.0000 0.65840  0.47711  0.25440  Biso   1.000  H
  H136     1.0000 0.69262  0.45872  0.65886  Biso   1.000  H
  H137     1.0000 0.70780  0.55872  0.53817  Biso   1.000  H
  H138     1.0000 0.72681  0.53462  0.63269  Biso   1.000  H
  H139     1.0000 0.67512  0.54299  0.62236  Biso   1.000  H
  C185     1.0000 0.67449  0.93353  0.34921  Biso   1.000  C
  C186     1.0000 0.60602  0.96850  0.43376  Biso   1.000  C
  C187     1.0000 0.37201  0.83730  0.59328  Biso   1.000  C
  C188     1.0000 0.72731  0.88443  0.26850  Biso   1.000  C
  C189     1.0000 0.88810  0.60681  0.35023  Biso   1.000  C
  C190     1.0000 0.86081  0.67311  0.26836  Biso   1.000  C
  C191     1.0000 0.89402  0.53150  0.43376  Biso   1.000  C
  C192     1.0000 0.66270  0.37201  0.59328  Biso   1.000  C
  C193     1.0000 0.70911  0.96341  0.37618  Biso   1.000  C
  C194     1.0000 0.60142  0.96341  0.53526  Biso   1.000  C
  C195     1.0000 0.58661  0.00289  0.38970  Biso   1.000  C
  H140     1.0000 0.37750  0.83772  0.66352  Biso   1.000  H
  H141     1.0000 0.34961  0.81523  0.57852  Biso   1.000  H
  H142     1.0000 0.36170  0.86620  0.57227  Biso   1.000  H
  C196     1.0000 0.75972  0.90840  0.29759  Biso   1.000  C
  H143     1.0000 0.73282  0.85901  0.23019  Biso   1.000  H
  C197     1.0000 0.92830  0.62851  0.37240  Biso   1.000  C
  C198     1.0000 0.89921  0.69571  0.29279  Biso   1.000  C
  H144     1.0000 0.83841  0.68701  0.23171  Biso   1.000  H
  C199     1.0000 0.91343  0.49711  0.38970  Biso   1.000  C
  C200     1.0000 0.89861  0.53662  0.53526  Biso   1.000  C
  H145     1.0000 0.66231  0.37750  0.66352  Biso   1.000  H
  H146     1.0000 0.68481  0.34961  0.57852  Biso   1.000  H
  H147     1.0000 0.63380  0.36170  0.57227  Biso   1.000  H
  H148     1.0000 0.70402  0.99041  0.40890  Biso   1.000  H
  C201     1.0000 0.75210  0.94831  0.34877  Biso   1.000  C
  C202     1.0000 0.57629  0.99540  0.59168  Biso   1.000  C
  C203     1.0000 0.62461  0.92692  0.58979  Biso   1.000  C
  C204     1.0000 0.56142  0.03061  0.43246  Biso   1.000  C
  C205     1.0000 0.59731  0.01051  0.28072  Biso   1.000  C
  C206     1.0000 0.80432  0.89921  0.29279  Biso   1.000  C
  H149     1.0000 0.95123  0.61282  0.40410  Biso   1.000  H
  C207     1.0000 0.93451  0.67229  0.34826  Biso   1.000  C
  C208     1.0000 0.90840  0.74031  0.29759  Biso   1.000  C
  C209     1.0000 0.93862  0.46939  0.43246  Biso   1.000  C
  C210     1.0000 0.90272  0.48949  0.28072  Biso   1.000  C
  C211     1.0000 0.92371  0.50460  0.59168  Biso   1.000  C
  C212     1.0000 0.87543  0.57311  0.58979  Biso   1.000  C
  C213     1.0000 0.79431  0.96581  0.37858  Biso   1.000  C
  H150     1.0000 0.57252  0.99373  0.66017  Biso   1.000  H
  C214     1.0000 0.55859  0.02821  0.53497  Biso   1.000  C
  H151     1.0000 0.61731  0.92880  0.65908  Biso   1.000  H
  H152     1.0000 0.65640  0.92991  0.58121  Biso   1.000  H
  H153     1.0000 0.61492  0.89842  0.56427  Biso   1.000  H
  H154     1.0000 0.54532  0.05179  0.39676  Biso   1.000  H
  H155     1.0000 0.61672  0.98703  0.25738  Biso   1.000  H
  H156     1.0000 0.61190  0.03889  0.27279  Biso   1.000  H
  H157     1.0000 0.57002  0.01021  0.24291  Biso   1.000  H
  C215     1.0000 0.82771  0.93451  0.34826  Biso   1.000  C
  C216     1.0000 0.82692  0.86081  0.26836  Biso   1.000  C
  C217     1.0000 0.96581  0.70569  0.37858  Biso   1.000  C
  C218     1.0000 0.94831  0.74790  0.34877  Biso   1.000  C
  C219     1.0000 0.88443  0.77269  0.26850  Biso   1.000  C
  H158     1.0000 0.95471  0.44821  0.39676  Biso   1.000  H
  C220     1.0000 0.94141  0.47182  0.53497  Biso   1.000  C
  H159     1.0000 0.88331  0.51301  0.25738  Biso   1.000  H
  H160     1.0000 0.88810  0.46111  0.27279  Biso   1.000  H
  H161     1.0000 0.93001  0.48982  0.24291  Biso   1.000  H
  H162     1.0000 0.92752  0.50631  0.66017  Biso   1.000  H
  H163     1.0000 0.88272  0.57120  0.65908  Biso   1.000  H
  H164     1.0000 0.84360  0.57012  0.58121  Biso   1.000  H
  H165     1.0000 0.88512  0.60162  0.56427  Biso   1.000  H
  C221     1.0000 0.80390  0.00539  0.43667  Biso   1.000  C
  C222     1.0000 0.52621  0.06128  0.58899  Biso   1.000  C
  C223     1.0000 0.87152  0.92830  0.37240  Biso   1.000  C
  C224     1.0000 0.86722  0.85661  0.29722  Biso   1.000  C
  H166     1.0000 0.81303  0.83841  0.23171  Biso   1.000  H
  C225     1.0000 0.00539  0.69610  0.43667  Biso   1.000  C
  C226     1.0000 0.96341  0.79092  0.37618  Biso   1.000  C
  C227     1.0000 0.89563  0.81700  0.29359  Biso   1.000  C
  H167     1.0000 0.85901  0.76721  0.23019  Biso   1.000  H
  C228     1.0000 0.97382  0.43872  0.58899  Biso   1.000  C
  C229     1.0000 0.81641  0.04299  0.38389  Biso   1.000  C
  C230     1.0000 0.80281  0.00709  0.53810  Biso   1.000  C
  H168     1.0000 0.51550  0.08319  0.54261  Biso   1.000  H
  H169     1.0000 0.54191  0.07610  0.64178  Biso   1.000  H
  H170     1.0000 0.50122  0.04490  0.61568  Biso   1.000  H
  C231     1.0000 0.89323  0.88810  0.35023  Biso   1.000  C
  H171     1.0000 0.88722  0.95123  0.40410  Biso   1.000  H
  C232     1.0000 0.04299  0.68362  0.38389  Biso   1.000  C
  C233     1.0000 0.00709  0.69722  0.53810  Biso   1.000  C
  H172     1.0000 0.99041  0.79601  0.40890  Biso   1.000  H
  C234     1.0000 0.93353  0.82551  0.34921  Biso   1.000  C
  H173     1.0000 0.98450  0.41681  0.54261  Biso   1.000  H
  H174     1.0000 0.95813  0.42390  0.64178  Biso   1.000  H
  H175     1.0000 0.99882  0.45510  0.61568  Biso   1.000  H
  C235     1.0000 0.82291  0.08382  0.43631  Biso   1.000  C
  C236     1.0000 0.81992  0.04450  0.27621  Biso   1.000  C
  C237     1.0000 0.79782  0.96410  0.58696  Biso   1.000  C
  C238     1.0000 0.81050  0.04118  0.59016  Biso   1.000  C
  C239     1.0000 0.93392  0.86892  0.37873  Biso   1.000  C
  C240     1.0000 0.08382  0.67712  0.43631  Biso   1.000  C
  C241     1.0000 0.04450  0.68011  0.27621  Biso   1.000  C
  C242     1.0000 0.96410  0.70221  0.58696  Biso   1.000  C
  C243     1.0000 0.04118  0.68950  0.59016  Biso   1.000  C
  H176     1.0000 0.82580  0.11121  0.40359  Biso   1.000  H
  C244     1.0000 0.82462  0.08069  0.53359  Biso   1.000  C
  H177     1.0000 0.82912  0.07390  0.25571  Biso   1.000  H
  H178     1.0000 0.79132  0.03761  0.24742  Biso   1.000  H
  H179     1.0000 0.84160  0.02289  0.25440  Biso   1.000  H
  H180     1.0000 0.79220  0.94131  0.53817  Biso   1.000  H
  H181     1.0000 0.77322  0.96542  0.63269  Biso   1.000  H
  H182     1.0000 0.82491  0.95701  0.62236  Biso   1.000  H
  H183     1.0000 0.80741  0.04132  0.65886  Biso   1.000  H
  C245     1.0000 0.96850  0.89402  0.43376  Biso   1.000  C
  H184     1.0000 0.11121  0.67420  0.40359  Biso   1.000  H
  C246     1.0000 0.08069  0.67541  0.53359  Biso   1.000  C
  H185     1.0000 0.07390  0.67091  0.25571  Biso   1.000  H
  H186     1.0000 0.03761  0.70872  0.24742  Biso   1.000  H
  H187     1.0000 0.02289  0.65840  0.25440  Biso   1.000  H
  H188     1.0000 0.94131  0.70780  0.53817  Biso   1.000  H
  H189     1.0000 0.96542  0.72681  0.63269  Biso   1.000  H
  H190     1.0000 0.95701  0.67512  0.62236  Biso   1.000  H
  H191     1.0000 0.04132  0.69262  0.65886  Biso   1.000  H
  C247     1.0000 0.83730  0.12799  0.59328  Biso   1.000  C
  C248     1.0000 0.96341  0.89861  0.53526  Biso   1.000  C
  C249     1.0000 0.00289  0.91343  0.38970  Biso   1.000  C
  C250     1.0000 0.12799  0.66270  0.59328  Biso   1.000  C
  H192     1.0000 0.83772  0.12250  0.66352  Biso   1.000  H
  H193     1.0000 0.81523  0.15039  0.57852  Biso   1.000  H
  H194     1.0000 0.86620  0.13830  0.57227  Biso   1.000  H
  C251     1.0000 0.99540  0.92371  0.59168  Biso   1.000  C
  C252     1.0000 0.92692  0.87543  0.58979  Biso   1.000  C
  C253     1.0000 0.03061  0.93862  0.43246  Biso   1.000  C
  C254     1.0000 0.01051  0.90272  0.28072  Biso   1.000  C
  H195     1.0000 0.12250  0.66231  0.66352  Biso   1.000  H
  H196     1.0000 0.15039  0.68481  0.57852  Biso   1.000  H
  H197     1.0000 0.13830  0.63380  0.57227  Biso   1.000  H
  H198     1.0000 0.99373  0.92752  0.66017  Biso   1.000  H
  C255     1.0000 0.02821  0.94141  0.53497  Biso   1.000  C
  H199     1.0000 0.92880  0.88272  0.65908  Biso   1.000  H
  H200     1.0000 0.92991  0.84360  0.58121  Biso   1.000  H
  H201     1.0000 0.89842  0.88512  0.56427  Biso   1.000  H
  H202     1.0000 0.05179  0.95471  0.39676  Biso   1.000  H
  H203     1.0000 0.98703  0.88331  0.25738  Biso   1.000  H
  H204     1.0000 0.03889  0.88810  0.27279  Biso   1.000  H
  H205     1.0000 0.01021  0.93001  0.24291  Biso   1.000  H
  C256     1.0000 0.06128  0.97382  0.58899  Biso   1.000  C
  H206     1.0000 0.08319  0.98450  0.54261  Biso   1.000  H
  H207     1.0000 0.07610  0.95813  0.64178  Biso   1.000  H
  H208     1.0000 0.04490  0.99882  0.61568  Biso   1.000  H
  C257     1.0000 0.59731  0.48949  0.78072  Biso   1.000  C
  C258     1.0000 0.58661  0.49711  0.88970  Biso   1.000  C
  H209     1.0000 0.61672  0.51301  0.75738  Biso   1.000  H
  H210     1.0000 0.61190  0.46111  0.77279  Biso   1.000  H
  H211     1.0000 0.57002  0.48982  0.74291  Biso   1.000  H
  C259     1.0000 0.60602  0.53150  0.93376  Biso   1.000  C
  C260     1.0000 0.56142  0.46939  0.93246  Biso   1.000  C
  C261     1.0000 0.63111  0.56611  0.87865  Biso   1.000  C
  C262     1.0000 0.60142  0.53662  0.03534  Biso   1.000  C
  H212     1.0000 0.54532  0.44821  0.89676  Biso   1.000  H
  C263     1.0000 0.55859  0.47182  0.03497  Biso   1.000  C
  C264     1.0000 0.67449  0.56651  0.84921  Biso   1.000  C
  C265     1.0000 0.61190  0.60681  0.85015  Biso   1.000  C
  C266     1.0000 0.57629  0.50460  0.09168  Biso   1.000  C
  C267     1.0000 0.62461  0.57311  0.08979  Biso   1.000  C
  C268     1.0000 0.52621  0.43872  0.08899  Biso   1.000  C
  C269     1.0000 0.70911  0.53662  0.87618  Biso   1.000  C
  C270     1.0000 0.68300  0.60441  0.79359  Biso   1.000  C
  C271     1.0000 0.64342  0.63282  0.79715  Biso   1.000  C
  C272     1.0000 0.57170  0.62851  0.87240  Biso   1.000  C
  H213     1.0000 0.57252  0.50631  0.16017  Biso   1.000  H
  H214     1.0000 0.61731  0.57120  0.15908  Biso   1.000  H
  H215     1.0000 0.65640  0.57012  0.08121  Biso   1.000  H
  H216     1.0000 0.61492  0.60162  0.06427  Biso   1.000  H
  H217     1.0000 0.51550  0.41681  0.04261  Biso   1.000  H
  H218     1.0000 0.54191  0.42390  0.14178  Biso   1.000  H
  H219     1.0000 0.50122  0.45510  0.11568  Biso   1.000  H
  H220     1.0000 0.70402  0.50962  0.90890  Biso   1.000  H
  C273     1.0000 0.75210  0.55169  0.84877  Biso   1.000  C
  C274     1.0000 0.72731  0.61561  0.76850  Biso   1.000  C
  C275     1.0000 0.63922  0.67311  0.76836  Biso   1.000  C
  H221     1.0000 0.54880  0.61282  0.90410  Biso   1.000  H
  C276     1.0000 0.56552  0.67229  0.84826  Biso   1.000  C
  C277     1.0000 0.79431  0.53422  0.87858  Biso   1.000  C
  C278     1.0000 0.75972  0.59160  0.79759  Biso   1.000  C
  H222     1.0000 0.73282  0.64099  0.73019  Biso   1.000  H
  C279     1.0000 0.60079  0.69571  0.79279  Biso   1.000  C
  H223     1.0000 0.66162  0.68701  0.73171  Biso   1.000  H
  C280     1.0000 0.53422  0.70569  0.87858  Biso   1.000  C
  C281     1.0000 0.82771  0.56552  0.84826  Biso   1.000  C
  C282     1.0000 0.80390  0.49461  0.93667  Biso   1.000  C
  C283     1.0000 0.80432  0.60079  0.79279  Biso   1.000  C
  C284     1.0000 0.59160  0.74031  0.79759  Biso   1.000  C
  C285     1.0000 0.55169  0.74790  0.84877  Biso   1.000  C
  C286     1.0000 0.49461  0.69610  0.93667  Biso   1.000  C
  C287     1.0000 0.87152  0.57170  0.87240  Biso   1.000  C
  C288     1.0000 0.81641  0.45701  0.88389  Biso   1.000  C
  C289     1.0000 0.80281  0.49291  0.03810  Biso   1.000  C
  C290     1.0000 0.82692  0.63922  0.76836  Biso   1.000  C
  C291     1.0000 0.61561  0.77269  0.76850  Biso   1.000  C
  C292     1.0000 0.53662  0.79092  0.87618  Biso   1.000  C
  C293     1.0000 0.45701  0.68362  0.88389  Biso   1.000  C
  C294     1.0000 0.49291  0.69722  0.03810  Biso   1.000  C
  C295     1.0000 0.89323  0.61190  0.85015  Biso   1.000  C
  H224     1.0000 0.88722  0.54880  0.90410  Biso   1.000  H
  C296     1.0000 0.82291  0.41622  0.93631  Biso   1.000  C
  C297     1.0000 0.81992  0.45550  0.77621  Biso   1.000  C
  C298     1.0000 0.81050  0.45882  0.09023  Biso   1.000  C
  C299     1.0000 0.79782  0.53590  0.08703  Biso   1.000  C
  C300     1.0000 0.86722  0.64342  0.79715  Biso   1.000  C
  H225     1.0000 0.81303  0.66162  0.73171  Biso   1.000  H
  C301     1.0000 0.60441  0.81700  0.79359  Biso   1.000  C
  H226     1.0000 0.64099  0.76721  0.73019  Biso   1.000  H
  H227     1.0000 0.50962  0.79601  0.90890  Biso   1.000  H
  C302     1.0000 0.56651  0.82551  0.84921  Biso   1.000  C
  C303     1.0000 0.41622  0.67712  0.93631  Biso   1.000  C
  C304     1.0000 0.45550  0.68011  0.77621  Biso   1.000  C
  C305     1.0000 0.45882  0.68950  0.09023  Biso   1.000  C
  C306     1.0000 0.53590  0.70221  0.08703  Biso   1.000  C
  C307     1.0000 0.93392  0.63111  0.87865  Biso   1.000  C
  H228     1.0000 0.82580  0.38879  0.90359  Biso   1.000  H
  C308     1.0000 0.82462  0.41931  0.03359  Biso   1.000  C
  H229     1.0000 0.82912  0.42610  0.75571  Biso   1.000  H
  H230     1.0000 0.79132  0.46239  0.74742  Biso   1.000  H
  H231     1.0000 0.84160  0.47711  0.75440  Biso   1.000  H
  H232     1.0000 0.80741  0.45872  0.15886  Biso   1.000  H
  H233     1.0000 0.79220  0.55872  0.03817  Biso   1.000  H
  H234     1.0000 0.77322  0.53462  0.13269  Biso   1.000  H
  H235     1.0000 0.82491  0.54299  0.12236  Biso   1.000  H
  C309     1.0000 0.89563  0.68300  0.79359  Biso   1.000  C
  C310     1.0000 0.63282  0.85661  0.79715  Biso   1.000  C
  C311     1.0000 0.56611  0.86892  0.87865  Biso   1.000  C
  H236     1.0000 0.38879  0.67420  0.90359  Biso   1.000  H
  C312     1.0000 0.41931  0.67541  0.03359  Biso   1.000  C
  H237     1.0000 0.42610  0.67091  0.75571  Biso   1.000  H
  H238     1.0000 0.46239  0.70872  0.74742  Biso   1.000  H
  H239     1.0000 0.47711  0.65840  0.75440  Biso   1.000  H
  H240     1.0000 0.45872  0.69262  0.15886  Biso   1.000  H
  H241     1.0000 0.55872  0.70780  0.03817  Biso   1.000  H
  H242     1.0000 0.53462  0.72681  0.13269  Biso   1.000  H
  H243     1.0000 0.54299  0.67512  0.12236  Biso   1.000  H
  C313     1.0000 0.93353  0.67449  0.84921  Biso   1.000  C
  C314     1.0000 0.96850  0.60602  0.93376  Biso   1.000  C
  C315     1.0000 0.83730  0.37201  0.09328  Biso   1.000  C
  C316     1.0000 0.88443  0.72731  0.76850  Biso   1.000  C
  C317     1.0000 0.60681  0.88810  0.85015  Biso   1.000  C
  C318     1.0000 0.67311  0.86081  0.76836  Biso   1.000  C
  C319     1.0000 0.53150  0.89402  0.93376  Biso   1.000  C
  C320     1.0000 0.37201  0.66270  0.09328  Biso   1.000  C
  C321     1.0000 0.96341  0.70911  0.87618  Biso   1.000  C
  C322     1.0000 0.96341  0.60142  0.03534  Biso   1.000  C
  C323     1.0000 0.00289  0.58661  0.88970  Biso   1.000  C
  H244     1.0000 0.83772  0.37750  0.16352  Biso   1.000  H
  H245     1.0000 0.81523  0.34961  0.07852  Biso   1.000  H
  H246     1.0000 0.86620  0.36170  0.07227  Biso   1.000  H
  C324     1.0000 0.90840  0.75972  0.79759  Biso   1.000  C
  H247     1.0000 0.85901  0.73282  0.73019  Biso   1.000  H
  C325     1.0000 0.62851  0.92830  0.87240  Biso   1.000  C
  C326     1.0000 0.69571  0.89921  0.79279  Biso   1.000  C
  H248     1.0000 0.68701  0.83841  0.73171  Biso   1.000  H
  C327     1.0000 0.49711  0.91343  0.88970  Biso   1.000  C
  C328     1.0000 0.53662  0.89861  0.03534  Biso   1.000  C
  H249     1.0000 0.37750  0.66231  0.16352  Biso   1.000  H
  H250     1.0000 0.34961  0.68481  0.07852  Biso   1.000  H
  H251     1.0000 0.36170  0.63380  0.07227  Biso   1.000  H
  H252     1.0000 0.99041  0.70402  0.90890  Biso   1.000  H
  C329     1.0000 0.94831  0.75210  0.84877  Biso   1.000  C
  C330     1.0000 0.99540  0.57629  0.09168  Biso   1.000  C
  C331     1.0000 0.92692  0.62461  0.08979  Biso   1.000  C
  C332     1.0000 0.03061  0.56142  0.93246  Biso   1.000  C
  C333     1.0000 0.01051  0.59731  0.78072  Biso   1.000  C
  C334     1.0000 0.89921  0.80432  0.79279  Biso   1.000  C
  H253     1.0000 0.61282  0.95123  0.90410  Biso   1.000  H
  C335     1.0000 0.67229  0.93451  0.84826  Biso   1.000  C
  C336     1.0000 0.74031  0.90840  0.79759  Biso   1.000  C
  C337     1.0000 0.46939  0.93862  0.93246  Biso   1.000  C
  C338     1.0000 0.48949  0.90272  0.78072  Biso   1.000  C
  C339     1.0000 0.50460  0.92371  0.09168  Biso   1.000  C
  C340     1.0000 0.57311  0.87543  0.08979  Biso   1.000  C
  C341     1.0000 0.96581  0.79431  0.87858  Biso   1.000  C
  H254     1.0000 0.99373  0.57252  0.16017  Biso   1.000  H
  C342     1.0000 0.02821  0.55859  0.03497  Biso   1.000  C
  H255     1.0000 0.92880  0.61731  0.15908  Biso   1.000  H
  H256     1.0000 0.92991  0.65640  0.08121  Biso   1.000  H
  H257     1.0000 0.89842  0.61492  0.06427  Biso   1.000  H
  H258     1.0000 0.05179  0.54532  0.89676  Biso   1.000  H
  H259     1.0000 0.98703  0.61672  0.75738  Biso   1.000  H
  H260     1.0000 0.03889  0.61190  0.77279  Biso   1.000  H
  H261     1.0000 0.01021  0.57002  0.74291  Biso   1.000  H
  C343     1.0000 0.93451  0.82771  0.84826  Biso   1.000  C
  C344     1.0000 0.86081  0.82692  0.76836  Biso   1.000  C
  C345     1.0000 0.70569  0.96581  0.87858  Biso   1.000  C
  C346     1.0000 0.74790  0.94831  0.84877  Biso   1.000  C
  C347     1.0000 0.77269  0.88443  0.76850  Biso   1.000  C
  H262     1.0000 0.44821  0.95471  0.89676  Biso   1.000  H
  C348     1.0000 0.47182  0.94141  0.03497  Biso   1.000  C
  H263     1.0000 0.51301  0.88331  0.75738  Biso   1.000  H
  H264     1.0000 0.46111  0.88810  0.77279  Biso   1.000  H
  H265     1.0000 0.48982  0.93001  0.74291  Biso   1.000  H
  H266     1.0000 0.50631  0.92752  0.16017  Biso   1.000  H
  H267     1.0000 0.57120  0.88272  0.15908  Biso   1.000  H
  H268     1.0000 0.57012  0.84360  0.08121  Biso   1.000  H
  H269     1.0000 0.60162  0.88512  0.06427  Biso   1.000  H
  C349     1.0000 0.00539  0.80390  0.93667  Biso   1.000  C
  C350     1.0000 0.06128  0.52621  0.08899  Biso   1.000  C
  C351     1.0000 0.92830  0.87152  0.87240  Biso   1.000  C
  C352     1.0000 0.85661  0.86722  0.79715  Biso   1.000  C
  H270     1.0000 0.83841  0.81303  0.73171  Biso   1.000  H
  C353     1.0000 0.69610  0.00539  0.93667  Biso   1.000  C
  C354     1.0000 0.79092  0.96341  0.87618  Biso   1.000  C
  C355     1.0000 0.81700  0.89563  0.79359  Biso   1.000  C
  H271     1.0000 0.76721  0.85901  0.73019  Biso   1.000  H
  C356     1.0000 0.43872  0.97382  0.08899  Biso   1.000  C
  C357     1.0000 0.04299  0.81641  0.88389  Biso   1.000  C
  C358     1.0000 0.00709  0.80281  0.03810  Biso   1.000  C
  H272     1.0000 0.08319  0.51550  0.04261  Biso   1.000  H
  H273     1.0000 0.07610  0.54191  0.14178  Biso   1.000  H
  H274     1.0000 0.04490  0.50122  0.11568  Biso   1.000  H
  C359     1.0000 0.88810  0.89323  0.85015  Biso   1.000  C
  H275     1.0000 0.95123  0.88722  0.90410  Biso   1.000  H
  C360     1.0000 0.68362  0.04299  0.88389  Biso   1.000  C
  C361     1.0000 0.69722  0.00709  0.03810  Biso   1.000  C
  H276     1.0000 0.79601  0.99041  0.90890  Biso   1.000  H
  C362     1.0000 0.82551  0.93353  0.84921  Biso   1.000  C
  H277     1.0000 0.41681  0.98450  0.04261  Biso   1.000  H
  H278     1.0000 0.42390  0.95813  0.14178  Biso   1.000  H
  H279     1.0000 0.45510  0.99882  0.11568  Biso   1.000  H
  C363     1.0000 0.08382  0.82291  0.93631  Biso   1.000  C
  C364     1.0000 0.04450  0.81992  0.77621  Biso   1.000  C
  C365     1.0000 0.96410  0.79782  0.08703  Biso   1.000  C
  C366     1.0000 0.04118  0.81050  0.09023  Biso   1.000  C
  C367     1.0000 0.86892  0.93392  0.87865  Biso   1.000  C
  C368     1.0000 0.67712  0.08382  0.93631  Biso   1.000  C
  C369     1.0000 0.68011  0.04450  0.77621  Biso   1.000  C
  C370     1.0000 0.70221  0.96410  0.08703  Biso   1.000  C
  C371     1.0000 0.68950  0.04118  0.09023  Biso   1.000  C
  H280     1.0000 0.11121  0.82580  0.90359  Biso   1.000  H
  C372     1.0000 0.08069  0.82462  0.03359  Biso   1.000  C
  H281     1.0000 0.07390  0.82912  0.75571  Biso   1.000  H
  H282     1.0000 0.03761  0.79132  0.74742  Biso   1.000  H
  H283     1.0000 0.02289  0.84160  0.75440  Biso   1.000  H
  H284     1.0000 0.94131  0.79220  0.03817  Biso   1.000  H
  H285     1.0000 0.96542  0.77322  0.13269  Biso   1.000  H
  H286     1.0000 0.95701  0.82491  0.12236  Biso   1.000  H
  H287     1.0000 0.04132  0.80741  0.15886  Biso   1.000  H
  C373     1.0000 0.89402  0.96850  0.93376  Biso   1.000  C
  H288     1.0000 0.67420  0.11121  0.90359  Biso   1.000  H
  C374     1.0000 0.67541  0.08069  0.03359  Biso   1.000  C
  H289     1.0000 0.67091  0.07390  0.75571  Biso   1.000  H
  H290     1.0000 0.70872  0.03761  0.74742  Biso   1.000  H
  H291     1.0000 0.65840  0.02289  0.75440  Biso   1.000  H
  H292     1.0000 0.70780  0.94131  0.03817  Biso   1.000  H
  H293     1.0000 0.72681  0.96542  0.13269  Biso   1.000  H
  H294     1.0000 0.67512  0.95701  0.12236  Biso   1.000  H
  H295     1.0000 0.69262  0.04132  0.15886  Biso   1.000  H
  C375     1.0000 0.12799  0.83730  0.09328  Biso   1.000  C
  C376     1.0000 0.89861  0.96341  0.03534  Biso   1.000  C
  C377     1.0000 0.91343  0.00289  0.88970  Biso   1.000  C
  C378     1.0000 0.66270  0.12799  0.09328  Biso   1.000  C
  H296     1.0000 0.12250  0.83772  0.16352  Biso   1.000  H
  H297     1.0000 0.15039  0.81523  0.07852  Biso   1.000  H
  H298     1.0000 0.13830  0.86620  0.07227  Biso   1.000  H
  C379     1.0000 0.92371  0.99540  0.09168  Biso   1.000  C
  C380     1.0000 0.87543  0.92692  0.08979  Biso   1.000  C
  C381     1.0000 0.93862  0.03061  0.93246  Biso   1.000  C
  C382     1.0000 0.90272  0.01051  0.78072  Biso   1.000  C
  H299     1.0000 0.66231  0.12250  0.16352  Biso   1.000  H
  H300     1.0000 0.68481  0.15039  0.07852  Biso   1.000  H
  H301     1.0000 0.63380  0.13830  0.07227  Biso   1.000  H
  H302     1.0000 0.92752  0.99373  0.16017  Biso   1.000  H
  C383     1.0000 0.94141  0.02821  0.03497  Biso   1.000  C
  H303     1.0000 0.88272  0.92880  0.15908  Biso   1.000  H
  H304     1.0000 0.84360  0.92991  0.08121  Biso   1.000  H
  H305     1.0000 0.88512  0.89842  0.06427  Biso   1.000  H
  H306     1.0000 0.95471  0.05179  0.89676  Biso   1.000  H
  H307     1.0000 0.88331  0.98703  0.75738  Biso   1.000  H
  H308     1.0000 0.88810  0.03889  0.77279  Biso   1.000  H
  H309     1.0000 0.93001  0.01021  0.74291  Biso   1.000  H
  C384     1.0000 0.97382  0.06128  0.08899  Biso   1.000  C
  H310     1.0000 0.98450  0.08319  0.04261  Biso   1.000  H
  H311     1.0000 0.95813  0.07610  0.14178  Biso   1.000  H
  H312     1.0000 0.99882  0.04490  0.11568  Biso   1.000  H
  C385     1.0000 0.40272  0.51051  0.21928  Biso   1.000  C
  C386     1.0000 0.41339  0.50292  0.11030  Biso   1.000  C
  H313     1.0000 0.38331  0.48699  0.24262  Biso   1.000  H
  H314     1.0000 0.38810  0.53892  0.22721  Biso   1.000  H
  H315     1.0000 0.43001  0.51021  0.25709  Biso   1.000  H
  C387     1.0000 0.39402  0.46850  0.06616  Biso   1.000  C
  C388     1.0000 0.43862  0.53061  0.06747  Biso   1.000  C
  C389     1.0000 0.36889  0.43392  0.12127  Biso   1.000  C
  C390     1.0000 0.39861  0.46341  0.96466  Biso   1.000  C
  H316     1.0000 0.45471  0.55179  0.10317  Biso   1.000  H
  C391     1.0000 0.44141  0.52821  0.96496  Biso   1.000  C
  C392     1.0000 0.38810  0.39319  0.14977  Biso   1.000  C
  C393     1.0000 0.32551  0.43349  0.15079  Biso   1.000  C
  C394     1.0000 0.42371  0.49540  0.90824  Biso   1.000  C
  C395     1.0000 0.37539  0.42689  0.91021  Biso   1.000  C
  C396     1.0000 0.47379  0.56132  0.91101  Biso   1.000  C
  C397     1.0000 0.42830  0.37152  0.12760  Biso   1.000  C
  C398     1.0000 0.35661  0.36722  0.20278  Biso   1.000  C
  C399     1.0000 0.31700  0.39559  0.20641  Biso   1.000  C
  C400     1.0000 0.29089  0.46341  0.12382  Biso   1.000  C
  H317     1.0000 0.42752  0.49369  0.83976  Biso   1.000  H
  H318     1.0000 0.38272  0.42880  0.84085  Biso   1.000  H
  H319     1.0000 0.34360  0.42991  0.91879  Biso   1.000  H
  H320     1.0000 0.38512  0.39842  0.93566  Biso   1.000  H
  H321     1.0000 0.48450  0.58322  0.95739  Biso   1.000  H
  H322     1.0000 0.45809  0.57610  0.85815  Biso   1.000  H
  H323     1.0000 0.49882  0.54490  0.88425  Biso   1.000  H
  C401     1.0000 0.43451  0.32771  0.15166  Biso   1.000  C
  H324     1.0000 0.45120  0.38722  0.09590  Biso   1.000  H
  C402     1.0000 0.36081  0.32692  0.23157  Biso   1.000  C
  C403     1.0000 0.27269  0.38439  0.23150  Biso   1.000  C
  H325     1.0000 0.29601  0.49041  0.09110  Biso   1.000  H
  C404     1.0000 0.24790  0.44831  0.15123  Biso   1.000  C
  C405     1.0000 0.39921  0.30429  0.20721  Biso   1.000  C
  C406     1.0000 0.46581  0.29431  0.12142  Biso   1.000  C
  H326     1.0000 0.33841  0.31299  0.26829  Biso   1.000  H
  C407     1.0000 0.24031  0.40840  0.20241  Biso   1.000  C
  H327     1.0000 0.26721  0.35901  0.26981  Biso   1.000  H
  C408     1.0000 0.20569  0.46581  0.12142  Biso   1.000  C
  C409     1.0000 0.40840  0.25969  0.20241  Biso   1.000  C
  C410     1.0000 0.44831  0.25210  0.15123  Biso   1.000  C
  C411     1.0000 0.50542  0.30390  0.06333  Biso   1.000  C
  C412     1.0000 0.19571  0.39921  0.20721  Biso   1.000  C
  C413     1.0000 0.17229  0.43451  0.15166  Biso   1.000  C
  C414     1.0000 0.19610  0.50542  0.06333  Biso   1.000  C
  C415     1.0000 0.38439  0.22731  0.23150  Biso   1.000  C
  C416     1.0000 0.46341  0.20911  0.12382  Biso   1.000  C
  C417     1.0000 0.54299  0.31641  0.11611  Biso   1.000  C
  C418     1.0000 0.50709  0.30281  0.96190  Biso   1.000  C
  C419     1.0000 0.17311  0.36081  0.23157  Biso   1.000  C
  C420     1.0000 0.12851  0.42830  0.12760  Biso   1.000  C
  C421     1.0000 0.18359  0.54299  0.11611  Biso   1.000  C
  C422     1.0000 0.19719  0.50709  0.96190  Biso   1.000  C
  C423     1.0000 0.39559  0.18300  0.20641  Biso   1.000  C
  H328     1.0000 0.35901  0.23279  0.26981  Biso   1.000  H
  C424     1.0000 0.43349  0.17449  0.15079  Biso   1.000  C
  H329     1.0000 0.49041  0.20399  0.09110  Biso   1.000  H
  C425     1.0000 0.58382  0.32291  0.06369  Biso   1.000  C
  C426     1.0000 0.54450  0.31989  0.22379  Biso   1.000  C
  C427     1.0000 0.54122  0.31050  0.90977  Biso   1.000  C
  C428     1.0000 0.46410  0.29782  0.91297  Biso   1.000  C
  C429     1.0000 0.13282  0.35661  0.20278  Biso   1.000  C
  H330     1.0000 0.18701  0.33841  0.26829  Biso   1.000  H
  C430     1.0000 0.10681  0.38810  0.14977  Biso   1.000  C
  H331     1.0000 0.11282  0.45120  0.09590  Biso   1.000  H
  C431     1.0000 0.17709  0.58382  0.06369  Biso   1.000  C
  C432     1.0000 0.18011  0.54450  0.22379  Biso   1.000  C
  C433     1.0000 0.18950  0.54122  0.90977  Biso   1.000  C
  C434     1.0000 0.20221  0.46410  0.91297  Biso   1.000  C
  C435     1.0000 0.36722  0.14339  0.20278  Biso   1.000  C
  C436     1.0000 0.43392  0.13111  0.12127  Biso   1.000  C
  H332     1.0000 0.61121  0.32580  0.09641  Biso   1.000  H
  C437     1.0000 0.58069  0.32462  0.96641  Biso   1.000  C
  H333     1.0000 0.57390  0.32912  0.24429  Biso   1.000  H
  H334     1.0000 0.53761  0.29132  0.25258  Biso   1.000  H
  H335     1.0000 0.52289  0.34160  0.24560  Biso   1.000  H
  H336     1.0000 0.54132  0.30741  0.84106  Biso   1.000  H
  H337     1.0000 0.44131  0.29220  0.96176  Biso   1.000  H
  H338     1.0000 0.46542  0.27322  0.86731  Biso   1.000  H
  H339     1.0000 0.45701  0.32491  0.87756  Biso   1.000  H
  C438     1.0000 0.10441  0.31700  0.20641  Biso   1.000  C
  C439     1.0000 0.06611  0.36889  0.12127  Biso   1.000  C
  H340     1.0000 0.17420  0.61121  0.09641  Biso   1.000  H
  C440     1.0000 0.17541  0.58069  0.96641  Biso   1.000  C
  H341     1.0000 0.17091  0.57390  0.24429  Biso   1.000  H
  H342     1.0000 0.20872  0.53761  0.25258  Biso   1.000  H
  H343     1.0000 0.15840  0.52289  0.24560  Biso   1.000  H
  H344     1.0000 0.19259  0.54132  0.84106  Biso   1.000  H
  H345     1.0000 0.20780  0.44131  0.96176  Biso   1.000  H
  H346     1.0000 0.22681  0.46542  0.86731  Biso   1.000  H
  H347     1.0000 0.17512  0.45701  0.87756  Biso   1.000  H
  C441     1.0000 0.39319  0.11190  0.14977  Biso   1.000  C
  C442     1.0000 0.32692  0.13919  0.23157  Biso   1.000  C
  C443     1.0000 0.46850  0.10602  0.06616  Biso   1.000  C
  C444     1.0000 0.62802  0.33730  0.90665  Biso   1.000  C
  C445     1.0000 0.11561  0.27269  0.23150  Biso   1.000  C
  C446     1.0000 0.06651  0.32551  0.15079  Biso   1.000  C
  C447     1.0000 0.03150  0.39402  0.06616  Biso   1.000  C
  C448     1.0000 0.16270  0.62802  0.90665  Biso   1.000  C
  C449     1.0000 0.37152  0.07170  0.12760  Biso   1.000  C
  C450     1.0000 0.30429  0.10079  0.20721  Biso   1.000  C
  H348     1.0000 0.31299  0.16159  0.26829  Biso   1.000  H
  C451     1.0000 0.50292  0.08661  0.11030  Biso   1.000  C
  C452     1.0000 0.46341  0.10139  0.96466  Biso   1.000  C
  H349     1.0000 0.62250  0.33769  0.83648  Biso   1.000  H
  H350     1.0000 0.65042  0.31519  0.92148  Biso   1.000  H
  H351     1.0000 0.63830  0.36620  0.92766  Biso   1.000  H
  C453     1.0000 0.09160  0.24031  0.20241  Biso   1.000  C
  H352     1.0000 0.14099  0.26721  0.26981  Biso   1.000  H
  C454     1.0000 0.03659  0.29089  0.12382  Biso   1.000  C
  C455     1.0000 0.99711  0.41339  0.11030  Biso   1.000  C
  C456     1.0000 0.03659  0.39861  0.96466  Biso   1.000  C
  H353     1.0000 0.16231  0.62250  0.83648  Biso   1.000  H
  H354     1.0000 0.18481  0.65042  0.92148  Biso   1.000  H
  H355     1.0000 0.13380  0.63830  0.92766  Biso   1.000  H
  H356     1.0000 0.38722  0.04880  0.09590  Biso   1.000  H
  C457     1.0000 0.32771  0.06549  0.15166  Biso   1.000  C
  C458     1.0000 0.25969  0.09160  0.20241  Biso   1.000  C
  C459     1.0000 0.53061  0.06142  0.06747  Biso   1.000  C
  C460     1.0000 0.51051  0.09731  0.21928  Biso   1.000  C
  C461     1.0000 0.49540  0.07629  0.90824  Biso   1.000  C
  C462     1.0000 0.42689  0.12461  0.91021  Biso   1.000  C
  C463     1.0000 0.10079  0.19571  0.20721  Biso   1.000  C
  C464     1.0000 0.05169  0.24790  0.15123  Biso   1.000  C
  H357     1.0000 0.00959  0.29601  0.09110  Biso   1.000  H
  C465     1.0000 0.96942  0.43862  0.06747  Biso   1.000  C
  C466     1.0000 0.98952  0.40272  0.21928  Biso   1.000  C
  C467     1.0000 0.00460  0.42371  0.90824  Biso   1.000  C
  C468     1.0000 0.07311  0.37539  0.91021  Biso   1.000  C
  C469     1.0000 0.29431  0.03419  0.12142  Biso   1.000  C
  C470     1.0000 0.25210  0.05169  0.15123  Biso   1.000  C
  C471     1.0000 0.22731  0.11561  0.23150  Biso   1.000  C
  H358     1.0000 0.55179  0.04529  0.10317  Biso   1.000  H
  C472     1.0000 0.52821  0.05859  0.96496  Biso   1.000  C
  H359     1.0000 0.48699  0.11669  0.24262  Biso   1.000  H
  H360     1.0000 0.53892  0.11190  0.22721  Biso   1.000  H
  H361     1.0000 0.51021  0.06999  0.25709  Biso   1.000  H
  H362     1.0000 0.49369  0.07252  0.83976  Biso   1.000  H
  H363     1.0000 0.42880  0.11731  0.84085  Biso   1.000  H
  H364     1.0000 0.42991  0.15640  0.91879  Biso   1.000  H
  H365     1.0000 0.39842  0.11492  0.93566  Biso   1.000  H
  C473     1.0000 0.13919  0.17311  0.23157  Biso   1.000  C
  C474     1.0000 0.06549  0.17229  0.15166  Biso   1.000  C
  C475     1.0000 0.03419  0.20569  0.12142  Biso   1.000  C
  C476     1.0000 0.97182  0.44141  0.96496  Biso   1.000  C
  H366     1.0000 0.94821  0.45471  0.10317  Biso   1.000  H
  H367     1.0000 0.01301  0.38331  0.24262  Biso   1.000  H
  H368     1.0000 0.96111  0.38810  0.22721  Biso   1.000  H
  H369     1.0000 0.98982  0.43001  0.25709  Biso   1.000  H
  H370     1.0000 0.00631  0.42752  0.83976  Biso   1.000  H
  H371     1.0000 0.07120  0.38272  0.84085  Biso   1.000  H
  H372     1.0000 0.07009  0.34360  0.91879  Biso   1.000  H
  H373     1.0000 0.10162  0.38512  0.93566  Biso   1.000  H
  C477     1.0000 0.30390  0.99461  0.06333  Biso   1.000  C
  C478     1.0000 0.20911  0.03659  0.12382  Biso   1.000  C
  C479     1.0000 0.18300  0.10441  0.20641  Biso   1.000  C
  H374     1.0000 0.23279  0.14099  0.26981  Biso   1.000  H
  C480     1.0000 0.56132  0.02621  0.91101  Biso   1.000  C
  C481     1.0000 0.14339  0.13282  0.20278  Biso   1.000  C
  H375     1.0000 0.16159  0.18701  0.26829  Biso   1.000  H
  C482     1.0000 0.07170  0.12851  0.12760  Biso   1.000  C
  C483     1.0000 0.99461  0.19610  0.06333  Biso   1.000  C
  C484     1.0000 0.93872  0.47379  0.91101  Biso   1.000  C
  C485     1.0000 0.30281  0.99291  0.96190  Biso   1.000  C
  C486     1.0000 0.31641  0.95701  0.11611  Biso   1.000  C
  H376     1.0000 0.20399  0.00959  0.09110  Biso   1.000  H
  C487     1.0000 0.17449  0.06651  0.15079  Biso   1.000  C
  H377     1.0000 0.58322  0.01550  0.95739  Biso   1.000  H
  H378     1.0000 0.57610  0.04191  0.85815  Biso   1.000  H
  H379     1.0000 0.54490  0.00122  0.88425  Biso   1.000  H
  C488     1.0000 0.11190  0.10681  0.14977  Biso   1.000  C
  H380     1.0000 0.04880  0.11282  0.09590  Biso   1.000  H
  C489     1.0000 0.99291  0.19719  0.96190  Biso   1.000  C
  C490     1.0000 0.95701  0.18359  0.11611  Biso   1.000  C
  H381     1.0000 0.91681  0.48450  0.95739  Biso   1.000  H
  H382     1.0000 0.92390  0.45809  0.85815  Biso   1.000  H
  H383     1.0000 0.95510  0.49882  0.88425  Biso   1.000  H
  C491     1.0000 0.31050  0.95882  0.90977  Biso   1.000  C
  C492     1.0000 0.29782  0.03590  0.91297  Biso   1.000  C
  C493     1.0000 0.32291  0.91622  0.06369  Biso   1.000  C
  C494     1.0000 0.31989  0.95550  0.22379  Biso   1.000  C
  C495     1.0000 0.13111  0.06611  0.12127  Biso   1.000  C
  C496     1.0000 0.95882  0.18950  0.90977  Biso   1.000  C
  C497     1.0000 0.03590  0.20221  0.91297  Biso   1.000  C
  C498     1.0000 0.91622  0.17709  0.06369  Biso   1.000  C
  C499     1.0000 0.95550  0.18011  0.22379  Biso   1.000  C
  C500     1.0000 0.32462  0.91931  0.96641  Biso   1.000  C
  H384     1.0000 0.30741  0.95872  0.84106  Biso   1.000  H
  H385     1.0000 0.29220  0.05869  0.96176  Biso   1.000  H
  H386     1.0000 0.27322  0.03462  0.86731  Biso   1.000  H
  H387     1.0000 0.32491  0.04299  0.87756  Biso   1.000  H
  H388     1.0000 0.32580  0.88883  0.09641  Biso   1.000  H
  H389     1.0000 0.32912  0.92610  0.24429  Biso   1.000  H
  H390     1.0000 0.29132  0.96243  0.25258  Biso   1.000  H
  H391     1.0000 0.34160  0.97711  0.24560  Biso   1.000  H
  C501     1.0000 0.10602  0.03150  0.06616  Biso   1.000  C
  C502     1.0000 0.91931  0.17541  0.96641  Biso   1.000  C
  H392     1.0000 0.95872  0.19259  0.84106  Biso   1.000  H
  H393     1.0000 0.05869  0.20780  0.96176  Biso   1.000  H
  H394     1.0000 0.03462  0.22681  0.86731  Biso   1.000  H
  H395     1.0000 0.04299  0.17512  0.87756  Biso   1.000  H
  H396     1.0000 0.88883  0.17420  0.09641  Biso   1.000  H
  H397     1.0000 0.92610  0.17091  0.24429  Biso   1.000  H
  H398     1.0000 0.96243  0.20872  0.25258  Biso   1.000  H
  H399     1.0000 0.97711  0.15840  0.24560  Biso   1.000  H
  C503     1.0000 0.33730  0.87201  0.90665  Biso   1.000  C
  C504     1.0000 0.08661  0.99711  0.11030  Biso   1.000  C
  C505     1.0000 0.10139  0.03659  0.96466  Biso   1.000  C
  C506     1.0000 0.87201  0.16270  0.90665  Biso   1.000  C
  H400     1.0000 0.33769  0.87750  0.83648  Biso   1.000  H
  H401     1.0000 0.31519  0.84961  0.92148  Biso   1.000  H
  H402     1.0000 0.36620  0.86170  0.92766  Biso   1.000  H
  C507     1.0000 0.06142  0.96942  0.06747  Biso   1.000  C
  C508     1.0000 0.09731  0.98952  0.21928  Biso   1.000  C
  C509     1.0000 0.07629  0.00460  0.90824  Biso   1.000  C
  C510     1.0000 0.12461  0.07311  0.91021  Biso   1.000  C
  H403     1.0000 0.87750  0.16231  0.83648  Biso   1.000  H
  H404     1.0000 0.84961  0.18481  0.92148  Biso   1.000  H
  H405     1.0000 0.86170  0.13380  0.92766  Biso   1.000  H
  C511     1.0000 0.05859  0.97182  0.96496  Biso   1.000  C
  H406     1.0000 0.04529  0.94821  0.10317  Biso   1.000  H
  H407     1.0000 0.11669  0.01301  0.24262  Biso   1.000  H
  H408     1.0000 0.11190  0.96111  0.22721  Biso   1.000  H
  H409     1.0000 0.06999  0.98982  0.25709  Biso   1.000  H
  H410     1.0000 0.07252  0.00631  0.83976  Biso   1.000  H
  H411     1.0000 0.11731  0.07120  0.84085  Biso   1.000  H
  H412     1.0000 0.15640  0.07009  0.91879  Biso   1.000  H
  H413     1.0000 0.11492  0.10162  0.93566  Biso   1.000  H
  C512     1.0000 0.02621  0.93872  0.91101  Biso   1.000  C
  H414     1.0000 0.01550  0.91681  0.95739  Biso   1.000  H
  H415     1.0000 0.04191  0.92390  0.85815  Biso   1.000  H
  H416     1.0000 0.00122  0.95510  0.88425  Biso   1.000  H
