####################################################################### 
# 
# This file contains crystal structure data downloaded from the 
# Cambridge Structural Database (CSD) hosted by the Cambridge 
# Crystallographic Data Centre (CCDC).
# 
# Full information about CCDC data access policies and citation 
# guidelines are available at http://www.ccdc.cam.ac.uk/access/V1 
# 
# Audit and citation data items may have been added by the CCDC. 
# Please retain this information to preserve the provenance of 
# this file and to allow appropriate attribution of the data. 
# 
#######################################################################

data_IRMOP-50
_audit_block_doi                 10.5517/cc95q7d
_database_code_depnum_ccdc_archive 'CCDC 273613'
loop_
_citation_id
_citation_doi
_citation_year
1 10.1021/ja042802q 2005
_audit_update_record             
;
2005-06-01 deposited with the CCDC.	2019-02-14 downloaded from the CCDC.
;

_audit_creation_method           SHELXL-97
_chemical_name_systematic        
;
?
;
_chemical_name_common            IRMOP-50
_chemical_melting_point          ?
_chemical_formula_moiety         'C108 H84 Fe12 N12 O76 S12, O8'
_chemical_formula_sum            'C108 H84 Fe12 N12 O84 S12'
_chemical_formula_weight         3948.91

loop_
_atom_type_symbol
_atom_type_description
_atom_type_scat_dispersion_real
_atom_type_scat_dispersion_imag
_atom_type_scat_source
C C 0.0033 0.0016 'International Tables Vol C Tables 4.2.6.8 and 6.1.1.4'
H H 0.0000 0.0000 'International Tables Vol C Tables 4.2.6.8 and 6.1.1.4'
N N 0.0061 0.0033 'International Tables Vol C Tables 4.2.6.8 and 6.1.1.4'
O O 0.0106 0.0060 'International Tables Vol C Tables 4.2.6.8 and 6.1.1.4'
S S 0.1246 0.1234 'International Tables Vol C Tables 4.2.6.8 and 6.1.1.4'
Fe Fe 0.3463 0.8444 'International Tables Vol C Tables 4.2.6.8 and 6.1.1.4'

_symmetry_cell_setting           Cubic
_symmetry_space_group_name_H-M   F-43m
_symmetry_space_group_name_Hall  F-423

loop_
_symmetry_equiv_pos_as_xyz
'x, y, z'
'-x, -y, z'
'-x, y, -z'
'x, -y, -z'
'z, x, y'
'z, -x, -y'
'-z, -x, y'
'-z, x, -y'
'y, z, x'
'-y, z, -x'
'y, -z, -x'
'-y, -z, x'
'y, x, z'
'-y, -x, z'
'y, -x, -z'
'-y, x, -z'
'x, z, y'
'-x, z, -y'
'-x, -z, y'
'x, -z, -y'
'z, y, x'
'z, -y, -x'
'-z, y, -x'
'-z, -y, x'
'x, y+1/2, z+1/2'
'-x, -y+1/2, z+1/2'
'-x, y+1/2, -z+1/2'
'x, -y+1/2, -z+1/2'
'z, x+1/2, y+1/2'
'z, -x+1/2, -y+1/2'
'-z, -x+1/2, y+1/2'
'-z, x+1/2, -y+1/2'
'y, z+1/2, x+1/2'
'-y, z+1/2, -x+1/2'
'y, -z+1/2, -x+1/2'
'-y, -z+1/2, x+1/2'
'y, x+1/2, z+1/2'
'-y, -x+1/2, z+1/2'
'y, -x+1/2, -z+1/2'
'-y, x+1/2, -z+1/2'
'x, z+1/2, y+1/2'
'-x, z+1/2, -y+1/2'
'-x, -z+1/2, y+1/2'
'x, -z+1/2, -y+1/2'
'z, y+1/2, x+1/2'
'z, -y+1/2, -x+1/2'
'-z, y+1/2, -x+1/2'
'-z, -y+1/2, x+1/2'
'x+1/2, y, z+1/2'
'-x+1/2, -y, z+1/2'
'-x+1/2, y, -z+1/2'
'x+1/2, -y, -z+1/2'
'z+1/2, x, y+1/2'
'z+1/2, -x, -y+1/2'
'-z+1/2, -x, y+1/2'
'-z+1/2, x, -y+1/2'
'y+1/2, z, x+1/2'
'-y+1/2, z, -x+1/2'
'y+1/2, -z, -x+1/2'
'-y+1/2, -z, x+1/2'
'y+1/2, x, z+1/2'
'-y+1/2, -x, z+1/2'
'y+1/2, -x, -z+1/2'
'-y+1/2, x, -z+1/2'
'x+1/2, z, y+1/2'
'-x+1/2, z, -y+1/2'
'-x+1/2, -z, y+1/2'
'x+1/2, -z, -y+1/2'
'z+1/2, y, x+1/2'
'z+1/2, -y, -x+1/2'
'-z+1/2, y, -x+1/2'
'-z+1/2, -y, x+1/2'
'x+1/2, y+1/2, z'
'-x+1/2, -y+1/2, z'
'-x+1/2, y+1/2, -z'
'x+1/2, -y+1/2, -z'
'z+1/2, x+1/2, y'
'z+1/2, -x+1/2, -y'
'-z+1/2, -x+1/2, y'
'-z+1/2, x+1/2, -y'
'y+1/2, z+1/2, x'
'-y+1/2, z+1/2, -x'
'y+1/2, -z+1/2, -x'
'-y+1/2, -z+1/2, x'
'y+1/2, x+1/2, z'
'-y+1/2, -x+1/2, z'
'y+1/2, -x+1/2, -z'
'-y+1/2, x+1/2, -z'
'x+1/2, z+1/2, y'
'-x+1/2, z+1/2, -y'
'-x+1/2, -z+1/2, y'
'x+1/2, -z+1/2, -y'
'z+1/2, y+1/2, x'
'z+1/2, -y+1/2, -x'
'-z+1/2, y+1/2, -x'
'-z+1/2, -y+1/2, x'

_cell_length_a                   32.6504(13)
_cell_length_b                   32.6504(13)
_cell_length_c                   32.6504(13)
_cell_angle_alpha                90.00
_cell_angle_beta                 90.00
_cell_angle_gamma                90.00
_cell_volume                     34807(2)
_cell_formula_units_Z            4
_cell_measurement_temperature    258(2)
_cell_measurement_reflns_used    6209
_cell_measurement_theta_min      2.16
_cell_measurement_theta_max      20.75

_exptl_crystal_description       cube
_exptl_crystal_colour            orange
_exptl_crystal_size_max          0.21
_exptl_crystal_size_mid          0.18
_exptl_crystal_size_min          0.17
_exptl_crystal_density_meas      ?
_exptl_crystal_density_diffrn    0.766
_exptl_crystal_density_method    'not measured'
_exptl_crystal_F_000             8096
_exptl_absorpt_coefficient_mu    0.605
_exptl_absorpt_correction_type   multi-scan
_exptl_absorpt_correction_T_min  0.884
_exptl_absorpt_correction_T_max  0.904
_exptl_absorpt_process_details   'Blessing, Acta Cryst. (1995) A51 33-58'
_exptl_special_details           
;
The only optimal crystals suitable for analysis were small and weakly
diffracting. Optimization of synthetic conditions could yield larger
crystals, however these specimens had only a very low degree of
crystallinity and presented little coherent scattering compared to
that of smaller crystals. Owing to these challenges observed strong
(high intensity) scattering was limited to 1.0 angstrom, with higher
resolution data present but weak (low intensity). Increasing the exposure
time of the crystal to X-rays did not ameliorate the quality of the data
as this woulThe only optimal crystals suitable for analysis were small
and weakly diffracting. Optimization of synthetic conditions could yield larger
crystals, however these specimens had only a very low degree of
crystallinity and presented little coherent scattering compared to
that of smaller crystals. Additionally, diffuse scattering from the highly
disordered solvent in the large void spaces within the crystal and from
the capillary used mount the crystal contributes to the background
noise and the 'washing out' of high angle data.
;

_diffrn_ambient_temperature      258(2)
_diffrn_radiation_wavelength     0.71073
_diffrn_radiation_type           MoK\a
_diffrn_radiation_source         'fine-focus sealed tube'
_diffrn_radiation_monochromator  graphite
_diffrn_measurement_device_type  'CCD area detector'
_diffrn_measurement_method       'phi and omega scans'
_diffrn_detector_area_resol_mean ?
_diffrn_standards_number         ?
_diffrn_standards_interval_count ?
_diffrn_standards_interval_time  ?
_diffrn_standards_decay_%        ?
_diffrn_reflns_number            59634
_diffrn_reflns_av_R_equivalents  0.1738
_diffrn_reflns_av_sigmaI/netI    0.0597
_diffrn_reflns_limit_h_min       -42
_diffrn_reflns_limit_h_max       38
_diffrn_reflns_limit_k_min       -24
_diffrn_reflns_limit_k_max       42
_diffrn_reflns_limit_l_min       -42
_diffrn_reflns_limit_l_max       34
_diffrn_reflns_theta_min         1.08
_diffrn_reflns_theta_max         27.50
_reflns_number_total             3845
_reflns_number_gt                2380
_reflns_threshold_expression     >2sigma(I)

_computing_data_collection       'Bruker SMART'
_computing_cell_refinement       'Bruker SMART'
_computing_data_reduction        'Bruker SAINT'
_computing_structure_solution    'SHELXS-97 (Sheldrick, 1990)'
_computing_structure_refinement  'SHELXL-97 (Sheldrick, 1997)'
_computing_molecular_graphics    'Bruker SHELXTL'
_computing_publication_material  'Bruker SHELXTL'

_refine_special_details          
;
Refinement of F^2^ against ALL reflections. The weighted R-factor wR and
goodness of fit S are based on F^2^, conventional R-factors R are based
on F, with F set to zero for negative F^2^. The threshold expression of
F^2^ > 2sigma(F^2^) is used only for calculating R-factors(gt) etc. and is
not relevant to the choice of reflections for refinement. R-factors based
on F^2^ are statistically about twice as large as those based on F, and R-
factors based on ALL data will be even larger.
;

_refine_ls_structure_factor_coef Fsqd
_refine_ls_matrix_type           full
_refine_ls_weighting_scheme      calc
_refine_ls_weighting_details     
'calc w=1/[\s^2^(Fo^2^)+(0.1785P)^2^+0.0000P] where P=(Fo^2^+2Fc^2^)/3'
_atom_sites_solution_primary     direct
_atom_sites_solution_secondary   difmap
_atom_sites_solution_hydrogens   geom
_refine_ls_hydrogen_treatment    constr
_refine_ls_extinction_method     SHELXL
_refine_ls_extinction_coef       0.00078(10)
_refine_ls_extinction_expression Fc^*^=kFc[1+0.001xFc^2^\l^3^/sin(2\q)]^-1/4^
_refine_ls_abs_structure_details 'Flack H D (1983), 1830 Friedel pairs'
_refine_ls_abs_structure_Flack   0.0(3)
_refine_ls_number_reflns         3845
_refine_ls_number_parameters     100
_refine_ls_number_restraints     4
_refine_ls_R_factor_all          0.1522
_refine_ls_R_factor_gt           0.0979
_refine_ls_wR_factor_ref         0.3060
_refine_ls_wR_factor_gt          0.2675
_refine_ls_goodness_of_fit_ref   1.168
_refine_ls_restrained_S_all      1.169
_refine_ls_shift/su_max          0.000
_refine_ls_shift/su_mean         0.000

loop_
_atom_site_label
_atom_site_type_symbol
_atom_site_fract_x
_atom_site_fract_y
_atom_site_fract_z
_atom_site_U_iso_or_equiv
_atom_site_adp_type
_atom_site_occupancy
_atom_site_symmetry_multiplicity
_atom_site_calc_flag
_atom_site_refinement_flags
_atom_site_disorder_assembly
_atom_site_disorder_group
Fe1 Fe 0.41933(4) 0.34726(3) 0.15274(3) 0.0434(4) Uani 1 2 d SD . .
S2 S 0.37989(7) 0.37989(7) 0.23674(8) 0.0551(7) Uani 1 2 d S . .
O2 O 0.37031(18) 0.37031(18) 0.12969(18) 0.045(3) Uani 1 6 d S . .
O3 O 0.40096(17) 0.34869(18) 0.21094(15) 0.0555(13) Uani 1 1 d . . .
O1 O 0.44953(17) 0.40085(15) 0.15772(19) 0.0595(14) Uani 1 1 d . . .
N1 N 0.4766(3) 0.3222(2) 0.1778(2) 0.061(2) Uani 1 2 d SD . .
O4 O 0.3574(2) 0.3574(2) 0.2676(3) 0.082(3) Uani 1 2 d S . .
C1 C 0.4701(2) 0.4701(2) 0.1589(4) 0.059(3) Uani 1 2 d S . .
C2 C 0.4377(2) 0.4377(2) 0.1583(4) 0.054(3) Uani 1 2 d S . .
C3 C 0.4594(2) 0.5105(3) 0.1595(5) 0.086(3) Uani 1 1 d . . .
H3 H 0.4319 0.5179 0.1599 0.104 Uiso 1 1 calc R . .
O5 O 0.4091(2) 0.4091(2) 0.2534(3) 0.093(3) Uani 1 2 d S . .
C4 C 0.4946(3) 0.3388(4) 0.2106(3) 0.089(3) Uani 1 1 d D . .
H4 H 0.4828 0.3617 0.2228 0.107 Uiso 1 1 calc R . .
C5 C 0.5313(4) 0.3225(5) 0.2274(5) 0.128(6) Uani 1 1 d D . .
H5 H 0.5418 0.3340 0.2512 0.153 Uiso 1 1 calc R . .
C6 C 0.5520(6) 0.2903(5) 0.2097(5) 0.161(12) Uani 1 2 d SD . .
H6 H 0.5775 0.2813 0.2187 0.193 Uiso 1 2 calc SR . .
O1W O 0.3730(6) 0.2500(5) 0.2500(5) 0.43(4) Uiso 1 4 d SR . .
O2W O 0.2544(6) 0.3419(5) 0.2500(5) 0.46(4) Uiso 0.25 1 d PR . .

loop_
_atom_site_aniso_label
_atom_site_aniso_U_11
_atom_site_aniso_U_22
_atom_site_aniso_U_33
_atom_site_aniso_U_23
_atom_site_aniso_U_13
_atom_site_aniso_U_12
Fe1 0.0429(7) 0.0437(5) 0.0437(5) 0.0079(6) 0.0051(4) -0.0051(4)
S2 0.0629(11) 0.0629(11) 0.0397(13) 0.0040(9) 0.0040(9) 0.0014(14)
O2 0.045(3) 0.045(3) 0.045(3) 0.010(3) 0.010(3) -0.010(3)
O3 0.062(3) 0.063(3) 0.042(3) 0.009(3) 0.002(2) 0.005(3)
O1 0.054(3) 0.046(3) 0.079(4) 0.008(3) -0.001(3) -0.017(2)
N1 0.050(5) 0.066(4) 0.066(4) 0.013(5) 0.003(3) -0.003(3)
O4 0.093(4) 0.093(4) 0.061(5) 0.027(3) 0.027(3) 0.004(5)
C1 0.051(4) 0.051(4) 0.074(8) 0.004(4) 0.004(4) -0.016(5)
C2 0.054(4) 0.054(4) 0.054(6) 0.001(3) 0.001(3) -0.011(5)
C3 0.038(4) 0.057(5) 0.164(11) 0.001(6) 0.005(6) -0.005(4)
O5 0.093(5) 0.093(5) 0.094(7) -0.026(4) -0.026(4) -0.013(6)
C4 0.071(6) 0.094(8) 0.103(8) 0.017(6) -0.025(6) -0.003(6)
C5 0.084(9) 0.187(17) 0.113(11) 0.011(11) -0.036(8) 0.008(10)
C6 0.075(14) 0.20(2) 0.20(2) 0.08(2) -0.014(9) 0.014(9)

_geom_special_details            
;
All esds (except the esd in the dihedral angle between two l.s. planes)
are estimated using the full covariance matrix. The cell esds are taken
into account individually in the estimation of esds in distances, angles
and torsion angles; correlations between esds in cell parameters are only
used when they are defined by crystal symmetry. An approximate (isotropic)
treatment of cell esds is used for estimating esds involving l.s. planes.
;

loop_
_geom_bond_atom_site_label_1
_geom_bond_atom_site_label_2
_geom_bond_distance
_geom_bond_site_symmetry_2
_geom_bond_publ_flag
Fe1 O2 1.9221(15) . ?
Fe1 O3 1.993(5) . ?
Fe1 O3 1.994(5) 44 ?
Fe1 O1 2.015(5) . ?
Fe1 O1 2.015(5) 44 ?
Fe1 N1 2.198(10) . ?
S2 O4 1.446(9) . ?
S2 O5 1.455(10) . ?
S2 O3 1.490(6) . ?
S2 O3 1.490(6) 13 ?
O2 Fe1 1.9221(15) 56 ?
O2 Fe1 1.9222(14) 35 ?
O1 C2 1.264(7) . ?
N1 C4 1.339(10) 44 ?
N1 C4 1.339(10) . ?
C1 C3 1.366(11) 13 ?
C1 C3 1.366(10) . ?
C1 C2 1.494(15) . ?
C2 O1 1.264(7) 13 ?
C3 C3 1.389(16) 14_665 ?
C3 H3 0.9300 . ?
C4 C5 1.421(13) . ?
C4 H4 0.9300 . ?
C5 C6 1.375(14) . ?
C5 H5 0.9300 . ?
C6 C5 1.375(14) 44 ?
C6 H6 0.9300 . ?
O1W O2W 1.03(3) 13 ?
O1W O2W 1.03(3) 35 ?
O1W O2W 1.03(3) 9 ?
O1W O2W 1.03(3) 39 ?
O2W O1W 1.03(3) 5 ?

loop_
_geom_angle_atom_site_label_1
_geom_angle_atom_site_label_2
_geom_angle_atom_site_label_3
_geom_angle
_geom_angle_site_symmetry_1
_geom_angle_site_symmetry_3
_geom_angle_publ_flag
O2 Fe1 O3 96.5(3) . . ?
O2 Fe1 O3 96.5(3) . 44 ?
O3 Fe1 O3 87.4(3) . 44 ?
O2 Fe1 O1 95.7(3) . . ?
O3 Fe1 O1 92.9(2) . . ?
O3 Fe1 O1 167.7(2) 44 . ?
O2 Fe1 O1 95.7(3) . 44 ?
O3 Fe1 O1 167.7(2) . 44 ?
O3 Fe1 O1 92.9(2) 44 44 ?
O1 Fe1 O1 84.3(4) . 44 ?
O2 Fe1 N1 178.1(4) . . ?
O3 Fe1 N1 84.8(2) . . ?
O3 Fe1 N1 84.8(2) 44 . ?
O1 Fe1 N1 82.9(2) . . ?
O1 Fe1 N1 82.9(2) 44 . ?
O4 S2 O5 113.8(7) . . ?
O4 S2 O3 106.3(3) . . ?
O5 S2 O3 110.9(3) . . ?
O4 S2 O3 106.3(3) . 13 ?
O5 S2 O3 110.9(3) . 13 ?
O3 S2 O3 108.2(4) . 13 ?
Fe1 O2 Fe1 119.92(3) . 56 ?
Fe1 O2 Fe1 119.92(3) . 35 ?
Fe1 O2 Fe1 119.92(3) 56 35 ?
S2 O3 Fe1 133.9(3) . . ?
C2 O1 Fe1 132.7(6) . . ?
C4 N1 C4 117.1(12) 44 . ?
C4 N1 Fe1 121.5(6) 44 . ?
C4 N1 Fe1 121.5(6) . . ?
C3 C1 C3 119.5(10) 13 . ?
C3 C1 C2 120.2(5) 13 . ?
C3 C1 C2 120.2(5) . . ?
O1 C2 O1 125.5(10) 13 . ?
O1 C2 C1 117.2(5) 13 . ?
O1 C2 C1 117.2(5) . . ?
C1 C3 C3 120.2(5) . 14_665 ?
C1 C3 H3 119.9 . . ?
C3 C3 H3 119.9 14_665 . ?
N1 C4 C5 121.8(12) . . ?
N1 C4 H4 119.1 . . ?
C5 C4 H4 119.1 . . ?
C6 C5 C4 122.6(16) . . ?
C6 C5 H5 118.7 . . ?
C4 C5 H5 118.7 . . ?
C5 C6 C5 113.6(19) . 44 ?
C5 C6 H6 123.2 . . ?
C5 C6 H6 123.2 44 . ?

loop_
_geom_torsion_atom_site_label_1
_geom_torsion_atom_site_label_2
_geom_torsion_atom_site_label_3
_geom_torsion_atom_site_label_4
_geom_torsion
_geom_torsion_site_symmetry_1
_geom_torsion_site_symmetry_2
_geom_torsion_site_symmetry_3
_geom_torsion_site_symmetry_4
_geom_torsion_publ_flag
O3 Fe1 O2 Fe1 48.8(6) . . . 56 ?
O3 Fe1 O2 Fe1 136.9(5) 44 . . 56 ?
O1 Fe1 O2 Fe1 -44.7(6) . . . 56 ?
O1 Fe1 O2 Fe1 -129.6(5) 44 . . 56 ?
O3 Fe1 O2 Fe1 -136.9(5) . . . 35 ?
O3 Fe1 O2 Fe1 -48.8(6) 44 . . 35 ?
O1 Fe1 O2 Fe1 129.6(5) . . . 35 ?
O1 Fe1 O2 Fe1 44.7(6) 44 . . 35 ?
O4 S2 O3 Fe1 151.9(6) . . . . ?
O5 S2 O3 Fe1 -83.8(6) . . . . ?
O3 S2 O3 Fe1 38.1(7) 13 . . . ?
O2 Fe1 O3 S2 -44.6(5) . . . . ?
O3 Fe1 O3 S2 -140.9(4) 44 . . . ?
O1 Fe1 O3 S2 51.5(5) . . . . ?
O1 Fe1 O3 S2 127.8(11) 44 . . . ?
N1 Fe1 O3 S2 134.1(5) . . . . ?
O2 Fe1 O1 C2 19.5(10) . . . . ?
O3 Fe1 O1 C2 -77.3(10) . . . . ?
O3 Fe1 O1 C2 -168.1(11) 44 . . . ?
O1 Fe1 O1 C2 114.7(9) 44 . . . ?
N1 Fe1 O1 C2 -161.7(10) . . . . ?
O3 Fe1 N1 C4 133.5(9) . . . 44 ?
O3 Fe1 N1 C4 45.7(8) 44 . . 44 ?
O1 Fe1 N1 C4 -132.9(9) . . . 44 ?
O1 Fe1 N1 C4 -47.8(8) 44 . . 44 ?
O3 Fe1 N1 C4 -45.7(8) . . . . ?
O3 Fe1 N1 C4 -133.5(9) 44 . . . ?
O1 Fe1 N1 C4 47.8(8) . . . . ?
O1 Fe1 N1 C4 132.9(9) 44 . . . ?
Fe1 O1 C2 O1 4(2) . . . 13 ?
Fe1 O1 C2 C1 -175.0(7) . . . . ?
C3 C1 C2 O1 180.0(12) 13 . . 13 ?
C3 C1 C2 O1 0.9(19) . . . 13 ?
C3 C1 C2 O1 -0.9(19) 13 . . . ?
C3 C1 C2 O1 180.0(12) . . . . ?
C3 C1 C3 C3 1.9(19) 13 . . 14_665 ?
C2 C1 C3 C3 -179.0(8) . . . 14_665 ?
C4 N1 C4 C5 0(2) 44 . . . ?
Fe1 N1 C4 C5 179.1(11) . . . . ?
N1 C4 C5 C6 4(3) . . . . ?
C4 C5 C6 C5 -7(3) . . . 44 ?

_diffrn_measured_fraction_theta_max 1.000
_diffrn_reflns_theta_full        27.50
_diffrn_measured_fraction_theta_full 1.000
_refine_diff_density_max         0.945
_refine_diff_density_min         -1.268
_refine_diff_density_rms         0.235
####################################################################### 
# 
# This file contains crystal structure data downloaded from the 
# Cambridge Structural Database (CSD) hosted by the Cambridge 
# Crystallographic Data Centre (CCDC).
# 
# Full information about CCDC data access policies and citation 
# guidelines are available at http://www.ccdc.cam.ac.uk/access/V1 
# 
# Audit and citation data items may have been added by the CCDC. 
# Please retain this information to preserve the provenance of 
# this file and to allow appropriate attribution of the data. 
# 
#######################################################################

data_sqzdIRMOP-50
_audit_block_doi                 10.5517/cc95q8f
_database_code_depnum_ccdc_archive 'CCDC 273614'
loop_
_citation_id
_citation_doi
_citation_year
1 10.1021/ja042802q 2005
_audit_update_record             
;
2005-06-01 deposited with the CCDC.	2019-02-14 downloaded from the CCDC.
;

_audit_creation_method           SHELXL-97
_chemical_name_systematic        
;
?
;
_chemical_name_common            IRMOP-50
_chemical_melting_point          ?
_chemical_formula_moiety         'C108 H84 Fe12 N12 O76 S12'
_chemical_formula_sum            'C108 H84 Fe12 N12 O76 S12'
_chemical_formula_weight         3820.79

loop_
_atom_type_symbol
_atom_type_description
_atom_type_scat_dispersion_real
_atom_type_scat_dispersion_imag
_atom_type_scat_source
C C 0.0033 0.0016 'International Tables Vol C Tables 4.2.6.8 and 6.1.1.4'
H H 0.0000 0.0000 'International Tables Vol C Tables 4.2.6.8 and 6.1.1.4'
N N 0.0061 0.0033 'International Tables Vol C Tables 4.2.6.8 and 6.1.1.4'
O O 0.0106 0.0060 'International Tables Vol C Tables 4.2.6.8 and 6.1.1.4'
S S 0.1246 0.1234 'International Tables Vol C Tables 4.2.6.8 and 6.1.1.4'
Fe Fe 0.3463 0.8444 'International Tables Vol C Tables 4.2.6.8 and 6.1.1.4'

_symmetry_cell_setting           Cubic
_symmetry_space_group_name_H-M   F-43m
_symmetry_space_group_name_Hall  F-423

loop_
_symmetry_equiv_pos_as_xyz
'x, y, z'
'-x, -y, z'
'-x, y, -z'
'x, -y, -z'
'z, x, y'
'z, -x, -y'
'-z, -x, y'
'-z, x, -y'
'y, z, x'
'-y, z, -x'
'y, -z, -x'
'-y, -z, x'
'y, x, z'
'-y, -x, z'
'y, -x, -z'
'-y, x, -z'
'x, z, y'
'-x, z, -y'
'-x, -z, y'
'x, -z, -y'
'z, y, x'
'z, -y, -x'
'-z, y, -x'
'-z, -y, x'
'x, y+1/2, z+1/2'
'-x, -y+1/2, z+1/2'
'-x, y+1/2, -z+1/2'
'x, -y+1/2, -z+1/2'
'z, x+1/2, y+1/2'
'z, -x+1/2, -y+1/2'
'-z, -x+1/2, y+1/2'
'-z, x+1/2, -y+1/2'
'y, z+1/2, x+1/2'
'-y, z+1/2, -x+1/2'
'y, -z+1/2, -x+1/2'
'-y, -z+1/2, x+1/2'
'y, x+1/2, z+1/2'
'-y, -x+1/2, z+1/2'
'y, -x+1/2, -z+1/2'
'-y, x+1/2, -z+1/2'
'x, z+1/2, y+1/2'
'-x, z+1/2, -y+1/2'
'-x, -z+1/2, y+1/2'
'x, -z+1/2, -y+1/2'
'z, y+1/2, x+1/2'
'z, -y+1/2, -x+1/2'
'-z, y+1/2, -x+1/2'
'-z, -y+1/2, x+1/2'
'x+1/2, y, z+1/2'
'-x+1/2, -y, z+1/2'
'-x+1/2, y, -z+1/2'
'x+1/2, -y, -z+1/2'
'z+1/2, x, y+1/2'
'z+1/2, -x, -y+1/2'
'-z+1/2, -x, y+1/2'
'-z+1/2, x, -y+1/2'
'y+1/2, z, x+1/2'
'-y+1/2, z, -x+1/2'
'y+1/2, -z, -x+1/2'
'-y+1/2, -z, x+1/2'
'y+1/2, x, z+1/2'
'-y+1/2, -x, z+1/2'
'y+1/2, -x, -z+1/2'
'-y+1/2, x, -z+1/2'
'x+1/2, z, y+1/2'
'-x+1/2, z, -y+1/2'
'-x+1/2, -z, y+1/2'
'x+1/2, -z, -y+1/2'
'z+1/2, y, x+1/2'
'z+1/2, -y, -x+1/2'
'-z+1/2, y, -x+1/2'
'-z+1/2, -y, x+1/2'
'x+1/2, y+1/2, z'
'-x+1/2, -y+1/2, z'
'-x+1/2, y+1/2, -z'
'x+1/2, -y+1/2, -z'
'z+1/2, x+1/2, y'
'z+1/2, -x+1/2, -y'
'-z+1/2, -x+1/2, y'
'-z+1/2, x+1/2, -y'
'y+1/2, z+1/2, x'
'-y+1/2, z+1/2, -x'
'y+1/2, -z+1/2, -x'
'-y+1/2, -z+1/2, x'
'y+1/2, x+1/2, z'
'-y+1/2, -x+1/2, z'
'y+1/2, -x+1/2, -z'
'-y+1/2, x+1/2, -z'
'x+1/2, z+1/2, y'
'-x+1/2, z+1/2, -y'
'-x+1/2, -z+1/2, y'
'x+1/2, -z+1/2, -y'
'z+1/2, y+1/2, x'
'z+1/2, -y+1/2, -x'
'-z+1/2, y+1/2, -x'
'-z+1/2, -y+1/2, x'

_cell_length_a                   32.6504(13)
_cell_length_b                   32.6504(13)
_cell_length_c                   32.6504(13)
_cell_angle_alpha                90.00
_cell_angle_beta                 90.00
_cell_angle_gamma                90.00
_cell_volume                     34807(2)
_cell_formula_units_Z            4
_cell_measurement_temperature    258(2)
_cell_measurement_reflns_used    6209
_cell_measurement_theta_min      2.16
_cell_measurement_theta_max      20.75

_exptl_crystal_description       cube
_exptl_crystal_colour            orange
_exptl_crystal_size_max          0.21
_exptl_crystal_size_mid          0.18
_exptl_crystal_size_min          0.17
_exptl_crystal_density_meas      ?
_exptl_crystal_density_diffrn    0.729
_exptl_crystal_density_method    'not measured'
_exptl_crystal_F_000             7712
_exptl_absorpt_coefficient_mu    0.601
_exptl_absorpt_correction_type   multi-scan
_exptl_absorpt_correction_T_min  0.884
_exptl_absorpt_correction_T_max  0.905
_exptl_absorpt_process_details   'Blessing, Acta Cryst. (1995) A51 33-58'
_exptl_special_details           
;
The only optimal crystals suitable for analysis were small and weakly
diffracting. Optimization of synthetic conditions could yield larger
crystals, however these specimens had only a very low degree of
crystallinity and presented little coherent scattering compared to
that of smaller crystals. Owing to these challenges observed strong
(high intensity) scattering was limited to 1.0 angstrom, with higher
resolution data present but weak (low intensity). Increasing the exposure
time of the crystal to X-rays did not ameliorate the quality of the data
as this woulThe only optimal crystals suitable for analysis were small
and weakly diffracting. Optimization of synthetic conditions could yield larger
crystals, however these specimens had only a very low degree of
crystallinity and presented little coherent scattering compared to
that of smaller crystals. Additionally, diffuse scattering from the highly
disordered solvent in the large void spaces within the crystal and from
the capillary used mount the crystal contributes to the background
noise and the 'washing out' of high angle data.

This model has been treated with the SQUEEZE subroutine of PLATON.
;

_diffrn_ambient_temperature      258(2)
_diffrn_radiation_wavelength     0.71073
_diffrn_radiation_type           MoK\a
_diffrn_radiation_source         'fine-focus sealed tube'
_diffrn_radiation_monochromator  graphite
_diffrn_measurement_device_type  'CCD area detector'
_diffrn_measurement_method       'phi and omega scans'
_diffrn_detector_area_resol_mean ?
_diffrn_standards_number         ?
_diffrn_standards_interval_count ?
_diffrn_standards_interval_time  ?
_diffrn_standards_decay_%        ?
_diffrn_reflns_number            59634
_diffrn_reflns_av_R_equivalents  0.1435
_diffrn_reflns_av_sigmaI/netI    0.0555
_diffrn_reflns_limit_h_min       -42
_diffrn_reflns_limit_h_max       38
_diffrn_reflns_limit_k_min       -24
_diffrn_reflns_limit_k_max       42
_diffrn_reflns_limit_l_min       -42
_diffrn_reflns_limit_l_max       34
_diffrn_reflns_theta_min         1.08
_diffrn_reflns_theta_max         27.50
_reflns_number_total             3845
_reflns_number_gt                2719
_reflns_threshold_expression     >2sigma(I)

_computing_data_collection       'Bruker SMART'
_computing_cell_refinement       'Bruker SMART'
_computing_data_reduction        'Bruker SAINT'
_computing_structure_solution    'SHELXS-97 (Sheldrick, 1990)'
_computing_structure_refinement  'SHELXL-97 (Sheldrick, 1997)'
_computing_molecular_graphics    'Bruker SHELXTL'
_computing_publication_material  'Bruker SHELXTL'

_refine_special_details          
;
Refinement of F^2^ against ALL reflections. The weighted R-factor wR and
goodness of fit S are based on F^2^, conventional R-factors R are based
on F, with F set to zero for negative F^2^. The threshold expression of
F^2^ > 2sigma(F^2^) is used only for calculating R-factors(gt) etc. and is
not relevant to the choice of reflections for refinement. R-factors based
on F^2^ are statistically about twice as large as those based on F, and R-
factors based on ALL data will be even larger.

Due to the large void space in the structure, solvent in the structure
is highly disordered. Complete assignment of scattering factors to all residual
electron density was therfore not possible.
Assigment of the largest peaks in the Fourier difference map to carbon
and nitrogen was made; these were refined anisotropically if possible.
All other electron density in the void space was treated as separated
oxygen atoms with large thermal parameters. Cations in the structure could
not be resolved as they are components of the highly disordered
portion of the structure.

Fourier difference maps revealed the presence of disordered solvent
molecules within the lattice which were ulitmately modeled through the
use of the PLATON software suite: Spek, A.L. (1990), Acta Crystallogr.
A46, C-34. A sum total of 8202 electrons were accounted for in void
space of 23516.3 A^3.

;

_refine_ls_structure_factor_coef Fsqd
_refine_ls_matrix_type           full
_refine_ls_weighting_scheme      calc
_refine_ls_weighting_details     
'calc w=1/[\s^2^(Fo^2^)+(0.0333P)^2^+0.0000P] where P=(Fo^2^+2Fc^2^)/3'
_atom_sites_solution_primary     direct
_atom_sites_solution_secondary   difmap
_atom_sites_solution_hydrogens   geom
_refine_ls_hydrogen_treatment    constr
_refine_ls_extinction_method     SHELXL
_refine_ls_extinction_coef       0.000076(8)
_refine_ls_extinction_expression Fc^*^=kFc[1+0.001xFc^2^\l^3^/sin(2\q)]^-1/4^
_refine_ls_abs_structure_details 'Flack H D (1983), 1830 Friedel pairs'
_refine_ls_abs_structure_Flack   0.0(2)
_refine_ls_number_reflns         3845
_refine_ls_number_parameters     98
_refine_ls_number_restraints     0
_refine_ls_R_factor_all          0.0789
_refine_ls_R_factor_gt           0.0459
_refine_ls_wR_factor_ref         0.0781
_refine_ls_wR_factor_gt          0.0707
_refine_ls_goodness_of_fit_ref   0.939
_refine_ls_restrained_S_all      0.939
_refine_ls_shift/su_max          0.001
_refine_ls_shift/su_mean         0.000

loop_
_atom_site_label
_atom_site_type_symbol
_atom_site_fract_x
_atom_site_fract_y
_atom_site_fract_z
_atom_site_U_iso_or_equiv
_atom_site_adp_type
_atom_site_occupancy
_atom_site_symmetry_multiplicity
_atom_site_calc_flag
_atom_site_refinement_flags
_atom_site_disorder_assembly
_atom_site_disorder_group
Fe1 Fe 0.419364(15) 0.347291(11) 0.152709(11) 0.04151(13) Uani 1 2 d S . .
S2 S 0.37997(2) 0.37997(2) 0.23684(3) 0.0537(3) Uani 1 2 d S . .
O2 O 0.37057(6) 0.37057(6) 0.12943(6) 0.0453(11) Uani 1 6 d S . .
O3 O 0.40132(5) 0.34919(6) 0.21083(5) 0.0537(5) Uani 1 1 d . . .
O1 O 0.44913(5) 0.40066(5) 0.15766(6) 0.0576(5) Uani 1 1 d . . .
N1 N 0.47650(10) 0.32242(7) 0.17758(7) 0.0599(9) Uani 1 2 d S . .
O4 O 0.35810(7) 0.35810(7) 0.26842(8) 0.0834(10) Uani 1 2 d S . .
C1 C 0.46995(7) 0.46995(7) 0.15876(13) 0.0576(11) Uani 1 2 d S . .
C2 C 0.43734(8) 0.43734(8) 0.15849(12) 0.0509(10) Uani 1 2 d S . .
C3 C 0.45904(8) 0.51095(8) 0.15989(12) 0.0834(11) Uani 1 1 d . . .
H3 H 0.4315 0.5183 0.1607 0.100 Uiso 1 1 calc R . .
O5 O 0.40926(7) 0.40926(7) 0.25348(9) 0.0926(10) Uani 1 2 d S . .
C4 C 0.49445(10) 0.33949(11) 0.21040(11) 0.0903(11) Uani 1 1 d . . .
H4 H 0.4820 0.3622 0.2222 0.108 Uiso 1 1 calc R . .
C5 C 0.53039(14) 0.32524(15) 0.22772(17) 0.1301(18) Uani 1 1 d . . .
H5 H 0.5424 0.3378 0.2503 0.156 Uiso 1 1 calc R . .
C6 C 0.5474(2) 0.29095(16) 0.20905(16) 0.211(6) Uani 1 2 d S . .
H6 H 0.5713 0.2800 0.2200 0.253 Uiso 1 2 calc SR . .

loop_
_atom_site_aniso_label
_atom_site_aniso_U_11
_atom_site_aniso_U_22
_atom_site_aniso_U_33
_atom_site_aniso_U_23
_atom_site_aniso_U_13
_atom_site_aniso_U_12
Fe1 0.0410(3) 0.04177(19) 0.04177(19) 0.0077(3) 0.00511(17) -0.00511(17)
S2 0.0613(4) 0.0613(4) 0.0383(5) 0.0041(4) 0.0041(4) 0.0006(6)
O2 0.0453(11) 0.0453(11) 0.0453(11) 0.0145(11) 0.0145(11) -0.0145(11)
O3 0.0584(11) 0.0623(12) 0.0405(10) 0.0098(10) 0.0049(8) 0.0052(10)
O1 0.0506(11) 0.0407(10) 0.0815(14) 0.0047(11) -0.0022(11) -0.0145(9)
N1 0.050(2) 0.0648(14) 0.0648(14) 0.016(2) 0.0056(12) -0.0056(12)
O4 0.0950(15) 0.0950(15) 0.0600(18) 0.0280(12) 0.0280(12) 0.0080(18)
C1 0.0460(14) 0.0460(14) 0.081(3) 0.0061(14) 0.0061(14) -0.0168(19)
C2 0.0528(15) 0.0528(15) 0.047(2) 0.0036(14) 0.0036(14) -0.015(2)
C3 0.0366(16) 0.0585(19) 0.155(3) 0.001(2) 0.0021(19) -0.0070(14)
O5 0.0951(16) 0.0951(16) 0.088(2) -0.0245(13) -0.0245(13) -0.017(2)
C4 0.066(2) 0.094(3) 0.111(3) 0.014(2) -0.027(2) 0.002(2)
C5 0.082(3) 0.159(5) 0.149(4) -0.009(4) -0.045(3) 0.032(3)
C6 0.058(5) 0.287(10) 0.287(10) 0.198(12) 0.000(3) 0.000(3)

_geom_special_details            
;
All esds (except the esd in the dihedral angle between two l.s. planes)
are estimated using the full covariance matrix. The cell esds are taken
into account individually in the estimation of esds in distances, angles
and torsion angles; correlations between esds in cell parameters are only
used when they are defined by crystal symmetry. An approximate (isotropic)
treatment of cell esds is used for estimating esds involving l.s. planes.
;

loop_
_geom_bond_atom_site_label_1
_geom_bond_atom_site_label_2
_geom_bond_distance
_geom_bond_site_symmetry_2
_geom_bond_publ_flag
Fe1 O2 1.9218(5) . ?
Fe1 O3 1.9880(16) . ?
Fe1 O1 2.0018(17) . ?
Fe1 N1 2.191(4) . ?
S2 O4 1.443(3) . ?
S2 O5 1.458(3) . ?
S2 O3 1.4889(18) . ?
O1 C2 1.258(2) . ?
N1 C4 1.342(3) . ?
C1 C3 1.386(3) . ?
C1 C2 1.506(5) . ?
C3 H3 0.9300 . ?
C4 C5 1.383(5) . ?
C4 H4 0.9300 . ?
C5 C6 1.391(5) . ?
C5 H5 0.9300 . ?
C6 H6 0.9300 . ?

loop_
_geom_angle_atom_site_label_1
_geom_angle_atom_site_label_2
_geom_angle_atom_site_label_3
_geom_angle
_geom_angle_site_symmetry_1
_geom_angle_site_symmetry_3
_geom_angle_publ_flag
O2 Fe1 O3 96.86(9) . 44 ?
O2 Fe1 O3 96.86(9) . . ?
O3 Fe1 O3 88.38(11) 44 . ?
O2 Fe1 O1 95.17(9) . 44 ?
O3 Fe1 O1 92.27(8) 44 44 ?
O3 Fe1 O1 167.79(8) . 44 ?
O2 Fe1 O1 95.17(9) . . ?
O3 Fe1 O1 167.79(8) 44 . ?
O3 Fe1 O1 92.27(8) . . ?
O1 Fe1 O1 84.54(11) 44 . ?
O2 Fe1 N1 177.61(14) . . ?
O3 Fe1 N1 84.84(7) 44 . ?
O3 Fe1 N1 84.84(7) . . ?
O1 Fe1 N1 83.07(8) 44 . ?
O1 Fe1 N1 83.07(8) . . ?
O4 S2 O5 112.51(19) . . ?
O4 S2 O3 107.77(10) . . ?
O5 S2 O3 110.38(10) . . ?
O4 S2 O3 107.77(10) . 13 ?
O5 S2 O3 110.39(10) . 13 ?
O3 S2 O3 107.85(14) . 13 ?
Fe1 O2 Fe1 119.953(8) . 35 ?
Fe1 O2 Fe1 119.953(8) . 56 ?
Fe1 O2 Fe1 119.951(8) 35 56 ?
S2 O3 Fe1 134.77(11) . . ?
C2 O1 Fe1 133.0(2) . . ?
C4 N1 C4 118.2(4) . 44 ?
C4 N1 Fe1 120.9(2) . . ?
C4 N1 Fe1 120.9(2) 44 . ?
C3 C1 C3 119.7(3) 13 . ?
C3 C1 C2 120.09(17) 13 . ?
C3 C1 C2 120.09(17) . . ?
O1 C2 O1 125.6(3) . 13 ?
O1 C2 C1 117.19(17) . . ?
O1 C2 C1 117.19(17) 13 . ?
C1 C3 C3 120.07(17) . 14_665 ?
C1 C3 H3 120.0 . . ?
C3 C3 H3 120.0 14_665 . ?
N1 C4 C5 123.8(4) . . ?
N1 C4 H4 118.1 . . ?
C5 C4 H4 118.1 . . ?
C4 C5 C6 115.5(6) . . ?
C4 C5 H5 122.2 . . ?
C6 C5 H5 122.2 . . ?
C5 C6 C5 123.1(7) . 44 ?
C5 C6 H6 118.4 . . ?
C5 C6 H6 118.4 44 . ?

loop_
_geom_torsion_atom_site_label_1
_geom_torsion_atom_site_label_2
_geom_torsion_atom_site_label_3
_geom_torsion_atom_site_label_4
_geom_torsion
_geom_torsion_site_symmetry_1
_geom_torsion_site_symmetry_2
_geom_torsion_site_symmetry_3
_geom_torsion_site_symmetry_4
_geom_torsion_publ_flag
O3 Fe1 O2 Fe1 -47.6(2) 44 . . 35 ?
O3 Fe1 O2 Fe1 -136.77(18) . . . 35 ?
O1 Fe1 O2 Fe1 45.3(2) 44 . . 35 ?
O1 Fe1 O2 Fe1 130.30(18) . . . 35 ?
O3 Fe1 O2 Fe1 136.77(18) 44 . . 56 ?
O3 Fe1 O2 Fe1 47.6(2) . . . 56 ?
O1 Fe1 O2 Fe1 -130.30(18) 44 . . 56 ?
O1 Fe1 O2 Fe1 -45.3(2) . . . 56 ?
O4 S2 O3 Fe1 152.24(18) . . . . ?
O5 S2 O3 Fe1 -84.53(19) . . . . ?
O3 S2 O3 Fe1 36.1(2) 13 . . . ?
O2 Fe1 O3 S2 -43.23(18) . . . . ?
O3 Fe1 O3 S2 -139.95(13) 44 . . . ?
O1 Fe1 O3 S2 126.8(3) 44 . . . ?
O1 Fe1 O3 S2 52.25(17) . . . . ?
N1 Fe1 O3 S2 135.09(17) . . . . ?
O2 Fe1 O1 C2 20.4(4) . . . . ?
O3 Fe1 O1 C2 -169.6(4) 44 . . . ?
O3 Fe1 O1 C2 -76.7(3) . . . . ?
O1 Fe1 O1 C2 115.1(3) 44 . . . ?
N1 Fe1 O1 C2 -161.2(3) . . . . ?
O3 Fe1 N1 C4 -134.3(3) 44 . . . ?
O3 Fe1 N1 C4 -45.5(3) . . . . ?
O1 Fe1 N1 C4 132.8(3) 44 . . . ?
O1 Fe1 N1 C4 47.5(3) . . . . ?
O3 Fe1 N1 C4 45.5(3) 44 . . 44 ?
O3 Fe1 N1 C4 134.3(3) . . . 44 ?
O1 Fe1 N1 C4 -47.4(3) 44 . . 44 ?
O1 Fe1 N1 C4 -132.8(3) . . . 44 ?
Fe1 O1 C2 O1 2.8(7) . . . 13 ?
Fe1 O1 C2 C1 -174.6(2) . . . . ?
C3 C1 C2 O1 -2.8(6) 13 . . . ?
C3 C1 C2 O1 -179.6(4) . . . . ?
C3 C1 C2 O1 179.6(4) 13 . . 13 ?
C3 C1 C2 O1 2.8(6) . . . 13 ?
C3 C1 C3 C3 3.5(6) 13 . . 14_665 ?
C2 C1 C3 C3 -179.6(3) . . . 14_665 ?
C4 N1 C4 C5 -0.1(7) 44 . . . ?
Fe1 N1 C4 C5 179.7(3) . . . . ?
N1 C4 C5 C6 -0.6(8) . . . . ?
C4 C5 C6 C5 1.3(12) . . . 44 ?

_diffrn_measured_fraction_theta_max 1.000
_diffrn_reflns_theta_full        27.50
_diffrn_measured_fraction_theta_full 1.000
_refine_diff_density_max         0.295
_refine_diff_density_min         -0.356
_refine_diff_density_rms         0.032
####################################################################### 
# 
# This file contains crystal structure data downloaded from the 
# Cambridge Structural Database (CSD) hosted by the Cambridge 
# Crystallographic Data Centre (CCDC).
# 
# Full information about CCDC data access policies and citation 
# guidelines are available at http://www.ccdc.cam.ac.uk/access/V1 
# 
# Audit and citation data items may have been added by the CCDC. 
# Please retain this information to preserve the provenance of 
# this file and to allow appropriate attribution of the data. 
# 
#######################################################################

data_IRMOP-51t
_audit_block_doi                 10.5517/cc95q9g
_database_code_depnum_ccdc_archive 'CCDC 273615'
loop_
_citation_id
_citation_doi
_citation_year
1 10.1021/ja042802q 2005
_audit_update_record             
;
2005-06-01 deposited with the CCDC.	2019-02-14 downloaded from the CCDC.
;

_audit_creation_method           SHELXL-97
_chemical_name_systematic        
;
?
;
_chemical_name_common            IRMOP-51t
_chemical_melting_point          ?
_chemical_formula_moiety         'C212.50 H100 Fe12 N36.50 O90 S12'
_chemical_formula_sum            'C212.50 H100 Fe12 N36.50 O90 S12'
_chemical_formula_weight         5659.21

loop_
_atom_type_symbol
_atom_type_description
_atom_type_scat_dispersion_real
_atom_type_scat_dispersion_imag
_atom_type_scat_source
C C 0.0033 0.0016 'International Tables Vol C Tables 4.2.6.8 and 6.1.1.4'
H H 0.0000 0.0000 'International Tables Vol C Tables 4.2.6.8 and 6.1.1.4'
N N 0.0061 0.0033 'International Tables Vol C Tables 4.2.6.8 and 6.1.1.4'
O O 0.0106 0.0060 'International Tables Vol C Tables 4.2.6.8 and 6.1.1.4'
S S 0.1246 0.1234 'International Tables Vol C Tables 4.2.6.8 and 6.1.1.4'
Fe Fe 0.3463 0.8444 'International Tables Vol C Tables 4.2.6.8 and 6.1.1.4'

_symmetry_cell_setting           Triclinic
_symmetry_space_group_name_H-M   P-1
_symmetry_space_group_name_Hall  -P1

loop_
_symmetry_equiv_pos_as_xyz
'x, y, z'
'-x, -y, -z'

_cell_length_a                   25.8626(9)
_cell_length_b                   26.8359(9)
_cell_length_c                   28.1926(10)
_cell_angle_alpha                75.1380(10)
_cell_angle_beta                 88.5680(10)
_cell_angle_gamma                63.7830(10)
_cell_volume                     16878.6(10)
_cell_formula_units_Z            2
_cell_measurement_temperature    258(2)
_cell_measurement_reflns_used    9758
_cell_measurement_theta_min      2.20
_cell_measurement_theta_max      27.50

_exptl_crystal_description       block
_exptl_crystal_colour            orange
_exptl_crystal_size_max          0.34
_exptl_crystal_size_mid          0.25
_exptl_crystal_size_min          0.08
_exptl_crystal_density_meas      ?
_exptl_crystal_density_diffrn    1.114
_exptl_crystal_density_method    'not measured'
_exptl_crystal_F_000             5709
_exptl_absorpt_coefficient_mu    0.645
_exptl_absorpt_correction_type   multi-scan
_exptl_absorpt_correction_T_min  0.811
_exptl_absorpt_correction_T_max  0.950
_exptl_absorpt_process_details   'Blessing, Acta Cryst. (1995) A51 33-58'
_exptl_special_details           
;
The only optimal crystals suitable for analysis were small and weakly
diffracting. Optimization of synthetic conditions could yield larger
crystals, however these specimens had only a very low degree of
crystallinity and presented little coherent scattering compared to
that of smaller crystals. Owing to these challenges observed strong
(high intensity) scattering was limited to 1.0 angstrom, with higher
resolution data present but weak (low intensity). Increasing the exposure
time of the crystal to X-rays did not ameliorate the quality of the data
as this woulThe only optimal crystals suitable for analysis were small
and weakly diffracting. Optimization of synthetic conditions could yield larger
crystals, however these specimens had only a very low degree of
crystallinity and presented little coherent scattering compared to
that of smaller crystals. Additionally, diffuse scattering from the highly
disordered solvent in the large void spaces within the crystal and from
the capillary used mount the crystal contributes to the background
noise and the 'washing out' of high angle data.
;

_diffrn_ambient_temperature      258(2)
_diffrn_radiation_wavelength     0.71073
_diffrn_radiation_type           MoK\a
_diffrn_radiation_source         'fine-focus sealed tube'
_diffrn_radiation_monochromator  graphite
_diffrn_measurement_device_type  'Bruker SMART APEX CCD'
_diffrn_measurement_method       'phi and omega scan'
_diffrn_detector_area_resol_mean ?
_diffrn_standards_number         ?
_diffrn_standards_interval_count ?
_diffrn_standards_interval_time  ?
_diffrn_standards_decay_%        ?
_diffrn_reflns_number            106447
_diffrn_reflns_av_R_equivalents  0.0773
_diffrn_reflns_av_sigmaI/netI    0.1347
_diffrn_reflns_limit_h_min       -28
_diffrn_reflns_limit_h_max       28
_diffrn_reflns_limit_k_min       -29
_diffrn_reflns_limit_k_max       29
_diffrn_reflns_limit_l_min       -31
_diffrn_reflns_limit_l_max       31
_diffrn_reflns_theta_min         1.52
_diffrn_reflns_theta_max         23.26
_reflns_number_total             48424
_reflns_number_gt                25062
_reflns_threshold_expression     >2sigma(I)

_computing_data_collection       'Bruker SMART'
_computing_cell_refinement       'Bruker SAINT'
_computing_data_reduction        'Bruker SAINT'
_computing_structure_solution    'SHELXS-97 (Sheldrick, 1990)'
_computing_structure_refinement  'SHELXL-97 (Sheldrick, 1997)'
_computing_molecular_graphics    'Bruker XP'
_computing_publication_material  'Bruker XCIF'

_refine_special_details          
;
Refinement of F^2^ against ALL reflections. The weighted R-factor wR and
goodness of fit S are based on F^2^, conventional R-factors R are based
on F, with F set to zero for negative F^2^. The threshold expression of
F^2^ > 2sigma(F^2^) is used only for calculating R-factors(gt) etc. and is
not relevant to the choice of reflections for refinement. R-factors based
on F^2^ are statistically about twice as large as those based on F, and R-
factors based on ALL data will be even larger.
;

_refine_ls_structure_factor_coef Fsqd
_refine_ls_matrix_type           fullcycle
_refine_ls_weighting_scheme      calc
_refine_ls_weighting_details     
'calc w=1/[\s^2^(Fo^2^)+(0.1980P)^2^+0.0000P] where P=(Fo^2^+2Fc^2^)/3'
_atom_sites_solution_primary     direct
_atom_sites_solution_secondary   difmap
_atom_sites_solution_hydrogens   geom
_refine_ls_hydrogen_treatment    constr
_refine_ls_extinction_method     SHELXL
_refine_ls_extinction_coef       0.00054(9)
_refine_ls_extinction_expression Fc^*^=kFc[1+0.001xFc^2^\l^3^/sin(2\q)]^-1/4^
_refine_ls_number_reflns         48424
_refine_ls_number_parameters     2632
_refine_ls_number_restraints     102
_refine_ls_R_factor_all          0.1773
_refine_ls_R_factor_gt           0.1032
_refine_ls_wR_factor_ref         0.3387
_refine_ls_wR_factor_gt          0.2894
_refine_ls_goodness_of_fit_ref   1.046
_refine_ls_restrained_S_all      1.049
_refine_ls_shift/su_max          0.000
_refine_ls_shift/su_mean         0.000

loop_
_atom_site_label
_atom_site_type_symbol
_atom_site_fract_x
_atom_site_fract_y
_atom_site_fract_z
_atom_site_U_iso_or_equiv
_atom_site_adp_type
_atom_site_occupancy
_atom_site_symmetry_multiplicity
_atom_site_calc_flag
_atom_site_refinement_flags
_atom_site_disorder_assembly
_atom_site_disorder_group
Fe1 Fe 0.62609(5) 0.78334(5) 0.12393(4) 0.0299(3) Uani 1 1 d . . .
Fe2 Fe 0.54714(5) 0.79537(5) 0.21976(4) 0.0287(3) Uani 1 1 d . . .
Fe3 Fe 0.67566(5) 0.79425(5) 0.22735(4) 0.0321(3) Uani 1 1 d . . .
Fe4 Fe 0.76841(6) 0.30131(6) 0.69173(5) 0.0444(4) Uani 1 1 d . . .
Fe5 Fe 1.20692(5) 0.25921(6) 0.15768(5) 0.0403(3) Uani 1 1 d . . .
Fe6 Fe 0.65191(6) 0.21153(6) 0.13950(5) 0.0437(4) Uani 1 1 d . . .
Fe7 Fe 0.57000(6) 0.21720(6) 0.23234(5) 0.0407(3) Uani 1 1 d . . .
Fe8 Fe 1.25655(6) 0.15343(6) 0.26255(5) 0.0450(4) Uani 1 1 d . . .
Fe9 Fe 0.89081(6) 0.31476(6) 0.69067(5) 0.0439(4) Uani 1 1 d . . .
Fe10 Fe 1.24686(6) 0.28238(6) 0.25802(5) 0.0458(4) Uani 1 1 d . . .
Fe11 Fe 0.89503(6) 0.18885(6) 0.69211(5) 0.0452(4) Uani 1 1 d . . .
Fe12 Fe 0.69802(6) 0.10242(6) 0.24156(5) 0.0416(3) Uani 1 1 d . . .
O1 O 0.8515(2) 0.2682(3) 0.6921(2) 0.0401(15) Uani 1 1 d . . .
O2 O 0.6161(2) 0.7924(2) 0.19001(19) 0.0284(13) Uani 1 1 d . . .
O3 O 1.2380(2) 0.2314(3) 0.2256(2) 0.0412(15) Uani 1 1 d . . .
O4 O 0.6398(2) 0.1766(2) 0.2046(2) 0.0368(15) Uani 1 1 d . . .
S1 S 0.99733(13) 0.19544(13) 0.74874(12) 0.0678(9) Uani 1 1 d . . .
O5 O 0.9615(3) 0.1672(3) 0.7396(2) 0.061(2) Uani 1 1 d . . .
O6 O 0.9571(3) 0.2574(3) 0.7411(2) 0.0585(19) Uani 1 1 d . . .
O7 O 1.0223(5) 0.1708(4) 0.7996(4) 0.129(4) Uani 1 1 d . . .
O8 O 1.0394(3) 0.1900(4) 0.7129(4) 0.093(3) Uani 1 1 d . . .
S2 S 0.78899(14) 0.37957(15) 0.75207(12) 0.0691(9) Uani 1 1 d . . .
O9 O 0.7619(3) 0.3442(3) 0.7411(3) 0.067(2) Uani 1 1 d . . .
O10 O 0.8513(3) 0.3517(3) 0.7428(2) 0.063(2) Uani 1 1 d . . .
O11 O 0.7600(4) 0.4360(4) 0.7206(4) 0.102(3) Uani 1 1 d . . .
O12 O 0.7862(4) 0.3788(5) 0.8023(3) 0.122(4) Uani 1 1 d . . .
S3 S 0.79702(14) 0.17220(14) 0.75598(12) 0.0686(9) Uani 1 1 d . . .
O13 O 0.8586(3) 0.1562(3) 0.7448(2) 0.0552(18) Uani 1 1 d . . .
O14 O 0.7658(3) 0.2363(3) 0.7436(2) 0.065(2) Uani 1 1 d . . .
O15 O 0.7708(4) 0.1521(4) 0.7249(4) 0.103(3) Uani 1 1 d . . .
O16 O 0.7947(5) 0.1499(4) 0.8068(4) 0.123(4) Uani 1 1 d . . .
S4 S 0.56700(10) 0.88061(10) 0.27198(9) 0.0406(6) Uani 1 1 d . . .
O17 O 0.5310(2) 0.8649(2) 0.2433(2) 0.0379(15) Uani 1 1 d . . .
O18 O 0.6259(3) 0.8596(3) 0.2540(2) 0.0499(17) Uani 1 1 d . . .
O19 O 0.5417(3) 0.9432(3) 0.2602(3) 0.070(2) Uani 1 1 d . . .
O20 O 0.5725(4) 0.8523(4) 0.3229(3) 0.072(2) Uani 1 1 d . . .
S5 S 0.69880(11) 0.85501(11) 0.12092(9) 0.0416(6) Uani 1 1 d . . .
O21 O 0.6538(3) 0.8435(2) 0.0999(2) 0.0389(15) Uani 1 1 d . . .
O22 O 0.6905(3) 0.8496(3) 0.1748(2) 0.0443(16) Uani 1 1 d . . .
O23 O 0.7558(3) 0.8129(3) 0.1156(3) 0.064(2) Uani 1 1 d . . .
O24 O 0.6874(3) 0.9148(3) 0.0968(3) 0.060(2) Uani 1 1 d . . .
S6 S 0.48764(10) 0.85033(10) 0.10801(8) 0.0366(5) Uani 1 1 d . . .
O25 O 0.5469(2) 0.8394(2) 0.0927(2) 0.0379(15) Uani 1 1 d . . .
O26 O 0.4905(2) 0.8498(2) 0.16159(19) 0.0341(14) Uani 1 1 d . . .
O27 O 0.4748(3) 0.8043(3) 0.1041(2) 0.0571(19) Uani 1 1 d . . .
O28 O 0.4462(3) 0.9063(3) 0.0802(2) 0.0545(18) Uani 1 1 d . . .
S7 S 1.27119(14) 0.33860(15) 0.15021(12) 0.0662(8) Uani 1 1 d . . .
O29 O 1.2545(3) 0.2990(3) 0.1328(2) 0.0541(18) Uani 1 1 d . . .
O30 O 1.2840(3) 0.3155(3) 0.2050(3) 0.060(2) Uani 1 1 d . . .
O31 O 1.2237(4) 0.3965(4) 0.1374(3) 0.095(3) Uani 1 1 d . . .
O32 O 1.3214(4) 0.3375(4) 0.1284(3) 0.098(3) Uani 1 1 d . . .
S8 S 1.35611(13) 0.16531(15) 0.31746(13) 0.0736(9) Uani 1 1 d . . .
O33 O 1.3237(3) 0.2273(3) 0.2945(3) 0.073(2) Uani 1 1 d . . .
O34 O 1.3339(3) 0.1352(3) 0.2916(3) 0.071(2) Uani 1 1 d . . .
O35 O 1.3454(4) 0.1552(4) 0.3650(4) 0.101(3) Uani 1 1 d . . .
O36 O 1.4179(3) 0.1458(4) 0.3104(4) 0.100(3) Uani 1 1 d . . .
S9 S 1.28306(12) 0.12827(12) 0.15641(11) 0.0570(7) Uani 1 1 d . . .
O39 O 1.2941(3) 0.1150(3) 0.2115(3) 0.061(2) Uani 1 1 d . . .
O40 O 1.2620(3) 0.1919(3) 0.1364(2) 0.0544(18) Uani 1 1 d . . .
O41 O 1.3370(4) 0.0976(3) 0.1376(3) 0.085(3) Uani 1 1 d . . .
O42 O 1.2378(4) 0.1141(4) 0.1455(4) 0.092(3) Uani 1 1 d . . .
S10 S 0.72264(13) 0.07992(12) 0.13445(11) 0.0586(8) Uani 1 1 d . . .
O43 O 0.7124(3) 0.0637(3) 0.1874(3) 0.0523(18) Uani 1 1 d . . .
O44 O 0.6808(3) 0.1425(3) 0.1131(2) 0.0582(19) Uani 1 1 d . . .
O45 O 0.7804(3) 0.0721(4) 0.1315(3) 0.088(3) Uani 1 1 d . . .
O46 O 0.7068(4) 0.0469(4) 0.1093(3) 0.085(3) Uani 1 1 d . . .
S11 S 0.58774(11) 0.08831(11) 0.28668(11) 0.0518(7) Uani 1 1 d . . .
O47 O 0.6458(3) 0.0671(3) 0.2658(3) 0.0507(17) Uani 1 1 d . . .
O48 O 0.5527(3) 0.1504(3) 0.2577(3) 0.062(2) Uani 1 1 d . . .
O49 O 0.5944(4) 0.0840(4) 0.3380(3) 0.080(2) Uani 1 1 d . . .
O50 O 0.5589(3) 0.0562(3) 0.2757(3) 0.072(2) Uani 1 1 d . . .
S12 S 0.52022(16) 0.2340(3) 0.12530(15) 0.125(2) Uani 1 1 d . . .
O51 O 0.5746(3) 0.2347(3) 0.1066(2) 0.064(2) Uani 1 1 d . . .
O52 O 0.5143(3) 0.2437(3) 0.1734(3) 0.061(2) Uani 1 1 d . . .
O53 O 0.5309(7) 0.1671(6) 0.1360(6) 0.187(7) Uani 1 1 d . . .
O54 O 0.4727(4) 0.2672(5) 0.0920(3) 0.114(4) Uani 1 1 d . . .
O55 O 0.7546(3) 0.2689(4) 0.6384(3) 0.066(2) Uani 1 1 d . . .
O56 O 0.8397(3) 0.1933(3) 0.6399(2) 0.059(2) Uani 1 1 d . . .
O57 O 0.6116(3) 0.2027(3) 0.2975(3) 0.0574(19) Uani 1 1 d . . .
O58 O 0.6968(3) 0.1253(3) 0.3049(2) 0.0536(18) Uani 1 1 d . . .
C1 C 0.6594(5) 0.1652(5) 0.3209(4) 0.052(3) Uani 1 1 d . . .
C2 C 0.6741(5) 0.1685(5) 0.3699(5) 0.073(4) Uani 1 1 d . . .
C3 C 0.7306(9) 0.1355(9) 0.3914(8) 0.045(5) Uiso 0.50 1 d P . .
C3' C 0.7133(11) 0.1215(11) 0.4068(9) 0.061(6) Uiso 0.50 1 d P . .
C4 C 0.7468(11) 0.1419(11) 0.4351(9) 0.066(7) Uiso 0.50 1 d P . .
C4' C 0.7284(14) 0.1285(14) 0.4506(12) 0.093(10) Uiso 0.50 1 d P . .
C5 C 0.7115(13) 0.1892(13) 0.4519(11) 0.076(9) Uiso 0.50 1 d P . .
C5' C 0.6991(10) 0.1749(10) 0.4664(9) 0.050(6) Uiso 0.50 1 d P . .
C6 C 0.6571(11) 0.2276(11) 0.4266(9) 0.054(6) Uiso 0.50 1 d P . .
C6' C 0.6499(14) 0.2088(15) 0.4408(12) 0.089(10) Uiso 0.50 1 d P . .
C7 C 0.6388(6) 0.2145(7) 0.3860(5) 0.099(5) Uani 1 1 d . . .
C8 C 0.7886(5) 0.2247(5) 0.6238(4) 0.061(3) Uani 1 1 d . . .
C9 C 0.7627(5) 0.2120(6) 0.5848(5) 0.085(4) Uani 1 1 d . . .
C10 C 0.7141(12) 0.2558(12) 0.5540(10) 0.078(8) Uiso 0.50 1 d P . .
C10' C 0.7036(10) 0.2311(10) 0.5744(8) 0.057(6) Uiso 0.50 1 d P . .
C11 C 0.6972(13) 0.2454(13) 0.5113(11) 0.092(9) Uiso 0.50 1 d P . .
C11' C 0.6840(10) 0.2204(11) 0.5349(9) 0.066(6) Uiso 0.50 1 d P . .
C12 C 0.7264(10) 0.1955(10) 0.4989(8) 0.049(6) Uiso 0.50 1 d P . .
C12' C 0.7189(13) 0.1777(13) 0.5147(11) 0.072(8) Uiso 0.50 1 d P . .
C13 C 0.7821(17) 0.1606(17) 0.5191(14) 0.118(12) Uiso 0.50 1 d P . .
C13' C 0.7658(12) 0.1447(11) 0.5385(10) 0.068(7) Uiso 0.50 1 d P . .
C14 C 0.8014(12) 0.1673(12) 0.5676(10) 0.073(7) Uiso 0.50 1 d P . .
C14' C 0.7802(15) 0.1546(14) 0.5809(12) 0.100(10) Uiso 0.50 1 d P . .
O59 O 0.7528(3) 0.3719(3) 0.6354(3) 0.0587(19) Uani 1 1 d . . .
O60 O 0.8349(3) 0.3825(3) 0.6366(2) 0.0544(18) Uani 1 1 d . . .
O61 O 0.5870(3) 0.7415(3) 0.2868(2) 0.0430(16) Uani 1 1 d . . .
O62 O 0.6746(3) 0.7376(3) 0.2900(2) 0.0461(16) Uani 1 1 d . . .
C15 C 0.6366(4) 0.7236(4) 0.3075(3) 0.039(2) Uani 1 1 d . . .
C16 C 0.6534(4) 0.6792(4) 0.3562(4) 0.050(3) Uani 1 1 d . . .
C17 C 0.7059(6) 0.6594(7) 0.3813(5) 0.130(7) Uani 1 1 d . . .
H17A H 0.7295 0.6767 0.3690 0.156 Uiso 1 1 calc R . .
C18 C 0.7256(6) 0.6151(7) 0.4238(5) 0.119(7) Uani 1 1 d . . .
H18A H 0.7640 0.5992 0.4369 0.143 Uiso 1 1 calc R . .
C19 C 0.6898(5) 0.5938(5) 0.4475(4) 0.065(3) Uani 1 1 d . . .
C20 C 0.6368(6) 0.6144(6) 0.4213(5) 0.104(5) Uani 1 1 d . . .
H20A H 0.6116 0.5995 0.4345 0.125 Uiso 1 1 calc R . .
C21 C 0.6195(5) 0.6552(6) 0.3773(5) 0.089(5) Uani 1 1 d . . .
H21A H 0.5834 0.6669 0.3612 0.107 Uiso 1 1 calc R . .
C22 C 0.7833(5) 0.3979(4) 0.6195(4) 0.049(3) Uani 1 1 d . . .
C23 C 0.7567(4) 0.4496(5) 0.5770(3) 0.053(3) Uani 1 1 d . . .
C24 C 0.7064(6) 0.4648(6) 0.5520(5) 0.108(6) Uani 1 1 d . . .
H24A H 0.6856 0.4441 0.5635 0.129 Uiso 1 1 calc R . .
C25 C 0.6841(6) 0.5107(7) 0.5093(5) 0.115(6) Uani 1 1 d . . .
H25A H 0.6509 0.5175 0.4913 0.138 Uiso 1 1 calc R . .
C26 C 0.7101(5) 0.5461(5) 0.4932(4) 0.065(3) Uani 1 1 d . . .
C27 C 0.7602(5) 0.5330(5) 0.5225(4) 0.078(4) Uani 1 1 d . . .
H27A H 0.7781 0.5571 0.5144 0.094 Uiso 1 1 calc R . .
C28 C 0.7837(6) 0.4844(5) 0.5640(4) 0.079(4) Uani 1 1 d . . .
H28A H 0.8174 0.4760 0.5823 0.094 Uiso 1 1 calc R . .
O63 O 0.9393(3) 0.2895(3) 0.6352(2) 0.061(2) Uani 1 1 d . . .
O64 O 0.9406(3) 0.2058(3) 0.6354(3) 0.061(2) Uani 1 1 d . . .
O65 O 1.2197(3) 0.1722(3) 0.3234(3) 0.060(2) Uani 1 1 d . . .
O66 O 1.2078(3) 0.2617(3) 0.3180(3) 0.061(2) Uani 1 1 d . . .
C29 C 1.2035(5) 0.2161(7) 0.3392(4) 0.067(4) Uani 1 1 d . . .
C30 C 1.1733(5) 0.2168(6) 0.3854(4) 0.067(3) Uani 1 1 d . . .
C31 C 1.1656(8) 0.1716(7) 0.4103(6) 0.127(7) Uani 1 1 d . . .
H31A H 1.1804 0.1390 0.3987 0.153 Uiso 1 1 calc R . .
C32 C 1.1370(8) 0.1700(8) 0.4527(7) 0.142(8) Uani 1 1 d . . .
H32A H 1.1345 0.1367 0.4697 0.170 Uiso 1 1 calc R . .
C33 C 1.1126(6) 0.2188(6) 0.4689(5) 0.081(4) Uani 1 1 d . . .
C34 C 1.1213(7) 0.2657(8) 0.4439(6) 0.115(6) Uani 1 1 d . . .
H34A H 1.1077 0.2983 0.4554 0.138 Uiso 1 1 calc R . .
C35 C 1.1505(7) 0.2643(7) 0.4015(5) 0.111(6) Uani 1 1 d . . .
H35A H 1.1542 0.2968 0.3842 0.133 Uiso 1 1 calc R . .
C36 C 0.9564(4) 0.2438(4) 0.6213(3) 0.050(3) Uani 1 1 d . . .
C37 C 0.9995(5) 0.2363(5) 0.5847(4) 0.060(3) Uani 1 1 d . . .
C38 C 1.0157(7) 0.1919(6) 0.5630(6) 0.103(5) Uani 1 1 d . . .
H38A H 1.0014 0.1650 0.5735 0.123 Uiso 1 1 calc R . .
C39 C 1.0525(7) 0.1859(7) 0.5261(5) 0.110(6) Uani 1 1 d . . .
H39A H 1.0609 0.1563 0.5112 0.131 Uiso 1 1 calc R . .
C40 C 1.0767(6) 0.2230(6) 0.5111(5) 0.077(4) Uani 1 1 d . . .
C41 C 1.0637(7) 0.2652(7) 0.5353(6) 0.118(6) Uani 1 1 d . . .
H41A H 1.0816 0.2893 0.5279 0.142 Uiso 1 1 calc R . .
C42 C 1.0249(7) 0.2724(7) 0.5701(5) 0.097(5) Uani 1 1 d . . .
H42A H 1.0155 0.3027 0.5842 0.116 Uiso 1 1 calc R . .
O67 O 0.7336(3) 0.1954(3) 0.1585(3) 0.063(2) Uani 1 1 d . . .
O68 O 0.7649(3) 0.1216(3) 0.2265(3) 0.0551(19) Uani 1 1 d . . .
O69 O 1.1804(3) 0.1582(3) 0.2417(3) 0.0563(19) Uani 1 1 d . . .
O70 O 1.1486(3) 0.2267(3) 0.1707(3) 0.0565(19) Uani 1 1 d . . .
C43 C 0.7720(5) 0.1575(5) 0.1931(5) 0.054(3) Uani 1 1 d . . .
C44 C 0.8281(5) 0.1594(5) 0.1927(5) 0.071(3) Uani 1 1 d . . .
C45 C 0.8731(6) 0.1205(7) 0.2262(6) 0.140(8) Uani 1 1 d . . .
H45A H 0.8703 0.0901 0.2488 0.168 Uiso 1 1 calc R . .
C46 C 0.9243(6) 0.1263(8) 0.2266(7) 0.156(9) Uani 1 1 d . . .
H46A H 0.9534 0.1009 0.2519 0.188 Uiso 1 1 calc R . .
C47 C 0.9345(6) 0.1655(6) 0.1934(5) 0.089(4) Uani 1 1 d . . .
C48 C 0.8897(7) 0.2033(8) 0.1595(6) 0.145(8) Uani 1 1 d . . .
H48A H 0.8923 0.2344 0.1376 0.174 Uiso 1 1 calc R . .
C49 C 0.8385(6) 0.1966(7) 0.1564(6) 0.134(8) Uani 1 1 d . . .
H49A H 0.8116 0.2182 0.1288 0.161 Uiso 1 1 calc R . .
C50 C 1.1449(4) 0.1893(5) 0.2046(5) 0.051(3) Uani 1 1 d . . .
C51 C 1.0903(4) 0.1815(6) 0.2002(4) 0.064(3) Uani 1 1 d . . .
C52 C 1.0817(6) 0.1428(7) 0.2345(6) 0.112(6) Uani 1 1 d . . .
H52A H 1.1094 0.1197 0.2613 0.135 Uiso 1 1 calc R . .
C53 C 1.0316(7) 0.1360(7) 0.2311(6) 0.129(7) Uani 1 1 d . . .
H53A H 1.0278 0.1070 0.2551 0.154 Uiso 1 1 calc R . .
C54 C 0.9892(5) 0.1691(6) 0.1950(5) 0.090(5) Uani 1 1 d . . .
C55 C 0.9993(6) 0.2081(9) 0.1608(6) 0.144(8) Uani 1 1 d . . .
H55A H 0.9713 0.2325 0.1344 0.173 Uiso 1 1 calc R . .
C56 C 1.0501(6) 0.2131(8) 0.1636(6) 0.123(6) Uani 1 1 d . . .
H56A H 1.0557 0.2399 0.1385 0.148 Uiso 1 1 calc R . .
O71 O 0.7406(3) 0.7267(3) 0.2109(2) 0.0470(17) Uani 1 1 d . . .
O72 O 0.7088(3) 0.7198(3) 0.1410(2) 0.0431(16) Uani 1 1 d . . .
O73 O 1.1678(3) 0.3487(3) 0.2313(3) 0.0567(19) Uani 1 1 d . . .
O74 O 1.1402(3) 0.3340(3) 0.1630(3) 0.0559(19) Uani 1 1 d . . .
C57 C 0.7473(4) 0.7057(4) 0.1751(4) 0.037(2) Uani 1 1 d . . .
C58 C 0.8055(4) 0.6568(4) 0.1744(4) 0.049(3) Uani 1 1 d . . .
C59 C 0.8163(5) 0.6295(5) 0.1395(4) 0.075(4) Uani 1 1 d . . .
H59A H 0.7878 0.6418 0.1138 0.090 Uiso 1 1 calc R . .
C60 C 0.8712(5) 0.5813(5) 0.1410(4) 0.087(4) Uani 1 1 d . . .
H60A H 0.8771 0.5609 0.1176 0.105 Uiso 1 1 calc R . .
C61 C 0.9149(4) 0.5650(5) 0.1761(4) 0.063(3) Uani 1 1 d . . .
C62 C 0.9032(5) 0.5948(7) 0.2106(6) 0.117(7) Uani 1 1 d . . .
H62A H 0.9322 0.5847 0.2352 0.140 Uiso 1 1 calc R . .
C63 C 0.8489(5) 0.6399(6) 0.2100(5) 0.108(6) Uani 1 1 d . . .
H63A H 0.8421 0.6590 0.2345 0.129 Uiso 1 1 calc R . .
C64 C 1.1333(4) 0.3619(4) 0.1940(4) 0.048(3) Uani 1 1 d . . .
C65 C 1.0776(4) 0.4159(4) 0.1877(4) 0.053(3) Uani 1 1 d . . .
C66 C 1.0364(6) 0.4328(6) 0.1515(6) 0.109(6) Uani 1 1 d . . .
H66A H 1.0437 0.4113 0.1288 0.131 Uiso 1 1 calc R . .
C67 C 0.9827(6) 0.4811(7) 0.1460(6) 0.134(8) Uani 1 1 d . . .
H67A H 0.9552 0.4915 0.1199 0.161 Uiso 1 1 calc R . .
C68 C 0.9707(5) 0.5136(5) 0.1799(5) 0.072(4) Uani 1 1 d . . .
C69 C 1.0132(6) 0.4967(7) 0.2159(6) 0.136(8) Uani 1 1 d . . .
H69A H 1.0067 0.5171 0.2394 0.163 Uiso 1 1 calc R . .
C70 C 1.0674(6) 0.4485(6) 0.2186(6) 0.128(7) Uani 1 1 d . . .
H70A H 1.0966 0.4393 0.2426 0.154 Uiso 1 1 calc R . .
O75 O 0.6037(3) 0.7181(2) 0.1386(2) 0.0408(15) Uani 1 1 d . . .
O76 O 0.5512(3) 0.7252(2) 0.2035(2) 0.0384(15) Uani 1 1 d . . .
O77 O 0.6268(3) 0.2902(3) 0.1500(3) 0.060(2) Uani 1 1 d . . .
O78 O 0.5732(3) 0.2934(3) 0.2136(3) 0.061(2) Uani 1 1 d . . .
C71 C 0.5969(5) 0.3144(4) 0.1813(4) 0.051(3) Uani 1 1 d . . .
C72 C 0.5910(5) 0.3727(5) 0.1792(4) 0.061(3) Uani 1 1 d . . .
C73 C 0.5524(7) 0.4062(5) 0.2047(5) 0.100(5) Uani 1 1 d . . .
H73A H 0.5296 0.3924 0.2245 0.120 Uiso 1 1 calc R . .
C74 C 0.5465(8) 0.4618(6) 0.2014(6) 0.121(7) Uani 1 1 d . . .
H74A H 0.5182 0.4855 0.2175 0.145 Uiso 1 1 calc R . .
C75 C 0.5826(6) 0.4813(5) 0.1745(5) 0.076(4) Uani 1 1 d . . .
C76 C 0.6184(7) 0.4479(6) 0.1493(6) 0.119(7) Uani 1 1 d . . .
H76A H 0.6407 0.4615 0.1288 0.142 Uiso 1 1 calc R . .
C77 C 0.6242(7) 0.3942(6) 0.1519(6) 0.110(6) Uani 1 1 d . . .
H77A H 0.6517 0.3717 0.1345 0.131 Uiso 1 1 calc R . .
C78 C 0.5762(4) 0.7015(4) 0.1701(4) 0.039(2) Uani 1 1 d . . .
C79 C 0.5756(5) 0.6457(4) 0.1716(4) 0.054(3) Uani 1 1 d . . .
C80 C 0.5547(5) 0.6179(4) 0.2098(4) 0.065(3) Uani 1 1 d . . .
H80A H 0.5392 0.6342 0.2354 0.078 Uiso 1 1 calc R . .
C81 C 0.5573(6) 0.5659(5) 0.2091(5) 0.083(4) Uani 1 1 d . . .
H81A H 0.5439 0.5474 0.2353 0.100 Uiso 1 1 calc R . .
C82 C 0.5781(6) 0.5398(5) 0.1729(5) 0.070(4) Uani 1 1 d . . .
C83 C 0.5942(7) 0.5696(6) 0.1334(6) 0.108(6) Uani 1 1 d . . .
H83A H 0.6059 0.5543 0.1066 0.129 Uiso 1 1 calc R . .
C84 C 0.5935(7) 0.6217(5) 0.1320(5) 0.096(5) Uani 1 1 d . . .
H84A H 0.6050 0.6408 0.1047 0.115 Uiso 1 1 calc R . .
N1 N 0.9430(4) 0.1000(4) 0.6848(3) 0.065(3) Uani 1 1 d . . .
C85 C 0.9160(6) 0.0683(6) 0.6828(5) 0.083(4) Uani 1 1 d . . .
H85A H 0.8770 0.0821 0.6878 0.099 Uiso 1 1 calc R . .
C86 C 0.9453(10) 0.0142(7) 0.6734(7) 0.125(6) Uani 1 1 d . . .
H86A H 0.9256 -0.0075 0.6729 0.150 Uiso 1 1 calc R . .
C87 C 0.9994(11) -0.0062(8) 0.6653(7) 0.136(9) Uani 1 1 d . . .
H87A H 1.0189 -0.0412 0.6576 0.163 Uiso 1 1 calc R . .
C88 C 1.0262(9) 0.0272(9) 0.6689(8) 0.139(7) Uani 1 1 d . . .
H88A H 1.0657 0.0132 0.6658 0.167 Uiso 1 1 calc R . .
C89 C 0.9968(7) 0.0794(6) 0.6766(5) 0.092(4) Uani 1 1 d . . .
H89A H 1.0160 0.1018 0.6760 0.110 Uiso 1 1 calc R . .
N2 N 0.9342(4) 0.3712(4) 0.6830(3) 0.061(2) Uani 1 1 d . . .
C90 C 0.9920(6) 0.3497(6) 0.6797(5) 0.080(4) Uani 1 1 d . . .
H90A H 1.0124 0.3105 0.6822 0.096 Uiso 1 1 calc R . .
C91 C 1.0231(7) 0.3814(7) 0.6730(6) 0.103(5) Uani 1 1 d . . .
H91A H 1.0628 0.3649 0.6703 0.124 Uiso 1 1 calc R . .
C92 C 0.9917(9) 0.4380(10) 0.6707(6) 0.118(6) Uani 1 1 d . . .
H92A H 1.0107 0.4610 0.6668 0.142 Uiso 1 1 calc R . .
C93 C 0.9280(9) 0.4652(7) 0.6742(6) 0.114(6) Uani 1 1 d . . .
H93A H 0.9065 0.5042 0.6720 0.137 Uiso 1 1 calc R . .
C94 C 0.9035(6) 0.4275(5) 0.6811(4) 0.071(3) Uani 1 1 d . . .
H94A H 0.8641 0.4417 0.6845 0.086 Uiso 1 1 calc R . .
N3 N 0.6721(4) 0.3410(4) 0.6890(3) 0.061(2) Uani 1 1 d . . .
C95 C 0.6433(6) 0.3961(8) 0.6892(6) 0.105(5) Uani 1 1 d . . .
H95A H 0.6632 0.4176 0.6898 0.125 Uiso 1 1 calc R . .
C96 C 0.5823(7) 0.4217(8) 0.6885(7) 0.127(6) Uani 1 1 d . . .
H96A H 0.5613 0.4604 0.6875 0.152 Uiso 1 1 calc R . .
C97 C 0.5548(7) 0.3876(9) 0.6893(8) 0.132(7) Uani 1 1 d . . .
H97A H 0.5150 0.4024 0.6913 0.159 Uiso 1 1 calc R . .
C98 C 0.5845(6) 0.3353(7) 0.6873(8) 0.155(8) Uani 1 1 d . . .
H98A H 0.5659 0.3132 0.6844 0.186 Uiso 1 1 calc R . .
C99 C 0.6454(6) 0.3115(6) 0.6893(5) 0.095(5) Uani 1 1 d . . .
H99A H 0.6666 0.2725 0.6910 0.114 Uiso 1 1 calc R . .
N4 N 1.2731(5) 0.0641(4) 0.3059(4) 0.077(3) Uani 1 1 d . . .
C100 C 1.2998(8) 0.0426(7) 0.3508(6) 0.125(6) Uani 1 1 d . . .
H10A H 1.3148 0.0612 0.3658 0.150 Uiso 1 1 calc R . .
C101 C 1.3031(13) -0.0180(11) 0.3759(10) 0.201(13) Uani 1 1 d . . .
H10B H 1.3148 -0.0330 0.4095 0.241 Uiso 1 1 calc R . .
C102 C 1.2917(16) -0.0478(11) 0.3550(12) 0.201(15) Uani 1 1 d . . .
H10C H 1.2999 -0.0857 0.3711 0.241 Uiso 1 1 calc R . .
C103 C 1.2680(10) -0.0243(8) 0.3102(8) 0.145(8) Uani 1 1 d . . .
H10D H 1.2566 -0.0449 0.2944 0.174 Uiso 1 1 calc R . .
C104 C 1.2589(7) 0.0320(6) 0.2844(7) 0.105(5) Uani 1 1 d . . .
H10E H 1.2426 0.0472 0.2517 0.127 Uiso 1 1 calc R . .
N5 N 1.2474(4) 0.3456(4) 0.2950(4) 0.061(2) Uani 1 1 d . . .
C105 C 1.2364(5) 0.3990(6) 0.2682(5) 0.073(4) Uani 1 1 d . . .
H10F H 1.2300 0.4072 0.2342 0.088 Uiso 1 1 calc R . .
C106 C 1.2337(7) 0.4418(7) 0.2864(7) 0.111(6) Uani 1 1 d . . .
H10G H 1.2250 0.4782 0.2658 0.134 Uiso 1 1 calc R . .
C107 C 1.2442(8) 0.4299(9) 0.3358(10) 0.126(8) Uani 1 1 d . . .
H10H H 1.2429 0.4584 0.3495 0.151 Uiso 1 1 calc R . .
C108 C 1.2566(7) 0.3765(9) 0.3657(6) 0.110(6) Uani 1 1 d . . .
H10I H 1.2639 0.3678 0.3997 0.132 Uiso 1 1 calc R . .
C109 C 1.2579(6) 0.3340(6) 0.3425(5) 0.083(4) Uani 1 1 d . . .
H10J H 1.2664 0.2971 0.3621 0.100 Uiso 1 1 calc R . .
N6 N 1.1669(4) 0.2904(4) 0.0810(3) 0.053(2) Uani 1 1 d . . .
C110 C 1.1565(5) 0.2565(6) 0.0612(4) 0.067(3) Uani 1 1 d . . .
H11A H 1.1661 0.2190 0.0799 0.080 Uiso 1 1 calc R . .
C111 C 1.1316(7) 0.2748(8) 0.0132(6) 0.111(5) Uani 1 1 d . . .
H11B H 1.1215 0.2510 0.0008 0.133 Uiso 1 1 calc R . .
C112 C 1.1214(8) 0.3302(9) -0.0171(6) 0.127(7) Uani 1 1 d . . .
H11C H 1.1064 0.3429 -0.0499 0.153 Uiso 1 1 calc R . .
C113 C 1.1339(8) 0.3622(8) 0.0029(6) 0.133(7) Uani 1 1 d . . .
H11D H 1.1288 0.3983 -0.0162 0.160 Uiso 1 1 calc R . .
C114 C 1.1558(6) 0.3432(6) 0.0543(4) 0.084(4) Uani 1 1 d . . .
H11E H 1.1622 0.3679 0.0686 0.101 Uiso 1 1 calc R . .
N7 N 0.7669(4) 0.0190(4) 0.2838(4) 0.059(2) Uani 1 1 d . . .
C115 C 0.8130(5) -0.0107(5) 0.2636(6) 0.080(4) Uani 1 1 d . . .
H11F H 0.8172 0.0057 0.2313 0.096 Uiso 1 1 calc R . .
C116 C 0.8549(7) -0.0646(8) 0.2879(8) 0.114(6) Uani 1 1 d . . .
H11G H 0.8859 -0.0842 0.2715 0.137 Uiso 1 1 calc R . .
C117 C 0.8523(7) -0.0887(7) 0.3331(9) 0.117(7) Uani 1 1 d . . .
H11H H 0.8817 -0.1248 0.3492 0.140 Uiso 1 1 calc R . .
C118 C 0.8057(8) -0.0607(7) 0.3577(6) 0.116(6) Uani 1 1 d . . .
H11I H 0.8028 -0.0770 0.3904 0.139 Uiso 1 1 calc R . .
C119 C 0.7614(6) -0.0040(6) 0.3292(6) 0.094(5) Uani 1 1 d . . .
H11J H 0.7287 0.0159 0.3437 0.113 Uiso 1 1 calc R . .
N8 N 0.4942(3) 0.2631(4) 0.2638(3) 0.054(2) Uiso 1 1 d G . .
C120 C 0.4808(4) 0.2357(4) 0.3081(3) 0.123(6) Uiso 1 1 d G . .
H120 H 0.5055 0.1970 0.3229 0.147 Uiso 1 1 calc R . .
C121 C 0.4327(6) 0.2632(7) 0.3308(4) 0.143(7) Uiso 1 1 d G . .
H121 H 0.4241 0.2481 0.3617 0.172 Uiso 1 1 calc R . .
C122 C 0.3920(4) 0.3299(6) 0.2921(6) 0.199(10) Uiso 1 1 d G . .
H122 H 0.3578 0.3546 0.3020 0.239 Uiso 1 1 calc R . .
C123 C 0.4055(5) 0.3453(4) 0.2537(6) 0.46(3) Uiso 1 1 d G . .
H123 H 0.3780 0.3796 0.2328 0.554 Uiso 1 1 calc R . .
C124 C 0.4631(6) 0.3157(4) 0.2341(4) 0.39(3) Uiso 1 1 d G . .
H124 H 0.4749 0.3320 0.2053 0.469 Uiso 1 1 calc R . .
N9 N 0.6678(5) 0.2539(5) 0.0659(4) 0.068(3) Uani 1 1 d . . .
C125 C 0.6299(7) 0.3051(7) 0.0388(5) 0.096(5) Uani 1 1 d . . .
H12A H 0.5955 0.3240 0.0519 0.116 Uiso 1 1 calc R . .
C126 C 0.6372(10) 0.3324(10) -0.0067(7) 0.148(8) Uani 1 1 d . . .
H12B H 0.6107 0.3698 -0.0233 0.177 Uiso 1 1 calc R . .
C127 C 0.6863(13) 0.3013(12) -0.0266(8) 0.183(11) Uani 1 1 d . . .
H12C H 0.6914 0.3167 -0.0589 0.220 Uiso 1 1 calc R . .
C128 C 0.7275(9) 0.2489(11) -0.0005(8) 0.149(8) Uani 1 1 d . . .
H12D H 0.7614 0.2283 -0.0135 0.179 Uiso 1 1 calc R . .
C129 C 0.7159(7) 0.2276(7) 0.0470(6) 0.105(5) Uani 1 1 d . . .
H12E H 0.7442 0.1927 0.0665 0.127 Uiso 1 1 calc R . .
N10 N 0.6414(3) 0.7682(3) 0.0507(3) 0.0382(18) Uani 1 1 d . . .
C130 C 0.6881(4) 0.7688(4) 0.0296(3) 0.051(3) Uani 1 1 d . . .
H13A H 0.7145 0.7743 0.0469 0.062 Uiso 1 1 calc R . .
C131 C 0.6984(5) 0.7616(6) -0.0169(4) 0.078(4) Uani 1 1 d . . .
H13B H 0.7312 0.7620 -0.0308 0.094 Uiso 1 1 calc R . .
C132 C 0.6595(6) 0.7537(6) -0.0425(5) 0.086(4) Uani 1 1 d . . .
H13C H 0.6661 0.7480 -0.0738 0.103 Uiso 1 1 calc R . .
C133 C 0.6111(5) 0.7543(5) -0.0217(4) 0.067(3) Uani 1 1 d . . .
H13D H 0.5836 0.7499 -0.0387 0.081 Uiso 1 1 calc R . .
C134 C 0.6038(4) 0.7616(4) 0.0255(4) 0.052(3) Uani 1 1 d . . .
H13E H 0.5710 0.7618 0.0399 0.062 Uiso 1 1 calc R . .
N11 N 0.7488(3) 0.7911(4) 0.2712(3) 0.048(2) Uani 1 1 d . . .
C135 C 0.7455(6) 0.7942(6) 0.3160(4) 0.079(4) Uani 1 1 d . . .
H13F H 0.7111 0.8005 0.3302 0.094 Uiso 1 1 calc R . .
C136 C 0.7939(8) 0.7882(8) 0.3444(6) 0.121(6) Uani 1 1 d . . .
H13G H 0.7926 0.7864 0.3778 0.146 Uiso 1 1 calc R . .
C137 C 0.8430(6) 0.7851(7) 0.3216(8) 0.118(6) Uani 1 1 d . . .
H13H H 0.8745 0.7830 0.3388 0.142 Uiso 1 1 calc R . .
C138 C 0.8439(6) 0.7852(6) 0.2745(6) 0.085(4) Uani 1 1 d . . .
H13I H 0.8753 0.7848 0.2574 0.103 Uiso 1 1 calc R . .
C139 C 0.7973(4) 0.7859(5) 0.2516(5) 0.065(3) Uani 1 1 d . . .
H13J H 0.8001 0.7824 0.2196 0.078 Uiso 1 1 calc R . .
N12 N 0.4675(3) 0.8010(3) 0.2538(3) 0.0429(19) Uani 1 1 d . . .
C140 C 0.4243(4) 0.8009(4) 0.2288(4) 0.052(3) Uani 1 1 d . . .
H14A H 0.4300 0.7936 0.1981 0.062 Uiso 1 1 calc R . .
C141 C 0.3707(5) 0.8115(6) 0.2471(5) 0.077(4) Uani 1 1 d . . .
H14B H 0.3416 0.8113 0.2286 0.093 Uiso 1 1 calc R . .
C142 C 0.3614(6) 0.8222(6) 0.2928(5) 0.084(4) Uani 1 1 d . . .
H14C H 0.3256 0.8308 0.3050 0.101 Uiso 1 1 calc R . .
C143 C 0.4069(6) 0.8198(6) 0.3197(5) 0.081(4) Uani 1 1 d . . .
H14D H 0.4027 0.8250 0.3511 0.097 Uiso 1 1 calc R . .
C144 C 0.4589(4) 0.8093(5) 0.2990(4) 0.056(3) Uani 1 1 d . . .
H14E H 0.4891 0.8080 0.3173 0.067 Uiso 1 1 calc R . .
N13A N 0.4409(2) 0.0703(3) 0.0777(3) 0.103(4) Uiso 1 1 d G . .
C14A C 0.4651(3) 0.0177(3) 0.1138(2) 0.044(2) Uiso 1 1 d G . .
C15A C 0.5172(3) -0.0266(2) 0.1079(2) 0.061(3) Uiso 1 1 d G . .
C17A C 0.5450(2) -0.0185(3) 0.0659(3) 0.061(3) Uiso 1 1 d G . .
C18A C 0.5207(3) 0.0341(3) 0.0298(2) 0.065(3) Uiso 1 1 d G . .
C19A C 0.4687(3) 0.0785(2) 0.0357(2) 0.070(3) Uiso 1 1 d G . .
N14 N 0.6681(8) 0.2892(10) 0.8260(8) 0.157(12) Uiso 0.50 1 d PG . .
C150 C 0.6325(11) 0.2642(7) 0.8455(9) 0.161(15) Uiso 0.50 1 d PG . .
C151 C 0.5837(9) 0.2948(10) 0.8670(8) 0.099(9) Uiso 0.50 1 d PG . .
C152 C 0.5706(8) 0.3503(10) 0.8690(8) 0.118(11) Uiso 0.50 1 d PG . .
C153 C 0.6063(11) 0.3752(7) 0.8495(9) 0.131(12) Uiso 0.50 1 d PG . .
C154 C 0.6550(9) 0.3447(11) 0.8280(8) 0.107(10) Uiso 0.50 1 d PG . .
N15 N 0.6963(8) 0.1220(8) 0.9777(7) 0.103(7) Uiso 0.50 1 d PG . .
C155 C 0.7535(9) 0.0971(9) 0.9979(6) 0.101(9) Uiso 0.50 1 d PG . .
C156 C 0.7983(7) 0.0818(9) 0.9679(9) 0.116(11) Uiso 0.50 1 d PG . .
C157 C 0.7859(10) 0.0914(10) 0.9177(9) 0.142(13) Uiso 0.50 1 d PG . .
C158 C 0.7287(12) 0.1164(11) 0.8975(6) 0.139(13) Uiso 0.50 1 d PG . .
C159 C 0.6839(8) 0.1316(9) 0.9275(8) 0.134(13) Uiso 0.50 1 d PG . .
N16 N 0.8265(13) 0.6607(12) 0.4664(14) 0.215(17) Uiso 0.50 1 d PG . .
C160 C 0.8706(19) 0.6307(18) 0.4405(8) 0.157(15) Uiso 0.50 1 d PG . .
C161 C 0.9200(16) 0.5823(18) 0.4658(16) 0.36(5) Uiso 0.50 1 d PG . .
C162 C 0.9253(14) 0.5639(14) 0.5170(16) 0.48(7) Uiso 0.50 1 d PG . .
C163 C 0.8812(19) 0.5939(17) 0.5430(8) 0.162(16) Uiso 0.50 1 d PG . .
C164 C 0.8318(14) 0.6423(16) 0.5177(14) 0.176(17) Uiso 0.50 1 d PG . .
N17 N 0.3726(14) 0.4440(17) 0.3606(19) 0.219(18) Uiso 0.50 1 d PG . .
C165 C 0.419(2) 0.403(2) 0.3952(10) 0.25(3) Uiso 0.50 1 d PG . .
C166 C 0.4733(18) 0.3750(15) 0.3803(17) 0.34(4) Uiso 0.50 1 d PG . .
C167 C 0.4821(14) 0.3888(18) 0.331(2) 0.193(19) Uiso 0.50 1 d PG . .
C168 C 0.436(2) 0.430(2) 0.2961(11) 0.24(3) Uiso 0.50 1 d PG . .
C169 C 0.3815(17) 0.4579(14) 0.3111(16) 0.20(2) Uiso 0.50 1 d PG . .
N18 N 0.771(3) 0.358(3) 0.070(3) 0.22(4) Uiso 0.25 1 d PGD . .
C170 C 0.823(4) 0.340(3) 0.0498(19) 0.19(4) Uiso 0.25 1 d PGD . .
C171 C 0.872(2) 0.335(3) 0.074(3) 0.15(3) Uiso 0.25 1 d PGD . .
C172 C 0.868(3) 0.348(3) 0.119(3) 0.18(3) Uiso 0.25 1 d PGD . .
C173 C 0.816(4) 0.366(4) 0.140(2) 0.39(10) Uiso 0.25 1 d PGD . .
C174 C 0.767(3) 0.371(3) 0.115(3) 0.27(6) Uiso 0.25 1 d PGD . .
N19 N 1.036(2) 0.333(2) -0.1081(13) 0.115(17) Uiso 0.25 1 d PG . .
C175 C 0.9889(16) 0.3520(17) -0.1421(17) 0.29(7) Uiso 0.25 1 d PG . .
C176 C 0.9928(15) 0.3237(18) -0.1780(14) 0.086(16) Uiso 0.25 1 d PG . .
C177 C 1.0442(19) 0.2760(17) -0.1798(13) 0.085(16) Uiso 0.25 1 d PG . .
C178 C 1.0915(15) 0.2567(17) -0.1458(18) 0.17(3) Uiso 0.25 1 d PG . .
C179 C 1.0876(17) 0.285(2) -0.1099(15) 0.14(3) Uiso 0.25 1 d PG . .
N20 N 0.493(2) 0.841(2) 0.4152(12) 0.233(19) Uiso 0.50 1 d PG . .
C180 C 0.5277(13) 0.782(3) 0.4324(17) 0.22(2) Uiso 0.50 1 d PG . .
C181 C 0.506(2) 0.7462(15) 0.461(2) 0.51(7) Uiso 0.50 1 d PG . .
C182 C 0.449(3) 0.770(3) 0.4731(17) 0.51(7) Uiso 0.50 1 d PG . .
C183 C 0.4141(14) 0.829(3) 0.4559(17) 0.21(2) Uiso 0.50 1 d PG . .
C184 C 0.436(2) 0.8644(15) 0.4269(17) 0.32(4) Uiso 0.50 1 d PG . .
N21 N 0.828(5) 0.418(3) 0.452(3) 0.28(5) Uiso 0.25 1 d PGD . .
C185 C 0.875(4) 0.388(4) 0.487(4) 0.32(8) Uiso 0.25 1 d PGD . .
C186 C 0.880(2) 0.340(3) 0.524(3) 0.29(7) Uiso 0.25 1 d PGD . .
C187 C 0.837(3) 0.321(2) 0.5252(18) 0.089(16) Uiso 0.25 1 d PGD . .
C188 C 0.790(2) 0.352(3) 0.490(3) 0.23(5) Uiso 0.25 1 d PGD . .
C189 C 0.785(4) 0.400(3) 0.453(2) 0.39(10) Uiso 0.25 1 d PGD . .
N22 N 1.031(3) 0.359(2) 0.3045(19) 0.18(3) Uiso 0.25 1 d PGD . .
C190 C 1.0655(19) 0.382(2) 0.3186(19) 0.13(2) Uiso 0.25 1 d PGD . .
C191 C 1.045(2) 0.418(2) 0.3490(18) 0.091(17) Uiso 0.25 1 d PGD . .
C192 C 0.991(3) 0.432(3) 0.365(3) 0.59(18) Uiso 0.25 1 d PGD . .
C193 C 0.956(2) 0.410(4) 0.351(3) 0.41(11) Uiso 0.25 1 d PGD . .
C194 C 0.977(3) 0.373(3) 0.321(3) 0.20(4) Uiso 0.25 1 d PGD . .
O1S O 1.1927 -0.2154 0.6898 0.606 Uiso 1 1 d D . .
C1S C 1.2350 -0.2333 0.7197 0.606 Uiso 1 1 d D . .
N1S N 1.2800 -0.2868 0.7242 0.606 Uiso 1 1 d D . .
C2S C 1.2879 -0.3295 0.6968 0.606 Uiso 1 1 d D . .
C3S C 1.3288 -0.3050 0.7610 0.606 Uiso 1 1 d D . .
O2S O 0.688(2) 0.561(2) 0.3423(15) 0.606(8) Uiso 1 1 d D . .
C4S C 0.6903(19) 0.546(2) 0.3045(17) 0.606(8) Uiso 1 1 d D . .
N2S N 0.7217(16) 0.5603(17) 0.2670(16) 0.606(8) Uiso 1 1 d D . .
C5S C 0.747(3) 0.592(3) 0.286(3) 0.606(8) Uiso 1 1 d D . .
C6S C 0.740(3) 0.544(3) 0.221(2) 0.606(8) Uiso 1 1 d D . .
O4S O 0.9126(19) 0.0353(19) 0.5250(18) 0.606(8) Uiso 1 1 d D . .
C10S C 0.9105(17) 0.0190(18) 0.4883(15) 0.606(8) Uiso 1 1 d D . .
N4S N 0.8815(17) -0.0141(16) 0.491(2) 0.606(8) Uiso 1 1 d D . .
C11S C 0.852(3) -0.029(3) 0.532(2) 0.606(8) Uiso 1 1 d D . .
C12S C 0.884(3) -0.023(3) 0.442(2) 0.606(8) Uiso 1 1 d D . .
O5S O 0.7192(19) -0.1227(19) 0.4442(18) 0.606(8) Uiso 1 1 d D . .
C13S C 0.7145(18) -0.0735(19) 0.4363(16) 0.606(8) Uiso 1 1 d D . .
N5S N 0.6934(15) -0.040(2) 0.4695(19) 0.606(8) Uiso 1 1 d D . .
C14S C 0.672(3) -0.057(3) 0.517(2) 0.606(8) Uiso 1 1 d D . .
C15S C 0.689(3) 0.018(2) 0.457(2) 0.606(8) Uiso 1 1 d D . .
O6S O 0.816(2) -0.072(2) 0.0599(18) 0.606(8) Uiso 1 1 d D . .
C16S C 0.8353(16) -0.0846(15) 0.1032(17) 0.606(8) Uiso 1 1 d D . .
N6S N 0.8827(18) -0.0772(19) 0.1141(18) 0.606(8) Uiso 1 1 d D . .
C17S C 0.839(2) -0.095(3) 0.127(3) 0.606(8) Uiso 1 1 d D . .
C18S C 0.912(3) -0.058(3) 0.077(3) 0.606(8) Uiso 1 1 d D . .
O7S O 0.867(2) -0.0664(19) 0.8801(17) 0.606(8) Uiso 1 1 d D . .
C19S C 0.8605(17) -0.0344(19) 0.8379(16) 0.606(8) Uiso 1 1 d D . .
N7S N 0.804(2) 0.0092(18) 0.8230(17) 0.606(8) Uiso 1 1 d D . .
C20S C 0.767(2) 0.008(3) 0.864(3) 0.606(8) Uiso 1 1 d D . .
C21S C 0.865(2) -0.023(3) 0.823(3) 0.606(8) Uiso 1 1 d D . .
O8S O 0.4952(8) 0.0928(8) 0.4020(7) 0.229(2) Uiso 1 1 d D . .
C22S C 0.5042(12) 0.0520(10) 0.3816(8) 0.229(2) Uiso 1 1 d D . .
N8S N 0.5067(11) 0.0122(10) 0.3568(8) 0.229(2) Uiso 1 1 d D . .
C23S C 0.4600(11) -0.0016(13) 0.3431(10) 0.229(2) Uiso 1 1 d D . .
C24S C 0.5629(11) -0.0366(13) 0.3803(11) 0.229(2) Uiso 1 1 d D . .
O9S O 1.1053(19) 0.5074(18) -0.0423(18) 0.601(10) Uiso 1 1 d D . .
C25S C 1.0657(18) 0.5565(19) -0.0502(16) 0.601(10) Uiso 1 1 d D . .
N9S N 1.0339(17) 0.5786(19) -0.0147(15) 0.601(10) Uiso 1 1 d D . .
C26S C 1.049(3) 0.543(3) 0.0367(18) 0.601(10) Uiso 1 1 d D . .
C27S C 0.989(2) 0.639(2) -0.028(2) 0.601(10) Uiso 1 1 d D . .
O10S O 0.5009(18) 0.418(2) 0.5356(15) 0.601(10) Uiso 1 1 d D . .
C28S C 0.554(2) 0.3856(19) 0.5404(19) 0.601(10) Uiso 1 1 d D . .
N10S N 0.590(2) 0.407(2) 0.5522(12) 0.601(10) Uiso 1 1 d D . .
C29S C 0.546(3) 0.465(3) 0.553(3) 0.601(10) Uiso 1 1 d D . .
C30S C 0.6498(19) 0.395(3) 0.567(2) 0.601(10) Uiso 1 1 d D . .
O12S O 0.699(2) 0.4935(19) 0.8526(16) 0.601(10) Uiso 1 1 d D . .
C34S C 0.6791(19) 0.4964(19) 0.8127(16) 0.601(10) Uiso 1 1 d D . .
N12S N 0.6193(18) 0.5193(15) 0.8044(19) 0.601(10) Uiso 1 1 d D . .
C35S C 0.589(3) 0.532(3) 0.7562(19) 0.601(10) Uiso 1 1 d D . .
C36S C 0.587(3) 0.539(3) 0.845(2) 0.601(10) Uiso 1 1 d D . .
N1M N 0.4132(11) -0.0374(10) 0.1826(9) 0.229(2) Uiso 1 1 d . . .
C1M C 0.3603(14) -0.0409(13) 0.1606(11) 0.229(2) Uiso 1 1 d . . .
C2M C 0.4093(13) -0.0224(13) 0.2303(12) 0.229(2) Uiso 1 1 d . . .
N2M N 0.6045(11) 0.1628(12) 1.0273(9) 0.229(2) Uiso 1 1 d . . .
C3M C 0.5743(13) 0.1249(13) 1.0372(11) 0.229(2) Uiso 1 1 d . . .
C4M C 0.5705(14) 0.2152(15) 0.9996(11) 0.229(2) Uiso 1 1 d . . .
N3M N 0.6949(11) -0.0557(11) 0.2300(9) 0.229(2) Uiso 1 1 d . . .
N3M' N 0.6268(11) -0.0061(11) 0.1742(12) 0.229(2) Uiso 1 1 d . . .
C5M C 0.6442(15) -0.0331(15) 0.2225(13) 0.229(2) Uiso 1 1 d . . .
C6M C 0.5957(14) 0.0255(14) 0.1668(13) 0.229(2) Uiso 1 1 d . . .
N4M N 0.7343(10) -0.0607(10) -0.0252(9) 0.229(2) Uiso 1 1 d D . .
N4M' N 0.6815(10) -0.0615(10) -0.0280(9) 0.229(2) Uiso 1 1 d D . .
C7M C 0.7409(12) -0.1198(10) -0.0219(11) 0.229(2) Uiso 1 1 d D . .
C8M C 0.6847(13) -0.0112(11) -0.0107(11) 0.229(2) Uiso 1 1 d D . .
N5M N 1.4467(11) 0.1554(12) 0.2110(9) 0.229(2) Uiso 1 1 d . . .
C9M C 1.4020(14) 0.2112(14) 0.1852(11) 0.229(2) Uiso 1 1 d . . .
C10M C 1.4484(13) 0.1025(14) 0.1996(11) 0.229(2) Uiso 1 1 d . . .
N6M N 1.0374(10) 0.0198(10) 0.8216(9) 0.229(2) Uiso 1 1 d D . .
C11M C 0.9618(13) 0.0772(13) 0.8671(11) 0.229(2) Uiso 1 1 d . . .
C12M C 1.0618(13) -0.0331(12) 0.8708(10) 0.229(2) Uiso 1 1 d D . .
N7M N 0.8735(11) 0.2186(10) 0.8387(8) 0.229(2) Uiso 1 1 d D . .
C13M C 0.9072(11) 0.2447(13) 0.8592(11) 0.229(2) Uiso 1 1 d D . .
C14M C 0.8174(11) 0.2384(13) 0.8672(11) 0.229(2) Uiso 1 1 d D . .
N8M N 0.7141(10) 0.7921(11) 0.4884(9) 0.229(2) Uiso 1 1 d D . .
C15M C 0.6700(12) 0.7903(13) 0.5285(10) 0.229(2) Uiso 1 1 d D . .
C16M C 0.6770(13) 0.7906(13) 0.4439(10) 0.229(2) Uiso 1 1 d D . .
O1G O 0.842(3) 0.428(3) -0.103(2) 0.375(11) Uiso 0.50 1 d P . .
O2G O 1.142(3) 0.416(3) 0.654(2) 0.375(11) Uiso 0.50 1 d P . .
O3G O 0.410(3) 0.384(3) 0.137(2) 0.375(11) Uiso 0.50 1 d P . .
O4G O 0.751(3) 0.357(3) 0.047(2) 0.375(11) Uiso 0.50 1 d P . .
O5G O 0.497(3) 0.488(3) -0.031(2) 0.375(11) Uiso 0.50 1 d P . .
O6G O 0.923(3) -0.101(3) 0.628(2) 0.375(11) Uiso 0.50 1 d P . .
O7G O 1.040(3) 0.178(3) 0.007(2) 0.375(11) Uiso 0.50 1 d P . .
O8G O 0.984(3) -0.202(3) 0.649(2) 0.375(11) Uiso 0.50 1 d P . .

loop_
_atom_site_aniso_label
_atom_site_aniso_U_11
_atom_site_aniso_U_22
_atom_site_aniso_U_33
_atom_site_aniso_U_23
_atom_site_aniso_U_13
_atom_site_aniso_U_12
Fe1 0.0289(7) 0.0256(7) 0.0344(7) -0.0106(6) 0.0038(5) -0.0104(6)
Fe2 0.0277(7) 0.0238(7) 0.0328(7) -0.0069(5) 0.0023(5) -0.0103(6)
Fe3 0.0284(7) 0.0313(7) 0.0359(7) -0.0111(6) 0.0012(6) -0.0118(6)
Fe4 0.0392(8) 0.0458(9) 0.0352(8) -0.0063(7) 0.0043(6) -0.0105(7)
Fe5 0.0280(7) 0.0427(8) 0.0495(8) -0.0184(7) 0.0117(6) -0.0127(6)
Fe6 0.0454(9) 0.0423(8) 0.0523(9) -0.0183(7) 0.0021(7) -0.0246(7)
Fe7 0.0379(8) 0.0318(8) 0.0560(9) -0.0166(7) 0.0016(7) -0.0162(6)
Fe8 0.0279(7) 0.0427(9) 0.0543(9) -0.0144(7) 0.0068(6) -0.0065(7)
Fe9 0.0393(8) 0.0483(9) 0.0350(8) -0.0099(7) -0.0013(6) -0.0125(7)
Fe10 0.0294(8) 0.0507(9) 0.0556(9) -0.0241(7) 0.0081(7) -0.0116(7)
Fe11 0.0403(8) 0.0454(9) 0.0389(8) -0.0089(7) 0.0007(6) -0.0110(7)
Fe12 0.0351(8) 0.0341(8) 0.0609(9) -0.0175(7) 0.0026(7) -0.0176(6)
O1 0.036(4) 0.040(4) 0.034(3) -0.002(3) 0.001(3) -0.012(3)
O2 0.026(3) 0.025(3) 0.037(3) -0.011(3) 0.005(3) -0.013(3)
O3 0.027(3) 0.042(4) 0.049(4) -0.016(3) 0.008(3) -0.009(3)
O4 0.031(3) 0.032(3) 0.057(4) -0.018(3) 0.006(3) -0.020(3)
S1 0.0464(18) 0.059(2) 0.077(2) -0.0061(16) -0.0223(16) -0.0107(15)
O5 0.043(4) 0.056(5) 0.059(4) 0.002(4) -0.018(4) -0.010(4)
O6 0.054(4) 0.051(5) 0.051(4) -0.011(4) -0.018(3) -0.007(4)
O7 0.133(9) 0.092(7) 0.120(8) 0.002(6) -0.091(7) -0.026(7)
O8 0.050(5) 0.082(6) 0.142(8) -0.034(6) 0.026(5) -0.023(5)
S2 0.069(2) 0.072(2) 0.071(2) -0.0422(18) 0.0189(17) -0.0255(18)
O9 0.065(5) 0.077(6) 0.063(5) -0.039(4) 0.024(4) -0.026(4)
O10 0.052(5) 0.081(5) 0.055(4) -0.037(4) 0.014(4) -0.020(4)
O11 0.082(7) 0.056(6) 0.159(9) -0.034(6) 0.024(6) -0.022(5)
O12 0.103(8) 0.207(12) 0.086(7) -0.100(8) 0.040(6) -0.065(8)
S3 0.059(2) 0.058(2) 0.071(2) 0.0007(16) 0.0147(16) -0.0203(16)
O13 0.052(4) 0.055(5) 0.052(4) -0.006(4) 0.003(3) -0.024(4)
O14 0.061(5) 0.053(5) 0.052(4) 0.004(4) 0.024(4) -0.012(4)
O15 0.070(6) 0.108(8) 0.144(9) -0.037(7) 0.005(6) -0.051(6)
O16 0.123(9) 0.096(8) 0.100(7) 0.009(6) 0.062(7) -0.029(7)
S4 0.0401(14) 0.0411(15) 0.0495(15) -0.0246(12) 0.0111(12) -0.0198(12)
O17 0.033(3) 0.033(4) 0.052(4) -0.022(3) 0.003(3) -0.012(3)
O18 0.037(4) 0.053(4) 0.075(5) -0.038(4) 0.017(3) -0.023(3)
O19 0.061(5) 0.041(4) 0.115(7) -0.037(4) 0.014(5) -0.021(4)
O20 0.092(6) 0.105(7) 0.047(5) -0.034(4) 0.023(4) -0.062(5)
S5 0.0417(15) 0.0439(15) 0.0459(14) -0.0116(12) 0.0093(11) -0.0258(12)
O21 0.045(4) 0.038(4) 0.039(3) -0.004(3) 0.004(3) -0.027(3)
O22 0.052(4) 0.046(4) 0.043(4) -0.011(3) 0.001(3) -0.029(3)
O23 0.039(4) 0.072(5) 0.084(5) -0.032(4) 0.026(4) -0.023(4)
O24 0.071(5) 0.049(4) 0.066(5) 0.001(4) 0.002(4) -0.042(4)
S6 0.0311(13) 0.0388(14) 0.0345(13) -0.0075(11) -0.0008(10) -0.0122(11)
O25 0.032(3) 0.036(4) 0.034(3) -0.004(3) -0.001(3) -0.008(3)
O26 0.026(3) 0.035(3) 0.030(3) -0.006(3) 0.000(3) -0.006(3)
O27 0.057(5) 0.068(5) 0.060(4) -0.024(4) -0.001(4) -0.036(4)
O28 0.038(4) 0.055(4) 0.042(4) -0.002(3) 0.001(3) -0.002(3)
S7 0.069(2) 0.076(2) 0.075(2) -0.0334(18) 0.0304(17) -0.0453(19)
O29 0.053(4) 0.065(5) 0.061(4) -0.027(4) 0.024(4) -0.036(4)
O30 0.040(4) 0.071(5) 0.081(5) -0.035(4) 0.011(4) -0.028(4)
O31 0.114(8) 0.054(6) 0.105(7) -0.019(5) 0.025(6) -0.030(6)
O32 0.101(7) 0.140(9) 0.110(7) -0.060(7) 0.057(6) -0.094(7)
S8 0.0503(19) 0.079(2) 0.071(2) -0.0149(19) -0.0168(17) -0.0131(17)
O33 0.049(5) 0.063(5) 0.099(6) -0.021(5) -0.014(4) -0.017(4)
O34 0.034(4) 0.065(5) 0.095(6) -0.027(5) -0.011(4) -0.002(4)
O35 0.092(7) 0.105(8) 0.103(8) -0.029(6) -0.012(6) -0.040(6)
O36 0.030(4) 0.104(7) 0.147(9) -0.042(6) -0.015(5) -0.007(5)
S9 0.0526(17) 0.0505(18) 0.0678(19) -0.0305(15) 0.0215(15) -0.0162(14)
O39 0.052(4) 0.043(4) 0.072(5) -0.022(4) 0.016(4) -0.003(4)
O40 0.054(4) 0.052(5) 0.056(4) -0.025(4) 0.025(4) -0.019(4)
O41 0.078(6) 0.070(6) 0.094(6) -0.039(5) 0.045(5) -0.016(5)
O42 0.087(6) 0.082(6) 0.129(8) -0.048(6) 0.002(6) -0.046(5)
S10 0.0576(19) 0.0515(18) 0.077(2) -0.0367(16) 0.0195(15) -0.0238(15)
O43 0.058(5) 0.038(4) 0.071(5) -0.028(4) 0.017(4) -0.024(4)
O44 0.071(5) 0.050(5) 0.062(5) -0.032(4) 0.012(4) -0.026(4)
O45 0.057(5) 0.083(6) 0.119(7) -0.041(6) 0.031(5) -0.022(5)
O46 0.110(7) 0.076(6) 0.095(6) -0.060(5) 0.022(5) -0.046(5)
S11 0.0458(16) 0.0390(15) 0.076(2) -0.0135(14) 0.0117(14) -0.0250(13)
O47 0.045(4) 0.035(4) 0.078(5) -0.020(4) 0.011(4) -0.021(3)
O48 0.042(4) 0.040(4) 0.104(6) -0.016(4) 0.012(4) -0.022(4)
O49 0.093(6) 0.090(6) 0.061(5) -0.023(5) 0.015(5) -0.045(5)
O50 0.055(5) 0.063(5) 0.115(7) -0.021(5) 0.012(5) -0.042(4)
S12 0.056(2) 0.255(6) 0.091(3) -0.100(4) 0.014(2) -0.065(3)
O51 0.049(5) 0.094(6) 0.055(4) -0.019(4) -0.005(4) -0.037(4)
O52 0.047(4) 0.071(5) 0.062(5) -0.019(4) -0.008(4) -0.024(4)
O53 0.263(17) 0.189(13) 0.261(16) -0.165(13) 0.105(14) -0.183(14)
O54 0.062(6) 0.185(11) 0.079(6) -0.026(7) -0.024(5) -0.047(7)
O55 0.048(5) 0.081(6) 0.062(5) -0.023(4) -0.007(4) -0.019(4)
O56 0.048(5) 0.066(5) 0.050(4) -0.021(4) -0.009(4) -0.010(4)
O57 0.047(4) 0.062(5) 0.066(5) -0.033(4) -0.002(4) -0.018(4)
O58 0.051(4) 0.047(4) 0.063(5) -0.020(4) -0.006(4) -0.018(4)
C1 0.051(7) 0.049(7) 0.057(7) -0.020(6) -0.003(6) -0.021(6)
C2 0.058(8) 0.070(8) 0.090(9) -0.054(8) -0.005(7) -0.009(7)
C7 0.082(10) 0.111(12) 0.085(10) -0.057(9) -0.020(8) -0.011(9)
C8 0.063(8) 0.072(8) 0.044(7) -0.021(6) 0.000(6) -0.024(7)
C9 0.064(8) 0.104(11) 0.075(9) -0.060(8) -0.004(7) -0.008(8)
O59 0.046(4) 0.049(5) 0.058(5) 0.008(4) -0.003(4) -0.014(4)
O60 0.047(4) 0.052(4) 0.050(4) -0.006(3) -0.007(4) -0.014(4)
O61 0.034(4) 0.039(4) 0.040(4) 0.001(3) -0.004(3) -0.008(3)
O62 0.049(4) 0.045(4) 0.038(4) 0.002(3) -0.004(3) -0.022(4)
C15 0.039(6) 0.030(5) 0.041(6) -0.002(4) 0.002(5) -0.013(5)
C16 0.043(6) 0.041(6) 0.051(6) 0.008(5) -0.019(5) -0.016(5)
C17 0.102(11) 0.165(16) 0.096(11) 0.087(11) -0.060(9) -0.100(12)
C18 0.093(11) 0.149(14) 0.089(10) 0.074(10) -0.054(9) -0.085(11)
C19 0.062(8) 0.069(8) 0.046(6) 0.021(6) -0.012(6) -0.032(7)
C20 0.091(10) 0.118(12) 0.086(10) 0.052(9) -0.029(8) -0.073(10)
C21 0.050(7) 0.112(11) 0.081(9) 0.045(8) -0.031(7) -0.050(8)
C22 0.056(7) 0.045(6) 0.038(6) -0.014(5) 0.009(5) -0.014(6)
C23 0.042(6) 0.070(8) 0.031(5) 0.009(5) -0.008(5) -0.024(6)
C24 0.088(10) 0.123(13) 0.085(10) 0.062(9) -0.034(8) -0.070(10)
C25 0.087(10) 0.126(13) 0.097(11) 0.064(10) -0.051(9) -0.064(10)
C26 0.057(7) 0.072(8) 0.048(7) 0.022(6) -0.014(6) -0.032(7)
C27 0.089(9) 0.072(9) 0.067(8) 0.025(7) -0.020(7) -0.053(8)
C28 0.091(10) 0.080(9) 0.046(7) 0.020(6) -0.026(7) -0.041(8)
O63 0.059(5) 0.074(6) 0.044(4) -0.017(4) 0.017(4) -0.027(4)
O64 0.060(5) 0.060(5) 0.054(5) -0.013(4) 0.016(4) -0.022(4)
O65 0.059(5) 0.063(5) 0.056(5) -0.028(4) 0.020(4) -0.020(4)
O66 0.064(5) 0.065(5) 0.055(5) -0.027(4) 0.021(4) -0.026(4)
C29 0.034(6) 0.110(12) 0.049(7) -0.022(8) 0.011(5) -0.026(7)
C30 0.065(8) 0.081(9) 0.055(7) -0.032(7) 0.020(6) -0.027(7)
C31 0.179(18) 0.106(13) 0.146(15) -0.076(12) 0.111(14) -0.090(13)
C32 0.190(19) 0.126(15) 0.158(16) -0.085(13) 0.136(16) -0.094(14)
C33 0.081(10) 0.089(10) 0.083(9) -0.027(8) 0.039(8) -0.046(9)
C34 0.152(16) 0.135(15) 0.105(12) -0.080(11) 0.085(11) -0.084(13)
C35 0.158(15) 0.119(13) 0.105(11) -0.066(11) 0.092(11) -0.090(12)
C36 0.041(6) 0.057(7) 0.044(6) -0.019(5) 0.012(5) -0.012(5)
C37 0.062(7) 0.073(8) 0.044(6) -0.026(6) 0.021(6) -0.027(7)
C38 0.130(13) 0.082(10) 0.131(13) -0.056(10) 0.086(11) -0.067(10)
C39 0.147(15) 0.097(11) 0.109(12) -0.060(10) 0.090(11) -0.062(11)
C40 0.086(10) 0.084(10) 0.076(9) -0.034(8) 0.048(7) -0.046(8)
C41 0.165(16) 0.156(15) 0.119(12) -0.089(12) 0.105(12) -0.123(14)
C42 0.125(13) 0.114(12) 0.099(11) -0.072(10) 0.066(10) -0.074(11)
O67 0.047(5) 0.073(5) 0.080(5) -0.021(5) 0.005(4) -0.038(4)
O68 0.040(4) 0.054(5) 0.079(5) -0.009(4) -0.001(4) -0.032(4)
O69 0.037(4) 0.056(5) 0.068(5) -0.001(4) -0.001(4) -0.023(4)
O70 0.042(4) 0.067(5) 0.071(5) -0.015(4) 0.014(4) -0.036(4)
C43 0.041(6) 0.049(7) 0.083(8) -0.028(7) 0.001(6) -0.026(6)
C44 0.055(8) 0.061(8) 0.099(10) -0.009(7) -0.002(7) -0.035(7)
C45 0.067(10) 0.137(15) 0.165(16) 0.085(12) -0.042(10) -0.066(10)
C46 0.055(9) 0.171(18) 0.176(17) 0.085(14) -0.043(10) -0.061(11)
C47 0.076(9) 0.101(11) 0.092(10) 0.019(8) -0.011(8) -0.064(9)
C48 0.087(11) 0.182(18) 0.135(14) 0.077(13) -0.042(11) -0.096(13)
C49 0.068(10) 0.161(16) 0.150(15) 0.063(12) -0.030(10) -0.086(11)
C50 0.030(6) 0.059(7) 0.080(8) -0.031(7) 0.021(6) -0.029(6)
C51 0.027(6) 0.085(9) 0.070(8) -0.003(7) -0.005(6) -0.027(6)
C52 0.059(9) 0.112(12) 0.137(13) 0.047(10) -0.037(9) -0.055(9)
C53 0.094(11) 0.136(14) 0.149(15) 0.053(12) -0.042(11) -0.092(11)
C54 0.055(8) 0.094(10) 0.108(11) 0.022(9) -0.015(8) -0.049(8)
C55 0.079(11) 0.21(2) 0.129(14) 0.054(14) -0.036(10) -0.104(13)
C56 0.083(11) 0.162(16) 0.125(13) 0.025(12) -0.009(10) -0.088(12)
O71 0.030(4) 0.043(4) 0.059(4) -0.028(4) -0.002(3) -0.001(3)
O72 0.029(4) 0.034(4) 0.057(4) -0.018(3) 0.003(3) -0.003(3)
O73 0.037(4) 0.051(4) 0.072(5) -0.023(4) 0.008(4) -0.007(3)
O74 0.038(4) 0.056(5) 0.067(5) -0.031(4) 0.009(4) -0.007(4)
C57 0.030(5) 0.029(5) 0.046(6) -0.009(5) -0.001(5) -0.007(4)
C58 0.035(6) 0.041(6) 0.059(7) -0.022(5) -0.003(5) -0.001(5)
C59 0.045(7) 0.065(8) 0.061(7) -0.028(6) -0.014(6) 0.028(6)
C60 0.068(9) 0.079(9) 0.067(8) -0.035(7) -0.015(7) 0.018(7)
C61 0.034(6) 0.054(7) 0.081(8) -0.037(7) -0.009(6) 0.009(5)
C62 0.041(8) 0.135(13) 0.134(13) -0.095(12) -0.031(8) 0.029(8)
C63 0.058(8) 0.107(11) 0.129(12) -0.091(10) -0.029(8) 0.022(8)
C64 0.030(5) 0.049(6) 0.062(7) -0.016(5) 0.009(5) -0.015(5)
C65 0.030(6) 0.052(7) 0.059(7) -0.029(6) 0.001(5) 0.006(5)
C66 0.067(9) 0.093(11) 0.136(13) -0.085(10) -0.025(9) 0.022(8)
C67 0.071(10) 0.132(14) 0.138(14) -0.097(12) -0.041(9) 0.042(9)
C68 0.046(7) 0.057(8) 0.092(9) -0.038(7) -0.006(7) 0.003(6)
C69 0.069(10) 0.130(14) 0.150(14) -0.110(12) -0.040(10) 0.048(9)
C70 0.071(10) 0.093(11) 0.155(15) -0.075(11) -0.056(10) 0.045(8)
O75 0.046(4) 0.029(4) 0.054(4) -0.015(3) 0.013(3) -0.022(3)
O76 0.042(4) 0.033(4) 0.048(4) -0.016(3) 0.008(3) -0.021(3)
O77 0.081(5) 0.043(4) 0.069(5) -0.026(4) 0.017(4) -0.035(4)
O78 0.077(5) 0.037(4) 0.083(5) -0.023(4) 0.021(4) -0.036(4)
C71 0.050(7) 0.038(6) 0.070(8) -0.026(6) -0.008(6) -0.018(5)
C72 0.084(9) 0.045(7) 0.069(8) -0.024(6) 0.009(7) -0.038(7)
C73 0.148(14) 0.060(9) 0.128(12) -0.049(9) 0.072(11) -0.068(10)
C74 0.178(17) 0.085(11) 0.162(15) -0.084(11) 0.105(14) -0.092(12)
C75 0.115(11) 0.057(8) 0.097(9) -0.045(7) 0.047(8) -0.063(8)
C76 0.171(16) 0.075(10) 0.176(16) -0.086(11) 0.124(14) -0.090(11)
C77 0.145(14) 0.074(10) 0.160(15) -0.082(10) 0.095(12) -0.071(10)
C78 0.045(6) 0.027(5) 0.047(6) -0.009(5) -0.003(5) -0.018(5)
C79 0.083(8) 0.026(5) 0.056(7) -0.015(5) 0.010(6) -0.027(6)
C80 0.106(10) 0.038(6) 0.070(8) -0.025(6) 0.042(7) -0.044(7)
C81 0.129(12) 0.062(8) 0.096(10) -0.034(8) 0.055(9) -0.070(9)
C82 0.112(10) 0.044(7) 0.079(8) -0.032(7) 0.034(8) -0.049(7)
C83 0.186(16) 0.090(10) 0.125(12) -0.089(10) 0.101(12) -0.103(12)
C84 0.175(15) 0.069(9) 0.086(9) -0.044(8) 0.068(10) -0.083(10)
N1 0.060(7) 0.046(6) 0.068(6) -0.014(5) -0.010(5) -0.004(5)
C85 0.094(11) 0.064(9) 0.076(9) -0.013(7) -0.007(8) -0.026(8)
C86 0.17(2) 0.060(11) 0.121(14) -0.008(10) -0.010(14) -0.039(12)
C87 0.15(2) 0.074(13) 0.113(14) -0.035(11) 0.016(14) 0.018(14)
C88 0.116(16) 0.094(16) 0.165(19) -0.020(14) 0.028(14) -0.021(13)
C89 0.079(11) 0.066(10) 0.105(11) -0.035(8) 0.009(9) -0.005(8)
N2 0.061(7) 0.074(7) 0.049(5) -0.013(5) -0.006(5) -0.034(6)
C90 0.068(9) 0.092(10) 0.090(10) -0.029(8) -0.003(7) -0.040(8)
C91 0.098(12) 0.086(12) 0.140(14) -0.027(11) 0.005(10) -0.055(11)
C92 0.149(18) 0.17(2) 0.087(11) -0.025(12) 0.009(12) -0.119(17)
C93 0.155(17) 0.102(13) 0.108(12) -0.038(10) -0.024(12) -0.070(13)
C94 0.081(9) 0.059(8) 0.072(8) -0.014(7) -0.013(7) -0.030(7)
N3 0.045(6) 0.051(6) 0.071(6) -0.005(5) 0.014(5) -0.013(5)
C95 0.070(10) 0.116(14) 0.134(14) -0.044(11) 0.018(9) -0.042(10)
C96 0.069(11) 0.099(13) 0.170(17) -0.039(12) 0.031(11) 0.000(10)
C97 0.043(9) 0.122(16) 0.21(2) -0.020(15) 0.039(11) -0.029(11)
C98 0.049(10) 0.102(13) 0.27(2) -0.012(14) 0.024(12) -0.013(9)
C99 0.064(9) 0.073(9) 0.135(13) 0.003(9) 0.003(9) -0.035(8)
N4 0.074(7) 0.044(6) 0.084(8) -0.011(6) 0.026(6) -0.006(6)
C100 0.164(17) 0.078(11) 0.072(10) 0.008(9) -0.012(11) -0.016(11)
C101 0.23(3) 0.12(2) 0.13(2) 0.041(17) -0.012(19) -0.01(2)
C102 0.30(4) 0.064(16) 0.17(3) -0.015(16) -0.02(3) -0.033(19)
C103 0.20(2) 0.061(12) 0.145(18) -0.015(12) 0.046(17) -0.044(13)
C104 0.110(13) 0.059(10) 0.135(14) -0.020(10) 0.036(11) -0.032(9)
N5 0.047(6) 0.069(7) 0.069(7) -0.040(6) 0.009(5) -0.017(5)
C105 0.073(9) 0.060(9) 0.091(9) -0.046(8) 0.004(7) -0.021(7)
C106 0.093(12) 0.091(12) 0.146(16) -0.072(12) -0.005(11) -0.015(9)
C107 0.091(13) 0.108(15) 0.22(3) -0.109(18) 0.052(15) -0.049(12)
C108 0.091(12) 0.160(18) 0.107(13) -0.091(14) 0.021(10) -0.052(13)
C109 0.081(10) 0.106(11) 0.087(10) -0.054(9) 0.024(8) -0.050(9)
N6 0.047(5) 0.062(6) 0.050(5) -0.019(5) 0.009(4) -0.023(5)
C110 0.065(8) 0.092(10) 0.055(7) -0.021(7) 0.003(6) -0.046(7)
C111 0.123(14) 0.148(16) 0.093(12) -0.030(12) -0.002(10) -0.088(13)
C112 0.168(18) 0.150(18) 0.073(11) -0.009(12) -0.038(11) -0.090(15)
C113 0.171(18) 0.112(14) 0.097(13) 0.000(11) -0.041(12) -0.059(14)
C114 0.109(11) 0.087(10) 0.052(8) -0.001(7) -0.011(7) -0.048(9)
N7 0.043(6) 0.042(6) 0.082(7) -0.012(5) -0.008(5) -0.011(5)
C115 0.050(8) 0.056(8) 0.121(11) -0.023(8) 0.006(8) -0.013(7)
C116 0.063(10) 0.089(13) 0.151(17) -0.021(12) -0.008(11) -0.005(10)
C117 0.066(11) 0.049(10) 0.18(2) -0.018(12) -0.040(13) 0.014(8)
C118 0.135(16) 0.083(12) 0.104(12) -0.001(10) -0.032(12) -0.039(12)
C119 0.078(10) 0.061(9) 0.120(13) -0.023(9) -0.025(10) -0.011(8)
N9 0.080(7) 0.069(7) 0.064(6) -0.015(6) 0.017(6) -0.043(6)
C125 0.120(13) 0.087(11) 0.071(10) 0.002(8) 0.012(9) -0.050(10)
C126 0.16(2) 0.17(2) 0.083(13) -0.005(13) 0.034(13) -0.068(17)
C127 0.23(3) 0.18(3) 0.108(17) 0.037(17) 0.046(19) -0.11(2)
C128 0.117(16) 0.18(2) 0.128(17) -0.014(16) 0.043(14) -0.062(16)
C129 0.093(12) 0.129(14) 0.085(11) -0.009(10) 0.033(9) -0.054(11)
N10 0.043(5) 0.039(5) 0.037(4) -0.015(4) 0.007(4) -0.020(4)
C130 0.052(7) 0.070(8) 0.040(6) -0.027(5) 0.019(5) -0.028(6)
C131 0.050(7) 0.121(12) 0.063(8) -0.043(8) 0.012(6) -0.029(8)
C132 0.083(10) 0.108(11) 0.061(8) -0.054(8) 0.016(8) -0.023(9)
C133 0.060(8) 0.089(9) 0.058(7) -0.041(7) 0.007(6) -0.027(7)
C134 0.044(6) 0.053(7) 0.058(7) -0.025(6) -0.002(5) -0.016(5)
N11 0.041(5) 0.056(6) 0.054(6) -0.020(4) -0.006(4) -0.024(4)
C135 0.080(9) 0.113(11) 0.060(8) -0.024(8) -0.014(7) -0.058(9)
C136 0.129(15) 0.161(17) 0.097(12) -0.044(11) -0.028(11) -0.078(13)
C137 0.049(9) 0.141(15) 0.179(19) -0.066(14) -0.018(11) -0.041(10)
C138 0.056(8) 0.098(11) 0.102(11) -0.027(9) -0.011(8) -0.034(8)
C139 0.042(7) 0.063(8) 0.089(9) -0.017(7) -0.006(6) -0.026(6)
N12 0.039(5) 0.043(5) 0.049(5) -0.013(4) 0.010(4) -0.021(4)
C140 0.044(6) 0.063(7) 0.054(6) -0.004(5) -0.001(5) -0.034(6)
C141 0.051(8) 0.098(10) 0.095(10) -0.018(8) 0.005(7) -0.048(7)
C142 0.060(9) 0.089(10) 0.101(11) -0.019(9) 0.039(8) -0.038(8)
C143 0.067(9) 0.113(11) 0.075(9) -0.041(8) 0.034(7) -0.045(8)
C144 0.042(6) 0.072(8) 0.056(7) -0.015(6) 0.008(5) -0.030(6)

_geom_special_details            
;
All esds (except the esd in the dihedral angle between two l.s. planes)
are estimated using the full covariance matrix. The cell esds are taken
into account individually in the estimation of esds in distances, angles
and torsion angles; correlations between esds in cell parameters are only
used when they are defined by crystal symmetry. An approximate (isotropic)
treatment of cell esds is used for estimating esds involving l.s. planes.
;

loop_
_geom_bond_atom_site_label_1
_geom_bond_atom_site_label_2
_geom_bond_distance
_geom_bond_site_symmetry_2
_geom_bond_publ_flag
Fe1 O2 1.936(6) . ?
Fe1 O25 1.980(6) . ?
Fe1 O21 2.004(6) . ?
Fe1 O75 2.022(6) . ?
Fe1 O72 2.030(6) . ?
Fe1 N10 2.199(8) . ?
Fe2 O2 1.929(6) . ?
Fe2 O26 1.993(6) . ?
Fe2 O17 2.008(6) . ?
Fe2 O76 2.010(6) . ?
Fe2 O61 2.025(6) . ?
Fe2 N12 2.211(8) . ?
Fe3 O2 1.914(6) . ?
Fe3 O22 1.975(7) . ?
Fe3 O18 1.982(7) . ?
Fe3 O71 2.005(6) . ?
Fe3 O62 2.022(7) . ?
Fe3 N11 2.243(8) . ?
Fe4 O1 1.928(6) . ?
Fe4 O9 1.982(8) . ?
Fe4 O14 1.995(7) . ?
Fe4 O59 2.021(7) . ?
Fe4 O55 2.029(8) . ?
Fe4 N3 2.229(10) . ?
Fe5 O3 1.920(7) . ?
Fe5 O29 1.970(7) . ?
Fe5 O40 1.973(7) . ?
Fe5 O74 2.027(7) . ?
Fe5 O70 2.036(7) . ?
Fe5 N6 2.205(9) . ?
Fe6 O4 1.921(7) . ?
Fe6 O51 1.986(7) . ?
Fe6 O44 2.001(7) . ?
Fe6 O67 2.015(8) . ?
Fe6 O77 2.017(7) . ?
Fe6 N9 2.219(10) . ?
Fe7 O4 1.921(6) . ?
Fe7 O48 1.990(7) . ?
Fe7 O52 1.987(7) . ?
Fe7 O57 2.011(7) . ?
Fe7 O78 2.014(7) . ?
Fe7 N8 2.118(8) . ?
Fe8 O3 1.926(7) . ?
Fe8 O39 1.971(7) . ?
Fe8 O34 1.981(8) . ?
Fe8 O69 2.009(7) . ?
Fe8 O65 2.012(8) . ?
Fe8 N4 2.245(11) . ?
Fe9 O1 1.921(7) . ?
Fe9 O10 1.991(7) . ?
Fe9 O6 2.000(7) . ?
Fe9 O60 2.022(7) . ?
Fe9 O63 2.042(7) . ?
Fe9 N2 2.219(10) . ?
Fe10 O3 1.921(7) . ?
Fe10 O33 1.980(8) . ?
Fe10 O30 1.987(8) . ?
Fe10 O73 2.022(7) . ?
Fe10 O66 2.030(8) . ?
Fe10 N5 2.213(10) . ?
Fe11 O1 1.919(7) . ?
Fe11 O13 1.963(7) . ?
Fe11 O5 1.979(7) . ?
Fe11 O56 2.024(7) . ?
Fe11 O64 2.039(8) . ?
Fe11 N1 2.211(10) . ?
Fe12 O4 1.919(6) . ?
Fe12 O47 1.985(7) . ?
Fe12 O43 1.997(7) . ?
Fe12 O68 2.018(7) . ?
Fe12 O58 2.028(7) . ?
Fe12 N7 2.196(10) . ?
S1 O7 1.448(10) . ?
S1 O8 1.451(10) . ?
S1 O6 1.481(8) . ?
S1 O5 1.494(8) . ?
S2 O11 1.408(10) . ?
S2 O12 1.412(9) . ?
S2 O9 1.496(9) . ?
S2 O10 1.497(8) . ?
S3 O16 1.414(10) . ?
S3 O15 1.455(10) . ?
S3 O14 1.487(8) . ?
S3 O13 1.504(8) . ?
S4 O20 1.419(8) . ?
S4 O19 1.454(8) . ?
S4 O18 1.499(7) . ?
S4 O17 1.501(6) . ?
S5 O23 1.441(8) . ?
S5 O24 1.467(7) . ?
S5 O21 1.499(7) . ?
S5 O22 1.507(7) . ?
S6 O28 1.427(7) . ?
S6 O27 1.443(8) . ?
S6 O25 1.501(7) . ?
S6 O26 1.510(6) . ?
S7 O32 1.414(9) . ?
S7 O31 1.449(10) . ?
S7 O30 1.494(8) . ?
S7 O29 1.497(8) . ?
S8 O35 1.344(11) . ?
S8 O33 1.459(9) . ?
S8 O36 1.473(9) . ?
S8 O34 1.500(9) . ?
S9 O41 1.441(8) . ?
S9 O42 1.443(9) . ?
S9 O40 1.493(8) . ?
S9 O39 1.506(8) . ?
S10 O45 1.419(9) . ?
S10 O46 1.453(8) . ?
S10 O43 1.496(8) . ?
S10 O44 1.503(8) . ?
S11 O49 1.430(9) . ?
S11 O50 1.452(8) . ?
S11 O48 1.507(8) . ?
S11 O47 1.516(7) . ?
S12 O54 1.360(10) . ?
S12 O52 1.439(8) . ?
S12 O51 1.495(8) . ?
S12 O53 1.635(14) . ?
O55 C8 1.289(14) . ?
O56 C8 1.229(14) . ?
O57 C1 1.256(13) . ?
O58 C1 1.261(13) . ?
C1 C2 1.476(16) . ?
C2 C7 1.356(17) . ?
C2 C3 1.38(2) . ?
C2 C3' 1.40(3) . ?
C3 C3' 0.76(3) . ?
C3 C4 1.39(3) . ?
C3 C4' 1.63(4) . ?
C3' C4' 1.39(4) . ?
C3' C4 1.54(4) . ?
C4 C4' 0.78(4) . ?
C4 C5 1.39(4) . ?
C4 C5' 1.57(4) . ?
C4' C5' 1.33(4) . ?
C4' C5 1.50(5) . ?
C5 C5' 0.66(4) . ?
C5 C6 1.39(4) . ?
C5 C6' 1.45(5) . ?
C5 C12 1.46(4) . ?
C5 C12' 1.72(4) . ?
C5' C6' 1.29(4) . ?
C5' C12' 1.50(4) . ?
C5' C12 1.51(4) . ?
C5' C6 1.53(4) . ?
C6 C6' 0.65(4) . ?
C6 C7 1.43(3) . ?
C6' C7 1.53(4) . ?
C8 C9 1.485(16) . ?
C9 C14 1.37(3) . ?
C9 C10 1.39(3) . ?
C9 C10' 1.39(3) . ?
C9 C14' 1.43(4) . ?
C10 C10' 0.89(3) . ?
C10 C11 1.42(4) . ?
C10 C11' 1.65(4) . ?
C10' C11' 1.38(3) . ?
C10' C11 1.72(4) . ?
C11 C11' 0.99(3) . ?
C11 C12 1.35(4) . ?
C11 C12' 1.62(5) . ?
C11' C12' 1.36(4) . ?
C11' C12 1.53(4) . ?
C12 C12' 0.66(4) . ?
C12 C13 1.36(4) . ?
C12 C13' 1.48(4) . ?
C12' C13' 1.22(4) . ?
C12' C13 1.49(5) . ?
C13 C13' 0.83(4) . ?
C13 C14 1.55(5) . ?
C13 C14' 1.71(5) . ?
C13' C14' 1.38(4) . ?
C13' C14 1.64(4) . ?
C14 C14' 0.80(4) . ?
O59 C22 1.272(13) . ?
O60 C22 1.276(13) . ?
O61 C15 1.251(11) . ?
O62 C15 1.248(11) . ?
C15 C16 1.493(14) . ?
C16 C21 1.346(15) . ?
C16 C17 1.357(16) . ?
C17 C18 1.370(17) . ?
C17 H17A 0.9300 . ?
C18 C19 1.369(17) . ?
C18 H18A 0.9300 . ?
C19 C20 1.379(17) . ?
C19 C26 1.474(15) . ?
C20 C21 1.354(16) . ?
C20 H20A 0.9300 . ?
C21 H21A 0.9300 . ?
C22 C23 1.476(15) . ?
C23 C24 1.336(16) . ?
C23 C28 1.372(16) . ?
C24 C25 1.396(17) . ?
C24 H24A 0.9300 . ?
C25 C26 1.374(18) . ?
C25 H25A 0.9300 . ?
C26 C27 1.409(16) . ?
C27 C28 1.411(16) . ?
C27 H27A 0.9300 . ?
C28 H28A 0.9300 . ?
O63 C36 1.269(13) . ?
O64 C36 1.232(13) . ?
O65 C29 1.257(16) . ?
O66 C29 1.269(16) . ?
C29 C30 1.502(16) . ?
C30 C31 1.331(19) . ?
C30 C35 1.342(18) . ?
C31 C32 1.39(2) . ?
C31 H31A 0.9300 . ?
C32 C33 1.37(2) . ?
C32 H32A 0.9300 . ?
C33 C34 1.38(2) . ?
C33 C40 1.488(17) . ?
C34 C35 1.396(18) . ?
C34 H34A 0.9300 . ?
C35 H35A 0.9300 . ?
C36 C37 1.482(15) . ?
C37 C42 1.371(18) . ?
C37 C38 1.376(17) . ?
C38 C39 1.384(18) . ?
C38 H38A 0.9300 . ?
C39 C40 1.372(19) . ?
C39 H39A 0.9300 . ?
C40 C41 1.384(19) . ?
C41 C42 1.372(18) . ?
C41 H41A 0.9300 . ?
C42 H42A 0.9300 . ?
O67 C43 1.273(14) . ?
O68 C43 1.239(14) . ?
O69 C50 1.247(14) . ?
O70 C50 1.231(13) . ?
C43 C44 1.473(16) . ?
C44 C45 1.345(18) . ?
C44 C49 1.347(18) . ?
C45 C46 1.400(19) . ?
C45 H45A 0.9300 . ?
C46 C47 1.333(19) . ?
C46 H46A 0.9300 . ?
C47 C48 1.342(19) . ?
C47 C54 1.463(17) . ?
C48 C49 1.421(19) . ?
C48 H48A 0.9300 . ?
C49 H49A 0.9300 . ?
C50 C51 1.527(15) . ?
C51 C56 1.301(19) . ?
C51 C52 1.320(17) . ?
C52 C53 1.395(18) . ?
C52 H52A 0.9300 . ?
C53 C54 1.327(19) . ?
C53 H53A 0.9300 . ?
C54 C55 1.341(19) . ?
C55 C56 1.385(19) . ?
C55 H55A 0.9300 . ?
C56 H56A 0.9300 . ?
O71 C57 1.252(11) . ?
O72 C57 1.259(11) . ?
O73 C64 1.267(13) . ?
O74 C64 1.252(13) . ?
C57 C58 1.502(14) . ?
C58 C59 1.324(15) . ?
C58 C63 1.360(16) . ?
C59 C60 1.430(16) . ?
C59 H59A 0.9300 . ?
C60 C61 1.358(16) . ?
C60 H60A 0.9300 . ?
C61 C62 1.359(16) . ?
C61 C68 1.473(15) . ?
C62 C63 1.388(17) . ?
C62 H62A 0.9300 . ?
C63 H63A 0.9300 . ?
C64 C65 1.498(14) . ?
C65 C70 1.330(17) . ?
C65 C66 1.331(16) . ?
C66 C67 1.397(18) . ?
C66 H66A 0.9300 . ?
C67 C68 1.395(18) . ?
C67 H67A 0.9300 . ?
C68 C69 1.352(18) . ?
C69 C70 1.412(18) . ?
C69 H69A 0.9300 . ?
C70 H70A 0.9300 . ?
O75 C78 1.239(11) . ?
O76 C78 1.273(11) . ?
O77 C71 1.270(13) . ?
O78 C71 1.240(13) . ?
C71 C72 1.491(15) . ?
C72 C73 1.348(17) . ?
C72 C77 1.356(17) . ?
C73 C74 1.411(18) . ?
C73 H73A 0.9300 . ?
C74 C75 1.382(18) . ?
C74 H74A 0.9300 . ?
C75 C76 1.312(17) . ?
C75 C82 1.513(15) . ?
C76 C77 1.364(17) . ?
C76 H76A 0.9300 . ?
C77 H77A 0.9300 . ?
C78 C79 1.496(13) . ?
C79 C84 1.397(16) . ?
C79 C80 1.387(15) . ?
C80 C81 1.371(15) . ?
C80 H80A 0.9300 . ?
C81 C82 1.352(16) . ?
C81 H81A 0.9300 . ?
C82 C83 1.366(17) . ?
C83 C84 1.381(17) . ?
C83 H83A 0.9300 . ?
C84 H84A 0.9300 . ?
N1 C89 1.291(17) . ?
N1 C85 1.329(17) . ?
C85 C86 1.40(2) . ?
C85 H85A 0.9300 . ?
C86 C87 1.30(3) . ?
C86 H86A 0.9300 . ?
C87 C88 1.38(3) . ?
C87 H87A 0.9300 . ?
C88 C89 1.34(2) . ?
C88 H88A 0.9300 . ?
C89 H89A 0.9300 . ?
N2 C94 1.346(15) . ?
N2 C90 1.354(16) . ?
C90 C91 1.387(19) . ?
C90 H90A 0.9300 . ?
C91 C92 1.35(2) . ?
C91 H91A 0.9300 . ?
C92 C93 1.49(2) . ?
C92 H92A 0.9300 . ?
C93 C94 1.39(2) . ?
C93 H93A 0.9300 . ?
C94 H94A 0.9300 . ?
N3 C99 1.258(16) . ?
N3 C95 1.332(18) . ?
C95 C96 1.41(2) . ?
C95 H95A 0.9300 . ?
C96 C97 1.38(2) . ?
C96 H96A 0.9300 . ?
C97 C98 1.29(2) . ?
C97 H97A 0.9300 . ?
C98 C99 1.41(2) . ?
C98 H98A 0.9300 . ?
C99 H99A 0.9300 . ?
N4 C100 1.316(18) . ?
N4 C104 1.342(19) . ?
C100 C101 1.56(3) . ?
C100 H10A 0.9300 . ?
C101 C102 1.24(4) . ?
C101 H10B 0.9300 . ?
C102 C103 1.29(3) . ?
C102 H10C 0.9300 . ?
C103 C104 1.41(2) . ?
C103 H10D 0.9300 . ?
C104 H10E 0.9300 . ?
N5 C109 1.301(16) . ?
N5 C105 1.340(16) . ?
C105 C106 1.349(19) . ?
C105 H10F 0.9300 . ?
C106 C107 1.35(3) . ?
C106 H10G 0.9300 . ?
C107 C108 1.36(3) . ?
C107 H10H 0.9300 . ?
C108 C109 1.44(2) . ?
C108 H10I 0.9300 . ?
C109 H10J 0.9300 . ?
N6 C110 1.303(14) . ?
N6 C114 1.328(15) . ?
C110 C111 1.382(19) . ?
C110 H11A 0.9300 . ?
C111 C112 1.42(2) . ?
C111 H11B 0.9300 . ?
C112 C113 1.29(2) . ?
C112 H11C 0.9300 . ?
C113 C114 1.45(2) . ?
C113 H11D 0.9300 . ?
C114 H11E 0.9300 . ?
N7 C119 1.305(18) . ?
N7 C115 1.318(16) . ?
C115 C116 1.37(2) . ?
C115 H11F 0.9300 . ?
C116 C117 1.29(2) . ?
C116 H11G 0.9300 . ?
C117 C118 1.39(2) . ?
C117 H11H 0.9300 . ?
C118 C119 1.47(2) . ?
C118 H11I 0.9300 . ?
C119 H11J 0.9300 . ?
N8 C124 1.3278 . ?
N8 C120 1.3979 . ?
C120 C121 1.3759 . ?
C120 H120 0.9300 . ?
C121 C122 1.7002 . ?
C121 H121 0.9300 . ?
C122 C123 1.1581 . ?
C122 H122 0.9300 . ?
C123 C124 1.5157 . ?
C123 H123 0.9300 . ?
C124 H124 0.9300 . ?
N9 C129 1.310(18) . ?
N9 C125 1.319(18) . ?
C125 C126 1.36(2) . ?
C125 H12A 0.9300 . ?
C126 C127 1.38(3) . ?
C126 H12B 0.9300 . ?
C127 C128 1.36(3) . ?
C127 H12C 0.9300 . ?
C128 C129 1.40(2) . ?
C128 H12D 0.9300 . ?
C129 H12E 0.9300 . ?
N10 C134 1.316(12) . ?
N10 C130 1.338(13) . ?
C130 C131 1.377(15) . ?
C130 H13A 0.9300 . ?
C131 C132 1.370(18) . ?
C131 H13B 0.9300 . ?
C132 C133 1.366(18) . ?
C132 H13C 0.9300 . ?
C133 C134 1.390(15) . ?
C133 H13D 0.9300 . ?
C134 H13E 0.9300 . ?
N11 C135 1.288(14) . ?
N11 C139 1.322(14) . ?
C135 C136 1.428(19) . ?
C135 H13F 0.9300 . ?
C136 C137 1.39(2) . ?
C136 H13G 0.9300 . ?
C137 C138 1.33(2) . ?
C137 H13H 0.9300 . ?
C138 C139 1.370(17) . ?
C138 H13I 0.9300 . ?
C139 H13J 0.9300 . ?
N12 C140 1.338(12) . ?
N12 C144 1.345(13) . ?
C140 C141 1.398(16) . ?
C140 H14A 0.9300 . ?
C141 C142 1.384(19) . ?
C141 H14B 0.9300 . ?
C142 C143 1.383(19) . ?
C142 H14C 0.9300 . ?
C143 C144 1.393(16) . ?
C143 H14D 0.9300 . ?
C144 H14E 0.9300 . ?
N13A C14A 1.3900 . ?
N13A C19A 1.3900 . ?
C14A C15A 1.3900 . ?
C15A C17A 1.3900 . ?
C17A C18A 1.3900 . ?
C18A C19A 1.3900 . ?
N14 C150 1.3900 . ?
N14 C154 1.3900 . ?
C150 C151 1.3900 . ?
C151 C152 1.3900 . ?
C152 C153 1.3900 . ?
C153 C154 1.3900 . ?
N15 C155 1.3900 . ?
N15 C159 1.3900 . ?
C155 C156 1.3900 . ?
C156 C157 1.3900 . ?
C157 C158 1.3900 . ?
C158 C159 1.3900 . ?
N16 C160 1.3900 . ?
N16 C164 1.3900 . ?
C160 C161 1.3900 . ?
C161 C162 1.3900 . ?
C162 C163 1.3900 . ?
C163 C164 1.3900 . ?
N17 C165 1.3900 . ?
N17 C169 1.3900 . ?
C165 C166 1.3900 . ?
C166 C167 1.3900 . ?
C167 C168 1.3900 . ?
C168 C169 1.3900 . ?
C168 C35S 1.53(6) 2_666 ?
C169 C35S 2.02(6) 2_666 ?
N18 O4G 0.86(8) . ?
N18 C170 1.3900 . ?
N18 C174 1.3900 . ?
C170 C171 1.3900 . ?
C170 O4G 1.72(18) . ?
C171 C172 1.3900 . ?
C172 C173 1.3900 . ?
C173 C174 1.3900 . ?
C174 O4G 2.14(19) . ?
N19 C175 1.3900 . ?
N19 C179 1.3900 . ?
C175 C176 1.3900 . ?
C176 C177 1.3900 . ?
C177 C178 1.3900 . ?
C178 C179 1.3900 . ?
N20 C180 1.3900 . ?
N20 C184 1.3900 . ?
C180 C181 1.3900 . ?
C181 C182 1.3900 . ?
C182 C183 1.3900 . ?
C183 C184 1.3900 . ?
N21 C185 1.3900 . ?
N21 C189 1.3900 . ?
C185 C186 1.3900 . ?
C186 C187 1.3900 . ?
C187 C188 1.3900 . ?
C188 C189 1.3900 . ?
N22 C190 1.3900 . ?
N22 C194 1.3900 . ?
C190 C191 1.3900 . ?
C191 C192 1.3900 . ?
C192 C193 1.3900 . ?
C193 C194 1.3900 . ?
O1S C1S 1.2284 . ?
C1S N1S 1.3683 . ?
N1S C3S 1.4734 . ?
N1S C2S 1.4814 . ?
O2S C4S 1.23(2) . ?
C4S N2S 1.40(2) . ?
N2S C5S 1.46(2) . ?
N2S C6S 1.47(2) . ?
O4S C10S 1.23(2) . ?
C10S N4S 1.38(2) . ?
N4S C12S 1.45(2) . ?
N4S C11S 1.45(2) . ?
O5S C13S 1.23(2) . ?
C13S N5S 1.39(2) . ?
N5S C15S 1.47(2) . ?
N5S C14S 1.48(2) . ?
O6S C16S 1.24(2) . ?
O6S C17S 1.84(10) . ?
C16S C17S 0.64(10) . ?
C16S N6S 1.38(2) . ?
N6S C18S 1.41(2) . ?
N6S C17S 1.42(2) . ?
O7S C19S 1.24(2) . ?
O7S C21S 1.70(9) . ?
C19S N7S 1.40(2) . ?
N7S C21S 1.44(2) . ?
N7S C20S 1.49(2) . ?
O8S C22S 1.296(16) . ?
C22S N8S 1.397(16) . ?
N8S C24S 1.478(17) . ?
N8S C23S 1.494(17) . ?
O9S C25S 1.22(2) . ?
C25S N9S 1.37(2) . ?
N9S C26S 1.47(2) . ?
N9S C27S 1.465(19) . ?
O10S C28S 1.24(2) . ?
C28S N10S 1.38(2) . ?
N10S C30S 1.47(2) . ?
N10S C29S 1.48(2) . ?
O12S C34S 1.23(2) . ?
C34S N12S 1.39(2) . ?
N12S C35S 1.47(2) . ?
N12S C36S 1.47(2) . ?
C35S C168 1.5(3) 2_666 ?
C35S C169 2.0(3) 2_666 ?
N1M C2M 1.49(3) . ?
N1M C1M 1.57(3) . ?
N2M C4M 1.32(3) . ?
N2M C3M 1.51(3) . ?
N3M C5M 1.17(4) . ?
N3M' C6M 0.85(4) . ?
N3M' C5M 1.35(4) . ?
C5M C6M 1.90(5) . ?
N4M N4M' 1.38(3) . ?
N4M C7M 1.496(18) . ?
N4M C8M 1.524(18) . ?
N4M' C8M 1.584(18) . ?
N4M' C7M 1.607(18) . ?
N5M C9M 1.44(3) . ?
N5M C10M 1.52(3) . ?
N6M C12M 1.607(18) . ?
N7M C13M 1.535(17) . ?
N7M C14M 1.586(17) . ?
N8M C15M 1.594(18) . ?
N8M C16M 1.617(18) . ?

loop_
_geom_angle_atom_site_label_1
_geom_angle_atom_site_label_2
_geom_angle_atom_site_label_3
_geom_angle
_geom_angle_site_symmetry_1
_geom_angle_site_symmetry_3
_geom_angle_publ_flag
O2 Fe1 O25 98.4(2) . . ?
O2 Fe1 O21 95.8(2) . . ?
O25 Fe1 O21 90.5(3) . . ?
O2 Fe1 O75 93.05(19) . . ?
O25 Fe1 O75 90.91(19) . . ?
O21 Fe1 O75 170.7(2) . . ?
O2 Fe1 O72 94.87(19) . . ?
O25 Fe1 O72 166.33(19) . . ?
O21 Fe1 O72 91.30(19) . . ?
O75 Fe1 O72 85.20(19) . . ?
O2 Fe1 N10 176.8(2) . . ?
O25 Fe1 N10 84.5(2) . . ?
O21 Fe1 N10 85.4(2) . . ?
O75 Fe1 N10 85.5(2) . . ?
O72 Fe1 N10 82.1(2) . . ?
O2 Fe2 O26 97.1(2) . . ?
O2 Fe2 O17 95.1(2) . . ?
O26 Fe2 O17 86.7(3) . . ?
O2 Fe2 O76 95.52(18) . . ?
O26 Fe2 O76 93.34(18) . . ?
O17 Fe2 O76 169.32(19) . . ?
O2 Fe2 O61 96.90(19) . . ?
O26 Fe2 O61 165.99(19) . . ?
O17 Fe2 O61 91.44(19) . . ?
O76 Fe2 O61 85.91(19) . . ?
O2 Fe2 N12 178.6(2) . . ?
O26 Fe2 N12 82.4(2) . . ?
O17 Fe2 N12 83.6(2) . . ?
O76 Fe2 N12 85.8(2) . . ?
O61 Fe2 N12 83.6(2) . . ?
O2 Fe3 O22 97.0(3) . . ?
O2 Fe3 O18 98.2(3) . . ?
O22 Fe3 O18 88.1(3) . . ?
O2 Fe3 O71 95.10(19) . . ?
O22 Fe3 O71 91.7(2) . . ?
O18 Fe3 O71 166.6(2) . . ?
O2 Fe3 O62 95.74(19) . . ?
O22 Fe3 O62 167.2(2) . . ?
O18 Fe3 O62 90.2(2) . . ?
O71 Fe3 O62 86.9(2) . . ?
O2 Fe3 N11 176.6(2) . . ?
O22 Fe3 N11 84.3(2) . . ?
O18 Fe3 N11 85.0(2) . . ?
O71 Fe3 N11 81.7(2) . . ?
O62 Fe3 N11 83.0(2) . . ?
O1 Fe4 O9 96.8(3) . . ?
O1 Fe4 O14 97.0(3) . . ?
O9 Fe4 O14 90.9(3) . . ?
O1 Fe4 O59 94.8(2) . . ?
O9 Fe4 O59 91.5(3) . . ?
O14 Fe4 O59 167.5(2) . . ?
O1 Fe4 O55 96.4(2) . . ?
O9 Fe4 O55 166.5(2) . . ?
O14 Fe4 O55 90.3(3) . . ?
O59 Fe4 O55 84.5(3) . . ?
O1 Fe4 N3 178.3(3) . . ?
O9 Fe4 N3 84.0(3) . . ?
O14 Fe4 N3 84.5(3) . . ?
O59 Fe4 N3 83.6(3) . . ?
O55 Fe4 N3 82.7(3) . . ?
O3 Fe5 O29 97.3(2) . . ?
O3 Fe5 O40 97.3(2) . . ?
O29 Fe5 O40 89.2(3) . . ?
O3 Fe5 O74 96.5(2) . . ?
O29 Fe5 O74 91.4(2) . . ?
O40 Fe5 O74 166.0(2) . . ?
O3 Fe5 O70 93.4(2) . . ?
O29 Fe5 O70 169.0(2) . . ?
O40 Fe5 O70 92.0(2) . . ?
O74 Fe5 O70 84.9(3) . . ?
O3 Fe5 N6 176.7(2) . . ?
O29 Fe5 N6 85.8(3) . . ?
O40 Fe5 N6 83.7(2) . . ?
O74 Fe5 N6 82.4(2) . . ?
O70 Fe5 N6 83.5(3) . . ?
O4 Fe6 O51 97.3(2) . . ?
O4 Fe6 O44 98.5(2) . . ?
O51 Fe6 O44 86.7(3) . . ?
O4 Fe6 O67 94.8(2) . . ?
O51 Fe6 O67 167.9(2) . . ?
O44 Fe6 O67 91.3(2) . . ?
O4 Fe6 O77 95.4(2) . . ?
O51 Fe6 O77 92.3(2) . . ?
O44 Fe6 O77 166.1(2) . . ?
O67 Fe6 O77 86.8(2) . . ?
O4 Fe6 N9 177.3(3) . . ?
O51 Fe6 N9 84.6(3) . . ?
O44 Fe6 N9 83.5(3) . . ?
O67 Fe6 N9 83.2(3) . . ?
O77 Fe6 N9 82.6(3) . . ?
O4 Fe7 O48 96.4(2) . . ?
O4 Fe7 O52 98.2(2) . . ?
O48 Fe7 O52 89.0(3) . . ?
O4 Fe7 O57 94.0(2) . . ?
O48 Fe7 O57 92.3(3) . . ?
O52 Fe7 O57 167.5(3) . . ?
O4 Fe7 O78 95.4(2) . . ?
O48 Fe7 O78 168.1(2) . . ?
O52 Fe7 O78 90.2(2) . . ?
O57 Fe7 O78 86.0(2) . . ?
O4 Fe7 N8 178.4(2) . . ?
O48 Fe7 N8 84.8(2) . . ?
O52 Fe7 N8 82.9(2) . . ?
O57 Fe7 N8 84.8(2) . . ?
O78 Fe7 N8 83.4(2) . . ?
O3 Fe8 O39 97.8(2) . . ?
O3 Fe8 O34 95.7(3) . . ?
O39 Fe8 O34 89.1(3) . . ?
O3 Fe8 O69 94.6(2) . . ?
O39 Fe8 O69 91.2(2) . . ?
O34 Fe8 O69 169.6(3) . . ?
O3 Fe8 O65 97.0(2) . . ?
O39 Fe8 O65 165.0(2) . . ?
O34 Fe8 O65 92.0(3) . . ?
O69 Fe8 O65 85.1(3) . . ?
O3 Fe8 N4 176.9(3) . . ?
O39 Fe8 N4 83.7(3) . . ?
O34 Fe8 N4 87.0(3) . . ?
O69 Fe8 N4 82.7(3) . . ?
O65 Fe8 N4 81.4(3) . . ?
O1 Fe9 O10 97.8(3) . . ?
O1 Fe9 O6 97.9(3) . . ?
O10 Fe9 O6 89.0(3) . . ?
O1 Fe9 O60 95.0(2) . . ?
O10 Fe9 O60 91.9(2) . . ?
O6 Fe9 O60 166.9(2) . . ?
O1 Fe9 O63 95.0(2) . . ?
O10 Fe9 O63 167.1(3) . . ?
O6 Fe9 O63 90.7(2) . . ?
O60 Fe9 O63 85.5(3) . . ?
O1 Fe9 N2 175.7(2) . . ?
O10 Fe9 N2 84.7(3) . . ?
O6 Fe9 N2 85.6(3) . . ?
O60 Fe9 N2 81.4(3) . . ?
O63 Fe9 N2 82.4(3) . . ?
O3 Fe10 O33 97.4(2) . . ?
O3 Fe10 O30 96.6(2) . . ?
O33 Fe10 O30 90.6(3) . . ?
O3 Fe10 O73 94.8(2) . . ?
O33 Fe10 O73 167.4(2) . . ?
O30 Fe10 O73 91.4(2) . . ?
O3 Fe10 O66 94.9(2) . . ?
O33 Fe10 O66 90.1(3) . . ?
O30 Fe10 O66 168.3(2) . . ?
O73 Fe10 O66 85.5(2) . . ?
O3 Fe10 N5 174.2(2) . . ?
O33 Fe10 N5 87.7(3) . . ?
O30 Fe10 N5 86.1(3) . . ?
O73 Fe10 N5 80.0(3) . . ?
O66 Fe10 N5 82.2(3) . . ?
O1 Fe11 O13 97.5(3) . . ?
O1 Fe11 O5 98.7(3) . . ?
O13 Fe11 O5 90.5(3) . . ?
O1 Fe11 O56 94.5(2) . . ?
O13 Fe11 O56 91.2(2) . . ?
O5 Fe11 O56 166.4(2) . . ?
O1 Fe11 O64 94.4(2) . . ?
O13 Fe11 O64 168.0(2) . . ?
O5 Fe11 O64 89.6(2) . . ?
O56 Fe11 O64 86.0(2) . . ?
O1 Fe11 N1 174.8(3) . . ?
O13 Fe11 N1 85.8(3) . . ?
O5 Fe11 N1 85.3(3) . . ?
O56 Fe11 N1 81.4(3) . . ?
O64 Fe11 N1 82.2(3) . . ?
O4 Fe12 O47 97.7(2) . . ?
O4 Fe12 O43 97.1(2) . . ?
O47 Fe12 O43 87.9(3) . . ?
O4 Fe12 O68 95.1(2) . . ?
O47 Fe12 O68 167.2(2) . . ?
O43 Fe12 O68 91.6(2) . . ?
O4 Fe12 O58 95.1(2) . . ?
O47 Fe12 O58 90.8(3) . . ?
O43 Fe12 O58 167.8(2) . . ?
O68 Fe12 O58 87.1(2) . . ?
O4 Fe12 N7 177.8(3) . . ?
O47 Fe12 N7 84.4(3) . . ?
O43 Fe12 N7 83.6(3) . . ?
O68 Fe12 N7 82.8(3) . . ?
O58 Fe12 N7 84.2(3) . . ?
Fe11 O1 Fe9 119.8(3) . . ?
Fe11 O1 Fe4 119.8(3) . . ?
Fe9 O1 Fe4 120.4(3) . . ?
Fe3 O2 Fe2 119.7(3) . . ?
Fe3 O2 Fe1 120.6(3) . . ?
Fe2 O2 Fe1 119.6(3) . . ?
Fe10 O3 Fe5 120.1(3) . . ?
Fe10 O3 Fe8 119.7(3) . . ?
Fe5 O3 Fe8 120.2(3) . . ?
Fe6 O4 Fe12 119.8(3) . . ?
Fe6 O4 Fe7 119.4(3) . . ?
Fe12 O4 Fe7 120.7(3) . . ?
O7 S1 O8 114.5(7) . . ?
O7 S1 O6 108.9(6) . . ?
O8 S1 O6 108.8(5) . . ?
O7 S1 O5 108.5(6) . . ?
O8 S1 O5 109.4(6) . . ?
O6 S1 O5 106.5(5) . . ?
S1 O5 Fe11 135.3(5) . . ?
S1 O6 Fe9 133.4(5) . . ?
O11 S2 O12 112.0(7) . . ?
O11 S2 O9 108.7(6) . . ?
O12 S2 O9 109.4(6) . . ?
O11 S2 O10 110.7(6) . . ?
O12 S2 O10 108.6(6) . . ?
O9 S2 O10 107.4(5) . . ?
S2 O9 Fe4 136.3(5) . . ?
S2 O10 Fe9 132.4(5) . . ?
O16 S3 O15 112.5(7) . . ?
O16 S3 O14 108.1(6) . . ?
O15 S3 O14 109.2(6) . . ?
O16 S3 O13 110.7(6) . . ?
O15 S3 O13 109.0(5) . . ?
O14 S3 O13 107.2(5) . . ?
S3 O13 Fe11 134.1(5) . . ?
S3 O14 Fe4 135.4(5) . . ?
O20 S4 O19 114.7(5) . . ?
O20 S4 O18 108.9(5) . . ?
O19 S4 O18 107.5(5) . . ?
O20 S4 O17 109.8(4) . . ?
O19 S4 O17 108.4(4) . . ?
O18 S4 O17 107.3(4) . . ?
S4 O17 Fe2 133.9(4) . . ?
S4 O18 Fe3 135.6(4) . . ?
O23 S5 O24 113.5(5) . . ?
O23 S5 O21 109.8(4) . . ?
O24 S5 O21 108.5(4) . . ?
O23 S5 O22 110.0(5) . . ?
O24 S5 O22 108.2(4) . . ?
O21 S5 O22 106.5(4) . . ?
S5 O21 Fe1 132.8(4) . . ?
S5 O22 Fe3 133.7(4) . . ?
O28 S6 O27 114.0(5) . . ?
O28 S6 O25 109.5(4) . . ?
O27 S6 O25 110.2(4) . . ?
O28 S6 O26 108.5(4) . . ?
O27 S6 O26 108.8(4) . . ?
O25 S6 O26 105.6(4) . . ?
S6 O25 Fe1 133.0(4) . . ?
S6 O26 Fe2 132.5(4) . . ?
O32 S7 O31 111.4(6) . . ?
O32 S7 O30 110.2(6) . . ?
O31 S7 O30 110.0(5) . . ?
O32 S7 O29 108.4(5) . . ?
O31 S7 O29 110.0(6) . . ?
O30 S7 O29 106.7(5) . . ?
S7 O29 Fe5 134.1(4) . . ?
S7 O30 Fe10 134.0(5) . . ?
O35 S8 O33 107.7(6) . . ?
O35 S8 O36 114.1(7) . . ?
O33 S8 O36 109.9(6) . . ?
O35 S8 O34 109.4(6) . . ?
O33 S8 O34 107.7(5) . . ?
O36 S8 O34 107.8(6) . . ?
S8 O33 Fe10 138.1(5) . . ?
S8 O34 Fe8 134.1(5) . . ?
O41 S9 O42 113.9(6) . . ?
O41 S9 O40 110.1(5) . . ?
O42 S9 O40 108.7(5) . . ?
O41 S9 O39 108.4(5) . . ?
O42 S9 O39 109.1(6) . . ?
O40 S9 O39 106.3(4) . . ?
S9 O39 Fe8 135.7(5) . . ?
S9 O40 Fe5 133.5(4) . . ?
O45 S10 O46 115.3(6) . . ?
O45 S10 O43 109.5(5) . . ?
O46 S10 O43 107.5(5) . . ?
O45 S10 O44 110.1(5) . . ?
O46 S10 O44 107.0(5) . . ?
O43 S10 O44 107.0(4) . . ?
S10 O43 Fe12 134.1(4) . . ?
S10 O44 Fe6 133.1(5) . . ?
O49 S11 O50 113.8(5) . . ?
O49 S11 O48 110.4(5) . . ?
O50 S11 O48 107.1(5) . . ?
O49 S11 O47 111.3(5) . . ?
O50 S11 O47 107.4(5) . . ?
O48 S11 O47 106.4(4) . . ?
S11 O47 Fe12 134.0(4) . . ?
S11 O48 Fe7 134.5(5) . . ?
O54 S12 O52 115.6(6) . . ?
O54 S12 O51 113.6(7) . . ?
O52 S12 O51 110.2(5) . . ?
O54 S12 O53 107.2(9) . . ?
O52 S12 O53 103.3(7) . . ?
O51 S12 O53 105.8(7) . . ?
S12 O51 Fe6 133.3(5) . . ?
S12 O52 Fe7 133.5(5) . . ?
C8 O55 Fe4 130.7(7) . . ?
C8 O56 Fe11 135.9(8) . . ?
C1 O57 Fe7 134.7(7) . . ?
C1 O58 Fe12 132.6(7) . . ?
O57 C1 O58 124.6(10) . . ?
O57 C1 C2 118.2(11) . . ?
O58 C1 C2 117.2(11) . . ?
C7 C2 C3 118.9(14) . . ?
C7 C2 C3' 114.3(16) . . ?
C7 C2 C1 119.4(12) . . ?
C3 C2 C1 118.7(14) . . ?
C3' C2 C1 124.3(14) . . ?
C3' C3 C2 75(3) . . ?
C3' C3 C4 86(3) . . ?
C2 C3 C4 120(2) . . ?
C3' C3 C4' 58(3) . . ?
C2 C3 C4' 107(2) . . ?
C3 C3' C4' 94(3) . . ?
C3 C3' C2 73(3) . . ?
C4' C3' C2 121(2) . . ?
C3 C3' C4 64(3) . . ?
C2 C3' C4 109(2) . . ?
C4' C4 C3 94(4) . . ?
C4' C4 C5 82(4) . . ?
C3 C4 C5 121(3) . . ?
C4' C4 C3' 64(4) . . ?
C5 C4 C3' 114(2) . . ?
C4' C4 C5' 57(4) . . ?
C3 C4 C5' 120(2) . . ?
C3' C4 C5' 101(2) . . ?
C4 C4' C5' 93(4) . . ?
C4 C4' C3' 86(4) . . ?
C5' C4' C3' 125(3) . . ?
C4 C4' C5 67(4) . . ?
C3' C4' C5 117(3) . . ?
C4 C4' C3 58(3) . . ?
C5' C4' C3 120(3) . . ?
C5 C4' C3 101(3) . . ?
C5' C5 C6 88(5) . . ?
C5' C5 C4 93(5) . . ?
C6 C5 C4 119(3) . . ?
C5' C5 C6' 62(4) . . ?
C4 C5 C6' 114(3) . . ?
C5' C5 C12 81(4) . . ?
C6 C5 C12 119(3) . . ?
C4 C5 C12 122(3) . . ?
C6' C5 C12 114(3) . . ?
C5' C5 C4' 62(4) . . ?
C6 C5 C4' 112(3) . . ?
C6' C5 C4' 94(3) . . ?
C12 C5 C4' 115(3) . . ?
C5' C5 C12' 59(4) . . ?
C6 C5 C12' 118(3) . . ?
C4 C5 C12' 115(3) . . ?
C6' C5 C12' 103(3) . . ?
C4' C5 C12' 99(3) . . ?
C5 C5' C6' 91(5) . . ?
C5 C5' C4' 91(5) . . ?
C6' C5' C4' 112(3) . . ?
C5 C5' C12' 98(5) . . ?
C6' C5' C12' 127(3) . . ?
C4' C5' C12' 120(3) . . ?
C5 C5' C12 73(4) . . ?
C6' C5' C12 122(3) . . ?
C4' C5' C12 124(3) . . ?
C5 C5' C6 66(4) . . ?
C4' C5' C6 114(3) . . ?
C12' C5' C6 124(2) . . ?
C12 C5' C6 108(2) . . ?
C5 C5' C4 62(4) . . ?
C6' C5' C4 113(3) . . ?
C12' C5' C4 118(2) . . ?
C12 C5' C4 108(2) . . ?
C6 C5' C4 102(2) . . ?
C6' C6 C5 82(5) . . ?
C6' C6 C7 87(5) . . ?
C5 C6 C7 118(2) . . ?
C6' C6 C5' 57(5) . . ?
C7 C6 C5' 115(2) . . ?
C6 C6' C5' 98(6) . . ?
C6 C6' C5 72(5) . . ?
C6 C6' C7 68(5) . . ?
C5' C6' C7 123(3) . . ?
C5 C6' C7 108(3) . . ?
C2 C7 C6 121.8(16) . . ?
C2 C7 C6' 115.9(18) . . ?
O56 C8 O55 124.8(11) . . ?
O56 C8 C9 119.2(12) . . ?
O55 C8 C9 116.0(11) . . ?
C14 C9 C10 119.6(19) . . ?
C14 C9 C10' 119.0(19) . . ?
C10 C9 C14' 116(2) . . ?
C10' C9 C14' 96(2) . . ?
C14 C9 C8 114.2(16) . . ?
C10 C9 C8 120.0(17) . . ?
C10' C9 C8 124.7(15) . . ?
C14' C9 C8 123.1(19) . . ?
C10' C10 C9 71(3) . . ?
C10' C10 C11 93(3) . . ?
C9 C10 C11 118(3) . . ?
C10' C10 C11' 57(3) . . ?
C9 C10 C11' 104(2) . . ?
C10 C10' C11' 91(3) . . ?
C10 C10' C9 71(3) . . ?
C11' C10' C9 120(2) . . ?
C10 C10' C11 56(3) . . ?
C9 C10' C11 102(2) . . ?
C11' C11 C12 80(3) . . ?
C11' C11 C10 85(3) . . ?
C12 C11 C10 123(3) . . ?
C11' C11 C12' 57(3) . . ?
C10 C11 C12' 115(3) . . ?
C11' C11 C10' 53(2) . . ?
C12 C11 C10' 109(3) . . ?
C12' C11 C10' 92(2) . . ?
C11 C11' C12' 86(3) . . ?
C11 C11' C10' 92(3) . . ?
C12' C11' C10' 122(3) . . ?
C11 C11' C12 61(3) . . ?
C10' C11' C12 119(2) . . ?
C11 C11' C10 59(3) . . ?
C12' C11' C10 116(3) . . ?
C12 C11' C10 100(2) . . ?
C12' C12 C11 102(5) . . ?
C12' C12 C13 88(5) . . ?
C11 C12 C13 118(3) . . ?
C12' C12 C5 102(4) . . ?
C11 C12 C5 121(3) . . ?
C13 C12 C5 116(3) . . ?
C12' C12 C13' 54(4) . . ?
C11 C12 C13' 117(2) . . ?
C5 C12 C13' 121(2) . . ?
C12' C12 C11' 63(4) . . ?
C13 C12 C11' 115(3) . . ?
C5 C12 C11' 126(2) . . ?
C13' C12 C11' 93(2) . . ?
C12' C12 C5' 76(4) . . ?
C11 C12 C5' 123(2) . . ?
C13 C12 C5' 119(3) . . ?
C13' C12 C5' 108(2) . . ?
C11' C12 C5' 109(2) . . ?
C12 C12' C13' 100(5) . . ?
C12 C12' C11' 91(5) . . ?
C13' C12' C11' 115(3) . . ?
C12 C12' C5' 78(4) . . ?
C13' C12' C5' 125(3) . . ?
C11' C12' C5' 120(3) . . ?
C12 C12' C13 66(4) . . ?
C11' C12' C13 117(3) . . ?
C5' C12' C13 112(3) . . ?
C12 C12' C11 54(4) . . ?
C13' C12' C11 115(3) . . ?
C5' C12' C11 107(3) . . ?
C13 C12' C11 96(3) . . ?
C12 C12' C5 56(4) . . ?
C13' C12' C5 120(3) . . ?
C11' C12' C5 119(3) . . ?
C13 C12' C5 96(3) . . ?
C11 C12' C5 94(2) . . ?
C13' C13 C12 81(4) . . ?
C13' C13 C12' 55(3) . . ?
C13' C13 C14 81(4) . . ?
C12 C13 C14 118(3) . . ?
C12' C13 C14 111(3) . . ?
C13' C13 C14' 53(3) . . ?
C12 C13 C14' 105(3) . . ?
C12' C13 C14' 89(3) . . ?
C13 C13' C12' 91(4) . . ?
C13 C13' C14' 98(4) . . ?
C12' C13' C14' 119(3) . . ?
C13 C13' C12 65(4) . . ?
C14' C13' C12 118(3) . . ?
C13 C13' C14 69(4) . . ?
C12' C13' C14 122(3) . . ?
C12 C13' C14 106(2) . . ?
C14' C14 C9 78(4) . . ?
C14' C14 C13 87(4) . . ?
C9 C14 C13 117(3) . . ?
C14' C14 C13' 58(4) . . ?
C9 C14 C13' 109(2) . . ?
C14 C14' C13' 93(5) . . ?
C14 C14' C9 69(4) . . ?
C13' C14' C9 122(3) . . ?
C14 C14' C13 65(4) . . ?
C9 C14' C13 105(3) . . ?
C22 O59 Fe4 132.1(7) . . ?
C22 O60 Fe9 133.0(7) . . ?
C15 O61 Fe2 132.4(7) . . ?
C15 O62 Fe3 133.2(6) . . ?
O62 C15 O61 125.8(9) . . ?
O62 C15 C16 116.5(9) . . ?
O61 C15 C16 117.7(9) . . ?
C21 C16 C17 116.0(11) . . ?
C21 C16 C15 123.5(10) . . ?
C17 C16 C15 120.5(11) . . ?
C16 C17 C18 122.9(13) . . ?
C16 C17 H17A 118.5 . . ?
C18 C17 H17A 118.5 . . ?
C17 C18 C19 121.0(13) . . ?
C17 C18 H18A 119.5 . . ?
C19 C18 H18A 119.5 . . ?
C18 C19 C20 114.4(11) . . ?
C18 C19 C26 121.9(11) . . ?
C20 C19 C26 123.0(11) . . ?
C21 C20 C19 123.4(12) . . ?
C21 C20 H20A 118.3 . . ?
C19 C20 H20A 118.3 . . ?
C16 C21 C20 121.6(12) . . ?
C16 C21 H21A 119.2 . . ?
C20 C21 H21A 119.2 . . ?
O59 C22 O60 125.6(10) . . ?
O59 C22 C23 116.8(11) . . ?
O60 C22 C23 117.6(11) . . ?
C24 C23 C28 118.9(11) . . ?
C24 C23 C22 122.4(12) . . ?
C28 C23 C22 118.6(10) . . ?
C23 C24 C25 122.1(13) . . ?
C23 C24 H24A 119.0 . . ?
C25 C24 H24A 119.0 . . ?
C26 C25 C24 121.5(13) . . ?
C26 C25 H25A 119.3 . . ?
C24 C25 H25A 119.3 . . ?
C25 C26 C27 115.9(11) . . ?
C25 C26 C19 123.8(11) . . ?
C27 C26 C19 120.3(11) . . ?
C26 C27 C28 121.5(12) . . ?
C26 C27 H27A 119.3 . . ?
C28 C27 H27A 119.3 . . ?
C23 C28 C27 119.6(12) . . ?
C23 C28 H28A 120.2 . . ?
C27 C28 H28A 120.2 . . ?
C36 O63 Fe9 131.4(8) . . ?
C36 O64 Fe11 132.7(8) . . ?
C29 O65 Fe8 132.6(9) . . ?
C29 O66 Fe10 132.4(8) . . ?
O65 C29 O66 125.6(11) . . ?
O65 C29 C30 118.1(14) . . ?
O66 C29 C30 116.2(14) . . ?
C31 C30 C35 117.6(13) . . ?
C31 C30 C29 121.5(14) . . ?
C35 C30 C29 120.8(14) . . ?
C30 C31 C32 124.3(16) . . ?
C30 C31 H31A 117.9 . . ?
C32 C31 H31A 117.9 . . ?
C33 C32 C31 118.4(16) . . ?
C33 C32 H32A 120.8 . . ?
C31 C32 H32A 120.8 . . ?
C32 C33 C34 117.9(14) . . ?
C32 C33 C40 122.3(14) . . ?
C34 C33 C40 119.8(14) . . ?
C33 C34 C35 120.4(15) . . ?
C33 C34 H34A 119.8 . . ?
C35 C34 H34A 119.8 . . ?
C30 C35 C34 121.2(15) . . ?
C30 C35 H35A 119.4 . . ?
C34 C35 H35A 119.4 . . ?
O64 C36 O63 126.1(11) . . ?
O64 C36 C37 117.9(11) . . ?
O63 C36 C37 116.0(12) . . ?
C42 C37 C38 116.2(12) . . ?
C42 C37 C36 123.3(12) . . ?
C38 C37 C36 120.5(13) . . ?
C37 C38 C39 122.2(14) . . ?
C37 C38 H38A 118.9 . . ?
C39 C38 H38A 118.9 . . ?
C40 C39 C38 120.9(14) . . ?
C40 C39 H39A 119.6 . . ?
C38 C39 H39A 119.6 . . ?
C39 C40 C41 117.0(13) . . ?
C39 C40 C33 120.3(13) . . ?
C41 C40 C33 122.6(13) . . ?
C42 C41 C40 121.3(14) . . ?
C42 C41 H41A 119.4 . . ?
C40 C41 H41A 119.4 . . ?
C37 C42 C41 122.2(14) . . ?
C37 C42 H42A 118.9 . . ?
C41 C42 H42A 118.9 . . ?
C43 O67 Fe6 132.8(8) . . ?
C43 O68 Fe12 133.6(7) . . ?
C50 O69 Fe8 131.4(7) . . ?
C50 O70 Fe5 133.7(8) . . ?
O68 C43 O67 125.0(10) . . ?
O68 C43 C44 119.6(12) . . ?
O67 C43 C44 115.4(12) . . ?
C45 C44 C49 116.6(13) . . ?
C45 C44 C43 121.4(13) . . ?
C49 C44 C43 121.7(13) . . ?
C44 C45 C46 119.4(14) . . ?
C44 C45 H45A 120.3 . . ?
C46 C45 H45A 120.3 . . ?
C47 C46 C45 125.0(15) . . ?
C47 C46 H46A 117.5 . . ?
C45 C46 H46A 117.5 . . ?
C48 C47 C46 114.9(14) . . ?
C48 C47 C54 122.2(13) . . ?
C46 C47 C54 122.8(14) . . ?
C47 C48 C49 121.3(15) . . ?
C47 C48 H48A 119.4 . . ?
C49 C48 H48A 119.4 . . ?
C44 C49 C48 121.2(15) . . ?
C44 C49 H49A 119.4 . . ?
C48 C49 H49A 119.4 . . ?
O70 C50 O69 126.9(10) . . ?
O70 C50 C51 115.4(12) . . ?
O69 C50 C51 117.7(11) . . ?
C56 C51 C52 117.2(13) . . ?
C56 C51 C50 122.1(13) . . ?
C52 C51 C50 120.7(12) . . ?
C51 C52 C53 121.0(14) . . ?
C51 C52 H52A 119.5 . . ?
C53 C52 H52A 119.5 . . ?
C54 C53 C52 122.6(14) . . ?
C54 C53 H53A 118.7 . . ?
C52 C53 H53A 118.7 . . ?
C53 C54 C55 114.9(13) . . ?
C53 C54 C47 122.9(14) . . ?
C55 C54 C47 122.2(14) . . ?
C54 C55 C56 122.1(16) . . ?
C54 C55 H55A 119.0 . . ?
C56 C55 H55A 119.0 . . ?
C51 C56 C55 122.2(16) . . ?
C51 C56 H56A 118.9 . . ?
C55 C56 H56A 118.9 . . ?
C57 O71 Fe3 133.2(6) . . ?
C57 O72 Fe1 132.5(6) . . ?
C64 O73 Fe10 133.1(7) . . ?
C64 O74 Fe5 130.7(7) . . ?
O71 C57 O72 125.8(9) . . ?
O71 C57 C58 117.0(9) . . ?
O72 C57 C58 117.2(9) . . ?
C59 C58 C63 118.5(10) . . ?
C59 C58 C57 121.8(10) . . ?
C63 C58 C57 119.7(10) . . ?
C58 C59 C60 120.7(11) . . ?
C58 C59 H59A 119.7 . . ?
C60 C59 H59A 119.7 . . ?
C61 C60 C59 120.8(12) . . ?
C61 C60 H60A 119.6 . . ?
C59 C60 H60A 119.6 . . ?
C62 C61 C60 117.2(11) . . ?
C62 C61 C68 121.0(11) . . ?
C60 C61 C68 121.5(11) . . ?
C61 C62 C63 121.4(12) . . ?
C61 C62 H62A 119.3 . . ?
C63 C62 H62A 119.3 . . ?
C58 C63 C62 121.3(12) . . ?
C58 C63 H63A 119.3 . . ?
C62 C63 H63A 119.3 . . ?
O74 C64 O73 126.9(10) . . ?
O74 C64 C65 117.3(9) . . ?
O73 C64 C65 115.8(9) . . ?
C70 C65 C66 117.6(11) . . ?
C70 C65 C64 120.8(11) . . ?
C66 C65 C64 121.6(11) . . ?
C65 C66 C67 123.3(13) . . ?
C65 C66 H66A 118.4 . . ?
C67 C66 H66A 118.4 . . ?
C68 C67 C66 119.2(13) . . ?
C68 C67 H67A 120.4 . . ?
C66 C67 H67A 120.4 . . ?
C69 C68 C67 117.0(12) . . ?
C69 C68 C61 121.1(12) . . ?
C67 C68 C61 121.9(12) . . ?
C68 C69 C70 121.2(13) . . ?
C68 C69 H69A 119.4 . . ?
C70 C69 H69A 119.4 . . ?
C65 C70 C69 121.6(13) . . ?
C65 C70 H70A 119.2 . . ?
C69 C70 H70A 119.2 . . ?
C78 O75 Fe1 134.4(6) . . ?
C78 O76 Fe2 130.0(6) . . ?
C71 O77 Fe6 132.6(7) . . ?
C71 O78 Fe7 132.6(7) . . ?
O78 C71 O77 125.9(10) . . ?
O78 C71 C72 117.6(11) . . ?
O77 C71 C72 116.5(12) . . ?
C73 C72 C77 117.4(12) . . ?
C73 C72 C71 121.1(12) . . ?
C77 C72 C71 121.5(12) . . ?
C72 C73 C74 120.4(14) . . ?
C72 C73 H73A 119.8 . . ?
C74 C73 H73A 119.8 . . ?
C75 C74 C73 120.2(14) . . ?
C75 C74 H74A 119.9 . . ?
C73 C74 H74A 119.9 . . ?
C76 C75 C74 117.1(12) . . ?
C76 C75 C82 122.5(12) . . ?
C74 C75 C82 120.3(12) . . ?
C75 C76 C77 123.0(14) . . ?
C75 C76 H76A 118.5 . . ?
C77 C76 H76A 118.5 . . ?
C72 C77 C76 121.6(13) . . ?
C72 C77 H77A 119.2 . . ?
C76 C77 H77A 119.2 . . ?
O75 C78 O76 127.0(9) . . ?
O75 C78 C79 116.9(10) . . ?
O76 C78 C79 115.9(9) . . ?
C84 C79 C80 118.0(10) . . ?
C84 C79 C78 119.6(10) . . ?
C80 C79 C78 122.3(10) . . ?
C81 C80 C79 118.6(11) . . ?
C81 C80 H80A 120.7 . . ?
C79 C80 H80A 120.7 . . ?
C82 C81 C80 124.5(12) . . ?
C82 C81 H81A 117.8 . . ?
C80 C81 H81A 117.8 . . ?
C81 C82 C83 116.6(11) . . ?
C81 C82 C75 122.8(12) . . ?
C83 C82 C75 120.5(11) . . ?
C82 C83 C84 121.8(12) . . ?
C82 C83 H83A 119.1 . . ?
C84 C83 H83A 119.1 . . ?
C83 C84 C79 120.1(12) . . ?
C83 C84 H84A 120.0 . . ?
C79 C84 H84A 120.0 . . ?
C89 N1 C85 117.0(13) . . ?
C89 N1 Fe11 121.2(11) . . ?
C85 N1 Fe11 121.3(10) . . ?
N1 C85 C86 121.3(17) . . ?
N1 C85 H85A 119.4 . . ?
C86 C85 H85A 119.4 . . ?
C87 C86 C85 121(2) . . ?
C87 C86 H86A 119.4 . . ?
C85 C86 H86A 119.4 . . ?
C86 C87 C88 116(2) . . ?
C86 C87 H87A 122.1 . . ?
C88 C87 H87A 122.1 . . ?
C89 C88 C87 122(2) . . ?
C89 C88 H88A 119.2 . . ?
C87 C88 H88A 119.2 . . ?
N1 C89 C88 122.9(19) . . ?
N1 C89 H89A 118.5 . . ?
C88 C89 H89A 118.5 . . ?
C94 N2 C90 118.9(12) . . ?
C94 N2 Fe9 120.7(9) . . ?
C90 N2 Fe9 120.4(9) . . ?
N2 C90 C91 125.3(15) . . ?
N2 C90 H90A 117.4 . . ?
C91 C90 H90A 117.4 . . ?
C92 C91 C90 115.1(18) . . ?
C92 C91 H91A 122.4 . . ?
C90 C91 H91A 122.4 . . ?
C91 C92 C93 123.1(17) . . ?
C91 C92 H92A 118.5 . . ?
C93 C92 H92A 118.5 . . ?
C94 C93 C92 114.5(17) . . ?
C94 C93 H93A 122.8 . . ?
C92 C93 H93A 122.8 . . ?
N2 C94 C93 123.1(16) . . ?
N2 C94 H94A 118.5 . . ?
C93 C94 H94A 118.5 . . ?
C99 N3 C95 120.3(13) . . ?
C99 N3 Fe4 120.9(10) . . ?
C95 N3 Fe4 118.7(10) . . ?
N3 C95 C96 119.4(17) . . ?
N3 C95 H95A 120.3 . . ?
C96 C95 H95A 120.3 . . ?
C97 C96 C95 118.3(18) . . ?
C97 C96 H96A 120.8 . . ?
C95 C96 H96A 120.8 . . ?
C98 C97 C96 119.5(18) . . ?
C98 C97 H97A 120.3 . . ?
C96 C97 H97A 120.3 . . ?
C97 C98 C99 120(2) . . ?
C97 C98 H98A 120.2 . . ?
C99 C98 H98A 120.2 . . ?
N3 C99 C98 122.5(17) . . ?
N3 C99 H99A 118.8 . . ?
C98 C99 H99A 118.8 . . ?
C100 N4 C104 120.9(15) . . ?
C100 N4 Fe8 119.6(12) . . ?
C104 N4 Fe8 119.4(11) . . ?
N4 C100 C101 112(2) . . ?
N4 C100 H10A 124.2 . . ?
C101 C100 H10A 124.2 . . ?
C102 C101 C100 126(3) . . ?
C102 C101 H10B 117.0 . . ?
C100 C101 H10B 117.0 . . ?
C101 C102 C103 118(3) . . ?
C101 C102 H10C 121.2 . . ?
C103 C102 H10C 121.2 . . ?
C102 C103 C104 122(3) . . ?
C102 C103 H10D 119.2 . . ?
C104 C103 H10D 119.2 . . ?
N4 C104 C103 122(2) . . ?
N4 C104 H10E 119.2 . . ?
C103 C104 H10E 119.2 . . ?
C109 N5 C105 116.8(12) . . ?
C109 N5 Fe10 123.2(10) . . ?
C105 N5 Fe10 120.0(8) . . ?
N5 C105 C106 125.7(15) . . ?
N5 C105 H10F 117.2 . . ?
C106 C105 H10F 117.2 . . ?
C107 C106 C105 118(2) . . ?
C107 C106 H10G 121.2 . . ?
C105 C106 H10G 121.2 . . ?
C106 C107 C108 120.6(19) . . ?
C106 C107 H10H 119.7 . . ?
C108 C107 H10H 119.7 . . ?
C107 C108 C109 117.3(18) . . ?
C107 C108 H10I 121.3 . . ?
C109 C108 H10I 121.3 . . ?
N5 C109 C108 122.0(16) . . ?
N5 C109 H10J 119.0 . . ?
C108 C109 H10J 119.0 . . ?
C110 N6 C114 120.0(11) . . ?
C110 N6 Fe5 120.4(9) . . ?
C114 N6 Fe5 119.5(9) . . ?
N6 C110 C111 121.7(15) . . ?
N6 C110 H11A 119.1 . . ?
C111 C110 H11A 119.1 . . ?
C110 C111 C112 119.6(16) . . ?
C110 C111 H11B 120.2 . . ?
C112 C111 H11B 120.2 . . ?
C113 C112 C111 117.3(17) . . ?
C113 C112 H11C 121.4 . . ?
C111 C112 H11C 121.4 . . ?
C112 C113 C114 121.3(19) . . ?
C112 C113 H11D 119.3 . . ?
C114 C113 H11D 119.3 . . ?
N6 C114 C113 119.7(15) . . ?
N6 C114 H11E 120.1 . . ?
C113 C114 H11E 120.1 . . ?
C119 N7 C115 118.3(13) . . ?
C119 N7 Fe12 120.0(10) . . ?
C115 N7 Fe12 121.6(10) . . ?
N7 C115 C116 123.0(17) . . ?
N7 C115 H11F 118.5 . . ?
C116 C115 H11F 118.5 . . ?
C117 C116 C115 121.3(19) . . ?
C117 C116 H11G 119.4 . . ?
C115 C116 H11G 119.4 . . ?
C116 C117 C118 120.0(18) . . ?
C116 C117 H11H 120.0 . . ?
C118 C117 H11H 120.0 . . ?
C117 C118 C119 116.1(18) . . ?
C117 C118 H11I 121.9 . . ?
C119 C118 H11I 121.9 . . ?
N7 C119 C118 121.3(17) . . ?
N7 C119 H11J 119.4 . . ?
C118 C119 H11J 119.4 . . ?
C124 N8 C120 129.0 . . ?
C124 N8 Fe7 110.7(6) . . ?
C120 N8 Fe7 120.1(6) . . ?
C121 C120 N8 123.0 . . ?
C121 C120 H120 118.5 . . ?
N8 C120 H120 118.5 . . ?
C120 C121 C122 107.7 . . ?
C120 C121 H121 126.2 . . ?
C122 C121 H121 126.2 . . ?
C123 C122 C121 122.0 . . ?
C123 C122 H122 119.0 . . ?
C121 C122 H122 119.0 . . ?
C122 C123 C124 127.0 . . ?
C122 C123 H123 116.5 . . ?
C124 C123 H123 116.5 . . ?
N8 C124 C123 110.2 . . ?
N8 C124 H124 124.9 . . ?
C123 C124 H124 124.9 . . ?
C129 N9 C125 116.9(13) . . ?
C129 N9 Fe6 120.1(11) . . ?
C125 N9 Fe6 122.9(10) . . ?
N9 C125 C126 125.1(19) . . ?
N9 C125 H12A 117.5 . . ?
C126 C125 H12A 117.5 . . ?
C125 C126 C127 116(2) . . ?
C125 C126 H12B 122.0 . . ?
C127 C126 H12B 122.0 . . ?
C128 C127 C126 122(2) . . ?
C128 C127 H12C 119.1 . . ?
C126 C127 H12C 119.1 . . ?
C127 C128 C129 116(2) . . ?
C127 C128 H12D 122.1 . . ?
C129 C128 H12D 122.1 . . ?
N9 C129 C128 124.0(19) . . ?
N9 C129 H12E 118.0 . . ?
C128 C129 H12E 118.0 . . ?
C134 N10 C130 118.5(9) . . ?
C134 N10 Fe1 121.4(7) . . ?
C130 N10 Fe1 120.0(7) . . ?
N10 C130 C131 121.9(11) . . ?
N10 C130 H13A 119.0 . . ?
C131 C130 H13A 119.0 . . ?
C132 C131 C130 119.1(12) . . ?
C132 C131 H13B 120.4 . . ?
C130 C131 H13B 120.4 . . ?
C131 C132 C133 119.3(12) . . ?
C131 C132 H13C 120.4 . . ?
C133 C132 H13C 120.4 . . ?
C132 C133 C134 118.3(12) . . ?
C132 C133 H13D 120.9 . . ?
C134 C133 H13D 120.9 . . ?
N10 C134 C133 122.8(11) . . ?
N10 C134 H13E 118.6 . . ?
C133 C134 H13E 118.6 . . ?
C135 N11 C139 117.3(11) . . ?
C135 N11 Fe3 121.8(8) . . ?
C139 N11 Fe3 120.9(8) . . ?
N11 C135 C136 120.9(15) . . ?
N11 C135 H13F 119.5 . . ?
C136 C135 H13F 119.5 . . ?
C137 C136 C135 119.2(17) . . ?
C137 C136 H13G 120.4 . . ?
C135 C136 H13G 120.4 . . ?
C138 C137 C136 118.1(15) . . ?
C138 C137 H13H 120.9 . . ?
C136 C137 H13H 120.9 . . ?
C137 C138 C139 118.2(16) . . ?
C137 C138 H13I 120.9 . . ?
C139 C138 H13I 120.9 . . ?
N11 C139 C138 125.7(14) . . ?
N11 C139 H13J 117.1 . . ?
C138 C139 H13J 117.1 . . ?
C140 N12 C144 117.7(9) . . ?
C140 N12 Fe2 121.2(7) . . ?
C144 N12 Fe2 120.9(7) . . ?
N12 C140 C141 122.4(12) . . ?
N12 C140 H14A 118.8 . . ?
C141 C140 H14A 118.8 . . ?
C142 C141 C140 119.7(13) . . ?
C142 C141 H14B 120.2 . . ?
C140 C141 H14B 120.2 . . ?
C143 C142 C141 118.0(12) . . ?
C143 C142 H14C 121.0 . . ?
C141 C142 H14C 121.0 . . ?
C142 C143 C144 119.2(13) . . ?
C142 C143 H14D 120.4 . . ?
C144 C143 H14D 120.4 . . ?
N12 C144 C143 123.0(11) . . ?
N12 C144 H14E 118.5 . . ?
C143 C144 H14E 118.5 . . ?
C14A N13A C19A 120.0 . . ?
C15A C14A N13A 120.0 . . ?
C17A C15A C14A 120.0 . . ?
C15A C17A C18A 120.0 . . ?
C19A C18A C17A 120.0 . . ?
C18A C19A N13A 120.0 . . ?
C150 N14 C154 120.0 . . ?
C151 C150 N14 120.0 . . ?
C150 C151 C152 120.0 . . ?
C153 C152 C151 120.0 . . ?
C152 C153 C154 120.0 . . ?
C153 C154 N14 120.0 . . ?
C155 N15 C159 120.0 . . ?
C156 C155 N15 120.0 . . ?
C155 C156 C157 120.0 . . ?
C156 C157 C158 120.0 . . ?
C159 C158 C157 120.0 . . ?
C158 C159 N15 120.0 . . ?
C160 N16 C164 120.0 . . ?
N16 C160 C161 120.0 . . ?
C162 C161 C160 120.0 . . ?
C161 C162 C163 120.0 . . ?
C162 C163 C164 120.0 . . ?
C163 C164 N16 120.0 . . ?
C165 N17 C169 120.0 . . ?
C166 C165 N17 120.0 . . ?
C167 C166 C165 120.0 . . ?
C166 C167 C168 120.0 . . ?
C167 C168 C169 120.0 . . ?
C167 C168 C35S 152(4) . 2_666 ?
C169 C168 C35S 88(4) . 2_666 ?
C168 C169 N17 120.0 . . ?
C168 C169 C35S 49(3) . 2_666 ?
N17 C169 C35S 169(3) . 2_666 ?
O4G N18 C170 97(10) . . ?
O4G N18 C174 143(10) . . ?
C170 N18 C174 120.0 . . ?
C171 C170 N18 120.0 . . ?
C171 C170 O4G 150(6) . . ?
C172 C171 C170 120.0 . . ?
C173 C172 C171 120.0 . . ?
C172 C173 C174 120.0 . . ?
C173 C174 N18 120.00(6) . . ?
C173 C174 O4G 134(6) . . ?
C175 N19 C179 120.0 . . ?
C176 C175 N19 120.0 . . ?
C175 C176 C177 120.0 . . ?
C178 C177 C176 120.0 . . ?
C177 C178 C179 120.0 . . ?
C178 C179 N19 120.0 . . ?
C180 N20 C184 120.0 . . ?
C181 C180 N20 120.0 . . ?
C180 C181 C182 120.0 . . ?
C183 C182 C181 120.0 . . ?
C182 C183 C184 120.0 . . ?
C183 C184 N20 120.0 . . ?
C185 N21 C189 120.0 . . ?
N21 C185 C186 120.0 . . ?
C187 C186 C185 120.0 . . ?
C188 C187 C186 120.0 . . ?
C187 C188 C189 120.0 . . ?
C188 C189 N21 120.0 . . ?
C190 N22 C194 120.0 . . ?
C191 C190 N22 120.0 . . ?
C192 C191 C190 120.0 . . ?
C193 C192 C191 120.0 . . ?
C192 C193 C194 120.0 . . ?
C193 C194 N22 120.0 . . ?
O1S C1S N1S 119.7 . . ?
C1S N1S C3S 116.2 . . ?
C1S N1S C2S 129.6 . . ?
C3S N1S C2S 114.2 . . ?
O2S C4S N2S 120(4) . . ?
C4S N2S C5S 105(5) . . ?
C4S N2S C6S 134(5) . . ?
C5S N2S C6S 120(3) . . ?
O4S C10S N4S 117(4) . . ?
C10S N4S C12S 103(6) . . ?
C10S N4S C11S 124(5) . . ?
C12S N4S C11S 133(4) . . ?
O5S C13S N5S 123(4) . . ?
C13S N5S C15S 119(6) . . ?
C13S N5S C14S 126(5) . . ?
C15S N5S C14S 114(3) . . ?
C17S C16S O6S 158(6) . . ?
C17S C16S N6S 81(5) . . ?
O6S C16S N6S 121(4) . . ?
C16S N6S C18S 122(5) . . ?
C18S N6S C17S 148(5) . . ?
C16S C17S N6S 73(3) . . ?
N6S C17S O6S 87(4) . . ?
O7S C19S N7S 114(3) . . ?
C19S N7S C20S 110(3) . . ?
C21S N7S C20S 129(4) . . ?
N7S C21S O7S 90(3) . . ?
O8S C22S N8S 173(3) . . ?
C22S N8S C24S 99(2) . . ?
C22S N8S C23S 130(3) . . ?
C24S N8S C23S 118(2) . . ?
O9S C25S N9S 124(4) . . ?
C25S N9S C26S 119(4) . . ?
C25S N9S C27S 120(3) . . ?
C26S N9S C27S 121(3) . . ?
O10S C28S N10S 117(4) . . ?
C28S N10S C30S 147(5) . . ?
C28S N10S C29S 99(5) . . ?
C30S N10S C29S 114(3) . . ?
O12S C34S N12S 118(4) . . ?
C34S N12S C35S 123(5) . . ?
C34S N12S C36S 116(5) . . ?
C35S N12S C36S 121(3) . . ?
C168 C35S N12S 152(10) 2_666 . ?
N12S C35S C169 128(8) . 2_666 ?
C2M N1M C1M 119(3) . . ?
C4M N2M C3M 112(3) . . ?
C6M N3M' C5M 117(5) . . ?
N3M C5M N3M' 111(4) . . ?
N3M C5M C6M 129(4) . . ?
N4M' N4M C7M 67.8(12) . . ?
N4M' N4M C8M 65.9(12) . . ?
C7M N4M C8M 129(2) . . ?
N4M N4M' C8M 61.4(11) . . ?
N4M N4M' C7M 59.5(11) . . ?
C8M N4M' C7M 117.0(18) . . ?
N4M C7M N4M' 52.7(14) . . ?
N4M C8M N4M' 52.7(14) . . ?
C9M N5M C10M 119(3) . . ?
C13M N7M C14M 100.8(18) . . ?
C15M N8M C16M 96(2) . . ?
N18 O4G C170 53(10) . . ?
C174 O4G C170 76(3) . . ?

loop_
_geom_torsion_atom_site_label_1
_geom_torsion_atom_site_label_2
_geom_torsion_atom_site_label_3
_geom_torsion_atom_site_label_4
_geom_torsion
_geom_torsion_site_symmetry_1
_geom_torsion_site_symmetry_2
_geom_torsion_site_symmetry_3
_geom_torsion_site_symmetry_4
_geom_torsion_publ_flag
O13 Fe11 O1 Fe9 134.1(4) . . . . ?
O5 Fe11 O1 Fe9 42.4(4) . . . . ?
O56 Fe11 O1 Fe9 -134.1(3) . . . . ?
O64 Fe11 O1 Fe9 -47.8(3) . . . . ?
O13 Fe11 O1 Fe4 -47.5(4) . . . . ?
O5 Fe11 O1 Fe4 -139.2(4) . . . . ?
O56 Fe11 O1 Fe4 44.3(3) . . . . ?
O64 Fe11 O1 Fe4 130.6(3) . . . . ?
O10 Fe9 O1 Fe11 -134.6(4) . . . . ?
O6 Fe9 O1 Fe11 -44.5(4) . . . . ?
O60 Fe9 O1 Fe11 132.8(3) . . . . ?
O63 Fe9 O1 Fe11 46.9(3) . . . . ?
O10 Fe9 O1 Fe4 47.0(4) . . . . ?
O6 Fe9 O1 Fe4 137.1(4) . . . . ?
O60 Fe9 O1 Fe4 -45.6(3) . . . . ?
O63 Fe9 O1 Fe4 -131.5(3) . . . . ?
O9 Fe4 O1 Fe11 137.3(4) . . . . ?
O14 Fe4 O1 Fe11 45.5(4) . . . . ?
O59 Fe4 O1 Fe11 -130.6(3) . . . . ?
O55 Fe4 O1 Fe11 -45.6(3) . . . . ?
O9 Fe4 O1 Fe9 -44.4(4) . . . . ?
O14 Fe4 O1 Fe9 -136.2(4) . . . . ?
O59 Fe4 O1 Fe9 47.7(3) . . . . ?
O55 Fe4 O1 Fe9 132.8(3) . . . . ?
O22 Fe3 O2 Fe2 -136.2(3) . . . . ?
O18 Fe3 O2 Fe2 -47.1(4) . . . . ?
O71 Fe3 O2 Fe2 131.4(3) . . . . ?
O62 Fe3 O2 Fe2 44.0(3) . . . . ?
O22 Fe3 O2 Fe1 47.1(4) . . . . ?
O18 Fe3 O2 Fe1 136.2(4) . . . . ?
O71 Fe3 O2 Fe1 -45.3(3) . . . . ?
O62 Fe3 O2 Fe1 -132.7(3) . . . . ?
O26 Fe2 O2 Fe3 138.0(3) . . . . ?
O17 Fe2 O2 Fe3 50.7(4) . . . . ?
O76 Fe2 O2 Fe3 -127.9(3) . . . . ?
O61 Fe2 O2 Fe3 -41.4(3) . . . . ?
O26 Fe2 O2 Fe1 -45.3(4) . . . . ?
O17 Fe2 O2 Fe1 -132.6(3) . . . . ?
O76 Fe2 O2 Fe1 48.8(3) . . . . ?
O61 Fe2 O2 Fe1 135.3(3) . . . . ?
O25 Fe1 O2 Fe3 -139.1(3) . . . . ?
O21 Fe1 O2 Fe3 -47.7(4) . . . . ?
O75 Fe1 O2 Fe3 129.5(3) . . . . ?
O72 Fe1 O2 Fe3 44.1(3) . . . . ?
O25 Fe1 O2 Fe2 44.2(4) . . . . ?
O21 Fe1 O2 Fe2 135.6(3) . . . . ?
O75 Fe1 O2 Fe2 -47.2(3) . . . . ?
O72 Fe1 O2 Fe2 -132.6(3) . . . . ?
O33 Fe10 O3 Fe5 -138.4(3) . . . . ?
O30 Fe10 O3 Fe5 -46.9(3) . . . . ?
O73 Fe10 O3 Fe5 45.1(3) . . . . ?
O66 Fe10 O3 Fe5 130.9(3) . . . . ?
O33 Fe10 O3 Fe8 44.9(3) . . . . ?
O30 Fe10 O3 Fe8 136.3(3) . . . . ?
O73 Fe10 O3 Fe8 -131.7(3) . . . . ?
O66 Fe10 O3 Fe8 -45.9(3) . . . . ?
O29 Fe5 O3 Fe10 46.8(3) . . . . ?
O40 Fe5 O3 Fe10 137.0(3) . . . . ?
O74 Fe5 O3 Fe10 -45.4(3) . . . . ?
O70 Fe5 O3 Fe10 -130.6(3) . . . . ?
O29 Fe5 O3 Fe8 -136.4(3) . . . . ?
O40 Fe5 O3 Fe8 -46.3(3) . . . . ?
O74 Fe5 O3 Fe8 131.4(3) . . . . ?
O70 Fe5 O3 Fe8 46.2(3) . . . . ?
O39 Fe8 O3 Fe10 -140.1(3) . . . . ?
O34 Fe8 O3 Fe10 -50.2(3) . . . . ?
O69 Fe8 O3 Fe10 128.1(3) . . . . ?
O65 Fe8 O3 Fe10 42.5(3) . . . . ?
O39 Fe8 O3 Fe5 43.2(3) . . . . ?
O34 Fe8 O3 Fe5 133.1(3) . . . . ?
O69 Fe8 O3 Fe5 -48.6(3) . . . . ?
O65 Fe8 O3 Fe5 -134.2(3) . . . . ?
O51 Fe6 O4 Fe12 133.3(3) . . . . ?
O44 Fe6 O4 Fe12 45.5(3) . . . . ?
O67 Fe6 O4 Fe12 -46.5(3) . . . . ?
O77 Fe6 O4 Fe12 -133.7(3) . . . . ?
O51 Fe6 O4 Fe7 -47.8(3) . . . . ?
O44 Fe6 O4 Fe7 -135.6(3) . . . . ?
O67 Fe6 O4 Fe7 132.4(3) . . . . ?
O77 Fe6 O4 Fe7 45.2(3) . . . . ?
O47 Fe12 O4 Fe6 -135.1(3) . . . . ?
O43 Fe12 O4 Fe6 -46.3(3) . . . . ?
O68 Fe12 O4 Fe6 45.9(3) . . . . ?
O58 Fe12 O4 Fe6 133.4(3) . . . . ?
O47 Fe12 O4 Fe7 46.0(3) . . . . ?
O43 Fe12 O4 Fe7 134.8(3) . . . . ?
O68 Fe12 O4 Fe7 -133.0(3) . . . . ?
O58 Fe12 O4 Fe7 -45.5(3) . . . . ?
O48 Fe7 O4 Fe6 134.3(3) . . . . ?
O52 Fe7 O4 Fe6 44.4(3) . . . . ?
O57 Fe7 O4 Fe6 -132.9(3) . . . . ?
O78 Fe7 O4 Fe6 -46.6(3) . . . . ?
O48 Fe7 O4 Fe12 -46.8(3) . . . . ?
O52 Fe7 O4 Fe12 -136.7(3) . . . . ?
O57 Fe7 O4 Fe12 46.0(3) . . . . ?
O78 Fe7 O4 Fe12 132.3(3) . . . . ?
O7 S1 O5 Fe11 155.8(8) . . . . ?
O8 S1 O5 Fe11 -78.7(8) . . . . ?
O6 S1 O5 Fe11 38.7(8) . . . . ?
O1 Fe11 O5 S1 -41.1(7) . . . . ?
O13 Fe11 O5 S1 -138.7(7) . . . . ?
O56 Fe11 O5 S1 124.1(10) . . . . ?
O64 Fe11 O5 S1 53.3(7) . . . . ?
N1 Fe11 O5 S1 135.6(7) . . . . ?
O7 S1 O6 Fe9 -159.1(8) . . . . ?
O8 S1 O6 Fe9 75.5(8) . . . . ?
O5 S1 O6 Fe9 -42.3(8) . . . . ?
O1 Fe9 O6 S1 47.6(7) . . . . ?
O10 Fe9 O6 S1 145.4(7) . . . . ?
O60 Fe9 O6 S1 -120.5(9) . . . . ?
O63 Fe9 O6 S1 -47.6(7) . . . . ?
N2 Fe9 O6 S1 -129.9(7) . . . . ?
O11 S2 O9 Fe4 82.1(9) . . . . ?
O12 S2 O9 Fe4 -155.3(8) . . . . ?
O10 S2 O9 Fe4 -37.7(9) . . . . ?
O1 Fe4 O9 S2 41.2(8) . . . . ?
O14 Fe4 O9 S2 138.4(8) . . . . ?
O59 Fe4 O9 S2 -53.8(8) . . . . ?
O55 Fe4 O9 S2 -126.6(11) . . . . ?
N3 Fe4 O9 S2 -137.2(8) . . . . ?
O11 S2 O10 Fe9 -78.7(9) . . . . ?
O12 S2 O10 Fe9 158.0(8) . . . . ?
O9 S2 O10 Fe9 39.9(9) . . . . ?
O1 Fe9 O10 S2 -46.5(7) . . . . ?
O6 Fe9 O10 S2 -144.3(7) . . . . ?
O60 Fe9 O10 S2 48.8(7) . . . . ?
O63 Fe9 O10 S2 126.9(10) . . . . ?
N2 Fe9 O10 S2 130.0(7) . . . . ?
O16 S3 O13 Fe11 -156.6(7) . . . . ?
O15 S3 O13 Fe11 79.2(8) . . . . ?
O14 S3 O13 Fe11 -39.0(8) . . . . ?
O1 Fe11 O13 S3 46.3(7) . . . . ?
O5 Fe11 O13 S3 145.1(7) . . . . ?
O56 Fe11 O13 S3 -48.4(7) . . . . ?
O64 Fe11 O13 S3 -124.6(11) . . . . ?
N1 Fe11 O13 S3 -129.7(7) . . . . ?
O16 S3 O14 Fe4 155.4(8) . . . . ?
O15 S3 O14 Fe4 -81.9(9) . . . . ?
O13 S3 O14 Fe4 36.1(9) . . . . ?
O1 Fe4 O14 S3 -41.3(8) . . . . ?
O9 Fe4 O14 S3 -138.2(8) . . . . ?
O59 Fe4 O14 S3 120.4(11) . . . . ?
O55 Fe4 O14 S3 55.2(8) . . . . ?
N3 Fe4 O14 S3 137.9(8) . . . . ?
O20 S4 O17 Fe2 -78.4(7) . . . . ?
O19 S4 O17 Fe2 155.6(6) . . . . ?
O18 S4 O17 Fe2 39.8(7) . . . . ?
O2 Fe2 O17 S4 -50.2(6) . . . . ?
O26 Fe2 O17 S4 -147.0(6) . . . . ?
O76 Fe2 O17 S4 122.3(10) . . . . ?
O61 Fe2 O17 S4 46.9(5) . . . . ?
N12 Fe2 O17 S4 130.3(6) . . . . ?
O20 S4 O18 Fe3 87.3(7) . . . . ?
O19 S4 O18 Fe3 -147.9(7) . . . . ?
O17 S4 O18 Fe3 -31.5(8) . . . . ?
O2 Fe3 O18 S4 37.0(7) . . . . ?
O22 Fe3 O18 S4 133.8(7) . . . . ?
O71 Fe3 O18 S4 -136.5(9) . . . . ?
O62 Fe3 O18 S4 -58.9(7) . . . . ?
N11 Fe3 O18 S4 -141.8(7) . . . . ?
O23 S5 O21 Fe1 74.4(6) . . . . ?
O24 S5 O21 Fe1 -161.0(5) . . . . ?
O22 S5 O21 Fe1 -44.7(6) . . . . ?
O2 Fe1 O21 S5 48.6(6) . . . . ?
O25 Fe1 O21 S5 147.1(6) . . . . ?
O72 Fe1 O21 S5 -46.4(5) . . . . ?
N10 Fe1 O21 S5 -128.5(5) . . . . ?
O23 S5 O22 Fe3 -75.8(7) . . . . ?
O24 S5 O22 Fe3 159.6(6) . . . . ?
O21 S5 O22 Fe3 43.2(7) . . . . ?
O2 Fe3 O22 S5 -46.1(6) . . . . ?
O18 Fe3 O22 S5 -144.1(6) . . . . ?
O71 Fe3 O22 S5 49.3(6) . . . . ?
O62 Fe3 O22 S5 133.1(9) . . . . ?
N11 Fe3 O22 S5 130.8(6) . . . . ?
O28 S6 O25 Fe1 162.0(5) . . . . ?
O27 S6 O25 Fe1 -71.9(6) . . . . ?
O26 S6 O25 Fe1 45.4(6) . . . . ?
O2 Fe1 O25 S6 -46.1(6) . . . . ?
O21 Fe1 O25 S6 -142.1(5) . . . . ?
O75 Fe1 O25 S6 47.1(5) . . . . ?
O72 Fe1 O25 S6 120.3(8) . . . . ?
N10 Fe1 O25 S6 132.5(5) . . . . ?
O28 S6 O26 Fe2 -165.4(5) . . . . ?
O27 S6 O26 Fe2 70.0(6) . . . . ?
O25 S6 O26 Fe2 -48.2(6) . . . . ?
O2 Fe2 O26 S6 50.6(5) . . . . ?
O17 Fe2 O26 S6 145.3(5) . . . . ?
O76 Fe2 O26 S6 -45.4(5) . . . . ?
O61 Fe2 O26 S6 -131.9(8) . . . . ?
N12 Fe2 O26 S6 -130.7(5) . . . . ?
O32 S7 O29 Fe5 159.5(7) . . . . ?
O31 S7 O29 Fe5 -78.6(8) . . . . ?
O30 S7 O29 Fe5 40.8(8) . . . . ?
O3 Fe5 O29 S7 -45.3(7) . . . . ?
O40 Fe5 O29 S7 -142.6(7) . . . . ?
O74 Fe5 O29 S7 51.4(7) . . . . ?
O70 Fe5 O29 S7 121.1(12) . . . . ?
N6 Fe5 O29 S7 133.6(7) . . . . ?
O32 S7 O30 Fe10 -158.9(7) . . . . ?
O31 S7 O30 Fe10 77.9(8) . . . . ?
O29 S7 O30 Fe10 -41.4(8) . . . . ?
O3 Fe10 O30 S7 46.3(7) . . . . ?
O33 Fe10 O30 S7 143.8(7) . . . . ?
O73 Fe10 O30 S7 -48.7(7) . . . . ?
O66 Fe10 O30 S7 -123.0(12) . . . . ?
N5 Fe10 O30 S7 -128.5(7) . . . . ?
O35 S8 O33 Fe10 -91.6(10) . . . . ?
O36 S8 O33 Fe10 143.5(8) . . . . ?
O34 S8 O33 Fe10 26.3(10) . . . . ?
O3 Fe10 O33 S8 -32.6(9) . . . . ?
O30 Fe10 O33 S8 -129.3(9) . . . . ?
O73 Fe10 O33 S8 131.6(10) . . . . ?
O66 Fe10 O33 S8 62.4(9) . . . . ?
N5 Fe10 O33 S8 144.6(9) . . . . ?
O35 S8 O34 Fe8 80.9(9) . . . . ?
O33 S8 O34 Fe8 -35.9(10) . . . . ?
O36 S8 O34 Fe8 -154.5(8) . . . . ?
O3 Fe8 O34 S8 48.5(8) . . . . ?
O39 Fe8 O34 S8 146.3(8) . . . . ?
O69 Fe8 O34 S8 -122.0(13) . . . . ?
O65 Fe8 O34 S8 -48.7(8) . . . . ?
N4 Fe8 O34 S8 -130.0(8) . . . . ?
O41 S9 O39 Fe8 155.9(7) . . . . ?
O42 S9 O39 Fe8 -79.5(8) . . . . ?
O40 S9 O39 Fe8 37.5(8) . . . . ?
O3 Fe8 O39 S9 -40.0(8) . . . . ?
O34 Fe8 O39 S9 -135.6(8) . . . . ?
O69 Fe8 O39 S9 54.8(7) . . . . ?
O65 Fe8 O39 S9 130.0(9) . . . . ?
N4 Fe8 O39 S9 137.3(7) . . . . ?
O41 S9 O40 Fe5 -159.9(7) . . . . ?
O42 S9 O40 Fe5 74.7(8) . . . . ?
O39 S9 O40 Fe5 -42.7(8) . . . . ?
O3 Fe5 O40 S9 49.1(7) . . . . ?
O29 Fe5 O40 S9 146.3(7) . . . . ?
O74 Fe5 O40 S9 -121.2(9) . . . . ?
O70 Fe5 O40 S9 -44.6(7) . . . . ?
N6 Fe5 O40 S9 -127.8(7) . . . . ?
O45 S10 O43 Fe12 77.0(8) . . . . ?
O46 S10 O43 Fe12 -157.0(6) . . . . ?
O44 S10 O43 Fe12 -42.3(8) . . . . ?
O4 Fe12 O43 S10 47.4(6) . . . . ?
O47 Fe12 O43 S10 145.0(7) . . . . ?
O68 Fe12 O43 S10 -47.9(6) . . . . ?
O58 Fe12 O43 S10 -131.2(10) . . . . ?
N7 Fe12 O43 S10 -130.5(6) . . . . ?
O45 S10 O44 Fe6 -79.9(8) . . . . ?
O46 S10 O44 Fe6 154.0(6) . . . . ?
O43 S10 O44 Fe6 39.0(8) . . . . ?
O4 Fe6 O44 S10 -42.9(7) . . . . ?
O51 Fe6 O44 S10 -139.8(7) . . . . ?
O67 Fe6 O44 S10 52.2(6) . . . . ?
O77 Fe6 O44 S10 133.9(10) . . . . ?
N9 Fe6 O44 S10 135.2(7) . . . . ?
O49 S11 O47 Fe12 -81.8(8) . . . . ?
O50 S11 O47 Fe12 152.9(6) . . . . ?
O48 S11 O47 Fe12 38.5(8) . . . . ?
O4 Fe12 O47 S11 -42.9(7) . . . . ?
O43 Fe12 O47 S11 -139.7(7) . . . . ?
O68 Fe12 O47 S11 132.7(10) . . . . ?
O58 Fe12 O47 S11 52.4(7) . . . . ?
N7 Fe12 O47 S11 136.5(6) . . . . ?
O49 S11 O48 Fe7 79.6(8) . . . . ?
O50 S11 O48 Fe7 -156.0(7) . . . . ?
O47 S11 O48 Fe7 -41.4(8) . . . . ?
O4 Fe7 O48 S11 46.9(7) . . . . ?
O52 Fe7 O48 S11 145.0(7) . . . . ?
O57 Fe7 O48 S11 -47.4(7) . . . . ?
O78 Fe7 O48 S11 -128.8(12) . . . . ?
N8 Fe7 O48 S11 -132.0(7) . . . . ?
O54 S12 O51 Fe6 164.0(8) . . . . ?
O52 S12 O51 Fe6 32.4(10) . . . . ?
O53 S12 O51 Fe6 -78.7(10) . . . . ?
O4 Fe6 O51 S12 7.5(8) . . . . ?
O44 Fe6 O51 S12 105.7(8) . . . . ?
O67 Fe6 O51 S12 -173.5(11) . . . . ?
O77 Fe6 O51 S12 -88.2(8) . . . . ?
N9 Fe6 O51 S12 -170.6(8) . . . . ?
O54 S12 O52 Fe7 -170.2(8) . . . . ?
O51 S12 O52 Fe7 -39.6(10) . . . . ?
O53 S12 O52 Fe7 73.1(9) . . . . ?
O4 Fe7 O52 S12 4.1(8) . . . . ?
O48 Fe7 O52 S12 -92.2(8) . . . . ?
O57 Fe7 O52 S12 171.7(12) . . . . ?
O78 Fe7 O52 S12 99.6(8) . . . . ?
N8 Fe7 O52 S12 -177.1(8) . . . . ?
O1 Fe4 O55 C8 23.2(11) . . . . ?
O9 Fe4 O55 C8 -169.0(11) . . . . ?
O14 Fe4 O55 C8 -73.9(11) . . . . ?
O59 Fe4 O55 C8 117.4(11) . . . . ?
N3 Fe4 O55 C8 -158.3(11) . . . . ?
O1 Fe11 O56 C8 -21.8(12) . . . . ?
O13 Fe11 O56 C8 75.8(12) . . . . ?
O5 Fe11 O56 C8 173.0(10) . . . . ?
O64 Fe11 O56 C8 -115.9(12) . . . . ?
N1 Fe11 O56 C8 161.4(13) . . . . ?
O4 Fe7 O57 C1 -24.3(11) . . . . ?
O48 Fe7 O57 C1 72.4(11) . . . . ?
O52 Fe7 O57 C1 168.1(13) . . . . ?
O78 Fe7 O57 C1 -119.4(11) . . . . ?
N8 Fe7 O57 C1 156.9(11) . . . . ?
O4 Fe12 O58 C1 21.5(10) . . . . ?
O47 Fe12 O58 C1 -76.4(10) . . . . ?
O43 Fe12 O58 C1 -160.0(10) . . . . ?
O68 Fe12 O58 C1 116.3(10) . . . . ?
N7 Fe12 O58 C1 -160.7(10) . . . . ?
Fe7 O57 C1 O58 3.5(19) . . . . ?
Fe7 O57 C1 C2 -178.2(9) . . . . ?
Fe12 O58 C1 O57 -1.6(18) . . . . ?
Fe12 O58 C1 C2 -180.0(8) . . . . ?
O57 C1 C2 C7 -7(2) . . . . ?
O58 C1 C2 C7 171.9(14) . . . . ?
O57 C1 C2 C3 -166.8(16) . . . . ?
O58 C1 C2 C3 12(2) . . . . ?
O57 C1 C2 C3' 156.1(18) . . . . ?
O58 C1 C2 C3' -25(2) . . . . ?
C7 C2 C3 C3' 90(3) . . . . ?
C1 C2 C3 C3' -110(3) . . . . ?
C7 C2 C3 C4 13(3) . . . . ?
C3' C2 C3 C4 -77(3) . . . . ?
C1 C2 C3 C4 174(2) . . . . ?
C7 C2 C3 C4' 41(3) . . . . ?
C3' C2 C3 C4' -49(3) . . . . ?
C1 C2 C3 C4' -158.6(18) . . . . ?
C2 C3 C3' C4' -121(2) . . . . ?
C4 C3 C3' C4' 1(3) . . . . ?
C4 C3 C3' C2 122.2(17) . . . . ?
C4' C3 C3' C2 121(2) . . . . ?
C2 C3 C3' C4 -122.2(17) . . . . ?
C4' C3 C3' C4 -1(3) . . . . ?
C7 C2 C3' C3 -106(3) . . . . ?
C1 C2 C3' C3 90(3) . . . . ?
C7 C2 C3' C4' -22(4) . . . . ?
C3 C2 C3' C4' 85(4) . . . . ?
C1 C2 C3' C4' 175(2) . . . . ?
C7 C2 C3' C4 -53(3) . . . . ?
C3 C2 C3' C4 54(3) . . . . ?
C1 C2 C3' C4 144.0(19) . . . . ?
C3' C3 C4 C4' -2(5) . . . . ?
C2 C3 C4 C4' 69(5) . . . . ?
C3' C3 C4 C5 -85(4) . . . . ?
C2 C3 C4 C5 -14(4) . . . . ?
C4' C3 C4 C5 -83(4) . . . . ?
C2 C3 C4 C3' 70(3) . . . . ?
C4' C3 C4 C3' 2(5) . . . . ?
C3' C3 C4 C5' -56(4) . . . . ?
C2 C3 C4 C5' 15(4) . . . . ?
C4' C3 C4 C5' -54(4) . . . . ?
C3 C3' C4 C4' 178(5) . . . . ?
C2 C3' C4 C4' 119(4) . . . . ?
C4' C3' C4 C3 -178(5) . . . . ?
C2 C3' C4 C3 -59(3) . . . . ?
C3 C3' C4 C5 111(4) . . . . ?
C4' C3' C4 C5 -68(4) . . . . ?
C2 C3' C4 C5 52(3) . . . . ?
C3 C3' C4 C5' 133(3) . . . . ?
C4' C3' C4 C5' -45(4) . . . . ?
C2 C3' C4 C5' 74(3) . . . . ?
C3 C4 C4' C5' -123(2) . . . . ?
C5 C4 C4' C5' -3(3) . . . . ?
C3' C4 C4' C5' -124(3) . . . . ?
C3 C4 C4' C3' 1(3) . . . . ?
C5 C4 C4' C3' 121(2) . . . . ?
C5' C4 C4' C3' 124(3) . . . . ?
C3 C4 C4' C5 -120(2) . . . . ?
C3' C4 C4' C5 -121(2) . . . . ?
C5' C4 C4' C5 3(3) . . . . ?
C5 C4 C4' C3 120(2) . . . . ?
C3' C4 C4' C3 -1(3) . . . . ?
C5' C4 C4' C3 123(2) . . . . ?
C3 C3' C4' C4 -2(5) . . . . ?
C2 C3' C4' C4 -74(5) . . . . ?
C3 C3' C4' C5' 89(5) . . . . ?
C2 C3' C4' C5' 16(6) . . . . ?
C4 C3' C4' C5' 90(5) . . . . ?
C3 C3' C4' C5 60(5) . . . . ?
C2 C3' C4' C5 -13(5) . . . . ?
C4 C3' C4' C5 61(4) . . . . ?
C2 C3' C4' C3 -73(3) . . . . ?
C4 C3' C4' C3 2(5) . . . . ?
C3' C3 C4' C4 178(6) . . . . ?
C2 C3 C4' C4 -122(4) . . . . ?
C3' C3 C4' C5' -109(5) . . . . ?
C2 C3 C4' C5' -49(4) . . . . ?
C4 C3 C4' C5' 73(5) . . . . ?
C2 C3 C4' C3' 60(3) . . . . ?
C4 C3 C4' C3' -178(6) . . . . ?
C3' C3 C4' C5 -128(4) . . . . ?
C2 C3 C4' C5 -69(3) . . . . ?
C4 C3 C4' C5 54(4) . . . . ?
C4' C4 C5 C5' 6(6) . . . . ?
C3 C4 C5 C5' 96(5) . . . . ?
C3' C4 C5 C5' 63(5) . . . . ?
C4' C4 C5 C6 -84(5) . . . . ?
C3 C4 C5 C6 6(5) . . . . ?
C3' C4 C5 C6 -27(4) . . . . ?
C5' C4 C5 C6 -90(5) . . . . ?
C4' C4 C5 C6' -55(5) . . . . ?
C3 C4 C5 C6' 35(5) . . . . ?
C3' C4 C5 C6' 2(4) . . . . ?
C5' C4 C5 C6' -61(4) . . . . ?
C4' C4 C5 C12 88(5) . . . . ?
C3 C4 C5 C12 177(3) . . . . ?
C3' C4 C5 C12 144(3) . . . . ?
C5' C4 C5 C12 82(5) . . . . ?
C3 C4 C5 C4' 90(4) . . . . ?
C3' C4 C5 C4' 57(3) . . . . ?
C5' C4 C5 C4' -6(6) . . . . ?
C4' C4 C5 C12' 64(4) . . . . ?
C3 C4 C5 C12' 153(3) . . . . ?
C3' C4 C5 C12' 121(3) . . . . ?
C5' C4 C5 C12' 58(4) . . . . ?
C4 C4' C5 C5' -173(6) . . . . ?
C3' C4' C5 C5' 115(5) . . . . ?
C3 C4' C5 C5' 139(5) . . . . ?
C4 C4' C5 C6 111(4) . . . . ?
C5' C4' C5 C6 -76(5) . . . . ?
C3' C4' C5 C6 39(5) . . . . ?
C3 C4' C5 C6 63(3) . . . . ?
C5' C4' C5 C4 173(6) . . . . ?
C3' C4' C5 C4 -72(4) . . . . ?
C3 C4' C5 C4 -48(3) . . . . ?
C4 C4' C5 C6' 131(4) . . . . ?
C5' C4' C5 C6' -55(4) . . . . ?
C3' C4' C5 C6' 59(4) . . . . ?
C3 C4' C5 C6' 83(3) . . . . ?
C4 C4' C5 C12 -110(4) . . . . ?
C5' C4' C5 C12 64(4) . . . . ?
C3' C4' C5 C12 178(3) . . . . ?
C3 C4' C5 C12 -158(3) . . . . ?
C4 C4' C5 C12' -125(4) . . . . ?
C5' C4' C5 C12' 49(4) . . . . ?
C3' C4' C5 C12' 163(3) . . . . ?
C3 C4' C5 C12' -173(2) . . . . ?
C6 C5 C5' C6' 4(3) . . . . ?
C4 C5 C5' C6' -116(3) . . . . ?
C12 C5 C5' C6' 123(2) . . . . ?
C4' C5 C5' C6' -112(3) . . . . ?
C12' C5 C5' C6' 127(3) . . . . ?
C6 C5 C5' C4' 116(2) . . . . ?
C4 C5 C5' C4' -3(3) . . . . ?
C6' C5 C5' C4' 112(3) . . . . ?
C12 C5 C5' C4' -125(2) . . . . ?
C12' C5 C5' C4' -121(3) . . . . ?
C6 C5 C5' C12' -124(2) . . . . ?
C4 C5 C5' C12' 117(2) . . . . ?
C6' C5 C5' C12' -127(3) . . . . ?
C12 C5 C5' C12' -4(3) . . . . ?
C4' C5 C5' C12' 121(3) . . . . ?
C6 C5 C5' C12 -119(2) . . . . ?
C4 C5 C5' C12 121(3) . . . . ?
C6' C5 C5' C12 -123(2) . . . . ?
C4' C5 C5' C12 125(2) . . . . ?
C12' C5 C5' C12 4(3) . . . . ?
C4 C5 C5' C6 -119(3) . . . . ?
C6' C5 C5' C6 -4(3) . . . . ?
C12 C5 C5' C6 119(2) . . . . ?
C4' C5 C5' C6 -116(2) . . . . ?
C12' C5 C5' C6 124(2) . . . . ?
C6 C5 C5' C4 119(3) . . . . ?
C6' C5 C5' C4 116(3) . . . . ?
C12 C5 C5' C4 -121(3) . . . . ?
C4' C5 C5' C4 3(3) . . . . ?
C12' C5 C5' C4 -117(2) . . . . ?
C4 C4' C5' C5 6(6) . . . . ?
C3' C4' C5' C5 -81(6) . . . . ?
C3 C4' C5' C5 -48(5) . . . . ?
C4 C4' C5' C6' 97(5) . . . . ?
C3' C4' C5' C6' 11(6) . . . . ?
C5 C4' C5' C6' 91(5) . . . . ?
C3 C4' C5' C6' 43(5) . . . . ?
C4 C4' C5' C12' -94(5) . . . . ?
C3' C4' C5' C12' 179(3) . . . . ?
C5 C4' C5' C12' -100(5) . . . . ?
C3 C4' C5' C12' -148(3) . . . . ?
C4 C4' C5' C12 -64(5) . . . . ?
C3' C4' C5' C12 -151(3) . . . . ?
C5 C4' C5' C12 -71(5) . . . . ?
C3 C4' C5' C12 -119(3) . . . . ?
C4 C4' C5' C6 70(5) . . . . ?
C3' C4' C5' C6 -16(5) . . . . ?
C5 C4' C5' C6 64(4) . . . . ?
C3 C4' C5' C6 16(5) . . . . ?
C3' C4' C5' C4 -87(5) . . . . ?
C5 C4' C5' C4 -6(6) . . . . ?
C3 C4' C5' C4 -54(4) . . . . ?
C4' C4 C5' C5 -173(7) . . . . ?
C3 C4 C5' C5 -99(5) . . . . ?
C3' C4 C5' C5 -124(5) . . . . ?
C4' C4 C5' C6' -95(5) . . . . ?
C3 C4 C5' C6' -21(4) . . . . ?
C5 C4 C5' C6' 78(5) . . . . ?
C3' C4 C5' C6' -46(4) . . . . ?
C3 C4 C5' C4' 74(4) . . . . ?
C5 C4 C5' C4' 173(7) . . . . ?
C3' C4 C5' C4' 49(4) . . . . ?
C4' C4 C5' C12' 103(5) . . . . ?
C3 C4 C5' C12' 176(3) . . . . ?
C5 C4 C5' C12' -84(5) . . . . ?
C3' C4 C5' C12' 152(3) . . . . ?
C4' C4 C5' C12 128(5) . . . . ?
C3 C4 C5' C12 -158(2) . . . . ?
C5 C4 C5' C12 -59(4) . . . . ?
C3' C4 C5' C12 177(2) . . . . ?
C4' C4 C5' C6 -118(4) . . . . ?
C3 C4 C5' C6 -45(3) . . . . ?
C5 C4 C5' C6 54(4) . . . . ?
C3' C4 C5' C6 -70(3) . . . . ?
C5' C5 C6 C6' -7(6) . . . . ?
C4 C5 C6 C6' 86(6) . . . . ?
C12 C5 C6 C6' -86(6) . . . . ?
C4' C5 C6 C6' 52(6) . . . . ?
C12' C5 C6 C6' -61(6) . . . . ?
C5' C5 C6 C7 -89(5) . . . . ?
C4 C5 C6 C7 4(5) . . . . ?
C6' C5 C6 C7 -82(5) . . . . ?
C12 C5 C6 C7 -168(3) . . . . ?
C4' C5 C6 C7 -30(4) . . . . ?
C12' C5 C6 C7 -143(3) . . . . ?
C4 C5 C6 C5' 93(5) . . . . ?
C6' C5 C6 C5' 7(6) . . . . ?
C12 C5 C6 C5' -79(5) . . . . ?
C4' C5 C6 C5' 59(4) . . . . ?
C12' C5 C6 C5' -54(4) . . . . ?
C5 C5' C6 C6' 171(8) . . . . ?
C4' C5' C6 C6' 91(6) . . . . ?
C12' C5' C6 C6' -105(6) . . . . ?
C12 C5' C6 C6' -127(6) . . . . ?
C4 C5' C6 C6' 120(6) . . . . ?
C6' C5' C6 C5 -171(8) . . . . ?
C4' C5' C6 C5 -80(5) . . . . ?
C12' C5' C6 C5 83(5) . . . . ?
C12 C5' C6 C5 61(4) . . . . ?
C4 C5' C6 C5 -52(4) . . . . ?
C5 C5' C6 C7 104(5) . . . . ?
C6' C5' C6 C7 -68(6) . . . . ?
C4' C5' C6 C7 23(4) . . . . ?
C12' C5' C6 C7 -173(2) . . . . ?
C12 C5' C6 C7 165(2) . . . . ?
C4 C5' C6 C7 52(3) . . . . ?
C5 C6 C6' C5' 4(3) . . . . ?
C7 C6 C6' C5' 123(3) . . . . ?
C7 C6 C6' C5 119(2) . . . . ?
C5' C6 C6' C5 -4(3) . . . . ?
C5 C6 C6' C7 -119(2) . . . . ?
C5' C6 C6' C7 -123(3) . . . . ?
C5 C5' C6' C6 -8(7) . . . . ?
C4' C5' C6' C6 -100(6) . . . . ?
C12' C5' C6' C6 93(6) . . . . ?
C12 C5' C6' C6 63(6) . . . . ?
C4 C5' C6' C6 -67(6) . . . . ?
C4' C5' C6' C5 -92(5) . . . . ?
C12' C5' C6' C5 101(5) . . . . ?
C12 C5' C6' C5 70(4) . . . . ?
C6 C5' C6' C5 8(7) . . . . ?
C4 C5' C6' C5 -60(4) . . . . ?
C5 C5' C6' C7 62(6) . . . . ?
C4' C5' C6' C7 -30(5) . . . . ?
C12' C5' C6' C7 162(3) . . . . ?
C12 C5' C6' C7 132(3) . . . . ?
C6 C5' C6' C7 69(5) . . . . ?
C4 C5' C6' C7 2(5) . . . . ?
C5' C5 C6' C6 172(7) . . . . ?
C4 C5 C6' C6 -108(5) . . . . ?
C12 C5 C6' C6 107(5) . . . . ?
C4' C5 C6' C6 -133(5) . . . . ?
C12' C5 C6' C6 127(5) . . . . ?
C6 C5 C6' C5' -172(7) . . . . ?
C4 C5 C6' C5' 80(5) . . . . ?
C12 C5 C6' C5' -65(5) . . . . ?
C4' C5 C6' C5' 55(4) . . . . ?
C12' C5 C6' C5' -45(4) . . . . ?
C5' C5 C6' C7 -129(5) . . . . ?
C6 C5 C6' C7 59(4) . . . . ?
C4 C5 C6' C7 -49(4) . . . . ?
C12 C5 C6' C7 166(2) . . . . ?
C4' C5 C6' C7 -74(3) . . . . ?
C12' C5 C6' C7 -174(2) . . . . ?
C3 C2 C7 C6 -4(3) . . . . ?
C3' C2 C7 C6 31(3) . . . . ?
C1 C2 C7 C6 -164.3(19) . . . . ?
C3 C2 C7 C6' -32(3) . . . . ?
C3' C2 C7 C6' 4(3) . . . . ?
C1 C2 C7 C6' 167.8(19) . . . . ?
C6' C6 C7 C2 -84(5) . . . . ?
C5 C6 C7 C2 -4(4) . . . . ?
C5' C6 C7 C2 -33(3) . . . . ?
C5 C6 C7 C6' 79(5) . . . . ?
C5' C6 C7 C6' 51(5) . . . . ?
C6 C6' C7 C2 110(5) . . . . ?
C5' C6' C7 C2 24(5) . . . . ?
C5 C6' C7 C2 49(4) . . . . ?
C5' C6' C7 C6 -86(6) . . . . ?
C5 C6' C7 C6 -61(5) . . . . ?
Fe11 O56 C8 O55 1(2) . . . . ?
Fe11 O56 C8 C9 -178.1(9) . . . . ?
Fe4 O55 C8 O56 -2(2) . . . . ?
Fe4 O55 C8 C9 177.3(9) . . . . ?
O56 C8 C9 C14 -5(2) . . . . ?
O55 C8 C9 C14 175.4(19) . . . . ?
O56 C8 C9 C10 -157.1(19) . . . . ?
O55 C8 C9 C10 23(2) . . . . ?
O56 C8 C9 C10' 158.6(19) . . . . ?
O55 C8 C9 C10' -21(3) . . . . ?
O56 C8 C9 C14' 32(3) . . . . ?
O55 C8 C9 C14' -148(2) . . . . ?
C14 C9 C10 C10' 100(3) . . . . ?
C14' C9 C10 C10' 63(4) . . . . ?
C8 C9 C10 C10' -109(3) . . . . ?
C14 C9 C10 C11 17(4) . . . . ?
C10' C9 C10 C11 -83(4) . . . . ?
C14' C9 C10 C11 -20(4) . . . . ?
C8 C9 C10 C11 168(2) . . . . ?
C14 C9 C10 C11' 53(3) . . . . ?
C10' C9 C10 C11' -47(2) . . . . ?
C14' C9 C10 C11' 15(3) . . . . ?
C8 C9 C10 C11' -156.3(17) . . . . ?
C9 C10 C10' C11' -121.4(19) . . . . ?
C11 C10 C10' C11' -2(3) . . . . ?
C11 C10 C10' C9 119(2) . . . . ?
C11' C10 C10' C9 121.4(19) . . . . ?
C9 C10 C10' C11 -119(2) . . . . ?
C11' C10 C10' C11 2(3) . . . . ?
C14 C9 C10' C10 -102(3) . . . . ?
C14' C9 C10' C10 -127(3) . . . . ?
C8 C9 C10' C10 95(3) . . . . ?
C14 C9 C10' C11' -22(4) . . . . ?
C10 C9 C10' C11' 80(3) . . . . ?
C14' C9 C10' C11' -47(3) . . . . ?
C8 C9 C10' C11' 175(2) . . . . ?
C14 C9 C10' C11 -54(3) . . . . ?
C10 C9 C10' C11 47(3) . . . . ?
C14' C9 C10' C11 -79(2) . . . . ?
C8 C9 C10' C11 142.9(19) . . . . ?
C10' C10 C11 C11' 3(4) . . . . ?
C9 C10 C11 C11' 74(4) . . . . ?
C10' C10 C11 C12 -71(5) . . . . ?
C9 C10 C11 C12 -1(5) . . . . ?
C11' C10 C11 C12 -74(4) . . . . ?
C10' C10 C11 C12' -46(4) . . . . ?
C9 C10 C11 C12' 24(4) . . . . ?
C11' C10 C11 C12' -49(3) . . . . ?
C9 C10 C11 C10' 70(3) . . . . ?
C11' C10 C11 C10' -3(4) . . . . ?
C10 C10' C11 C11' -176(5) . . . . ?
C9 C10' C11 C11' 126(3) . . . . ?
C10 C10' C11 C12 123(4) . . . . ?
C11' C10' C11 C12 -61(3) . . . . ?
C9 C10' C11 C12 65(3) . . . . ?
C11' C10' C11 C10 176(5) . . . . ?
C9 C10' C11 C10 -58(3) . . . . ?
C10 C10' C11 C12' 139(4) . . . . ?
C11' C10' C11 C12' -45(3) . . . . ?
C9 C10' C11 C12' 81(2) . . . . ?
C12 C11 C11' C12' 1(3) . . . . ?
C10 C11 C11' C12' -124(2) . . . . ?
C10' C11 C11' C12' -122(3) . . . . ?
C12 C11 C11' C10' 123(2) . . . . ?
C10 C11 C11' C10' -2(3) . . . . ?
C12' C11 C11' C10' 122(3) . . . . ?
C10 C11 C11' C12 -125(3) . . . . ?
C12' C11 C11' C12 -1(3) . . . . ?
C10' C11 C11' C12 -123(2) . . . . ?
C12 C11 C11' C10 125(3) . . . . ?
C12' C11 C11' C10 124(2) . . . . ?
C10' C11 C11' C10 2(3) . . . . ?
C10 C10' C11' C11 3(4) . . . . ?
C9 C10' C11' C11 -65(4) . . . . ?
C10 C10' C11' C12' 90(4) . . . . ?
C9 C10' C11' C12' 21(5) . . . . ?
C11 C10' C11' C12' 86(4) . . . . ?
C10 C10' C11' C12 60(4) . . . . ?
C9 C10' C11' C12 -9(4) . . . . ?
C11 C10' C11' C12 57(3) . . . . ?
C9 C10' C11' C10 -69(3) . . . . ?
C11 C10' C11' C10 -3(4) . . . . ?
C10' C10 C11' C11 -176(5) . . . . ?
C9 C10 C11' C11 -120(4) . . . . ?
C10' C10 C11' C12' -109(4) . . . . ?
C9 C10 C11' C12' -53(4) . . . . ?
C11 C10 C11' C12' 67(4) . . . . ?
C9 C10 C11' C10' 56(3) . . . . ?
C11 C10 C11' C10' 176(5) . . . . ?
C10' C10 C11' C12 -130(3) . . . . ?
C9 C10 C11' C12 -74(3) . . . . ?
C11 C10 C11' C12 46(3) . . . . ?
C11' C11 C12 C12' -2(5) . . . . ?
C10 C11 C12 C12' 75(6) . . . . ?
C10' C11 C12 C12' 44(5) . . . . ?
C11' C11 C12 C13 -96(4) . . . . ?
C10 C11 C12 C13 -19(5) . . . . ?
C12' C11 C12 C13 -94(5) . . . . ?
C10' C11 C12 C13 -50(4) . . . . ?
C11' C11 C12 C5 110(4) . . . . ?
C10 C11 C12 C5 -173(3) . . . . ?
C12' C11 C12 C5 112(6) . . . . ?
C10' C11 C12 C5 156(3) . . . . ?
C11' C11 C12 C13' -58(4) . . . . ?
C10 C11 C12 C13' 19(5) . . . . ?
C12' C11 C12 C13' -56(4) . . . . ?
C10' C11 C12 C13' -13(4) . . . . ?
C10 C11 C12 C11' 77(4) . . . . ?
C12' C11 C12 C11' 2(5) . . . . ?
C10' C11 C12 C11' 45(2) . . . . ?
C11' C11 C12 C5' 80(4) . . . . ?
C10 C11 C12 C5' 157(3) . . . . ?
C12' C11 C12 C5' 82(5) . . . . ?
C10' C11 C12 C5' 125(3) . . . . ?
C5' C5 C12 C12' 10(6) . . . . ?
C6 C5 C12 C12' 93(5) . . . . ?
C4 C5 C12 C12' -78(6) . . . . ?
C6' C5 C12 C12' 64(6) . . . . ?
C4' C5 C12 C12' -43(6) . . . . ?
C5' C5 C12 C11 -102(5) . . . . ?
C6 C5 C12 C11 -19(5) . . . . ?
C4 C5 C12 C11 169(3) . . . . ?
C6' C5 C12 C11 -48(5) . . . . ?
C4' C5 C12 C11 -156(3) . . . . ?
C12' C5 C12 C11 -113(6) . . . . ?
C5' C5 C12 C13 103(5) . . . . ?
C6 C5 C12 C13 -173(3) . . . . ?
C4 C5 C12 C13 15(5) . . . . ?
C6' C5 C12 C13 158(4) . . . . ?
C4' C5 C12 C13 50(5) . . . . ?
C12' C5 C12 C13 93(5) . . . . ?
C5' C5 C12 C13' 65(5) . . . . ?
C6 C5 C12 C13' 149(3) . . . . ?
C4 C5 C12 C13' -23(5) . . . . ?
C6' C5 C12 C13' 120(3) . . . . ?
C4' C5 C12 C13' 12(5) . . . . ?
C12' C5 C12 C13' 55(4) . . . . ?
C5' C5 C12 C11' -55(5) . . . . ?
C6 C5 C12 C11' 28(5) . . . . ?
C4 C5 C12 C11' -143(3) . . . . ?
C6' C5 C12 C11' -1(5) . . . . ?
C4' C5 C12 C11' -108(4) . . . . ?
C12' C5 C12 C11' -65(5) . . . . ?
C6 C5 C12 C5' 83(5) . . . . ?
C4 C5 C12 C5' -88(5) . . . . ?
C6' C5 C12 C5' 54(4) . . . . ?
C4' C5 C12 C5' -53(4) . . . . ?
C12' C5 C12 C5' -10(6) . . . . ?
C11 C11' C12 C12' 178(6) . . . . ?
C10' C11' C12 C12' 104(5) . . . . ?
C10 C11' C12 C12' 133(5) . . . . ?
C12' C11' C12 C11 -178(6) . . . . ?
C10' C11' C12 C11 -74(3) . . . . ?
C10 C11' C12 C11 -45(3) . . . . ?
C11 C11' C12 C13 105(4) . . . . ?
C12' C11' C12 C13 -74(5) . . . . ?
C10' C11' C12 C13 31(4) . . . . ?
C10 C11' C12 C13 59(4) . . . . ?
C11 C11' C12 C5 -97(4) . . . . ?
C12' C11' C12 C5 85(5) . . . . ?
C10' C11' C12 C5 -171(3) . . . . ?
C10 C11' C12 C5 -142(3) . . . . ?
C11 C11' C12 C13' 131(3) . . . . ?
C12' C11' C12 C13' -47(4) . . . . ?
C10' C11' C12 C13' 57(3) . . . . ?
C10 C11' C12 C13' 85(2) . . . . ?
C11 C11' C12 C5' -119(3) . . . . ?
C12' C11' C12 C5' 63(4) . . . . ?
C10' C11' C12 C5' 167(3) . . . . ?
C10 C11' C12 C5' -165(2) . . . . ?
C5 C5' C12 C12' -170(6) . . . . ?
C6' C5' C12 C12' 110(5) . . . . ?
C4' C5' C12 C12' -90(5) . . . . ?
C6 C5' C12 C12' 133(5) . . . . ?
C4 C5' C12 C12' -118(5) . . . . ?
C5 C5' C12 C11 94(5) . . . . ?
C6' C5' C12 C11 14(5) . . . . ?
C4' C5' C12 C11 174(3) . . . . ?
C12' C5' C12 C11 -96(5) . . . . ?
C6 C5' C12 C11 37(4) . . . . ?
C4 C5' C12 C11 146(3) . . . . ?
C5 C5' C12 C13 -90(5) . . . . ?
C6' C5' C12 C13 -170(4) . . . . ?
C4' C5' C12 C13 -10(5) . . . . ?
C12' C5' C12 C13 80(5) . . . . ?
C6 C5' C12 C13 -147(3) . . . . ?
C4 C5' C12 C13 -38(4) . . . . ?
C6' C5' C12 C5 -80(5) . . . . ?
C4' C5' C12 C5 80(5) . . . . ?
C12' C5' C12 C5 170(6) . . . . ?
C6 C5' C12 C5 -57(4) . . . . ?
C4 C5' C12 C5 52(4) . . . . ?
C5 C5' C12 C13' -125(5) . . . . ?
C6' C5' C12 C13' 155(3) . . . . ?
C4' C5' C12 C13' -45(4) . . . . ?
C12' C5' C12 C13' 45(4) . . . . ?
C6 C5' C12 C13' 178(2) . . . . ?
C4 C5' C12 C13' -73(3) . . . . ?
C5 C5' C12 C11' 136(5) . . . . ?
C6' C5' C12 C11' 56(4) . . . . ?
C4' C5' C12 C11' -144(3) . . . . ?
C12' C5' C12 C11' -55(4) . . . . ?
C6 C5' C12 C11' 79(3) . . . . ?
C4 C5' C12 C11' -172(2) . . . . ?
C11 C12 C12' C13' -114(3) . . . . ?
C13 C12 C12' C13' 4(4) . . . . ?
C5 C12 C12' C13' 120(3) . . . . ?
C11' C12 C12' C13' -115(3) . . . . ?
C5' C12 C12' C13' 124(3) . . . . ?
C11 C12 C12' C11' 1(4) . . . . ?
C13 C12 C12' C11' 119(3) . . . . ?
C5 C12 C12' C11' -125(2) . . . . ?
C13' C12 C12' C11' 115(3) . . . . ?
C5' C12 C12' C11' -120(2) . . . . ?
C11 C12 C12' C5' 121(3) . . . . ?
C13 C12 C12' C5' -120(2) . . . . ?
C5 C12 C12' C5' -4(3) . . . . ?
C13' C12 C12' C5' -124(3) . . . . ?
C11' C12 C12' C5' 120(2) . . . . ?
C11 C12 C12' C13 -118(3) . . . . ?
C5 C12 C12' C13 116(3) . . . . ?
C13' C12 C12' C13 -4(4) . . . . ?
C11' C12 C12' C13 -119(3) . . . . ?
C5' C12 C12' C13 120(2) . . . . ?
C13 C12 C12' C11 118(3) . . . . ?
C5 C12 C12' C11 -126(4) . . . . ?
C13' C12 C12' C11 114(3) . . . . ?
C11' C12 C12' C11 -1(4) . . . . ?
C5' C12 C12' C11 -121(3) . . . . ?
C11 C12 C12' C5 126(4) . . . . ?
C13 C12 C12' C5 -116(3) . . . . ?
C13' C12 C12' C5 -120(3) . . . . ?
C11' C12 C12' C5 125(2) . . . . ?
C5' C12 C12' C5 4(3) . . . . ?
C11 C11' C12' C12 -2(5) . . . . ?
C10' C11' C12' C12 -91(5) . . . . ?
C10 C11' C12' C12 -54(5) . . . . ?
C11 C11' C12' C13' 100(4) . . . . ?
C10' C11' C12' C13' 10(5) . . . . ?
C12 C11' C12' C13' 101(5) . . . . ?
C10 C11' C12' C13' 47(5) . . . . ?
C11 C11' C12' C5' -79(4) . . . . ?
C10' C11' C12' C5' -168(3) . . . . ?
C12 C11' C12' C5' -77(5) . . . . ?
C10 C11' C12' C5' -131(3) . . . . ?
C11 C11' C12' C13 62(4) . . . . ?
C10' C11' C12' C13 -28(5) . . . . ?
C12 C11' C12' C13 64(4) . . . . ?
C10 C11' C12' C13 10(5) . . . . ?
C10' C11' C12' C11 -89(4) . . . . ?
C12 C11' C12' C11 2(5) . . . . ?
C10 C11' C12' C11 -52(3) . . . . ?
C11 C11' C12' C5 -53(4) . . . . ?
C10' C11' C12' C5 -143(3) . . . . ?
C12 C11' C12' C5 -52(4) . . . . ?
C10 C11' C12' C5 -105(3) . . . . ?
C5 C5' C12' C12 10(6) . . . . ?
C6' C5' C12' C12 -87(6) . . . . ?
C4' C5' C12' C12 106(5) . . . . ?
C6 C5' C12' C12 -57(5) . . . . ?
C4 C5' C12' C12 72(5) . . . . ?
C5 C5' C12' C13' -84(6) . . . . ?
C6' C5' C12' C13' 179(4) . . . . ?
C4' C5' C12' C13' 13(6) . . . . ?
C12 C5' C12' C13' -93(5) . . . . ?
C6 C5' C12' C13' -150(4) . . . . ?
C4 C5' C12' C13' -21(5) . . . . ?
C5 C5' C12' C11' 95(5) . . . . ?
C6' C5' C12' C11' -2(6) . . . . ?
C4' C5' C12' C11' -169(3) . . . . ?
C12 C5' C12' C11' 85(5) . . . . ?
C6 C5' C12' C11' 28(5) . . . . ?
C4 C5' C12' C11' 157(3) . . . . ?
C5 C5' C12' C13 -48(6) . . . . ?
C6' C5' C12' C13 -145(4) . . . . ?
C4' C5' C12' C13 48(5) . . . . ?
C12 C5' C12' C13 -58(4) . . . . ?
C6 C5' C12' C13 -115(4) . . . . ?
C4 C5' C12' C13 14(4) . . . . ?
C5 C5' C12' C11 56(5) . . . . ?
C6' C5' C12' C11 -41(5) . . . . ?
C4' C5' C12' C11 153(3) . . . . ?
C12 C5' C12' C11 46(4) . . . . ?
C6 C5' C12' C11 -10(4) . . . . ?
C4 C5' C12' C11 119(3) . . . . ?
C6' C5' C12' C5 -97(6) . . . . ?
C4' C5' C12' C5 96(5) . . . . ?
C12 C5' C12' C5 -10(6) . . . . ?
C6 C5' C12' C5 -66(4) . . . . ?
C4 C5' C12' C5 62(4) . . . . ?
C11' C11 C12' C12 178(6) . . . . ?
C10 C11 C12' C12 -117(5) . . . . ?
C10' C11 C12' C12 -139(5) . . . . ?
C11' C11 C12' C13' -98(4) . . . . ?
C12 C11 C12' C13' 84(5) . . . . ?
C10 C11 C12' C13' -34(5) . . . . ?
C10' C11 C12' C13' -56(4) . . . . ?
C12 C11 C12' C11' -178(6) . . . . ?
C10 C11 C12' C11' 65(3) . . . . ?
C10' C11 C12' C11' 43(3) . . . . ?
C11' C11 C12' C5' 117(4) . . . . ?
C12 C11 C12' C5' -61(4) . . . . ?
C10 C11 C12' C5' -178(3) . . . . ?
C10' C11 C12' C5' 160(2) . . . . ?
C11' C11 C12' C13 -128(4) . . . . ?
C12 C11 C12' C13 54(4) . . . . ?
C10 C11 C12' C13 -63(4) . . . . ?
C10' C11 C12' C13 -85(3) . . . . ?
C11' C11 C12' C5 136(3) . . . . ?
C12 C11 C12' C5 -42(4) . . . . ?
C10 C11 C12' C5 -160(3) . . . . ?
C10' C11 C12' C5 178(2) . . . . ?
C5' C5 C12' C12 -168(7) . . . . ?
C6 C5 C12' C12 -99(5) . . . . ?
C4 C5 C12' C12 113(5) . . . . ?
C6' C5 C12' C12 -122(5) . . . . ?
C4' C5 C12' C12 141(5) . . . . ?
C5' C5 C12' C13' 111(5) . . . . ?
C6 C5 C12' C13' -180(3) . . . . ?
C4 C5 C12' C13' 32(5) . . . . ?
C6' C5 C12' C13' 157(3) . . . . ?
C12 C5 C12' C13' -81(5) . . . . ?
C4' C5 C12' C13' 60(4) . . . . ?
C5' C5 C12' C11' -98(5) . . . . ?
C6 C5 C12' C11' -28(5) . . . . ?
C4 C5 C12' C11' -177(3) . . . . ?
C6' C5 C12' C11' -52(4) . . . . ?
C12 C5 C12' C11' 70(5) . . . . ?
C4' C5 C12' C11' -149(3) . . . . ?
C6 C5 C12' C5' 70(5) . . . . ?
C4 C5 C12' C5' -78(5) . . . . ?
C6' C5 C12' C5' 46(4) . . . . ?
C12 C5 C12' C5' 168(7) . . . . ?
C4' C5 C12' C5' -50(4) . . . . ?
C5' C5 C12' C13 136(5) . . . . ?
C6 C5 C12' C13 -154(3) . . . . ?
C4 C5 C12' C13 57(4) . . . . ?
C6' C5 C12' C13 -178(3) . . . . ?
C12 C5 C12' C13 -56(4) . . . . ?
C4' C5 C12' C13 85(3) . . . . ?
C5' C5 C12' C11 -127(5) . . . . ?
C6 C5 C12' C11 -58(3) . . . . ?
C4 C5 C12' C11 154(3) . . . . ?
C6' C5 C12' C11 -81(3) . . . . ?
C12 C5 C12' C11 41(4) . . . . ?
C4' C5 C12' C11 -178(3) . . . . ?
C12' C12 C13 C13' -6(5) . . . . ?
C11 C12 C13 C13' 97(4) . . . . ?
C5 C12 C13 C13' -108(4) . . . . ?
C11' C12 C13 C13' 53(5) . . . . ?
C5' C12 C13 C13' -79(4) . . . . ?
C11 C12 C13 C12' 103(5) . . . . ?
C5 C12 C13 C12' -102(5) . . . . ?
C13' C12 C13 C12' 6(5) . . . . ?
C11' C12 C13 C12' 59(4) . . . . ?
C5' C12 C13 C12' -73(4) . . . . ?
C12' C12 C13 C14 -81(5) . . . . ?
C11 C12 C13 C14 22(5) . . . . ?
C5 C12 C13 C14 177(3) . . . . ?
C13' C12 C13 C14 -75(4) . . . . ?
C11' C12 C13 C14 -22(5) . . . . ?
C5' C12 C13 C14 -154(3) . . . . ?
C12' C12 C13 C14' -54(5) . . . . ?
C11 C12 C13 C14' 49(4) . . . . ?
C5 C12 C13 C14' -156(3) . . . . ?
C13' C12 C13 C14' -48(3) . . . . ?
C11' C12 C13 C14' 5(4) . . . . ?
C5' C12 C13 C14' -127(3) . . . . ?
C12 C12' C13 C13' 173(7) . . . . ?
C11' C12' C13 C13' 94(5) . . . . ?
C5' C12' C13 C13' -122(5) . . . . ?
C11 C12' C13 C13' 127(4) . . . . ?
C5 C12' C13 C13' -139(4) . . . . ?
C13' C12' C13 C12 -173(7) . . . . ?
C11' C12' C13 C12 -79(5) . . . . ?
C5' C12' C13 C12 65(4) . . . . ?
C11 C12' C13 C12 -46(4) . . . . ?
C5 C12' C13 C12 49(4) . . . . ?
C12 C12' C13 C14 111(5) . . . . ?
C13' C12' C13 C14 -62(4) . . . . ?
C11' C12' C13 C14 32(5) . . . . ?
C5' C12' C13 C14 176(3) . . . . ?
C11 C12' C13 C14 65(4) . . . . ?
C5 C12' C13 C14 160(3) . . . . ?
C12 C12' C13 C14' 129(5) . . . . ?
C13' C12' C13 C14' -44(3) . . . . ?
C11' C12' C13 C14' 50(4) . . . . ?
C5' C12' C13 C14' -166(3) . . . . ?
C11 C12' C13 C14' 83(3) . . . . ?
C5 C12' C13 C14' 177(2) . . . . ?
C12 C13 C13' C12' 3(3) . . . . ?
C14 C13 C13' C12' 124(3) . . . . ?
C14' C13 C13' C12' 120(4) . . . . ?
C12 C13 C13' C14' -117(3) . . . . ?
C12' C13 C13' C14' -120(4) . . . . ?
C14 C13 C13' C14' 4(3) . . . . ?
C12' C13 C13' C12 -3(3) . . . . ?
C14 C13 C13' C12 121(2) . . . . ?
C14' C13 C13' C12 117(3) . . . . ?
C12 C13 C13' C14 -121(2) . . . . ?
C12' C13 C13' C14 -124(3) . . . . ?
C14' C13 C13' C14 -4(3) . . . . ?
C12 C12' C13' C13 -7(6) . . . . ?
C11' C12' C13' C13 -103(5) . . . . ?
C5' C12' C13' C13 76(5) . . . . ?
C11 C12' C13' C13 -62(5) . . . . ?
C5 C12' C13' C13 49(5) . . . . ?
C12 C12' C13' C14' 93(5) . . . . ?
C11' C12' C13' C14' -3(5) . . . . ?
C5' C12' C13' C14' 175(3) . . . . ?
C13 C12' C13' C14' 100(5) . . . . ?
C11 C12' C13' C14' 38(5) . . . . ?
C5 C12' C13' C14' 149(3) . . . . ?
C11' C12' C13' C12 -96(5) . . . . ?
C5' C12' C13' C12 82(5) . . . . ?
C13 C12' C13' C12 7(6) . . . . ?
C11 C12' C13' C12 -55(4) . . . . ?
C5 C12' C13' C12 56(4) . . . . ?
C12 C12' C13' C14 59(6) . . . . ?
C11' C12' C13' C14 -37(5) . . . . ?
C5' C12' C13' C14 141(3) . . . . ?
C13 C12' C13' C14 66(4) . . . . ?
C11 C12' C13' C14 4(5) . . . . ?
C5 C12' C13' C14 115(3) . . . . ?
C12' C12 C13' C13 172(7) . . . . ?
C11 C12 C13' C13 -101(5) . . . . ?
C5 C12 C13' C13 90(5) . . . . ?
C11' C12 C13' C13 -134(4) . . . . ?
C5' C12 C13' C13 115(4) . . . . ?
C11 C12 C13' C12' 86(5) . . . . ?
C13 C12 C13' C12' -172(7) . . . . ?
C5 C12 C13' C12' -82(5) . . . . ?
C11' C12 C13' C12' 54(4) . . . . ?
C5' C12 C13' C12' -57(4) . . . . ?
C12' C12 C13' C14' -101(6) . . . . ?
C11 C12 C13' C14' -15(5) . . . . ?
C13 C12 C13' C14' 86(5) . . . . ?
C5 C12 C13' C14' 177(3) . . . . ?
C11' C12 C13' C14' -48(4) . . . . ?
C5' C12 C13' C14' -159(3) . . . . ?
C12' C12 C13' C14 -131(5) . . . . ?
C11 C12 C13' C14 -44(4) . . . . ?
C13 C12 C13' C14 57(4) . . . . ?
C5 C12 C13' C14 147(3) . . . . ?
C11' C12 C13' C14 -77(3) . . . . ?
C5' C12 C13' C14 172(2) . . . . ?
C10 C9 C14 C14' -94(4) . . . . ?
C10' C9 C14 C14' -51(5) . . . . ?
C8 C9 C14 C14' 114(4) . . . . ?
C10 C9 C14 C13 -13(4) . . . . ?
C10' C9 C14 C13 30(4) . . . . ?
C14' C9 C14 C13 80(4) . . . . ?
C8 C9 C14 C13 -166(3) . . . . ?
C10 C9 C14 C13' -45(3) . . . . ?
C10' C9 C14 C13' -2(3) . . . . ?
C14' C9 C14 C13' 49(4) . . . . ?
C8 C9 C14 C13' 162.7(19) . . . . ?
C13' C13 C14 C14' -7(5) . . . . ?
C12 C13 C14 C14' 68(5) . . . . ?
C12' C13 C14 C14' 40(5) . . . . ?
C13' C13 C14 C9 -81(5) . . . . ?
C12 C13 C14 C9 -6(5) . . . . ?
C12' C13 C14 C9 -34(4) . . . . ?
C14' C13 C14 C9 -74(4) . . . . ?
C12 C13 C14 C13' 75(4) . . . . ?
C12' C13 C14 C13' 47(3) . . . . ?
C14' C13 C14 C13' 7(5) . . . . ?
C13 C13' C14 C14' 172(6) . . . . ?
C12' C13' C14 C14' 95(5) . . . . ?
C12 C13' C14 C14' 118(5) . . . . ?
C13 C13' C14 C9 112(4) . . . . ?
C12' C13' C14 C9 34(4) . . . . ?
C14' C13' C14 C9 -60(4) . . . . ?
C12 C13' C14 C9 57(3) . . . . ?
C12' C13' C14 C13 -78(5) . . . . ?
C14' C13' C14 C13 -172(6) . . . . ?
C12 C13' C14 C13 -55(4) . . . . ?
C9 C14 C14' C13' 123(2) . . . . ?
C13 C14 C14' C13' 4(3) . . . . ?
C13 C14 C14' C9 -119(2) . . . . ?
C13' C14 C14' C9 -123(2) . . . . ?
C9 C14 C14' C13 119(2) . . . . ?
C13' C14 C14' C13 -4(3) . . . . ?
C13 C13' C14' C14 -7(6) . . . . ?
C12' C13' C14' C14 -103(5) . . . . ?
C12 C13' C14' C14 -74(5) . . . . ?
C13 C13' C14' C9 60(6) . . . . ?
C12' C13' C14' C9 -36(5) . . . . ?
C12 C13' C14' C9 -6(5) . . . . ?
C14 C13' C14' C9 67(4) . . . . ?
C12' C13' C14' C13 -96(5) . . . . ?
C12 C13' C14' C13 -66(4) . . . . ?
C14 C13' C14' C13 7(6) . . . . ?
C10 C9 C14' C14 104(4) . . . . ?
C10' C9 C14' C14 137(4) . . . . ?
C8 C9 C14' C14 -84(4) . . . . ?
C14 C9 C14' C13' -80(5) . . . . ?
C10 C9 C14' C13' 24(5) . . . . ?
C10' C9 C14' C13' 57(4) . . . . ?
C8 C9 C14' C13' -165(3) . . . . ?
C14 C9 C14' C13 -55(4) . . . . ?
C10 C9 C14' C13 49(3) . . . . ?
C10' C9 C14' C13 82(3) . . . . ?
C8 C9 C14' C13 -139(2) . . . . ?
C13' C13 C14' C14 172(7) . . . . ?
C12 C13 C14' C14 -122(5) . . . . ?
C12' C13 C14' C14 -143(5) . . . . ?
C12 C13 C14' C13' 66(4) . . . . ?
C12' C13 C14' C13' 45(4) . . . . ?
C14 C13 C14' C13' -172(7) . . . . ?
C13' C13 C14' C9 -130(5) . . . . ?
C12 C13 C14' C9 -64(4) . . . . ?
C12' C13 C14' C9 -85(3) . . . . ?
C14 C13 C14' C9 58(4) . . . . ?
O1 Fe4 O59 C22 -25.1(10) . . . . ?
O9 Fe4 O59 C22 71.8(10) . . . . ?
O14 Fe4 O59 C22 173.1(11) . . . . ?
O55 Fe4 O59 C22 -121.1(10) . . . . ?
N3 Fe4 O59 C22 155.6(10) . . . . ?
O1 Fe9 O60 C22 18.8(9) . . . . ?
O10 Fe9 O60 C22 -79.2(9) . . . . ?
O6 Fe9 O60 C22 -173.1(10) . . . . ?
O63 Fe9 O60 C22 113.5(10) . . . . ?
N2 Fe9 O60 C22 -163.6(10) . . . . ?
O2 Fe2 O61 C15 16.4(9) . . . . ?
O26 Fe2 O61 C15 -161.1(8) . . . . ?
O17 Fe2 O61 C15 -78.9(9) . . . . ?
O76 Fe2 O61 C15 111.5(9) . . . . ?
N12 Fe2 O61 C15 -162.3(9) . . . . ?
O2 Fe3 O62 C15 -25.9(9) . . . . ?
O22 Fe3 O62 C15 155.0(10) . . . . ?
O18 Fe3 O62 C15 72.4(9) . . . . ?
O71 Fe3 O62 C15 -120.7(9) . . . . ?
N11 Fe3 O62 C15 157.3(9) . . . . ?
Fe3 O62 C15 O61 3.7(17) . . . . ?
Fe3 O62 C15 C16 -179.6(7) . . . . ?
Fe2 O61 C15 O62 2.1(16) . . . . ?
Fe2 O61 C15 C16 -174.6(7) . . . . ?
O62 C15 C16 C21 -172.7(13) . . . . ?
O61 C15 C16 C21 4.3(18) . . . . ?
O62 C15 C16 C17 5.1(19) . . . . ?
O61 C15 C16 C17 -177.9(14) . . . . ?
C21 C16 C17 C18 4(3) . . . . ?
C15 C16 C17 C18 -173.9(17) . . . . ?
C16 C17 C18 C19 -10(3) . . . . ?
C17 C18 C19 C20 9(3) . . . . ?
C17 C18 C19 C26 179.9(17) . . . . ?
C18 C19 C20 C21 -4(3) . . . . ?
C26 C19 C20 C21 -174.8(16) . . . . ?
C17 C16 C21 C20 1(3) . . . . ?
C15 C16 C21 C20 179.0(15) . . . . ?
C19 C20 C21 C16 -1(3) . . . . ?
Fe4 O59 C22 O60 1.9(17) . . . . ?
Fe4 O59 C22 C23 -179.2(7) . . . . ?
Fe9 O60 C22 O59 2.2(17) . . . . ?
Fe9 O60 C22 C23 -176.7(7) . . . . ?
O59 C22 C23 C24 -8.5(19) . . . . ?
O60 C22 C23 C24 170.5(14) . . . . ?
O59 C22 C23 C28 169.1(12) . . . . ?
O60 C22 C23 C28 -11.9(17) . . . . ?
C28 C23 C24 C25 8(3) . . . . ?
C22 C23 C24 C25 -174.2(16) . . . . ?
C23 C24 C25 C26 -6(3) . . . . ?
C24 C25 C26 C27 0(3) . . . . ?
C24 C25 C26 C19 177.6(16) . . . . ?
C18 C19 C26 C25 -157.3(18) . . . . ?
C20 C19 C26 C25 13(2) . . . . ?
C18 C19 C26 C27 20(2) . . . . ?
C20 C19 C26 C27 -169.8(15) . . . . ?
C25 C26 C27 C28 4(2) . . . . ?
C19 C26 C27 C28 -174.0(14) . . . . ?
C24 C23 C28 C27 -4(2) . . . . ?
C22 C23 C28 C27 177.9(12) . . . . ?
C26 C27 C28 C23 -2(2) . . . . ?
O1 Fe9 O63 C36 -25.8(10) . . . . ?
O10 Fe9 O63 C36 160.7(11) . . . . ?
O6 Fe9 O63 C36 72.2(10) . . . . ?
O60 Fe9 O63 C36 -120.4(10) . . . . ?
N2 Fe9 O63 C36 157.6(10) . . . . ?
O1 Fe11 O64 C36 29.6(11) . . . . ?
O13 Fe11 O64 C36 -159.5(11) . . . . ?
O5 Fe11 O64 C36 -69.1(10) . . . . ?
O56 Fe11 O64 C36 123.7(11) . . . . ?
N1 Fe11 O64 C36 -154.4(11) . . . . ?
O3 Fe8 O65 C29 -16.8(11) . . . . ?
O39 Fe8 O65 C29 173.2(9) . . . . ?
O34 Fe8 O65 C29 79.2(11) . . . . ?
O69 Fe8 O65 C29 -110.8(11) . . . . ?
N4 Fe8 O65 C29 165.9(11) . . . . ?
O3 Fe10 O66 C29 29.0(11) . . . . ?
O33 Fe10 O66 C29 -68.4(11) . . . . ?
O30 Fe10 O66 C29 -161.6(11) . . . . ?
O73 Fe10 O66 C29 123.4(11) . . . . ?
N5 Fe10 O66 C29 -156.1(11) . . . . ?
Fe8 O65 C29 O66 -0.5(19) . . . . ?
Fe8 O65 C29 C30 175.7(8) . . . . ?
Fe10 O66 C29 O65 -7.2(19) . . . . ?
Fe10 O66 C29 C30 176.5(8) . . . . ?
O65 C29 C30 C31 3(2) . . . . ?
O66 C29 C30 C31 179.1(16) . . . . ?
O65 C29 C30 C35 -174.1(14) . . . . ?
O66 C29 C30 C35 2.5(19) . . . . ?
C35 C30 C31 C32 -2(3) . . . . ?
C29 C30 C31 C32 -178.6(18) . . . . ?
C30 C31 C32 C33 3(3) . . . . ?
C31 C32 C33 C34 -4(3) . . . . ?
C31 C32 C33 C40 174.3(18) . . . . ?
C32 C33 C34 C35 5(3) . . . . ?
C40 C33 C34 C35 -174.2(16) . . . . ?
C31 C30 C35 C34 2(3) . . . . ?
C29 C30 C35 C34 178.7(15) . . . . ?
C33 C34 C35 C30 -3(3) . . . . ?
Fe11 O64 C36 O63 -12.2(19) . . . . ?
Fe11 O64 C36 C37 167.6(8) . . . . ?
Fe9 O63 C36 O64 9.8(18) . . . . ?
Fe9 O63 C36 C37 -170.0(8) . . . . ?
O64 C36 C37 C42 -173.0(14) . . . . ?
O63 C36 C37 C42 6.9(19) . . . . ?
O64 C36 C37 C38 7.8(19) . . . . ?
O63 C36 C37 C38 -172.4(13) . . . . ?
C42 C37 C38 C39 -4(3) . . . . ?
C36 C37 C38 C39 175.1(15) . . . . ?
C37 C38 C39 C40 3(3) . . . . ?
C38 C39 C40 C41 2(3) . . . . ?
C38 C39 C40 C33 -175.5(16) . . . . ?
C32 C33 C40 C39 -19(3) . . . . ?
C34 C33 C40 C39 159.3(18) . . . . ?
C32 C33 C40 C41 164(2) . . . . ?
C34 C33 C40 C41 -17(3) . . . . ?
C39 C40 C41 C42 -5(3) . . . . ?
C33 C40 C41 C42 172.1(17) . . . . ?
C38 C37 C42 C41 1(3) . . . . ?
C36 C37 C42 C41 -178.5(15) . . . . ?
C40 C41 C42 C37 4(3) . . . . ?
O4 Fe6 O67 C43 24.8(10) . . . . ?
O51 Fe6 O67 C43 -154.3(12) . . . . ?
O44 Fe6 O67 C43 -73.9(10) . . . . ?
O77 Fe6 O67 C43 119.9(10) . . . . ?
N9 Fe6 O67 C43 -157.2(10) . . . . ?
O4 Fe12 O68 C43 -22.8(11) . . . . ?
O47 Fe12 O68 C43 161.6(9) . . . . ?
O43 Fe12 O68 C43 74.4(10) . . . . ?
O58 Fe12 O68 C43 -117.7(11) . . . . ?
N7 Fe12 O68 C43 157.8(11) . . . . ?
O3 Fe8 O69 C50 24.9(10) . . . . ?
O39 Fe8 O69 C50 -73.0(10) . . . . ?
O34 Fe8 O69 C50 -164.5(14) . . . . ?
O65 Fe8 O69 C50 121.6(10) . . . . ?
N4 Fe8 O69 C50 -156.5(10) . . . . ?
O3 Fe5 O70 C50 -19.1(10) . . . . ?
O29 Fe5 O70 C50 174.3(11) . . . . ?
O40 Fe5 O70 C50 78.3(10) . . . . ?
O74 Fe5 O70 C50 -115.3(11) . . . . ?
N6 Fe5 O70 C50 161.8(10) . . . . ?
Fe12 O68 C43 O67 3.0(19) . . . . ?
Fe12 O68 C43 C44 -179.0(8) . . . . ?
Fe6 O67 C43 O68 -4.2(18) . . . . ?
Fe6 O67 C43 C44 177.7(8) . . . . ?
O68 C43 C44 C45 4(2) . . . . ?
O67 C43 C44 C45 -177.6(16) . . . . ?
O68 C43 C44 C49 178.0(16) . . . . ?
O67 C43 C44 C49 -4(2) . . . . ?
C49 C44 C45 C46 10(3) . . . . ?
C43 C44 C45 C46 -175.6(19) . . . . ?
C44 C45 C46 C47 -6(4) . . . . ?
C45 C46 C47 C48 4(4) . . . . ?
C45 C46 C47 C54 -179(2) . . . . ?
C46 C47 C48 C49 -7(3) . . . . ?
C54 C47 C48 C49 175.4(19) . . . . ?
C45 C44 C49 C48 -14(3) . . . . ?
C43 C44 C49 C48 171.8(18) . . . . ?
C47 C48 C49 C44 13(4) . . . . ?
Fe5 O70 C50 O69 -2.7(19) . . . . ?
Fe5 O70 C50 C51 176.3(8) . . . . ?
Fe8 O69 C50 O70 -1.0(18) . . . . ?
Fe8 O69 C50 C51 180.0(8) . . . . ?
O70 C50 C51 C56 -1(2) . . . . ?
O69 C50 C51 C56 178.0(16) . . . . ?
O70 C50 C51 C52 -179.7(15) . . . . ?
O69 C50 C51 C52 -1(2) . . . . ?
C56 C51 C52 C53 1(3) . . . . ?
C50 C51 C52 C53 179.2(17) . . . . ?
C51 C52 C53 C54 -3(3) . . . . ?
C52 C53 C54 C55 3(3) . . . . ?
C52 C53 C54 C47 -174.6(19) . . . . ?
C48 C47 C54 C53 173(2) . . . . ?
C46 C47 C54 C53 -4(3) . . . . ?
C48 C47 C54 C55 -4(3) . . . . ?
C46 C47 C54 C55 179(2) . . . . ?
C53 C54 C55 C56 0(3) . . . . ?
C47 C54 C55 C56 177(2) . . . . ?
C52 C51 C56 C55 2(3) . . . . ?
C50 C51 C56 C55 -176.7(18) . . . . ?
C54 C55 C56 C51 -2(4) . . . . ?
O2 Fe3 O71 C57 27.0(9) . . . . ?
O22 Fe3 O71 C57 -70.2(9) . . . . ?
O18 Fe3 O71 C57 -159.4(10) . . . . ?
O62 Fe3 O71 C57 122.5(9) . . . . ?
N11 Fe3 O71 C57 -154.2(10) . . . . ?
O2 Fe1 O72 C57 -23.0(9) . . . . ?
O25 Fe1 O72 C57 170.5(8) . . . . ?
O21 Fe1 O72 C57 73.0(9) . . . . ?
O75 Fe1 O72 C57 -115.7(9) . . . . ?
N10 Fe1 O72 C57 158.2(9) . . . . ?
O3 Fe10 O73 C64 -22.7(10) . . . . ?
O33 Fe10 O73 C64 173.0(12) . . . . ?
O30 Fe10 O73 C64 74.0(10) . . . . ?
O66 Fe10 O73 C64 -117.3(10) . . . . ?
N5 Fe10 O73 C64 159.8(10) . . . . ?
O3 Fe5 O74 C64 21.7(10) . . . . ?
O29 Fe5 O74 C64 -75.8(10) . . . . ?
O40 Fe5 O74 C64 -168.0(9) . . . . ?
O70 Fe5 O74 C64 114.5(10) . . . . ?
N6 Fe5 O74 C64 -161.4(10) . . . . ?
Fe3 O71 C57 O72 -9.2(17) . . . . ?
Fe3 O71 C57 C58 174.9(7) . . . . ?
Fe1 O72 C57 O71 6.8(16) . . . . ?
Fe1 O72 C57 C58 -177.3(7) . . . . ?
O71 C57 C58 C59 176.5(12) . . . . ?
O72 C57 C58 C59 0.2(17) . . . . ?
O71 C57 C58 C63 -4.2(18) . . . . ?
O72 C57 C58 C63 179.5(13) . . . . ?
C63 C58 C59 C60 4(2) . . . . ?
C57 C58 C59 C60 -177.1(13) . . . . ?
C58 C59 C60 C61 -5(2) . . . . ?
C59 C60 C61 C62 3(2) . . . . ?
C59 C60 C61 C68 176.6(14) . . . . ?
C60 C61 C62 C63 0(3) . . . . ?
C68 C61 C62 C63 -173.9(17) . . . . ?
C59 C58 C63 C62 -1(3) . . . . ?
C57 C58 C63 C62 179.8(16) . . . . ?
C61 C62 C63 C58 -1(3) . . . . ?
Fe5 O74 C64 O73 -1.0(18) . . . . ?
Fe5 O74 C64 C65 -179.0(6) . . . . ?
Fe10 O73 C64 O74 1.7(18) . . . . ?
Fe10 O73 C64 C65 179.7(6) . . . . ?
O74 C64 C65 C70 -178.8(14) . . . . ?
O73 C64 C65 C70 3.0(19) . . . . ?
O74 C64 C65 C66 1.8(19) . . . . ?
O73 C64 C65 C66 -176.4(13) . . . . ?
C70 C65 C66 C67 -3(3) . . . . ?
C64 C65 C66 C67 176.5(17) . . . . ?
C65 C66 C67 C68 0(3) . . . . ?
C66 C67 C68 C69 2(3) . . . . ?
C66 C67 C68 C61 180.0(17) . . . . ?
C62 C61 C68 C69 -4(3) . . . . ?
C60 C61 C68 C69 -177.9(18) . . . . ?
C62 C61 C68 C67 177.5(18) . . . . ?
C60 C61 C68 C67 4(2) . . . . ?
C67 C68 C69 C70 0(3) . . . . ?
C61 C68 C69 C70 -177.9(18) . . . . ?
C66 C65 C70 C69 5(3) . . . . ?
C64 C65 C70 C69 -174.3(18) . . . . ?
C68 C69 C70 C65 -4(3) . . . . ?
O2 Fe1 O75 C78 20.9(9) . . . . ?
O25 Fe1 O75 C78 -77.6(9) . . . . ?
O72 Fe1 O75 C78 115.5(9) . . . . ?
N10 Fe1 O75 C78 -162.0(9) . . . . ?
O2 Fe2 O76 C78 -22.9(8) . . . . ?
O26 Fe2 O76 C78 74.6(8) . . . . ?
O17 Fe2 O76 C78 164.7(10) . . . . ?
O61 Fe2 O76 C78 -119.4(8) . . . . ?
N12 Fe2 O76 C78 156.7(8) . . . . ?
O4 Fe6 O77 C71 -19.2(10) . . . . ?
O51 Fe6 O77 C71 78.4(10) . . . . ?
O44 Fe6 O77 C71 164.0(9) . . . . ?
O67 Fe6 O77 C71 -113.8(10) . . . . ?
N9 Fe6 O77 C71 162.6(10) . . . . ?
O4 Fe7 O78 C71 23.3(11) . . . . ?
O48 Fe7 O78 C71 -160.9(12) . . . . ?
O52 Fe7 O78 C71 -74.9(10) . . . . ?
O57 Fe7 O78 C71 117.0(10) . . . . ?
N8 Fe7 O78 C71 -157.8(11) . . . . ?
Fe7 O78 C71 O77 0.4(18) . . . . ?
Fe7 O78 C71 C72 -178.3(8) . . . . ?
Fe6 O77 C71 O78 -3.0(18) . . . . ?
Fe6 O77 C71 C72 175.8(8) . . . . ?
O78 C71 C72 C73 -12.8(19) . . . . ?
O77 C71 C72 C73 168.4(14) . . . . ?
O78 C71 C72 C77 167.0(14) . . . . ?
O77 C71 C72 C77 -11.9(19) . . . . ?
C77 C72 C73 C74 2(3) . . . . ?
C71 C72 C73 C74 -178.5(15) . . . . ?
C72 C73 C74 C75 -4(3) . . . . ?
C73 C74 C75 C76 6(3) . . . . ?
C73 C74 C75 C82 -177.2(16) . . . . ?
C74 C75 C76 C77 -5(3) . . . . ?
C82 C75 C76 C77 177.5(18) . . . . ?
C73 C72 C77 C76 -1(3) . . . . ?
C71 C72 C77 C76 179.0(16) . . . . ?
C75 C76 C77 C72 3(3) . . . . ?
Fe1 O75 C78 O76 2.6(16) . . . . ?
Fe1 O75 C78 C79 -172.7(7) . . . . ?
Fe2 O76 C78 O75 -1.5(15) . . . . ?
Fe2 O76 C78 C79 173.9(7) . . . . ?
O75 C78 C79 C84 -14.5(17) . . . . ?
O76 C78 C79 C84 169.6(12) . . . . ?
O75 C78 C79 C80 169.2(11) . . . . ?
O76 C78 C79 C80 -6.6(17) . . . . ?
C84 C79 C80 C81 6(2) . . . . ?
C78 C79 C80 C81 -178.1(12) . . . . ?
C79 C80 C81 C82 -1(2) . . . . ?
C80 C81 C82 C83 -4(3) . . . . ?
C80 C81 C82 C75 177.4(15) . . . . ?
C76 C75 C82 C81 -157.4(18) . . . . ?
C74 C75 C82 C81 25(2) . . . . ?
C76 C75 C82 C83 24(3) . . . . ?
C74 C75 C82 C83 -153.2(18) . . . . ?
C81 C82 C83 C84 5(3) . . . . ?
C75 C82 C83 C84 -176.5(16) . . . . ?
C82 C83 C84 C79 -1(3) . . . . ?
C80 C79 C84 C83 -5(2) . . . . ?
C78 C79 C84 C83 178.8(15) . . . . ?
O13 Fe11 N1 C89 -140.9(11) . . . . ?
O5 Fe11 N1 C89 -50.0(11) . . . . ?
O56 Fe11 N1 C89 127.3(11) . . . . ?
O64 Fe11 N1 C89 40.2(11) . . . . ?
O13 Fe11 N1 C85 47.2(10) . . . . ?
O5 Fe11 N1 C85 138.1(10) . . . . ?
O56 Fe11 N1 C85 -44.6(10) . . . . ?
O64 Fe11 N1 C85 -131.7(10) . . . . ?
C89 N1 C85 C86 1(2) . . . . ?
Fe11 N1 C85 C86 173.7(11) . . . . ?
N1 C85 C86 C87 -1(3) . . . . ?
C85 C86 C87 C88 3(3) . . . . ?
C86 C87 C88 C89 -5(4) . . . . ?
C85 N1 C89 C88 -3(2) . . . . ?
Fe11 N1 C89 C88 -175.7(15) . . . . ?
C87 C88 C89 N1 5(3) . . . . ?
O10 Fe9 N2 C94 -45.9(9) . . . . ?
O6 Fe9 N2 C94 -135.3(9) . . . . ?
O60 Fe9 N2 C94 46.9(9) . . . . ?
O63 Fe9 N2 C94 133.4(9) . . . . ?
O10 Fe9 N2 C90 134.8(9) . . . . ?
O6 Fe9 N2 C90 45.3(9) . . . . ?
O60 Fe9 N2 C90 -132.5(9) . . . . ?
O63 Fe9 N2 C90 -45.9(9) . . . . ?
C94 N2 C90 C91 -2(2) . . . . ?
Fe9 N2 C90 C91 177.5(12) . . . . ?
N2 C90 C91 C92 1(3) . . . . ?
C90 C91 C92 C93 -1(3) . . . . ?
C91 C92 C93 C94 1(3) . . . . ?
C90 N2 C94 C93 2(2) . . . . ?
Fe9 N2 C94 C93 -177.1(11) . . . . ?
C92 C93 C94 N2 -2(2) . . . . ?
O9 Fe4 N3 C99 -135.2(12) . . . . ?
O14 Fe4 N3 C99 -43.7(12) . . . . ?
O59 Fe4 N3 C99 132.5(12) . . . . ?
O55 Fe4 N3 C99 47.3(12) . . . . ?
O9 Fe4 N3 C95 41.7(11) . . . . ?
O14 Fe4 N3 C95 133.2(11) . . . . ?
O59 Fe4 N3 C95 -50.5(11) . . . . ?
O55 Fe4 N3 C95 -135.8(11) . . . . ?
C99 N3 C95 C96 -2(2) . . . . ?
Fe4 N3 C95 C96 -178.7(13) . . . . ?
N3 C95 C96 C97 2(3) . . . . ?
C95 C96 C97 C98 -5(4) . . . . ?
C96 C97 C98 C99 6(4) . . . . ?
C95 N3 C99 C98 4(3) . . . . ?
Fe4 N3 C99 C98 -179.5(16) . . . . ?
C97 C98 C99 N3 -6(4) . . . . ?
O39 Fe8 N4 C100 127.9(12) . . . . ?
O34 Fe8 N4 C100 38.5(12) . . . . ?
O69 Fe8 N4 C100 -140.1(12) . . . . ?
O65 Fe8 N4 C100 -54.0(12) . . . . ?
O39 Fe8 N4 C104 -47.9(11) . . . . ?
O34 Fe8 N4 C104 -137.4(11) . . . . ?
O69 Fe8 N4 C104 44.1(11) . . . . ?
O65 Fe8 N4 C104 130.1(11) . . . . ?
C104 N4 C100 C101 -8(2) . . . . ?
Fe8 N4 C100 C101 176.0(15) . . . . ?
N4 C100 C101 C102 12(5) . . . . ?
C100 C101 C102 C103 -9(7) . . . . ?
C101 C102 C103 C104 4(6) . . . . ?
C100 N4 C104 C103 5(3) . . . . ?
Fe8 N4 C104 C103 -179.5(14) . . . . ?
C102 C103 C104 N4 -2(4) . . . . ?
O33 Fe10 N5 C109 -51.1(10) . . . . ?
O30 Fe10 N5 C109 -141.8(10) . . . . ?
O73 Fe10 N5 C109 126.0(10) . . . . ?
O66 Fe10 N5 C109 39.3(10) . . . . ?
O33 Fe10 N5 C105 129.2(9) . . . . ?
O30 Fe10 N5 C105 38.5(9) . . . . ?
O73 Fe10 N5 C105 -53.7(9) . . . . ?
O66 Fe10 N5 C105 -140.4(9) . . . . ?
C109 N5 C105 C106 -2(2) . . . . ?
Fe10 N5 C105 C106 177.9(12) . . . . ?
N5 C105 C106 C107 1(3) . . . . ?
C105 C106 C107 C108 0(3) . . . . ?
C106 C107 C108 C109 0(3) . . . . ?
C105 N5 C109 C108 1(2) . . . . ?
Fe10 N5 C109 C108 -178.5(11) . . . . ?
C107 C108 C109 N5 0(2) . . . . ?
O29 Fe5 N6 C110 137.6(9) . . . . ?
O40 Fe5 N6 C110 47.9(9) . . . . ?
O74 Fe5 N6 C110 -130.5(9) . . . . ?
O70 Fe5 N6 C110 -44.8(9) . . . . ?
O29 Fe5 N6 C114 -39.5(10) . . . . ?
O40 Fe5 N6 C114 -129.2(10) . . . . ?
O74 Fe5 N6 C114 52.4(10) . . . . ?
O70 Fe5 N6 C114 138.1(10) . . . . ?
C114 N6 C110 C111 -3(2) . . . . ?
Fe5 N6 C110 C111 -179.9(11) . . . . ?
N6 C110 C111 C112 6(3) . . . . ?
C110 C111 C112 C113 -3(3) . . . . ?
C111 C112 C113 C114 -2(3) . . . . ?
C110 N6 C114 C113 -2(2) . . . . ?
Fe5 N6 C114 C113 175.1(13) . . . . ?
C112 C113 C114 N6 4(3) . . . . ?
O47 Fe12 N7 C119 -48.1(10) . . . . ?
O43 Fe12 N7 C119 -136.6(10) . . . . ?
O68 Fe12 N7 C119 131.0(10) . . . . ?
O58 Fe12 N7 C119 43.3(10) . . . . ?
O47 Fe12 N7 C115 127.9(10) . . . . ?
O43 Fe12 N7 C115 39.4(9) . . . . ?
O68 Fe12 N7 C115 -53.0(9) . . . . ?
O58 Fe12 N7 C115 -140.7(10) . . . . ?
C119 N7 C115 C116 0(2) . . . . ?
Fe12 N7 C115 C116 -175.6(12) . . . . ?
N7 C115 C116 C117 -2(3) . . . . ?
C115 C116 C117 C118 2(3) . . . . ?
C116 C117 C118 C119 0(3) . . . . ?
C115 N7 C119 C118 2(2) . . . . ?
Fe12 N7 C119 C118 177.7(11) . . . . ?
C117 C118 C119 N7 -2(2) . . . . ?
O48 Fe7 N8 C124 -138.9(6) . . . . ?
O52 Fe7 N8 C124 -49.3(6) . . . . ?
O57 Fe7 N8 C124 128.3(6) . . . . ?
O78 Fe7 N8 C124 41.7(6) . . . . ?
O48 Fe7 N8 C120 36.3(6) . . . . ?
O52 Fe7 N8 C120 126.0(6) . . . . ?
O57 Fe7 N8 C120 -56.5(6) . . . . ?
O78 Fe7 N8 C120 -143.0(6) . . . . ?
C124 N8 C120 C121 -6.7 . . . . ?
Fe7 N8 C120 C121 179.0(7) . . . . ?
N8 C120 C121 C122 6.9 . . . . ?
C120 C121 C122 C123 0.8 . . . . ?
C121 C122 C123 C124 -10.0 . . . . ?
C120 N8 C124 C123 -1.9 . . . . ?
Fe7 N8 C124 C123 172.9(6) . . . . ?
C122 C123 C124 N8 10.5 . . . . ?
O51 Fe6 N9 C129 -132.5(12) . . . . ?
O44 Fe6 N9 C129 -45.2(11) . . . . ?
O67 Fe6 N9 C129 46.9(11) . . . . ?
O77 Fe6 N9 C129 134.5(12) . . . . ?
O51 Fe6 N9 C125 46.1(11) . . . . ?
O44 Fe6 N9 C125 133.5(12) . . . . ?
O67 Fe6 N9 C125 -134.5(12) . . . . ?
O77 Fe6 N9 C125 -46.9(11) . . . . ?
C129 N9 C125 C126 0(3) . . . . ?
Fe6 N9 C125 C126 -178.9(16) . . . . ?
N9 C125 C126 C127 5(3) . . . . ?
C125 C126 C127 C128 -6(4) . . . . ?
C126 C127 C128 C129 2(4) . . . . ?
C125 N9 C129 C128 -4(3) . . . . ?
Fe6 N9 C129 C128 174.6(16) . . . . ?
C127 C128 C129 N9 3(4) . . . . ?
O25 Fe1 N10 C134 -45.3(8) . . . . ?
O21 Fe1 N10 C134 -136.2(8) . . . . ?
O75 Fe1 N10 C134 46.1(8) . . . . ?
O72 Fe1 N10 C134 131.8(8) . . . . ?
O25 Fe1 N10 C130 130.9(8) . . . . ?
O21 Fe1 N10 C130 39.9(8) . . . . ?
O75 Fe1 N10 C130 -137.8(8) . . . . ?
O72 Fe1 N10 C130 -52.0(8) . . . . ?
C134 N10 C130 C131 -1.4(17) . . . . ?
Fe1 N10 C130 C131 -177.7(10) . . . . ?
N10 C130 C131 C132 0(2) . . . . ?
C130 C131 C132 C133 1(2) . . . . ?
C131 C132 C133 C134 -1(2) . . . . ?
C130 N10 C134 C133 1.1(16) . . . . ?
Fe1 N10 C134 C133 177.3(9) . . . . ?
C132 C133 C134 N10 0.4(19) . . . . ?
O22 Fe3 N11 C135 134.0(10) . . . . ?
O18 Fe3 N11 C135 45.3(10) . . . . ?
O71 Fe3 N11 C135 -133.4(10) . . . . ?
O62 Fe3 N11 C135 -45.5(10) . . . . ?
O22 Fe3 N11 C139 -46.0(8) . . . . ?
O18 Fe3 N11 C139 -134.6(9) . . . . ?
O71 Fe3 N11 C139 46.6(8) . . . . ?
O62 Fe3 N11 C139 134.5(9) . . . . ?
C139 N11 C135 C136 -4(2) . . . . ?
Fe3 N11 C135 C136 175.8(12) . . . . ?
N11 C135 C136 C137 7(3) . . . . ?
C135 C136 C137 C138 -3(3) . . . . ?
C136 C137 C138 C139 -3(3) . . . . ?
C135 N11 C139 C138 -2(2) . . . . ?
Fe3 N11 C139 C138 178.0(11) . . . . ?
C137 C138 C139 N11 6(2) . . . . ?
O26 Fe2 N12 C140 41.3(8) . . . . ?
O17 Fe2 N12 C140 128.8(8) . . . . ?
O76 Fe2 N12 C140 -52.7(8) . . . . ?
O61 Fe2 N12 C140 -139.0(8) . . . . ?
O26 Fe2 N12 C144 -133.3(8) . . . . ?
O17 Fe2 N12 C144 -45.7(8) . . . . ?
O76 Fe2 N12 C144 132.8(8) . . . . ?
O61 Fe2 N12 C144 46.5(8) . . . . ?
C144 N12 C140 C141 2.7(16) . . . . ?
Fe2 N12 C140 C141 -172.0(9) . . . . ?
N12 C140 C141 C142 0(2) . . . . ?
C140 C141 C142 C143 -3(2) . . . . ?
C141 C142 C143 C144 3(2) . . . . ?
C140 N12 C144 C143 -2.3(17) . . . . ?
Fe2 N12 C144 C143 172.4(10) . . . . ?
C142 C143 C144 N12 0(2) . . . . ?
C19A N13A C14A C15A 0.0 . . . . ?
N13A C14A C15A C17A 0.0 . . . . ?
C14A C15A C17A C18A 0.0 . . . . ?
C15A C17A C18A C19A 0.0 . . . . ?
C17A C18A C19A N13A 0.0 . . . . ?
C14A N13A C19A C18A 0.0 . . . . ?
C154 N14 C150 C151 0.0 . . . . ?
N14 C150 C151 C152 0.0 . . . . ?
C150 C151 C152 C153 0.0 . . . . ?
C151 C152 C153 C154 0.0 . . . . ?
C152 C153 C154 N14 0.0 . . . . ?
C150 N14 C154 C153 0.0 . . . . ?
C159 N15 C155 C156 0.0 . . . . ?
N15 C155 C156 C157 0.0 . . . . ?
C155 C156 C157 C158 0.0 . . . . ?
C156 C157 C158 C159 0.0 . . . . ?
C157 C158 C159 N15 0.0 . . . . ?
C155 N15 C159 C158 0.0 . . . . ?
C164 N16 C160 C161 0.0 . . . . ?
N16 C160 C161 C162 0.0 . . . . ?
C160 C161 C162 C163 0.0 . . . . ?
C161 C162 C163 C164 0.0 . . . . ?
C162 C163 C164 N16 0.0 . . . . ?
C160 N16 C164 C163 0.0 . . . . ?
C169 N17 C165 C166 0.0 . . . . ?
N17 C165 C166 C167 0.0 . . . . ?
C165 C166 C167 C168 0.0 . . . . ?
C166 C167 C168 C169 0.0 . . . . ?
C166 C167 C168 C35S 176(6) . . . 2_666 ?
C167 C168 C169 N17 0.0 . . . . ?
C35S C168 C169 N17 -178(3) 2_666 . . . ?
C167 C168 C169 C35S 178(3) . . . 2_666 ?
C165 N17 C169 C168 0.0 . . . . ?
C165 N17 C169 C35S -7(10) . . . 2_666 ?
O4G N18 C170 C171 178(14) . . . . ?
C174 N18 C170 C171 0.0 . . . . ?
C174 N18 C170 O4G -178(14) . . . . ?
N18 C170 C171 C172 0.0 . . . . ?
O4G C170 C171 C172 2(6) . . . . ?
C170 C171 C172 C173 0.0 . . . . ?
C171 C172 C173 C174 0.0 . . . . ?
C172 C173 C174 N18 0.00(5) . . . . ?
C172 C173 C174 O4G -1(6) . . . . ?
O4G N18 C174 C173 -177(13) . . . . ?
C170 N18 C174 C173 0.0 . . . . ?
C170 N18 C174 O4G 177(13) . . . . ?
C179 N19 C175 C176 0.0 . . . . ?
N19 C175 C176 C177 0.0 . . . . ?
C175 C176 C177 C178 0.00(6) . . . . ?
C176 C177 C178 C179 0.0 . . . . ?
C177 C178 C179 N19 0.0 . . . . ?
C175 N19 C179 C178 0.00(6) . . . . ?
C184 N20 C180 C181 0.0 . . . . ?
N20 C180 C181 C182 0.0 . . . . ?
C180 C181 C182 C183 0.0 . . . . ?
C181 C182 C183 C184 0.0 . . . . ?
C182 C183 C184 N20 0.0 . . . . ?
C180 N20 C184 C183 0.0 . . . . ?
C189 N21 C185 C186 0.0 . . . . ?
N21 C185 C186 C187 0.00(6) . . . . ?
C185 C186 C187 C188 0.0 . . . . ?
C186 C187 C188 C189 0.0 . . . . ?
C187 C188 C189 N21 0.0 . . . . ?
C185 N21 C189 C188 0.0 . . . . ?
C194 N22 C190 C191 0.0 . . . . ?
N22 C190 C191 C192 0.0 . . . . ?
C190 C191 C192 C193 0.0 . . . . ?
C191 C192 C193 C194 0.0 . . . . ?
C192 C193 C194 N22 0.0 . . . . ?
C190 N22 C194 C193 0.0 . . . . ?
O1S C1S N1S C3S -179.8 . . . . ?
O1S C1S N1S C2S 1.6 . . . . ?
O2S C4S N2S C5S 1(3) . . . . ?
O2S C4S N2S C6S 170(4) . . . . ?
O4S C10S N4S C12S 177(3) . . . . ?
O4S C10S N4S C11S 2(3) . . . . ?
O5S C13S N5S C15S 180(3) . . . . ?
O5S C13S N5S C14S -2(3) . . . . ?
C17S O6S C16S N6S 170(17) . . . . ?
C17S C16S N6S C18S 174(8) . . . . ?
O6S C16S N6S C18S -3(3) . . . . ?
O6S C16S N6S C17S -176(8) . . . . ?
O6S C16S C17S N6S 171(15) . . . . ?
N6S C16S C17S O6S -171(15) . . . . ?
C18S N6S C17S C16S -10(11) . . . . ?
C16S N6S C17S O6S 2(5) . . . . ?
C18S N6S C17S O6S -8(8) . . . . ?
C16S O6S C17S N6S -8(14) . . . . ?
C21S O7S C19S N7S -147(21) . . . . ?
O7S C19S N7S C21S 168(8) . . . . ?
O7S C19S N7S C20S 4(3) . . . . ?
C19S N7S C21S O7S -8(5) . . . . ?
C20S N7S C21S O7S 11(5) . . . . ?
C19S O7S C21S N7S 29(19) . . . . ?
O9S C25S N9S C26S 3(3) . . . . ?
O9S C25S N9S C27S 177(3) . . . . ?
O10S C28S N10S C30S 172(5) . . . . ?
O10S C28S N10S C29S -1(3) . . . . ?
O12S C34S N12S C35S 172(3) . . . . ?
O12S C34S N12S C36S 1(3) . . . . ?
C34S N12S C35S C168 -80(44) . . . 2_666 ?
C36S N12S C35S C168 91(44) . . . 2_666 ?
C34S N12S C35S C169 -19(11) . . . 2_666 ?
C36S N12S C35S C169 151(11) . . . 2_666 ?
C6M N3M' C5M N3M -145(6) . . . . ?
N3M C5M C6M N3M' 44(7) . . . . ?
C7M N4M N4M' C8M 157(3) . . . . ?
C8M N4M N4M' C7M -157(3) . . . . ?
C8M N4M C7M N4M' 27(3) . . . . ?
C8M N4M' C7M N4M -23(2) . . . . ?
C7M N4M C8M N4M' -27(3) . . . . ?
C7M N4M' C8M N4M 22(2) . . . . ?
C170 N18 O4G C174 -177(11) . . . . ?
C174 N18 O4G C170 177(11) . . . . ?
C173 C174 O4G N18 3(16) . . . . ?
C173 C174 O4G C170 1(8) . . . . ?
N18 C174 O4G C170 -2(9) . . . . ?
C171 C170 O4G N18 -3(16) . . . . ?
C171 C170 O4G C174 -2(8) . . . . ?
N18 C170 O4G C174 1(10) . . . . ?

_diffrn_measured_fraction_theta_max 0.999
_diffrn_reflns_theta_full        23.26
_diffrn_measured_fraction_theta_full 0.999
_refine_diff_density_max         2.000
_refine_diff_density_min         -1.620
_refine_diff_density_rms         0.164
####################################################################### 
# 
# This file contains crystal structure data downloaded from the 
# Cambridge Structural Database (CSD) hosted by the Cambridge 
# Crystallographic Data Centre (CCDC).
# 
# Full information about CCDC data access policies and citation 
# guidelines are available at http://www.ccdc.cam.ac.uk/access/V1 
# 
# Audit and citation data items may have been added by the CCDC. 
# Please retain this information to preserve the provenance of 
# this file and to allow appropriate attribution of the data. 
# 
#######################################################################

data_IRMOP-51c
_audit_block_doi                 10.5517/cc95qcj
_database_code_depnum_ccdc_archive 'CCDC 273617'
loop_
_citation_id
_citation_doi
_citation_year
1 10.1021/ja042802q 2005
_audit_update_record             
;
2005-06-01 deposited with the CCDC.	2019-02-14 downloaded from the CCDC.
;

_audit_creation_method           SHELXL-97
_chemical_name_systematic        
;
?
;
_chemical_name_common            IRMOF-51c
_chemical_melting_point          ?
_chemical_formula_moiety         'C150 H108 Fe12 N18 O76 S12'
_chemical_formula_sum            'C150 H108 Fe12 N18 O76 S12'
_chemical_formula_weight         4433.46

loop_
_atom_type_symbol
_atom_type_description
_atom_type_scat_dispersion_real
_atom_type_scat_dispersion_imag
_atom_type_scat_source
C C 0.0033 0.0016 'International Tables Vol C Tables 4.2.6.8 and 6.1.1.4'
H H 0.0000 0.0000 'International Tables Vol C Tables 4.2.6.8 and 6.1.1.4'
N N 0.0061 0.0033 'International Tables Vol C Tables 4.2.6.8 and 6.1.1.4'
O O 0.0106 0.0060 'International Tables Vol C Tables 4.2.6.8 and 6.1.1.4'
S S 0.1246 0.1234 'International Tables Vol C Tables 4.2.6.8 and 6.1.1.4'
Fe Fe 0.3463 0.8444 'International Tables Vol C Tables 4.2.6.8 and 6.1.1.4'

_symmetry_cell_setting           cubic
_symmetry_space_group_name_H-M   F-43m

loop_
_symmetry_equiv_pos_as_xyz
'x, y, z'
'-x, -y, z'
'-x, y, -z'
'x, -y, -z'
'z, x, y'
'z, -x, -y'
'-z, -x, y'
'-z, x, -y'
'y, z, x'
'-y, z, -x'
'y, -z, -x'
'-y, -z, x'
'y, x, z'
'-y, -x, z'
'y, -x, -z'
'-y, x, -z'
'x, z, y'
'-x, z, -y'
'-x, -z, y'
'x, -z, -y'
'z, y, x'
'z, -y, -x'
'-z, y, -x'
'-z, -y, x'
'x, y+1/2, z+1/2'
'-x, -y+1/2, z+1/2'
'-x, y+1/2, -z+1/2'
'x, -y+1/2, -z+1/2'
'z, x+1/2, y+1/2'
'z, -x+1/2, -y+1/2'
'-z, -x+1/2, y+1/2'
'-z, x+1/2, -y+1/2'
'y, z+1/2, x+1/2'
'-y, z+1/2, -x+1/2'
'y, -z+1/2, -x+1/2'
'-y, -z+1/2, x+1/2'
'y, x+1/2, z+1/2'
'-y, -x+1/2, z+1/2'
'y, -x+1/2, -z+1/2'
'-y, x+1/2, -z+1/2'
'x, z+1/2, y+1/2'
'-x, z+1/2, -y+1/2'
'-x, -z+1/2, y+1/2'
'x, -z+1/2, -y+1/2'
'z, y+1/2, x+1/2'
'z, -y+1/2, -x+1/2'
'-z, y+1/2, -x+1/2'
'-z, -y+1/2, x+1/2'
'x+1/2, y, z+1/2'
'-x+1/2, -y, z+1/2'
'-x+1/2, y, -z+1/2'
'x+1/2, -y, -z+1/2'
'z+1/2, x, y+1/2'
'z+1/2, -x, -y+1/2'
'-z+1/2, -x, y+1/2'
'-z+1/2, x, -y+1/2'
'y+1/2, z, x+1/2'
'-y+1/2, z, -x+1/2'
'y+1/2, -z, -x+1/2'
'-y+1/2, -z, x+1/2'
'y+1/2, x, z+1/2'
'-y+1/2, -x, z+1/2'
'y+1/2, -x, -z+1/2'
'-y+1/2, x, -z+1/2'
'x+1/2, z, y+1/2'
'-x+1/2, z, -y+1/2'
'-x+1/2, -z, y+1/2'
'x+1/2, -z, -y+1/2'
'z+1/2, y, x+1/2'
'z+1/2, -y, -x+1/2'
'-z+1/2, y, -x+1/2'
'-z+1/2, -y, x+1/2'
'x+1/2, y+1/2, z'
'-x+1/2, -y+1/2, z'
'-x+1/2, y+1/2, -z'
'x+1/2, -y+1/2, -z'
'z+1/2, x+1/2, y'
'z+1/2, -x+1/2, -y'
'-z+1/2, -x+1/2, y'
'-z+1/2, x+1/2, -y'
'y+1/2, z+1/2, x'
'-y+1/2, z+1/2, -x'
'y+1/2, -z+1/2, -x'
'-y+1/2, -z+1/2, x'
'y+1/2, x+1/2, z'
'-y+1/2, -x+1/2, z'
'y+1/2, -x+1/2, -z'
'-y+1/2, x+1/2, -z'
'x+1/2, z+1/2, y'
'-x+1/2, z+1/2, -y'
'-x+1/2, -z+1/2, y'
'x+1/2, -z+1/2, -y'
'z+1/2, y+1/2, x'
'z+1/2, -y+1/2, -x'
'-z+1/2, y+1/2, -x'
'-z+1/2, -y+1/2, x'

_cell_length_a                   38.508(9)
_cell_length_b                   38.508(9)
_cell_length_c                   38.508(9)
_cell_angle_alpha                90.00
_cell_angle_beta                 90.00
_cell_angle_gamma                90.00
_cell_volume                     57102(24)
_cell_formula_units_Z            4
_cell_measurement_temperature    153(2)
_cell_measurement_reflns_used    999
_cell_measurement_theta_min      1.5
_cell_measurement_theta_max      23.29

_exptl_crystal_description       cube
_exptl_crystal_colour            orange
_exptl_crystal_size_max          0.2
_exptl_crystal_size_mid          0.2
_exptl_crystal_size_min          0.2
_exptl_crystal_density_meas      ?
_exptl_crystal_density_diffrn    0.516
_exptl_crystal_density_method    'not measured'
_exptl_crystal_F_000             8984
_exptl_absorpt_coefficient_mu    0.370
_exptl_absorpt_correction_type   multi-scan
_exptl_absorpt_correction_T_min  0.929
_exptl_absorpt_correction_T_max  0.929
_exptl_absorpt_process_details   'Blessing, Acta Cryst. (1995) A51 33-58'

_exptl_special_details           
;
The only optimal crystals suitable for analysis were small and weakly
diffracting. Optimization of synthetic conditions could yield larger
crystals, however these specimens had only a very low degree of
crystallinity and presented little coherent scattering compared to
that of smaller crystals. Owing to these challenges observed strong
(high intensity) scattering was limited to 1.0 angstrom, with higher
resolution data present but weak (low intensity). Increasing the exposure
time of the crystal to X-rays did not ameliorate the quality of the data
as this woulThe only optimal crystals suitable for analysis were small
and weakly diffracting. Optimization of synthetic conditions could yield larger
crystals, however these specimens had only a very low degree of
crystallinity and presented little coherent scattering compared to
that of smaller crystals. Additionally, diffuse scattering from the highly
disordered solvent in the large void spaces within the crystal and from
the capillary used mount the crystal contributes to the background
noise and the 'washing out' of high angle data.


This was a twinned data set. Two components; twin law = -1 0 0, 0 -1 0,
0 0 -1 was used to refine both components in HKLF4 format.

;

_diffrn_ambient_temperature      153(2)
_diffrn_radiation_wavelength     0.71073
_diffrn_radiation_type           MoK\a
_diffrn_radiation_source         'fine-focus sealed tube'
_diffrn_radiation_monochromator  graphite
_diffrn_measurement_device_type  ?
_diffrn_measurement_method       ?
_diffrn_detector_area_resol_mean ?
_diffrn_standards_number         ?
_diffrn_standards_interval_count ?
_diffrn_standards_interval_time  ?
_diffrn_standards_decay_%        ?
_diffrn_reflns_number            29975
_diffrn_reflns_av_R_equivalents  0.1770
_diffrn_reflns_av_sigmaI/netI    0.0917
_diffrn_reflns_limit_h_min       -31
_diffrn_reflns_limit_h_max       25
_diffrn_reflns_limit_k_min       -7
_diffrn_reflns_limit_k_max       42
_diffrn_reflns_limit_l_min       -42
_diffrn_reflns_limit_l_max       42
_diffrn_reflns_theta_min         1.50
_diffrn_reflns_theta_max         23.29
_reflns_number_total             3927
_reflns_number_gt                1921
_reflns_threshold_expression     >2sigma(I)

_computing_data_collection       'Bruker SMART'
_computing_cell_refinement       'Bruker SMART'
_computing_data_reduction        'Bruker SAINT'
_computing_structure_solution    'SHELXS-97 (Sheldrick, 1990)'
_computing_structure_refinement  'SHELXL-97 (Sheldrick, 1997)'
_computing_molecular_graphics    crystalmaker
_computing_publication_material  wingx

_refine_special_details          
;
Refinement of F^2^ against ALL reflections. The weighted R-factor wR and
goodness of fit S are based on F^2^, conventional R-factors R are based
on F, with F set to zero for negative F^2^. The threshold expression of
F^2^ > 2sigma(F^2^) is used only for calculating R-factors(gt) etc. and is
not relevant to the choice of reflections for refinement. R-factors based
on F^2^ are statistically about twice as large as those based on F, and R-
factors based on ALL data will be even larger.

Refinement of the data as a racemic twin was required to obtain proper
model, thus the larger residuals for the structure. Additionally,
testing of other synthesized crystals also led to racemically twinned data.
In no attempt could 'untwinned' material be prepared/found.

Due to the large void space in the structure, solvent in the structure
is highly disordered. Complete assignment of
scattering factors to all residual electron density was therfore not possible
Assigment of the largest peaks in the Fourier difference map to carbon
and nitrogen was made; these were refined anisotropically if possible.
All other electron density in the void space was treated as separated
oxygen atoms with large thermal parameters. Cations in the structure could
not be resolved as they are components of the highly disordered
portion of the structure.


;

_refine_ls_structure_factor_coef Fsqd
_refine_ls_matrix_type           full
_refine_ls_weighting_scheme      calc
_refine_ls_weighting_details     
'calc w=1/[\s^2^(Fo^2^)+(0.1590P)^2^+2.5000P] where P=(Fo^2^+2Fc^2^)/3'
_atom_sites_solution_primary     direct
_atom_sites_solution_secondary   difmap
_atom_sites_solution_hydrogens   geom
_refine_ls_hydrogen_treatment    constr
_refine_ls_extinction_method     SHELXL
_refine_ls_extinction_coef       0.00042(5)
_refine_ls_extinction_expression Fc^*^=kFc[1+0.001xFc^2^\l^3^/sin(2\q)]^-1/4^
_refine_ls_abs_structure_details 'Flack H D (1983), Acta Cryst. A39, 876-881'
_refine_ls_abs_structure_Flack   0.67(6)
_refine_ls_number_reflns         3927
_refine_ls_number_parameters     122
_refine_ls_number_restraints     4
_refine_ls_R_factor_all          0.1732
_refine_ls_R_factor_gt           0.0865
_refine_ls_wR_factor_ref         0.2778
_refine_ls_wR_factor_gt          0.2164
_refine_ls_goodness_of_fit_ref   1.005
_refine_ls_restrained_S_all      1.007
_refine_ls_shift/su_max          0.001
_refine_ls_shift/su_mean         0.000

loop_
_atom_site_label
_atom_site_type_symbol
_atom_site_fract_x
_atom_site_fract_y
_atom_site_fract_z
_atom_site_U_iso_or_equiv
_atom_site_adp_type
_atom_site_occupancy
_atom_site_symmetry_multiplicity
_atom_site_calc_flag
_atom_site_refinement_flags
_atom_site_disorder_assembly
_atom_site_disorder_group
Fe1 Fe 0.83141(3) 0.16859(3) 0.89241(4) 0.0823(7) Uani 1 2 d S . .
S1 S 0.76059(10) 0.14157(8) 0.85844(8) 0.1064(13) Uani 1 2 d S . .
O1 O 0.85054(16) 0.14946(16) 0.85054(16) 0.071(3) Uani 1 6 d S . .
O2 O 0.82650(17) 0.12274(19) 0.91756(16) 0.106(2) Uani 1 1 d . . .
O3 O 0.78266(14) 0.16741(16) 0.87679(15) 0.0983(18) Uani 1 1 d . . .
O4 O 0.7341(2) 0.1609(2) 0.8391(2) 0.140(4) Uani 1 2 d S . .
O5 O 0.7466(3) 0.1166(2) 0.8834(2) 0.148(4) Uani 1 2 d S . .
N1 N 0.8104(2) 0.1896(2) 0.9394(3) 0.112(4) Uani 1 2 d SD . .
C1 C 0.8250(4) 0.0906(3) 0.9094(3) 0.101(4) Uani 1 2 d S . .
C2 C 0.8235(4) 0.0662(3) 0.9338(3) 0.101(4) Uani 1 2 d S . .
C3 C 0.8251(5) 0.0727(3) 0.9668(4) 0.187(7) Uani 1 1 d . . .
H3 H 0.8285 0.0963 0.9731 0.224 Uiso 1 1 calc R . .
C4 C 0.8221(6) 0.0482(3) 0.9949(3) 0.227(9) Uani 1 1 d . . .
H4 H 0.8207 0.0556 1.0184 0.273 Uiso 1 1 calc R . .
C5 C 0.8214(6) 0.0138(2) 0.9862(2) 0.160(7) Uani 1 2 d S . .
C6 C 0.8239(4) 0.2166(4) 0.9556(3) 0.162(5) Uani 1 1 d D . .
H6 H 0.8442 0.2264 0.9456 0.194 Uiso 1 1 calc R . .
C7 C 0.8110(4) 0.2332(4) 0.9876(4) 0.205(9) Uani 1 1 d D . .
H7 H 0.8223 0.2523 0.9984 0.246 Uiso 1 1 calc R . .
C8 C 0.7814(5) 0.2186(5) 1.0004(6) 0.213(14) Uani 1 2 d SD . .
H8 H 0.7702 0.2298 1.0193 0.255 Uiso 1 2 calc SR . .
N1G N 0.7500 0.1609(10) 0.7500 0.254(14) Uani 1 4 d S . .
C1G C 0.7500 0.1096(10) 0.7500 0.29(2) Uani 1 4 d S . .

loop_
_atom_site_aniso_label
_atom_site_aniso_U_11
_atom_site_aniso_U_22
_atom_site_aniso_U_33
_atom_site_aniso_U_23
_atom_site_aniso_U_13
_atom_site_aniso_U_12
Fe1 0.0843(9) 0.0843(9) 0.0784(12) 0.0150(6) -0.0150(6) 0.0168(10)
S1 0.084(2) 0.1176(19) 0.1176(19) 0.002(3) -0.0119(17) 0.0119(17)
O1 0.071(3) 0.071(3) 0.071(3) 0.011(3) -0.011(3) 0.011(3)
O2 0.111(5) 0.119(5) 0.089(4) 0.044(4) -0.002(4) 0.014(4)
O3 0.078(4) 0.110(4) 0.107(4) 0.000(4) -0.021(3) 0.027(4)
O4 0.107(7) 0.156(5) 0.156(5) 0.000(7) -0.053(5) 0.053(5)
O5 0.147(9) 0.148(6) 0.148(6) 0.031(7) 0.039(5) -0.039(5)
N1 0.121(6) 0.121(6) 0.093(9) 0.009(5) -0.009(5) 0.003(8)
C1 0.125(12) 0.089(5) 0.089(5) 0.016(10) -0.007(6) 0.007(6)
C2 0.142(13) 0.081(5) 0.081(5) 0.027(9) -0.007(6) 0.007(6)
C3 0.31(2) 0.094(8) 0.153(12) 0.048(9) 0.009(14) -0.004(10)
C4 0.48(3) 0.096(8) 0.105(9) 0.036(8) 0.035(14) 0.049(15)
C5 0.28(2) 0.098(7) 0.098(7) 0.043(9) -0.002(8) 0.002(8)
C6 0.194(14) 0.165(13) 0.126(11) 0.014(9) -0.029(10) 0.037(12)
C7 0.28(2) 0.222(19) 0.115(11) -0.063(12) -0.018(14) 0.092(18)
C8 0.22(2) 0.22(2) 0.21(3) -0.043(14) 0.043(14) 0.06(2)
N1G 0.219(18) 0.32(5) 0.219(18) 0.000 -0.05(2) 0.000
C1G 0.31(4) 0.23(4) 0.31(4) 0.000 -0.28(4) 0.000

_geom_special_details            
;
All esds (except the esd in the dihedral angle between two l.s. planes)
are estimated using the full covariance matrix. The cell esds are taken
into account individually in the estimation of esds in distances, angles
and torsion angles; correlations between esds in cell parameters are only
used when they are defined by crystal symmetry. An approximate (isotropic)
treatment of cell esds is used for estimating esds involving l.s. planes.
;

loop_
_geom_bond_atom_site_label_1
_geom_bond_atom_site_label_2
_geom_bond_distance
_geom_bond_site_symmetry_2
_geom_bond_publ_flag
Fe1 O1 1.9194(18) . ?
Fe1 O3 1.972(6) . ?
Fe1 O3 1.972(6) 14_665 ?
Fe1 O2 2.022(6) 14_665 ?
Fe1 O2 2.023(6) . ?
Fe1 N1 2.141(14) . ?
S1 O5 1.460(10) . ?
S1 O4 1.464(9) . ?
S1 O3 1.487(6) . ?
S1 O3 1.487(6) 20_566 ?
O1 Fe1 1.9195(18) 6_566 ?
O1 Fe1 1.9196(18) 12_665 ?
O2 C1 1.279(9) . ?
N1 C6 1.321(15) 14_665 ?
N1 C6 1.321(15) . ?
C1 O2 1.279(9) 20_566 ?
C1 C2 1.327(19) . ?
C2 C3 1.296(15) 20_566 ?
C2 C3 1.296(15) . ?
C3 C4 1.442(16) . ?
C3 H3 0.9500 . ?
C4 C5 1.367(13) . ?
C4 H4 0.9500 . ?
C5 C4 1.367(13) 20_566 ?
C5 C5 1.50(3) 4_557 ?
C6 C7 1.473(14) . ?
C6 H6 0.9500 . ?
C7 C8 1.363(15) . ?
C7 H7 0.9500 . ?
C8 C7 1.363(15) 14_665 ?
C8 H8 0.9500 . ?

loop_
_geom_angle_atom_site_label_1
_geom_angle_atom_site_label_2
_geom_angle_atom_site_label_3
_geom_angle
_geom_angle_site_symmetry_1
_geom_angle_site_symmetry_3
_geom_angle_publ_flag
O1 Fe1 O3 95.8(3) . . ?
O1 Fe1 O3 95.8(3) . 14_665 ?
O3 Fe1 O3 87.2(4) . 14_665 ?
O1 Fe1 O2 95.9(3) . 14_665 ?
O3 Fe1 O2 168.3(3) . 14_665 ?
O3 Fe1 O2 92.1(3) 14_665 14_665 ?
O1 Fe1 O2 95.9(3) . . ?
O3 Fe1 O2 92.1(3) . . ?
O3 Fe1 O2 168.3(3) 14_665 . ?
O2 Fe1 O2 86.2(4) 14_665 . ?
O1 Fe1 N1 179.4(5) . . ?
O3 Fe1 N1 84.6(3) . . ?
O3 Fe1 N1 84.6(3) 14_665 . ?
O2 Fe1 N1 83.7(3) 14_665 . ?
O2 Fe1 N1 83.7(3) . . ?
O5 S1 O4 114.3(7) . . ?
O5 S1 O3 109.7(4) . . ?
O4 S1 O3 107.4(4) . . ?
O5 S1 O3 109.7(4) . 20_566 ?
O4 S1 O3 107.4(4) . 20_566 ?
O3 S1 O3 108.0(5) . 20_566 ?
Fe1 O1 Fe1 119.83(5) . 6_566 ?
Fe1 O1 Fe1 119.83(5) . 12_665 ?
Fe1 O1 Fe1 119.82(5) 6_566 12_665 ?
C1 O2 Fe1 137.1(8) . . ?
S1 O3 Fe1 134.8(4) . . ?
C6 N1 C6 113.4(18) 14_665 . ?
C6 N1 Fe1 123.3(9) 14_665 . ?
C6 N1 Fe1 123.3(9) . . ?
O2 C1 O2 118.1(14) . 20_566 ?
O2 C1 C2 120.9(7) . . ?
O2 C1 C2 120.9(7) 20_566 . ?
C3 C2 C3 112.1(16) 20_566 . ?
C3 C2 C1 123.6(8) 20_566 . ?
C3 C2 C1 123.6(8) . . ?
C2 C3 C4 127.2(15) . . ?
C2 C3 H3 116.4 . . ?
C4 C3 H3 116.4 . . ?
C5 C4 C3 117.0(13) . . ?
C5 C4 H4 121.5 . . ?
C3 C4 H4 121.5 . . ?
C4 C5 C4 118.2(14) 20_566 . ?
C4 C5 C5 120.9(7) 20_566 4_557 ?
C4 C5 C5 120.9(7) . 4_557 ?
N1 C6 C7 127.1(18) . . ?
N1 C6 H6 116.5 . . ?
C7 C6 H6 116.5 . . ?
C8 C7 C6 114.0(19) . . ?
C8 C7 H7 123.0 . . ?
C6 C7 H7 123.0 . . ?
C7 C8 C7 124(2) 14_665 . ?
C7 C8 H8 118.1 14_665 . ?
C7 C8 H8 118.1 . . ?

_diffrn_measured_fraction_theta_max 0.986
_diffrn_reflns_theta_full        23.29
_diffrn_measured_fraction_theta_full 0.986
_refine_diff_density_max         0.454
_refine_diff_density_min         -0.498
_refine_diff_density_rms         0.074
####################################################################### 
# 
# This file contains crystal structure data downloaded from the 
# Cambridge Structural Database (CSD) hosted by the Cambridge 
# Crystallographic Data Centre (CCDC).
# 
# Full information about CCDC data access policies and citation 
# guidelines are available at http://www.ccdc.cam.ac.uk/access/V1 
# 
# Audit and citation data items may have been added by the CCDC. 
# Please retain this information to preserve the provenance of 
# this file and to allow appropriate attribution of the data. 
# 
#######################################################################

data_sqzdIRMOF51c
_audit_block_doi                 10.5517/cc95qdk
_database_code_depnum_ccdc_archive 'CCDC 273618'
loop_
_citation_id
_citation_doi
_citation_year
1 10.1021/ja042802q 2005
_audit_update_record             
;
2005-06-01 deposited with the CCDC.	2019-02-14 downloaded from the CCDC.
;

_audit_creation_method           SHELXL-97
_chemical_name_systematic        
;
?
;
_chemical_name_common            IRMOF-51c
_chemical_melting_point          ?
_chemical_formula_moiety         'C144 H108 Fe12 N12 O76 S12'
_chemical_formula_sum            'C144 H108 Fe12 N12 O76 S12'
_chemical_formula_weight         4277.34

loop_
_atom_type_symbol
_atom_type_description
_atom_type_scat_dispersion_real
_atom_type_scat_dispersion_imag
_atom_type_scat_source
C C 0.0033 0.0016 'International Tables Vol C Tables 4.2.6.8 and 6.1.1.4'
H H 0.0000 0.0000 'International Tables Vol C Tables 4.2.6.8 and 6.1.1.4'
N N 0.0061 0.0033 'International Tables Vol C Tables 4.2.6.8 and 6.1.1.4'
O O 0.0106 0.0060 'International Tables Vol C Tables 4.2.6.8 and 6.1.1.4'
S S 0.1246 0.1234 'International Tables Vol C Tables 4.2.6.8 and 6.1.1.4'
Fe Fe 0.3463 0.8444 'International Tables Vol C Tables 4.2.6.8 and 6.1.1.4'

_symmetry_cell_setting           cubic
_symmetry_space_group_name_H-M   F-43m

loop_
_symmetry_equiv_pos_as_xyz
'x, y, z'
'-x, -y, z'
'-x, y, -z'
'x, -y, -z'
'z, x, y'
'z, -x, -y'
'-z, -x, y'
'-z, x, -y'
'y, z, x'
'-y, z, -x'
'y, -z, -x'
'-y, -z, x'
'y, x, z'
'-y, -x, z'
'y, -x, -z'
'-y, x, -z'
'x, z, y'
'-x, z, -y'
'-x, -z, y'
'x, -z, -y'
'z, y, x'
'z, -y, -x'
'-z, y, -x'
'-z, -y, x'
'x, y+1/2, z+1/2'
'-x, -y+1/2, z+1/2'
'-x, y+1/2, -z+1/2'
'x, -y+1/2, -z+1/2'
'z, x+1/2, y+1/2'
'z, -x+1/2, -y+1/2'
'-z, -x+1/2, y+1/2'
'-z, x+1/2, -y+1/2'
'y, z+1/2, x+1/2'
'-y, z+1/2, -x+1/2'
'y, -z+1/2, -x+1/2'
'-y, -z+1/2, x+1/2'
'y, x+1/2, z+1/2'
'-y, -x+1/2, z+1/2'
'y, -x+1/2, -z+1/2'
'-y, x+1/2, -z+1/2'
'x, z+1/2, y+1/2'
'-x, z+1/2, -y+1/2'
'-x, -z+1/2, y+1/2'
'x, -z+1/2, -y+1/2'
'z, y+1/2, x+1/2'
'z, -y+1/2, -x+1/2'
'-z, y+1/2, -x+1/2'
'-z, -y+1/2, x+1/2'
'x+1/2, y, z+1/2'
'-x+1/2, -y, z+1/2'
'-x+1/2, y, -z+1/2'
'x+1/2, -y, -z+1/2'
'z+1/2, x, y+1/2'
'z+1/2, -x, -y+1/2'
'-z+1/2, -x, y+1/2'
'-z+1/2, x, -y+1/2'
'y+1/2, z, x+1/2'
'-y+1/2, z, -x+1/2'
'y+1/2, -z, -x+1/2'
'-y+1/2, -z, x+1/2'
'y+1/2, x, z+1/2'
'-y+1/2, -x, z+1/2'
'y+1/2, -x, -z+1/2'
'-y+1/2, x, -z+1/2'
'x+1/2, z, y+1/2'
'-x+1/2, z, -y+1/2'
'-x+1/2, -z, y+1/2'
'x+1/2, -z, -y+1/2'
'z+1/2, y, x+1/2'
'z+1/2, -y, -x+1/2'
'-z+1/2, y, -x+1/2'
'-z+1/2, -y, x+1/2'
'x+1/2, y+1/2, z'
'-x+1/2, -y+1/2, z'
'-x+1/2, y+1/2, -z'
'x+1/2, -y+1/2, -z'
'z+1/2, x+1/2, y'
'z+1/2, -x+1/2, -y'
'-z+1/2, -x+1/2, y'
'-z+1/2, x+1/2, -y'
'y+1/2, z+1/2, x'
'-y+1/2, z+1/2, -x'
'y+1/2, -z+1/2, -x'
'-y+1/2, -z+1/2, x'
'y+1/2, x+1/2, z'
'-y+1/2, -x+1/2, z'
'y+1/2, -x+1/2, -z'
'-y+1/2, x+1/2, -z'
'x+1/2, z+1/2, y'
'-x+1/2, z+1/2, -y'
'-x+1/2, -z+1/2, y'
'x+1/2, -z+1/2, -y'
'z+1/2, y+1/2, x'
'z+1/2, -y+1/2, -x'
'-z+1/2, y+1/2, -x'
'-z+1/2, -y+1/2, x'

_cell_length_a                   38.508(9)
_cell_length_b                   38.508(9)
_cell_length_c                   38.508(9)
_cell_angle_alpha                90.00
_cell_angle_beta                 90.00
_cell_angle_gamma                90.00
_cell_volume                     57101.8(231)
_cell_formula_units_Z            4
_cell_measurement_temperature    153(2)
_cell_measurement_reflns_used    999
_cell_measurement_theta_min      3.0
_cell_measurement_theta_max      22.00

_exptl_crystal_description       cube
_exptl_crystal_colour            orange
_exptl_crystal_size_max          0.2
_exptl_crystal_size_mid          0.2
_exptl_crystal_size_min          0.2
_exptl_crystal_density_meas      ?
_exptl_crystal_density_diffrn    0.498
_exptl_crystal_density_method    'not measured'
_exptl_crystal_F_000             8672
_exptl_absorpt_coefficient_mu    0.369
_exptl_absorpt_correction_type   multi-scan
_exptl_absorpt_correction_T_min  0.928
_exptl_absorpt_correction_T_max  0.929
_exptl_absorpt_process_details   'Blessing, Acta Cryst. (1995) A51 33-58'

_exptl_special_details           
;
The only optimal crystals suitable for analysis were small and weakly
diffracting. Optimization of synthetic conditions could yield larger
crystals, however these specimens had only a very low degree of
crystallinity and presented little coherent scattering compared to
that of smaller crystals. Owing to these challenges observed strong
(high intensity) scattering was limited to 1.0 angstrom, with higher
resolution data present but weak (low intensity). Increasing the exposure
time of the crystal to X-rays did not ameliorate the quality of the data
as this woulThe only optimal crystals suitable for analysis were small
and weakly diffracting. Optimization of synthetic conditions could yield larger
crystals, however these specimens had only a very low degree of
crystallinity and presented little coherent scattering compared to
that of smaller crystals. Additionally, diffuse scattering from the highly
disordered solvent in the large void spaces within the crystal and from
the capillary used mount the crystal contributes to the background
noise and the 'washing out' of high angle data.

This was a racemically twinned crystal.

This model has been treated with the SQUEEZE subroutine of PLATON.

;

_diffrn_ambient_temperature      153(2)
_diffrn_radiation_wavelength     0.71073
_diffrn_radiation_type           MoK\a
_diffrn_radiation_source         'fine-focus sealed tube'
_diffrn_radiation_monochromator  graphite
_diffrn_measurement_device_type  ?
_diffrn_measurement_method       ?
_diffrn_detector_area_resol_mean ?
_diffrn_standards_number         ?
_diffrn_standards_interval_count ?
_diffrn_standards_interval_time  ?
_diffrn_standards_decay_%        ?
_diffrn_reflns_number            29975
_diffrn_reflns_av_R_equivalents  0.1309
_diffrn_reflns_av_sigmaI/netI    0.0796
_diffrn_reflns_limit_h_min       -31
_diffrn_reflns_limit_h_max       25
_diffrn_reflns_limit_k_min       -7
_diffrn_reflns_limit_k_max       42
_diffrn_reflns_limit_l_min       -42
_diffrn_reflns_limit_l_max       42
_diffrn_reflns_theta_min         1.50
_diffrn_reflns_theta_max         23.29
_reflns_number_total             3927
_reflns_number_gt                2050
_reflns_threshold_expression     >2sigma(I)

_computing_data_collection       'Bruker SMART'
_computing_cell_refinement       'Bruker GEMINI'
_computing_data_reduction        'Bruker SAINT'
_computing_structure_solution    'SHELXS-97 (Sheldrick, 1990)'
_computing_structure_refinement  'SHELXL-97 (Sheldrick, 1997)'
_computing_molecular_graphics    crystalmaker
_computing_publication_material  wingx

_refine_special_details          
;
Refinement of F^2^ against ALL reflections. The weighted R-factor wR and
goodness of fit S are based on F^2^, conventional R-factors R are based
on F, with F set to zero for negative F^2^. The threshold expression of
F^2^ > 2sigma(F^2^) is used only for calculating R-factors(gt) etc. and is
not relevant to the choice of reflections for refinement. R-factors based
on F^2^ are statistically about twice as large as those based on F, and R-
factors based on ALL data will be even larger.

Refinement of the data as a racemic twin was required to obtain proper
model, thus the larger residuals for the structure. Additionally,
testing of other synthesized crystals also led to racemically twinned data.
In no attempt could 'untwinned' material be prepared/found.

Fourier difference maps revealed the presence of disordered solvent
molecules within the lattice which were ulitmately modeled through the
use of the PLATON software suite: Spek, A.L. (1990), Acta Crystallogr.
A46, C-34. A sum total of 5464 electrons were accounted for in void
space of 41771.9 A^3.


;

_refine_ls_structure_factor_coef Fsqd
_refine_ls_matrix_type           full
_refine_ls_weighting_scheme      calc
_refine_ls_weighting_details     
'calc w=1/[\s^2^(Fo^2^)+(0.1590P)^2^+2.5000P] where P=(Fo^2^+2Fc^2^)/3'
_atom_sites_solution_primary     direct
_atom_sites_solution_secondary   difmap
_atom_sites_solution_hydrogens   geom
_refine_ls_hydrogen_treatment    constr
_refine_ls_extinction_method     SHELXL
_refine_ls_extinction_coef       0.000012(7)
_refine_ls_extinction_expression Fc^*^=kFc[1+0.001xFc^2^\l^3^/sin(2\q)]^-1/4^
_refine_ls_abs_structure_details 'Flack H D (1983), Acta Cryst. A39, 876-881'
_refine_ls_abs_structure_Flack   0.64(5)
_refine_ls_number_reflns         3927
_refine_ls_number_parameters     114
_refine_ls_number_restraints     4
_refine_ls_R_factor_all          0.1231
_refine_ls_R_factor_gt           0.0770
_refine_ls_wR_factor_ref         0.2309
_refine_ls_wR_factor_gt          0.2062
_refine_ls_goodness_of_fit_ref   0.838
_refine_ls_restrained_S_all      0.842
_refine_ls_shift/su_max          0.001
_refine_ls_shift/su_mean         0.000

loop_
_atom_site_label
_atom_site_type_symbol
_atom_site_fract_x
_atom_site_fract_y
_atom_site_fract_z
_atom_site_U_iso_or_equiv
_atom_site_adp_type
_atom_site_occupancy
_atom_site_symmetry_multiplicity
_atom_site_calc_flag
_atom_site_refinement_flags
_atom_site_disorder_assembly
_atom_site_disorder_group
Fe1 Fe 0.83134(2) 0.16866(2) 0.89244(3) 0.0754(5) Uani 1 2 d S . .
S1 S 0.76051(8) 0.14143(6) 0.85857(6) 0.1014(11) Uani 1 2 d S . .
O1 O 0.85039(14) 0.14961(14) 0.85039(14) 0.063(3) Uani 1 6 d S . .
O2 O 0.82601(14) 0.12241(15) 0.91785(13) 0.0992(17) Uani 1 1 d . . .
O3 O 0.78201(11) 0.16731(14) 0.87691(12) 0.0904(14) Uani 1 1 d . . .
O4 O 0.73408(19) 0.16075(17) 0.83925(17) 0.131(3) Uani 1 2 d S . .
O5 O 0.7469(2) 0.11620(16) 0.88380(16) 0.137(3) Uani 1 2 d S . .
N1 N 0.80995(18) 0.19005(18) 0.9407(3) 0.101(3) Uani 1 2 d SD . .
C1 C 0.8246(3) 0.0898(3) 0.9102(3) 0.106(4) Uani 1 2 d S . .
C2 C 0.8234(4) 0.0662(2) 0.9338(2) 0.101(4) Uani 1 2 d S . .
C3 C 0.8263(4) 0.0715(3) 0.9655(3) 0.178(5) Uani 1 1 d . . .
H3 H 0.8305 0.0949 0.9718 0.214 Uiso 1 1 calc R . .
C4 C 0.8242(5) 0.0478(3) 0.9937(3) 0.199(7) Uani 1 1 d . . .
H4 H 0.8241 0.0558 1.0170 0.238 Uiso 1 1 calc R . .
C5 C 0.8224(5) 0.0135(2) 0.9865(2) 0.132(5) Uani 1 2 d S . .
C6 C 0.8234(3) 0.2172(3) 0.9566(3) 0.156(4) Uani 1 1 d D . .
H6 H 0.8431 0.2277 0.9463 0.187 Uiso 1 1 calc R . .
C7 C 0.8103(4) 0.2326(3) 0.9896(3) 0.217(9) Uani 1 1 d D . .
H7 H 0.8204 0.2530 0.9991 0.260 Uiso 1 1 calc R . .
C8 C 0.7835(6) 0.2165(6) 1.0056(6) 0.30(2) Uani 1 2 d SD . .
H8 H 0.7761 0.2239 1.0279 0.360 Uiso 1 2 calc SR . .

loop_
_atom_site_aniso_label
_atom_site_aniso_U_11
_atom_site_aniso_U_22
_atom_site_aniso_U_33
_atom_site_aniso_U_23
_atom_site_aniso_U_13
_atom_site_aniso_U_12
Fe1 0.0772(7) 0.0772(7) 0.0719(9) 0.0152(5) -0.0152(5) 0.0189(8)
S1 0.0767(19) 0.1137(16) 0.1137(16) 0.002(2) -0.0165(13) 0.0165(13)
O1 0.063(3) 0.063(3) 0.063(3) 0.007(3) -0.007(3) 0.007(3)
O2 0.108(4) 0.106(4) 0.084(3) 0.045(3) -0.001(3) 0.012(4)
O3 0.069(3) 0.108(4) 0.094(3) 0.002(3) -0.022(2) 0.034(3)
O4 0.087(5) 0.153(5) 0.153(5) 0.011(6) -0.040(4) 0.040(4)
O5 0.116(7) 0.148(5) 0.148(5) 0.043(6) 0.032(4) -0.032(4)
N1 0.108(5) 0.108(5) 0.087(7) 0.012(4) -0.012(4) 0.003(6)
C1 0.122(11) 0.097(5) 0.097(5) 0.008(9) -0.016(6) 0.016(6)
C2 0.171(12) 0.066(4) 0.066(4) 0.038(7) -0.009(5) 0.009(5)
C3 0.277(17) 0.096(7) 0.161(10) 0.060(8) 0.028(11) 0.011(8)
C4 0.40(2) 0.111(8) 0.084(6) 0.035(6) 0.019(10) 0.040(12)
C5 0.223(16) 0.087(5) 0.087(5) 0.029(7) 0.006(6) -0.006(6)
C6 0.153(10) 0.159(10) 0.156(11) 0.001(9) -0.044(8) 0.017(8)
C7 0.37(2) 0.183(13) 0.100(8) -0.064(9) -0.062(11) 0.146(14)
C8 0.32(3) 0.32(3) 0.25(4) 0.03(2) -0.03(2) -0.16(3)

_geom_special_details            
;
All esds (except the esd in the dihedral angle between two l.s. planes)
are estimated using the full covariance matrix. The cell esds are taken
into account individually in the estimation of esds in distances, angles
and torsion angles; correlations between esds in cell parameters are only
used when they are defined by crystal symmetry. An approximate (isotropic)
treatment of cell esds is used for estimating esds involving l.s. planes.
;

loop_
_geom_bond_atom_site_label_1
_geom_bond_atom_site_label_2
_geom_bond_distance
_geom_bond_site_symmetry_2
_geom_bond_publ_flag
Fe1 O1 1.9231(15) . ?
Fe1 O3 1.992(4) . ?
Fe1 O3 1.992(4) 14_665 ?
Fe1 O2 2.042(5) 14_665 ?
Fe1 O2 2.043(5) . ?
Fe1 N1 2.193(11) . ?
S1 O5 1.470(8) . ?
S1 O4 1.464(7) . ?
S1 O3 1.476(5) . ?
S1 O3 1.476(5) 20_566 ?
O1 Fe1 1.9231(15) 6_566 ?
O1 Fe1 1.9232(15) 12_665 ?
O2 C1 1.290(8) . ?
N1 C6 1.317(12) 14_665 ?
N1 C6 1.317(12) . ?
C1 O2 1.290(8) 20_566 ?
C1 C2 1.289(16) . ?
C2 C3 1.241(13) 20_566 ?
C2 C3 1.241(13) . ?
C3 C4 1.421(13) . ?
C3 H3 0.9500 . ?
C4 C5 1.350(11) . ?
C4 H4 0.9500 . ?
C5 C4 1.350(11) 20_566 ?
C5 C5 1.47(2) 4_557 ?
C6 C7 1.490(13) . ?
C6 H6 0.9500 . ?
C7 C8 1.351(15) . ?
C7 H7 0.9500 . ?
C8 C7 1.351(15) 14_665 ?
C8 H8 0.9500 . ?

loop_
_geom_angle_atom_site_label_1
_geom_angle_atom_site_label_2
_geom_angle_atom_site_label_3
_geom_angle
_geom_angle_site_symmetry_1
_geom_angle_site_symmetry_3
_geom_angle_publ_flag
O1 Fe1 O3 95.8(2) . . ?
O1 Fe1 O3 95.8(2) . 14_665 ?
O3 Fe1 O3 87.7(3) . 14_665 ?
O1 Fe1 O2 96.3(3) . 14_665 ?
O3 Fe1 O2 167.9(2) . 14_665 ?
O3 Fe1 O2 91.5(2) 14_665 14_665 ?
O1 Fe1 O2 96.3(3) . . ?
O3 Fe1 O2 91.4(2) . . ?
O3 Fe1 O2 167.9(2) 14_665 . ?
O2 Fe1 O2 86.9(3) 14_665 . ?
O1 Fe1 N1 179.4(4) . . ?
O3 Fe1 N1 84.6(2) . . ?
O3 Fe1 N1 84.6(2) 14_665 . ?
O2 Fe1 N1 83.3(3) 14_665 . ?
O2 Fe1 N1 83.3(3) . . ?
O5 S1 O4 115.1(6) . . ?
O5 S1 O3 109.2(3) . . ?
O4 S1 O3 106.9(3) . . ?
O5 S1 O3 109.2(3) . 20_566 ?
O4 S1 O3 106.9(3) . 20_566 ?
O3 S1 O3 109.4(4) . 20_566 ?
Fe1 O1 Fe1 119.80(4) . 6_566 ?
Fe1 O1 Fe1 119.79(4) . 12_665 ?
Fe1 O1 Fe1 119.79(4) 6_566 12_665 ?
C1 O2 Fe1 137.9(7) . . ?
S1 O3 Fe1 134.1(3) . . ?
C6 N1 C6 113.9(15) 14_665 . ?
C6 N1 Fe1 123.0(7) 14_665 . ?
C6 N1 Fe1 123.0(7) . . ?
O2 C1 O2 116.4(12) . 20_566 ?
O2 C1 C2 121.7(6) . . ?
O2 C1 C2 121.7(6) 20_566 . ?
C3 C2 C3 108.2(13) 20_566 . ?
C3 C2 C1 125.1(7) 20_566 . ?
C3 C2 C1 125.1(7) . . ?
C2 C3 C4 129.9(13) . . ?
C2 C3 H3 115.1 . . ?
C4 C3 H3 115.1 . . ?
C5 C4 C3 118.4(11) . . ?
C5 C4 H4 120.8 . . ?
C3 C4 H4 120.8 . . ?
C4 C5 C4 113.2(12) 20_566 . ?
C4 C5 C5 123.2(6) 20_566 4_557 ?
C4 C5 C5 123.2(6) . 4_557 ?
N1 C6 C7 125.5(13) . . ?
N1 C6 H6 117.3 . . ?
C7 C6 H6 117.3 . . ?
C8 C7 C6 117.6(15) . . ?
C8 C7 H7 121.2 . . ?
C6 C7 H7 121.2 . . ?
C7 C8 C7 119.6(19) 14_665 . ?
C7 C8 H8 120.2 14_665 . ?
C7 C8 H8 120.2 . . ?

_diffrn_measured_fraction_theta_max 0.986
_diffrn_reflns_theta_full        23.29
_diffrn_measured_fraction_theta_full 0.986
_refine_diff_density_max         0.970
_refine_diff_density_min         -0.355
_refine_diff_density_rms         0.060
####################################################################### 
# 
# This file contains crystal structure data downloaded from the 
# Cambridge Structural Database (CSD) hosted by the Cambridge 
# Crystallographic Data Centre (CCDC).
# 
# Full information about CCDC data access policies and citation 
# guidelines are available at http://www.ccdc.cam.ac.uk/access/V1 
# 
# Audit and citation data items may have been added by the CCDC. 
# Please retain this information to preserve the provenance of 
# this file and to allow appropriate attribution of the data. 
# 
#######################################################################

data_sqzdIRMOP-51t
_audit_block_doi                 10.5517/cc95qbh
_database_code_depnum_ccdc_archive 'CCDC 273616'
loop_
_citation_id
_citation_doi
_citation_year
1 10.1021/ja042802q 2005
_audit_update_record             
;
2005-06-01 deposited with the CCDC.	2019-02-14 downloaded from the CCDC.
;

_audit_creation_method           SHELXL-97
_chemical_name_systematic        
;
?
;
_chemical_name_common            IRMOP-51t
_chemical_melting_point          ?
_chemical_formula_moiety         'C144 H100 Fe12 N12 O76 S12'
_chemical_formula_sum            'C144 H100 Fe12 N12 O76 S12'
_chemical_formula_weight         4269.28

loop_
_atom_type_symbol
_atom_type_description
_atom_type_scat_dispersion_real
_atom_type_scat_dispersion_imag
_atom_type_scat_source
C C 0.0033 0.0016 'International Tables Vol C Tables 4.2.6.8 and 6.1.1.4'
H H 0.0000 0.0000 'International Tables Vol C Tables 4.2.6.8 and 6.1.1.4'
N N 0.0061 0.0033 'International Tables Vol C Tables 4.2.6.8 and 6.1.1.4'
O O 0.0106 0.0060 'International Tables Vol C Tables 4.2.6.8 and 6.1.1.4'
S S 0.1246 0.1234 'International Tables Vol C Tables 4.2.6.8 and 6.1.1.4'
Fe Fe 0.3463 0.8444 'International Tables Vol C Tables 4.2.6.8 and 6.1.1.4'

_symmetry_cell_setting           Triclinic
_symmetry_space_group_name_H-M   P-1
_symmetry_space_group_name_Hall  -P1

loop_
_symmetry_equiv_pos_as_xyz
'x, y, z'
'-x, -y, -z'

_cell_length_a                   25.8626(9)
_cell_length_b                   26.8359(9)
_cell_length_c                   28.1926(10)
_cell_angle_alpha                75.1380(10)
_cell_angle_beta                 88.5680(10)
_cell_angle_gamma                63.7830(10)
_cell_volume                     16878.6(10)
_cell_formula_units_Z            2
_cell_measurement_temperature    258(2)
_cell_measurement_reflns_used    9758
_cell_measurement_theta_min      2.20
_cell_measurement_theta_max      27.50

_exptl_crystal_description       block
_exptl_crystal_colour            orange
_exptl_crystal_size_max          0.34
_exptl_crystal_size_mid          0.25
_exptl_crystal_size_min          0.08
_exptl_crystal_density_meas      ?
_exptl_crystal_density_diffrn    0.840
_exptl_crystal_density_method    'not measured'
_exptl_crystal_F_000             4320
_exptl_absorpt_coefficient_mu    0.624
_exptl_absorpt_correction_type   multi-scan
_exptl_absorpt_correction_T_min  0.816
_exptl_absorpt_correction_T_max  0.952
_exptl_absorpt_process_details   'Blessing, Acta Cryst. (1995) A51 33-58'
_exptl_special_details           
;
The only optimal crystals suitable for analysis were small and weakly
diffracting. Optimization of synthetic conditions could yield larger
crystals, however these specimens had only a very low degree of
crystallinity and presented little coherent scattering compared to
that of smaller crystals. Owing to these challenges observed strong
(high intensity) scattering was limited to 1.0 angstrom, with higher
resolution data present but weak (low intensity). Increasing the exposure
time of the crystal to X-rays did not ameliorate the quality of the data
as this woulThe only optimal crystals suitable for analysis were small
and weakly diffracting. Optimization of synthetic conditions could yield larger
crystals, however these specimens had only a very low degree of
crystallinity and presented little coherent scattering compared to
that of smaller crystals. Additionally, diffuse scattering from the highly
disordered solvent in the large void spaces within the crystal and from
the capillary used mount the crystal contributes to the background
noise and the 'washing out' of high angle data.

This model has been treated with the SQUEEZE subroutine of PLATON.
;

_diffrn_ambient_temperature      258(2)
_diffrn_radiation_wavelength     0.71073
_diffrn_radiation_type           MoK\a
_diffrn_radiation_source         'fine-focus sealed tube'
_diffrn_radiation_monochromator  graphite
_diffrn_measurement_device_type  'Bruker SMART APEX CCD'
_diffrn_measurement_method       'phi and omega scan'
_diffrn_detector_area_resol_mean ?
_diffrn_standards_number         ?
_diffrn_standards_interval_count ?
_diffrn_standards_interval_time  ?
_diffrn_standards_decay_%        ?
_diffrn_reflns_number            106447
_diffrn_reflns_av_R_equivalents  0.0669
_diffrn_reflns_av_sigmaI/netI    0.1342
_diffrn_reflns_limit_h_min       -28
_diffrn_reflns_limit_h_max       28
_diffrn_reflns_limit_k_min       -29
_diffrn_reflns_limit_k_max       29
_diffrn_reflns_limit_l_min       -31
_diffrn_reflns_limit_l_max       31
_diffrn_reflns_theta_min         1.52
_diffrn_reflns_theta_max         23.26
_reflns_number_total             48424
_reflns_number_gt                24169
_reflns_threshold_expression     >2sigma(I)

_computing_data_collection       'Bruker SMART'
_computing_cell_refinement       'Bruker SAINT'
_computing_data_reduction        'Bruker SAINT'
_computing_structure_solution    'SHELXS-97 (Sheldrick, 1990)'
_computing_structure_refinement  'SHELXL-97 (Sheldrick, 1997)'
_computing_molecular_graphics    'Bruker XP'
_computing_publication_material  'Bruker XCIF'

_refine_special_details          
;
Refinement of F^2^ against ALL reflections. The weighted R-factor wR and
goodness of fit S are based on F^2^, conventional R-factors R are based
on F, with F set to zero for negative F^2^. The threshold expression of
F^2^ > 2sigma(F^2^) is used only for calculating R-factors(gt) etc. and is
not relevant to the choice of reflections for refinement. R-factors based
on F^2^ are statistically about twice as large as those based on F, and R-
factors based on ALL data will be even larger.

Due to the large void space in the structure, solvent in the structure
is highly disordered. Complete assignment of scattering factors to all residual
electron density was therfore not possible.
Assigment of the largest peaks in the Fourier difference map to carbon
and nitrogen was made; these were refined anisotropically if possible.
All other electron density in the void space was treated as separated
oxygen atoms with large thermal parameters. Cations in the structure could
not be resolved as they are components of the highly disordered
portion of the structure.

Fourier difference maps revealed the presence of disordered solvent
molecules within the lattice which were ulitmately modeled through the
use of the PLATON software suite: Spek, A.L. (1990), Acta Crystallogr.
A46, C-34. A sum total of 1918 electrons were accounted for in void
space of 10014.9 A^3.
;

_refine_ls_structure_factor_coef Fsqd
_refine_ls_matrix_type           fullcycle
_refine_ls_weighting_scheme      calc
_refine_ls_weighting_details     
'calc w=1/[\s^2^(Fo^2^)+(0.0225P)^2^+0.0000P] where P=(Fo^2^+2Fc^2^)/3'
_atom_sites_solution_primary     direct
_atom_sites_solution_secondary   difmap
_atom_sites_solution_hydrogens   geom
_refine_ls_hydrogen_treatment    constr
_refine_ls_extinction_method     SHELXL
_refine_ls_extinction_coef       0.00032(4)
_refine_ls_extinction_expression Fc^*^=kFc[1+0.001xFc^2^\l^3^/sin(2\q)]^-1/4^
_refine_ls_number_reflns         48424
_refine_ls_number_parameters     2260
_refine_ls_number_restraints     0
_refine_ls_R_factor_all          0.0982
_refine_ls_R_factor_gt           0.0550
_refine_ls_wR_factor_ref         0.1149
_refine_ls_wR_factor_gt          0.1086
_refine_ls_goodness_of_fit_ref   0.940
_refine_ls_restrained_S_all      0.940
_refine_ls_shift/su_max          0.000
_refine_ls_shift/su_mean         0.000

loop_
_atom_site_label
_atom_site_type_symbol
_atom_site_fract_x
_atom_site_fract_y
_atom_site_fract_z
_atom_site_U_iso_or_equiv
_atom_site_adp_type
_atom_site_occupancy
_atom_site_symmetry_multiplicity
_atom_site_calc_flag
_atom_site_refinement_flags
_atom_site_disorder_assembly
_atom_site_disorder_group
Fe1 Fe 0.62611(3) 0.78336(3) 0.12392(2) 0.03205(16) Uani 1 1 d . . .
Fe2 Fe 0.54720(3) 0.79534(3) 0.21973(2) 0.03133(16) Uani 1 1 d . . .
Fe3 Fe 0.67576(3) 0.79414(3) 0.22742(2) 0.03445(17) Uani 1 1 d . . .
Fe4 Fe 0.76836(3) 0.30131(3) 0.69173(2) 0.0470(2) Uani 1 1 d . . .
Fe5 Fe 1.20690(3) 0.25919(3) 0.15770(2) 0.04287(19) Uani 1 1 d . . .
Fe6 Fe 0.65205(3) 0.21150(3) 0.13946(2) 0.04601(19) Uani 1 1 d . . .
Fe7 Fe 0.56992(3) 0.21725(3) 0.23237(2) 0.04308(19) Uani 1 1 d . . .
Fe8 Fe 1.25659(3) 0.15338(3) 0.26262(2) 0.0478(2) Uani 1 1 d . . .
Fe9 Fe 0.89081(3) 0.31478(3) 0.69059(2) 0.0466(2) Uani 1 1 d . . .
Fe10 Fe 1.24682(3) 0.28231(3) 0.25811(3) 0.0484(2) Uani 1 1 d . . .
Fe11 Fe 0.89500(3) 0.18893(3) 0.69203(2) 0.0478(2) Uani 1 1 d . . .
Fe12 Fe 0.69810(3) 0.10237(3) 0.24155(3) 0.04406(19) Uani 1 1 d . . .
O1 O 0.85152(12) 0.26785(12) 0.69269(9) 0.0412(8) Uani 1 1 d . . .
O2 O 0.61580(11) 0.79249(11) 0.19000(9) 0.0298(7) Uani 1 1 d . . .
O3 O 1.23781(11) 0.23167(12) 0.22567(10) 0.0437(8) Uani 1 1 d . . .
O4 O 0.63968(11) 0.17659(11) 0.20400(10) 0.0378(8) Uani 1 1 d . . .
S1 S 0.99724(7) 0.19528(7) 0.74886(6) 0.0696(4) Uani 1 1 d . . .
O5 O 0.96182(13) 0.16697(14) 0.73957(11) 0.0621(10) Uani 1 1 d . . .
O6 O 0.95668(13) 0.25741(14) 0.74119(11) 0.0576(9) Uani 1 1 d . . .
O7 O 1.02271(18) 0.17110(18) 0.79944(15) 0.1164(16) Uani 1 1 d . . .
O8 O 1.03971(15) 0.18944(16) 0.71346(17) 0.0989(14) Uani 1 1 d . . .
S2 S 0.78894(7) 0.37927(8) 0.75211(6) 0.0727(5) Uani 1 1 d . . .
O9 O 0.76232(14) 0.34348(15) 0.74140(11) 0.0662(10) Uani 1 1 d . . .
O10 O 0.85136(14) 0.35161(15) 0.74237(11) 0.0646(10) Uani 1 1 d . . .
O11 O 0.76072(18) 0.43685(18) 0.71973(17) 0.1102(15) Uani 1 1 d . . .
O12 O 0.78640(18) 0.3771(2) 0.80391(15) 0.1251(18) Uani 1 1 d . . .
S3 S 0.79705(7) 0.17203(7) 0.75584(6) 0.0723(5) Uani 1 1 d . . .
O13 O 0.85865(13) 0.15591(13) 0.74521(11) 0.0560(9) Uani 1 1 d . . .
O14 O 0.76571(14) 0.23677(15) 0.74323(11) 0.0662(10) Uani 1 1 d . . .
O15 O 0.77086(16) 0.15207(19) 0.72403(16) 0.1048(14) Uani 1 1 d . . .
O16 O 0.79508(18) 0.14978(18) 0.80692(15) 0.1229(17) Uani 1 1 d . . .
S4 S 0.56696(5) 0.88073(6) 0.27188(5) 0.0436(3) Uani 1 1 d . . .
O17 O 0.53148(11) 0.86494(11) 0.24338(10) 0.0385(8) Uani 1 1 d . . .
O18 O 0.62614(12) 0.85957(13) 0.25399(11) 0.0476(9) Uani 1 1 d . . .
O19 O 0.54199(14) 0.94312(14) 0.26104(13) 0.0716(11) Uani 1 1 d . . .
O20 O 0.57156(15) 0.85323(16) 0.32306(12) 0.0760(11) Uani 1 1 d . . .
S5 S 0.69862(6) 0.85509(6) 0.12099(5) 0.0447(3) Uani 1 1 d . . .
O21 O 0.65349(12) 0.84353(12) 0.10035(9) 0.0408(8) Uani 1 1 d . . .
O22 O 0.69049(12) 0.84975(12) 0.17467(10) 0.0422(8) Uani 1 1 d . . .
O23 O 0.75627(13) 0.81323(15) 0.11536(12) 0.0666(10) Uani 1 1 d . . .
O24 O 0.68698(14) 0.91416(14) 0.09724(11) 0.0633(10) Uani 1 1 d . . .
S6 S 0.48759(5) 0.85020(5) 0.10798(4) 0.0389(3) Uani 1 1 d . . .
O25 O 0.54689(11) 0.83979(12) 0.09273(9) 0.0383(8) Uani 1 1 d . . .
O26 O 0.49053(11) 0.84952(12) 0.16167(9) 0.0371(8) Uani 1 1 d . . .
O27 O 0.47499(13) 0.80427(14) 0.10396(11) 0.0564(9) Uani 1 1 d . . .
O28 O 0.44597(12) 0.90691(14) 0.08033(10) 0.0557(9) Uani 1 1 d . . .
S7 S 1.27097(7) 0.33874(8) 0.15020(6) 0.0693(4) Uani 1 1 d . . .
O29 O 1.25461(13) 0.29919(14) 0.13288(11) 0.0552(9) Uani 1 1 d . . .
O30 O 1.28380(13) 0.31537(14) 0.20498(13) 0.0594(10) Uani 1 1 d . . .
O31 O 1.22384(18) 0.39635(16) 0.13786(14) 0.0946(13) Uani 1 1 d . . .
O32 O 1.32251(18) 0.33627(19) 0.12877(14) 0.1016(14) Uani 1 1 d . . .
S8 S 1.35566(7) 0.16545(8) 0.31788(7) 0.0793(5) Uani 1 1 d . . .
O33 O 1.32371(14) 0.22822(15) 0.29452(13) 0.0713(11) Uani 1 1 d . . .
O34 O 1.33391(13) 0.13521(14) 0.29184(13) 0.0718(11) Uani 1 1 d . . .
O35 O 1.34494(18) 0.15451(18) 0.36693(15) 0.0984(14) Uani 1 1 d . . .
O36 O 1.41809(14) 0.14686(18) 0.31077(17) 0.1126(16) Uani 1 1 d . . .
S9 S 1.28337(6) 0.12839(6) 0.15648(6) 0.0596(4) Uani 1 1 d . . .
O39 O 1.29461(13) 0.11523(13) 0.21118(12) 0.0617(10) Uani 1 1 d . . .
O40 O 1.26225(13) 0.19190(14) 0.13616(11) 0.0535(9) Uani 1 1 d . . .
O41 O 1.33688(16) 0.09794(15) 0.13788(13) 0.0878(13) Uani 1 1 d . . .
O42 O 1.23825(17) 0.11353(17) 0.14565(14) 0.0954(13) Uani 1 1 d . . .
S10 S 0.72254(7) 0.08005(6) 0.13444(6) 0.0620(4) Uani 1 1 d . . .
O43 O 0.71190(13) 0.06427(12) 0.18741(11) 0.0517(9) Uani 1 1 d . . .
O44 O 0.68114(14) 0.14242(14) 0.11308(11) 0.0588(9) Uani 1 1 d . . .
O45 O 0.78077(15) 0.07240(16) 0.13137(14) 0.0861(12) Uani 1 1 d . . .
O46 O 0.70768(16) 0.04629(15) 0.10942(13) 0.0841(12) Uani 1 1 d . . .
S11 S 0.58785(6) 0.08829(6) 0.28649(6) 0.0542(4) Uani 1 1 d . . .
O47 O 0.64535(13) 0.06716(12) 0.26599(11) 0.0498(9) Uani 1 1 d . . .
O48 O 0.55302(13) 0.14994(14) 0.25782(12) 0.0628(10) Uani 1 1 d . . .
O49 O 0.59533(16) 0.08345(16) 0.33837(13) 0.0828(12) Uani 1 1 d . . .
O50 O 0.55880(14) 0.05602(14) 0.27611(13) 0.0723(11) Uani 1 1 d . . .
S12 S 0.52016(8) 0.23501(13) 0.12491(7) 0.1347(10) Uani 1 1 d . . .
O51 O 0.57456(14) 0.23492(15) 0.10661(11) 0.0628(10) Uani 1 1 d . . .
O52 O 0.51451(13) 0.24324(14) 0.17343(12) 0.0599(10) Uani 1 1 d . . .
O53 O 0.5286(3) 0.1679(3) 0.1340(3) 0.223(4) Uani 1 1 d . . .
O54 O 0.47379(17) 0.2674(2) 0.09147(14) 0.1196(18) Uani 1 1 d . . .
O55 O 0.75466(14) 0.26876(16) 0.63874(12) 0.0660(11) Uani 1 1 d . . .
O56 O 0.83983(15) 0.19340(15) 0.64023(11) 0.0610(10) Uani 1 1 d . . .
O57 O 0.61160(15) 0.20241(15) 0.29758(12) 0.0574(10) Uani 1 1 d . . .
O58 O 0.69736(14) 0.12519(14) 0.30466(12) 0.0551(9) Uani 1 1 d . . .
C1 C 0.6603(3) 0.1653(2) 0.32004(19) 0.0529(14) Uani 1 1 d . . .
C2 C 0.6738(2) 0.1692(3) 0.3698(2) 0.0736(18) Uani 1 1 d . . .
C3 C 0.7341(5) 0.1344(5) 0.3893(4) 0.060(3) Uiso 0.50 1 d P . .
C3' C 0.7163(5) 0.1210(5) 0.4054(4) 0.058(3) Uiso 0.50 1 d P . .
C4 C 0.7485(5) 0.1409(5) 0.4361(4) 0.063(4) Uiso 0.50 1 d P . .
C4' C 0.7294(6) 0.1264(6) 0.4516(5) 0.098(5) Uiso 0.50 1 d P . .
C5 C 0.7115(6) 0.1892(6) 0.4509(5) 0.068(4) Uiso 0.50 1 d P . .
C5' C 0.6981(5) 0.1745(5) 0.4666(4) 0.049(3) Uiso 0.50 1 d P . .
C6 C 0.6557(6) 0.2296(6) 0.4258(5) 0.060(4) Uiso 0.50 1 d P . .
C6' C 0.6486(6) 0.2109(7) 0.4391(6) 0.082(5) Uiso 0.50 1 d P . .
C7 C 0.6367(3) 0.2151(3) 0.3857(2) 0.101(2) Uani 1 1 d . . .
C8 C 0.7880(3) 0.2254(3) 0.62487(19) 0.0627(16) Uani 1 1 d . . .
C9 C 0.7634(2) 0.2111(3) 0.5851(2) 0.083(2) Uani 1 1 d . . .
C10 C 0.7158(5) 0.2559(6) 0.5541(5) 0.083(4) Uiso 0.50 1 d P . .
C10' C 0.7048(5) 0.2308(5) 0.5748(4) 0.059(3) Uiso 0.50 1 d P . .
C11 C 0.6954(6) 0.2458(6) 0.5089(5) 0.093(4) Uiso 0.50 1 d P . .
C11' C 0.6831(4) 0.2199(5) 0.5348(4) 0.058(3) Uiso 0.50 1 d P . .
C12 C 0.7271(6) 0.1967(6) 0.4985(4) 0.059(4) Uiso 0.50 1 d P . .
C12' C 0.7199(6) 0.1791(6) 0.5148(5) 0.071(4) Uiso 0.50 1 d P . .
C13 C 0.7863(7) 0.1611(7) 0.5169(6) 0.117(5) Uiso 0.50 1 d P . .
C13' C 0.7677(5) 0.1433(5) 0.5381(4) 0.063(3) Uiso 0.50 1 d P . .
C14 C 0.8014(6) 0.1714(6) 0.5644(5) 0.081(4) Uiso 0.50 1 d P . .
C14' C 0.7831(6) 0.1534(6) 0.5790(5) 0.097(5) Uiso 0.50 1 d P . .
O59 O 0.75248(14) 0.37202(14) 0.63567(11) 0.0584(10) Uani 1 1 d . . .
O60 O 0.83463(14) 0.38226(14) 0.63680(11) 0.0558(9) Uani 1 1 d . . .
O61 O 0.58643(13) 0.74171(12) 0.28689(10) 0.0431(8) Uani 1 1 d . . .
O62 O 0.67487(13) 0.73802(13) 0.28964(10) 0.0466(9) Uani 1 1 d . . .
C15 C 0.6372(2) 0.7231(2) 0.30749(17) 0.0425(13) Uani 1 1 d . . .
C16 C 0.6530(2) 0.6790(2) 0.35662(17) 0.0502(14) Uani 1 1 d . . .
C17 C 0.7061(3) 0.6587(3) 0.3816(2) 0.125(3) Uani 1 1 d . . .
H17A H 0.7308 0.6743 0.3682 0.150 Uiso 1 1 calc R . .
C18 C 0.7244(3) 0.6168(3) 0.4250(2) 0.121(3) Uani 1 1 d . . .
H18A H 0.7615 0.6033 0.4400 0.145 Uiso 1 1 calc R . .
C19 C 0.6896(2) 0.5945(2) 0.44645(18) 0.0634(16) Uani 1 1 d . . .
C20 C 0.6365(3) 0.6150(3) 0.4213(2) 0.102(2) Uani 1 1 d . . .
H20A H 0.6115 0.6000 0.4349 0.123 Uiso 1 1 calc R . .
C21 C 0.6187(2) 0.6562(3) 0.3774(2) 0.080(2) Uani 1 1 d . . .
H21A H 0.5822 0.6685 0.3617 0.095 Uiso 1 1 calc R . .
C22 C 0.7835(3) 0.3972(2) 0.62034(18) 0.0530(15) Uani 1 1 d . . .
C23 C 0.7571(2) 0.4500(2) 0.57768(17) 0.0539(15) Uani 1 1 d . . .
C24 C 0.7070(3) 0.4649(3) 0.5520(2) 0.107(2) Uani 1 1 d . . .
H24A H 0.6867 0.4436 0.5630 0.128 Uiso 1 1 calc R . .
C25 C 0.6841(3) 0.5114(3) 0.5090(2) 0.113(3) Uani 1 1 d . . .
H25A H 0.6507 0.5183 0.4911 0.136 Uiso 1 1 calc R . .
C26 C 0.7099(2) 0.5464(3) 0.49316(19) 0.0674(16) Uani 1 1 d . . .
C27 C 0.7609(2) 0.5326(3) 0.5223(2) 0.085(2) Uani 1 1 d . . .
H27A H 0.7794 0.5559 0.5135 0.102 Uiso 1 1 calc R . .
C28 C 0.7839(3) 0.4852(3) 0.56357(19) 0.0769(18) Uani 1 1 d . . .
H28A H 0.8175 0.4772 0.5818 0.092 Uiso 1 1 calc R . .
O63 O 0.93925(14) 0.28952(16) 0.63553(11) 0.0576(10) Uani 1 1 d . . .
O64 O 0.94012(14) 0.20624(16) 0.63548(12) 0.0640(10) Uani 1 1 d . . .
O65 O 1.21955(14) 0.17272(15) 0.32371(12) 0.0611(10) Uani 1 1 d . . .
O66 O 1.20795(14) 0.26130(17) 0.31831(12) 0.0613(10) Uani 1 1 d . . .
C29 C 1.2026(2) 0.2173(3) 0.3390(2) 0.0603(16) Uani 1 1 d . . .
C30 C 1.1734(2) 0.2171(3) 0.3845(2) 0.0626(16) Uani 1 1 d . . .
C31 C 1.1657(3) 0.1720(3) 0.4095(3) 0.125(3) Uani 1 1 d . . .
H31A H 1.1804 0.1391 0.3982 0.150 Uiso 1 1 calc R . .
C32 C 1.1365(4) 0.1718(3) 0.4519(3) 0.148(4) Uani 1 1 d . . .
H32A H 1.1333 0.1389 0.4688 0.177 Uiso 1 1 calc R . .
C33 C 1.1125(3) 0.2205(3) 0.4687(2) 0.0756(18) Uani 1 1 d . . .
C34 C 1.1214(3) 0.2652(3) 0.4435(3) 0.115(3) Uani 1 1 d . . .
H34A H 1.1069 0.2984 0.4542 0.138 Uiso 1 1 calc R . .
C35 C 1.1511(3) 0.2639(3) 0.4023(2) 0.109(3) Uani 1 1 d . . .
H35A H 1.1560 0.2961 0.3863 0.131 Uiso 1 1 calc R . .
C36 C 0.9567(2) 0.2452(2) 0.62153(16) 0.0513(14) Uani 1 1 d . . .
C37 C 0.9999(2) 0.2355(3) 0.58448(19) 0.0622(16) Uani 1 1 d . . .
C38 C 1.0166(3) 0.1908(3) 0.5632(2) 0.094(2) Uani 1 1 d . . .
H38A H 1.0033 0.1632 0.5739 0.113 Uiso 1 1 calc R . .
C39 C 1.0526(3) 0.1861(3) 0.5265(2) 0.110(3) Uani 1 1 d . . .
H39A H 1.0617 0.1563 0.5119 0.132 Uiso 1 1 calc R . .
C40 C 1.0757(3) 0.2235(3) 0.5107(2) 0.0763(18) Uani 1 1 d . . .
C41 C 1.0625(3) 0.2657(3) 0.5340(2) 0.112(3) Uani 1 1 d . . .
H41A H 1.0788 0.2911 0.5254 0.135 Uiso 1 1 calc R . .
C42 C 1.0249(3) 0.2711(3) 0.5703(2) 0.101(2) Uani 1 1 d . . .
H42A H 1.0166 0.3003 0.5856 0.121 Uiso 1 1 calc R . .
O67 O 0.73317(15) 0.19491(16) 0.15881(13) 0.0626(10) Uani 1 1 d . . .
O68 O 0.76516(13) 0.12090(15) 0.22685(13) 0.0583(10) Uani 1 1 d . . .
O69 O 1.17980(13) 0.15853(14) 0.24191(12) 0.0559(9) Uani 1 1 d . . .
O70 O 1.14870(13) 0.22727(15) 0.17076(12) 0.0559(10) Uani 1 1 d . . .
C43 C 0.7714(2) 0.1572(3) 0.1929(2) 0.0564(15) Uani 1 1 d . . .
C44 C 0.8287(2) 0.1594(3) 0.1930(2) 0.0712(17) Uani 1 1 d . . .
C45 C 0.8727(3) 0.1211(3) 0.2263(3) 0.136(3) Uani 1 1 d . . .
H45A H 0.8693 0.0915 0.2497 0.163 Uiso 1 1 calc R . .
C46 C 0.9246(3) 0.1261(4) 0.2258(3) 0.156(4) Uani 1 1 d . . .
H46A H 0.9544 0.1001 0.2504 0.187 Uiso 1 1 calc R . .
C47 C 0.9338(3) 0.1655(3) 0.1922(2) 0.086(2) Uani 1 1 d . . .
C48 C 0.8887(3) 0.2040(4) 0.1599(3) 0.146(4) Uani 1 1 d . . .
H48A H 0.8916 0.2349 0.1379 0.175 Uiso 1 1 calc R . .
C49 C 0.8370(3) 0.1996(3) 0.1578(3) 0.142(3) Uani 1 1 d . . .
H49A H 0.8082 0.2244 0.1321 0.171 Uiso 1 1 calc R . .
C50 C 1.1443(2) 0.1897(3) 0.2044(2) 0.0526(15) Uani 1 1 d . . .
C51 C 1.0913(2) 0.1812(3) 0.2010(2) 0.0627(16) Uani 1 1 d . . .
C52 C 1.0822(3) 0.1433(3) 0.2363(3) 0.110(3) Uani 1 1 d . . .
H52A H 1.1094 0.1212 0.2636 0.132 Uiso 1 1 calc R . .
C53 C 1.0319(3) 0.1365(3) 0.2326(3) 0.127(3) Uani 1 1 d . . .
H53A H 1.0277 0.1082 0.2571 0.152 Uiso 1 1 calc R . .
C54 C 0.9893(3) 0.1691(3) 0.1954(3) 0.090(2) Uani 1 1 d . . .
C55 C 1.0005(3) 0.2070(3) 0.1600(3) 0.147(4) Uani 1 1 d . . .
H55A H 0.9732 0.2299 0.1328 0.177 Uiso 1 1 calc R . .
C56 C 1.0513(3) 0.2134(3) 0.1624(3) 0.127(3) Uani 1 1 d . . .
H56A H 1.0570 0.2400 0.1372 0.152 Uiso 1 1 calc R . .
O71 O 0.74041(12) 0.72659(12) 0.21119(11) 0.0468(9) Uani 1 1 d . . .
O72 O 0.70856(12) 0.71974(12) 0.14079(11) 0.0430(8) Uani 1 1 d . . .
O73 O 1.16767(13) 0.34834(14) 0.23110(12) 0.0578(10) Uani 1 1 d . . .
O74 O 1.14058(13) 0.33382(14) 0.16313(12) 0.0577(10) Uani 1 1 d . . .
C57 C 0.74618(19) 0.70549(19) 0.1749(2) 0.0407(12) Uani 1 1 d . . .
C58 C 0.8054(2) 0.6562(2) 0.17465(18) 0.0477(13) Uani 1 1 d . . .
C59 C 0.8162(2) 0.6285(2) 0.13928(19) 0.0718(18) Uani 1 1 d . . .
H59A H 0.7875 0.6405 0.1139 0.086 Uiso 1 1 calc R . .
C60 C 0.8702(2) 0.5819(2) 0.1404(2) 0.084(2) Uani 1 1 d . . .
H60A H 0.8765 0.5623 0.1164 0.101 Uiso 1 1 calc R . .
C61 C 0.9141(2) 0.5646(2) 0.1766(2) 0.0691(17) Uani 1 1 d . . .
C62 C 0.9028(2) 0.5944(3) 0.2115(2) 0.125(3) Uani 1 1 d . . .
H62A H 0.9317 0.5833 0.2364 0.151 Uiso 1 1 calc R . .
C63 C 0.8496(2) 0.6403(3) 0.2105(2) 0.110(3) Uani 1 1 d . . .
H63A H 0.8435 0.6607 0.2339 0.132 Uiso 1 1 calc R . .
C64 C 1.13338(19) 0.3618(2) 0.19407(17) 0.0500(13) Uani 1 1 d . . .
C65 C 1.0778(2) 0.4152(2) 0.1880(2) 0.0588(16) Uani 1 1 d . . .
C66 C 1.0372(3) 0.4329(3) 0.1522(2) 0.108(3) Uani 1 1 d . . .
H66A H 1.0446 0.4123 0.1288 0.130 Uiso 1 1 calc R . .
C67 C 0.9833(3) 0.4810(3) 0.1471(3) 0.145(4) Uani 1 1 d . . .
H67A H 0.9553 0.4905 0.1219 0.174 Uiso 1 1 calc R . .
C68 C 0.9721(2) 0.5135(2) 0.1788(2) 0.0754(18) Uani 1 1 d . . .
C69 C 1.0137(3) 0.4962(3) 0.2156(3) 0.145(4) Uani 1 1 d . . .
H69A H 1.0070 0.5174 0.2385 0.175 Uiso 1 1 calc R . .
C70 C 1.0668(3) 0.4472(3) 0.2202(3) 0.134(3) Uani 1 1 d . . .
H70A H 1.0949 0.4367 0.2457 0.161 Uiso 1 1 calc R . .
O75 O 0.60365(13) 0.71788(12) 0.13865(11) 0.0418(8) Uani 1 1 d . . .
O76 O 0.55122(12) 0.72522(12) 0.20346(11) 0.0408(8) Uani 1 1 d . . .
O77 O 0.62692(16) 0.28997(14) 0.15007(12) 0.0628(10) Uani 1 1 d . . .
O78 O 0.57239(15) 0.29372(14) 0.21341(13) 0.0614(10) Uani 1 1 d . . .
C71 C 0.5968(2) 0.3144(2) 0.1810(2) 0.0530(15) Uani 1 1 d . . .
C72 C 0.5911(2) 0.3728(2) 0.1789(2) 0.0574(15) Uani 1 1 d . . .
C73 C 0.5532(3) 0.4070(3) 0.2046(2) 0.107(3) Uani 1 1 d . . .
H73A H 0.5298 0.3937 0.2239 0.129 Uiso 1 1 calc R . .
C74 C 0.5480(3) 0.4606(3) 0.2032(3) 0.133(3) Uani 1 1 d . . .
H74A H 0.5209 0.4831 0.2208 0.159 Uiso 1 1 calc R . .
C75 C 0.5828(3) 0.4811(2) 0.1758(2) 0.0751(18) Uani 1 1 d . . .
C76 C 0.6176(3) 0.4485(3) 0.1485(3) 0.123(3) Uani 1 1 d . . .
H76A H 0.6399 0.4622 0.1280 0.148 Uiso 1 1 calc R . .
C77 C 0.6217(3) 0.3947(3) 0.1499(3) 0.113(3) Uani 1 1 d . . .
H77A H 0.6464 0.3736 0.1302 0.136 Uiso 1 1 calc R . .
C78 C 0.5760(2) 0.7011(2) 0.17062(19) 0.0389(12) Uani 1 1 d . . .
C79 C 0.5757(2) 0.6459(2) 0.17178(19) 0.0524(14) Uani 1 1 d . . .
C80 C 0.5559(2) 0.6177(2) 0.2094(2) 0.0695(17) Uani 1 1 d . . .
H80A H 0.5407 0.6347 0.2346 0.083 Uiso 1 1 calc R . .
C81 C 0.5575(3) 0.5648(2) 0.2116(2) 0.084(2) Uani 1 1 d . . .
H81A H 0.5444 0.5466 0.2383 0.100 Uiso 1 1 calc R . .
C82 C 0.5783(3) 0.5396(2) 0.1745(2) 0.0746(18) Uani 1 1 d . . .
C83 C 0.5962(3) 0.5685(3) 0.1349(2) 0.116(3) Uani 1 1 d . . .
H83A H 0.6102 0.5522 0.1091 0.139 Uiso 1 1 calc R . .
C84 C 0.5937(3) 0.6219(2) 0.1335(2) 0.095(2) Uani 1 1 d . . .
H84A H 0.6043 0.6416 0.1059 0.115 Uiso 1 1 calc R . .
N1 N 0.9419(2) 0.1004(2) 0.68431(16) 0.0698(14) Uani 1 1 d . . .
C85 C 0.9151(3) 0.0683(3) 0.6830(2) 0.085(2) Uani 1 1 d . . .
H85A H 0.8765 0.0822 0.6893 0.102 Uiso 1 1 calc R . .
C86 C 0.9418(4) 0.0148(4) 0.6727(3) 0.127(3) Uani 1 1 d . . .
H86A H 0.9214 -0.0061 0.6716 0.152 Uiso 1 1 calc R . .
C87 C 0.9996(5) -0.0061(4) 0.6642(3) 0.141(4) Uani 1 1 d . . .
H87A H 1.0188 -0.0412 0.6566 0.170 Uiso 1 1 calc R . .
C88 C 1.0268(4) 0.0247(4) 0.6670(3) 0.133(3) Uani 1 1 d . . .
H88A H 1.0659 0.0106 0.6623 0.159 Uiso 1 1 calc R . .
C89 C 0.9975(3) 0.0782(3) 0.6769(2) 0.095(2) Uani 1 1 d . . .
H89A H 1.0178 0.0991 0.6784 0.113 Uiso 1 1 calc R . .
N2 N 0.9346(2) 0.3705(2) 0.68353(15) 0.0599(12) Uani 1 1 d . . .
C90 C 0.9925(3) 0.3478(3) 0.6801(2) 0.0806(19) Uani 1 1 d . . .
H90A H 1.0136 0.3087 0.6824 0.097 Uiso 1 1 calc R . .
C91 C 1.0207(3) 0.3833(4) 0.6728(2) 0.109(2) Uani 1 1 d . . .
H91A H 1.0602 0.3681 0.6696 0.131 Uiso 1 1 calc R . .
C92 C 0.9888(4) 0.4413(4) 0.6706(3) 0.115(3) Uani 1 1 d . . .
H92A H 1.0070 0.4651 0.6661 0.137 Uiso 1 1 calc R . .
C93 C 0.9297(4) 0.4640(3) 0.6751(3) 0.105(2) Uani 1 1 d . . .
H93A H 0.9077 0.5027 0.6737 0.126 Uiso 1 1 calc R . .
C94 C 0.9044(3) 0.4267(3) 0.6818(2) 0.0766(18) Uani 1 1 d . . .
H94A H 0.8649 0.4412 0.6852 0.092 Uiso 1 1 calc R . .
N3 N 0.67294(19) 0.3412(2) 0.68835(17) 0.0637(13) Uani 1 1 d . . .
C95 C 0.6434(3) 0.3951(4) 0.6895(2) 0.103(2) Uani 1 1 d . . .
H95A H 0.6624 0.4172 0.6907 0.124 Uiso 1 1 calc R . .
C96 C 0.5810(4) 0.4199(4) 0.6889(3) 0.143(3) Uani 1 1 d . . .
H96A H 0.5591 0.4585 0.6883 0.171 Uiso 1 1 calc R . .
C97 C 0.5548(4) 0.3847(5) 0.6892(4) 0.147(4) Uani 1 1 d . . .
H97A H 0.5148 0.3994 0.6891 0.176 Uiso 1 1 calc R . .
C98 C 0.5845(3) 0.3337(3) 0.6895(3) 0.156(4) Uani 1 1 d . . .
H98A H 0.5674 0.3096 0.6894 0.187 Uiso 1 1 calc R . .
C99 C 0.6451(3) 0.3130(3) 0.6900(2) 0.102(2) Uani 1 1 d . . .
H99A H 0.6666 0.2740 0.6917 0.122 Uiso 1 1 calc R . .
N4 N 1.2735(2) 0.0647(2) 0.3055(2) 0.0759(15) Uani 1 1 d . . .
C100 C 1.2995(4) 0.0420(4) 0.3512(3) 0.135(3) Uani 1 1 d . . .
H10A H 1.3133 0.0608 0.3670 0.163 Uiso 1 1 calc R . .
C101 C 1.3044(6) -0.0178(5) 0.3752(4) 0.234(7) Uani 1 1 d . . .
H10B H 1.3199 -0.0345 0.4080 0.280 Uiso 1 1 calc R . .
C102 C 1.2888(9) -0.0481(7) 0.3543(7) 0.267(10) Uani 1 1 d . . .
H10C H 1.2928 -0.0843 0.3716 0.320 Uiso 1 1 calc R . .
C103 C 1.2660(5) -0.0236(5) 0.3049(4) 0.174(5) Uani 1 1 d . . .
H10D H 1.2563 -0.0438 0.2874 0.208 Uiso 1 1 calc R . .
C104 C 1.2585(3) 0.0322(3) 0.2827(3) 0.114(3) Uani 1 1 d . . .
H10E H 1.2422 0.0490 0.2501 0.137 Uiso 1 1 calc R . .
N5 N 1.24830(18) 0.3452(2) 0.2953(2) 0.0625(13) Uani 1 1 d . . .
C105 C 1.2373(2) 0.3986(3) 0.2683(2) 0.0773(19) Uani 1 1 d . . .
H10F H 1.2316 0.4072 0.2342 0.093 Uiso 1 1 calc R . .
C106 C 1.2340(3) 0.4413(3) 0.2885(3) 0.105(3) Uani 1 1 d . . .
H10G H 1.2235 0.4786 0.2687 0.125 Uiso 1 1 calc R . .
C107 C 1.2461(4) 0.4282(4) 0.3366(4) 0.119(3) Uani 1 1 d . . .
H10H H 1.2468 0.4557 0.3506 0.143 Uiso 1 1 calc R . .
C108 C 1.2576(3) 0.3745(4) 0.3661(3) 0.111(3) Uani 1 1 d . . .
H10I H 1.2647 0.3655 0.4001 0.133 Uiso 1 1 calc R . .
C109 C 1.2583(2) 0.3331(3) 0.3433(2) 0.085(2) Uani 1 1 d . . .
H10J H 1.2661 0.2964 0.3627 0.102 Uiso 1 1 calc R . .
N6 N 1.16720(17) 0.2900(2) 0.08138(15) 0.0540(12) Uani 1 1 d . . .
C110 C 1.1566(2) 0.2565(3) 0.0608(2) 0.0679(17) Uani 1 1 d . . .
H11A H 1.1653 0.2194 0.0799 0.082 Uiso 1 1 calc R . .
C111 C 1.1334(3) 0.2724(4) 0.0130(3) 0.112(3) Uani 1 1 d . . .
H11B H 1.1252 0.2478 0.0001 0.134 Uiso 1 1 calc R . .
C112 C 1.1229(3) 0.3274(4) -0.0153(3) 0.124(3) Uani 1 1 d . . .
H11C H 1.1081 0.3397 -0.0482 0.149 Uiso 1 1 calc R . .
C113 C 1.1333(3) 0.3621(3) 0.0037(3) 0.119(3) Uani 1 1 d . . .
H11D H 1.1257 0.3990 -0.0153 0.143 Uiso 1 1 calc R . .
C114 C 1.1565(2) 0.3424(3) 0.0539(2) 0.0785(18) Uani 1 1 d . . .
H11E H 1.1644 0.3666 0.0677 0.094 Uiso 1 1 calc R . .
N7 N 0.76696(19) 0.01848(19) 0.2839(2) 0.0614(13) Uani 1 1 d . . .
C115 C 0.8135(3) -0.0102(3) 0.2633(2) 0.0794(19) Uani 1 1 d . . .
H11F H 0.8177 0.0064 0.2311 0.095 Uiso 1 1 calc R . .
C116 C 0.8553(3) -0.0634(4) 0.2880(4) 0.120(3) Uani 1 1 d . . .
H11G H 0.8870 -0.0825 0.2720 0.144 Uiso 1 1 calc R . .
C117 C 0.8520(4) -0.0885(4) 0.3340(4) 0.124(4) Uani 1 1 d . . .
H11H H 0.8811 -0.1249 0.3501 0.148 Uiso 1 1 calc R . .
C118 C 0.8055(4) -0.0606(3) 0.3579(3) 0.114(3) Uani 1 1 d . . .
H11I H 0.8022 -0.0770 0.3904 0.137 Uiso 1 1 calc R . .
C119 C 0.7625(3) -0.0053(3) 0.3303(3) 0.085(2) Uani 1 1 d . . .
H11J H 0.7304 0.0147 0.3453 0.102 Uiso 1 1 calc R . .
N8 N 0.49317(14) 0.26283(17) 0.26423(14) 0.0559(11) Uiso 1 1 d G . .
C120 C 0.48317(19) 0.23493(17) 0.31005(15) 0.136(3) Uiso 1 1 d G . .
H120 H 0.5103 0.1973 0.3254 0.163 Uiso 1 1 calc R . .
C121 C 0.4351(3) 0.2606(3) 0.33346(16) 0.171(3) Uiso 1 1 d G . .
H121 H 0.4284 0.2454 0.3652 0.205 Uiso 1 1 calc R . .
C122 C 0.38997(17) 0.3250(3) 0.2939(3) 0.189(4) Uiso 1 1 d G . .
H122 H 0.3553 0.3484 0.3041 0.227 Uiso 1 1 calc R . .
C123 C 0.4012(2) 0.3407(2) 0.2545(2) 0.70(2) Uiso 1 1 d G . .
H123 H 0.3717 0.3733 0.2335 0.838 Uiso 1 1 calc R . .
C124 C 0.4586(2) 0.3138(2) 0.23377(15) 0.445(11) Uiso 1 1 d G . .
H124 H 0.4683 0.3306 0.2040 0.534 Uiso 1 1 calc R . .
N9 N 0.6674(2) 0.2536(2) 0.06694(17) 0.0677(14) Uani 1 1 d . . .
C125 C 0.6281(4) 0.3062(4) 0.0395(3) 0.106(2) Uani 1 1 d . . .
H12A H 0.5940 0.3250 0.0530 0.127 Uiso 1 1 calc R . .
C126 C 0.6347(5) 0.3334(5) -0.0057(4) 0.171(5) Uani 1 1 d . . .
H12B H 0.6065 0.3701 -0.0223 0.205 Uiso 1 1 calc R . .
C127 C 0.6821(6) 0.3067(6) -0.0257(4) 0.190(6) Uani 1 1 d . . .
H12C H 0.6866 0.3246 -0.0573 0.228 Uiso 1 1 calc R . .
C128 C 0.7253(5) 0.2529(6) -0.0015(4) 0.169(4) Uani 1 1 d . . .
H12D H 0.7587 0.2341 -0.0158 0.203 Uiso 1 1 calc R . .
C129 C 0.7154(4) 0.2274(3) 0.0477(3) 0.109(2) Uani 1 1 d . . .
H12E H 0.7438 0.1917 0.0660 0.130 Uiso 1 1 calc R . .
N10 N 0.64208(16) 0.76790(15) 0.05095(13) 0.0377(10) Uani 1 1 d . . .
C130 C 0.6880(2) 0.7687(2) 0.02918(18) 0.0509(14) Uani 1 1 d . . .
H13A H 0.7144 0.7744 0.0462 0.061 Uiso 1 1 calc R . .
C131 C 0.6983(2) 0.7616(3) -0.0168(2) 0.0762(19) Uani 1 1 d . . .
H13B H 0.7316 0.7615 -0.0301 0.091 Uiso 1 1 calc R . .
C132 C 0.6600(3) 0.7547(3) -0.0434(2) 0.084(2) Uani 1 1 d . . .
H13C H 0.6661 0.7507 -0.0751 0.101 Uiso 1 1 calc R . .
C133 C 0.6118(3) 0.7537(2) -0.0218(2) 0.0698(17) Uani 1 1 d . . .
H13D H 0.5850 0.7482 -0.0384 0.084 Uiso 1 1 calc R . .
C134 C 0.6040(2) 0.76125(19) 0.02549(17) 0.0500(14) Uani 1 1 d . . .
H13E H 0.5711 0.7616 0.0397 0.060 Uiso 1 1 calc R . .
N11 N 0.74853(18) 0.79117(16) 0.27087(16) 0.0508(11) Uani 1 1 d . . .
C135 C 0.7455(3) 0.7933(3) 0.3166(2) 0.084(2) Uani 1 1 d . . .
H13F H 0.7113 0.7984 0.3309 0.101 Uiso 1 1 calc R . .
C136 C 0.7930(3) 0.7882(3) 0.3452(3) 0.119(3) Uani 1 1 d . . .
H13G H 0.7914 0.7875 0.3783 0.143 Uiso 1 1 calc R . .
C137 C 0.8423(3) 0.7842(3) 0.3214(3) 0.116(3) Uani 1 1 d . . .
H13H H 0.8740 0.7815 0.3387 0.139 Uiso 1 1 calc R . .
C138 C 0.8442(3) 0.7841(3) 0.2739(3) 0.088(2) Uani 1 1 d . . .
H13I H 0.8764 0.7824 0.2577 0.106 Uiso 1 1 calc R . .
C139 C 0.7976(2) 0.7868(2) 0.2500(2) 0.0667(16) Uani 1 1 d . . .
H13J H 0.7996 0.7854 0.2174 0.080 Uiso 1 1 calc R . .
N12 N 0.46774(16) 0.80013(15) 0.25398(14) 0.0398(10) Uani 1 1 d . . .
C140 C 0.4237(2) 0.8005(2) 0.22886(19) 0.0529(14) Uani 1 1 d . . .
H14A H 0.4294 0.7928 0.1983 0.063 Uiso 1 1 calc R . .
C141 C 0.3713(2) 0.8117(2) 0.2463(2) 0.0744(18) Uani 1 1 d . . .
H14B H 0.3417 0.8129 0.2272 0.089 Uiso 1 1 calc R . .
C142 C 0.3620(3) 0.8211(3) 0.2918(3) 0.085(2) Uani 1 1 d . . .
H14C H 0.3261 0.8293 0.3039 0.102 Uiso 1 1 calc R . .
C143 C 0.4067(3) 0.8181(3) 0.3195(2) 0.0815(19) Uani 1 1 d . . .
H14D H 0.4026 0.8222 0.3513 0.098 Uiso 1 1 calc R . .
C144 C 0.4588(2) 0.8088(2) 0.29842(19) 0.0577(15) Uani 1 1 d . . .
H14E H 0.4885 0.8087 0.3164 0.069 Uiso 1 1 calc R . .

loop_
_atom_site_aniso_label
_atom_site_aniso_U_11
_atom_site_aniso_U_22
_atom_site_aniso_U_33
_atom_site_aniso_U_23
_atom_site_aniso_U_13
_atom_site_aniso_U_12
Fe1 0.0304(4) 0.0273(4) 0.0363(4) -0.0104(3) 0.0030(3) -0.0102(3)
Fe2 0.0296(4) 0.0259(4) 0.0356(4) -0.0073(3) 0.0018(3) -0.0105(3)
Fe3 0.0302(4) 0.0333(4) 0.0396(4) -0.0125(3) 0.0007(3) -0.0126(3)
Fe4 0.0416(4) 0.0499(5) 0.0369(4) -0.0074(4) 0.0047(4) -0.0122(4)
Fe5 0.0303(4) 0.0448(5) 0.0524(5) -0.0194(4) 0.0123(3) -0.0130(4)
Fe6 0.0476(5) 0.0453(5) 0.0550(5) -0.0200(4) 0.0033(4) -0.0260(4)
Fe7 0.0396(4) 0.0345(4) 0.0593(5) -0.0185(4) 0.0021(4) -0.0172(4)
Fe8 0.0308(4) 0.0453(5) 0.0571(5) -0.0157(4) 0.0077(4) -0.0074(4)
Fe9 0.0418(4) 0.0502(5) 0.0374(4) -0.0099(4) -0.0015(4) -0.0124(4)
Fe10 0.0311(4) 0.0527(5) 0.0598(5) -0.0261(4) 0.0088(4) -0.0119(4)
Fe11 0.0429(5) 0.0470(5) 0.0415(4) -0.0094(4) 0.0010(4) -0.0112(4)
Fe12 0.0364(4) 0.0359(4) 0.0651(5) -0.0186(4) 0.0023(4) -0.0182(4)
O1 0.0384(19) 0.039(2) 0.0326(17) -0.0023(15) -0.0015(15) -0.0099(16)
O2 0.0287(17) 0.0227(17) 0.0353(17) -0.0072(14) 0.0009(14) -0.0094(14)
O3 0.0283(18) 0.045(2) 0.055(2) -0.0211(17) 0.0094(16) -0.0104(16)
O4 0.0321(18) 0.0299(18) 0.060(2) -0.0171(16) 0.0011(16) -0.0184(15)
S1 0.0477(10) 0.0620(11) 0.0791(12) -0.0060(9) -0.0202(9) -0.0131(9)
O5 0.044(2) 0.059(2) 0.066(2) -0.0011(19) -0.0164(18) -0.0154(19)
O6 0.052(2) 0.049(2) 0.053(2) -0.0121(19) -0.0158(18) -0.0066(19)
O7 0.117(4) 0.091(3) 0.100(3) 0.003(3) -0.075(3) -0.023(3)
O8 0.046(3) 0.083(3) 0.158(4) -0.035(3) 0.018(3) -0.020(2)
S2 0.0720(12) 0.0770(13) 0.0752(12) -0.0448(11) 0.0196(10) -0.0268(11)
O9 0.064(2) 0.074(3) 0.064(2) -0.040(2) 0.023(2) -0.023(2)
O10 0.054(2) 0.080(3) 0.052(2) -0.030(2) 0.0093(19) -0.017(2)
O11 0.090(3) 0.060(3) 0.165(4) -0.037(3) 0.022(3) -0.017(3)
O12 0.118(4) 0.210(5) 0.087(3) -0.105(4) 0.046(3) -0.075(4)
S3 0.0597(11) 0.0581(12) 0.0760(12) 0.0018(10) 0.0173(9) -0.0177(9)
O13 0.053(2) 0.054(2) 0.055(2) -0.0063(18) 0.0058(18) -0.0233(19)
O14 0.060(2) 0.055(3) 0.058(2) 0.003(2) 0.0246(19) -0.015(2)
O15 0.071(3) 0.122(4) 0.141(4) -0.049(3) 0.008(3) -0.054(3)
O16 0.112(4) 0.097(4) 0.094(3) 0.020(3) 0.050(3) -0.017(3)
S4 0.0441(8) 0.0446(9) 0.0519(9) -0.0259(7) 0.0112(7) -0.0220(7)
O17 0.0319(18) 0.0340(19) 0.0535(19) -0.0212(16) 0.0029(15) -0.0130(15)
O18 0.0345(19) 0.054(2) 0.068(2) -0.0358(19) 0.0173(17) -0.0227(17)
O19 0.062(2) 0.043(2) 0.121(3) -0.042(2) 0.015(2) -0.023(2)
O20 0.094(3) 0.113(3) 0.046(2) -0.031(2) 0.021(2) -0.064(3)
S5 0.0454(9) 0.0444(9) 0.0499(9) -0.0113(7) 0.0088(7) -0.0262(7)
O21 0.045(2) 0.047(2) 0.0379(18) -0.0025(16) 0.0029(16) -0.0319(17)
O22 0.048(2) 0.046(2) 0.0384(19) -0.0137(16) 0.0069(16) -0.0254(17)
O23 0.038(2) 0.078(3) 0.087(3) -0.038(2) 0.023(2) -0.021(2)
O24 0.080(3) 0.052(2) 0.066(2) 0.000(2) 0.000(2) -0.045(2)
S6 0.0339(8) 0.0420(8) 0.0356(8) -0.0091(7) -0.0015(6) -0.0132(7)
O25 0.0268(18) 0.0393(19) 0.0379(18) -0.0082(15) 0.0041(15) -0.0067(15)
O26 0.0267(17) 0.0401(19) 0.0356(18) -0.0086(15) 0.0015(14) -0.0080(15)
O27 0.055(2) 0.066(2) 0.061(2) -0.025(2) -0.0009(18) -0.033(2)
O28 0.0348(19) 0.057(2) 0.045(2) -0.0024(18) 0.0006(16) -0.0011(18)
S7 0.0713(12) 0.0776(13) 0.0795(12) -0.0345(11) 0.0300(10) -0.0454(11)
O29 0.054(2) 0.065(2) 0.061(2) -0.026(2) 0.0195(18) -0.035(2)
O30 0.045(2) 0.070(3) 0.078(3) -0.034(2) 0.0121(19) -0.032(2)
O31 0.118(4) 0.053(3) 0.097(3) -0.020(2) 0.021(3) -0.025(3)
O32 0.109(3) 0.150(4) 0.113(3) -0.067(3) 0.064(3) -0.103(3)
S8 0.0537(11) 0.0790(14) 0.0829(13) -0.0162(11) -0.0193(10) -0.0123(10)
O33 0.049(2) 0.058(3) 0.093(3) -0.016(2) -0.017(2) -0.014(2)
O34 0.036(2) 0.064(3) 0.102(3) -0.034(2) -0.012(2) -0.0041(19)
O35 0.108(4) 0.098(4) 0.080(3) -0.012(3) -0.015(3) -0.044(3)
O36 0.026(2) 0.106(4) 0.181(4) -0.039(3) -0.021(3) -0.006(2)
S9 0.0559(10) 0.0535(10) 0.0695(11) -0.0309(9) 0.0242(8) -0.0181(8)
O39 0.057(2) 0.042(2) 0.069(3) -0.023(2) 0.017(2) -0.0025(18)
O40 0.048(2) 0.049(2) 0.057(2) -0.0226(19) 0.0191(18) -0.0136(18)
O41 0.085(3) 0.066(3) 0.091(3) -0.037(2) 0.049(2) -0.009(2)
O42 0.094(3) 0.091(3) 0.122(3) -0.049(3) 0.004(3) -0.050(3)
S10 0.0607(11) 0.0548(11) 0.0827(12) -0.0396(9) 0.0199(9) -0.0262(9)
O43 0.057(2) 0.039(2) 0.066(2) -0.0269(19) 0.0188(19) -0.0224(18)
O44 0.074(3) 0.047(2) 0.064(2) -0.029(2) 0.012(2) -0.028(2)
O45 0.057(3) 0.090(3) 0.110(3) -0.039(3) 0.025(2) -0.028(2)
O46 0.106(3) 0.075(3) 0.098(3) -0.059(2) 0.017(2) -0.046(3)
S11 0.0475(9) 0.0403(9) 0.0778(11) -0.0138(8) 0.0099(8) -0.0240(8)
O47 0.043(2) 0.039(2) 0.073(2) -0.0188(18) 0.0144(18) -0.0218(17)
O48 0.046(2) 0.042(2) 0.099(3) -0.013(2) 0.015(2) -0.0225(19)
O49 0.093(3) 0.100(3) 0.060(3) -0.025(2) 0.015(2) -0.047(3)
O50 0.058(2) 0.063(3) 0.119(3) -0.032(2) 0.019(2) -0.045(2)
S12 0.0533(12) 0.279(3) 0.0911(15) -0.1025(19) 0.0111(11) -0.0642(17)
O51 0.050(2) 0.086(3) 0.052(2) -0.017(2) -0.0067(18) -0.030(2)
O52 0.047(2) 0.072(3) 0.058(2) -0.017(2) -0.0038(18) -0.024(2)
O53 0.329(9) 0.218(7) 0.288(8) -0.187(7) 0.108(7) -0.207(7)
O54 0.063(3) 0.204(5) 0.076(3) -0.029(3) -0.016(3) -0.050(3)
O55 0.048(2) 0.080(3) 0.063(2) -0.033(2) -0.0033(19) -0.015(2)
O56 0.055(2) 0.064(3) 0.051(2) -0.022(2) -0.010(2) -0.011(2)
O57 0.051(2) 0.056(2) 0.062(2) -0.029(2) -0.003(2) -0.015(2)
O58 0.054(2) 0.047(2) 0.065(2) -0.023(2) -0.0048(19) -0.019(2)
C1 0.057(4) 0.049(4) 0.060(4) -0.018(3) -0.003(3) -0.029(3)
C2 0.058(4) 0.079(5) 0.083(4) -0.051(4) -0.008(3) -0.014(4)
C7 0.086(5) 0.116(6) 0.097(5) -0.077(5) -0.008(4) -0.017(4)
C8 0.072(5) 0.073(5) 0.041(4) -0.015(3) -0.008(3) -0.030(4)
C9 0.056(4) 0.091(5) 0.076(4) -0.042(4) -0.009(4) 0.001(4)
O59 0.050(2) 0.054(2) 0.049(2) 0.0122(19) -0.0068(18) -0.018(2)
O60 0.042(2) 0.058(2) 0.053(2) -0.0057(19) -0.0070(19) -0.015(2)
O61 0.035(2) 0.039(2) 0.0389(19) 0.0009(16) -0.0021(16) -0.0084(17)
O62 0.045(2) 0.053(2) 0.041(2) 0.0003(17) -0.0008(17) -0.0283(19)
C15 0.041(3) 0.036(3) 0.041(3) -0.009(3) -0.002(3) -0.010(3)
C16 0.041(3) 0.045(3) 0.046(3) 0.014(3) -0.018(3) -0.016(3)
C17 0.102(5) 0.156(7) 0.091(5) 0.080(5) -0.046(4) -0.095(5)
C18 0.090(5) 0.155(7) 0.081(5) 0.086(5) -0.048(4) -0.083(5)
C19 0.060(4) 0.066(4) 0.043(3) 0.021(3) -0.010(3) -0.028(3)
C20 0.078(5) 0.129(6) 0.078(5) 0.052(4) -0.022(4) -0.069(5)
C21 0.048(4) 0.100(5) 0.073(4) 0.041(4) -0.023(3) -0.051(4)
C22 0.067(4) 0.049(4) 0.029(3) -0.009(3) 0.004(3) -0.015(3)
C23 0.044(3) 0.071(4) 0.034(3) 0.006(3) -0.010(3) -0.024(3)
C24 0.085(5) 0.126(6) 0.085(5) 0.053(4) -0.024(4) -0.069(5)
C25 0.089(5) 0.117(6) 0.103(5) 0.065(5) -0.059(4) -0.068(5)
C26 0.062(4) 0.076(5) 0.052(4) 0.010(3) -0.007(3) -0.034(4)
C27 0.085(5) 0.085(5) 0.072(4) 0.037(4) -0.028(4) -0.058(4)
C28 0.086(5) 0.074(5) 0.054(4) 0.016(3) -0.020(3) -0.038(4)
O63 0.056(2) 0.065(3) 0.050(2) -0.022(2) 0.0141(18) -0.023(2)
O64 0.060(2) 0.063(3) 0.062(2) -0.020(2) 0.021(2) -0.020(2)
O65 0.062(2) 0.061(3) 0.058(2) -0.023(2) 0.0232(19) -0.022(2)
O66 0.061(3) 0.068(3) 0.057(2) -0.028(2) 0.024(2) -0.025(2)
C29 0.042(4) 0.078(5) 0.052(4) -0.020(4) 0.011(3) -0.018(4)
C30 0.061(4) 0.073(5) 0.056(4) -0.024(4) 0.025(3) -0.030(4)
C31 0.176(8) 0.108(6) 0.135(7) -0.076(6) 0.112(6) -0.084(6)
C32 0.219(9) 0.124(7) 0.156(8) -0.077(6) 0.139(7) -0.111(7)
C33 0.085(5) 0.086(5) 0.071(4) -0.034(4) 0.037(4) -0.046(4)
C34 0.173(8) 0.129(7) 0.106(6) -0.084(5) 0.087(6) -0.099(6)
C35 0.167(7) 0.116(6) 0.098(5) -0.068(5) 0.097(5) -0.092(6)
C36 0.050(3) 0.064(4) 0.038(3) -0.014(3) 0.012(3) -0.024(3)
C37 0.064(4) 0.077(5) 0.051(4) -0.023(3) 0.025(3) -0.035(4)
C38 0.119(6) 0.083(5) 0.106(5) -0.052(4) 0.073(5) -0.057(5)
C39 0.139(7) 0.098(6) 0.122(6) -0.063(5) 0.089(5) -0.064(5)
C40 0.087(5) 0.087(5) 0.075(4) -0.039(4) 0.044(4) -0.050(4)
C41 0.145(7) 0.149(7) 0.113(6) -0.082(5) 0.099(5) -0.106(6)
C42 0.127(6) 0.116(6) 0.100(5) -0.066(5) 0.056(5) -0.072(5)
O67 0.047(2) 0.073(3) 0.077(3) -0.018(2) 0.000(2) -0.036(2)
O68 0.043(2) 0.055(3) 0.083(3) -0.006(2) 0.001(2) -0.033(2)
O69 0.036(2) 0.053(2) 0.069(2) -0.003(2) -0.0005(19) -0.0184(19)
O70 0.042(2) 0.067(3) 0.063(2) -0.009(2) 0.0140(19) -0.033(2)
C43 0.044(4) 0.052(4) 0.088(5) -0.032(4) 0.005(4) -0.027(3)
C44 0.051(4) 0.064(4) 0.095(5) 0.001(4) -0.007(4) -0.034(4)
C45 0.067(5) 0.132(7) 0.166(7) 0.072(6) -0.042(5) -0.065(5)
C46 0.055(5) 0.172(8) 0.180(8) 0.079(7) -0.051(5) -0.064(5)
C47 0.073(5) 0.096(5) 0.089(5) 0.022(4) -0.008(4) -0.063(5)
C48 0.096(6) 0.177(8) 0.141(7) 0.082(6) -0.052(5) -0.106(6)
C49 0.074(5) 0.171(8) 0.162(7) 0.061(6) -0.043(5) -0.091(6)
C50 0.027(3) 0.059(4) 0.075(4) -0.030(4) 0.013(3) -0.017(3)
C51 0.031(3) 0.073(4) 0.076(4) -0.002(4) 0.002(3) -0.026(3)
C52 0.067(5) 0.126(6) 0.118(6) 0.037(5) -0.033(4) -0.063(5)
C53 0.084(5) 0.134(7) 0.149(7) 0.047(6) -0.027(5) -0.081(5)
C54 0.060(4) 0.103(6) 0.100(5) 0.017(4) -0.006(4) -0.053(4)
C55 0.095(6) 0.182(9) 0.132(7) 0.080(6) -0.046(5) -0.096(6)
C56 0.075(5) 0.173(8) 0.131(6) 0.033(6) -0.012(5) -0.095(6)
O71 0.0337(19) 0.040(2) 0.056(2) -0.0242(18) -0.0009(17) -0.0007(16)
O72 0.0242(18) 0.038(2) 0.054(2) -0.0144(17) -0.0047(17) -0.0014(16)
O73 0.033(2) 0.056(2) 0.071(2) -0.029(2) 0.0062(19) -0.0018(18)
O74 0.040(2) 0.057(2) 0.068(2) -0.032(2) 0.0045(18) -0.0074(18)
C57 0.027(3) 0.025(3) 0.061(4) -0.012(3) 0.006(3) -0.004(2)
C58 0.038(3) 0.042(3) 0.051(3) -0.020(3) -0.001(3) -0.003(3)
C59 0.046(4) 0.067(4) 0.063(4) -0.031(3) -0.008(3) 0.017(3)
C60 0.060(4) 0.078(5) 0.071(4) -0.034(4) -0.020(3) 0.017(4)
C61 0.036(3) 0.060(4) 0.086(4) -0.039(4) -0.007(3) 0.011(3)
C62 0.046(4) 0.138(6) 0.154(6) -0.119(6) -0.039(4) 0.037(4)
C63 0.058(4) 0.109(6) 0.127(6) -0.089(5) -0.034(4) 0.028(4)
C64 0.036(3) 0.051(3) 0.063(3) -0.016(3) 0.008(3) -0.019(3)
C65 0.024(3) 0.063(4) 0.068(4) -0.034(3) 0.001(3) 0.009(3)
C66 0.070(5) 0.097(5) 0.111(5) -0.074(5) -0.023(4) 0.029(4)
C67 0.087(5) 0.141(7) 0.131(6) -0.107(6) -0.044(5) 0.057(5)
C68 0.047(4) 0.067(4) 0.086(5) -0.037(4) -0.011(3) 0.008(3)
C69 0.071(5) 0.150(7) 0.164(7) -0.124(6) -0.037(5) 0.041(5)
C70 0.066(5) 0.101(6) 0.168(7) -0.089(6) -0.062(5) 0.053(4)
O75 0.046(2) 0.032(2) 0.051(2) -0.0148(17) 0.0073(17) -0.0200(17)
O76 0.045(2) 0.035(2) 0.048(2) -0.0134(17) 0.0088(17) -0.0211(17)
O77 0.089(3) 0.042(2) 0.071(3) -0.026(2) 0.015(2) -0.037(2)
O78 0.073(3) 0.035(2) 0.089(3) -0.024(2) 0.019(2) -0.031(2)
C71 0.053(4) 0.039(4) 0.072(4) -0.025(3) -0.011(3) -0.020(3)
C72 0.078(4) 0.042(4) 0.065(4) -0.016(3) 0.012(3) -0.038(3)
C73 0.154(7) 0.062(5) 0.153(7) -0.059(5) 0.086(6) -0.077(5)
C74 0.193(8) 0.087(6) 0.191(8) -0.087(6) 0.131(7) -0.105(6)
C75 0.107(5) 0.047(4) 0.099(5) -0.044(4) 0.043(4) -0.047(4)
C76 0.177(8) 0.074(5) 0.178(7) -0.078(5) 0.118(6) -0.091(5)
C77 0.168(7) 0.063(5) 0.156(7) -0.073(5) 0.091(6) -0.074(5)
C78 0.041(3) 0.032(3) 0.050(3) -0.012(3) 0.000(3) -0.022(3)
C79 0.078(4) 0.033(3) 0.059(4) -0.021(3) 0.023(3) -0.033(3)
C80 0.112(5) 0.049(4) 0.068(4) -0.032(3) 0.039(4) -0.047(4)
C81 0.143(6) 0.051(4) 0.087(5) -0.038(4) 0.051(4) -0.062(4)
C82 0.104(5) 0.045(4) 0.093(5) -0.030(4) 0.027(4) -0.045(4)
C83 0.218(8) 0.088(5) 0.122(6) -0.087(5) 0.112(6) -0.113(6)
C84 0.167(7) 0.071(5) 0.095(5) -0.044(4) 0.068(5) -0.086(5)
N1 0.065(4) 0.054(3) 0.070(3) -0.018(3) -0.003(3) -0.009(3)
C85 0.092(5) 0.066(5) 0.087(5) -0.021(4) -0.014(4) -0.025(5)
C86 0.165(9) 0.063(6) 0.134(7) -0.028(5) -0.007(7) -0.035(6)
C87 0.192(12) 0.066(7) 0.126(7) -0.037(6) 0.011(8) -0.017(7)
C88 0.117(8) 0.074(7) 0.155(8) -0.033(6) 0.034(6) 0.002(6)
C89 0.097(6) 0.069(5) 0.088(5) -0.009(4) 0.011(5) -0.018(5)
N2 0.063(3) 0.061(4) 0.058(3) -0.014(3) -0.006(3) -0.029(3)
C90 0.065(5) 0.098(5) 0.091(5) -0.026(4) 0.007(4) -0.047(4)
C91 0.104(6) 0.153(8) 0.102(6) -0.043(6) 0.015(5) -0.083(7)
C92 0.150(9) 0.114(8) 0.111(6) -0.021(6) -0.007(6) -0.091(7)
C93 0.108(6) 0.100(6) 0.122(6) -0.049(5) -0.012(5) -0.050(6)
C94 0.080(5) 0.072(5) 0.085(5) -0.027(4) -0.008(4) -0.037(4)
N3 0.049(3) 0.046(3) 0.084(3) -0.011(3) 0.011(3) -0.015(3)
C95 0.068(5) 0.113(7) 0.130(6) -0.039(6) 0.011(5) -0.039(5)
C96 0.074(6) 0.125(8) 0.155(7) -0.046(6) 0.022(6) 0.023(6)
C97 0.063(6) 0.149(10) 0.230(10) -0.021(9) 0.036(6) -0.067(7)
C98 0.066(5) 0.074(6) 0.268(10) 0.003(6) 0.024(6) -0.007(4)
C99 0.067(5) 0.062(5) 0.148(6) 0.000(4) 0.002(5) -0.019(4)
N4 0.070(4) 0.052(4) 0.074(4) -0.009(3) 0.015(3) -0.005(3)
C100 0.184(9) 0.104(7) 0.077(6) 0.007(5) -0.006(6) -0.045(6)
C101 0.284(15) 0.116(10) 0.122(9) 0.077(8) -0.016(9) 0.009(11)
C102 0.41(2) 0.134(14) 0.28(2) -0.109(15) 0.123(19) -0.113(15)
C103 0.246(12) 0.086(9) 0.159(9) -0.034(8) 0.078(10) -0.052(8)
C104 0.117(6) 0.055(5) 0.136(7) -0.012(5) 0.034(5) -0.018(5)
N5 0.053(3) 0.066(4) 0.081(4) -0.040(3) 0.012(3) -0.026(3)
C105 0.071(4) 0.076(5) 0.101(5) -0.053(5) 0.009(4) -0.032(4)
C106 0.092(6) 0.079(6) 0.145(7) -0.065(6) 0.008(5) -0.022(4)
C107 0.109(7) 0.140(9) 0.156(10) -0.099(8) 0.033(7) -0.066(7)
C108 0.100(6) 0.168(9) 0.105(7) -0.088(7) 0.025(5) -0.067(7)
C109 0.085(5) 0.113(6) 0.073(5) -0.049(5) 0.016(4) -0.046(4)
N6 0.045(3) 0.059(3) 0.057(3) -0.018(3) 0.011(2) -0.022(3)
C110 0.074(4) 0.090(5) 0.053(4) -0.023(4) 0.008(3) -0.047(4)
C111 0.134(7) 0.128(8) 0.097(6) -0.030(6) -0.001(5) -0.079(6)
C112 0.147(7) 0.166(9) 0.073(6) -0.022(6) -0.033(5) -0.086(7)
C113 0.144(7) 0.118(7) 0.086(6) 0.002(5) -0.022(5) -0.066(6)
C114 0.078(5) 0.091(6) 0.063(4) -0.012(4) -0.004(4) -0.040(4)
N7 0.043(3) 0.044(3) 0.093(4) -0.019(3) -0.009(3) -0.014(3)
C115 0.049(4) 0.047(4) 0.125(6) -0.019(4) -0.001(4) -0.008(4)
C116 0.062(5) 0.084(7) 0.182(9) -0.043(7) -0.008(7) 0.001(5)
C117 0.078(6) 0.057(6) 0.190(10) -0.023(7) -0.049(8) 0.007(5)
C118 0.117(7) 0.083(6) 0.107(6) -0.003(5) -0.025(6) -0.026(5)
C119 0.078(5) 0.068(5) 0.086(5) -0.018(4) -0.012(4) -0.012(4)
N9 0.069(4) 0.079(4) 0.063(3) -0.023(3) 0.017(3) -0.039(3)
C125 0.149(8) 0.094(6) 0.069(5) -0.005(5) 0.026(5) -0.062(6)
C126 0.179(11) 0.184(12) 0.124(10) -0.018(8) 0.054(8) -0.074(10)
C127 0.242(17) 0.185(14) 0.099(9) 0.042(8) 0.010(10) -0.100(12)
C128 0.166(10) 0.246(14) 0.115(9) -0.064(9) 0.081(8) -0.106(10)
C129 0.113(7) 0.128(7) 0.080(6) -0.012(5) 0.026(5) -0.060(6)
N10 0.039(2) 0.036(2) 0.039(2) -0.011(2) 0.004(2) -0.016(2)
C130 0.047(3) 0.067(4) 0.043(3) -0.018(3) 0.010(3) -0.027(3)
C131 0.050(4) 0.121(6) 0.054(4) -0.039(4) 0.017(3) -0.028(4)
C132 0.072(5) 0.119(6) 0.057(4) -0.048(4) 0.026(4) -0.029(4)
C133 0.075(5) 0.078(4) 0.060(4) -0.040(4) -0.001(3) -0.025(4)
C134 0.049(3) 0.049(3) 0.047(3) -0.016(3) -0.001(3) -0.017(3)
N11 0.056(3) 0.046(3) 0.054(3) -0.015(2) -0.014(2) -0.024(2)
C135 0.091(5) 0.120(6) 0.070(4) -0.034(4) -0.001(4) -0.069(5)
C136 0.118(6) 0.165(8) 0.094(5) -0.042(5) -0.029(5) -0.074(6)
C137 0.064(5) 0.116(6) 0.168(9) -0.039(6) -0.033(6) -0.039(5)
C138 0.061(5) 0.105(6) 0.100(5) -0.028(5) -0.014(4) -0.037(4)
C139 0.029(3) 0.073(4) 0.101(4) -0.030(4) -0.001(3) -0.023(3)
N12 0.044(3) 0.039(3) 0.039(2) -0.006(2) 0.009(2) -0.024(2)
C140 0.039(3) 0.061(4) 0.061(4) -0.008(3) 0.000(3) -0.030(3)
C141 0.052(4) 0.098(5) 0.080(5) -0.015(4) 0.009(4) -0.045(4)
C142 0.048(4) 0.092(5) 0.115(6) -0.021(5) 0.030(4) -0.036(4)
C143 0.071(5) 0.104(5) 0.074(4) -0.037(4) 0.037(4) -0.039(4)
C144 0.045(4) 0.075(4) 0.058(4) -0.018(3) 0.013(3) -0.033(3)

_geom_special_details            
;
All esds (except the esd in the dihedral angle between two l.s. planes)
are estimated using the full covariance matrix. The cell esds are taken
into account individually in the estimation of esds in distances, angles
and torsion angles; correlations between esds in cell parameters are only
used when they are defined by crystal symmetry. An approximate (isotropic)
treatment of cell esds is used for estimating esds involving l.s. planes.
;

loop_
_geom_bond_atom_site_label_1
_geom_bond_atom_site_label_2
_geom_bond_distance
_geom_bond_site_symmetry_2
_geom_bond_publ_flag
Fe1 O2 1.937(3) . ?
Fe1 O25 1.982(3) . ?
Fe1 O21 1.996(3) . ?
Fe1 O72 2.026(3) . ?
Fe1 O75 2.028(3) . ?
Fe1 N10 2.195(3) . ?
Fe2 O2 1.922(3) . ?
Fe2 O26 1.989(3) . ?
Fe2 O76 2.007(3) . ?
Fe2 O17 2.013(3) . ?
Fe2 O61 2.023(3) . ?
Fe2 N12 2.214(4) . ?
Fe3 O2 1.920(2) . ?
Fe3 O22 1.980(3) . ?
Fe3 O18 1.982(3) . ?
Fe3 O71 2.000(3) . ?
Fe3 O62 2.005(3) . ?
Fe3 N11 2.232(4) . ?
Fe4 O1 1.928(3) . ?
Fe4 O9 1.978(3) . ?
Fe4 O14 1.981(3) . ?
Fe4 O59 2.018(3) . ?
Fe4 O55 2.022(3) . ?
Fe4 N3 2.207(4) . ?
Fe5 O3 1.920(3) . ?
Fe5 O40 1.978(3) . ?
Fe5 O29 1.976(3) . ?
Fe5 O70 2.021(3) . ?
Fe5 O74 2.021(3) . ?
Fe5 N6 2.195(4) . ?
Fe6 O4 1.911(3) . ?
Fe6 O51 1.988(3) . ?
Fe6 O44 2.001(3) . ?
Fe6 O67 2.001(3) . ?
Fe6 O77 2.013(3) . ?
Fe6 N9 2.187(5) . ?
Fe7 O4 1.929(3) . ?
Fe7 O52 1.986(3) . ?
Fe7 O48 1.996(3) . ?
Fe7 O57 2.011(3) . ?
Fe7 O78 2.013(3) . ?
Fe7 N8 2.138(3) . ?
Fe8 O3 1.933(3) . ?
Fe8 O39 1.980(3) . ?
Fe8 O34 1.982(3) . ?
Fe8 O69 2.019(3) . ?
Fe8 O65 2.022(3) . ?
Fe8 N4 2.224(5) . ?
Fe9 O1 1.927(3) . ?
Fe9 O10 1.981(3) . ?
Fe9 O6 1.996(3) . ?
Fe9 O60 2.017(3) . ?
Fe9 O63 2.032(3) . ?
Fe9 N2 2.211(4) . ?
Fe10 O3 1.915(3) . ?
Fe10 O33 1.975(3) . ?
Fe10 O30 1.986(3) . ?
Fe10 O73 2.023(3) . ?
Fe10 O66 2.033(4) . ?
Fe10 N5 2.217(4) . ?
Fe11 O1 1.915(3) . ?
Fe11 O13 1.975(3) . ?
Fe11 O5 1.985(3) . ?
Fe11 O56 2.011(3) . ?
Fe11 O64 2.031(3) . ?
Fe11 N1 2.207(5) . ?
Fe12 O4 1.926(3) . ?
Fe12 O43 1.988(3) . ?
Fe12 O47 1.997(3) . ?
Fe12 O68 2.012(3) . ?
Fe12 O58 2.022(3) . ?
Fe12 N7 2.203(4) . ?
S1 O7 1.443(4) . ?
S1 O8 1.449(4) . ?
S1 O5 1.488(3) . ?
S1 O6 1.486(3) . ?
S2 O11 1.438(4) . ?
S2 O12 1.448(4) . ?
S2 O9 1.494(3) . ?
S2 O10 1.502(3) . ?
S3 O16 1.419(4) . ?
S3 O15 1.465(4) . ?
S3 O14 1.502(3) . ?
S3 O13 1.500(3) . ?
S4 O20 1.423(3) . ?
S4 O19 1.451(3) . ?
S4 O17 1.491(3) . ?
S4 O18 1.503(3) . ?
S5 O23 1.453(3) . ?
S5 O24 1.448(3) . ?
S5 O21 1.498(3) . ?
S5 O22 1.502(3) . ?
S6 O27 1.437(3) . ?
S6 O28 1.438(3) . ?
S6 O25 1.505(3) . ?
S6 O26 1.513(3) . ?
S7 O32 1.431(4) . ?
S7 O31 1.441(4) . ?
S7 O29 1.489(3) . ?
S7 O30 1.494(3) . ?
S8 O35 1.386(4) . ?
S8 O33 1.477(4) . ?
S8 O36 1.490(4) . ?
S8 O34 1.498(3) . ?
S9 O41 1.429(3) . ?
S9 O42 1.451(4) . ?
S9 O40 1.491(3) . ?
S9 O39 1.497(3) . ?
S10 O45 1.431(4) . ?
S10 O46 1.454(3) . ?
S10 O43 1.498(3) . ?
S10 O44 1.497(3) . ?
S11 O49 1.445(3) . ?
S11 O50 1.455(3) . ?
S11 O48 1.495(3) . ?
S11 O47 1.499(3) . ?
S12 O54 1.341(4) . ?
S12 O52 1.435(3) . ?
S12 O51 1.485(3) . ?
S12 O53 1.667(6) . ?
O55 C8 1.258(6) . ?
O56 C8 1.241(6) . ?
O57 C1 1.261(5) . ?
O58 C1 1.253(5) . ?
C1 C2 1.493(7) . ?
C2 C7 1.363(7) . ?
C2 C3' 1.423(12) . ?
C2 C3 1.448(12) . ?
C3 C3' 0.773(14) . ?
C3 C4 1.452(14) . ?
C3 C4' 1.721(19) . ?
C3' C4' 1.412(15) . ?
C3' C4 1.548(16) . ?
C4 C4' 0.813(16) . ?
C4 C5 1.390(16) . ?
C4 C5' 1.598(17) . ?
C4' C5' 1.357(16) . ?
C4' C5 1.53(2) . ?
C5 C5' 0.704(15) . ?
C5 C6 1.427(16) . ?
C5 C6' 1.48(2) . ?
C5 C12 1.495(16) . ?
C5 C12' 1.76(2) . ?
C5' C6' 1.322(16) . ?
C5' C12' 1.540(16) . ?
C5' C12 1.558(17) . ?
C5' C6 1.571(18) . ?
C6 C6' 0.639(18) . ?
C6 C7 1.447(13) . ?
C6' C7 1.511(15) . ?
C8 C9 1.509(7) . ?
C9 C14 1.345(14) . ?
C9 C10' 1.379(11) . ?
C9 C10 1.392(13) . ?
C9 C14' 1.459(16) . ?
C10 C10' 0.914(14) . ?
C10 C11 1.519(16) . ?
C10 C11' 1.718(17) . ?
C10' C11' 1.418(13) . ?
C10' C11 1.795(18) . ?
C11 C11' 1.020(14) . ?
C11 C12 1.315(16) . ?
C11 C12' 1.57(2) . ?
C11' C12' 1.338(15) . ?
C11' C12 1.542(17) . ?
C12 C12' 0.656(17) . ?
C12 C13 1.420(18) . ?
C12 C13' 1.520(19) . ?
C12' C13' 1.243(15) . ?
C12' C13 1.56(2) . ?
C13 C13' 0.927(16) . ?
C13 C14 1.529(18) . ?
C13 C14' 1.71(2) . ?
C13' C14' 1.355(15) . ?
C13' C14 1.667(19) . ?
C14 C14' 0.847(17) . ?
O59 C22 1.264(6) . ?
O60 C22 1.261(6) . ?
O61 C15 1.272(5) . ?
O62 C15 1.258(5) . ?
C15 C16 1.498(6) . ?
C16 C21 1.333(6) . ?
C16 C17 1.367(6) . ?
C17 C18 1.357(7) . ?
C17 H17A 0.9300 . ?
C18 C19 1.341(7) . ?
C18 H18A 0.9300 . ?
C19 C20 1.368(7) . ?
C19 C26 1.496(7) . ?
C20 C21 1.359(6) . ?
C20 H20A 0.9300 . ?
C21 H21A 0.9300 . ?
C22 C23 1.494(6) . ?
C23 C24 1.344(6) . ?
C23 C28 1.379(7) . ?
C24 C25 1.409(7) . ?
C24 H24A 0.9300 . ?
C25 C26 1.361(7) . ?
C25 H25A 0.9300 . ?
C26 C27 1.419(7) . ?
C27 C28 1.390(6) . ?
C27 H27A 0.9300 . ?
C28 H28A 0.9300 . ?
O63 C36 1.238(6) . ?
O64 C36 1.267(6) . ?
O65 C29 1.264(6) . ?
O66 C29 1.242(6) . ?
C29 C30 1.472(7) . ?
C30 C31 1.331(8) . ?
C30 C35 1.352(7) . ?
C31 C32 1.399(8) . ?
C31 H31A 0.9300 . ?
C32 C33 1.380(8) . ?
C32 H32A 0.9300 . ?
C33 C34 1.340(8) . ?
C33 C40 1.495(7) . ?
C34 C35 1.374(7) . ?
C34 H34A 0.9300 . ?
C35 H35A 0.9300 . ?
C36 C37 1.494(7) . ?
C37 C42 1.353(7) . ?
C37 C38 1.373(7) . ?
C38 C39 1.366(7) . ?
C38 H38A 0.9300 . ?
C39 C40 1.358(7) . ?
C39 H39A 0.9300 . ?
C40 C41 1.365(7) . ?
C41 C42 1.384(7) . ?
C41 H41A 0.9300 . ?
C42 H42A 0.9300 . ?
O67 C43 1.262(6) . ?
O68 C43 1.242(6) . ?
O69 C50 1.256(6) . ?
O70 C50 1.238(6) . ?
C43 C44 1.507(7) . ?
C44 C45 1.326(7) . ?
C44 C49 1.359(7) . ?
C45 C46 1.405(8) . ?
C45 H45A 0.9300 . ?
C46 C47 1.332(8) . ?
C46 H46A 0.9300 . ?
C47 C48 1.328(7) . ?
C47 C54 1.487(7) . ?
C48 C49 1.396(7) . ?
C48 H48A 0.9300 . ?
C49 H49A 0.9300 . ?
C50 C51 1.495(7) . ?
C51 C52 1.325(7) . ?
C51 C56 1.337(7) . ?
C52 C53 1.402(7) . ?
C52 H52A 0.9300 . ?
C53 C54 1.347(8) . ?
C53 H53A 0.9300 . ?
C54 C55 1.355(7) . ?
C55 C56 1.402(8) . ?
C55 H55A 0.9300 . ?
C56 H56A 0.9300 . ?
O71 C57 1.266(5) . ?
O72 C57 1.244(5) . ?
O73 C64 1.256(5) . ?
O74 C64 1.250(5) . ?
C57 C58 1.520(6) . ?
C58 C59 1.345(6) . ?
C58 C63 1.383(6) . ?
C59 C60 1.398(6) . ?
C59 H59A 0.9300 . ?
C60 C61 1.377(6) . ?
C60 H60A 0.9300 . ?
C61 C62 1.369(6) . ?
C61 C68 1.509(6) . ?
C62 C63 1.377(7) . ?
C62 H62A 0.9300 . ?
C63 H63A 0.9300 . ?
C64 C65 1.489(6) . ?
C65 C66 1.307(6) . ?
C65 C70 1.348(7) . ?
C66 C67 1.398(7) . ?
C66 H66A 0.9300 . ?
C67 C68 1.345(7) . ?
C67 H67A 0.9300 . ?
C68 C69 1.347(7) . ?
C69 C70 1.399(7) . ?
C69 H69A 0.9300 . ?
C70 H70A 0.9300 . ?
O75 C78 1.254(5) . ?
O76 C78 1.265(5) . ?
O77 C71 1.267(6) . ?
O78 C71 1.249(6) . ?
C71 C72 1.494(7) . ?
C72 C77 1.332(7) . ?
C72 C73 1.357(7) . ?
C73 C74 1.375(7) . ?
C73 H73A 0.9300 . ?
C74 C75 1.373(7) . ?
C74 H74A 0.9300 . ?
C75 C76 1.335(7) . ?
C75 C82 1.513(7) . ?
C76 C77 1.388(7) . ?
C76 H76A 0.9300 . ?
C77 H77A 0.9300 . ?
C78 C79 1.476(6) . ?
C79 C80 1.365(6) . ?
C79 C84 1.364(6) . ?
C80 C81 1.386(6) . ?
C80 H80A 0.9300 . ?
C81 C82 1.362(6) . ?
C81 H81A 0.9300 . ?
C82 C83 1.383(7) . ?
C83 C84 1.396(7) . ?
C83 H83A 0.9300 . ?
C84 H84A 0.9300 . ?
N1 C89 1.327(7) . ?
N1 C85 1.329(7) . ?
C85 C86 1.395(9) . ?
C85 H85A 0.9300 . ?
C86 C87 1.384(11) . ?
C86 H86A 0.9300 . ?
C87 C88 1.316(10) . ?
C87 H87A 0.9300 . ?
C88 C89 1.396(9) . ?
C88 H88A 0.9300 . ?
C89 H89A 0.9300 . ?
N2 C94 1.344(6) . ?
N2 C90 1.357(6) . ?
C90 C91 1.412(8) . ?
C90 H90A 0.9300 . ?
C91 C92 1.387(9) . ?
C91 H91A 0.9300 . ?
C92 C93 1.390(9) . ?
C92 H92A 0.9300 . ?
C93 C94 1.393(8) . ?
C93 H93A 0.9300 . ?
C94 H94A 0.9300 . ?
N3 C99 1.249(7) . ?
N3 C95 1.312(7) . ?
C95 C96 1.447(9) . ?
C95 H95A 0.9300 . ?
C96 C97 1.382(10) . ?
C96 H96A 0.9300 . ?
C97 C98 1.238(10) . ?
C97 H97A 0.9300 . ?
C98 C99 1.411(9) . ?
C98 H98A 0.9300 . ?
C99 H99A 0.9300 . ?
N4 C100 1.325(8) . ?
N4 C104 1.388(8) . ?
C100 C101 1.524(13) . ?
C100 H10A 0.9300 . ?
C101 C102 1.310(18) . ?
C101 H10B 0.9300 . ?
C102 C103 1.397(16) . ?
C102 H10C 0.9300 . ?
C103 C104 1.392(11) . ?
C103 H10D 0.9300 . ?
C104 H10E 0.9300 . ?
N5 C109 1.312(6) . ?
N5 C105 1.344(7) . ?
C105 C106 1.374(8) . ?
C105 H10F 0.9300 . ?
C106 C107 1.320(9) . ?
C106 H10G 0.9300 . ?
C107 C108 1.370(10) . ?
C107 H10H 0.9300 . ?
C108 C109 1.412(8) . ?
C108 H10I 0.9300 . ?
C109 H10J 0.9300 . ?
N6 C110 1.310(6) . ?
N6 C114 1.329(6) . ?
C110 C111 1.368(8) . ?
C110 H11A 0.9300 . ?
C111 C112 1.394(9) . ?
C111 H11B 0.9300 . ?
C112 C113 1.307(9) . ?
C112 H11C 0.9300 . ?
C113 C114 1.422(8) . ?
C113 H11D 0.9300 . ?
C114 H11E 0.9300 . ?
N7 C119 1.326(7) . ?
N7 C115 1.325(6) . ?
C115 C116 1.362(8) . ?
C115 H11F 0.9300 . ?
C116 C117 1.319(9) . ?
C116 H11G 0.9300 . ?
C117 C118 1.372(10) . ?
C117 H11H 0.9300 . ?
C118 C119 1.427(8) . ?
C118 H11I 0.9300 . ?
C119 H11J 0.9300 . ?
N8 C124 1.3278 . ?
N8 C120 1.3979 . ?
C120 C121 1.3760 . ?
C120 H120 0.9300 . ?
C121 C122 1.7002 . ?
C121 H121 0.9300 . ?
C122 C123 1.1581 . ?
C122 H122 0.9300 . ?
C123 C124 1.5157 . ?
C123 H123 0.9300 . ?
C124 H124 0.9300 . ?
N9 C129 1.312(7) . ?
N9 C125 1.356(7) . ?
C125 C126 1.343(10) . ?
C125 H12A 0.9300 . ?
C126 C127 1.318(13) . ?
C126 H12B 0.9300 . ?
C127 C128 1.381(12) . ?
C127 H12C 0.9300 . ?
C128 C129 1.450(10) . ?
C128 H12D 0.9300 . ?
C129 H12E 0.9300 . ?
N10 C134 1.331(5) . ?
N10 C130 1.329(5) . ?
C130 C131 1.361(6) . ?
C130 H13A 0.9300 . ?
C131 C132 1.359(7) . ?
C131 H13B 0.9300 . ?
C132 C133 1.382(7) . ?
C132 H13C 0.9300 . ?
C133 C134 1.395(6) . ?
C133 H13D 0.9300 . ?
C134 H13E 0.9300 . ?
N11 C135 1.304(6) . ?
N11 C139 1.355(6) . ?
C135 C136 1.423(7) . ?
C135 H13F 0.9300 . ?
C136 C137 1.400(9) . ?
C136 H13G 0.9300 . ?
C137 C138 1.338(8) . ?
C137 H13H 0.9300 . ?
C138 C139 1.360(7) . ?
C138 H13I 0.9300 . ?
C139 H13J 0.9300 . ?
N12 C144 1.329(5) . ?
N12 C140 1.351(5) . ?
C140 C141 1.361(6) . ?
C140 H14A 0.9300 . ?
C141 C142 1.367(7) . ?
C141 H14B 0.9300 . ?
C142 C143 1.372(7) . ?
C142 H14C 0.9300 . ?
C143 C144 1.404(6) . ?
C143 H14D 0.9300 . ?
C144 H14E 0.9300 . ?

loop_
_geom_angle_atom_site_label_1
_geom_angle_atom_site_label_2
_geom_angle_atom_site_label_3
_geom_angle
_geom_angle_site_symmetry_1
_geom_angle_site_symmetry_3
_geom_angle_publ_flag
O2 Fe1 O25 98.11(11) . . ?
O2 Fe1 O21 95.61(11) . . ?
O25 Fe1 O21 90.19(12) . . ?
O2 Fe1 O72 95.24(8) . . ?
O25 Fe1 O72 166.28(8) . . ?
O21 Fe1 O72 91.63(8) . . ?
O2 Fe1 O75 92.93(8) . . ?
O25 Fe1 O75 91.21(8) . . ?
O21 Fe1 O75 171.07(8) . . ?
O72 Fe1 O75 84.96(8) . . ?
O2 Fe1 N10 176.59(9) . . ?
O25 Fe1 N10 85.03(10) . . ?
O21 Fe1 N10 85.69(10) . . ?
O72 Fe1 N10 81.55(9) . . ?
O75 Fe1 N10 85.65(10) . . ?
O2 Fe2 O26 97.11(11) . . ?
O2 Fe2 O76 95.58(8) . . ?
O26 Fe2 O76 93.17(8) . . ?
O2 Fe2 O17 94.77(11) . . ?
O26 Fe2 O17 87.05(11) . . ?
O76 Fe2 O17 169.54(8) . . ?
O2 Fe2 O61 97.45(8) . . ?
O26 Fe2 O61 165.43(8) . . ?
O76 Fe2 O61 85.98(8) . . ?
O17 Fe2 O61 91.17(8) . . ?
O2 Fe2 N12 179.05(9) . . ?
O26 Fe2 N12 82.56(10) . . ?
O76 Fe2 N12 85.33(10) . . ?
O17 Fe2 N12 84.32(10) . . ?
O61 Fe2 N12 82.87(10) . . ?
O2 Fe3 O22 96.92(11) . . ?
O2 Fe3 O18 98.07(11) . . ?
O22 Fe3 O18 87.97(12) . . ?
O2 Fe3 O71 95.25(8) . . ?
O22 Fe3 O71 92.05(9) . . ?
O18 Fe3 O71 166.58(9) . . ?
O2 Fe3 O62 95.89(9) . . ?
O22 Fe3 O62 167.19(9) . . ?
O18 Fe3 O62 90.30(9) . . ?
O71 Fe3 O62 86.71(9) . . ?
O2 Fe3 N11 176.92(10) . . ?
O22 Fe3 N11 84.22(11) . . ?
O18 Fe3 N11 84.81(11) . . ?
O71 Fe3 N11 81.84(11) . . ?
O62 Fe3 N11 82.98(11) . . ?
O1 Fe4 O9 96.27(13) . . ?
O1 Fe4 O14 96.61(13) . . ?
O9 Fe4 O14 90.58(14) . . ?
O1 Fe4 O59 95.49(10) . . ?
O9 Fe4 O59 91.77(11) . . ?
O14 Fe4 O59 167.35(10) . . ?
O1 Fe4 O55 96.63(10) . . ?
O9 Fe4 O55 166.92(10) . . ?
O14 Fe4 O55 90.09(10) . . ?
O59 Fe4 O55 84.85(14) . . ?
O1 Fe4 N3 178.27(13) . . ?
O9 Fe4 N3 84.37(14) . . ?
O14 Fe4 N3 84.98(13) . . ?
O59 Fe4 N3 82.88(13) . . ?
O55 Fe4 N3 82.68(14) . . ?
O3 Fe5 O40 97.67(9) . . ?
O3 Fe5 O29 97.04(9) . . ?
O40 Fe5 O29 89.11(13) . . ?
O3 Fe5 O70 93.43(10) . . ?
O40 Fe5 O70 92.49(9) . . ?
O29 Fe5 O70 169.10(10) . . ?
O3 Fe5 O74 96.12(9) . . ?
O40 Fe5 O74 166.08(9) . . ?
O29 Fe5 O74 91.12(9) . . ?
O70 Fe5 O74 84.75(13) . . ?
O3 Fe5 N6 176.71(11) . . ?
O40 Fe5 N6 83.48(11) . . ?
O29 Fe5 N6 86.04(12) . . ?
O70 Fe5 N6 83.43(12) . . ?
O74 Fe5 N6 82.66(11) . . ?
O4 Fe6 O51 96.95(9) . . ?
O4 Fe6 O44 98.31(9) . . ?
O51 Fe6 O44 87.02(13) . . ?
O4 Fe6 O67 94.73(10) . . ?
O51 Fe6 O67 168.32(10) . . ?
O44 Fe6 O67 91.02(10) . . ?
O4 Fe6 O77 95.53(10) . . ?
O51 Fe6 O77 92.12(10) . . ?
O44 Fe6 O77 166.13(10) . . ?
O67 Fe6 O77 87.02(10) . . ?
O4 Fe6 N9 177.62(12) . . ?
O51 Fe6 N9 84.54(13) . . ?
O44 Fe6 N9 83.60(14) . . ?
O67 Fe6 N9 83.79(13) . . ?
O77 Fe6 N9 82.55(14) . . ?
O4 Fe7 O52 97.42(9) . . ?
O4 Fe7 O48 96.11(9) . . ?
O52 Fe7 O48 88.94(13) . . ?
O4 Fe7 O57 94.44(9) . . ?
O52 Fe7 O57 167.93(13) . . ?
O48 Fe7 O57 92.02(14) . . ?
O4 Fe7 O78 95.73(10) . . ?
O52 Fe7 O78 90.07(10) . . ?
O48 Fe7 O78 168.15(10) . . ?
O57 Fe7 O78 86.53(10) . . ?
O4 Fe7 N8 179.24(9) . . ?
O52 Fe7 N8 83.11(10) . . ?
O48 Fe7 N8 84.43(10) . . ?
O57 Fe7 N8 85.01(10) . . ?
O78 Fe7 N8 83.72(10) . . ?
O3 Fe8 O39 97.53(9) . . ?
O3 Fe8 O34 95.71(10) . . ?
O39 Fe8 O34 89.01(14) . . ?
O3 Fe8 O69 94.45(9) . . ?
O39 Fe8 O69 91.86(10) . . ?
O34 Fe8 O69 169.60(10) . . ?
O3 Fe8 O65 96.54(10) . . ?
O39 Fe8 O65 165.75(10) . . ?
O34 Fe8 O65 91.77(10) . . ?
O69 Fe8 O65 84.85(13) . . ?
O3 Fe8 N4 177.16(12) . . ?
O39 Fe8 N4 83.99(14) . . ?
O34 Fe8 N4 86.71(15) . . ?
O69 Fe8 N4 83.08(15) . . ?
O65 Fe8 N4 81.86(13) . . ?
O1 Fe9 O10 97.42(13) . . ?
O1 Fe9 O6 97.20(13) . . ?
O10 Fe9 O6 88.97(13) . . ?
O1 Fe9 O60 95.09(10) . . ?
O10 Fe9 O60 91.62(10) . . ?
O6 Fe9 O60 167.52(10) . . ?
O1 Fe9 O63 95.44(10) . . ?
O10 Fe9 O63 167.07(11) . . ?
O6 Fe9 O63 90.78(9) . . ?
O60 Fe9 O63 85.87(13) . . ?
O1 Fe9 N2 176.69(10) . . ?
O10 Fe9 N2 84.64(12) . . ?
O6 Fe9 N2 85.40(12) . . ?
O60 Fe9 N2 82.25(12) . . ?
O63 Fe9 N2 82.45(12) . . ?
O3 Fe10 O33 98.25(10) . . ?
O3 Fe10 O30 96.39(9) . . ?
O33 Fe10 O30 90.24(14) . . ?
O3 Fe10 O73 94.25(10) . . ?
O33 Fe10 O73 167.15(10) . . ?
O30 Fe10 O73 91.34(9) . . ?
O3 Fe10 O66 94.96(10) . . ?
O33 Fe10 O66 90.15(10) . . ?
O30 Fe10 O66 168.47(10) . . ?
O73 Fe10 O66 85.78(10) . . ?
O3 Fe10 N5 174.65(11) . . ?
O33 Fe10 N5 86.50(12) . . ?
O30 Fe10 N5 86.01(13) . . ?
O73 Fe10 N5 80.88(12) . . ?
O66 Fe10 N5 82.51(13) . . ?
O1 Fe11 O13 97.04(13) . . ?
O1 Fe11 O5 98.60(13) . . ?
O13 Fe11 O5 90.33(13) . . ?
O1 Fe11 O56 94.70(10) . . ?
O13 Fe11 O56 91.25(10) . . ?
O5 Fe11 O56 166.31(10) . . ?
O1 Fe11 O64 94.66(10) . . ?
O13 Fe11 O64 168.18(10) . . ?
O5 Fe11 O64 89.60(10) . . ?
O56 Fe11 O64 86.09(10) . . ?
O1 Fe11 N1 174.85(11) . . ?
O13 Fe11 N1 85.55(14) . . ?
O5 Fe11 N1 85.80(13) . . ?
O56 Fe11 N1 80.77(13) . . ?
O64 Fe11 N1 82.66(14) . . ?
O4 Fe12 O43 96.25(9) . . ?
O4 Fe12 O47 97.49(9) . . ?
O43 Fe12 O47 87.95(12) . . ?
O4 Fe12 O68 95.53(10) . . ?
O43 Fe12 O68 91.69(10) . . ?
O47 Fe12 O68 166.93(10) . . ?
O4 Fe12 O58 95.67(9) . . ?
O43 Fe12 O58 168.07(9) . . ?
O47 Fe12 O58 91.03(12) . . ?
O68 Fe12 O58 86.64(10) . . ?
O4 Fe12 N7 178.20(12) . . ?
O43 Fe12 N7 83.91(13) . . ?
O47 Fe12 N7 84.30(12) . . ?
O68 Fe12 N7 82.67(12) . . ?
O58 Fe12 N7 84.16(13) . . ?
Fe11 O1 Fe4 120.09(15) . . ?
Fe11 O1 Fe9 119.65(14) . . ?
Fe4 O1 Fe9 120.17(15) . . ?
Fe3 O2 Fe2 119.74(13) . . ?
Fe3 O2 Fe1 120.31(13) . . ?
Fe2 O2 Fe1 119.85(13) . . ?
Fe10 O3 Fe5 120.46(15) . . ?
Fe10 O3 Fe8 119.57(15) . . ?
Fe5 O3 Fe8 119.90(14) . . ?
Fe6 O4 Fe12 120.02(14) . . ?
Fe6 O4 Fe7 119.79(14) . . ?
Fe12 O4 Fe7 120.14(14) . . ?
O7 S1 O8 113.3(3) . . ?
O7 S1 O5 109.4(2) . . ?
O8 S1 O5 109.2(2) . . ?
O7 S1 O6 108.8(2) . . ?
O8 S1 O6 109.4(2) . . ?
O5 S1 O6 106.55(19) . . ?
S1 O5 Fe11 135.1(2) . . ?
S1 O6 Fe9 133.60(19) . . ?
O11 S2 O12 113.6(3) . . ?
O11 S2 O9 110.2(2) . . ?
O12 S2 O9 108.2(3) . . ?
O11 S2 O10 108.9(2) . . ?
O12 S2 O10 108.7(2) . . ?
O9 S2 O10 107.0(2) . . ?
S2 O9 Fe4 136.3(2) . . ?
S2 O10 Fe9 132.9(2) . . ?
O16 S3 O15 113.5(3) . . ?
O16 S3 O14 108.2(2) . . ?
O15 S3 O14 109.0(2) . . ?
O16 S3 O13 109.8(2) . . ?
O15 S3 O13 109.0(2) . . ?
O14 S3 O13 107.1(2) . . ?
S3 O13 Fe11 133.5(2) . . ?
S3 O14 Fe4 135.6(2) . . ?
O20 S4 O19 112.8(2) . . ?
O20 S4 O17 109.81(19) . . ?
O19 S4 O17 109.47(19) . . ?
O20 S4 O18 109.6(2) . . ?
O19 S4 O18 107.79(19) . . ?
O17 S4 O18 107.18(16) . . ?
S4 O17 Fe2 134.40(17) . . ?
S4 O18 Fe3 135.41(18) . . ?
O23 S5 O24 113.1(2) . . ?
O23 S5 O21 110.48(19) . . ?
O24 S5 O21 108.46(18) . . ?
O23 S5 O22 110.3(2) . . ?
O24 S5 O22 108.04(19) . . ?
O21 S5 O22 106.22(16) . . ?
S5 O21 Fe1 133.26(17) . . ?
S5 O22 Fe3 133.63(18) . . ?
O27 S6 O28 114.5(2) . . ?
O27 S6 O25 110.52(18) . . ?
O28 S6 O25 109.07(18) . . ?
O27 S6 O26 108.86(18) . . ?
O28 S6 O26 108.14(18) . . ?
O25 S6 O26 105.28(16) . . ?
S6 O25 Fe1 132.72(17) . . ?
S6 O26 Fe2 132.72(17) . . ?
O32 S7 O31 112.8(3) . . ?
O32 S7 O29 107.7(2) . . ?
O31 S7 O29 110.5(2) . . ?
O32 S7 O30 109.4(2) . . ?
O31 S7 O30 109.8(2) . . ?
O29 S7 O30 106.4(2) . . ?
S7 O29 Fe5 134.18(19) . . ?
S7 O30 Fe10 134.26(19) . . ?
O35 S8 O33 108.6(3) . . ?
O35 S8 O36 113.8(3) . . ?
O33 S8 O36 108.1(3) . . ?
O35 S8 O34 109.6(3) . . ?
O33 S8 O34 108.3(2) . . ?
O36 S8 O34 108.3(2) . . ?
S8 O33 Fe10 136.6(2) . . ?
S8 O34 Fe8 133.9(2) . . ?
O41 S9 O42 113.6(2) . . ?
O41 S9 O40 110.1(2) . . ?
O42 S9 O40 109.0(2) . . ?
O41 S9 O39 108.1(2) . . ?
O42 S9 O39 109.3(2) . . ?
O40 S9 O39 106.64(19) . . ?
S9 O39 Fe8 135.7(2) . . ?
S9 O40 Fe5 132.96(19) . . ?
O45 S10 O46 114.7(2) . . ?
O45 S10 O43 109.8(2) . . ?
O46 S10 O43 107.7(2) . . ?
O45 S10 O44 109.6(2) . . ?
O46 S10 O44 108.0(2) . . ?
O43 S10 O44 106.73(19) . . ?
S10 O43 Fe12 134.55(19) . . ?
S10 O44 Fe6 133.23(19) . . ?
O49 S11 O50 113.4(2) . . ?
O49 S11 O48 110.8(2) . . ?
O50 S11 O48 107.3(2) . . ?
O49 S11 O47 110.5(2) . . ?
O50 S11 O47 107.79(19) . . ?
O48 S11 O47 106.66(18) . . ?
S11 O47 Fe12 134.15(18) . . ?
S11 O48 Fe7 134.8(2) . . ?
O54 S12 O52 117.3(3) . . ?
O54 S12 O51 113.5(3) . . ?
O52 S12 O51 110.7(2) . . ?
O54 S12 O53 104.3(4) . . ?
O52 S12 O53 103.4(3) . . ?
O51 S12 O53 106.3(3) . . ?
S12 O51 Fe6 133.7(2) . . ?
S12 O52 Fe7 134.2(2) . . ?
C8 O55 Fe4 130.4(3) . . ?
C8 O56 Fe11 135.0(4) . . ?
C1 O57 Fe7 134.1(3) . . ?
C1 O58 Fe12 132.0(3) . . ?
O57 C1 O58 125.7(5) . . ?
O57 C1 C2 116.4(5) . . ?
O58 C1 C2 117.9(5) . . ?
C7 C2 C3' 117.5(7) . . ?
C7 C2 C3 123.3(6) . . ?
C7 C2 C1 119.3(5) . . ?
C3' C2 C1 121.7(7) . . ?
C3 C2 C1 114.2(6) . . ?
C3' C3 C4 82.0(15) . . ?
C3' C3 C2 72.6(14) . . ?
C4 C3 C2 114.7(9) . . ?
C3' C3 C4' 53.9(13) . . ?
C2 C3 C4' 101.5(9) . . ?
C3 C3' C4' 99.8(17) . . ?
C3 C3' C2 76.2(14) . . ?
C4' C3' C2 120.5(10) . . ?
C3 C3' C4 68.3(14) . . ?
C2 C3' C4 110.5(9) . . ?
C4' C4 C5 83.9(17) . . ?
C4' C4 C3 94.7(17) . . ?
C5 C4 C3 119.3(11) . . ?
C4' C4 C3' 65.0(15) . . ?
C5 C4 C3' 113.1(11) . . ?
C4' C4 C5' 58.1(15) . . ?
C3 C4 C5' 120.0(10) . . ?
C3' C4 C5' 101.0(9) . . ?
C4 C4' C5' 91.3(18) . . ?
C4 C4' C3' 83.5(17) . . ?
C5' C4' C3' 122.5(13) . . ?
C4 C4' C5 64.3(15) . . ?
C3' C4' C5 112.6(12) . . ?
C4 C4' C3 57.2(14) . . ?
C5' C4' C3 117.8(12) . . ?
C5 C4' C3 97.6(10) . . ?
C5' C5 C4 94(2) . . ?
C5' C5 C6 88.2(19) . . ?
C4 C5 C6 123.3(12) . . ?
C5' C5 C6' 63.2(16) . . ?
C4 C5 C6' 117.1(12) . . ?
C5' C5 C12 81.7(18) . . ?
C4 C5 C12 119.4(13) . . ?
C6 C5 C12 117.0(12) . . ?
C6' C5 C12 114.0(12) . . ?
C5' C5 C4' 62.2(17) . . ?
C6 C5 C4' 114.5(12) . . ?
C6' C5 C4' 96.7(11) . . ?
C12 C5 C4' 114.4(12) . . ?
C5' C5 C12' 60.8(16) . . ?
C4 C5 C12' 113.2(11) . . ?
C6 C5 C12' 116.6(11) . . ?
C6' C5 C12' 104.3(11) . . ?
C4' C5 C12' 98.2(10) . . ?
C5 C5' C6' 88.4(19) . . ?
C5 C5' C4' 90.5(19) . . ?
C6' C5' C4' 114.4(12) . . ?
C5 C5' C12' 95.8(19) . . ?
C6' C5' C12' 126.8(12) . . ?
C4' C5' C12' 118.5(12) . . ?
C5 C5' C12 71.7(17) . . ?
C6' C5' C12 119.9(12) . . ?
C4' C5' C12 121.6(12) . . ?
C5 C5' C6 65.2(17) . . ?
C4' C5' C6 116.4(11) . . ?
C12' C5' C6 121.5(10) . . ?
C12 C5' C6 105.5(10) . . ?
C5 C5' C4 60.2(17) . . ?
C6' C5' C4 113.6(10) . . ?
C12' C5' C4 114.1(10) . . ?
C12 C5' C4 104.2(9) . . ?
C6 C5' C4 102.9(9) . . ?
C6' C6 C5 82(2) . . ?
C6' C6 C7 83(2) . . ?
C5 C6 C7 116.0(11) . . ?
C6' C6 C5' 56(2) . . ?
C7 C6 C5' 112.3(10) . . ?
C6 C6' C5' 101(2) . . ?
C6 C6' C5 73(2) . . ?
C6 C6' C7 72(2) . . ?
C5' C6' C7 124.4(12) . . ?
C5 C6' C7 109.2(11) . . ?
C2 C7 C6 120.4(7) . . ?
C2 C7 C6' 115.5(8) . . ?
O56 C8 O55 126.2(5) . . ?
O56 C8 C9 116.5(6) . . ?
O55 C8 C9 117.3(5) . . ?
C14 C9 C10' 119.9(9) . . ?
C14 C9 C10 116.1(9) . . ?
C10' C9 C14' 98.2(9) . . ?
C10 C9 C14' 117.4(9) . . ?
C14 C9 C8 116.8(7) . . ?
C10' C9 C8 122.6(7) . . ?
C10 C9 C8 117.4(7) . . ?
C14' C9 C8 125.0(8) . . ?
C10' C10 C9 70.0(12) . . ?
C10' C10 C11 91.6(14) . . ?
C9 C10 C11 119.0(11) . . ?
C10' C10 C11' 55.6(11) . . ?
C9 C10 C11' 102.5(9) . . ?
C10 C10' C9 71.5(12) . . ?
C10 C10' C11' 92.3(14) . . ?
C9 C10' C11' 120.9(9) . . ?
C10 C10' C11 57.8(11) . . ?
C9 C10' C11 103.7(8) . . ?
C11' C11 C12 81.6(14) . . ?
C11' C11 C10 82.6(13) . . ?
C12 C11 C10 118.0(13) . . ?
C11' C11 C12' 57.4(10) . . ?
C10 C11 C12' 110.3(11) . . ?
C11' C11 C10' 52.1(10) . . ?
C12 C11 C10' 106.4(12) . . ?
C12' C11 C10' 89.2(9) . . ?
C11 C11' C12' 82.6(13) . . ?
C11 C11' C10' 93.3(13) . . ?
C12' C11' C10' 118.6(11) . . ?
C11 C11' C12 57.5(10) . . ?
C10' C11' C12 115.6(9) . . ?
C11 C11' C10 61.3(10) . . ?
C12' C11' C10 111.7(10) . . ?
C12 C11' C10 96.3(9) . . ?
C12' C12 C11 101(2) . . ?
C12' C12 C13 90(2) . . ?
C11 C12 C13 123.1(14) . . ?
C12' C12 C5 102(2) . . ?
C11 C12 C5 118.4(14) . . ?
C13 C12 C5 113.3(13) . . ?
C12' C12 C13' 53.2(19) . . ?
C11 C12 C13' 121.2(12) . . ?
C5 C12 C13' 118.5(11) . . ?
C12' C12 C11' 60(2) . . ?
C13 C12 C11' 118.5(12) . . ?
C5 C12 C11' 124.0(11) . . ?
C13' C12 C11' 93.3(10) . . ?
C12' C12 C5' 76(2) . . ?
C11 C12 C5' 118.9(12) . . ?
C13 C12 C5' 117.9(12) . . ?
C13' C12 C5' 105.3(10) . . ?
C11' C12 C5' 105.4(10) . . ?
C12 C12' C13' 102(2) . . ?
C12 C12' C11' 95(2) . . ?
C13' C12' C11' 119.1(13) . . ?
C12 C12' C5' 79(2) . . ?
C13' C12' C5' 122.7(13) . . ?
C11' C12' C5' 117.8(12) . . ?
C12 C12' C13 65(2) . . ?
C11' C12' C13 122.7(12) . . ?
C5' C12' C13 110.8(11) . . ?
C12 C12' C11 55.2(19) . . ?
C13' C12' C11 122.1(12) . . ?
C5' C12' C11 105.4(11) . . ?
C13 C12' C11 100.2(11) . . ?
C12 C12' C5 56.3(19) . . ?
C13' C12' C5 118.5(12) . . ?
C11' C12' C5 119.6(12) . . ?
C13 C12' C5 94.3(11) . . ?
C11 C12' C5 92.8(10) . . ?
C13' C13 C12 77.5(15) . . ?
C13' C13 C14 81.5(15) . . ?
C12 C13 C14 112.1(13) . . ?
C13' C13 C12' 52.8(12) . . ?
C14 C13 C12' 105.5(12) . . ?
C13' C13 C14' 51.9(12) . . ?
C12 C13 C14' 101.5(12) . . ?
C12' C13 C14' 85.2(11) . . ?
C13 C13' C12' 90.8(17) . . ?
C13 C13' C14' 95.5(17) . . ?
C12' C13' C14' 117.2(13) . . ?
C13 C13' C12 65.9(14) . . ?
C14' C13' C12 115.6(11) . . ?
C13 C13' C14 65.1(13) . . ?
C12' C13' C14 114.6(11) . . ?
C12 C13' C14 100.2(9) . . ?
C14' C14 C9 79.9(17) . . ?
C14' C14 C13 87.3(18) . . ?
C9 C14 C13 123.6(12) . . ?
C14' C14 C13' 54.0(15) . . ?
C9 C14 C13' 110.1(10) . . ?
C14 C14' C13' 95.7(19) . . ?
C14 C14' C9 65.2(16) . . ?
C13' C14' C9 123.3(12) . . ?
C14 C14' C13 63.1(16) . . ?
C9 C14' C13 105.8(11) . . ?
C22 O59 Fe4 131.0(3) . . ?
C22 O60 Fe9 132.9(4) . . ?
C15 O61 Fe2 131.7(3) . . ?
C15 O62 Fe3 133.8(3) . . ?
O62 C15 O61 125.3(4) . . ?
O62 C15 C16 118.0(4) . . ?
O61 C15 C16 116.7(5) . . ?
C21 C16 C17 116.7(5) . . ?
C21 C16 C15 123.6(5) . . ?
C17 C16 C15 119.6(5) . . ?
C18 C17 C16 122.7(6) . . ?
C18 C17 H17A 118.6 . . ?
C16 C17 H17A 118.6 . . ?
C19 C18 C17 120.7(6) . . ?
C19 C18 H18A 119.7 . . ?
C17 C18 H18A 119.7 . . ?
C18 C19 C20 116.3(5) . . ?
C18 C19 C26 121.4(5) . . ?
C20 C19 C26 122.1(5) . . ?
C21 C20 C19 122.9(5) . . ?
C21 C20 H20A 118.5 . . ?
C19 C20 H20A 118.5 . . ?
C16 C21 C20 120.6(5) . . ?
C16 C21 H21A 119.7 . . ?
C20 C21 H21A 119.7 . . ?
O60 C22 O59 127.1(5) . . ?
O60 C22 C23 116.3(5) . . ?
O59 C22 C23 116.6(5) . . ?
C24 C23 C28 117.9(5) . . ?
C24 C23 C22 121.7(6) . . ?
C28 C23 C22 120.4(5) . . ?
C23 C24 C25 122.6(6) . . ?
C23 C24 H24A 118.7 . . ?
C25 C24 H24A 118.7 . . ?
C26 C25 C24 121.2(6) . . ?
C26 C25 H25A 119.4 . . ?
C24 C25 H25A 119.4 . . ?
C25 C26 C27 115.8(5) . . ?
C25 C26 C19 123.7(5) . . ?
C27 C26 C19 120.4(5) . . ?
C28 C27 C26 122.1(5) . . ?
C28 C27 H27A 118.9 . . ?
C26 C27 H27A 118.9 . . ?
C23 C28 C27 120.2(5) . . ?
C23 C28 H28A 119.9 . . ?
C27 C28 H28A 119.9 . . ?
C36 O63 Fe9 132.6(4) . . ?
C36 O64 Fe11 132.4(3) . . ?
C29 O65 Fe8 132.6(4) . . ?
C29 O66 Fe10 133.4(4) . . ?
O66 C29 O65 125.2(5) . . ?
O66 C29 C30 117.5(6) . . ?
O65 C29 C30 117.3(6) . . ?
C31 C30 C35 116.2(6) . . ?
C31 C30 C29 122.1(6) . . ?
C35 C30 C29 121.6(6) . . ?
C30 C31 C32 122.8(7) . . ?
C30 C31 H31A 118.6 . . ?
C32 C31 H31A 118.6 . . ?
C33 C32 C31 120.2(7) . . ?
C33 C32 H32A 119.9 . . ?
C31 C32 H32A 119.9 . . ?
C34 C33 C32 116.0(6) . . ?
C34 C33 C40 123.0(6) . . ?
C32 C33 C40 120.9(7) . . ?
C33 C34 C35 122.7(6) . . ?
C33 C34 H34A 118.7 . . ?
C35 C34 H34A 118.7 . . ?
C30 C35 C34 122.1(7) . . ?
C30 C35 H35A 118.9 . . ?
C34 C35 H35A 118.9 . . ?
O63 C36 O64 125.3(5) . . ?
O63 C36 C37 119.5(6) . . ?
O64 C36 C37 115.2(5) . . ?
C42 C37 C38 116.3(6) . . ?
C42 C37 C36 120.7(6) . . ?
C38 C37 C36 123.0(6) . . ?
C39 C38 C37 121.1(6) . . ?
C39 C38 H38A 119.4 . . ?
C37 C38 H38A 119.4 . . ?
C38 C39 C40 122.4(6) . . ?
C38 C39 H39A 118.8 . . ?
C40 C39 H39A 118.8 . . ?
C41 C40 C39 117.0(6) . . ?
C41 C40 C33 120.4(6) . . ?
C39 C40 C33 122.6(6) . . ?
C40 C41 C42 120.4(6) . . ?
C40 C41 H41A 119.8 . . ?
C42 C41 H41A 119.8 . . ?
C37 C42 C41 122.6(6) . . ?
C37 C42 H42A 118.7 . . ?
C41 C42 H42A 118.7 . . ?
C43 O67 Fe6 133.3(4) . . ?
C43 O68 Fe12 132.1(4) . . ?
C50 O69 Fe8 131.1(3) . . ?
C50 O70 Fe5 134.6(3) . . ?
O68 C43 O67 126.1(5) . . ?
O68 C43 C44 118.3(6) . . ?
O67 C43 C44 115.6(6) . . ?
C45 C44 C49 118.2(6) . . ?
C45 C44 C43 121.2(6) . . ?
C49 C44 C43 120.6(6) . . ?
C44 C45 C46 119.0(6) . . ?
C44 C45 H45A 120.5 . . ?
C46 C45 H45A 120.5 . . ?
C47 C46 C45 124.1(6) . . ?
C47 C46 H46A 118.0 . . ?
C45 C46 H46A 118.0 . . ?
C48 C47 C46 115.6(6) . . ?
C48 C47 C54 123.4(6) . . ?
C46 C47 C54 120.6(6) . . ?
C47 C48 C49 122.2(6) . . ?
C47 C48 H48A 118.9 . . ?
C49 C48 H48A 118.9 . . ?
C44 C49 C48 120.4(6) . . ?
C44 C49 H49A 119.8 . . ?
C48 C49 H49A 119.8 . . ?
O70 C50 O69 126.2(5) . . ?
O70 C50 C51 117.5(5) . . ?
O69 C50 C51 116.3(6) . . ?
C52 C51 C56 118.9(6) . . ?
C52 C51 C50 121.4(6) . . ?
C56 C51 C50 119.7(6) . . ?
C51 C52 C53 120.4(6) . . ?
C51 C52 H52A 119.8 . . ?
C53 C52 H52A 119.8 . . ?
C54 C53 C52 123.0(6) . . ?
C54 C53 H53A 118.5 . . ?
C52 C53 H53A 118.5 . . ?
C53 C54 C55 114.6(6) . . ?
C53 C54 C47 124.3(6) . . ?
C55 C54 C47 121.1(6) . . ?
C54 C55 C56 123.1(6) . . ?
C54 C55 H55A 118.5 . . ?
C56 C55 H55A 118.5 . . ?
C51 C56 C55 119.9(6) . . ?
C51 C56 H56A 120.0 . . ?
C55 C56 H56A 120.0 . . ?
C57 O71 Fe3 132.3(3) . . ?
C57 O72 Fe1 132.0(3) . . ?
C64 O73 Fe10 133.7(3) . . ?
C64 O74 Fe5 131.1(3) . . ?
O72 C57 O71 127.1(4) . . ?
O72 C57 C58 117.5(4) . . ?
O71 C57 C58 115.3(4) . . ?
C59 C58 C63 119.1(5) . . ?
C59 C58 C57 121.0(5) . . ?
C63 C58 C57 119.9(5) . . ?
C58 C59 C60 120.5(5) . . ?
C58 C59 H59A 119.7 . . ?
C60 C59 H59A 119.7 . . ?
C61 C60 C59 121.0(5) . . ?
C61 C60 H60A 119.5 . . ?
C59 C60 H60A 119.5 . . ?
C62 C61 C60 117.5(5) . . ?
C62 C61 C68 120.9(5) . . ?
C60 C61 C68 121.5(5) . . ?
C61 C62 C63 121.6(5) . . ?
C61 C62 H62A 119.2 . . ?
C63 C62 H62A 119.2 . . ?
C62 C63 C58 120.2(5) . . ?
C62 C63 H63A 119.9 . . ?
C58 C63 H63A 119.9 . . ?
O73 C64 O74 126.5(5) . . ?
O73 C64 C65 116.1(4) . . ?
O74 C64 C65 117.4(4) . . ?
C66 C65 C70 116.9(5) . . ?
C66 C65 C64 122.5(5) . . ?
C70 C65 C64 120.6(5) . . ?
C65 C66 C67 123.9(6) . . ?
C65 C66 H66A 118.1 . . ?
C67 C66 H66A 118.1 . . ?
C68 C67 C66 119.6(6) . . ?
C68 C67 H67A 120.2 . . ?
C66 C67 H67A 120.2 . . ?
C69 C68 C67 117.2(5) . . ?
C69 C68 C61 120.3(5) . . ?
C67 C68 C61 122.3(5) . . ?
C68 C69 C70 121.7(6) . . ?
C68 C69 H69A 119.2 . . ?
C70 C69 H69A 119.2 . . ?
C65 C70 C69 120.7(6) . . ?
C65 C70 H70A 119.7 . . ?
C69 C70 H70A 119.7 . . ?
C78 O75 Fe1 134.4(3) . . ?
C78 O76 Fe2 130.9(3) . . ?
C71 O77 Fe6 132.9(3) . . ?
C71 O78 Fe7 132.2(3) . . ?
O78 C71 O77 126.0(5) . . ?
O78 C71 C72 117.4(5) . . ?
O77 C71 C72 116.6(6) . . ?
C77 C72 C73 116.6(5) . . ?
C77 C72 C71 121.1(6) . . ?
C73 C72 C71 122.2(6) . . ?
C72 C73 C74 122.5(6) . . ?
C72 C73 H73A 118.8 . . ?
C74 C73 H73A 118.8 . . ?
C75 C74 C73 120.2(6) . . ?
C75 C74 H74A 119.9 . . ?
C73 C74 H74A 119.9 . . ?
C76 C75 C74 116.7(5) . . ?
C76 C75 C82 122.3(6) . . ?
C74 C75 C82 120.8(6) . . ?
C75 C76 C77 122.2(6) . . ?
C75 C76 H76A 118.9 . . ?
C77 C76 H76A 118.9 . . ?
C72 C77 C76 121.5(6) . . ?
C72 C77 H77A 119.2 . . ?
C76 C77 H77A 119.2 . . ?
O75 C78 O76 126.1(4) . . ?
O75 C78 C79 116.5(5) . . ?
O76 C78 C79 117.2(5) . . ?
C80 C79 C84 117.0(5) . . ?
C80 C79 C78 122.7(5) . . ?
C84 C79 C78 120.3(5) . . ?
C79 C80 C81 123.0(5) . . ?
C79 C80 H80A 118.5 . . ?
C81 C80 H80A 118.5 . . ?
C82 C81 C80 119.8(5) . . ?
C82 C81 H81A 120.1 . . ?
C80 C81 H81A 120.1 . . ?
C81 C82 C83 118.4(5) . . ?
C81 C82 C75 122.0(6) . . ?
C83 C82 C75 119.6(5) . . ?
C82 C83 C84 120.6(5) . . ?
C82 C83 H83A 119.7 . . ?
C84 C83 H83A 119.7 . . ?
C79 C84 C83 121.1(5) . . ?
C79 C84 H84A 119.4 . . ?
C83 C84 H84A 119.4 . . ?
C89 N1 C85 116.6(6) . . ?
C89 N1 Fe11 121.2(5) . . ?
C85 N1 Fe11 122.0(5) . . ?
N1 C85 C86 123.6(7) . . ?
N1 C85 H85A 118.2 . . ?
C86 C85 H85A 118.2 . . ?
C87 C86 C85 117.9(9) . . ?
C87 C86 H86A 121.1 . . ?
C85 C86 H86A 121.1 . . ?
C88 C87 C86 118.7(10) . . ?
C88 C87 H87A 120.6 . . ?
C86 C87 H87A 120.6 . . ?
C87 C88 C89 120.7(10) . . ?
C87 C88 H88A 119.6 . . ?
C89 C88 H88A 119.6 . . ?
N1 C89 C88 122.4(8) . . ?
N1 C89 H89A 118.8 . . ?
C88 C89 H89A 118.8 . . ?
C94 N2 C90 119.8(5) . . ?
C94 N2 Fe9 120.9(4) . . ?
C90 N2 Fe9 119.4(4) . . ?
N2 C90 C91 120.3(6) . . ?
N2 C90 H90A 119.9 . . ?
C91 C90 H90A 119.9 . . ?
C92 C91 C90 119.2(8) . . ?
C92 C91 H91A 120.4 . . ?
C90 C91 H91A 120.4 . . ?
C91 C92 C93 120.1(8) . . ?
C91 C92 H92A 119.9 . . ?
C93 C92 H92A 119.9 . . ?
C94 C93 C92 117.8(7) . . ?
C94 C93 H93A 121.1 . . ?
C92 C93 H93A 121.1 . . ?
N2 C94 C93 122.8(6) . . ?
N2 C94 H94A 118.6 . . ?
C93 C94 H94A 118.6 . . ?
C99 N3 C95 116.8(6) . . ?
C99 N3 Fe4 122.4(5) . . ?
C95 N3 Fe4 120.5(5) . . ?
N3 C95 C96 119.6(7) . . ?
N3 C95 H95A 120.2 . . ?
C96 C95 H95A 120.2 . . ?
C97 C96 C95 118.2(8) . . ?
C97 C96 H96A 120.9 . . ?
C95 C96 H96A 120.9 . . ?
C98 C97 C96 120.0(9) . . ?
C98 C97 H97A 120.0 . . ?
C96 C97 H97A 120.0 . . ?
C97 C98 C99 118.2(9) . . ?
C97 C98 H98A 120.9 . . ?
C99 C98 H98A 120.9 . . ?
N3 C99 C98 127.0(7) . . ?
N3 C99 H99A 116.5 . . ?
C98 C99 H99A 116.5 . . ?
C100 N4 C104 120.1(7) . . ?
C100 N4 Fe8 121.4(6) . . ?
C104 N4 Fe8 118.4(5) . . ?
N4 C100 C101 113.4(9) . . ?
N4 C100 H10A 123.3 . . ?
C101 C100 H10A 123.3 . . ?
C102 C101 C100 126.6(13) . . ?
C102 C101 H10B 116.7 . . ?
C100 C101 H10B 116.7 . . ?
C101 C102 C103 117.0(17) . . ?
C101 C102 H10C 121.5 . . ?
C103 C102 H10C 121.5 . . ?
C104 C103 C102 117.6(14) . . ?
C104 C103 H10D 121.2 . . ?
C102 C103 H10D 121.2 . . ?
C103 C104 N4 125.0(9) . . ?
C103 C104 H10E 117.5 . . ?
N4 C104 H10E 117.5 . . ?
C109 N5 C105 117.6(5) . . ?
C109 N5 Fe10 122.8(5) . . ?
C105 N5 Fe10 119.6(4) . . ?
N5 C105 C106 123.5(7) . . ?
N5 C105 H10F 118.2 . . ?
C106 C105 H10F 118.2 . . ?
C107 C106 C105 118.3(8) . . ?
C107 C106 H10G 120.8 . . ?
C105 C106 H10G 120.8 . . ?
C106 C107 C108 120.8(9) . . ?
C106 C107 H10H 119.6 . . ?
C108 C107 H10H 119.6 . . ?
C107 C108 C109 118.0(8) . . ?
C107 C108 H10I 121.0 . . ?
C109 C108 H10I 121.0 . . ?
N5 C109 C108 121.6(7) . . ?
N5 C109 H10J 119.2 . . ?
C108 C109 H10J 119.2 . . ?
C110 N6 C114 118.2(5) . . ?
C110 N6 Fe5 121.5(4) . . ?
C114 N6 Fe5 120.2(4) . . ?
N6 C110 C111 124.4(6) . . ?
N6 C110 H11A 117.8 . . ?
C111 C110 H11A 117.8 . . ?
C110 C111 C112 116.5(7) . . ?
C110 C111 H11B 121.8 . . ?
C112 C111 H11B 121.8 . . ?
C113 C112 C111 121.1(8) . . ?
C113 C112 H11C 119.4 . . ?
C111 C112 H11C 119.4 . . ?
C112 C113 C114 118.8(8) . . ?
C112 C113 H11D 120.6 . . ?
C114 C113 H11D 120.6 . . ?
N6 C114 C113 121.0(6) . . ?
N6 C114 H11E 119.5 . . ?
C113 C114 H11E 119.5 . . ?
C119 N7 C115 118.1(6) . . ?
C119 N7 Fe12 121.2(5) . . ?
C115 N7 Fe12 120.7(5) . . ?
N7 C115 C116 121.8(7) . . ?
N7 C115 H11F 119.1 . . ?
C116 C115 H11F 119.1 . . ?
C117 C116 C115 121.6(9) . . ?
C117 C116 H11G 119.2 . . ?
C115 C116 H11G 119.2 . . ?
C116 C117 C118 119.6(9) . . ?
C116 C117 H11H 120.2 . . ?
C118 C117 H11H 120.2 . . ?
C117 C118 C119 116.6(8) . . ?
C117 C118 H11I 121.7 . . ?
C119 C118 H11I 121.7 . . ?
N7 C119 C118 122.2(7) . . ?
N7 C119 H11J 118.9 . . ?
C118 C119 H11J 118.9 . . ?
C124 N8 C120 129.0 . . ?
C124 N8 Fe7 112.0(3) . . ?
C120 N8 Fe7 118.7(3) . . ?
C121 C120 N8 123.0 . . ?
C121 C120 H120 118.5 . . ?
N8 C120 H120 118.5 . . ?
C120 C121 C122 107.7 . . ?
C120 C121 H121 126.2 . . ?
C122 C121 H121 126.2 . . ?
C123 C122 C121 122.0 . . ?
C123 C122 H122 119.0 . . ?
C121 C122 H122 119.0 . . ?
C122 C123 C124 127.0 . . ?
C122 C123 H123 116.5 . . ?
C124 C123 H123 116.5 . . ?
N8 C124 C123 110.2 . . ?
N8 C124 H124 124.9 . . ?
C123 C124 H124 124.9 . . ?
C129 N9 C125 117.2(6) . . ?
C129 N9 Fe6 120.3(5) . . ?
C125 N9 Fe6 122.5(5) . . ?
C126 C125 N9 125.0(9) . . ?
C126 C125 H12A 117.5 . . ?
N9 C125 H12A 117.5 . . ?
C125 C126 C127 118.1(12) . . ?
C125 C126 H12B 121.0 . . ?
C127 C126 H12B 121.0 . . ?
C126 C127 C128 122.3(12) . . ?
C126 C127 H12C 118.9 . . ?
C128 C127 H12C 118.9 . . ?
C127 C128 C129 116.0(10) . . ?
C127 C128 H12D 122.0 . . ?
C129 C128 H12D 122.0 . . ?
N9 C129 C128 121.4(8) . . ?
N9 C129 H12E 119.3 . . ?
C128 C129 H12E 119.3 . . ?
C134 N10 C130 117.5(4) . . ?
C134 N10 Fe1 121.0(3) . . ?
C130 N10 Fe1 121.3(3) . . ?
N10 C130 C131 123.3(5) . . ?
N10 C130 H13A 118.4 . . ?
C131 C130 H13A 118.4 . . ?
C132 C131 C130 120.1(5) . . ?
C132 C131 H13B 120.0 . . ?
C130 C131 H13B 120.0 . . ?
C131 C132 C133 118.1(5) . . ?
C131 C132 H13C 121.0 . . ?
C133 C132 H13C 121.0 . . ?
C132 C133 C134 118.6(5) . . ?
C132 C133 H13D 120.7 . . ?
C134 C133 H13D 120.7 . . ?
N10 C134 C133 122.4(5) . . ?
N10 C134 H13E 118.8 . . ?
C133 C134 H13E 118.8 . . ?
C135 N11 C139 118.2(5) . . ?
C135 N11 Fe3 121.6(4) . . ?
C139 N11 Fe3 120.2(4) . . ?
N11 C135 C136 121.7(6) . . ?
N11 C135 H13F 119.2 . . ?
C136 C135 H13F 119.2 . . ?
C137 C136 C135 117.2(7) . . ?
C137 C136 H13G 121.4 . . ?
C135 C136 H13G 121.4 . . ?
C138 C137 C136 120.5(7) . . ?
C138 C137 H13H 119.7 . . ?
C136 C137 H13H 119.7 . . ?
C137 C138 C139 118.2(7) . . ?
C137 C138 H13I 120.9 . . ?
C139 C138 H13I 120.9 . . ?
N11 C139 C138 124.1(6) . . ?
N11 C139 H13J 118.0 . . ?
C138 C139 H13J 118.0 . . ?
C144 N12 C140 116.9(4) . . ?
C144 N12 Fe2 121.1(3) . . ?
C140 N12 Fe2 121.7(3) . . ?
N12 C140 C141 122.9(5) . . ?
N12 C140 H14A 118.5 . . ?
C141 C140 H14A 118.5 . . ?
C140 C141 C142 120.1(6) . . ?
C140 C141 H14B 119.9 . . ?
C142 C141 H14B 119.9 . . ?
C143 C142 C141 118.6(6) . . ?
C143 C142 H14C 120.7 . . ?
C141 C142 H14C 120.7 . . ?
C142 C143 C144 118.3(5) . . ?
C142 C143 H14D 120.8 . . ?
C144 C143 H14D 120.8 . . ?
N12 C144 C143 123.1(5) . . ?
N12 C144 H14E 118.5 . . ?
C143 C144 H14E 118.4 . . ?

loop_
_geom_torsion_atom_site_label_1
_geom_torsion_atom_site_label_2
_geom_torsion_atom_site_label_3
_geom_torsion_atom_site_label_4
_geom_torsion
_geom_torsion_site_symmetry_1
_geom_torsion_site_symmetry_2
_geom_torsion_site_symmetry_3
_geom_torsion_site_symmetry_4
_geom_torsion_publ_flag
O13 Fe11 O1 Fe4 -48.65(17) . . . . ?
O5 Fe11 O1 Fe4 -140.06(16) . . . . ?
O56 Fe11 O1 Fe4 43.20(14) . . . . ?
O64 Fe11 O1 Fe4 129.64(13) . . . . ?
O13 Fe11 O1 Fe9 134.80(16) . . . . ?
O5 Fe11 O1 Fe9 43.40(17) . . . . ?
O56 Fe11 O1 Fe9 -133.35(13) . . . . ?
O64 Fe11 O1 Fe9 -46.90(14) . . . . ?
O9 Fe4 O1 Fe11 137.72(17) . . . . ?
O14 Fe4 O1 Fe11 46.41(18) . . . . ?
O59 Fe4 O1 Fe11 -129.89(13) . . . . ?
O55 Fe4 O1 Fe11 -44.46(15) . . . . ?
O9 Fe4 O1 Fe9 -45.75(18) . . . . ?
O14 Fe4 O1 Fe9 -137.07(16) . . . . ?
O59 Fe4 O1 Fe9 46.64(14) . . . . ?
O55 Fe4 O1 Fe9 132.07(13) . . . . ?
O10 Fe9 O1 Fe11 -135.63(16) . . . . ?
O6 Fe9 O1 Fe11 -45.73(17) . . . . ?
O60 Fe9 O1 Fe11 132.06(13) . . . . ?
O63 Fe9 O1 Fe11 45.75(14) . . . . ?
O10 Fe9 O1 Fe4 47.83(17) . . . . ?
O6 Fe9 O1 Fe4 137.73(16) . . . . ?
O60 Fe9 O1 Fe4 -44.48(14) . . . . ?
O63 Fe9 O1 Fe4 -130.80(13) . . . . ?
O22 Fe3 O2 Fe2 -136.31(15) . . . . ?
O18 Fe3 O2 Fe2 -47.39(17) . . . . ?
O71 Fe3 O2 Fe2 130.98(13) . . . . ?
O62 Fe3 O2 Fe2 43.76(14) . . . . ?
O22 Fe3 O2 Fe1 47.35(16) . . . . ?
O18 Fe3 O2 Fe1 136.27(15) . . . . ?
O71 Fe3 O2 Fe1 -45.36(14) . . . . ?
O62 Fe3 O2 Fe1 -132.58(13) . . . . ?
O26 Fe2 O2 Fe3 138.39(15) . . . . ?
O76 Fe2 O2 Fe3 -127.70(13) . . . . ?
O17 Fe2 O2 Fe3 50.77(16) . . . . ?
O61 Fe2 O2 Fe3 -41.04(14) . . . . ?
O26 Fe2 O2 Fe1 -45.26(16) . . . . ?
O76 Fe2 O2 Fe1 48.65(14) . . . . ?
O17 Fe2 O2 Fe1 -132.87(15) . . . . ?
O61 Fe2 O2 Fe1 135.32(12) . . . . ?
O25 Fe1 O2 Fe3 -139.08(15) . . . . ?
O21 Fe1 O2 Fe3 -48.08(16) . . . . ?
O72 Fe1 O2 Fe3 44.08(14) . . . . ?
O75 Fe1 O2 Fe3 129.28(13) . . . . ?
O25 Fe1 O2 Fe2 44.59(16) . . . . ?
O21 Fe1 O2 Fe2 135.59(15) . . . . ?
O72 Fe1 O2 Fe2 -132.25(13) . . . . ?
O75 Fe1 O2 Fe2 -47.05(13) . . . . ?
O33 Fe10 O3 Fe5 -137.87(13) . . . . ?
O30 Fe10 O3 Fe5 -46.70(15) . . . . ?
O73 Fe10 O3 Fe5 45.13(15) . . . . ?
O66 Fe10 O3 Fe5 131.25(14) . . . . ?
O33 Fe10 O3 Fe8 45.07(15) . . . . ?
O30 Fe10 O3 Fe8 136.23(13) . . . . ?
O73 Fe10 O3 Fe8 -131.93(13) . . . . ?
O66 Fe10 O3 Fe8 -45.81(14) . . . . ?
O40 Fe5 O3 Fe10 136.63(13) . . . . ?
O29 Fe5 O3 Fe10 46.58(15) . . . . ?
O70 Fe5 O3 Fe10 -130.39(14) . . . . ?
O74 Fe5 O3 Fe10 -45.31(15) . . . . ?
O40 Fe5 O3 Fe8 -46.31(15) . . . . ?
O29 Fe5 O3 Fe8 -136.36(13) . . . . ?
O70 Fe5 O3 Fe8 46.67(14) . . . . ?
O74 Fe5 O3 Fe8 131.74(13) . . . . ?
O39 Fe8 O3 Fe10 -139.64(13) . . . . ?
O34 Fe8 O3 Fe10 -49.88(14) . . . . ?
O69 Fe8 O3 Fe10 127.89(13) . . . . ?
O65 Fe8 O3 Fe10 42.57(15) . . . . ?
O39 Fe8 O3 Fe5 43.28(15) . . . . ?
O34 Fe8 O3 Fe5 133.04(13) . . . . ?
O69 Fe8 O3 Fe5 -49.19(14) . . . . ?
O65 Fe8 O3 Fe5 -134.51(13) . . . . ?
O51 Fe6 O4 Fe12 134.09(12) . . . . ?
O44 Fe6 O4 Fe12 46.09(14) . . . . ?
O67 Fe6 O4 Fe12 -45.63(14) . . . . ?
O77 Fe6 O4 Fe12 -133.09(13) . . . . ?
O51 Fe6 O4 Fe7 -48.34(14) . . . . ?
O44 Fe6 O4 Fe7 -136.33(12) . . . . ?
O67 Fe6 O4 Fe7 131.94(12) . . . . ?
O77 Fe6 O4 Fe7 44.48(14) . . . . ?
O43 Fe12 O4 Fe6 -47.11(14) . . . . ?
O47 Fe12 O4 Fe6 -135.85(12) . . . . ?
O68 Fe12 O4 Fe6 45.20(14) . . . . ?
O58 Fe12 O4 Fe6 132.36(13) . . . . ?
O43 Fe12 O4 Fe7 135.33(12) . . . . ?
O47 Fe12 O4 Fe7 46.58(14) . . . . ?
O68 Fe12 O4 Fe7 -132.36(12) . . . . ?
O58 Fe12 O4 Fe7 -45.21(14) . . . . ?
O52 Fe7 O4 Fe6 45.36(14) . . . . ?
O48 Fe7 O4 Fe6 135.08(12) . . . . ?
O57 Fe7 O4 Fe6 -132.41(13) . . . . ?
O78 Fe7 O4 Fe6 -45.46(14) . . . . ?
O52 Fe7 O4 Fe12 -137.07(12) . . . . ?
O48 Fe7 O4 Fe12 -47.35(14) . . . . ?
O57 Fe7 O4 Fe12 45.16(14) . . . . ?
O78 Fe7 O4 Fe12 132.11(12) . . . . ?
O7 S1 O5 Fe11 155.5(3) . . . . ?
O8 S1 O5 Fe11 -80.0(3) . . . . ?
O6 S1 O5 Fe11 38.0(4) . . . . ?
O1 Fe11 O5 S1 -40.9(3) . . . . ?
O13 Fe11 O5 S1 -138.0(3) . . . . ?
O56 Fe11 O5 S1 125.3(4) . . . . ?
O64 Fe11 O5 S1 53.8(3) . . . . ?
N1 Fe11 O5 S1 136.4(3) . . . . ?
O7 S1 O6 Fe9 -160.6(3) . . . . ?
O8 S1 O6 Fe9 75.2(3) . . . . ?
O5 S1 O6 Fe9 -42.7(3) . . . . ?
O1 Fe9 O6 S1 48.6(3) . . . . ?
O10 Fe9 O6 S1 146.0(3) . . . . ?
O60 Fe9 O6 S1 -121.2(4) . . . . ?
O63 Fe9 O6 S1 -47.0(3) . . . . ?
N2 Fe9 O6 S1 -129.3(3) . . . . ?
O11 S2 O9 Fe4 79.8(4) . . . . ?
O12 S2 O9 Fe4 -155.5(3) . . . . ?
O10 S2 O9 Fe4 -38.5(4) . . . . ?
O1 Fe4 O9 S2 43.0(3) . . . . ?
O14 Fe4 O9 S2 139.7(3) . . . . ?
O59 Fe4 O9 S2 -52.7(3) . . . . ?
O55 Fe4 O9 S2 -127.4(5) . . . . ?
N3 Fe4 O9 S2 -135.4(3) . . . . ?
O11 S2 O10 Fe9 -79.5(4) . . . . ?
O12 S2 O10 Fe9 156.2(3) . . . . ?
O9 S2 O10 Fe9 39.6(4) . . . . ?
O1 Fe9 O10 S2 -46.3(3) . . . . ?
O6 Fe9 O10 S2 -143.4(3) . . . . ?
O60 Fe9 O10 S2 49.1(3) . . . . ?
O63 Fe9 O10 S2 127.6(4) . . . . ?
N2 Fe9 O10 S2 131.1(3) . . . . ?
O16 S3 O13 Fe11 -156.7(3) . . . . ?
O15 S3 O13 Fe11 78.3(3) . . . . ?
O14 S3 O13 Fe11 -39.5(3) . . . . ?
O1 Fe11 O13 S3 47.1(3) . . . . ?
O5 Fe11 O13 S3 145.8(3) . . . . ?
O56 Fe11 O13 S3 -47.8(3) . . . . ?
O64 Fe11 O13 S3 -124.5(5) . . . . ?
N1 Fe11 O13 S3 -128.4(3) . . . . ?
O16 S3 O14 Fe4 154.9(3) . . . . ?
O15 S3 O14 Fe4 -81.2(4) . . . . ?
O13 S3 O14 Fe4 36.6(4) . . . . ?
O1 Fe4 O14 S3 -41.6(3) . . . . ?
O9 Fe4 O14 S3 -138.0(3) . . . . ?
O59 Fe4 O14 S3 121.3(4) . . . . ?
O55 Fe4 O14 S3 55.1(3) . . . . ?
N3 Fe4 O14 S3 137.8(3) . . . . ?
O20 S4 O17 Fe2 -79.2(3) . . . . ?
O19 S4 O17 Fe2 156.4(2) . . . . ?
O18 S4 O17 Fe2 39.8(3) . . . . ?
O2 Fe2 O17 S4 -50.4(3) . . . . ?
O26 Fe2 O17 S4 -147.3(3) . . . . ?
O76 Fe2 O17 S4 121.2(4) . . . . ?
O61 Fe2 O17 S4 47.1(2) . . . . ?
N12 Fe2 O17 S4 129.9(2) . . . . ?
O20 S4 O18 Fe3 88.0(3) . . . . ?
O19 S4 O18 Fe3 -148.9(3) . . . . ?
O17 S4 O18 Fe3 -31.1(3) . . . . ?
O2 Fe3 O18 S4 36.8(3) . . . . ?
O22 Fe3 O18 S4 133.5(3) . . . . ?
O71 Fe3 O18 S4 -136.2(4) . . . . ?
O62 Fe3 O18 S4 -59.2(3) . . . . ?
N11 Fe3 O18 S4 -142.2(3) . . . . ?
O23 S5 O21 Fe1 74.2(3) . . . . ?
O24 S5 O21 Fe1 -161.3(2) . . . . ?
O22 S5 O21 Fe1 -45.4(3) . . . . ?
O2 Fe1 O21 S5 49.4(3) . . . . ?
O25 Fe1 O21 S5 147.6(2) . . . . ?
O72 Fe1 O21 S5 -46.0(2) . . . . ?
N10 Fe1 O21 S5 -127.4(2) . . . . ?
O23 S5 O22 Fe3 -76.5(3) . . . . ?
O24 S5 O22 Fe3 159.4(2) . . . . ?
O21 S5 O22 Fe3 43.2(3) . . . . ?
O2 Fe3 O22 S5 -46.2(3) . . . . ?
O18 Fe3 O22 S5 -144.1(3) . . . . ?
O71 Fe3 O22 S5 49.3(2) . . . . ?
O62 Fe3 O22 S5 133.5(4) . . . . ?
N11 Fe3 O22 S5 130.9(2) . . . . ?
O27 S6 O25 Fe1 -71.2(3) . . . . ?
O28 S6 O25 Fe1 162.1(2) . . . . ?
O26 S6 O25 Fe1 46.2(3) . . . . ?
O2 Fe1 O25 S6 -47.0(2) . . . . ?
O21 Fe1 O25 S6 -142.7(2) . . . . ?
O72 Fe1 O25 S6 119.6(4) . . . . ?
O75 Fe1 O25 S6 46.1(2) . . . . ?
N10 Fe1 O25 S6 131.6(2) . . . . ?
O27 S6 O26 Fe2 70.2(3) . . . . ?
O28 S6 O26 Fe2 -164.8(2) . . . . ?
O25 S6 O26 Fe2 -48.4(3) . . . . ?
O2 Fe2 O26 S6 50.3(2) . . . . ?
O76 Fe2 O26 S6 -45.7(2) . . . . ?
O17 Fe2 O26 S6 144.8(2) . . . . ?
O61 Fe2 O26 S6 -132.0(3) . . . . ?
N12 Fe2 O26 S6 -130.6(2) . . . . ?
O32 S7 O29 Fe5 158.3(3) . . . . ?
O31 S7 O29 Fe5 -78.1(3) . . . . ?
O30 S7 O29 Fe5 41.1(3) . . . . ?
O3 Fe5 O29 S7 -45.3(3) . . . . ?
O40 Fe5 O29 S7 -143.0(3) . . . . ?
O70 Fe5 O29 S7 118.5(5) . . . . ?
O74 Fe5 O29 S7 51.0(3) . . . . ?
N6 Fe5 O29 S7 133.5(3) . . . . ?
O32 S7 O30 Fe10 -158.0(3) . . . . ?
O31 S7 O30 Fe10 77.8(3) . . . . ?
O29 S7 O30 Fe10 -41.9(3) . . . . ?
O3 Fe10 O30 S7 46.5(3) . . . . ?
O33 Fe10 O30 S7 144.8(3) . . . . ?
O73 Fe10 O30 S7 -47.9(3) . . . . ?
O66 Fe10 O30 S7 -123.2(5) . . . . ?
N5 Fe10 O30 S7 -128.7(3) . . . . ?
O35 S8 O33 Fe10 -91.6(4) . . . . ?
O36 S8 O33 Fe10 144.5(3) . . . . ?
O34 S8 O33 Fe10 27.3(4) . . . . ?
O3 Fe10 O33 S8 -33.2(3) . . . . ?
O30 Fe10 O33 S8 -129.7(3) . . . . ?
O73 Fe10 O33 S8 133.2(4) . . . . ?
O66 Fe10 O33 S8 61.8(3) . . . . ?
N5 Fe10 O33 S8 144.3(3) . . . . ?
O35 S8 O34 Fe8 81.3(4) . . . . ?
O33 S8 O34 Fe8 -37.0(4) . . . . ?
O36 S8 O34 Fe8 -154.0(3) . . . . ?
O3 Fe8 O34 S8 48.7(3) . . . . ?
O39 Fe8 O34 S8 146.2(3) . . . . ?
O69 Fe8 O34 S8 -118.8(5) . . . . ?
O65 Fe8 O34 S8 -48.0(3) . . . . ?
N4 Fe8 O34 S8 -129.8(3) . . . . ?
O41 S9 O39 Fe8 156.8(3) . . . . ?
O42 S9 O39 Fe8 -79.2(3) . . . . ?
O40 S9 O39 Fe8 38.5(4) . . . . ?
O3 Fe8 O39 S9 -40.8(3) . . . . ?
O34 Fe8 O39 S9 -136.4(3) . . . . ?
O69 Fe8 O39 S9 53.9(3) . . . . ?
O65 Fe8 O39 S9 130.2(4) . . . . ?
N4 Fe8 O39 S9 136.8(3) . . . . ?
O41 S9 O40 Fe5 -159.8(3) . . . . ?
O42 S9 O40 Fe5 75.1(3) . . . . ?
O39 S9 O40 Fe5 -42.8(3) . . . . ?
O3 Fe5 O40 S9 48.9(3) . . . . ?
O29 Fe5 O40 S9 145.9(3) . . . . ?
O70 Fe5 O40 S9 -44.9(3) . . . . ?
O74 Fe5 O40 S9 -123.0(4) . . . . ?
N6 Fe5 O40 S9 -128.0(3) . . . . ?
O45 S10 O43 Fe12 75.9(3) . . . . ?
O46 S10 O43 Fe12 -158.6(3) . . . . ?
O44 S10 O43 Fe12 -42.8(3) . . . . ?
O4 Fe12 O43 S10 48.3(3) . . . . ?
O47 Fe12 O43 S10 145.6(3) . . . . ?
O68 Fe12 O43 S10 -47.5(3) . . . . ?
O58 Fe12 O43 S10 -129.2(4) . . . . ?
N7 Fe12 O43 S10 -129.9(3) . . . . ?
O45 S10 O44 Fe6 -80.3(3) . . . . ?
O46 S10 O44 Fe6 154.1(3) . . . . ?
O43 S10 O44 Fe6 38.6(3) . . . . ?
O4 Fe6 O44 S10 -42.7(3) . . . . ?
O51 Fe6 O44 S10 -139.3(3) . . . . ?
O67 Fe6 O44 S10 52.2(3) . . . . ?
O77 Fe6 O44 S10 133.9(4) . . . . ?
N9 Fe6 O44 S10 135.8(3) . . . . ?
O49 S11 O47 Fe12 -82.1(3) . . . . ?
O50 S11 O47 Fe12 153.4(3) . . . . ?
O48 S11 O47 Fe12 38.4(3) . . . . ?
O4 Fe12 O47 S11 -43.2(3) . . . . ?
O43 Fe12 O47 S11 -139.2(3) . . . . ?
O68 Fe12 O47 S11 132.2(4) . . . . ?
O58 Fe12 O47 S11 52.7(3) . . . . ?
N7 Fe12 O47 S11 136.7(3) . . . . ?
O49 S11 O48 Fe7 79.0(3) . . . . ?
O50 S11 O48 Fe7 -156.7(3) . . . . ?
O47 S11 O48 Fe7 -41.4(3) . . . . ?
O4 Fe7 O48 S11 47.3(3) . . . . ?
O52 Fe7 O48 S11 144.7(3) . . . . ?
O57 Fe7 O48 S11 -47.3(3) . . . . ?
O78 Fe7 O48 S11 -130.1(5) . . . . ?
N8 Fe7 O48 S11 -132.1(3) . . . . ?
O54 S12 O51 Fe6 164.5(3) . . . . ?
O52 S12 O51 Fe6 30.2(4) . . . . ?
O53 S12 O51 Fe6 -81.4(4) . . . . ?
O4 Fe6 O51 S12 8.5(3) . . . . ?
O44 Fe6 O51 S12 106.5(3) . . . . ?
O67 Fe6 O51 S12 -172.9(5) . . . . ?
O77 Fe6 O51 S12 -87.3(3) . . . . ?
N9 Fe6 O51 S12 -169.6(3) . . . . ?
O54 S12 O52 Fe7 -169.1(3) . . . . ?
O51 S12 O52 Fe7 -36.7(4) . . . . ?
O53 S12 O52 Fe7 76.8(4) . . . . ?
O4 Fe7 O52 S12 1.9(3) . . . . ?
O48 Fe7 O52 S12 -94.1(3) . . . . ?
O57 Fe7 O52 S12 171.2(5) . . . . ?
O78 Fe7 O52 S12 97.7(3) . . . . ?
N8 Fe7 O52 S12 -178.6(3) . . . . ?
O1 Fe4 O55 C8 23.2(5) . . . . ?
O9 Fe4 O55 C8 -166.4(5) . . . . ?
O14 Fe4 O55 C8 -73.5(5) . . . . ?
O59 Fe4 O55 C8 118.1(5) . . . . ?
N3 Fe4 O55 C8 -158.4(5) . . . . ?
O1 Fe11 O56 C8 -22.0(5) . . . . ?
O13 Fe11 O56 C8 75.1(5) . . . . ?
O5 Fe11 O56 C8 171.7(4) . . . . ?
O64 Fe11 O56 C8 -116.4(5) . . . . ?
N1 Fe11 O56 C8 160.4(5) . . . . ?
O4 Fe7 O57 C1 -22.0(5) . . . . ?
O52 Fe7 O57 C1 168.6(6) . . . . ?
O48 Fe7 O57 C1 74.3(5) . . . . ?
O78 Fe7 O57 C1 -117.5(5) . . . . ?
N8 Fe7 O57 C1 158.5(5) . . . . ?
O4 Fe12 O58 C1 20.8(5) . . . . ?
O43 Fe12 O58 C1 -161.7(4) . . . . ?
O47 Fe12 O58 C1 -76.8(5) . . . . ?
O68 Fe12 O58 C1 116.0(4) . . . . ?
N7 Fe12 O58 C1 -161.0(5) . . . . ?
Fe7 O57 C1 O58 0.0(9) . . . . ?
Fe7 O57 C1 C2 -178.4(3) . . . . ?
Fe12 O58 C1 O57 0.8(8) . . . . ?
Fe12 O58 C1 C2 179.2(3) . . . . ?
O57 C1 C2 C7 -7.0(9) . . . . ?
O58 C1 C2 C7 174.4(6) . . . . ?
O57 C1 C2 C3' 158.3(8) . . . . ?
O58 C1 C2 C3' -20.3(10) . . . . ?
O57 C1 C2 C3 -167.3(7) . . . . ?
O58 C1 C2 C3 14.2(9) . . . . ?
C7 C2 C3 C3' 89.0(16) . . . . ?
C1 C2 C3 C3' -111.7(14) . . . . ?
C7 C2 C3 C4 16.6(15) . . . . ?
C3' C2 C3 C4 -72.3(15) . . . . ?
C1 C2 C3 C4 176.0(9) . . . . ?
C7 C2 C3 C4' 42.9(12) . . . . ?
C3' C2 C3 C4' -46.1(12) . . . . ?
C1 C2 C3 C4' -157.8(7) . . . . ?
C4 C3 C3' C4' -0.1(13) . . . . ?
C2 C3 C3' C4' -119.2(11) . . . . ?
C4 C3 C3' C2 119.1(7) . . . . ?
C4' C3 C3' C2 119.2(11) . . . . ?
C2 C3 C3' C4 -119.1(7) . . . . ?
C4' C3 C3' C4 0.1(13) . . . . ?
C7 C2 C3' C3 -109.6(15) . . . . ?
C1 C2 C3' C3 84.9(15) . . . . ?
C7 C2 C3' C4' -16.2(16) . . . . ?
C3 C2 C3' C4' 93.4(18) . . . . ?
C1 C2 C3' C4' 178.2(10) . . . . ?
C7 C2 C3' C4 -49.4(12) . . . . ?
C3 C2 C3' C4 60.1(13) . . . . ?
C1 C2 C3' C4 145.0(8) . . . . ?
C3' C3 C4 C4' 0(2) . . . . ?
C2 C3 C4 C4' 67(2) . . . . ?
C3' C3 C4 C5 -85.4(19) . . . . ?
C2 C3 C4 C5 -18.8(18) . . . . ?
C4' C3 C4 C5 -85.6(19) . . . . ?
C2 C3 C4 C3' 66.6(14) . . . . ?
C4' C3 C4 C3' 0(2) . . . . ?
C3' C3 C4 C5' -55.4(19) . . . . ?
C2 C3 C4 C5' 11.3(17) . . . . ?
C4' C3 C4 C5' -55.6(15) . . . . ?
C3 C3' C4 C4' -180(2) . . . . ?
C2 C3' C4 C4' 115.2(19) . . . . ?
C3 C3' C4 C5 109.2(18) . . . . ?
C4' C3' C4 C5 -71.0(17) . . . . ?
C2 C3' C4 C5 44.2(16) . . . . ?
C4' C3' C4 C3 180(2) . . . . ?
C2 C3' C4 C3 -65.0(14) . . . . ?
C3 C3' C4 C5' 133.4(17) . . . . ?
C4' C3' C4 C5' -46.8(15) . . . . ?
C2 C3' C4 C5' 68.5(12) . . . . ?
C5 C4 C4' C5' -3.6(13) . . . . ?
C3 C4 C4' C5' -122.7(10) . . . . ?
C3' C4 C4' C5' -122.5(12) . . . . ?
C5 C4 C4' C3' 119.0(10) . . . . ?
C3 C4 C4' C3' -0.1(12) . . . . ?
C5' C4 C4' C3' 122.5(12) . . . . ?
C3 C4 C4' C5 -119.1(11) . . . . ?
C3' C4 C4' C5 -119.0(10) . . . . ?
C5' C4 C4' C5 3.6(13) . . . . ?
C5 C4 C4' C3 119.1(11) . . . . ?
C3' C4 C4' C3 0.1(12) . . . . ?
C5' C4 C4' C3 122.7(10) . . . . ?
C3 C3' C4' C4 0(2) . . . . ?
C2 C3' C4' C4 -79(2) . . . . ?
C3 C3' C4' C5' 88(2) . . . . ?
C2 C3' C4' C5' 8(2) . . . . ?
C4 C3' C4' C5' 87(2) . . . . ?
C3 C3' C4' C5 59(2) . . . . ?
C2 C3' C4' C5 -20.8(19) . . . . ?
C4 C3' C4' C5 58.6(15) . . . . ?
C2 C3' C4' C3 -79.7(17) . . . . ?
C4 C3' C4' C3 0(2) . . . . ?
C3' C3 C4' C4 -180(3) . . . . ?
C2 C3 C4' C4 -121.5(18) . . . . ?
C3' C3 C4' C5' -108(2) . . . . ?
C4 C3 C4' C5' 72.1(19) . . . . ?
C2 C3 C4' C5' -49.4(16) . . . . ?
C4 C3 C4' C3' 180(3) . . . . ?
C2 C3 C4' C3' 58.2(15) . . . . ?
C3' C3 C4' C5 -127.1(19) . . . . ?
C4 C3 C4' C5 52.6(15) . . . . ?
C2 C3 C4' C5 -68.9(12) . . . . ?
C4' C4 C5 C5' 7(2) . . . . ?
C3 C4 C5 C5' 99(2) . . . . ?
C3' C4 C5 C5' 67(2) . . . . ?
C4' C4 C5 C6 -83(2) . . . . ?
C3 C4 C5 C6 9(2) . . . . ?
C3' C4 C5 C6 -24(2) . . . . ?
C5' C4 C5 C6 -90(2) . . . . ?
C4' C4 C5 C6' -55(2) . . . . ?
C3 C4 C5 C6' 37(2) . . . . ?
C3' C4 C5 C6' 5(2) . . . . ?
C5' C4 C5 C6' -61.8(17) . . . . ?
C4' C4 C5 C12 90(2) . . . . ?
C3 C4 C5 C12 -178.5(12) . . . . ?
C3' C4 C5 C12 149.1(12) . . . . ?
C5' C4 C5 C12 83(2) . . . . ?
C3 C4 C5 C4' 91.9(19) . . . . ?
C3' C4 C5 C4' 59.6(14) . . . . ?
C5' C4 C5 C4' -7(2) . . . . ?
C4' C4 C5 C12' 66.7(19) . . . . ?
C3 C4 C5 C12' 158.6(11) . . . . ?
C3' C4 C5 C12' 126.2(12) . . . . ?
C5' C4 C5 C12' 59.7(17) . . . . ?
C4 C4' C5 C5' -172(3) . . . . ?
C3' C4' C5 C5' 118(2) . . . . ?
C3 C4' C5 C5' 140(2) . . . . ?
C5' C4' C5 C4 172(3) . . . . ?
C3' C4' C5 C4 -70.3(17) . . . . ?
C3 C4' C5 C4 -47.9(14) . . . . ?
C4 C4' C5 C6 114.2(19) . . . . ?
C5' C4' C5 C6 -73.7(19) . . . . ?
C3' C4' C5 C6 43.8(19) . . . . ?
C3 C4' C5 C6 66.3(15) . . . . ?
C4 C4' C5 C6' 132.9(18) . . . . ?
C5' C4' C5 C6' -54.9(16) . . . . ?
C3' C4' C5 C6' 62.6(16) . . . . ?
C3 C4' C5 C6' 85.0(12) . . . . ?
C4 C4' C5 C12 -106.9(19) . . . . ?
C5' C4' C5 C12 65.3(19) . . . . ?
C3' C4' C5 C12 -177.2(12) . . . . ?
C3 C4' C5 C12 -154.7(11) . . . . ?
C4 C4' C5 C12' -121.5(18) . . . . ?
C5' C4' C5 C12' 50.6(17) . . . . ?
C3' C4' C5 C12' 168.2(12) . . . . ?
C3 C4' C5 C12' -169.4(9) . . . . ?
C4 C5 C5' C6' -118.6(11) . . . . ?
C6 C5 C5' C6' 4.7(13) . . . . ?
C12 C5 C5' C6' 122.3(10) . . . . ?
C4' C5 C5' C6' -114.4(12) . . . . ?
C12' C5 C5' C6' 126.8(13) . . . . ?
C4 C5 C5' C4' -4.1(14) . . . . ?
C6 C5 C5' C4' 119.1(11) . . . . ?
C6' C5 C5' C4' 114.4(12) . . . . ?
C12 C5 C5' C4' -123.3(10) . . . . ?
C12' C5 C5' C4' -118.7(13) . . . . ?
C4 C5 C5' C12' 114.6(11) . . . . ?
C6 C5 C5' C12' -122.2(10) . . . . ?
C6' C5 C5' C12' -126.8(13) . . . . ?
C12 C5 C5' C12' -4.6(13) . . . . ?
C4' C5 C5' C12' 118.7(13) . . . . ?
C4 C5 C5' C12 119.2(12) . . . . ?
C6 C5 C5' C12 -117.6(11) . . . . ?
C6' C5 C5' C12 -122.3(10) . . . . ?
C4' C5 C5' C12 123.3(10) . . . . ?
C12' C5 C5' C12 4.6(13) . . . . ?
C4 C5 C5' C6 -123.3(13) . . . . ?
C6' C5 C5' C6 -4.7(13) . . . . ?
C12 C5 C5' C6 117.6(11) . . . . ?
C4' C5 C5' C6 -119.1(11) . . . . ?
C12' C5 C5' C6 122.2(10) . . . . ?
C6 C5 C5' C4 123.3(13) . . . . ?
C6' C5 C5' C4 118.6(11) . . . . ?
C12 C5 C5' C4 -119.2(12) . . . . ?
C4' C5 C5' C4 4.1(14) . . . . ?
C12' C5 C5' C4 -114.6(11) . . . . ?
C4 C4' C5' C5 7(2) . . . . ?
C3' C4' C5' C5 -76(2) . . . . ?
C3 C4' C5' C5 -46(2) . . . . ?
C4 C4' C5' C6' 96(2) . . . . ?
C3' C4' C5' C6' 12(2) . . . . ?
C5 C4' C5' C6' 88(2) . . . . ?
C3 C4' C5' C6' 42(2) . . . . ?
C4 C4' C5' C12' -89.7(19) . . . . ?
C3' C4' C5' C12' -172.9(13) . . . . ?
C5 C4' C5' C12' -97(2) . . . . ?
C3 C4' C5' C12' -142.9(12) . . . . ?
C4 C4' C5' C12 -62(2) . . . . ?
C3' C4' C5' C12 -144.8(14) . . . . ?
C5 C4' C5' C12 -68.7(18) . . . . ?
C3 C4' C5' C12 -114.8(14) . . . . ?
C4 C4' C5' C6 69(2) . . . . ?
C3' C4' C5' C6 -14(2) . . . . ?
C5 C4' C5' C6 62.4(17) . . . . ?
C3 C4' C5' C6 16.3(19) . . . . ?
C3' C4' C5' C4 -83(2) . . . . ?
C5 C4' C5' C4 -7(2) . . . . ?
C3 C4' C5' C4 -53.2(14) . . . . ?
C4' C4 C5' C5 -172(3) . . . . ?
C3 C4 C5' C5 -96(2) . . . . ?
C3' C4 C5' C5 -121(2) . . . . ?
C4' C4 C5' C6' -98(2) . . . . ?
C5 C4 C5' C6' 73(2) . . . . ?
C3 C4 C5' C6' -22.9(19) . . . . ?
C3' C4 C5' C6' -47.4(15) . . . . ?
C5 C4 C5' C4' 172(3) . . . . ?
C3 C4 C5' C4' 75.6(18) . . . . ?
C3' C4 C5' C4' 51.1(15) . . . . ?
C4' C4 C5' C12' 106(2) . . . . ?
C5 C4 C5' C12' -83(2) . . . . ?
C3 C4 C5' C12' -178.7(11) . . . . ?
C3' C4 C5' C12' 156.8(11) . . . . ?
C4' C4 C5' C12 129.4(19) . . . . ?
C5 C4 C5' C12 -58.8(18) . . . . ?
C3 C4 C5' C12 -155.0(11) . . . . ?
C3' C4 C5' C12 -179.5(10) . . . . ?
C4' C4 C5' C6 -120.7(19) . . . . ?
C5 C4 C5' C6 51.2(17) . . . . ?
C3 C4 C5' C6 -45.1(16) . . . . ?
C3' C4 C5' C6 -69.5(12) . . . . ?
C5' C5 C6 C6' -10(3) . . . . ?
C4 C5 C6 C6' 83(3) . . . . ?
C12 C5 C6 C6' -90(2) . . . . ?
C4' C5 C6 C6' 48(2) . . . . ?
C12' C5 C6 C6' -66(2) . . . . ?
C5' C5 C6 C7 -88(2) . . . . ?
C4 C5 C6 C7 5(2) . . . . ?
C6' C5 C6 C7 -78(2) . . . . ?
C12 C5 C6 C7 -167.9(11) . . . . ?
C4' C5 C6 C7 -30.0(19) . . . . ?
C12' C5 C6 C7 -143.9(11) . . . . ?
C4 C5 C6 C5' 93(2) . . . . ?
C6' C5 C6 C5' 10(3) . . . . ?
C12 C5 C6 C5' -80(2) . . . . ?
C4' C5 C6 C5' 58.2(16) . . . . ?
C12' C5 C6 C5' -55.7(16) . . . . ?
C5 C5' C6 C6' 168(3) . . . . ?
C4' C5' C6 C6' 91(3) . . . . ?
C12' C5' C6 C6' -111(3) . . . . ?
C12 C5' C6 C6' -131(3) . . . . ?
C4 C5' C6 C6' 120(2) . . . . ?
C6' C5' C6 C5 -168(3) . . . . ?
C4' C5' C6 C5 -77(2) . . . . ?
C12' C5' C6 C5 81(2) . . . . ?
C12 C5' C6 C5 60.9(17) . . . . ?
C4 C5' C6 C5 -48.1(16) . . . . ?
C5 C5' C6 C7 104(2) . . . . ?
C6' C5' C6 C7 -64(2) . . . . ?
C4' C5' C6 C7 26.6(18) . . . . ?
C12' C5' C6 C7 -174.9(10) . . . . ?
C12 C5' C6 C7 164.8(10) . . . . ?
C4 C5' C6 C7 55.8(13) . . . . ?
C5 C6 C6' C5' 5.3(15) . . . . ?
C7 C6 C6' C5' 122.9(12) . . . . ?
C7 C6 C6' C5 117.6(8) . . . . ?
C5' C6 C6' C5 -5.3(15) . . . . ?
C5 C6 C6' C7 -117.6(8) . . . . ?
C5' C6 C6' C7 -122.9(12) . . . . ?
C5 C5' C6' C6 -11(3) . . . . ?
C4' C5' C6' C6 -100(3) . . . . ?
C12' C5' C6' C6 85(3) . . . . ?
C12 C5' C6' C6 57(3) . . . . ?
C4 C5' C6' C6 -67(3) . . . . ?
C4' C5' C6' C5 -90(2) . . . . ?
C12' C5' C6' C5 96(2) . . . . ?
C12 C5' C6' C5 67.8(18) . . . . ?
C6 C5' C6' C5 11(3) . . . . ?
C4 C5' C6' C5 -56.2(16) . . . . ?
C5 C5' C6' C7 65(2) . . . . ?
C4' C5' C6' C7 -25(2) . . . . ?
C12' C5' C6' C7 160.6(12) . . . . ?
C12 C5' C6' C7 132.4(13) . . . . ?
C6 C5' C6' C7 75(2) . . . . ?
C4 C5' C6' C7 8(2) . . . . ?
C5' C5 C6' C6 169(3) . . . . ?
C4 C5 C6' C6 -111(2) . . . . ?
C12 C5 C6' C6 103(2) . . . . ?
C4' C5 C6' C6 -137(2) . . . . ?
C12' C5 C6' C6 123(2) . . . . ?
C4 C5 C6' C5' 80(2) . . . . ?
C6 C5 C6' C5' -169(3) . . . . ?
C12 C5 C6' C5' -66.3(19) . . . . ?
C4' C5 C6' C5' 54.2(16) . . . . ?
C12' C5 C6' C5' -46.1(16) . . . . ?
C5' C5 C6' C7 -128(2) . . . . ?
C4 C5 C6' C7 -47.9(19) . . . . ?
C6 C5 C6' C7 63(2) . . . . ?
C12 C5 C6' C7 165.8(11) . . . . ?
C4' C5 C6' C7 -73.6(14) . . . . ?
C12' C5 C6' C7 -174.0(10) . . . . ?
C3' C2 C7 C6 32.3(13) . . . . ?
C3 C2 C7 C6 -3.4(14) . . . . ?
C1 C2 C7 C6 -161.7(8) . . . . ?
C3' C2 C7 C6' 4.7(12) . . . . ?
C3 C2 C7 C6' -31.0(13) . . . . ?
C1 C2 C7 C6' 170.6(8) . . . . ?
C6' C6 C7 C2 -85(2) . . . . ?
C5 C6 C7 C2 -7.9(17) . . . . ?
C5' C6 C7 C2 -36.8(14) . . . . ?
C5 C6 C7 C6' 78(2) . . . . ?
C5' C6 C7 C6' 48.6(19) . . . . ?
C6 C6' C7 C2 108(2) . . . . ?
C5' C6' C7 C2 17.0(19) . . . . ?
C5 C6' C7 C2 44.1(14) . . . . ?
C5' C6' C7 C6 -91(3) . . . . ?
C5 C6' C7 C6 -64(2) . . . . ?
Fe11 O56 C8 O55 3.0(10) . . . . ?
Fe11 O56 C8 C9 -178.3(4) . . . . ?
Fe4 O55 C8 O56 -3.7(9) . . . . ?
Fe4 O55 C8 C9 177.6(4) . . . . ?
O56 C8 C9 C14 -10.3(11) . . . . ?
O55 C8 C9 C14 168.6(9) . . . . ?
O56 C8 C9 C10' 160.5(8) . . . . ?
O55 C8 C9 C10' -20.7(11) . . . . ?
O56 C8 C9 C10 -155.2(8) . . . . ?
O55 C8 C9 C10 23.7(11) . . . . ?
O56 C8 C9 C14' 29.5(12) . . . . ?
O55 C8 C9 C14' -151.6(10) . . . . ?
C14 C9 C10 C10' 106.0(14) . . . . ?
C14' C9 C10 C10' 66.8(15) . . . . ?
C8 C9 C10 C10' -108.9(12) . . . . ?
C14 C9 C10 C11 25.6(17) . . . . ?
C10' C9 C10 C11 -80.4(15) . . . . ?
C14' C9 C10 C11 -13.6(17) . . . . ?
C8 C9 C10 C11 170.7(10) . . . . ?
C14 C9 C10 C11' 60.2(13) . . . . ?
C10' C9 C10 C11' -45.8(10) . . . . ?
C14' C9 C10 C11' 21.0(13) . . . . ?
C8 C9 C10 C11' -154.7(7) . . . . ?
C11 C10 C10' C9 120.4(9) . . . . ?
C11' C10 C10' C9 121.9(8) . . . . ?
C9 C10 C10' C11' -121.9(8) . . . . ?
C11 C10 C10' C11' -1.5(12) . . . . ?
C9 C10 C10' C11 -120.4(9) . . . . ?
C11' C10 C10' C11 1.5(12) . . . . ?
C14 C9 C10' C10 -95.4(15) . . . . ?
C14' C9 C10' C10 -124.5(13) . . . . ?
C8 C9 C10' C10 94.2(13) . . . . ?
C14 C9 C10' C11' -14.0(17) . . . . ?
C10 C9 C10' C11' 81.3(15) . . . . ?
C14' C9 C10' C11' -43.2(14) . . . . ?
C8 C9 C10' C11' 175.5(9) . . . . ?
C14 C9 C10' C11 -46.7(13) . . . . ?
C10 C9 C10' C11 48.7(11) . . . . ?
C14' C9 C10' C11 -75.8(10) . . . . ?
C8 C9 C10' C11 142.9(8) . . . . ?
C10' C10 C11 C11' 2.1(17) . . . . ?
C9 C10 C11 C11' 70.1(16) . . . . ?
C10' C10 C11 C12 -74.2(19) . . . . ?
C9 C10 C11 C12 -6(2) . . . . ?
C11' C10 C11 C12 -76.4(15) . . . . ?
C10' C10 C11 C12' -49.1(18) . . . . ?
C9 C10 C11 C12' 18.9(18) . . . . ?
C11' C10 C11 C12' -51.2(10) . . . . ?
C9 C10 C11 C10' 68.0(14) . . . . ?
C11' C10 C11 C10' -2.1(17) . . . . ?
C10 C10' C11 C11' -177(2) . . . . ?
C9 C10' C11 C11' 125.4(14) . . . . ?
C10 C10' C11 C12 117.7(18) . . . . ?
C9 C10' C11 C12 60.3(14) . . . . ?
C11' C10' C11 C12 -65.0(14) . . . . ?
C9 C10' C11 C10 -57.3(13) . . . . ?
C11' C10' C11 C10 177(2) . . . . ?
C10 C10' C11 C12' 134.8(16) . . . . ?
C9 C10' C11 C12' 77.5(10) . . . . ?
C11' C10' C11 C12' -47.8(11) . . . . ?
C12 C11 C11' C12' 0.0(12) . . . . ?
C10 C11 C11' C12' -119.8(10) . . . . ?
C10' C11 C11' C12' -118.4(11) . . . . ?
C12 C11 C11' C10' 118.5(10) . . . . ?
C10 C11 C11' C10' -1.4(11) . . . . ?
C12' C11 C11' C10' 118.4(11) . . . . ?
C10 C11 C11' C12 -119.8(11) . . . . ?
C12' C11 C11' C12 0.0(12) . . . . ?
C10' C11 C11' C12 -118.5(10) . . . . ?
C12 C11 C11' C10 119.8(11) . . . . ?
C12' C11 C11' C10 119.8(10) . . . . ?
C10' C11 C11' C10 1.4(11) . . . . ?
C10 C10' C11' C11 2.3(18) . . . . ?
C9 C10' C11' C11 -67.5(17) . . . . ?
C10 C10' C11' C12' 85.7(18) . . . . ?
C9 C10' C11' C12' 15.9(19) . . . . ?
C11 C10' C11' C12' 83.4(15) . . . . ?
C10 C10' C11' C12 57.6(17) . . . . ?
C9 C10' C11' C12 -12.1(18) . . . . ?
C11 C10' C11' C12 55.4(11) . . . . ?
C9 C10' C11' C10 -69.7(13) . . . . ?
C11 C10' C11' C10 -2.3(18) . . . . ?
C10' C10 C11' C11 -177(2) . . . . ?
C9 C10 C11' C11 -122.6(15) . . . . ?
C10' C10 C11' C12' -109.5(17) . . . . ?
C9 C10 C11' C12' -54.7(14) . . . . ?
C11 C10 C11' C12' 67.9(14) . . . . ?
C9 C10 C11' C10' 54.8(12) . . . . ?
C11 C10 C11' C10' 177(2) . . . . ?
C10' C10 C11' C12 -130.0(15) . . . . ?
C9 C10 C11' C12 -75.2(11) . . . . ?
C11 C10 C11' C12 47.4(11) . . . . ?
C11' C11 C12 C12' 0(3) . . . . ?
C10 C11 C12 C12' 77(3) . . . . ?
C10' C11 C12 C12' 46(3) . . . . ?
C11' C11 C12 C13 -96.8(18) . . . . ?
C10 C11 C12 C13 -20(2) . . . . ?
C12' C11 C12 C13 -97(3) . . . . ?
C10' C11 C12 C13 -51(2) . . . . ?
C11' C11 C12 C5 110.4(15) . . . . ?
C10 C11 C12 C5 -172.7(12) . . . . ?
C12' C11 C12 C5 110(3) . . . . ?
C10' C11 C12 C5 156.6(12) . . . . ?
C11' C11 C12 C13' -53.4(18) . . . . ?
C10 C11 C12 C13' 24(2) . . . . ?
C12' C11 C12 C13' -53.3(19) . . . . ?
C10' C11 C12 C13' -7.1(19) . . . . ?
C10 C11 C12 C11' 77.0(14) . . . . ?
C12' C11 C12 C11' 0(3) . . . . ?
C10' C11 C12 C11' 46.3(9) . . . . ?
C11' C11 C12 C5' 80.0(16) . . . . ?
C10 C11 C12 C5' 157.0(12) . . . . ?
C12' C11 C12 C5' 80(2) . . . . ?
C10' C11 C12 C5' 126.3(12) . . . . ?
C5' C5 C12 C12' 11(3) . . . . ?
C4 C5 C12 C12' -79(3) . . . . ?
C6 C5 C12 C12' 95(3) . . . . ?
C6' C5 C12 C12' 67(3) . . . . ?
C4' C5 C12 C12' -43(3) . . . . ?
C5' C5 C12 C11 -98(2) . . . . ?
C4 C5 C12 C11 171.8(14) . . . . ?
C6 C5 C12 C11 -15(2) . . . . ?
C6' C5 C12 C11 -43(2) . . . . ?
C4' C5 C12 C11 -152.8(15) . . . . ?
C12' C5 C12 C11 -109(3) . . . . ?
C5' C5 C12 C13 106(2) . . . . ?
C4 C5 C12 C13 16(2) . . . . ?
C6 C5 C12 C13 -170.2(14) . . . . ?
C6' C5 C12 C13 161.8(15) . . . . ?
C4' C5 C12 C13 51.8(19) . . . . ?
C12' C5 C12 C13 95(3) . . . . ?
C5' C5 C12 C13' 66(2) . . . . ?
C4 C5 C12 C13' -24(2) . . . . ?
C6 C5 C12 C13' 149.3(14) . . . . ?
C6' C5 C12 C13' 121.4(15) . . . . ?
C4' C5 C12 C13' 11(2) . . . . ?
C12' C5 C12 C13' 55(2) . . . . ?
C5' C5 C12 C11' -51(2) . . . . ?
C4 C5 C12 C11' -140.4(14) . . . . ?
C6 C5 C12 C11' 33(2) . . . . ?
C6' C5 C12 C11' 5(2) . . . . ?
C4' C5 C12 C11' -105.0(16) . . . . ?
C12' C5 C12 C11' -62(2) . . . . ?
C4 C5 C12 C5' -90(2) . . . . ?
C6 C5 C12 C5' 84(2) . . . . ?
C6' C5 C12 C5' 55.7(16) . . . . ?
C4' C5 C12 C5' -54.3(16) . . . . ?
C12' C5 C12 C5' -11(3) . . . . ?
C11 C11' C12 C12' 180(3) . . . . ?
C10' C11' C12 C12' 103(2) . . . . ?
C10 C11' C12 C12' 130(2) . . . . ?
C12' C11' C12 C11 -180(3) . . . . ?
C10' C11' C12 C11 -76.8(15) . . . . ?
C10 C11' C12 C11 -49.9(12) . . . . ?
C11 C11' C12 C13 108.8(18) . . . . ?
C12' C11' C12 C13 -71(2) . . . . ?
C10' C11' C12 C13 32(2) . . . . ?
C10 C11' C12 C13 58.8(16) . . . . ?
C11 C11' C12 C5 -95.5(18) . . . . ?
C12' C11' C12 C5 85(2) . . . . ?
C10' C11' C12 C5 -172.3(12) . . . . ?
C10 C11' C12 C5 -145.5(13) . . . . ?
C11 C11' C12 C13' 136.6(15) . . . . ?
C12' C11' C12 C13' -43.4(19) . . . . ?
C10' C11' C12 C13' 59.8(14) . . . . ?
C10 C11' C12 C13' 86.6(10) . . . . ?
C11 C11' C12 C5' -116.5(15) . . . . ?
C12' C11' C12 C5' 64(2) . . . . ?
C10' C11' C12 C5' 166.7(10) . . . . ?
C10 C11' C12 C5' -166.5(10) . . . . ?
C5 C5' C12 C12' -169(3) . . . . ?
C6' C5' C12 C12' 114(2) . . . . ?
C4' C5' C12 C12' -90(3) . . . . ?
C6 C5' C12 C12' 134(2) . . . . ?
C4 C5' C12 C12' -118(2) . . . . ?
C5 C5' C12 C11 96(2) . . . . ?
C6' C5' C12 C11 19(2) . . . . ?
C4' C5' C12 C11 175.2(15) . . . . ?
C12' C5' C12 C11 -95(3) . . . . ?
C6 C5' C12 C11 39.6(18) . . . . ?
C4 C5' C12 C11 147.7(14) . . . . ?
C5 C5' C12 C13 -87(2) . . . . ?
C6' C5' C12 C13 -163.8(15) . . . . ?
C4' C5' C12 C13 -8(2) . . . . ?
C12' C5' C12 C13 82(2) . . . . ?
C6 C5' C12 C13 -143.4(14) . . . . ?
C4 C5' C12 C13 -35.3(17) . . . . ?
C6' C5' C12 C5 -77(2) . . . . ?
C4' C5' C12 C5 79(2) . . . . ?
C12' C5' C12 C5 169(3) . . . . ?
C6 C5' C12 C5 -56.7(17) . . . . ?
C4 C5' C12 C5 51.4(17) . . . . ?
C5 C5' C12 C13' -124(2) . . . . ?
C6' C5' C12 C13' 159.1(13) . . . . ?
C4' C5' C12 C13' -45.0(17) . . . . ?
C12' C5' C12 C13' 45.1(19) . . . . ?
C6 C5' C12 C13' 179.5(10) . . . . ?
C4 C5' C12 C13' -72.5(12) . . . . ?
C5 C5' C12 C11' 138(2) . . . . ?
C6' C5' C12 C11' 61.2(17) . . . . ?
C4' C5' C12 C11' -142.8(13) . . . . ?
C12' C5' C12 C11' -52.8(19) . . . . ?
C6 C5' C12 C11' 81.6(13) . . . . ?
C4 C5' C12 C11' -170.3(10) . . . . ?
C11 C12 C12' C13' -121.1(14) . . . . ?
C13 C12 C12' C13' 2.6(18) . . . . ?
C5 C12 C12' C13' 116.5(14) . . . . ?
C11' C12 C12' C13' -121.1(18) . . . . ?
C5' C12 C12' C13' 121.5(14) . . . . ?
C11 C12 C12' C11' 0.1(19) . . . . ?
C13 C12 C12' C11' 123.8(12) . . . . ?
C5 C12 C12' C11' -122.4(12) . . . . ?
C13' C12 C12' C11' 121.1(18) . . . . ?
C5' C12 C12' C11' -117.3(12) . . . . ?
C11 C12 C12' C5' 117.4(13) . . . . ?
C13 C12 C12' C5' -118.9(10) . . . . ?
C5 C12 C12' C5' -5.0(14) . . . . ?
C13' C12 C12' C5' -121.5(14) . . . . ?
C11' C12 C12' C5' 117.3(12) . . . . ?
C11 C12 C12' C13 -123.7(17) . . . . ?
C5 C12 C12' C13 113.9(16) . . . . ?
C13' C12 C12' C13 -2.6(18) . . . . ?
C11' C12 C12' C13 -123.8(12) . . . . ?
C5' C12 C12' C13 118.9(10) . . . . ?
C13 C12 C12' C11 123.7(17) . . . . ?
C5 C12 C12' C11 -122(2) . . . . ?
C13' C12 C12' C11 121.1(14) . . . . ?
C11' C12 C12' C11 -0.1(19) . . . . ?
C5' C12 C12' C11 -117.4(13) . . . . ?
C11 C12 C12' C5 122(2) . . . . ?
C13 C12 C12' C5 -113.9(16) . . . . ?
C13' C12 C12' C5 -116.5(14) . . . . ?
C11' C12 C12' C5 122.4(12) . . . . ?
C5' C12 C12' C5 5.0(14) . . . . ?
C11 C11' C12' C12 0(2) . . . . ?
C10' C11' C12' C12 -90(2) . . . . ?
C10 C11' C12' C12 -55(3) . . . . ?
C11 C11' C12' C13' 106.5(17) . . . . ?
C10' C11' C12' C13' 17(2) . . . . ?
C12 C11' C12' C13' 107(3) . . . . ?
C10 C11' C12' C13' 51.5(19) . . . . ?
C11 C11' C12' C5' -80.7(16) . . . . ?
C10' C11' C12' C5' -170.4(11) . . . . ?
C12 C11' C12' C5' -81(2) . . . . ?
C10 C11' C12' C5' -135.7(12) . . . . ?
C11 C11' C12' C13 63.9(19) . . . . ?
C10' C11' C12' C13 -26(2) . . . . ?
C12 C11' C12' C13 64(2) . . . . ?
C10 C11' C12' C13 9(2) . . . . ?
C10' C11' C12' C11 -89.8(15) . . . . ?
C12 C11' C12' C11 0(2) . . . . ?
C10 C11' C12' C11 -55.0(11) . . . . ?
C11 C11' C12' C5 -53.9(16) . . . . ?
C10' C11' C12' C5 -143.7(12) . . . . ?
C12 C11' C12' C5 -54(2) . . . . ?
C10 C11' C12' C5 -108.9(13) . . . . ?
C5 C5' C12' C12 11(3) . . . . ?
C6' C5' C12' C12 -82(3) . . . . ?
C4' C5' C12' C12 104(2) . . . . ?
C6 C5' C12' C12 -54(3) . . . . ?
C4 C5' C12' C12 70(2) . . . . ?
C5 C5' C12' C13' -87(2) . . . . ?
C6' C5' C12' C13' -178.9(16) . . . . ?
C4' C5' C12' C13' 7(2) . . . . ?
C12 C5' C12' C13' -97(3) . . . . ?
C6 C5' C12' C13' -151.1(15) . . . . ?
C4 C5' C12' C13' -27(2) . . . . ?
C5 C5' C12' C11' 101(2) . . . . ?
C6' C5' C12' C11' 8(2) . . . . ?
C4' C5' C12' C11' -165.6(14) . . . . ?
C12 C5' C12' C11' 90(3) . . . . ?
C6 C5' C12' C11' 36(2) . . . . ?
C4 C5' C12' C11' 160.6(12) . . . . ?
C5 C5' C12' C13 -48(2) . . . . ?
C6' C5' C12' C13 -140.1(16) . . . . ?
C4' C5' C12' C13 45.8(19) . . . . ?
C12 C5' C12' C13 -58(2) . . . . ?
C6 C5' C12' C13 -112.2(15) . . . . ?
C4 C5' C12' C13 12.0(17) . . . . ?
C5 C5' C12' C11 60(2) . . . . ?
C6' C5' C12' C11 -33(2) . . . . ?
C4' C5' C12' C11 153.3(13) . . . . ?
C12 C5' C12' C11 49.1(19) . . . . ?
C6 C5' C12' C11 -4.8(17) . . . . ?
C4 C5' C12' C11 119.5(13) . . . . ?
C6' C5' C12' C5 -92(2) . . . . ?
C4' C5' C12' C5 94(2) . . . . ?
C12 C5' C12' C5 -11(3) . . . . ?
C6 C5' C12' C5 -64.4(18) . . . . ?
C4 C5' C12' C5 59.8(18) . . . . ?
C11' C11 C12' C12 180(3) . . . . ?
C10 C11 C12' C12 -114(3) . . . . ?
C10' C11 C12' C12 -136(2) . . . . ?
C11' C11 C12' C13' -98.3(18) . . . . ?
C12 C11 C12' C13' 82(3) . . . . ?
C10 C11 C12' C13' -32(2) . . . . ?
C10' C11 C12' C13' -54.4(17) . . . . ?
C12 C11 C12' C11' -180(3) . . . . ?
C10 C11 C12' C11' 66.6(13) . . . . ?
C10' C11 C12' C11' 43.9(10) . . . . ?
C11' C11 C12' C5' 115.1(15) . . . . ?
C12 C11 C12' C5' -65(2) . . . . ?
C10 C11 C12' C5' -178.3(11) . . . . ?
C10' C11 C12' C5' 159.1(10) . . . . ?
C11' C11 C12' C13 -129.8(15) . . . . ?
C12 C11 C12' C13 50(2) . . . . ?
C10 C11 C12' C13 -63.3(15) . . . . ?
C10' C11 C12' C13 -85.9(11) . . . . ?
C11' C11 C12' C5 135.3(14) . . . . ?
C12 C11 C12' C5 -45(2) . . . . ?
C10 C11 C12' C5 -158.2(11) . . . . ?
C10' C11 C12' C5 179.2(9) . . . . ?
C5' C5 C12' C12 -167(3) . . . . ?
C4 C5 C12' C12 112(3) . . . . ?
C6 C5 C12' C12 -96(3) . . . . ?
C6' C5 C12' C12 -120(3) . . . . ?
C4' C5 C12' C12 141(3) . . . . ?
C5' C5 C12' C13' 107(2) . . . . ?
C4 C5 C12' C13' 26(2) . . . . ?
C6 C5 C12' C13' 178.5(14) . . . . ?
C6' C5 C12' C13' 154.8(14) . . . . ?
C12 C5 C12' C13' -85(3) . . . . ?
C4' C5 C12' C13' 55.6(17) . . . . ?
C5' C5 C12' C11' -92(2) . . . . ?
C4 C5 C12' C11' -173.2(13) . . . . ?
C6 C5 C12' C11' -21(2) . . . . ?
C6' C5 C12' C11' -44.7(17) . . . . ?
C12 C5 C12' C11' 75(2) . . . . ?
C4' C5 C12' C11' -143.9(13) . . . . ?
C4 C5 C12' C5' -81(2) . . . . ?
C6 C5 C12' C5' 71(2) . . . . ?
C6' C5 C12' C5' 47.5(17) . . . . ?
C12 C5 C12' C5' 167(3) . . . . ?
C4' C5 C12' C5' -51.6(17) . . . . ?
C5' C5 C12' C13 136(2) . . . . ?
C4 C5 C12' C13 55.1(15) . . . . ?
C6 C5 C12' C13 -152.8(13) . . . . ?
C6' C5 C12' C13 -176.5(12) . . . . ?
C12 C5 C12' C13 -57(2) . . . . ?
C4' C5 C12' C13 84.4(13) . . . . ?
C5' C5 C12' C11 -124(2) . . . . ?
C4 C5 C12' C11 155.5(12) . . . . ?
C6 C5 C12' C11 -52.4(15) . . . . ?
C6' C5 C12' C11 -76.1(13) . . . . ?
C12 C5 C12' C11 44(2) . . . . ?
C4' C5 C12' C11 -175.2(11) . . . . ?
C12' C12 C13 C13' -4(3) . . . . ?
C11 C12 C13 C13' 99(2) . . . . ?
C5 C12 C13 C13' -106.9(17) . . . . ?
C11' C12 C13 C13' 51.3(19) . . . . ?
C5' C12 C13 C13' -77.8(18) . . . . ?
C12' C12 C13 C14 -79(3) . . . . ?
C11 C12 C13 C14 24(2) . . . . ?
C5 C12 C13 C14 177.8(12) . . . . ?
C13' C12 C13 C14 -75.4(16) . . . . ?
C11' C12 C13 C14 -24(2) . . . . ?
C5' C12 C13 C14 -153.2(13) . . . . ?
C11 C12 C13 C12' 103(3) . . . . ?
C5 C12 C13 C12' -103(3) . . . . ?
C13' C12 C13 C12' 4(3) . . . . ?
C11' C12 C13 C12' 54.9(18) . . . . ?
C5' C12 C13 C12' -74(2) . . . . ?
C12' C12 C13 C14' -50(2) . . . . ?
C11 C12 C13 C14' 53(2) . . . . ?
C5 C12 C13 C14' -153.3(12) . . . . ?
C13' C12 C13 C14' -46.4(11) . . . . ?
C11' C12 C13 C14' 4.9(19) . . . . ?
C5' C12 C13 C14' -124.2(13) . . . . ?
C12 C12' C13 C13' 176(3) . . . . ?
C11' C12' C13 C13' 96(2) . . . . ?
C5' C12' C13 C13' -117.4(19) . . . . ?
C11 C12' C13 C13' 131.7(18) . . . . ?
C5 C12' C13 C13' -134.6(18) . . . . ?
C13' C12' C13 C12 -176(3) . . . . ?
C11' C12' C13 C12 -80(2) . . . . ?
C5' C12' C13 C12 67(2) . . . . ?
C11 C12' C13 C12 -43.9(19) . . . . ?
C5 C12' C13 C12 49.7(19) . . . . ?
C12 C12' C13 C14 109(2) . . . . ?
C13' C12' C13 C14 -66.3(16) . . . . ?
C11' C12' C13 C14 30(2) . . . . ?
C5' C12' C13 C14 176.3(11) . . . . ?
C11 C12' C13 C14 65.5(15) . . . . ?
C5 C12' C13 C14 159.1(12) . . . . ?
C12 C12' C13 C14' 131(2) . . . . ?
C13' C12' C13 C14' -44.5(13) . . . . ?
C11' C12' C13 C14' 51.3(18) . . . . ?
C5' C12' C13 C14' -161.9(12) . . . . ?
C11 C12' C13 C14' 87.2(12) . . . . ?
C5 C12' C13 C14' -179.2(10) . . . . ?
C12 C13 C13' C12' 1.9(13) . . . . ?
C14 C13 C13' C12' 116.8(11) . . . . ?
C14' C13 C13' C12' 117.5(14) . . . . ?
C12 C13 C13' C14' -115.6(11) . . . . ?
C14 C13 C13' C14' -0.6(14) . . . . ?
C12' C13 C13' C14' -117.5(14) . . . . ?
C14 C13 C13' C12 115.0(11) . . . . ?
C12' C13 C13' C12 -1.9(13) . . . . ?
C14' C13 C13' C12 115.6(11) . . . . ?
C12 C13 C13' C14 -115.0(11) . . . . ?
C12' C13 C13' C14 -116.8(11) . . . . ?
C14' C13 C13' C14 0.6(14) . . . . ?
C12 C12' C13' C13 -4(3) . . . . ?
C11' C12' C13' C13 -106.8(19) . . . . ?
C5' C12' C13' C13 81(2) . . . . ?
C11 C12' C13' C13 -60(2) . . . . ?
C5 C12' C13' C13 54(2) . . . . ?
C12 C12' C13' C14' 93(3) . . . . ?
C11' C12' C13' C14' -10(2) . . . . ?
C5' C12' C13' C14' 177.3(13) . . . . ?
C13 C12' C13' C14' 96.6(19) . . . . ?
C11 C12' C13' C14' 36(2) . . . . ?
C5 C12' C13' C14' 150.4(13) . . . . ?
C11' C12' C13' C12 -103(3) . . . . ?
C5' C12' C13' C12 85(3) . . . . ?
C13 C12' C13' C12 4(3) . . . . ?
C11 C12' C13' C12 -56(2) . . . . ?
C5 C12' C13' C12 58(2) . . . . ?
C12 C12' C13' C14 59(3) . . . . ?
C11' C12' C13' C14 -44(2) . . . . ?
C5' C12' C13' C14 143.6(13) . . . . ?
C13 C12' C13' C14 62.8(14) . . . . ?
C11 C12' C13' C14 3(2) . . . . ?
C5 C12' C13' C14 116.6(14) . . . . ?
C12' C12 C13' C13 176(3) . . . . ?
C11 C12 C13' C13 -105(2) . . . . ?
C5 C12 C13' C13 91.4(19) . . . . ?
C11' C12 C13' C13 -136.6(17) . . . . ?
C5' C12 C13' C13 116.4(17) . . . . ?
C11 C12 C13' C12' 80(3) . . . . ?
C13 C12 C13' C12' -176(3) . . . . ?
C5 C12 C13' C12' -84(3) . . . . ?
C11' C12 C13' C12' 48(2) . . . . ?
C5' C12 C13' C12' -59(2) . . . . ?
C12' C12 C13' C14' -100(3) . . . . ?
C11 C12 C13' C14' -21(2) . . . . ?
C13 C12 C13' C14' 84.3(18) . . . . ?
C5 C12 C13' C14' 175.8(13) . . . . ?
C11' C12 C13' C14' -52.3(16) . . . . ?
C5' C12 C13' C14' -159.2(12) . . . . ?
C12' C12 C13' C14 -128(2) . . . . ?
C11 C12 C13' C14 -48.2(18) . . . . ?
C13 C12 C13' C14 56.7(14) . . . . ?
C5 C12 C13' C14 148.1(12) . . . . ?
C11' C12 C13' C14 -80.0(11) . . . . ?
C5' C12 C13' C14 173.1(10) . . . . ?
C10' C9 C14 C14' -57.5(19) . . . . ?
C10 C9 C14 C14' -101.2(18) . . . . ?
C8 C9 C14 C14' 113.5(16) . . . . ?
C10' C9 C14 C13 22(2) . . . . ?
C10 C9 C14 C13 -21(2) . . . . ?
C14' C9 C14 C13 79.9(19) . . . . ?
C8 C9 C14 C13 -166.6(12) . . . . ?
C10' C9 C14 C13' -12.0(15) . . . . ?
C10 C9 C14 C13' -55.7(14) . . . . ?
C14' C9 C14 C13' 45.5(13) . . . . ?
C8 C9 C14 C13' 159.0(8) . . . . ?
C13' C13 C14 C14' 1(2) . . . . ?
C12 C13 C14 C14' 74(2) . . . . ?
C12' C13 C14 C14' 48(2) . . . . ?
C13' C13 C14 C9 -75(2) . . . . ?
C12 C13 C14 C9 -2(2) . . . . ?
C12' C13 C14 C9 -28(2) . . . . ?
C14' C13 C14 C9 -76.1(18) . . . . ?
C12 C13 C14 C13' 72.8(16) . . . . ?
C12' C13 C14 C13' 47.5(12) . . . . ?
C14' C13 C14 C13' -1(2) . . . . ?
C13 C13' C14 C14' -179(3) . . . . ?
C12' C13' C14 C14' 102(2) . . . . ?
C12 C13' C14 C14' 124(2) . . . . ?
C13 C13' C14 C9 121.0(18) . . . . ?
C12' C13' C14 C9 42.2(18) . . . . ?
C14' C13' C14 C9 -60.2(17) . . . . ?
C12 C13' C14 C9 63.8(13) . . . . ?
C12' C13' C14 C13 -78.8(18) . . . . ?
C14' C13' C14 C13 179(3) . . . . ?
C12 C13' C14 C13 -57.2(14) . . . . ?
C9 C14 C14' C13' 124.2(11) . . . . ?
C13 C14 C14' C13' -0.7(15) . . . . ?
C13 C14 C14' C9 -124.8(10) . . . . ?
C13' C14 C14' C9 -124.2(11) . . . . ?
C9 C14 C14' C13 124.8(10) . . . . ?
C13' C14 C14' C13 0.7(15) . . . . ?
C13 C13' C14' C14 1(2) . . . . ?
C12' C13' C14' C14 -93(2) . . . . ?
C12 C13' C14' C14 -65(2) . . . . ?
C13 C13' C14' C9 65(2) . . . . ?
C12' C13' C14' C9 -29(2) . . . . ?
C12 C13' C14' C9 -1(2) . . . . ?
C14 C13' C14' C9 63.9(17) . . . . ?
C12' C13' C14' C13 -94(2) . . . . ?
C12 C13' C14' C13 -65.8(15) . . . . ?
C14 C13' C14' C13 -1(2) . . . . ?
C10' C9 C14' C14 132.4(16) . . . . ?
C10 C9 C14' C14 97.1(18) . . . . ?
C8 C9 C14' C14 -87.6(17) . . . . ?
C14 C9 C14' C13' -80.0(19) . . . . ?
C10' C9 C14' C13' 52.4(17) . . . . ?
C10 C9 C14' C13' 17(2) . . . . ?
C8 C9 C14' C13' -167.7(11) . . . . ?
C14 C9 C14' C13 -49.5(14) . . . . ?
C10' C9 C14' C13 82.9(12) . . . . ?
C10 C9 C14' C13 47.5(15) . . . . ?
C8 C9 C14' C13 -137.1(10) . . . . ?
C13' C13 C14' C14 -179(3) . . . . ?
C12 C13 C14' C14 -115(2) . . . . ?
C12' C13 C14' C14 -134(2) . . . . ?
C12 C13 C14' C13' 64.0(16) . . . . ?
C14 C13 C14' C13' 179(3) . . . . ?
C12' C13 C14' C13' 45.2(14) . . . . ?
C13' C13 C14' C9 -128.0(19) . . . . ?
C12 C13 C14' C9 -64.0(15) . . . . ?
C14 C13 C14' C9 50.7(15) . . . . ?
C12' C13 C14' C9 -82.9(12) . . . . ?
O1 Fe4 O59 C22 -24.6(4) . . . . ?
O9 Fe4 O59 C22 71.9(4) . . . . ?
O14 Fe4 O59 C22 172.5(5) . . . . ?
O55 Fe4 O59 C22 -120.8(4) . . . . ?
N3 Fe4 O59 C22 156.0(4) . . . . ?
O1 Fe9 O60 C22 18.8(4) . . . . ?
O10 Fe9 O60 C22 -78.8(4) . . . . ?
O6 Fe9 O60 C22 -171.4(4) . . . . ?
O63 Fe9 O60 C22 113.9(4) . . . . ?
N2 Fe9 O60 C22 -163.2(4) . . . . ?
O2 Fe2 O61 C15 15.1(4) . . . . ?
O26 Fe2 O61 C15 -162.6(3) . . . . ?
O76 Fe2 O61 C15 110.2(4) . . . . ?
O17 Fe2 O61 C15 -79.9(4) . . . . ?
N12 Fe2 O61 C15 -164.0(4) . . . . ?
O2 Fe3 O62 C15 -24.9(4) . . . . ?
O22 Fe3 O62 C15 155.4(4) . . . . ?
O18 Fe3 O62 C15 73.2(4) . . . . ?
O71 Fe3 O62 C15 -119.9(4) . . . . ?
N11 Fe3 O62 C15 157.9(4) . . . . ?
Fe3 O62 C15 O61 1.8(8) . . . . ?
Fe3 O62 C15 C16 -179.3(3) . . . . ?
Fe2 O61 C15 O62 4.3(7) . . . . ?
Fe2 O61 C15 C16 -174.6(3) . . . . ?
O62 C15 C16 C21 -174.1(5) . . . . ?
O61 C15 C16 C21 4.9(8) . . . . ?
O62 C15 C16 C17 3.3(8) . . . . ?
O61 C15 C16 C17 -177.7(5) . . . . ?
C21 C16 C17 C18 1.0(11) . . . . ?
C15 C16 C17 C18 -176.6(7) . . . . ?
C16 C17 C18 C19 -2.4(13) . . . . ?
C17 C18 C19 C20 2.3(11) . . . . ?
C17 C18 C19 C26 177.2(7) . . . . ?
C18 C19 C20 C21 -1.0(11) . . . . ?
C26 C19 C20 C21 -176.0(6) . . . . ?
C17 C16 C21 C20 0.3(10) . . . . ?
C15 C16 C21 C20 177.8(5) . . . . ?
C19 C20 C21 C16 -0.3(11) . . . . ?
Fe9 O60 C22 O59 1.8(8) . . . . ?
Fe9 O60 C22 C23 -177.3(3) . . . . ?
Fe4 O59 C22 O60 1.8(8) . . . . ?
Fe4 O59 C22 C23 -179.0(3) . . . . ?
O60 C22 C23 C24 169.1(5) . . . . ?
O59 C22 C23 C24 -10.2(8) . . . . ?
O60 C22 C23 C28 -11.0(7) . . . . ?
O59 C22 C23 C28 169.7(5) . . . . ?
C28 C23 C24 C25 6.0(10) . . . . ?
C22 C23 C24 C25 -174.1(6) . . . . ?
C23 C24 C25 C26 -4.6(12) . . . . ?
C24 C25 C26 C27 0.5(10) . . . . ?
C24 C25 C26 C19 176.6(6) . . . . ?
C18 C19 C26 C25 -160.5(7) . . . . ?
C20 C19 C26 C25 14.2(10) . . . . ?
C18 C19 C26 C27 15.4(9) . . . . ?
C20 C19 C26 C27 -169.9(6) . . . . ?
C25 C26 C27 C28 1.8(9) . . . . ?
C19 C26 C27 C28 -174.4(5) . . . . ?
C24 C23 C28 C27 -3.5(9) . . . . ?
C22 C23 C28 C27 176.6(5) . . . . ?
C26 C27 C28 C23 -0.4(9) . . . . ?
O1 Fe9 O63 C36 -25.8(5) . . . . ?
O10 Fe9 O63 C36 160.3(4) . . . . ?
O6 Fe9 O63 C36 71.5(5) . . . . ?
O60 Fe9 O63 C36 -120.5(5) . . . . ?
N2 Fe9 O63 C36 156.8(5) . . . . ?
O1 Fe11 O64 C36 30.3(5) . . . . ?
O13 Fe11 O64 C36 -158.0(5) . . . . ?
O5 Fe11 O64 C36 -68.3(5) . . . . ?
O56 Fe11 O64 C36 124.7(5) . . . . ?
N1 Fe11 O64 C36 -154.1(5) . . . . ?
O3 Fe8 O65 C29 -15.6(5) . . . . ?
O39 Fe8 O65 C29 173.3(4) . . . . ?
O34 Fe8 O65 C29 80.3(5) . . . . ?
O69 Fe8 O65 C29 -109.5(5) . . . . ?
N4 Fe8 O65 C29 166.7(5) . . . . ?
O3 Fe10 O66 C29 27.7(5) . . . . ?
O33 Fe10 O66 C29 -70.6(5) . . . . ?
O30 Fe10 O66 C29 -162.6(5) . . . . ?
O73 Fe10 O66 C29 121.6(5) . . . . ?
N5 Fe10 O66 C29 -157.1(5) . . . . ?
Fe10 O66 C29 O65 -4.2(9) . . . . ?
Fe10 O66 C29 C30 176.8(3) . . . . ?
Fe8 O65 C29 O66 -3.2(9) . . . . ?
Fe8 O65 C29 C30 175.7(3) . . . . ?
O66 C29 C30 C31 -179.7(6) . . . . ?
O65 C29 C30 C31 1.3(9) . . . . ?
O66 C29 C30 C35 2.4(9) . . . . ?
O65 C29 C30 C35 -176.6(6) . . . . ?
C35 C30 C31 C32 -0.1(12) . . . . ?
C29 C30 C31 C32 -178.0(7) . . . . ?
C30 C31 C32 C33 2.1(13) . . . . ?
C31 C32 C33 C34 -3.0(12) . . . . ?
C31 C32 C33 C40 173.3(7) . . . . ?
C32 C33 C34 C35 2.0(12) . . . . ?
C40 C33 C34 C35 -174.2(6) . . . . ?
C31 C30 C35 C34 -1.0(11) . . . . ?
C29 C30 C35 C34 177.0(6) . . . . ?
C33 C34 C35 C30 0.0(12) . . . . ?
Fe9 O63 C36 O64 11.0(8) . . . . ?
Fe9 O63 C36 C37 -170.2(3) . . . . ?
Fe11 O64 C36 O63 -13.8(8) . . . . ?
Fe11 O64 C36 C37 167.4(3) . . . . ?
O63 C36 C37 C42 7.4(8) . . . . ?
O64 C36 C37 C42 -173.7(6) . . . . ?
O63 C36 C37 C38 -172.8(6) . . . . ?
O64 C36 C37 C38 6.1(8) . . . . ?
C42 C37 C38 C39 -5.7(10) . . . . ?
C36 C37 C38 C39 174.6(6) . . . . ?
C37 C38 C39 C40 2.9(11) . . . . ?
C38 C39 C40 C41 1.6(11) . . . . ?
C38 C39 C40 C33 -176.6(6) . . . . ?
C34 C33 C40 C41 -18.2(10) . . . . ?
C32 C33 C40 C41 165.8(8) . . . . ?
C34 C33 C40 C39 159.9(8) . . . . ?
C32 C33 C40 C39 -16.1(11) . . . . ?
C39 C40 C41 C42 -3.1(11) . . . . ?
C33 C40 C41 C42 175.1(6) . . . . ?
C38 C37 C42 C41 4.2(10) . . . . ?
C36 C37 C42 C41 -176.0(6) . . . . ?
C40 C41 C42 C37 0.1(11) . . . . ?
O4 Fe6 O67 C43 25.0(5) . . . . ?
O51 Fe6 O67 C43 -153.6(5) . . . . ?
O44 Fe6 O67 C43 -73.4(5) . . . . ?
O77 Fe6 O67 C43 120.3(5) . . . . ?
N9 Fe6 O67 C43 -156.8(5) . . . . ?
O4 Fe12 O68 C43 -22.5(5) . . . . ?
O43 Fe12 O68 C43 74.0(5) . . . . ?
O47 Fe12 O68 C43 162.1(4) . . . . ?
O58 Fe12 O68 C43 -117.9(5) . . . . ?
N7 Fe12 O68 C43 157.6(5) . . . . ?
O3 Fe8 O69 C50 25.8(4) . . . . ?
O39 Fe8 O69 C50 -71.9(4) . . . . ?
O34 Fe8 O69 C50 -166.6(5) . . . . ?
O65 Fe8 O69 C50 122.0(4) . . . . ?
N4 Fe8 O69 C50 -155.6(4) . . . . ?
O3 Fe5 O70 C50 -19.9(5) . . . . ?
O40 Fe5 O70 C50 78.0(5) . . . . ?
O29 Fe5 O70 C50 176.2(5) . . . . ?
O74 Fe5 O70 C50 -115.7(5) . . . . ?
N6 Fe5 O70 C50 161.1(5) . . . . ?
Fe12 O68 C43 O67 3.5(8) . . . . ?
Fe12 O68 C43 C44 -179.8(3) . . . . ?
Fe6 O67 C43 O68 -5.1(8) . . . . ?
Fe6 O67 C43 C44 178.2(3) . . . . ?
O68 C43 C44 C45 4.6(9) . . . . ?
O67 C43 C44 C45 -178.4(6) . . . . ?
O68 C43 C44 C49 -177.6(6) . . . . ?
O67 C43 C44 C49 -0.6(9) . . . . ?
C49 C44 C45 C46 4.1(12) . . . . ?
C43 C44 C45 C46 -178.1(7) . . . . ?
C44 C45 C46 C47 -3.3(14) . . . . ?
C45 C46 C47 C48 4.6(14) . . . . ?
C45 C46 C47 C54 177.7(8) . . . . ?
C46 C47 C48 C49 -6.9(13) . . . . ?
C54 C47 C48 C49 -179.8(8) . . . . ?
C45 C44 C49 C48 -6.5(12) . . . . ?
C43 C44 C49 C48 175.7(7) . . . . ?
C47 C48 C49 C44 8.2(14) . . . . ?
Fe5 O70 C50 O69 -1.6(8) . . . . ?
Fe5 O70 C50 C51 176.8(3) . . . . ?
Fe8 O69 C50 O70 -2.2(8) . . . . ?
Fe8 O69 C50 C51 179.4(3) . . . . ?
O70 C50 C51 C52 -177.6(6) . . . . ?
O69 C50 C51 C52 1.0(8) . . . . ?
O70 C50 C51 C56 0.5(8) . . . . ?
O69 C50 C51 C56 179.1(6) . . . . ?
C56 C51 C52 C53 1.2(11) . . . . ?
C50 C51 C52 C53 179.3(6) . . . . ?
C51 C52 C53 C54 -3.4(13) . . . . ?
C52 C53 C54 C55 3.6(12) . . . . ?
C52 C53 C54 C47 -175.9(7) . . . . ?
C48 C47 C54 C53 168.5(9) . . . . ?
C46 C47 C54 C53 -4.1(12) . . . . ?
C48 C47 C54 C55 -11.0(12) . . . . ?
C46 C47 C54 C55 176.5(9) . . . . ?
C53 C54 C55 C56 -1.9(13) . . . . ?
C47 C54 C55 C56 177.6(8) . . . . ?
C52 C51 C56 C55 0.5(12) . . . . ?
C50 C51 C56 C55 -177.7(7) . . . . ?
C54 C55 C56 C51 -0.1(14) . . . . ?
O2 Fe3 O71 C57 26.2(4) . . . . ?
O22 Fe3 O71 C57 -70.9(4) . . . . ?
O18 Fe3 O71 C57 -160.8(4) . . . . ?
O62 Fe3 O71 C57 121.8(4) . . . . ?
N11 Fe3 O71 C57 -154.8(4) . . . . ?
O2 Fe1 O72 C57 -22.1(4) . . . . ?
O25 Fe1 O72 C57 171.2(4) . . . . ?
O21 Fe1 O72 C57 73.7(4) . . . . ?
O75 Fe1 O72 C57 -114.6(4) . . . . ?
N10 Fe1 O72 C57 159.1(4) . . . . ?
O3 Fe10 O73 C64 -23.0(5) . . . . ?
O33 Fe10 O73 C64 170.4(5) . . . . ?
O30 Fe10 O73 C64 73.5(5) . . . . ?
O66 Fe10 O73 C64 -117.7(5) . . . . ?
N5 Fe10 O73 C64 159.2(5) . . . . ?
O3 Fe5 O74 C64 21.3(4) . . . . ?
O40 Fe5 O74 C64 -166.7(4) . . . . ?
O29 Fe5 O74 C64 -75.9(4) . . . . ?
O70 Fe5 O74 C64 114.2(5) . . . . ?
N6 Fe5 O74 C64 -161.7(4) . . . . ?
Fe1 O72 C57 O71 4.8(8) . . . . ?
Fe1 O72 C57 C58 -177.1(3) . . . . ?
Fe3 O71 C57 O72 -7.3(8) . . . . ?
Fe3 O71 C57 C58 174.6(3) . . . . ?
O72 C57 C58 C59 -1.3(7) . . . . ?
O71 C57 C58 C59 177.0(5) . . . . ?
O72 C57 C58 C63 177.1(5) . . . . ?
O71 C57 C58 C63 -4.6(7) . . . . ?
C63 C58 C59 C60 4.0(9) . . . . ?
C57 C58 C59 C60 -177.6(5) . . . . ?
C58 C59 C60 C61 -2.3(10) . . . . ?
C59 C60 C61 C62 0.5(10) . . . . ?
C59 C60 C61 C68 178.6(6) . . . . ?
C60 C61 C62 C63 -0.5(11) . . . . ?
C68 C61 C62 C63 -178.6(7) . . . . ?
C61 C62 C63 C58 2.2(12) . . . . ?
C59 C58 C63 C62 -4.0(10) . . . . ?
C57 C58 C63 C62 177.6(6) . . . . ?
Fe10 O73 C64 O74 2.1(8) . . . . ?
Fe10 O73 C64 C65 179.5(3) . . . . ?
Fe5 O74 C64 O73 -1.0(8) . . . . ?
Fe5 O74 C64 C65 -178.3(3) . . . . ?
O73 C64 C65 C66 -177.2(6) . . . . ?
O74 C64 C65 C66 0.5(8) . . . . ?
O73 C64 C65 C70 1.8(8) . . . . ?
O74 C64 C65 C70 179.4(6) . . . . ?
C70 C65 C66 C67 -2.7(12) . . . . ?
C64 C65 C66 C67 176.2(7) . . . . ?
C65 C66 C67 C68 3.3(13) . . . . ?
C66 C67 C68 C69 -2.4(12) . . . . ?
C66 C67 C68 C61 -177.6(7) . . . . ?
C62 C61 C68 C69 0.4(11) . . . . ?
C60 C61 C68 C69 -177.7(7) . . . . ?
C62 C61 C68 C67 175.5(8) . . . . ?
C60 C61 C68 C67 -2.6(10) . . . . ?
C67 C68 C69 C70 1.2(13) . . . . ?
C61 C68 C69 C70 176.6(7) . . . . ?
C66 C65 C70 C69 1.5(12) . . . . ?
C64 C65 C70 C69 -177.5(7) . . . . ?
C68 C69 C70 C65 -0.8(14) . . . . ?
O2 Fe1 O75 C78 20.4(4) . . . . ?
O25 Fe1 O75 C78 -77.7(4) . . . . ?
O72 Fe1 O75 C78 115.5(4) . . . . ?
N10 Fe1 O75 C78 -162.7(4) . . . . ?
O2 Fe2 O76 C78 -22.4(4) . . . . ?
O26 Fe2 O76 C78 75.0(4) . . . . ?
O17 Fe2 O76 C78 166.0(5) . . . . ?
O61 Fe2 O76 C78 -119.5(4) . . . . ?
N12 Fe2 O76 C78 157.3(4) . . . . ?
O4 Fe6 O77 C71 -19.5(4) . . . . ?
O51 Fe6 O77 C71 77.7(4) . . . . ?
O44 Fe6 O77 C71 163.9(4) . . . . ?
O67 Fe6 O77 C71 -113.9(4) . . . . ?
N9 Fe6 O77 C71 161.9(4) . . . . ?
O4 Fe7 O78 C71 21.7(5) . . . . ?
O52 Fe7 O78 C71 -75.8(5) . . . . ?
O48 Fe7 O78 C71 -160.9(5) . . . . ?
O57 Fe7 O78 C71 115.8(5) . . . . ?
N8 Fe7 O78 C71 -158.8(5) . . . . ?
Fe7 O78 C71 O77 1.3(8) . . . . ?
Fe7 O78 C71 C72 -177.4(3) . . . . ?
Fe6 O77 C71 O78 -2.9(8) . . . . ?
Fe6 O77 C71 C72 175.9(3) . . . . ?
O78 C71 C72 C77 171.2(6) . . . . ?
O77 C71 C72 C77 -7.7(8) . . . . ?
O78 C71 C72 C73 -11.4(8) . . . . ?
O77 C71 C72 C73 169.7(6) . . . . ?
C77 C72 C73 C74 -3.1(11) . . . . ?
C71 C72 C73 C74 179.4(7) . . . . ?
C72 C73 C74 C75 -1.3(12) . . . . ?
C73 C74 C75 C76 4.8(12) . . . . ?
C73 C74 C75 C82 -179.0(7) . . . . ?
C74 C75 C76 C77 -4.1(12) . . . . ?
C82 C75 C76 C77 179.8(7) . . . . ?
C73 C72 C77 C76 3.9(11) . . . . ?
C71 C72 C77 C76 -178.6(6) . . . . ?
C75 C76 C77 C72 -0.3(13) . . . . ?
Fe1 O75 C78 O76 3.3(7) . . . . ?
Fe1 O75 C78 C79 -172.6(3) . . . . ?
Fe2 O76 C78 O75 -2.1(7) . . . . ?
Fe2 O76 C78 C79 173.7(3) . . . . ?
O75 C78 C79 C80 168.8(5) . . . . ?
O76 C78 C79 C80 -7.5(7) . . . . ?
O75 C78 C79 C84 -13.7(7) . . . . ?
O76 C78 C79 C84 170.0(5) . . . . ?
C84 C79 C80 C81 4.9(9) . . . . ?
C78 C79 C80 C81 -177.5(5) . . . . ?
C79 C80 C81 C82 -1.6(10) . . . . ?
C80 C81 C82 C83 -1.3(10) . . . . ?
C80 C81 C82 C75 178.0(6) . . . . ?
C76 C75 C82 C81 -159.8(7) . . . . ?
C74 C75 C82 C81 24.3(10) . . . . ?
C76 C75 C82 C83 19.5(10) . . . . ?
C74 C75 C82 C83 -156.4(7) . . . . ?
C81 C82 C83 C84 0.7(11) . . . . ?
C75 C82 C83 C84 -178.6(6) . . . . ?
C80 C79 C84 C83 -5.4(10) . . . . ?
C78 C79 C84 C83 177.0(6) . . . . ?
C82 C83 C84 C79 2.8(11) . . . . ?
O13 Fe11 N1 C89 -138.9(5) . . . . ?
O5 Fe11 N1 C89 -48.2(4) . . . . ?
O56 Fe11 N1 C89 129.1(5) . . . . ?
O64 Fe11 N1 C89 41.9(4) . . . . ?
O13 Fe11 N1 C85 46.4(4) . . . . ?
O5 Fe11 N1 C85 137.0(4) . . . . ?
O56 Fe11 N1 C85 -45.6(4) . . . . ?
O64 Fe11 N1 C85 -132.8(4) . . . . ?
C89 N1 C85 C86 -2.4(9) . . . . ?
Fe11 N1 C85 C86 172.6(5) . . . . ?
N1 C85 C86 C87 1.0(12) . . . . ?
C85 C86 C87 C88 1.2(15) . . . . ?
C86 C87 C88 C89 -1.9(16) . . . . ?
C85 N1 C89 C88 1.6(9) . . . . ?
Fe11 N1 C89 C88 -173.4(5) . . . . ?
C87 C88 C89 N1 0.6(13) . . . . ?
O10 Fe9 N2 C94 -45.7(4) . . . . ?
O6 Fe9 N2 C94 -135.1(4) . . . . ?
O60 Fe9 N2 C94 46.7(4) . . . . ?
O63 Fe9 N2 C94 133.5(4) . . . . ?
O10 Fe9 N2 C90 135.5(4) . . . . ?
O6 Fe9 N2 C90 46.1(4) . . . . ?
O60 Fe9 N2 C90 -132.1(4) . . . . ?
O63 Fe9 N2 C90 -45.3(4) . . . . ?
C94 N2 C90 C91 -2.3(8) . . . . ?
Fe9 N2 C90 C91 176.6(4) . . . . ?
N2 C90 C91 C92 1.6(10) . . . . ?
C90 C91 C92 C93 -0.5(12) . . . . ?
C91 C92 C93 C94 0.0(11) . . . . ?
C90 N2 C94 C93 1.8(9) . . . . ?
Fe9 N2 C94 C93 -177.0(4) . . . . ?
C92 C93 C94 N2 -0.7(10) . . . . ?
O9 Fe4 N3 C99 -132.5(5) . . . . ?
O14 Fe4 N3 C99 -41.5(5) . . . . ?
O59 Fe4 N3 C99 135.0(5) . . . . ?
O55 Fe4 N3 C99 49.3(5) . . . . ?
O9 Fe4 N3 C95 40.6(5) . . . . ?
O14 Fe4 N3 C95 131.6(5) . . . . ?
O59 Fe4 N3 C95 -51.9(5) . . . . ?
O55 Fe4 N3 C95 -137.6(5) . . . . ?
C99 N3 C95 C96 -4.5(10) . . . . ?
Fe4 N3 C95 C96 -178.0(5) . . . . ?
N3 C95 C96 C97 2.7(12) . . . . ?
C95 C96 C97 C98 -0.7(16) . . . . ?
C96 C97 C98 C99 0.5(18) . . . . ?
C95 N3 C99 C98 4.8(12) . . . . ?
Fe4 N3 C99 C98 178.1(7) . . . . ?
C97 C98 C99 N3 -2.8(16) . . . . ?
O39 Fe8 N4 C100 128.9(5) . . . . ?
O34 Fe8 N4 C100 39.6(5) . . . . ?
O69 Fe8 N4 C100 -138.5(5) . . . . ?
O65 Fe8 N4 C100 -52.7(5) . . . . ?
O39 Fe8 N4 C104 -48.4(4) . . . . ?
O34 Fe8 N4 C104 -137.7(4) . . . . ?
O69 Fe8 N4 C104 44.2(4) . . . . ?
O65 Fe8 N4 C104 130.0(5) . . . . ?
C104 N4 C100 C101 -5.7(11) . . . . ?
Fe8 N4 C100 C101 177.1(6) . . . . ?
N4 C100 C101 C102 4(2) . . . . ?
C100 C101 C102 C103 1(3) . . . . ?
C101 C102 C103 C104 -4(3) . . . . ?
C102 C103 C104 N4 2.1(18) . . . . ?
C100 N4 C104 C103 3.2(11) . . . . ?
Fe8 N4 C104 C103 -179.5(7) . . . . ?
O33 Fe10 N5 C109 -52.5(4) . . . . ?
O30 Fe10 N5 C109 -143.0(4) . . . . ?
O73 Fe10 N5 C109 125.0(4) . . . . ?
O66 Fe10 N5 C109 38.1(4) . . . . ?
O33 Fe10 N5 C105 129.0(4) . . . . ?
O30 Fe10 N5 C105 38.5(4) . . . . ?
O73 Fe10 N5 C105 -53.5(4) . . . . ?
O66 Fe10 N5 C105 -140.4(4) . . . . ?
C109 N5 C105 C106 -2.5(9) . . . . ?
Fe10 N5 C105 C106 176.1(5) . . . . ?
N5 C105 C106 C107 4.7(11) . . . . ?
C105 C106 C107 C108 -4.5(13) . . . . ?
C106 C107 C108 C109 2.4(13) . . . . ?
C105 N5 C109 C108 0.1(9) . . . . ?
Fe10 N5 C109 C108 -178.4(4) . . . . ?
C107 C108 C109 N5 -0.1(11) . . . . ?
O40 Fe5 N6 C110 47.9(4) . . . . ?
O29 Fe5 N6 C110 137.5(4) . . . . ?
O70 Fe5 N6 C110 -45.4(4) . . . . ?
O74 Fe5 N6 C110 -130.9(4) . . . . ?
O40 Fe5 N6 C114 -128.0(4) . . . . ?
O29 Fe5 N6 C114 -38.4(4) . . . . ?
O70 Fe5 N6 C114 138.7(4) . . . . ?
O74 Fe5 N6 C114 53.2(4) . . . . ?
C114 N6 C110 C111 -2.1(9) . . . . ?
Fe5 N6 C110 C111 -178.1(5) . . . . ?
N6 C110 C111 C112 2.5(11) . . . . ?
C110 C111 C112 C113 -1.7(13) . . . . ?
C111 C112 C113 C114 0.8(13) . . . . ?
C110 N6 C114 C113 1.0(8) . . . . ?
Fe5 N6 C114 C113 177.1(5) . . . . ?
C112 C113 C114 N6 -0.4(11) . . . . ?
O43 Fe12 N7 C119 -137.5(4) . . . . ?
O47 Fe12 N7 C119 -48.9(4) . . . . ?
O68 Fe12 N7 C119 130.0(4) . . . . ?
O58 Fe12 N7 C119 42.7(4) . . . . ?
O43 Fe12 N7 C115 41.0(4) . . . . ?
O47 Fe12 N7 C115 129.5(4) . . . . ?
O68 Fe12 N7 C115 -51.5(4) . . . . ?
O58 Fe12 N7 C115 -138.9(4) . . . . ?
C119 N7 C115 C116 1.7(9) . . . . ?
Fe12 N7 C115 C116 -176.8(5) . . . . ?
N7 C115 C116 C117 -1.2(12) . . . . ?
C115 C116 C117 C118 -0.1(14) . . . . ?
C116 C117 C118 C119 0.8(12) . . . . ?
C115 N7 C119 C118 -0.9(9) . . . . ?
Fe12 N7 C119 C118 177.6(5) . . . . ?
C117 C118 C119 N7 -0.3(10) . . . . ?
O52 Fe7 N8 C124 -44.4(2) . . . . ?
O48 Fe7 N8 C124 -134.0(2) . . . . ?
O57 Fe7 N8 C124 133.5(2) . . . . ?
O78 Fe7 N8 C124 46.4(2) . . . . ?
O52 Fe7 N8 C120 129.9(2) . . . . ?
O48 Fe7 N8 C120 40.3(2) . . . . ?
O57 Fe7 N8 C120 -52.2(2) . . . . ?
O78 Fe7 N8 C120 -139.3(2) . . . . ?
C124 N8 C120 C121 -6.7 . . . . ?
Fe7 N8 C120 C121 -179.9(2) . . . . ?
N8 C120 C121 C122 6.9 . . . . ?
C120 C121 C122 C123 0.8 . . . . ?
C121 C122 C123 C124 -10.0 . . . . ?
C120 N8 C124 C123 -1.9 . . . . ?
Fe7 N8 C124 C123 171.7(2) . . . . ?
C122 C123 C124 N8 10.5 . . . . ?
O51 Fe6 N9 C129 -132.3(5) . . . . ?
O44 Fe6 N9 C129 -44.7(5) . . . . ?
O67 Fe6 N9 C129 47.0(5) . . . . ?
O77 Fe6 N9 C129 134.8(5) . . . . ?
O51 Fe6 N9 C125 46.0(5) . . . . ?
O44 Fe6 N9 C125 133.6(5) . . . . ?
O67 Fe6 N9 C125 -134.7(5) . . . . ?
O77 Fe6 N9 C125 -46.9(5) . . . . ?
C129 N9 C125 C126 0.0(11) . . . . ?
Fe6 N9 C125 C126 -178.3(7) . . . . ?
N9 C125 C126 C127 1.8(17) . . . . ?
C125 C126 C127 C128 -2(2) . . . . ?
C126 C127 C128 C129 0(2) . . . . ?
C125 N9 C129 C128 -1.9(10) . . . . ?
Fe6 N9 C129 C128 176.5(6) . . . . ?
C127 C128 C129 N9 1.9(14) . . . . ?
O25 Fe1 N10 C134 -45.4(3) . . . . ?
O21 Fe1 N10 C134 -135.9(3) . . . . ?
O72 Fe1 N10 C134 131.8(3) . . . . ?
O75 Fe1 N10 C134 46.2(3) . . . . ?
O25 Fe1 N10 C130 130.0(3) . . . . ?
O21 Fe1 N10 C130 39.5(3) . . . . ?
O72 Fe1 N10 C130 -52.8(3) . . . . ?
O75 Fe1 N10 C130 -138.4(3) . . . . ?
C134 N10 C130 C131 -1.7(7) . . . . ?
Fe1 N10 C130 C131 -177.3(4) . . . . ?
N10 C130 C131 C132 1.7(9) . . . . ?
C130 C131 C132 C133 -1.5(9) . . . . ?
C131 C132 C133 C134 1.5(9) . . . . ?
C130 N10 C134 C133 1.7(7) . . . . ?
Fe1 N10 C134 C133 177.3(4) . . . . ?
C132 C133 C134 N10 -1.6(8) . . . . ?
O22 Fe3 N11 C135 135.2(4) . . . . ?
O18 Fe3 N11 C135 46.8(4) . . . . ?
O71 Fe3 N11 C135 -131.9(4) . . . . ?
O62 Fe3 N11 C135 -44.2(4) . . . . ?
O22 Fe3 N11 C139 -45.1(4) . . . . ?
O18 Fe3 N11 C139 -133.6(4) . . . . ?
O71 Fe3 N11 C139 47.8(4) . . . . ?
O62 Fe3 N11 C139 135.5(4) . . . . ?
C139 N11 C135 C136 -3.3(9) . . . . ?
Fe3 N11 C135 C136 176.4(5) . . . . ?
N11 C135 C136 C137 3.8(11) . . . . ?
C135 C136 C137 C138 -1.3(12) . . . . ?
C136 C137 C138 C139 -1.4(11) . . . . ?
C135 N11 C139 C138 0.3(8) . . . . ?
Fe3 N11 C139 C138 -179.4(4) . . . . ?
C137 C138 C139 N11 2.1(10) . . . . ?
O26 Fe2 N12 C144 -132.5(4) . . . . ?
O76 Fe2 N12 C144 133.7(4) . . . . ?
O17 Fe2 N12 C144 -44.8(3) . . . . ?
O61 Fe2 N12 C144 47.1(3) . . . . ?
O26 Fe2 N12 C140 40.4(3) . . . . ?
O76 Fe2 N12 C140 -53.4(3) . . . . ?
O17 Fe2 N12 C140 128.2(3) . . . . ?
O61 Fe2 N12 C140 -139.9(3) . . . . ?
C144 N12 C140 C141 2.9(7) . . . . ?
Fe2 N12 C140 C141 -170.3(4) . . . . ?
N12 C140 C141 C142 -2.4(9) . . . . ?
C140 C141 C142 C143 -1.0(9) . . . . ?
C141 C142 C143 C144 3.5(9) . . . . ?
C140 N12 C144 C143 -0.1(7) . . . . ?
Fe2 N12 C144 C143 173.2(4) . . . . ?
C142 C143 C144 N12 -3.1(9) . . . . ?

_diffrn_measured_fraction_theta_max 0.999
_diffrn_reflns_theta_full        23.26
_diffrn_measured_fraction_theta_full 0.999
_refine_diff_density_max         1.103
_refine_diff_density_min         -0.920
_refine_diff_density_rms         0.063
####################################################################### 
# 
# This file contains crystal structure data downloaded from the 
# Cambridge Structural Database (CSD) hosted by the Cambridge 
# Crystallographic Data Centre (CCDC).
# 
# Full information about CCDC data access policies and citation 
# guidelines are available at http://www.ccdc.cam.ac.uk/access/V1 
# 
# Audit and citation data items may have been added by the CCDC. 
# Please retain this information to preserve the provenance of 
# this file and to allow appropriate attribution of the data. 
# 
#######################################################################

data_IRMOP-52
_audit_block_doi                 10.5517/cc95qfl
_database_code_depnum_ccdc_archive 'CCDC 273619'
loop_
_citation_id
_citation_doi
_citation_year
1 10.1021/ja042802q 2005
_audit_update_record             
;
2005-06-01 deposited with the CCDC.	2019-02-14 downloaded from the CCDC.
;

_audit_creation_method           SHELXL-97
_chemical_name_systematic        
;
?
;
_chemical_name_common            IRMOP-52
_chemical_melting_point          ?
_chemical_formula_moiety         
'C168 H132 Fe12 N12 O76 S12, 10(C5 N), 4(C2 N), 4(O2) 10(O)'
_chemical_formula_sum            'C226 H132 Fe12 N26 O94 S12'
_chemical_formula_weight         5770.50

loop_
_atom_type_symbol
_atom_type_description
_atom_type_scat_dispersion_real
_atom_type_scat_dispersion_imag
_atom_type_scat_source
C C 0.0033 0.0016 'International Tables Vol C Tables 4.2.6.8 and 6.1.1.4'
H H 0.0000 0.0000 'International Tables Vol C Tables 4.2.6.8 and 6.1.1.4'
N N 0.0061 0.0033 'International Tables Vol C Tables 4.2.6.8 and 6.1.1.4'
O O 0.0106 0.0060 'International Tables Vol C Tables 4.2.6.8 and 6.1.1.4'
S S 0.1246 0.1234 'International Tables Vol C Tables 4.2.6.8 and 6.1.1.4'
Fe Fe 0.3463 0.8444 'International Tables Vol C Tables 4.2.6.8 and 6.1.1.4'

_symmetry_cell_setting           Monoclinic
_symmetry_space_group_name_H-M   C2/c
_symmetry_space_group_name_Hall  -C2yc

loop_
_symmetry_equiv_pos_as_xyz
'x, y, z'
'-x, y, -z+1/2'
'x+1/2, y+1/2, z'
'-x+1/2, y+1/2, -z+1/2'
'-x, -y, -z'
'x, -y, z-1/2'
'-x+1/2, -y+1/2, -z'
'x+1/2, -y+1/2, z-1/2'

_cell_length_a                   43.730(4)
_cell_length_b                   22.671(2)
_cell_length_c                   41.328(4)
_cell_angle_alpha                90.00
_cell_angle_beta                 120.182(2)
_cell_angle_gamma                90.00
_cell_volume                     35418(6)
_cell_formula_units_Z            4
_cell_measurement_temperature    258(2)
_cell_measurement_reflns_used    1677
_cell_measurement_theta_min      2.22
_cell_measurement_theta_max      14.5

_exptl_crystal_description       block
_exptl_crystal_colour            orange
_exptl_crystal_size_max          0.22
_exptl_crystal_size_mid          0.15
_exptl_crystal_size_min          0.04
_exptl_crystal_density_meas      ?
_exptl_crystal_density_diffrn    1.082
_exptl_crystal_density_method    'not measured'
_exptl_crystal_F_000             11704
_exptl_absorpt_coefficient_mu    0.616
_exptl_absorpt_correction_type   multi-scan
_exptl_absorpt_correction_T_min  0.877
_exptl_absorpt_correction_T_max  0.976
_exptl_absorpt_process_details   'Blessing, Acta Cryst. (1995) A51 33-58'
_exptl_special_details           
;
The only optimal crystals suitable for analysis were small and weakly
diffracting. Optimization of synthetic conditions could yield larger
crystals, however these specimens had only a very low degree of
crystallinity and presented little coherent scattering compared to
that of smaller crystals. Owing to these challenges observed strong
(high intensity) scattering was limited to 1.0 angstrom, with higher
resolution data present but weak (low intensity). Increasing the exposure
time of the crystal to X-rays did not ameliorate the quality of the data
as this woulThe only optimal crystals suitable for analysis were small
and weakly diffracting. Optimization of synthetic conditions could yield larger
crystals, however these specimens had only a very low degree of
crystallinity and presented little coherent scattering compared to
that of smaller crystals. Additionally, diffuse scattering from the highly
disordered solvent in the large void spaces within the crystal and from
the capillary used mount the crystal contributes to the background
noise and the 'washing out' of high angle data.
;

_diffrn_ambient_temperature      258(2)
_diffrn_radiation_wavelength     0.71073
_diffrn_radiation_type           MoK\a
_diffrn_radiation_source         'fine-focus sealed tube'
_diffrn_radiation_monochromator  graphite
_diffrn_measurement_device_type  'CCD area detector'
_diffrn_measurement_method       'phi and omega scans'
_diffrn_detector_area_resol_mean ?
_diffrn_standards_number         ?
_diffrn_standards_interval_count ?
_diffrn_standards_interval_time  ?
_diffrn_standards_decay_%        ?
_diffrn_reflns_number            85593
_diffrn_reflns_av_R_equivalents  0.2865
_diffrn_reflns_av_sigmaI/netI    0.4113
_diffrn_reflns_limit_h_min       -51
_diffrn_reflns_limit_h_max       48
_diffrn_reflns_limit_k_min       -26
_diffrn_reflns_limit_k_max       26
_diffrn_reflns_limit_l_min       -40
_diffrn_reflns_limit_l_max       48
_diffrn_reflns_theta_min         1.05
_diffrn_reflns_theta_max         24.71
_reflns_number_total             29981
_reflns_number_gt                7460
_reflns_threshold_expression     >2sigma(I)

_computing_data_collection       'Bruker SMART'
_computing_cell_refinement       'Bruker SMART'
_computing_data_reduction        'Bruker SAINT'
_computing_structure_solution    'SHELXS-97 (Sheldrick, 1990)'
_computing_structure_refinement  'SHELXL-97 (Sheldrick, 1997)'
_computing_molecular_graphics    'Bruker SHELXTL'
_computing_publication_material  'Bruker SHELXTL'

_refine_special_details          
;
Refinement of F^2^ against ALL reflections. The weighted R-factor wR and
goodness of fit S are based on F^2^, conventional R-factors R are based
on F, with F set to zero for negative F^2^. The threshold expression of
F^2^ > 2sigma(F^2^) is used only for calculating R-factors(gt) etc. and is
not relevant to the choice of reflections for refinement. R-factors based
on F^2^ are statistically about twice as large as those based on F, and R-
factors based on ALL data will be even larger.
;

_refine_ls_structure_factor_coef Fsqd
_refine_ls_matrix_type           full
_refine_ls_weighting_scheme      calc
_refine_ls_weighting_details     
'calc w=1/[\s^2^(Fo^2^)+(0.2000P)^2^+0.0000P] where P=(Fo^2^+2Fc^2^)/3'
_atom_sites_solution_primary     direct
_atom_sites_solution_secondary   difmap
_atom_sites_solution_hydrogens   geom
_refine_ls_hydrogen_treatment    mixed
_refine_ls_extinction_method     SHELXL
_refine_ls_extinction_coef       0.00009(4)
_refine_ls_extinction_expression Fc^*^=kFc[1+0.001xFc^2^\l^3^/sin(2\q)]^-1/4^
_refine_ls_number_reflns         29981
_refine_ls_number_parameters     1256
_refine_ls_number_restraints     6
_refine_ls_R_factor_all          0.3810
_refine_ls_R_factor_gt           0.1471
_refine_ls_wR_factor_ref         0.4696
_refine_ls_wR_factor_gt          0.3623
_refine_ls_goodness_of_fit_ref   1.018
_refine_ls_restrained_S_all      1.018
_refine_ls_shift/su_max          0.002
_refine_ls_shift/su_mean         0.000

loop_
_atom_site_label
_atom_site_type_symbol
_atom_site_fract_x
_atom_site_fract_y
_atom_site_fract_z
_atom_site_U_iso_or_equiv
_atom_site_adp_type
_atom_site_occupancy
_atom_site_symmetry_multiplicity
_atom_site_calc_flag
_atom_site_refinement_flags
_atom_site_disorder_assembly
_atom_site_disorder_group
Fe1 Fe 0.31483(6) -0.10914(10) 0.07947(6) 0.0522(7) Uani 1 1 d . . .
Fe2 Fe 0.36398(6) -0.10901(11) 0.03855(7) 0.0563(7) Uani 1 1 d . . .
Fe3 Fe 0.30632(6) -0.00197(10) 0.02064(6) 0.0547(7) Uani 1 1 d . . .
Fe4 Fe 0.34677(6) 0.46332(10) 0.29200(7) 0.0534(7) Uani 1 1 d . . .
Fe5 Fe 0.35547(6) 0.36131(10) 0.35465(6) 0.0552(7) Uani 1 1 d . . .
Fe6 Fe 0.41851(7) 0.46060(11) 0.37636(7) 0.0631(8) Uani 1 1 d . . .
O1C O 0.3273(2) -0.0741(4) 0.0449(3) 0.047(3) Uani 1 1 d . . .
O2C O 0.3733(3) 0.4293(4) 0.3414(3) 0.054(3) Uani 1 1 d . . .
S1 S 0.33886(14) -0.2299(2) 0.05888(15) 0.0644(13) Uani 1 1 d . . .
S2 S 0.31247(15) -0.0627(3) -0.04565(15) 0.0757(15) Uani 1 1 d . . .
S3 S 0.23856(13) -0.0601(2) 0.01822(15) 0.0717(15) Uani 1 1 d . . .
S4 S 0.38475(18) 0.5829(3) 0.33547(19) 0.097(2) Uani 1 1 d . . .
S5 S 0.39721(17) 0.4172(3) 0.43640(16) 0.0931(19) Uani 1 1 d . . .
S6 S 0.28051(15) 0.4230(3) 0.30033(17) 0.0780(16) Uani 1 1 d . . .
O1 O 0.3130(3) -0.1928(5) 0.0645(3) 0.062(3) Uani 1 1 d . . .
O2 O 0.3503(3) -0.1931(5) 0.0367(3) 0.067(3) Uani 1 1 d . . .
O3 O 0.3691(3) -0.2459(5) 0.0943(3) 0.086(4) Uani 1 1 d . . .
O4 O 0.3205(3) -0.2798(5) 0.0367(4) 0.082(4) Uani 1 1 d . . .
O5 O 0.3356(3) -0.1066(5) -0.0170(3) 0.068(3) Uani 1 1 d . . .
O6 O 0.3013(4) -0.0182(5) -0.0281(3) 0.093(5) Uani 1 1 d . . .
O7 O 0.3296(6) -0.0372(9) -0.0632(7) 0.205(11) Uani 1 1 d . . .
O8 O 0.2810(4) -0.0911(7) -0.0732(4) 0.149(7) Uani 1 1 d . . .
O9 O 0.2577(3) -0.0284(5) 0.0020(3) 0.079(4) Uani 1 1 d . . .
O10 O 0.2636(3) -0.1046(5) 0.0453(3) 0.066(3) Uani 1 1 d . . .
O11 O 0.2286(4) -0.0178(6) 0.0383(4) 0.115(5) Uani 1 1 d . . .
O12 O 0.2081(3) -0.0901(6) -0.0124(4) 0.110(5) Uani 1 1 d . . .
O13 O 0.3548(3) 0.5457(5) 0.3076(3) 0.073(4) Uani 1 1 d . . .
O14 O 0.4056(3) 0.5445(5) 0.3692(3) 0.082(4) Uani 1 1 d . . .
O15 O 0.4079(5) 0.6003(7) 0.3196(5) 0.140(6) Uani 1 1 d . . .
O16 O 0.3718(5) 0.6323(7) 0.3461(4) 0.157(8) Uani 1 1 d . . .
O17 O 0.4131(3) 0.4593(6) 0.4213(3) 0.082(4) Uani 1 1 d . . .
O18 O 0.3658(3) 0.3887(5) 0.4037(3) 0.074(4) Uani 1 1 d . . .
O19 O 0.4227(4) 0.3706(8) 0.4581(4) 0.138(6) Uani 1 1 d . . .
O20 O 0.3849(4) 0.4487(8) 0.4578(4) 0.133(6) Uani 1 1 d . . .
O21 O 0.3072(3) 0.3921(5) 0.3356(3) 0.068(3) Uani 1 1 d . . .
O22 O 0.3013(3) 0.4666(5) 0.2904(3) 0.069(3) Uani 1 1 d . . .
O23 O 0.2622(4) 0.3810(6) 0.2700(4) 0.107(5) Uani 1 1 d . . .
O24 O 0.2571(4) 0.4569(7) 0.3080(4) 0.117(5) Uani 1 1 d . . .
O25 O 0.3080(4) 0.0364(5) 0.0648(4) 0.077(4) Uani 1 1 d . . .
O26 O 0.3143(3) -0.0328(5) 0.1050(3) 0.072(4) Uani 1 1 d . . .
O27 O 0.3409(3) 0.3175(5) 0.3066(3) 0.068(4) Uani 1 1 d . . .
O28 O 0.3346(3) 0.3861(5) 0.2640(3) 0.061(3) Uani 1 1 d . . .
O29 O 0.3651(3) -0.1183(5) 0.1203(3) 0.067(3) Uani 1 1 d . . .
O30 O 0.3997(3) -0.1177(6) 0.0941(4) 0.076(4) Uani 1 1 d . . .
O31 O 0.3897(3) -0.0320(6) 0.0419(3) 0.072(4) Uani 1 1 d . . .
O32 O 0.3526(4) 0.0397(5) 0.0367(4) 0.083(4) Uani 1 1 d . . .
O33 O 0.3881(3) 0.4673(5) 0.2824(3) 0.069(3) Uani 1 1 d . . .
O34 O 0.4352(3) 0.4653(5) 0.3386(3) 0.070(4) Uani 1 1 d . . .
O35 O 0.4421(3) 0.3797(6) 0.3901(3) 0.073(4) Uani 1 1 d . . .
O36 O 0.3982(4) 0.3127(8) 0.3752(5) 0.096(6) Uani 1 1 d . . .
C1 C 0.3168(9) 0.0521(9) 0.1545(8) 0.164(14) Uani 1 1 d . . .
H1A H 0.3194 0.0126 0.1614 0.197 Uiso 1 1 calc R . .
C2 C 0.3104(5) 0.0651(9) 0.1204(6) 0.073(6) Uani 1 1 d . . .
C3 C 0.3021(9) 0.1198(12) 0.1106(6) 0.162(14) Uani 1 1 d . . .
H3A H 0.2904 0.1278 0.0851 0.194 Uiso 1 1 calc R . .
C4 C 0.308(2) 0.2281(13) 0.1270(11) 0.53(7) Uani 1 1 d . . .
H4A H 0.3307 0.2370 0.1289 0.641 Uiso 1 1 calc R . .
H4B H 0.2904 0.2330 0.1008 0.641 Uiso 1 1 calc R . .
C5 C 0.3025(12) 0.2700(10) 0.1452(8) 0.27(3) Uani 1 1 d . . .
H5A H 0.2774 0.2786 0.1321 0.328 Uiso 1 1 calc R . .
H5B H 0.3146 0.3053 0.1443 0.328 Uiso 1 1 calc R . .
C6 C 0.3164(7) 0.3019(10) 0.2108(6) 0.127(10) Uani 1 1 d . . .
H6A H 0.3105 0.3406 0.2024 0.152 Uiso 1 1 calc R . .
C7 C 0.3273(5) 0.2865(8) 0.2468(5) 0.069(6) Uani 1 1 d . . .
C8 C 0.3287(7) 0.2287(11) 0.2570(6) 0.125(10) Uani 1 1 d . . .
H8A H 0.3323 0.2189 0.2805 0.150 Uiso 1 1 calc R . .
C9 C 0.3224(16) 0.1241(18) 0.2400(10) 0.37(4) Uani 1 1 d . . .
H9A H 0.3448 0.1131 0.2617 0.446 Uiso 1 1 calc R . .
H9B H 0.3045 0.1202 0.2472 0.446 Uiso 1 1 calc R . .
C10 C 0.315(2) 0.0839(16) 0.2140(14) 0.54(7) Uani 1 1 d . . .
H10A H 0.2907 0.0728 0.2042 0.653 Uiso 1 1 calc R . .
H10B H 0.3293 0.0495 0.2270 0.653 Uiso 1 1 calc R . .
C11 C 0.3198(11) 0.0929(10) 0.1800(8) 0.187(17) Uani 1 1 d . . .
C12 C 0.3148(7) 0.1536(10) 0.1695(6) 0.108(8) Uani 1 1 d . . .
C13 C 0.3089(11) 0.1683(11) 0.1346(7) 0.22(2) Uani 1 1 d . . .
C14 C 0.3146(8) 0.2565(11) 0.1871(6) 0.131(10) Uani 1 1 d . . .
C15 C 0.3192(7) 0.1986(9) 0.1981(7) 0.113(9) Uani 1 1 d . . .
C16 C 0.3248(10) 0.1877(12) 0.2334(8) 0.165(14) Uani 1 1 d . . .
C17 C 0.3088(6) 0.0189(10) 0.0933(6) 0.079(6) Uani 1 1 d . . .
C18 C 0.3340(5) 0.3334(9) 0.2747(6) 0.062(5) Uani 1 1 d . . .
C19 C 0.3958(6) -0.1218(8) 0.1213(7) 0.080(6) Uani 1 1 d . . .
C20 C 0.4267(6) -0.1290(8) 0.1600(5) 0.074(6) Uani 1 1 d . . .
C21 C 0.4230(5) -0.1307(12) 0.1897(6) 0.121(9) Uani 1 1 d . . .
H21A H 0.4004 -0.1301 0.1866 0.145 Uiso 1 1 calc R . .
C22 C 0.4511(6) -0.1333(13) 0.2241(6) 0.124(9) Uani 1 1 d . . .
C23 C 0.4842(5) -0.1363(9) 0.2297(6) 0.085(6) Uani 1 1 d . . .
C24 C 0.4880(5) -0.1379(13) 0.1995(6) 0.117(10) Uani 1 1 d . . .
C25 C 0.4594(6) -0.1335(10) 0.1656(6) 0.104(8) Uani 1 1 d . . .
H25A H 0.4623 -0.1335 0.1449 0.125 Uiso 1 1 calc R . .
C26 C 0.4477(8) -0.126(2) 0.2642(9) 0.28(3) Uani 1 1 d . . .
H26A H 0.4389 -0.0867 0.2641 0.330 Uiso 1 1 calc R . .
H26B H 0.4300 -0.1537 0.2623 0.330 Uiso 1 1 calc R . .
C27 C 0.4753(8) -0.134(3) 0.2953(8) 0.34(3) Uani 1 1 d . . .
H27A H 0.4717 -0.1699 0.3055 0.403 Uiso 1 1 calc R . .
H27B H 0.4761 -0.1020 0.3114 0.403 Uiso 1 1 calc R . .
C28 C 0.3812(6) 0.0209(11) 0.0421(5) 0.074(6) Uani 1 1 d . . .
C29 C 0.4084(5) 0.0658(10) 0.0498(6) 0.079(6) Uani 1 1 d . . .
C30 C 0.4008(6) 0.1249(10) 0.0463(7) 0.113(9) Uani 1 1 d . . .
H30A H 0.3774 0.1369 0.0365 0.135 Uiso 1 1 calc R . .
C31 C 0.4266(7) 0.1663(11) 0.0569(8) 0.133(10) Uani 1 1 d . . .
C32 C 0.4614(6) 0.1510(9) 0.0675(7) 0.096(7) Uani 1 1 d . . .
C33 C 0.4698(7) 0.0906(10) 0.0701(6) 0.102(7) Uani 1 1 d . . .
C34 C 0.4416(7) 0.0495(9) 0.0616(6) 0.100(8) Uani 1 1 d . . .
H34A H 0.4469 0.0094 0.0646 0.120 Uiso 1 1 calc R . .
C35 C 0.5096(6) 0.0781(12) 0.0844(10) 0.189(16) Uani 1 1 d . . .
H35A H 0.5207 0.0697 0.1110 0.227 Uiso 1 1 calc R . .
H35B H 0.5107 0.0420 0.0724 0.227 Uiso 1 1 calc R . .
C36 C 0.4169(6) 0.2352(12) 0.0525(13) 0.27(3) Uani 1 1 d . . .
H36A H 0.4047 0.2451 0.0261 0.328 Uiso 1 1 calc R . .
H36B H 0.4006 0.2420 0.0616 0.328 Uiso 1 1 calc R . .
C37 C 0.4445(9) 0.2723(14) 0.0706(17) 0.41(5) Uani 1 1 d . . .
H37A H 0.4465 0.2820 0.0945 0.486 Uiso 1 1 calc R . .
H37B H 0.4387 0.3085 0.0562 0.486 Uiso 1 1 calc R . .
C38 C 0.4210(6) 0.4701(9) 0.3053(6) 0.070(6) Uani 1 1 d . . .
C39 C 0.4444(6) 0.4745(9) 0.2883(7) 0.078(6) Uani 1 1 d . . .
C40 C 0.4785(7) 0.4825(14) 0.3084(7) 0.154(13) Uani 1 1 d . . .
H40A H 0.4888 0.4890 0.3340 0.185 Uiso 1 1 calc R . .
C41 C 0.4998(7) 0.4816(14) 0.2920(9) 0.141(11) Uani 1 1 d . . .
C42 C 0.4897(6) 0.4760(10) 0.2575(6) 0.081(7) Uani 1 1 d . . .
C43 C 0.4543(8) 0.4747(13) 0.2361(7) 0.131(10) Uani 1 1 d . . .
C44 C 0.4313(6) 0.4724(13) 0.2506(7) 0.140(11) Uani 1 1 d . . .
H44A H 0.4070 0.4695 0.2343 0.168 Uiso 1 1 calc R . .
C45 C 0.4396(7) 0.469(3) 0.1957(8) 0.35(4) Uani 1 1 d . . .
H45A H 0.4328 0.4287 0.1883 0.424 Uiso 1 1 calc R . .
H45B H 0.4184 0.4934 0.1829 0.424 Uiso 1 1 calc R . .
C46 C 0.4634(10) 0.487(3) 0.1837(10) 0.35(4) Uani 1 1 d . . .
H46A H 0.4574 0.4649 0.1612 0.420 Uiso 1 1 calc R . .
H46B H 0.4586 0.5282 0.1765 0.420 Uiso 1 1 calc R . .
C47 C 0.4256(9) 0.3247(10) 0.3862(7) 0.094(9) Uani 1 1 d . . .
C48 C 0.4587(6) 0.2751(14) 0.4022(6) 0.101(8) Uani 1 1 d . . .
C49 C 0.4516(7) 0.2189(11) 0.4046(7) 0.105(9) Uani 1 1 d . . .
H49A H 0.4292 0.2070 0.3992 0.126 Uiso 1 1 calc R . .
C50 C 0.4775(6) 0.1811(11) 0.4150(7) 0.103(8) Uani 1 1 d . . .
C51 C 0.5107(7) 0.1957(10) 0.4226(7) 0.110(9) Uani 1 1 d . . .
C52 C 0.5185(6) 0.2515(14) 0.4217(10) 0.163(13) Uani 1 1 d . . .
C53 C 0.4947(7) 0.2972(11) 0.4122(9) 0.170(14) Uani 1 1 d . . .
H53A H 0.5002 0.3368 0.4121 0.204 Uiso 1 1 calc R . .
C54 C 0.4695(7) 0.1185(11) 0.4198(10) 0.168(14) Uani 1 1 d . . .
H54A H 0.4725 0.1141 0.4446 0.202 Uiso 1 1 calc R . .
H54B H 0.4450 0.1102 0.4017 0.202 Uiso 1 1 calc R . .
N1 N 0.3015(4) -0.1452(7) 0.1189(3) 0.073(5) Uani 1 1 d G . .
C55 C 0.3216(3) -0.1918(7) 0.1414(5) 0.113(9) Uani 1 1 d G . .
H55A H 0.3400 -0.2072 0.1388 0.136 Uiso 1 1 calc R . .
C56 C 0.3143(5) -0.2154(7) 0.1678(4) 0.152(11) Uani 1 1 d G . .
H56A H 0.3277 -0.2466 0.1829 0.182 Uiso 1 1 calc R . .
C57 C 0.2868(6) -0.1925(9) 0.1717(5) 0.153(13) Uani 1 1 d G . .
H57A H 0.2819 -0.2083 0.1893 0.184 Uiso 1 1 calc R . .
C58 C 0.2667(4) -0.1459(9) 0.1491(6) 0.151(12) Uani 1 1 d G . .
H58A H 0.2483 -0.1305 0.1517 0.182 Uiso 1 1 calc R . .
C59 C 0.2740(4) -0.1223(6) 0.1227(4) 0.105(8) Uani 1 1 d G . .
H59A H 0.2606 -0.0911 0.1077 0.126 Uiso 1 1 calc R . .
N2 N 0.4059(4) -0.1457(8) 0.0294(5) 0.109(7) Uani 1 1 d GD . .
C60 C 0.4096(5) -0.1218(10) 0.0006(6) 0.283(17) Uani 1 1 d GD . .
H60A H 0.3948 -0.0914 -0.0140 0.339 Uiso 1 1 calc R . .
C61 C 0.4355(7) -0.1434(14) -0.0064(7) 0.283(17) Uani 1 1 d GD . .
H61A H 0.4380 -0.1275 -0.0257 0.339 Uiso 1 1 calc R . .
C62 C 0.4576(7) -0.1888(14) 0.0154(10) 0.44(3) Uani 1 1 d GD . .
H62A H 0.4749 -0.2033 0.0107 0.530 Uiso 1 1 calc R . .
C63 C 0.4539(9) -0.2127(14) 0.0442(11) 0.44(3) Uani 1 1 d GD . .
H63A H 0.4687 -0.2431 0.0588 0.530 Uiso 1 1 calc R . .
C64 C 0.4280(7) -0.1911(12) 0.0512(8) 0.72(10) Uani 1 1 d GD . .
H64A H 0.4255 -0.2071 0.0705 0.865 Uiso 1 1 calc R . .
N3 N 0.2825(4) 0.0841(5) -0.0052(4) 0.080(5) Uani 1 1 d GD . .
C65 C 0.2560(4) 0.1093(8) -0.0005(4) 0.126(9) Uani 1 1 d GD . .
H65A H 0.2472 0.0891 0.0127 0.151 Uiso 1 1 calc R . .
C66 C 0.2426(5) 0.1645(8) -0.0156(6) 0.23(2) Uani 1 1 d GD . .
H66A H 0.2249 0.1813 -0.0125 0.277 Uiso 1 1 calc R . .
C67 C 0.2558(6) 0.1946(6) -0.0353(6) 0.21(2) Uani 1 1 d GD . .
H67A H 0.2468 0.2316 -0.0454 0.254 Uiso 1 1 calc R . .
C68 C 0.2823(6) 0.1695(9) -0.0400(5) 0.195(18) Uani 1 1 d GD . .
H68A H 0.2911 0.1896 -0.0532 0.234 Uiso 1 1 calc R . .
C69 C 0.2957(4) 0.1142(8) -0.0249(5) 0.127(10) Uani 1 1 d GD . .
H69A H 0.3134 0.0974 -0.0281 0.153 Uiso 1 1 calc R . .
N4 N 0.3163(4) 0.5022(6) 0.2350(3) 0.073(4) Uani 1 1 d G . .
C70 C 0.2824(4) 0.4822(6) 0.2099(5) 0.098(7) Uani 1 1 d G . .
H70A H 0.2728 0.4509 0.2164 0.117 Uiso 1 1 calc R . .
C71 C 0.2629(3) 0.5091(9) 0.1751(4) 0.132(10) Uani 1 1 d G . .
H71A H 0.2402 0.4958 0.1583 0.158 Uiso 1 1 calc R . .
C72 C 0.2772(5) 0.5560(9) 0.1655(4) 0.179(16) Uani 1 1 d G . .
H72A H 0.2641 0.5740 0.1422 0.214 Uiso 1 1 calc R . .
C73 C 0.3111(6) 0.5759(6) 0.1906(5) 0.133(10) Uani 1 1 d G . .
H73A H 0.3207 0.6072 0.1841 0.160 Uiso 1 1 calc R . .
C74 C 0.3307(3) 0.5490(7) 0.2254(5) 0.118(9) Uani 1 1 d G . .
H74A H 0.3533 0.5623 0.2422 0.141 Uiso 1 1 calc R . .
N5 N 0.3377(5) 0.2859(5) 0.3691(5) 0.082(5) Uani 1 1 d G . .
C75 C 0.3592(4) 0.2626(7) 0.4047(5) 0.148(13) Uani 1 1 d G . .
H75A H 0.3813 0.2789 0.4205 0.178 Uiso 1 1 calc R . .
C76 C 0.3475(6) 0.2147(8) 0.4166(4) 0.25(3) Uani 1 1 d G . .
H76A H 0.3619 0.1991 0.4404 0.300 Uiso 1 1 calc R . .
C77 C 0.3145(6) 0.1902(6) 0.3930(6) 0.182(18) Uani 1 1 d G . .
H77A H 0.3067 0.1582 0.4010 0.218 Uiso 1 1 calc R . .
C78 C 0.2930(4) 0.2135(8) 0.3575(6) 0.192(16) Uani 1 1 d G . .
H78A H 0.2709 0.1971 0.3417 0.231 Uiso 1 1 calc R . .
C79 C 0.3047(5) 0.2614(7) 0.3455(4) 0.117(9) Uani 1 1 d G . .
H79A H 0.2903 0.2770 0.3218 0.141 Uiso 1 1 calc R . .
N6 N 0.4710(3) 0.4981(7) 0.4131(4) 0.087(6) Uani 1 1 d G . .
C80 C 0.4840(5) 0.5447(8) 0.4016(4) 0.144(12) Uani 1 1 d G . .
H80A H 0.4700 0.5616 0.3781 0.173 Uiso 1 1 calc R . .
C81 C 0.5179(6) 0.5661(9) 0.4252(7) 0.26(3) Uani 1 1 d G . .
H81A H 0.5266 0.5972 0.4175 0.314 Uiso 1 1 calc R . .
C82 C 0.5389(4) 0.5408(11) 0.4602(6) 0.25(2) Uani 1 1 d G . .
H82A H 0.5616 0.5551 0.4760 0.300 Uiso 1 1 calc R . .
C83 C 0.5259(4) 0.4942(10) 0.4717(4) 0.174(14) Uani 1 1 d G . .
H83A H 0.5400 0.4773 0.4952 0.209 Uiso 1 1 calc R . .
C84 C 0.4920(5) 0.4729(7) 0.4481(5) 0.137(10) Uani 1 1 d G . .
H84A H 0.4833 0.4417 0.4558 0.164 Uiso 1 1 calc R . .
N7 N 0.5095(18) 0.360(2) 0.525(3) 0.388(6) Uiso 1 1 d G . .
C85 C 0.5023(11) 0.314(4) 0.5001(10) 0.388(6) Uiso 1 1 d G . .
C86 C 0.526(3) 0.267(2) 0.510(2) 0.388(6) Uiso 1 1 d G . .
C87 C 0.5571(19) 0.267(2) 0.545(3) 0.388(6) Uiso 1 1 d G . .
C88 C 0.5642(10) 0.314(4) 0.5694(11) 0.388(6) Uiso 1 1 d G . .
C89 C 0.540(2) 0.361(2) 0.559(2) 0.388(6) Uiso 1 1 d G . .
N8 N 0.4028(9) 0.635(4) 0.2384(16) 0.388(6) Uiso 1 1 d G . .
C90 C 0.3959(11) 0.6041(11) 0.206(3) 0.388(6) Uiso 1 1 d G . .
C91 C 0.3897(10) 0.635(4) 0.1744(15) 0.388(6) Uiso 1 1 d G . .
C92 C 0.3904(10) 0.696(4) 0.1748(17) 0.388(6) Uiso 1 1 d G . .
C93 C 0.3973(11) 0.7267(11) 0.207(3) 0.388(6) Uiso 1 1 d G . .
C94 C 0.4034(9) 0.696(4) 0.2388(16) 0.388(6) Uiso 1 1 d G . .
N9 N 0.298(2) 0.432(2) 0.138(2) 0.388(6) Uiso 1 1 d G . .
C95 C 0.334(3) 0.4220(16) 0.1578(9) 0.388(6) Uiso 1 1 d G . .
C96 C 0.3556(8) 0.446(3) 0.145(2) 0.388(6) Uiso 1 1 d G . .
C97 C 0.341(2) 0.480(2) 0.113(3) 0.388(6) Uiso 1 1 d G . .
C98 C 0.304(3) 0.4892(16) 0.0928(10) 0.388(6) Uiso 1 1 d G . .
C99 C 0.2830(8) 0.465(3) 0.105(2) 0.388(6) Uiso 1 1 d G . .
N10 N 0.5222(8) -0.3428(18) 0.159(3) 0.388(6) Uiso 1 1 d G . .
C100 C 0.508(2) -0.3445(18) 0.1829(9) 0.388(6) Uiso 1 1 d G . .
C101 C 0.475(2) -0.320(3) 0.171(2) 0.388(6) Uiso 1 1 d G . .
C102 C 0.4561(8) -0.294(2) 0.136(3) 0.388(6) Uiso 1 1 d G . .
C103 C 0.470(2) -0.2923(18) 0.1127(10) 0.388(6) Uiso 1 1 d G . .
C104 C 0.503(2) -0.317(3) 0.124(2) 0.388(6) Uiso 1 1 d G . .
N11 N 0.3340(9) 0.250(5) 0.0631(9) 0.388(6) Uiso 1 1 d G . .
C105 C 0.3421(17) 0.193(3) 0.077(2) 0.388(6) Uiso 1 1 d G . .
C106 C 0.367(2) 0.183(2) 0.114(3) 0.388(6) Uiso 1 1 d G . .
C107 C 0.3833(9) 0.231(5) 0.1380(9) 0.388(6) Uiso 1 1 d G . .
C108 C 0.3752(17) 0.288(3) 0.124(2) 0.388(6) Uiso 1 1 d G . .
C109 C 0.351(2) 0.2977(19) 0.087(3) 0.388(6) Uiso 1 1 d G . .
N1M N 0.2352(9) -0.1558(14) -0.0517(10) 0.234(7) Uiso 1 1 d . . .
C1M C 0.2589(11) -0.2069(18) -0.0338(11) 0.234(7) Uiso 1 1 d . . .
C2M C 0.2076(11) -0.1636(17) -0.0949(13) 0.234(7) Uiso 1 1 d . . .
N2M N 0.3683(9) -0.0827(14) -0.1149(10) 0.234(7) Uiso 1 1 d . . .
C3M C 0.3374(11) -0.0593(18) -0.1527(12) 0.234(7) Uiso 1 1 d . . .
C4M C 0.3697(11) -0.1262(18) -0.1482(12) 0.234(7) Uiso 1 1 d . . .
O1W O 0.4467(14) 0.306(2) 0.3112(15) 0.459(10) Uiso 1 1 d . . .
O2W O 0.1713(12) -0.1624(19) 0.0372(13) 0.41(2) Uiso 1 1 d . . .
O3W O 0.4189(14) 0.315(2) 0.2712(15) 0.459(10) Uiso 1 1 d . . .
O4W O 0.4120(14) 0.113(2) -0.0444(15) 0.459(10) Uiso 1 1 d . . .
O5W O 0.4501(14) 0.124(2) -0.0409(14) 0.459(10) Uiso 1 1 d . . .
O6W O 0.4208(14) 0.033(2) -0.0382(14) 0.459(10) Uiso 1 1 d . . .
O7W O 0.4134(13) 0.759(2) 0.3482(14) 0.459(10) Uiso 1 1 d . . .
O8W O 0.3654(14) -0.360(2) 0.0219(14) 0.459(10) Uiso 1 1 d . . .
O9W O 0.3176(13) 0.524(2) 0.3831(13) 0.459(10) Uiso 1 1 d . . .

loop_
_atom_site_aniso_label
_atom_site_aniso_U_11
_atom_site_aniso_U_22
_atom_site_aniso_U_33
_atom_site_aniso_U_23
_atom_site_aniso_U_13
_atom_site_aniso_U_12
Fe1 0.0525(16) 0.0506(15) 0.0507(16) -0.0095(13) 0.0238(13) -0.0056(12)
Fe2 0.0492(16) 0.0621(17) 0.0574(17) -0.0125(13) 0.0266(14) -0.0117(13)
Fe3 0.0559(16) 0.0539(16) 0.0493(16) -0.0103(13) 0.0227(13) -0.0096(13)
Fe4 0.0559(16) 0.0540(15) 0.0554(16) 0.0000(13) 0.0317(14) 0.0073(13)
Fe5 0.0626(17) 0.0613(16) 0.0501(16) -0.0002(13) 0.0347(14) 0.0147(13)
Fe6 0.0599(17) 0.0728(18) 0.0540(17) -0.0102(14) 0.0268(15) 0.0094(14)
O1C 0.038(6) 0.049(7) 0.044(6) 0.004(5) 0.013(5) 0.006(5)
O2C 0.061(7) 0.070(8) 0.041(7) 0.001(6) 0.032(6) 0.018(6)
S1 0.066(3) 0.054(3) 0.077(4) -0.010(3) 0.039(3) -0.007(3)
S2 0.074(4) 0.102(4) 0.052(3) -0.003(3) 0.032(3) 0.000(3)
S3 0.055(3) 0.071(4) 0.078(4) -0.004(3) 0.025(3) -0.006(3)
S4 0.099(5) 0.064(4) 0.099(5) -0.012(4) 0.028(4) 0.010(4)
S5 0.093(5) 0.138(6) 0.056(4) -0.010(4) 0.042(4) 0.022(4)
S6 0.065(4) 0.094(4) 0.081(4) 0.016(4) 0.041(3) 0.017(3)
O1 0.067(8) 0.061(8) 0.077(8) -0.012(6) 0.050(7) -0.005(6)
O2 0.072(8) 0.062(8) 0.088(9) -0.023(7) 0.056(8) -0.007(6)
O3 0.067(9) 0.094(10) 0.073(9) 0.015(8) 0.017(8) 0.020(8)
O4 0.092(10) 0.048(8) 0.107(10) -0.009(7) 0.051(9) -0.015(7)
O5 0.067(8) 0.087(9) 0.046(7) -0.009(7) 0.027(7) 0.000(7)
O6 0.155(13) 0.074(9) 0.056(8) 0.002(7) 0.057(9) 0.044(9)
O7 0.22(2) 0.20(2) 0.28(3) 0.16(2) 0.19(2) 0.114(18)
O8 0.108(13) 0.130(14) 0.098(12) -0.042(10) -0.031(10) 0.011(11)
O9 0.057(8) 0.085(9) 0.081(9) 0.022(7) 0.025(7) -0.008(7)
O10 0.034(6) 0.085(9) 0.063(8) 0.019(7) 0.012(6) 0.002(6)
O11 0.140(14) 0.077(10) 0.146(14) 0.003(9) 0.085(12) 0.030(9)
O12 0.053(9) 0.133(12) 0.098(11) -0.005(9) 0.004(8) -0.020(8)
O13 0.080(9) 0.051(7) 0.074(9) -0.007(7) 0.027(8) 0.008(7)
O14 0.085(9) 0.076(9) 0.059(8) -0.013(7) 0.016(7) 0.010(8)
O15 0.144(15) 0.136(14) 0.164(16) 0.027(12) 0.096(14) -0.035(12)
O16 0.194(18) 0.079(11) 0.112(13) -0.036(10) 0.013(13) 0.031(11)
O17 0.088(10) 0.093(10) 0.074(9) -0.018(8) 0.048(8) 0.010(8)
O18 0.074(9) 0.119(10) 0.039(7) -0.022(7) 0.034(7) 0.006(8)
O19 0.119(13) 0.166(16) 0.086(11) 0.030(11) 0.020(10) 0.045(12)
O20 0.123(13) 0.199(17) 0.082(11) -0.062(11) 0.056(10) -0.009(12)
O21 0.055(8) 0.092(9) 0.072(8) 0.022(7) 0.044(7) 0.019(7)
O22 0.068(8) 0.076(8) 0.081(9) 0.016(7) 0.051(7) 0.022(7)
O23 0.097(11) 0.110(12) 0.099(11) 0.000(10) 0.037(10) -0.023(9)
O24 0.098(11) 0.149(13) 0.132(13) 0.064(11) 0.080(10) 0.077(10)
O25 0.122(12) 0.050(8) 0.060(9) -0.017(7) 0.045(9) -0.002(7)
O26 0.120(11) 0.046(8) 0.063(8) -0.012(7) 0.056(8) -0.005(8)
O27 0.106(10) 0.060(8) 0.050(8) -0.007(6) 0.048(8) 0.001(7)
O28 0.088(9) 0.046(7) 0.071(8) -0.009(7) 0.056(7) -0.001(7)
O29 0.042(8) 0.086(9) 0.049(7) -0.004(6) 0.004(7) -0.008(7)
O30 0.059(9) 0.104(11) 0.051(9) -0.008(8) 0.018(8) -0.013(7)
O31 0.069(9) 0.073(9) 0.072(9) -0.009(8) 0.034(7) -0.023(8)
O32 0.053(9) 0.064(9) 0.115(12) -0.011(8) 0.030(9) -0.021(7)
O33 0.060(9) 0.099(10) 0.070(9) 0.006(7) 0.049(8) 0.019(8)
O34 0.060(8) 0.112(10) 0.046(8) 0.001(8) 0.031(7) 0.002(7)
O35 0.061(8) 0.083(10) 0.071(9) -0.002(8) 0.029(7) 0.033(7)
O36 0.066(10) 0.114(13) 0.119(14) 0.003(10) 0.054(11) 0.030(10)
C1 0.39(5) 0.029(13) 0.13(2) -0.020(14) 0.17(3) -0.006(18)
C2 0.101(16) 0.063(14) 0.058(14) -0.006(12) 0.042(13) -0.005(12)
C3 0.30(4) 0.12(2) 0.067(17) 0.017(17) 0.09(2) 0.09(2)
C4 1.4(2) 0.06(2) 0.29(5) 0.05(3) 0.56(9) 0.18(5)
C5 0.65(8) 0.045(16) 0.14(3) 0.004(17) 0.22(4) 0.07(3)
C6 0.24(3) 0.094(18) 0.055(15) -0.004(14) 0.077(18) 0.026(18)
C7 0.118(17) 0.048(12) 0.059(14) -0.002(10) 0.059(13) 0.019(11)
C8 0.26(3) 0.074(17) 0.060(15) -0.020(14) 0.090(19) -0.006(18)
C9 0.85(12) 0.17(4) 0.15(3) -0.10(3) 0.29(6) -0.04(5)
C10 1.4(2) 0.10(3) 0.32(6) -0.01(4) 0.58(11) -0.10(6)
C11 0.43(5) 0.050(16) 0.11(2) -0.002(16) 0.16(3) 0.01(2)
C12 0.17(2) 0.095(19) 0.064(16) -0.005(14) 0.063(16) 0.045(16)
C13 0.50(6) 0.066(18) 0.081(19) 0.002(15) 0.14(3) 0.09(3)
C14 0.22(3) 0.082(19) 0.058(16) -0.012(14) 0.049(18) 0.014(19)
C15 0.20(3) 0.035(13) 0.093(19) -0.034(13) 0.065(19) 0.015(14)
C16 0.33(4) 0.069(19) 0.08(2) 0.019(17) 0.10(3) 0.02(2)
C17 0.105(17) 0.057(15) 0.064(16) -0.028(13) 0.035(14) -0.004(12)
C18 0.064(13) 0.071(15) 0.067(15) -0.028(13) 0.044(12) 0.000(11)
C19 0.067(16) 0.056(13) 0.084(19) -0.017(12) 0.015(16) -0.021(11)
C20 0.070(16) 0.097(16) 0.035(13) -0.005(11) 0.012(12) -0.011(12)
C21 0.044(14) 0.23(3) 0.047(15) -0.003(17) -0.004(13) -0.001(16)
C22 0.069(17) 0.23(3) 0.057(16) -0.004(17) 0.019(15) -0.022(18)
C23 0.044(14) 0.116(17) 0.086(18) 0.009(13) 0.025(12) -0.002(11)
C24 0.030(12) 0.28(3) 0.053(15) 0.018(17) 0.025(13) 0.021(16)
C25 0.058(15) 0.19(3) 0.068(16) -0.001(16) 0.037(14) 0.012(16)
C26 0.11(3) 0.61(8) 0.09(3) 0.03(4) 0.03(2) 0.02(4)
C27 0.09(3) 0.77(11) 0.05(2) -0.08(4) -0.035(19) 0.00(4)
C28 0.079(17) 0.082(17) 0.058(13) -0.003(13) 0.033(13) -0.046(15)
C29 0.044(13) 0.076(16) 0.092(16) -0.009(12) 0.015(12) -0.028(12)
C30 0.057(14) 0.073(16) 0.19(3) 0.005(16) 0.046(16) -0.025(13)
C31 0.11(2) 0.083(19) 0.22(3) -0.021(19) 0.09(2) -0.032(17)
C32 0.075(16) 0.065(16) 0.16(2) -0.010(15) 0.069(17) -0.017(13)
C33 0.11(2) 0.078(17) 0.12(2) -0.018(14) 0.062(17) -0.025(15)
C34 0.102(19) 0.061(14) 0.114(19) -0.016(13) 0.038(17) -0.047(14)
C35 0.075(19) 0.11(2) 0.37(5) -0.03(3) 0.10(3) 0.012(17)
C36 0.041(16) 0.10(2) 0.56(7) 0.03(3) 0.06(3) 0.008(16)
C37 0.14(3) 0.13(3) 0.93(13) -0.22(5) 0.25(6) -0.08(3)
C38 0.063(15) 0.096(16) 0.061(15) 0.002(13) 0.039(14) 0.016(13)
C39 0.055(14) 0.096(16) 0.074(17) 0.007(13) 0.027(14) -0.002(12)
C40 0.09(2) 0.30(4) 0.076(18) -0.09(2) 0.044(17) -0.06(2)
C41 0.050(16) 0.26(3) 0.14(3) -0.06(2) 0.062(19) -0.046(18)
C42 0.052(17) 0.139(19) 0.047(15) -0.015(13) 0.021(12) 0.000(13)
C43 0.10(2) 0.24(3) 0.08(2) 0.004(19) 0.066(19) 0.00(2)
C44 0.050(15) 0.28(4) 0.072(19) 0.04(2) 0.016(15) 0.015(18)
C45 0.06(2) 0.92(12) 0.08(2) 0.03(4) 0.031(19) -0.01(4)
C46 0.15(3) 0.81(11) 0.16(4) 0.19(5) 0.13(3) 0.12(5)
C47 0.18(3) 0.054(16) 0.082(19) 0.026(14) 0.09(2) 0.06(2)
C48 0.080(18) 0.17(3) 0.064(15) 0.011(17) 0.047(14) 0.051(19)
C49 0.11(2) 0.071(16) 0.15(2) 0.039(16) 0.072(18) 0.029(16)
C50 0.070(17) 0.10(2) 0.16(2) 0.045(17) 0.069(17) 0.040(16)
C51 0.10(2) 0.046(14) 0.18(3) 0.045(15) 0.073(19) 0.030(14)
C52 0.073(18) 0.13(2) 0.31(4) 0.06(3) 0.11(2) 0.067(18)
C53 0.10(2) 0.10(2) 0.32(4) 0.10(2) 0.12(3) 0.050(17)
C54 0.12(2) 0.08(2) 0.35(5) 0.03(2) 0.15(3) 0.047(17)
N1 0.072(12) 0.085(12) 0.059(11) -0.004(9) 0.032(10) -0.017(9)
C55 0.14(2) 0.14(2) 0.073(17) -0.007(16) 0.066(18) -0.06(2)
C56 0.15(3) 0.18(3) 0.15(3) 0.05(2) 0.10(2) 0.03(2)
C57 0.16(3) 0.26(4) 0.10(2) 0.01(2) 0.10(2) -0.04(3)
C58 0.13(3) 0.19(3) 0.14(3) 0.04(2) 0.07(2) 0.01(2)
C59 0.14(2) 0.113(19) 0.098(19) -0.023(15) 0.082(18) -0.008(17)
N2 0.053(11) 0.161(17) 0.139(17) -0.030(14) 0.068(12) -0.029(11)
C60 0.13(2) 0.42(5) 0.39(4) 0.00(4) 0.20(3) 0.06(3)
C61 0.13(2) 0.42(5) 0.39(4) 0.00(4) 0.20(3) 0.06(3)
C62 0.49(5) 0.51(6) 0.59(8) 0.33(5) 0.48(6) 0.38(5)
C63 0.49(5) 0.51(6) 0.59(8) 0.33(5) 0.48(6) 0.38(5)
C64 0.39(8) 1.6(3) 0.33(7) 0.41(11) 0.28(6) 0.70(13)
N3 0.085(13) 0.055(10) 0.077(12) -0.014(9) 0.024(10) 0.000(9)
C65 0.15(2) 0.15(3) 0.087(18) -0.004(17) 0.065(18) 0.04(2)
C66 0.29(5) 0.12(3) 0.22(4) 0.01(3) 0.08(4) 0.15(3)
C67 0.38(6) 0.11(3) 0.16(3) 0.06(2) 0.15(4) 0.01(3)
C68 0.33(5) 0.12(3) 0.16(3) 0.02(2) 0.14(3) 0.08(3)
C69 0.17(3) 0.066(17) 0.15(2) 0.028(16) 0.08(2) -0.003(17)
N4 0.081(12) 0.073(11) 0.060(11) 0.020(9) 0.032(10) 0.030(9)
C70 0.075(16) 0.13(2) 0.074(16) 0.005(15) 0.026(14) -0.028(15)
C71 0.074(17) 0.24(3) 0.041(15) -0.005(17) -0.002(13) -0.01(2)
C72 0.12(3) 0.28(4) 0.17(3) 0.12(3) 0.09(3) 0.05(3)
C73 0.14(3) 0.13(2) 0.11(2) 0.05(2) 0.06(2) 0.04(2)
C74 0.13(2) 0.105(19) 0.11(2) 0.039(16) 0.054(19) -0.016(17)
N5 0.105(14) 0.076(12) 0.100(14) 0.029(11) 0.076(13) 0.041(11)
C75 0.25(4) 0.069(18) 0.20(3) 0.06(2) 0.17(3) 0.03(2)
C76 0.25(5) 0.23(5) 0.18(4) -0.13(4) 0.05(4) 0.02(4)
C77 0.37(6) 0.09(2) 0.18(3) 0.08(2) 0.21(4) 0.05(3)
C78 0.16(3) 0.13(3) 0.34(5) 0.07(3) 0.16(4) 0.00(2)
C79 0.14(2) 0.071(17) 0.18(3) 0.061(17) 0.11(2) 0.032(16)
N6 0.063(11) 0.134(16) 0.039(10) -0.022(10) 0.008(9) 0.014(11)
C80 0.19(3) 0.15(2) 0.12(2) -0.037(19) 0.10(3) -0.09(2)
C81 0.27(5) 0.36(5) 0.08(2) -0.06(3) 0.03(3) -0.24(4)
C82 0.21(4) 0.39(6) 0.12(3) -0.01(3) 0.06(3) -0.21(4)
C83 0.10(2) 0.31(4) 0.044(16) -0.01(2) -0.020(16) 0.00(2)
C84 0.078(19) 0.22(3) 0.12(2) -0.05(2) 0.058(18) -0.02(2)

_geom_special_details            
;
All esds (except the esd in the dihedral angle between two l.s. planes)
are estimated using the full covariance matrix. The cell esds are taken
into account individually in the estimation of esds in distances, angles
and torsion angles; correlations between esds in cell parameters are only
used when they are defined by crystal symmetry. An approximate (isotropic)
treatment of cell esds is used for estimating esds involving l.s. planes.
;

loop_
_geom_bond_atom_site_label_1
_geom_bond_atom_site_label_2
_geom_bond_distance
_geom_bond_site_symmetry_2
_geom_bond_publ_flag
Fe1 O1C 1.938(10) . ?
Fe1 O10 1.960(10) . ?
Fe1 O1 1.984(10) . ?
Fe1 O29 1.999(11) . ?
Fe1 O26 2.034(11) . ?
Fe1 N1 2.148(11) . ?
Fe2 O1C 1.921(9) . ?
Fe2 O5 1.987(11) . ?
Fe2 O2 1.988(11) . ?
Fe2 O30 2.037(13) . ?
Fe2 O31 2.043(13) . ?
Fe2 N2 2.213(12) . ?
Fe3 O1C 1.896(9) . ?
Fe3 O6 1.948(11) . ?
Fe3 O9 1.956(11) . ?
Fe3 O25 1.990(12) . ?
Fe3 O32 2.019(13) . ?
Fe3 N3 2.217(11) . ?
Fe4 O2C 1.930(10) . ?
Fe4 O13 1.949(11) . ?
Fe4 O22 1.955(11) . ?
Fe4 O28 2.016(11) . ?
Fe4 O33 2.036(11) . ?
Fe4 N4 2.223(10) . ?
Fe5 O2C 1.927(11) . ?
Fe5 O18 1.942(10) . ?
Fe5 O36 1.958(15) . ?
Fe5 O21 1.972(10) . ?
Fe5 O27 2.015(12) . ?
Fe5 N5 2.086(11) . ?
Fe6 O2C 1.905(10) . ?
Fe6 O14 1.963(12) . ?
Fe6 O17 1.986(13) . ?
Fe6 O34 2.029(12) . ?
Fe6 O35 2.040(12) . ?
Fe6 N6 2.190(12) . ?
S1 O4 1.422(11) . ?
S1 O3 1.441(12) . ?
S1 O2 1.500(11) . ?
S1 O1 1.517(11) . ?
S2 O7 1.402(17) . ?
S2 O8 1.423(14) . ?
S2 O6 1.463(11) . ?
S2 O5 1.487(12) . ?
S3 O12 1.464(13) . ?
S3 O11 1.471(14) . ?
S3 O10 1.495(11) . ?
S3 O9 1.495(12) . ?
S4 O16 1.420(16) . ?
S4 O13 1.495(12) . ?
S4 O14 1.502(12) . ?
S4 O15 1.510(15) . ?
S5 O20 1.436(14) . ?
S5 O19 1.468(15) . ?
S5 O17 1.490(13) . ?
S5 O18 1.505(12) . ?
S6 O24 1.435(13) . ?
S6 O23 1.453(14) . ?
S6 O21 1.506(11) . ?
S6 O22 1.534(12) . ?
O25 C17 1.23(2) . ?
O26 C17 1.24(2) . ?
O27 C18 1.25(2) . ?
O28 C18 1.28(2) . ?
O29 C19 1.32(2) . ?
O30 C19 1.22(2) . ?
O31 C28 1.26(2) . ?
O32 C28 1.23(2) . ?
O33 C38 1.27(2) . ?
O34 C38 1.20(2) . ?
O35 C47 1.41(3) . ?
O36 C47 1.08(3) . ?
C1 C2 1.32(3) . ?
C1 C11 1.36(3) . ?
C1 H1A 0.9300 . ?
C2 C3 1.30(3) . ?
C2 C17 1.51(2) . ?
C3 C13 1.41(3) . ?
C3 H3A 0.9300 . ?
C4 C5 1.31(3) . ?
C4 C13 1.39(3) . ?
C4 H4A 0.9700 . ?
C4 H4B 0.9700 . ?
C5 C14 1.57(3) . ?
C5 H5A 0.9700 . ?
C5 H5B 0.9700 . ?
C6 C7 1.36(2) . ?
C6 C14 1.39(3) . ?
C6 H6A 0.9300 . ?
C7 C8 1.37(2) . ?
C7 C18 1.48(2) . ?
C8 C16 1.29(3) . ?
C8 H8A 0.9300 . ?
C9 C10 1.32(4) . ?
C9 C16 1.48(4) . ?
C9 H9A 0.9700 . ?
C9 H9B 0.9700 . ?
C10 C11 1.53(4) . ?
C10 H10A 0.9700 . ?
C10 H10B 0.9700 . ?
C11 C12 1.43(3) . ?
C12 C13 1.37(3) . ?
C12 C15 1.50(3) . ?
C14 C15 1.37(3) . ?
C15 C16 1.37(3) . ?
C19 C20 1.50(3) . ?
C20 C21 1.32(2) . ?
C20 C25 1.33(2) . ?
C21 C22 1.33(3) . ?
C21 H21A 0.9300 . ?
C22 C23 1.35(3) . ?
C22 C26 1.75(4) . ?
C23 C24 1.34(2) . ?
C23 C23 1.55(4) 2_655 ?
C24 C25 1.33(3) . ?
C24 C27 1.51(4) 2_655 ?
C25 H25A 0.9300 . ?
C26 C27 1.26(3) . ?
C26 H26A 0.9700 . ?
C26 H26B 0.9700 . ?
C27 C24 1.51(4) 2_655 ?
C27 H27A 0.9700 . ?
C27 H27B 0.9700 . ?
C28 C29 1.47(2) . ?
C29 C34 1.33(3) . ?
C29 C30 1.37(2) . ?
C30 C31 1.36(3) . ?
C30 H30A 0.9300 . ?
C31 C32 1.40(3) . ?
C31 C36 1.60(3) . ?
C32 C33 1.41(3) . ?
C32 C51 1.48(3) 2_655 ?
C33 C34 1.44(3) . ?
C33 C35 1.56(3) . ?
C34 H34A 0.9300 . ?
C35 C54 1.37(3) 2_655 ?
C35 H35A 0.9700 . ?
C35 H35B 0.9700 . ?
C36 C37 1.35(3) . ?
C36 H36A 0.9700 . ?
C36 H36B 0.9700 . ?
C37 C52 1.56(4) 2_655 ?
C37 H37A 0.9700 . ?
C37 H37B 0.9700 . ?
C38 C39 1.51(3) . ?
C39 C40 1.31(3) . ?
C39 C44 1.37(3) . ?
C40 C41 1.40(3) . ?
C40 H40A 0.9300 . ?
C41 C42 1.27(3) . ?
C41 C46 1.41(4) 2_655 ?
C42 C42 1.33(4) 2_655 ?
C42 C43 1.34(3) . ?
C43 C44 1.41(3) . ?
C43 C45 1.46(3) . ?
C44 H44A 0.9300 . ?
C45 C46 1.41(4) . ?
C45 H45A 0.9700 . ?
C45 H45B 0.9700 . ?
C46 C41 1.41(4) 2_655 ?
C46 H46A 0.9700 . ?
C46 H46B 0.9700 . ?
C47 C48 1.68(3) . ?
C48 C49 1.33(3) . ?
C48 C53 1.50(3) . ?
C49 C50 1.31(3) . ?
C49 H49A 0.9300 . ?
C50 C51 1.36(3) . ?
C50 C54 1.50(3) . ?
C51 C52 1.32(3) . ?
C51 C32 1.48(3) 2_655 ?
C52 C53 1.38(3) . ?
C52 C37 1.56(4) 2_655 ?
C53 H53A 0.9300 . ?
C54 C35 1.37(3) 2_655 ?
C54 H54A 0.9700 . ?
C54 H54B 0.9700 . ?
N1 C55 1.3900 . ?
N1 C59 1.3900 . ?
C55 C56 1.3900 . ?
C55 H55A 0.9300 . ?
C56 C57 1.3900 . ?
C56 H56A 0.9300 . ?
C57 C58 1.3900 . ?
C57 H57A 0.9300 . ?
C58 C59 1.3900 . ?
C58 H58A 0.9300 . ?
C59 H59A 0.9300 . ?
N2 C60 1.3900 . ?
N2 C64 1.3900 . ?
C60 C61 1.3900 . ?
C60 H60A 0.9300 . ?
C61 C62 1.3900 . ?
C61 H61A 0.9300 . ?
C62 C63 1.3900 . ?
C62 H62A 0.9300 . ?
C63 C64 1.3900 . ?
C63 H63A 0.9300 . ?
C64 H64A 0.9300 . ?
N3 C65 1.3900 . ?
N3 C69 1.3900 . ?
C65 C66 1.3900 . ?
C65 H65A 0.9300 . ?
C66 C67 1.3900 . ?
C66 H66A 0.9300 . ?
C67 C68 1.3900 . ?
C67 H67A 0.9300 . ?
C68 C69 1.3900 . ?
C68 H68A 0.9300 . ?
C69 H69A 0.9300 . ?
N4 C70 1.3900 . ?
N4 C74 1.3900 . ?
C70 C71 1.3900 . ?
C70 H70A 0.9300 . ?
C71 C72 1.3900 . ?
C71 H71A 0.9300 . ?
C72 C73 1.3900 . ?
C72 H72A 0.9300 . ?
C73 C74 1.3900 . ?
C73 H73A 0.9300 . ?
C74 H74A 0.9300 . ?
N5 C75 1.3900 . ?
N5 C79 1.3900 . ?
C75 C76 1.3900 . ?
C75 H75A 0.9300 . ?
C76 C77 1.3900 . ?
C76 H76A 0.9300 . ?
C77 C78 1.3900 . ?
C77 H77A 0.9300 . ?
C78 C79 1.3900 . ?
C78 H78A 0.9300 . ?
C79 H79A 0.9300 . ?
N6 C80 1.3900 . ?
N6 C84 1.3900 . ?
C80 C81 1.3900 . ?
C80 H80A 0.9300 . ?
C81 C82 1.3900 . ?
C81 H81A 0.9300 . ?
C82 C83 1.3900 . ?
C82 H82A 0.9300 . ?
C83 C84 1.3900 . ?
C83 H83A 0.9300 . ?
C84 H84A 0.9300 . ?
N7 C85 1.3900 . ?
N7 C89 1.3900 . ?
C85 C86 1.3900 . ?
C86 C87 1.3900 . ?
C87 C88 1.3900 . ?
C88 C89 1.3900 . ?
N8 C90 1.3900 . ?
N8 C94 1.3900 . ?
C90 C91 1.3900 . ?
C91 C92 1.3900 . ?
C92 C93 1.3900 . ?
C93 C94 1.3900 . ?
N9 C95 1.3900 . ?
N9 C99 1.3900 . ?
C95 C96 1.3900 . ?
C96 C97 1.3900 . ?
C97 C98 1.3900 . ?
C98 C99 1.3900 . ?
N10 C100 1.3900 . ?
N10 C104 1.3900 . ?
C100 C101 1.3900 . ?
C101 C102 1.3900 . ?
C102 C103 1.3900 . ?
C103 C104 1.3900 . ?
N11 C105 1.3900 . ?
N11 C109 1.3900 . ?
C105 C106 1.3900 . ?
C106 C107 1.3900 . ?
C107 C108 1.3900 . ?
C108 C109 1.3900 . ?
N1M C1M 1.48(4) . ?
N1M C2M 1.58(4) . ?
N2M C3M 1.56(4) . ?
N2M C4M 1.72(4) . ?
C3M C4M 2.02(5) . ?
O1W O3W 1.50(6) . ?
O4W O5W 1.62(6) . ?

loop_
_geom_angle_atom_site_label_1
_geom_angle_atom_site_label_2
_geom_angle_atom_site_label_3
_geom_angle
_geom_angle_site_symmetry_1
_geom_angle_site_symmetry_3
_geom_angle_publ_flag
O1C Fe1 O10 95.1(4) . . ?
O1C Fe1 O1 98.2(4) . . ?
O10 Fe1 O1 88.5(5) . . ?
O1C Fe1 O29 93.8(5) . . ?
O10 Fe1 O29 171.0(5) . . ?
O1 Fe1 O29 91.1(5) . . ?
O1C Fe1 O26 96.6(4) . . ?
O10 Fe1 O26 91.3(5) . . ?
O1 Fe1 O26 165.1(5) . . ?
O29 Fe1 O26 86.9(5) . . ?
O1C Fe1 N1 178.1(5) . . ?
O10 Fe1 N1 85.4(5) . . ?
O1 Fe1 N1 83.7(5) . . ?
O29 Fe1 N1 85.7(6) . . ?
O26 Fe1 N1 81.5(5) . . ?
O1C Fe2 O5 93.8(4) . . ?
O1C Fe2 O2 98.4(4) . . ?
O5 Fe2 O2 88.9(5) . . ?
O1C Fe2 O30 96.2(5) . . ?
O5 Fe2 O30 170.1(5) . . ?
O2 Fe2 O30 89.7(5) . . ?
O1C Fe2 O31 96.2(5) . . ?
O5 Fe2 O31 93.4(5) . . ?
O2 Fe2 O31 165.1(5) . . ?
O30 Fe2 O31 85.5(5) . . ?
O1C Fe2 N2 177.2(6) . . ?
O5 Fe2 N2 84.4(6) . . ?
O2 Fe2 N2 83.8(5) . . ?
O30 Fe2 N2 85.6(6) . . ?
O31 Fe2 N2 81.8(6) . . ?
O1C Fe3 O6 99.0(4) . . ?
O1C Fe3 O9 94.9(4) . . ?
O6 Fe3 O9 90.0(6) . . ?
O1C Fe3 O25 96.2(5) . . ?
O6 Fe3 O25 164.6(5) . . ?
O9 Fe3 O25 91.6(6) . . ?
O1C Fe3 O32 95.3(5) . . ?
O6 Fe3 O32 90.1(6) . . ?
O9 Fe3 O32 169.7(5) . . ?
O25 Fe3 O32 85.7(6) . . ?
O1C Fe3 N3 177.5(5) . . ?
O6 Fe3 N3 83.5(5) . . ?
O9 Fe3 N3 85.8(5) . . ?
O25 Fe3 N3 81.3(6) . . ?
O32 Fe3 N3 84.1(6) . . ?
O2C Fe4 O13 96.9(5) . . ?
O2C Fe4 O22 96.4(4) . . ?
O13 Fe4 O22 89.2(5) . . ?
O2C Fe4 O28 96.1(5) . . ?
O13 Fe4 O28 166.7(5) . . ?
O22 Fe4 O28 92.4(5) . . ?
O2C Fe4 O33 96.0(5) . . ?
O13 Fe4 O33 89.6(5) . . ?
O22 Fe4 O33 167.6(5) . . ?
O28 Fe4 O33 86.1(5) . . ?
O2C Fe4 N4 179.8(5) . . ?
O13 Fe4 N4 83.3(5) . . ?
O22 Fe4 N4 83.7(5) . . ?
O28 Fe4 N4 83.8(5) . . ?
O33 Fe4 N4 83.9(5) . . ?
O2C Fe5 O18 97.2(5) . . ?
O2C Fe5 O36 98.0(6) . . ?
O18 Fe5 O36 93.2(6) . . ?
O2C Fe5 O21 96.1(4) . . ?
O18 Fe5 O21 86.9(5) . . ?
O36 Fe5 O21 165.7(6) . . ?
O2C Fe5 O27 95.0(4) . . ?
O18 Fe5 O27 167.8(5) . . ?
O36 Fe5 O27 84.8(7) . . ?
O21 Fe5 O27 92.1(5) . . ?
O2C Fe5 N5 177.9(5) . . ?
O18 Fe5 N5 83.5(6) . . ?
O36 Fe5 N5 80.0(7) . . ?
O21 Fe5 N5 85.8(5) . . ?
O27 Fe5 N5 84.2(6) . . ?
O2C Fe6 O14 97.8(5) . . ?
O2C Fe6 O17 97.8(5) . . ?
O14 Fe6 O17 89.7(5) . . ?
O2C Fe6 O34 94.3(4) . . ?
O14 Fe6 O34 91.1(5) . . ?
O17 Fe6 O34 167.6(5) . . ?
O2C Fe6 O35 93.6(5) . . ?
O14 Fe6 O35 168.4(5) . . ?
O17 Fe6 O35 90.4(5) . . ?
O34 Fe6 O35 86.3(5) . . ?
O2C Fe6 N6 175.8(6) . . ?
O14 Fe6 N6 81.3(6) . . ?
O17 Fe6 N6 86.3(6) . . ?
O34 Fe6 N6 81.7(5) . . ?
O35 Fe6 N6 87.1(6) . . ?
Fe3 O1C Fe2 119.9(5) . . ?
Fe3 O1C Fe1 120.2(5) . . ?
Fe2 O1C Fe1 119.7(5) . . ?
Fe6 O2C Fe5 119.8(5) . . ?
Fe6 O2C Fe4 119.7(5) . . ?
Fe5 O2C Fe4 120.4(5) . . ?
O4 S1 O3 112.8(8) . . ?
O4 S1 O2 107.6(7) . . ?
O3 S1 O2 110.0(7) . . ?
O4 S1 O1 108.6(7) . . ?
O3 S1 O1 111.0(7) . . ?
O2 S1 O1 106.7(6) . . ?
O7 S2 O8 109.0(14) . . ?
O7 S2 O6 111.6(11) . . ?
O8 S2 O6 106.3(10) . . ?
O7 S2 O5 111.2(9) . . ?
O8 S2 O5 109.4(9) . . ?
O6 S2 O5 109.2(7) . . ?
O12 S3 O11 113.1(9) . . ?
O12 S3 O10 109.9(8) . . ?
O11 S3 O10 109.3(8) . . ?
O12 S3 O9 107.8(8) . . ?
O11 S3 O9 109.4(8) . . ?
O10 S3 O9 107.2(7) . . ?
O16 S4 O13 110.7(9) . . ?
O16 S4 O14 108.7(9) . . ?
O13 S4 O14 106.0(7) . . ?
O16 S4 O15 112.8(12) . . ?
O13 S4 O15 109.4(9) . . ?
O14 S4 O15 109.1(9) . . ?
O20 S5 O19 112.8(10) . . ?
O20 S5 O17 109.8(10) . . ?
O19 S5 O17 110.2(10) . . ?
O20 S5 O18 108.2(8) . . ?
O19 S5 O18 108.0(9) . . ?
O17 S5 O18 107.7(7) . . ?
O24 S6 O23 113.3(10) . . ?
O24 S6 O21 109.2(8) . . ?
O23 S6 O21 110.7(8) . . ?
O24 S6 O22 107.4(8) . . ?
O23 S6 O22 109.5(8) . . ?
O21 S6 O22 106.5(7) . . ?
S1 O1 Fe1 131.5(6) . . ?
S1 O2 Fe2 134.1(6) . . ?
S2 O5 Fe2 135.9(7) . . ?
S2 O6 Fe3 138.7(8) . . ?
S3 O9 Fe3 135.5(7) . . ?
S3 O10 Fe1 135.8(7) . . ?
S4 O13 Fe4 137.6(7) . . ?
S4 O14 Fe6 134.1(7) . . ?
S5 O17 Fe6 134.6(8) . . ?
S5 O18 Fe5 134.8(7) . . ?
S6 O21 Fe5 134.8(6) . . ?
S6 O22 Fe4 134.1(7) . . ?
C17 O25 Fe3 135.2(13) . . ?
C17 O26 Fe1 130.5(13) . . ?
C18 O27 Fe5 133.3(12) . . ?
C18 O28 Fe4 131.2(11) . . ?
C19 O29 Fe1 134.6(13) . . ?
C19 O30 Fe2 131.4(14) . . ?
C28 O31 Fe2 131.5(13) . . ?
C28 O32 Fe3 131.1(13) . . ?
C38 O33 Fe4 130.0(12) . . ?
C38 O34 Fe6 135.1(13) . . ?
C47 O35 Fe6 127.3(13) . . ?
C47 O36 Fe5 131(2) . . ?
C2 C1 C11 124(2) . . ?
C2 C1 H1A 117.9 . . ?
C11 C1 H1A 117.9 . . ?
C3 C2 C1 115(2) . . ?
C3 C2 C17 122(2) . . ?
C1 C2 C17 123(2) . . ?
C2 C3 C13 127(2) . . ?
C2 C3 H3A 116.6 . . ?
C13 C3 H3A 116.6 . . ?
C5 C4 C13 124(3) . . ?
C5 C4 H4A 106.2 . . ?
C13 C4 H4A 106.2 . . ?
C5 C4 H4B 106.2 . . ?
C13 C4 H4B 106.2 . . ?
H4A C4 H4B 106.4 . . ?
C4 C5 C14 116(3) . . ?
C4 C5 H5A 108.3 . . ?
C14 C5 H5A 108.3 . . ?
C4 C5 H5B 108.3 . . ?
C14 C5 H5B 108.3 . . ?
H5A C5 H5B 107.4 . . ?
C7 C6 C14 116(2) . . ?
C7 C6 H6A 121.8 . . ?
C14 C6 H6A 121.8 . . ?
C6 C7 C8 121.1(18) . . ?
C6 C7 C18 119.3(19) . . ?
C8 C7 C18 119.2(19) . . ?
C16 C8 C7 119(2) . . ?
C16 C8 H8A 120.4 . . ?
C7 C8 H8A 120.4 . . ?
C10 C9 C16 122(3) . . ?
C10 C9 H9A 106.8 . . ?
C16 C9 H9A 106.8 . . ?
C10 C9 H9B 106.8 . . ?
C16 C9 H9B 106.8 . . ?
H9A C9 H9B 106.7 . . ?
C9 C10 C11 125(4) . . ?
C9 C10 H10A 106.2 . . ?
C11 C10 H10A 106.2 . . ?
C9 C10 H10B 106.2 . . ?
C11 C10 H10B 106.2 . . ?
H10A C10 H10B 106.4 . . ?
C1 C11 C12 119(2) . . ?
C1 C11 C10 128(3) . . ?
C12 C11 C10 110(2) . . ?
C13 C12 C11 118(2) . . ?
C13 C12 C15 123(2) . . ?
C11 C12 C15 118(2) . . ?
C12 C13 C4 116(2) . . ?
C12 C13 C3 114(2) . . ?
C4 C13 C3 129(3) . . ?
C15 C14 C6 122(2) . . ?
C15 C14 C5 118(2) . . ?
C6 C14 C5 120(2) . . ?
C14 C15 C16 116(2) . . ?
C14 C15 C12 117(2) . . ?
C16 C15 C12 127(2) . . ?
C8 C16 C15 124(2) . . ?
C8 C16 C9 124(3) . . ?
C15 C16 C9 112(3) . . ?
O25 C17 O26 125.8(19) . . ?
O25 C17 C2 117(2) . . ?
O26 C17 C2 116(2) . . ?
O27 C18 O28 126.8(16) . . ?
O27 C18 C7 117.4(18) . . ?
O28 C18 C7 115.6(18) . . ?
O30 C19 O29 125(2) . . ?
O30 C19 C20 121(2) . . ?
O29 C19 C20 113(2) . . ?
C21 C20 C25 117(2) . . ?
C21 C20 C19 122(2) . . ?
C25 C20 C19 121(2) . . ?
C20 C21 C22 121(2) . . ?
C20 C21 H21A 119.5 . . ?
C22 C21 H21A 119.5 . . ?
C21 C22 C23 121(2) . . ?
C21 C22 C26 122(2) . . ?
C23 C22 C26 116(2) . . ?
C24 C23 C22 118(2) . . ?
C24 C23 C23 123(2) . 2_655 ?
C22 C23 C23 119(3) . 2_655 ?
C25 C24 C23 119.0(19) . . ?
C25 C24 C27 121(2) . 2_655 ?
C23 C24 C27 119(2) . 2_655 ?
C20 C25 C24 123(2) . . ?
C20 C25 H25A 118.3 . . ?
C24 C25 H25A 118.3 . . ?
C27 C26 C22 117(3) . . ?
C27 C26 H26A 108.0 . . ?
C22 C26 H26A 108.0 . . ?
C27 C26 H26B 108.0 . . ?
C22 C26 H26B 107.9 . . ?
H26A C26 H26B 107.2 . . ?
C26 C27 C24 124(3) . 2_655 ?
C26 C27 H27A 106.3 . . ?
C24 C27 H27A 106.3 2_655 . ?
C26 C27 H27B 106.3 . . ?
C24 C27 H27B 106.3 2_655 . ?
H27A C27 H27B 106.4 . . ?
O32 C28 O31 127.2(18) . . ?
O32 C28 C29 116(2) . . ?
O31 C28 C29 117(2) . . ?
C34 C29 C30 118.4(18) . . ?
C34 C29 C28 120(2) . . ?
C30 C29 C28 122(2) . . ?
C31 C30 C29 121(2) . . ?
C31 C30 H30A 119.3 . . ?
C29 C30 H30A 119.3 . . ?
C30 C31 C32 122(2) . . ?
C30 C31 C36 120(2) . . ?
C32 C31 C36 117(2) . . ?
C31 C32 C33 118(2) . . ?
C31 C32 C51 122(2) . 2_655 ?
C33 C32 C51 120(2) . 2_655 ?
C32 C33 C34 117(2) . . ?
C32 C33 C35 114(2) . . ?
C34 C33 C35 129(2) . . ?
C29 C34 C33 123(2) . . ?
C29 C34 H34A 118.3 . . ?
C33 C34 H34A 118.3 . . ?
C54 C35 C33 121(3) 2_655 . ?
C54 C35 H35A 107.0 2_655 . ?
C33 C35 H35A 107.0 . . ?
C54 C35 H35B 107.0 2_655 . ?
C33 C35 H35B 107.0 . . ?
H35A C35 H35B 106.7 . . ?
C37 C36 C31 116(2) . . ?
C37 C36 H36A 108.3 . . ?
C31 C36 H36A 108.3 . . ?
C37 C36 H36B 108.3 . . ?
C31 C36 H36B 108.3 . . ?
H36A C36 H36B 107.4 . . ?
C36 C37 C52 118(3) . 2_655 ?
C36 C37 H37A 107.8 . . ?
C52 C37 H37A 107.8 2_655 . ?
C36 C37 H37B 107.8 . . ?
C52 C37 H37B 107.8 2_655 . ?
H37A C37 H37B 107.1 . . ?
O34 C38 O33 126.4(19) . . ?
O34 C38 C39 117(2) . . ?
O33 C38 C39 116.0(19) . . ?
C40 C39 C44 115(2) . . ?
C40 C39 C38 123(2) . . ?
C44 C39 C38 122(2) . . ?
C39 C40 C41 121(2) . . ?
C39 C40 H40A 119.4 . . ?
C41 C40 H40A 119.4 . . ?
C42 C41 C40 127(2) . . ?
C42 C41 C46 116(3) . 2_655 ?
C40 C41 C46 117(3) . 2_655 ?
C41 C42 C42 126(3) . 2_655 ?
C41 C42 C43 112(2) . . ?
C42 C42 C43 121(3) 2_655 . ?
C42 C43 C44 124(2) . . ?
C42 C43 C45 117(2) . . ?
C44 C43 C45 119(3) . . ?
C39 C44 C43 120(2) . . ?
C39 C44 H44A 119.8 . . ?
C43 C44 H44A 119.8 . . ?
C46 C45 C43 114(3) . . ?
C46 C45 H45A 108.9 . . ?
C43 C45 H45A 108.9 . . ?
C46 C45 H45B 108.9 . . ?
C43 C45 H45B 108.9 . . ?
H45A C45 H45B 107.7 . . ?
C41 C46 C45 120(3) 2_655 . ?
C41 C46 H46A 107.3 2_655 . ?
C45 C46 H46A 107.3 . . ?
C41 C46 H46B 107.3 2_655 . ?
C45 C46 H46B 107.3 . . ?
H46A C46 H46B 106.9 . . ?
O36 C47 O35 132(2) . . ?
O36 C47 C48 123(3) . . ?
O35 C47 C48 105(2) . . ?
C49 C48 C53 124(2) . . ?
C49 C48 C47 119(2) . . ?
C53 C48 C47 117(3) . . ?
C50 C49 C48 117(3) . . ?
C50 C49 H49A 121.5 . . ?
C48 C49 H49A 121.5 . . ?
C49 C50 C51 124(2) . . ?
C49 C50 C54 116(2) . . ?
C51 C50 C54 120(2) . . ?
C52 C51 C50 119(2) . . ?
C52 C51 C32 118(2) . 2_655 ?
C50 C51 C32 122(2) . 2_655 ?
C51 C52 C53 124(2) . . ?
C51 C52 C37 123(2) . 2_655 ?
C53 C52 C37 113(3) . 2_655 ?
C52 C53 C48 111(2) . . ?
C52 C53 H53A 124.3 . . ?
C48 C53 H53A 124.3 . . ?
C35 C54 C50 114(2) 2_655 . ?
C35 C54 H54A 108.8 2_655 . ?
C50 C54 H54A 108.8 . . ?
C35 C54 H54B 108.8 2_655 . ?
C50 C54 H54B 108.8 . . ?
H54A C54 H54B 107.7 . . ?
C55 N1 C59 120.0 . . ?
C55 N1 Fe1 118.4(12) . . ?
C59 N1 Fe1 121.6(12) . . ?
N1 C55 C56 120.0 . . ?
N1 C55 H55A 120.0 . . ?
C56 C55 H55A 120.0 . . ?
C57 C56 C55 120.0 . . ?
C57 C56 H56A 120.0 . . ?
C55 C56 H56A 120.0 . . ?
C56 C57 C58 120.0 . . ?
C56 C57 H57A 120.0 . . ?
C58 C57 H57A 120.0 . . ?
C57 C58 C59 120.0 . . ?
C57 C58 H58A 120.0 . . ?
C59 C58 H58A 120.0 . . ?
C58 C59 N1 120.0 . . ?
C58 C59 H59A 120.0 . . ?
N1 C59 H59A 120.0 . . ?
C60 N2 C64 120.0 . . ?
C60 N2 Fe2 117.7(12) . . ?
C64 N2 Fe2 122.3(12) . . ?
N2 C60 C61 120.0 . . ?
N2 C60 H60A 120.0 . . ?
C61 C60 H60A 120.0 . . ?
C62 C61 C60 120.0 . . ?
C62 C61 H61A 120.0 . . ?
C60 C61 H61A 120.0 . . ?
C61 C62 C63 120.0 . . ?
C61 C62 H62A 120.0 . . ?
C63 C62 H62A 120.0 . . ?
C64 C63 C62 120.0 . . ?
C64 C63 H63A 120.0 . . ?
C62 C63 H63A 120.0 . . ?
C63 C64 N2 120.0 . . ?
C63 C64 H64A 120.0 . . ?
N2 C64 H64A 120.0 . . ?
C65 N3 C69 120.0 . . ?
C65 N3 Fe3 121.1(12) . . ?
C69 N3 Fe3 118.9(12) . . ?
C66 C65 N3 120.0 . . ?
C66 C65 H65A 120.0 . . ?
N3 C65 H65A 120.0 . . ?
C65 C66 C67 120.0 . . ?
C65 C66 H66A 120.0 . . ?
C67 C66 H66A 120.0 . . ?
C68 C67 C66 120.0 . . ?
C68 C67 H67A 120.0 . . ?
C66 C67 H67A 120.0 . . ?
C67 C68 C69 120.0 . . ?
C67 C68 H68A 120.0 . . ?
C69 C68 H68A 120.0 . . ?
C68 C69 N3 120.0 . . ?
C68 C69 H69A 120.0 . . ?
N3 C69 H69A 120.0 . . ?
C70 N4 C74 120.0 . . ?
C70 N4 Fe4 120.6(10) . . ?
C74 N4 Fe4 119.3(10) . . ?
N4 C70 C71 120.0 . . ?
N4 C70 H70A 120.0 . . ?
C71 C70 H70A 120.0 . . ?
C70 C71 C72 120.0 . . ?
C70 C71 H71A 120.0 . . ?
C72 C71 H71A 120.0 . . ?
C73 C72 C71 120.0 . . ?
C73 C72 H72A 120.0 . . ?
C71 C72 H72A 120.0 . . ?
C72 C73 C74 120.0 . . ?
C72 C73 H73A 120.0 . . ?
C74 C73 H73A 120.0 . . ?
C73 C74 N4 120.0 . . ?
C73 C74 H74A 120.0 . . ?
N4 C74 H74A 120.0 . . ?
C75 N5 C79 120.0 . . ?
C75 N5 Fe5 117.7(12) . . ?
C79 N5 Fe5 122.1(12) . . ?
C76 C75 N5 120.0 . . ?
C76 C75 H75A 120.0 . . ?
N5 C75 H75A 120.0 . . ?
C75 C76 C77 120.0 . . ?
C75 C76 H76A 120.0 . . ?
C77 C76 H76A 120.0 . . ?
C78 C77 C76 120.0 . . ?
C78 C77 H77A 120.0 . . ?
C76 C77 H77A 120.0 . . ?
C79 C78 C77 120.0 . . ?
C79 C78 H78A 120.0 . . ?
C77 C78 H78A 120.0 . . ?
C78 C79 N5 120.0 . . ?
C78 C79 H79A 120.0 . . ?
N5 C79 H79A 120.0 . . ?
C80 N6 C84 120.0 . . ?
C80 N6 Fe6 121.7(12) . . ?
C84 N6 Fe6 118.3(12) . . ?
C81 C80 N6 120.0 . . ?
C81 C80 H80A 120.0 . . ?
N6 C80 H80A 120.0 . . ?
C82 C81 C80 120.0 . . ?
C82 C81 H81A 120.0 . . ?
C80 C81 H81A 120.0 . . ?
C81 C82 C83 120.0 . . ?
C81 C82 H82A 120.0 . . ?
C83 C82 H82A 120.0 . . ?
C84 C83 C82 120.0 . . ?
C84 C83 H83A 120.0 . . ?
C82 C83 H83A 120.0 . . ?
C83 C84 N6 120.0 . . ?
C83 C84 H84A 120.0 . . ?
N6 C84 H84A 120.0 . . ?
C85 N7 C89 120.0 . . ?
C86 C85 N7 120.0 . . ?
C85 C86 C87 120.0 . . ?
C88 C87 C86 120.0 . . ?
C89 C88 C87 120.0 . . ?
C88 C89 N7 120.0 . . ?
C90 N8 C94 120.0 . . ?
C91 C90 N8 120.0 . . ?
C90 C91 C92 120.0 . . ?
C93 C92 C91 120.0 . . ?
C94 C93 C92 120.0 . . ?
C93 C94 N8 120.0 . . ?
C95 N9 C99 120.0 . . ?
C96 C95 N9 120.0 . . ?
C97 C96 C95 120.00(7) . . ?
C96 C97 C98 120.0 . . ?
C97 C98 C99 120.0 . . ?
C98 C99 N9 120.00(7) . . ?
C100 N10 C104 120.0 . . ?
N10 C100 C101 120.0 . . ?
C102 C101 C100 120.0 . . ?
C101 C102 C103 120.0 . . ?
C104 C103 C102 120.0 . . ?
C103 C104 N10 120.0 . . ?
C105 N11 C109 120.0 . . ?
C106 C105 N11 120.00(5) . . ?
C105 C106 C107 120.00(9) . . ?
C106 C107 C108 120.0 . . ?
C109 C108 C107 120.00(7) . . ?
C108 C109 N11 120.00(9) . . ?
C1M N1M C2M 115(3) . . ?
C3M N2M C4M 76(2) . . ?
N2M C3M C4M 56(2) . . ?
N2M C4M C3M 48.4(17) . . ?

loop_
_geom_torsion_atom_site_label_1
_geom_torsion_atom_site_label_2
_geom_torsion_atom_site_label_3
_geom_torsion_atom_site_label_4
_geom_torsion
_geom_torsion_site_symmetry_1
_geom_torsion_site_symmetry_2
_geom_torsion_site_symmetry_3
_geom_torsion_site_symmetry_4
_geom_torsion_publ_flag
O6 Fe3 O1C Fe2 42.7(7) . . . . ?
O9 Fe3 O1C Fe2 133.5(6) . . . . ?
O25 Fe3 O1C Fe2 -134.4(6) . . . . ?
O32 Fe3 O1C Fe2 -48.2(7) . . . . ?
O6 Fe3 O1C Fe1 -142.8(6) . . . . ?
O9 Fe3 O1C Fe1 -52.1(6) . . . . ?
O25 Fe3 O1C Fe1 40.1(6) . . . . ?
O32 Fe3 O1C Fe1 126.3(6) . . . . ?
O5 Fe2 O1C Fe3 -52.9(6) . . . . ?
O2 Fe2 O1C Fe3 -142.3(6) . . . . ?
O30 Fe2 O1C Fe3 127.0(6) . . . . ?
O31 Fe2 O1C Fe3 40.9(6) . . . . ?
O5 Fe2 O1C Fe1 132.6(6) . . . . ?
O2 Fe2 O1C Fe1 43.2(6) . . . . ?
O30 Fe2 O1C Fe1 -47.5(6) . . . . ?
O31 Fe2 O1C Fe1 -133.6(6) . . . . ?
O10 Fe1 O1C Fe3 50.7(6) . . . . ?
O1 Fe1 O1C Fe3 140.0(6) . . . . ?
O29 Fe1 O1C Fe3 -128.4(6) . . . . ?
O26 Fe1 O1C Fe3 -41.1(6) . . . . ?
O10 Fe1 O1C Fe2 -134.8(6) . . . . ?
O1 Fe1 O1C Fe2 -45.6(6) . . . . ?
O29 Fe1 O1C Fe2 46.1(6) . . . . ?
O26 Fe1 O1C Fe2 133.3(6) . . . . ?
O14 Fe6 O2C Fe5 -136.6(6) . . . . ?
O17 Fe6 O2C Fe5 -45.7(6) . . . . ?
O34 Fe6 O2C Fe5 131.7(6) . . . . ?
O35 Fe6 O2C Fe5 45.2(6) . . . . ?
O14 Fe6 O2C Fe4 46.9(6) . . . . ?
O17 Fe6 O2C Fe4 137.7(6) . . . . ?
O34 Fe6 O2C Fe4 -44.8(6) . . . . ?
O35 Fe6 O2C Fe4 -131.4(6) . . . . ?
O18 Fe5 O2C Fe6 47.6(6) . . . . ?
O36 Fe5 O2C Fe6 -46.6(8) . . . . ?
O21 Fe5 O2C Fe6 135.2(6) . . . . ?
O27 Fe5 O2C Fe6 -132.1(6) . . . . ?
O18 Fe5 O2C Fe4 -135.9(6) . . . . ?
O36 Fe5 O2C Fe4 129.9(7) . . . . ?
O21 Fe5 O2C Fe4 -48.3(6) . . . . ?
O27 Fe5 O2C Fe4 44.4(6) . . . . ?
O13 Fe4 O2C Fe6 -44.8(6) . . . . ?
O22 Fe4 O2C Fe6 -134.7(6) . . . . ?
O28 Fe4 O2C Fe6 132.2(6) . . . . ?
O33 Fe4 O2C Fe6 45.5(6) . . . . ?
O13 Fe4 O2C Fe5 138.8(6) . . . . ?
O22 Fe4 O2C Fe5 48.8(6) . . . . ?
O28 Fe4 O2C Fe5 -44.3(6) . . . . ?
O33 Fe4 O2C Fe5 -131.0(6) . . . . ?
O4 S1 O1 Fe1 -161.0(8) . . . . ?
O3 S1 O1 Fe1 74.5(11) . . . . ?
O2 S1 O1 Fe1 -45.4(11) . . . . ?
O1C Fe1 O1 S1 49.0(10) . . . . ?
O10 Fe1 O1 S1 144.0(9) . . . . ?
O29 Fe1 O1 S1 -45.0(10) . . . . ?
O26 Fe1 O1 S1 -126.7(18) . . . . ?
N1 Fe1 O1 S1 -130.5(10) . . . . ?
O4 S1 O2 Fe2 158.9(9) . . . . ?
O3 S1 O2 Fe2 -78.0(11) . . . . ?
O1 S1 O2 Fe2 42.5(11) . . . . ?
O1C Fe2 O2 S1 -43.7(10) . . . . ?
O5 Fe2 O2 S1 -137.3(10) . . . . ?
O30 Fe2 O2 S1 52.5(10) . . . . ?
O31 Fe2 O2 S1 123.7(17) . . . . ?
N2 Fe2 O2 S1 138.2(11) . . . . ?
O7 S2 O5 Fe2 104.5(15) . . . . ?
O8 S2 O5 Fe2 -135.2(12) . . . . ?
O6 S2 O5 Fe2 -19.2(14) . . . . ?
O1C Fe2 O5 S2 44.6(11) . . . . ?
O2 Fe2 O5 S2 142.9(11) . . . . ?
O31 Fe2 O5 S2 -51.9(11) . . . . ?
N2 Fe2 O5 S2 -133.3(11) . . . . ?
O7 S2 O6 Fe3 -126.8(16) . . . . ?
O8 S2 O6 Fe3 114.5(15) . . . . ?
O5 S2 O6 Fe3 -3.4(17) . . . . ?
O1C Fe3 O6 S2 -9.1(15) . . . . ?
O9 Fe3 O6 S2 -104.0(15) . . . . ?
O25 Fe3 O6 S2 160.2(16) . . . . ?
O32 Fe3 O6 S2 86.3(15) . . . . ?
N3 Fe3 O6 S2 170.3(15) . . . . ?
O12 S3 O9 Fe3 -154.3(11) . . . . ?
O11 S3 O9 Fe3 82.4(13) . . . . ?
O10 S3 O9 Fe3 -36.1(13) . . . . ?
O1C Fe3 O9 S3 46.4(12) . . . . ?
O6 Fe3 O9 S3 145.4(11) . . . . ?
O25 Fe3 O9 S3 -49.9(12) . . . . ?
O32 Fe3 O9 S3 -124(3) . . . . ?
N3 Fe3 O9 S3 -131.1(12) . . . . ?
O12 S3 O10 Fe1 150.1(10) . . . . ?
O11 S3 O10 Fe1 -85.3(12) . . . . ?
O9 S3 O10 Fe1 33.2(13) . . . . ?
O1C Fe1 O10 S3 -41.4(11) . . . . ?
O1 Fe1 O10 S3 -139.5(11) . . . . ?
O26 Fe1 O10 S3 55.3(11) . . . . ?
N1 Fe1 O10 S3 136.7(11) . . . . ?
O16 S4 O13 Fe4 -153.3(12) . . . . ?
O14 S4 O13 Fe4 -35.6(14) . . . . ?
O15 S4 O13 Fe4 81.9(14) . . . . ?
O2C Fe4 O13 S4 41.1(12) . . . . ?
O22 Fe4 O13 S4 137.4(12) . . . . ?
O28 Fe4 O13 S4 -125.6(19) . . . . ?
O33 Fe4 O13 S4 -54.9(12) . . . . ?
N4 Fe4 O13 S4 -138.8(12) . . . . ?
O16 S4 O14 Fe6 156.3(12) . . . . ?
O13 S4 O14 Fe6 37.3(14) . . . . ?
O15 S4 O14 Fe6 -80.4(14) . . . . ?
O2C Fe6 O14 S4 -45.5(12) . . . . ?
O17 Fe6 O14 S4 -143.4(12) . . . . ?
O34 Fe6 O14 S4 49.0(12) . . . . ?
O35 Fe6 O14 S4 126(2) . . . . ?
N6 Fe6 O14 S4 130.3(12) . . . . ?
O20 S5 O17 Fe6 -151.4(10) . . . . ?
O19 S5 O17 Fe6 83.8(13) . . . . ?
O18 S5 O17 Fe6 -33.9(13) . . . . ?
O2C Fe6 O17 S5 40.0(11) . . . . ?
O14 Fe6 O17 S5 137.9(11) . . . . ?
O34 Fe6 O17 S5 -128(2) . . . . ?
O35 Fe6 O17 S5 -53.7(11) . . . . ?
N6 Fe6 O17 S5 -140.8(12) . . . . ?
O20 S5 O18 Fe5 156.4(11) . . . . ?
O19 S5 O18 Fe5 -81.2(13) . . . . ?
O17 S5 O18 Fe5 37.9(13) . . . . ?
O2C Fe5 O18 S5 -45.7(12) . . . . ?
O36 Fe5 O18 S5 52.9(12) . . . . ?
O21 Fe5 O18 S5 -141.5(11) . . . . ?
O27 Fe5 O18 S5 133(2) . . . . ?
N5 Fe5 O18 S5 132.4(12) . . . . ?
O24 S6 O21 Fe5 -155.1(11) . . . . ?
O23 S6 O21 Fe5 79.5(12) . . . . ?
O22 S6 O21 Fe5 -39.5(12) . . . . ?
O2C Fe5 O21 S6 45.4(11) . . . . ?
O18 Fe5 O21 S6 142.3(11) . . . . ?
O36 Fe5 O21 S6 -127(2) . . . . ?
O27 Fe5 O21 S6 -49.9(11) . . . . ?
N5 Fe5 O21 S6 -134.0(12) . . . . ?
O24 S6 O22 Fe4 156.6(10) . . . . ?
O23 S6 O22 Fe4 -80.0(12) . . . . ?
O21 S6 O22 Fe4 39.7(12) . . . . ?
O2C Fe4 O22 S6 -45.8(11) . . . . ?
O13 Fe4 O22 S6 -142.6(10) . . . . ?
O28 Fe4 O22 S6 50.5(10) . . . . ?
O33 Fe4 O22 S6 133(2) . . . . ?
N4 Fe4 O22 S6 134.0(11) . . . . ?
O1C Fe3 O25 C17 -25(2) . . . . ?
O6 Fe3 O25 C17 166(2) . . . . ?
O9 Fe3 O25 C17 70(2) . . . . ?
O32 Fe3 O25 C17 -120(2) . . . . ?
N3 Fe3 O25 C17 156(2) . . . . ?
O1C Fe1 O26 C17 26.3(18) . . . . ?
O10 Fe1 O26 C17 -69.0(18) . . . . ?
O1 Fe1 O26 C17 -157.9(19) . . . . ?
O29 Fe1 O26 C17 119.8(18) . . . . ?
N1 Fe1 O26 C17 -154.1(19) . . . . ?
O2C Fe5 O27 C18 -21.6(17) . . . . ?
O18 Fe5 O27 C18 160(2) . . . . ?
O36 Fe5 O27 C18 -119.3(17) . . . . ?
O21 Fe5 O27 C18 74.7(17) . . . . ?
N5 Fe5 O27 C18 160.3(17) . . . . ?
O2C Fe4 O28 C18 20.2(15) . . . . ?
O13 Fe4 O28 C18 -173.1(19) . . . . ?
O22 Fe4 O28 C18 -76.5(15) . . . . ?
O33 Fe4 O28 C18 115.8(15) . . . . ?
N4 Fe4 O28 C18 -159.9(15) . . . . ?
O1C Fe1 O29 C19 -22.9(16) . . . . ?
O1 Fe1 O29 C19 75.3(16) . . . . ?
O26 Fe1 O29 C19 -119.4(16) . . . . ?
N1 Fe1 O29 C19 158.9(16) . . . . ?
O1C Fe2 O30 C19 24.8(18) . . . . ?
O2 Fe2 O30 C19 -73.6(18) . . . . ?
O31 Fe2 O30 C19 120.5(18) . . . . ?
N2 Fe2 O30 C19 -157.4(18) . . . . ?
O1C Fe2 O31 C28 -9.9(17) . . . . ?
O5 Fe2 O31 C28 84.3(17) . . . . ?
O2 Fe2 O31 C28 -177.3(18) . . . . ?
O30 Fe2 O31 C28 -105.6(17) . . . . ?
N2 Fe2 O31 C28 168.2(18) . . . . ?
O1C Fe3 O32 C28 32.8(19) . . . . ?
O6 Fe3 O32 C28 -66.2(19) . . . . ?
O9 Fe3 O32 C28 -156(3) . . . . ?
O25 Fe3 O32 C28 128.7(19) . . . . ?
N3 Fe3 O32 C28 -149.6(19) . . . . ?
O2C Fe4 O33 C38 -25.1(17) . . . . ?
O13 Fe4 O33 C38 71.7(17) . . . . ?
O22 Fe4 O33 C38 156(2) . . . . ?
O28 Fe4 O33 C38 -120.8(17) . . . . ?
N4 Fe4 O33 C38 155.1(17) . . . . ?
O2C Fe6 O34 C38 26(2) . . . . ?
O14 Fe6 O34 C38 -71.8(19) . . . . ?
O17 Fe6 O34 C38 -166(2) . . . . ?
O35 Fe6 O34 C38 119.5(19) . . . . ?
N6 Fe6 O34 C38 -153(2) . . . . ?
O2C Fe6 O35 C47 -22.8(15) . . . . ?
O14 Fe6 O35 C47 166(2) . . . . ?
O17 Fe6 O35 C47 75.0(15) . . . . ?
O34 Fe6 O35 C47 -116.9(15) . . . . ?
N6 Fe6 O35 C47 161.3(15) . . . . ?
O2C Fe5 O36 C47 22(3) . . . . ?
O18 Fe5 O36 C47 -76(3) . . . . ?
O21 Fe5 O36 C47 -166(2) . . . . ?
O27 Fe5 O36 C47 116(3) . . . . ?
N5 Fe5 O36 C47 -159(3) . . . . ?
C11 C1 C2 C3 -9(5) . . . . ?
C11 C1 C2 C17 177(3) . . . . ?
C1 C2 C3 C13 20(5) . . . . ?
C17 C2 C3 C13 -167(3) . . . . ?
C13 C4 C5 C14 29(9) . . . . ?
C14 C6 C7 C8 -14(4) . . . . ?
C14 C6 C7 C18 173(2) . . . . ?
C6 C7 C8 C16 11(4) . . . . ?
C18 C7 C8 C16 -176(3) . . . . ?
C16 C9 C10 C11 20(12) . . . . ?
C2 C1 C11 C12 2(6) . . . . ?
C2 C1 C11 C10 158(5) . . . . ?
C9 C10 C11 C1 172(6) . . . . ?
C9 C10 C11 C12 -30(9) . . . . ?
C1 C11 C12 C13 -3(5) . . . . ?
C10 C11 C12 C13 -164(4) . . . . ?
C1 C11 C12 C15 -178(3) . . . . ?
C10 C11 C12 C15 21(5) . . . . ?
C11 C12 C13 C4 -173(5) . . . . ?
C15 C12 C13 C4 2(6) . . . . ?
C11 C12 C13 C3 11(5) . . . . ?
C15 C12 C13 C3 -174(3) . . . . ?
C5 C4 C13 C12 -21(9) . . . . ?
C5 C4 C13 C3 155(6) . . . . ?
C2 C3 C13 C12 -21(6) . . . . ?
C2 C3 C13 C4 163(5) . . . . ?
C7 C6 C14 C15 8(4) . . . . ?
C7 C6 C14 C5 -180(3) . . . . ?
C4 C5 C14 C15 -20(6) . . . . ?
C4 C5 C14 C6 167(5) . . . . ?
C6 C14 C15 C16 2(5) . . . . ?
C5 C14 C15 C16 -171(3) . . . . ?
C6 C14 C15 C12 177(3) . . . . ?
C5 C14 C15 C12 5(4) . . . . ?
C13 C12 C15 C14 4(4) . . . . ?
C11 C12 C15 C14 179(3) . . . . ?
C13 C12 C15 C16 179(4) . . . . ?
C11 C12 C15 C16 -6(5) . . . . ?
C7 C8 C16 C15 0(5) . . . . ?
C7 C8 C16 C9 -174(4) . . . . ?
C14 C15 C16 C8 -6(5) . . . . ?
C12 C15 C16 C8 179(3) . . . . ?
C14 C15 C16 C9 169(4) . . . . ?
C12 C15 C16 C9 -6(5) . . . . ?
C10 C9 C16 C8 174(6) . . . . ?
C10 C9 C16 C15 -1(9) . . . . ?
Fe3 O25 C17 O26 12(4) . . . . ?
Fe3 O25 C17 C2 179.2(13) . . . . ?
Fe1 O26 C17 O25 -13(3) . . . . ?
Fe1 O26 C17 C2 179.9(12) . . . . ?
C3 C2 C17 O25 18(4) . . . . ?
C1 C2 C17 O25 -169(3) . . . . ?
C3 C2 C17 O26 -174(3) . . . . ?
C1 C2 C17 O26 -1(3) . . . . ?
Fe5 O27 C18 O28 0(3) . . . . ?
Fe5 O27 C18 C7 174.3(12) . . . . ?
Fe4 O28 C18 O27 1(3) . . . . ?
Fe4 O28 C18 C7 -173.5(11) . . . . ?
C6 C7 C18 O27 174(2) . . . . ?
C8 C7 C18 O27 1(3) . . . . ?
C6 C7 C18 O28 -11(3) . . . . ?
C8 C7 C18 O28 176(2) . . . . ?
Fe2 O30 C19 O29 -4(3) . . . . ?
Fe2 O30 C19 C20 178.9(12) . . . . ?
Fe1 O29 C19 O30 3(3) . . . . ?
Fe1 O29 C19 C20 -179.6(11) . . . . ?
O30 C19 C20 C21 177(2) . . . . ?
O29 C19 C20 C21 -1(3) . . . . ?
O30 C19 C20 C25 -3(3) . . . . ?
O29 C19 C20 C25 179.6(19) . . . . ?
C25 C20 C21 C22 4(4) . . . . ?
C19 C20 C21 C22 -176(2) . . . . ?
C20 C21 C22 C23 -2(4) . . . . ?
C20 C21 C22 C26 171(3) . . . . ?
C21 C22 C23 C24 -1(4) . . . . ?
C26 C22 C23 C24 -176(3) . . . . ?
C21 C22 C23 C23 177(2) . . . 2_655 ?
C26 C22 C23 C23 3(3) . . . 2_655 ?
C22 C23 C24 C25 3(4) . . . . ?
C23 C23 C24 C25 -175.2(18) 2_655 . . . ?
C22 C23 C24 C27 173(3) . . . 2_655 ?
C23 C23 C24 C27 -6(4) 2_655 . . 2_655 ?
C21 C20 C25 C24 -2(4) . . . . ?
C19 C20 C25 C24 178(2) . . . . ?
C23 C24 C25 C20 -2(4) . . . . ?
C27 C24 C25 C20 -171(3) 2_655 . . . ?
C21 C22 C26 C27 174(5) . . . . ?
C23 C22 C26 C27 -11(6) . . . . ?
C22 C26 C27 C24 12(8) . . . 2_655 ?
Fe3 O32 C28 O31 -7(3) . . . . ?
Fe3 O32 C28 C29 173.5(13) . . . . ?
Fe2 O31 C28 O32 -7(3) . . . . ?
Fe2 O31 C28 C29 172.4(12) . . . . ?
O32 C28 C29 C34 169(2) . . . . ?
O31 C28 C29 C34 -10(3) . . . . ?
O32 C28 C29 C30 -8(3) . . . . ?
O31 C28 C29 C30 172(2) . . . . ?
C34 C29 C30 C31 -4(4) . . . . ?
C28 C29 C30 C31 174(2) . . . . ?
C29 C30 C31 C32 8(4) . . . . ?
C29 C30 C31 C36 -180(3) . . . . ?
C30 C31 C32 C33 -6(4) . . . . ?
C36 C31 C32 C33 -178(3) . . . . ?
C30 C31 C32 C51 177(3) . . . 2_655 ?
C36 C31 C32 C51 5(4) . . . 2_655 ?
C31 C32 C33 C34 0(4) . . . . ?
C51 C32 C33 C34 177(2) 2_655 . . . ?
C31 C32 C33 C35 -176(3) . . . . ?
C51 C32 C33 C35 1(3) 2_655 . . . ?
C30 C29 C34 C33 -2(4) . . . . ?
C28 C29 C34 C33 -179.4(19) . . . . ?
C32 C33 C34 C29 4(4) . . . . ?
C35 C33 C34 C29 179(3) . . . . ?
C32 C33 C35 C54 -25(4) . . . 2_655 ?
C34 C33 C35 C54 159(3) . . . 2_655 ?
C30 C31 C36 C37 167(4) . . . . ?
C32 C31 C36 C37 -21(6) . . . . ?
C31 C36 C37 C52 26(7) . . . 2_655 ?
Fe6 O34 C38 O33 -9(3) . . . . ?
Fe6 O34 C38 C39 177.5(12) . . . . ?
Fe4 O33 C38 O34 8(3) . . . . ?
Fe4 O33 C38 C39 -178.1(11) . . . . ?
O34 C38 C39 C40 -11(3) . . . . ?
O33 C38 C39 C40 174(2) . . . . ?
O34 C38 C39 C44 171(2) . . . . ?
O33 C38 C39 C44 -3(3) . . . . ?
C44 C39 C40 C41 -7(4) . . . . ?
C38 C39 C40 C41 175(2) . . . . ?
C39 C40 C41 C42 3(5) . . . . ?
C39 C40 C41 C46 -176(4) . . . 2_655 ?
C40 C41 C42 C42 179(2) . . . 2_655 ?
C46 C41 C42 C42 -1(5) 2_655 . . 2_655 ?
C40 C41 C42 C43 4(5) . . . . ?
C46 C41 C42 C43 -176(4) 2_655 . . . ?
C41 C42 C43 C44 -7(4) . . . . ?
C42 C42 C43 C44 178(2) 2_655 . . . ?
C41 C42 C43 C45 179(4) . . . . ?
C42 C42 C43 C45 4(4) 2_655 . . . ?
C40 C39 C44 C43 4(4) . . . . ?
C38 C39 C44 C43 -178(2) . . . . ?
C42 C43 C44 C39 3(5) . . . . ?
C45 C43 C44 C39 177(4) . . . . ?
C42 C43 C45 C46 -21(6) . . . . ?
C44 C43 C45 C46 165(4) . . . . ?
C43 C45 C46 C41 29(8) . . . 2_655 ?
Fe5 O36 C47 O35 -1(5) . . . . ?
Fe5 O36 C47 C48 -179.1(11) . . . . ?
Fe6 O35 C47 O36 1(4) . . . . ?
Fe6 O35 C47 C48 179.9(10) . . . . ?
O36 C47 C48 C49 -6(4) . . . . ?
O35 C47 C48 C49 175(2) . . . . ?
O36 C47 C48 C53 173(3) . . . . ?
O35 C47 C48 C53 -6(3) . . . . ?
C53 C48 C49 C50 -3(4) . . . . ?
C47 C48 C49 C50 176(2) . . . . ?
C48 C49 C50 C51 -1(4) . . . . ?
C48 C49 C50 C54 176(2) . . . . ?
C49 C50 C51 C52 4(5) . . . . ?
C54 C50 C51 C52 -174(3) . . . . ?
C49 C50 C51 C32 -177(2) . . . 2_655 ?
C54 C50 C51 C32 5(4) . . . 2_655 ?
C50 C51 C52 C53 -2(5) . . . . ?
C32 C51 C52 C53 179(3) 2_655 . . . ?
C50 C51 C52 C37 -179(4) . . . 2_655 ?
C32 C51 C52 C37 2(5) 2_655 . . 2_655 ?
C51 C52 C53 C48 -1(5) . . . . ?
C37 C52 C53 C48 176(3) 2_655 . . . ?
C49 C48 C53 C52 4(4) . . . . ?
C47 C48 C53 C52 -175(2) . . . . ?
C49 C50 C54 C35 155(3) . . . 2_655 ?
C51 C50 C54 C35 -27(4) . . . 2_655 ?
O10 Fe1 N1 C55 139.9(8) . . . . ?
O1 Fe1 N1 C55 50.9(8) . . . . ?
O29 Fe1 N1 C55 -40.7(8) . . . . ?
O26 Fe1 N1 C55 -128.2(8) . . . . ?
O10 Fe1 N1 C59 -41.6(8) . . . . ?
O1 Fe1 N1 C59 -130.6(8) . . . . ?
O29 Fe1 N1 C59 137.8(8) . . . . ?
O26 Fe1 N1 C59 50.4(8) . . . . ?
C59 N1 C55 C56 0.0 . . . . ?
Fe1 N1 C55 C56 178.5(8) . . . . ?
N1 C55 C56 C57 0.0 . . . . ?
C55 C56 C57 C58 0.0 . . . . ?
C56 C57 C58 C59 0.0 . . . . ?
C57 C58 C59 N1 0.0 . . . . ?
C55 N1 C59 C58 0.0 . . . . ?
Fe1 N1 C59 C58 -178.5(9) . . . . ?
O5 Fe2 N2 C60 39.4(14) . . . . ?
O2 Fe2 N2 C60 128.9(14) . . . . ?
O30 Fe2 N2 C60 -140.9(14) . . . . ?
O31 Fe2 N2 C60 -54.8(14) . . . . ?
O5 Fe2 N2 C64 -140.4(17) . . . . ?
O2 Fe2 N2 C64 -50.9(17) . . . . ?
O30 Fe2 N2 C64 39.3(17) . . . . ?
O31 Fe2 N2 C64 125.4(17) . . . . ?
C64 N2 C60 C61 0.0 . . . . ?
Fe2 N2 C60 C61 -179.8(13) . . . . ?
N2 C60 C61 C62 0.0 . . . . ?
C60 C61 C62 C63 0.0 . . . . ?
C61 C62 C63 C64 0.0 . . . . ?
C62 C63 C64 N2 0.0 . . . . ?
C60 N2 C64 C63 0.0 . . . . ?
Fe2 N2 C64 C63 179.8(14) . . . . ?
O6 Fe3 N3 C65 136.0(9) . . . . ?
O9 Fe3 N3 C65 45.5(9) . . . . ?
O25 Fe3 N3 C65 -46.7(9) . . . . ?
O32 Fe3 N3 C65 -133.3(9) . . . . ?
O6 Fe3 N3 C69 -46.9(9) . . . . ?
O9 Fe3 N3 C69 -137.4(9) . . . . ?
O25 Fe3 N3 C69 130.4(9) . . . . ?
O32 Fe3 N3 C69 43.8(9) . . . . ?
C69 N3 C65 C66 0.0 . . . . ?
Fe3 N3 C65 C66 177.1(9) . . . . ?
N3 C65 C66 C67 0.0 . . . . ?
C65 C66 C67 C68 0.0 . . . . ?
C66 C67 C68 C69 0.0 . . . . ?
C67 C68 C69 N3 0.0 . . . . ?
C65 N3 C69 C68 0.0 . . . . ?
Fe3 N3 C69 C68 -177.1(9) . . . . ?
O13 Fe4 N4 C70 -131.3(8) . . . . ?
O22 Fe4 N4 C70 -41.4(8) . . . . ?
O28 Fe4 N4 C70 51.7(8) . . . . ?
O33 Fe4 N4 C70 138.4(8) . . . . ?
O13 Fe4 N4 C74 45.0(8) . . . . ?
O22 Fe4 N4 C74 135.0(8) . . . . ?
O28 Fe4 N4 C74 -131.9(8) . . . . ?
O33 Fe4 N4 C74 -45.2(8) . . . . ?
C74 N4 C70 C71 0.0 . . . . ?
Fe4 N4 C70 C71 176.3(8) . . . . ?
N4 C70 C71 C72 0.0 . . . . ?
C70 C71 C72 C73 0.0 . . . . ?
C71 C72 C73 C74 0.0 . . . . ?
C72 C73 C74 N4 0.0 . . . . ?
C70 N4 C74 C73 0.0 . . . . ?
Fe4 N4 C74 C73 -176.4(8) . . . . ?
O18 Fe5 N5 C75 -46.2(8) . . . . ?
O36 Fe5 N5 C75 48.2(9) . . . . ?
O21 Fe5 N5 C75 -133.6(8) . . . . ?
O27 Fe5 N5 C75 133.9(8) . . . . ?
O18 Fe5 N5 C79 129.4(9) . . . . ?
O36 Fe5 N5 C79 -136.2(10) . . . . ?
O21 Fe5 N5 C79 42.1(9) . . . . ?
O27 Fe5 N5 C79 -50.4(9) . . . . ?
C79 N5 C75 C76 0.0 . . . . ?
Fe5 N5 C75 C76 175.8(9) . . . . ?
N5 C75 C76 C77 0.0 . . . . ?
C75 C76 C77 C78 0.0 . . . . ?
C76 C77 C78 C79 0.0 . . . . ?
C77 C78 C79 N5 0.0 . . . . ?
C75 N5 C79 C78 0.0 . . . . ?
Fe5 N5 C79 C78 -175.6(9) . . . . ?
O14 Fe6 N6 C80 -47.1(10) . . . . ?
O17 Fe6 N6 C80 -137.4(10) . . . . ?
O34 Fe6 N6 C80 45.4(9) . . . . ?
O35 Fe6 N6 C80 132.1(10) . . . . ?
O14 Fe6 N6 C84 135.1(9) . . . . ?
O17 Fe6 N6 C84 44.8(8) . . . . ?
O34 Fe6 N6 C84 -132.4(9) . . . . ?
O35 Fe6 N6 C84 -45.8(8) . . . . ?
C84 N6 C80 C81 0.0 . . . . ?
Fe6 N6 C80 C81 -177.8(10) . . . . ?
N6 C80 C81 C82 0.0 . . . . ?
C80 C81 C82 C83 0.0 . . . . ?
C81 C82 C83 C84 0.0 . . . . ?
C82 C83 C84 N6 0.0 . . . . ?
C80 N6 C84 C83 0.0 . . . . ?
Fe6 N6 C84 C83 177.8(10) . . . . ?
C89 N7 C85 C86 0.0 . . . . ?
N7 C85 C86 C87 0.0 . . . . ?
C85 C86 C87 C88 0.00(8) . . . . ?
C86 C87 C88 C89 0.0 . . . . ?
C87 C88 C89 N7 0.0 . . . . ?
C85 N7 C89 C88 0.00(6) . . . . ?
C94 N8 C90 C91 0.0 . . . . ?
N8 C90 C91 C92 0.0 . . . . ?
C90 C91 C92 C93 0.0 . . . . ?
C91 C92 C93 C94 0.0 . . . . ?
C92 C93 C94 N8 0.0 . . . . ?
C90 N8 C94 C93 0.0 . . . . ?
C99 N9 C95 C96 0.0 . . . . ?
N9 C95 C96 C97 0.0 . . . . ?
C95 C96 C97 C98 0.0 . . . . ?
C96 C97 C98 C99 0.0 . . . . ?
C97 C98 C99 N9 0.0 . . . . ?
C95 N9 C99 C98 0.0 . . . . ?
C104 N10 C100 C101 0.0 . . . . ?
N10 C100 C101 C102 0.0 . . . . ?
C100 C101 C102 C103 0.0 . . . . ?
C101 C102 C103 C104 0.0 . . . . ?
C102 C103 C104 N10 0.0 . . . . ?
C100 N10 C104 C103 0.0 . . . . ?
C109 N11 C105 C106 0.0 . . . . ?
N11 C105 C106 C107 0.0 . . . . ?
C105 C106 C107 C108 0.0 . . . . ?
C106 C107 C108 C109 0.0 . . . . ?
C107 C108 C109 N11 0.0 . . . . ?
C105 N11 C109 C108 0.0 . . . . ?

_diffrn_measured_fraction_theta_max 0.993
_diffrn_reflns_theta_full        24.71
_diffrn_measured_fraction_theta_full 0.993
_refine_diff_density_max         1.469
_refine_diff_density_min         -0.779
_refine_diff_density_rms         0.187
####################################################################### 
# 
# This file contains crystal structure data downloaded from the 
# Cambridge Structural Database (CSD) hosted by the Cambridge 
# Crystallographic Data Centre (CCDC).
# 
# Full information about CCDC data access policies and citation 
# guidelines are available at http://www.ccdc.cam.ac.uk/access/V1 
# 
# Audit and citation data items may have been added by the CCDC. 
# Please retain this information to preserve the provenance of 
# this file and to allow appropriate attribution of the data. 
# 
#######################################################################

data_IRMOF-53
_audit_block_doi                 10.5517/cc95qhn
_database_code_depnum_ccdc_archive 'CCDC 273621'
loop_
_citation_id
_citation_doi
_citation_year
1 10.1021/ja042802q 2005
_audit_update_record             
;
2005-06-01 deposited with the CCDC.	2019-02-14 downloaded from the CCDC.
;

_audit_creation_method           SHELXL-97
_chemical_name_systematic        
;
?
;
_chemical_name_common            IRMOF-53
_chemical_melting_point          ?
_chemical_formula_moiety         'C188.50 H132 Fe12 N13.50 O104.50 S12'
_chemical_formula_sum            'C188.50 H132 Fe12 N13.50 O104.50 S12'
_chemical_formula_weight         5313.12

loop_
_atom_type_symbol
_atom_type_description
_atom_type_scat_dispersion_real
_atom_type_scat_dispersion_imag
_atom_type_scat_source
C C 0.0033 0.0016 'International Tables Vol C Tables 4.2.6.8 and 6.1.1.4'
Fe Fe 0.3463 0.8444 'International Tables Vol C Tables 4.2.6.8 and 6.1.1.4'
N N 0.0061 0.0033 'International Tables Vol C Tables 4.2.6.8 and 6.1.1.4'
O O 0.0106 0.0060 'International Tables Vol C Tables 4.2.6.8 and 6.1.1.4'
S S 0.1246 0.1234 'International Tables Vol C Tables 4.2.6.8 and 6.1.1.4'
H H 0.0000 0.0000 'International Tables Vol C Tables 4.2.6.8 and 6.1.1.4'

_symmetry_cell_setting           triclinic
_symmetry_space_group_name_H-M   P-1

loop_
_symmetry_equiv_pos_as_xyz
'x, y, z'
'-x, -y, -z'

_cell_length_a                   31.642(3)
_cell_length_b                   31.762(3)
_cell_length_c                   31.830(3)
_cell_angle_alpha                75.847(2)
_cell_angle_beta                 75.264(2)
_cell_angle_gamma                60.155(2)
_cell_volume                     26568(4)
_cell_formula_units_Z            2
_cell_measurement_temperature    293(2)
_cell_measurement_reflns_used    999
_cell_measurement_theta_min      3
_cell_measurement_theta_max      22

_exptl_crystal_description       plate
_exptl_crystal_colour            orange
_exptl_crystal_size_max          0.43
_exptl_crystal_size_mid          0.22
_exptl_crystal_size_min          0.09
_exptl_crystal_density_meas      ?
_exptl_crystal_density_diffrn    0.664
_exptl_crystal_density_method    'not measured'
_exptl_crystal_F_000             5394
_exptl_absorpt_coefficient_mu    0.408
_exptl_absorpt_correction_type   multi-scan
_exptl_absorpt_correction_T_min  0.898
_exptl_absorpt_correction_T_max  0.964
_exptl_absorpt_process_details   'Blessing, Acta Cryst. (1995) A51 33-58'
_exptl_special_details           
;
The only optimal crystals suitable for analysis were small and weakly
diffracting. Optimization of synthetic conditions could yield larger
crystals, however these specimens had only a very low degree of
crystallinity and presented little coherent scattering compared to
that of smaller crystals. Owing to these challenges observed strong
(high intensity) scattering was limited to 1.0 angstrom, with higher
resolution data present but weak (low intensity). Increasing the exposure
time of the crystal to X-rays did not ameliorate the quality of the data
as this woulThe only optimal crystals suitable for analysis were small
and weakly diffracting. Optimization of synthetic conditions could yield larger
crystals, however these specimens had only a very low degree of
crystallinity and presented little coherent scattering compared to
that of smaller crystals. Additionally, diffuse scattering from the highly
disordered solvent in the large void spaces within the crystal and from
the capillary used mount the crystal contributes to the background
noise and the 'washing out' of high angle data.

;

_diffrn_ambient_temperature      258(2)
_diffrn_radiation_wavelength     0.71073
_diffrn_radiation_type           MoK\a
_diffrn_radiation_source         'fine-focus sealed tube'
_diffrn_radiation_monochromator  graphite
_diffrn_measurement_device_type  ?
_diffrn_measurement_method       ?
_diffrn_detector_area_resol_mean ?
_diffrn_standards_number         ?
_diffrn_standards_interval_count ?
_diffrn_standards_interval_time  ?
_diffrn_standards_decay_%        ?
_diffrn_reflns_number            216921
_diffrn_reflns_av_R_equivalents  0.0963
_diffrn_reflns_av_sigmaI/netI    0.1532
_diffrn_reflns_limit_h_min       -37
_diffrn_reflns_limit_h_max       37
_diffrn_reflns_limit_k_min       -37
_diffrn_reflns_limit_k_max       37
_diffrn_reflns_limit_l_min       -37
_diffrn_reflns_limit_l_max       37
_diffrn_reflns_theta_min         0.67
_diffrn_reflns_theta_max         25.10
_reflns_number_total             94138
_reflns_number_gt                36441
_reflns_threshold_expression     >2sigma(I)

_computing_data_collection       ?
_computing_cell_refinement       ?
_computing_data_reduction        ?
_computing_structure_solution    'SHELXS-97 (Sheldrick, 1990)'
_computing_structure_refinement  'SHELXL-97 (Sheldrick, 1997)'
_computing_molecular_graphics    ?
_computing_publication_material  ?

_refine_special_details          
;
Refinement of F^2^ against ALL reflections. The weighted R-factor wR and
goodness of fit S are based on F^2^, conventional R-factors R are based
on F, with F set to zero for negative F^2^. The threshold expression of
F^2^ > 2sigma(F^2^) is used only for calculating R-factors(gt) etc. and is
not relevant to the choice of reflections for refinement. R-factors based
on F^2^ are statistically about twice as large as those based on F, and R-
factors based on ALL data will be even larger.

Due to the large void space in the structure, solvent in the structure
is highly disordered. Complete assignment of
scattering factors to all residual electron density was therfore not possible
Assigment of the largest peaks in the Fourier difference map to carbon
and nitrogen was made; these were refined anisotropically if possible.
All other electron density in the void space was treated as separated
oxygen atoms with large thermal parameters. Cations in the structure could
not be resolved as they are components of the highly disordered
portion of the structure.
;

_refine_ls_structure_factor_coef Fsqd
_refine_ls_matrix_type           full
_refine_ls_weighting_scheme      calc
_refine_ls_weighting_details     
'calc w=1/[\s^2^(Fo^2^)+(0.2000P)^2^+0.0000P] where P=(Fo^2^+2Fc^2^)/3'
_atom_sites_solution_primary     direct
_atom_sites_solution_secondary   difmap
_atom_sites_solution_hydrogens   geom
_refine_ls_hydrogen_treatment    constr
_refine_ls_extinction_method     none
_refine_ls_extinction_coef       ?
_refine_ls_number_reflns         94138
_refine_ls_number_parameters     2217
_refine_ls_number_restraints     0
_refine_ls_R_factor_all          0.2457
_refine_ls_R_factor_gt           0.1261
_refine_ls_wR_factor_ref         0.4162
_refine_ls_wR_factor_gt          0.3481
_refine_ls_goodness_of_fit_ref   1.133
_refine_ls_restrained_S_all      1.133
_refine_ls_shift/su_max          0.001
_refine_ls_shift/su_mean         0.000

loop_
_atom_site_label
_atom_site_type_symbol
_atom_site_fract_x
_atom_site_fract_y
_atom_site_fract_z
_atom_site_U_iso_or_equiv
_atom_site_adp_type
_atom_site_occupancy
_atom_site_symmetry_multiplicity
_atom_site_calc_flag
_atom_site_refinement_flags
_atom_site_disorder_assembly
_atom_site_disorder_group
Fe11_1 Fe 0.08327(4) 0.57748(4) 0.28714(4) 0.0487(3) Uani 1 1 d . . .
Fe12_1 Fe -0.01957(4) 0.68353(4) 0.28522(4) 0.0488(3) Uani 1 1 d . . .
Fe13_1 Fe 0.03407(4) 0.63548(4) 0.37454(4) 0.0491(3) Uani 1 1 d . . .
Fe21_1 Fe 0.08467(4) 1.29274(4) 0.28358(4) 0.0589(3) Uani 1 1 d . . .
Fe22_1 Fe 0.03545(4) 1.24455(4) 0.37412(4) 0.0539(3) Uani 1 1 d . . .
Fe23_1 Fe -0.02087(4) 1.29230(4) 0.28667(4) 0.0569(3) Uani 1 1 d . . .
Fe31_1 Fe 0.37667(5) 0.86328(4) -0.23578(4) 0.0699(4) Uani 1 1 d . . .
Fe32_1 Fe 0.37517(5) 0.96716(4) -0.23051(4) 0.0633(4) Uani 1 1 d . . .
Fe33_1 Fe 0.27082(5) 0.96634(4) -0.23101(4) 0.0608(3) Uani 1 1 d . . .
Fe41_1 Fe 0.64471(4) 0.63592(4) 0.36983(5) 0.0644(4) Uani 1 1 d . . .
Fe42_1 Fe 0.69520(4) 0.68454(4) 0.28069(5) 0.0615(4) Uani 1 1 d . . .
Fe43_1 Fe 0.69689(4) 0.57907(4) 0.28159(5) 0.0613(4) Uani 1 1 d . . .
S112_1 S -0.00320(8) 0.59528(8) 0.23967(9) 0.0636(6) Uani 1 1 d . . .
S113_1 S 0.08341(11) 0.51861(8) 0.38493(9) 0.0752(7) Uani 1 1 d . . .
S123_1 S -0.08417(8) 0.68986(9) 0.38076(8) 0.0691(7) Uani 1 1 d . . .
S212_1 S 0.08999(11) 1.30518(10) 0.37841(10) 0.0797(7) Uani 1 1 d . . .
S213_1 S -0.00413(10) 1.38589(8) 0.23953(9) 0.0746(7) Uani 1 1 d . . .
S223_1 S -0.08215(9) 1.30558(11) 0.38352(10) 0.0811(8) Uani 1 1 d . . .
S312_1 S 0.46333(14) 0.88915(12) -0.28967(12) 0.1090(11) Uani 1 1 d . . .
S313_1 S 0.29320(15) 0.88813(12) -0.29088(11) 0.1025(10) Uani 1 1 d . . .
S323_1 S 0.28918(10) 1.05843(9) -0.27853(10) 0.0797(8) Uani 1 1 d . . .
S412_1 S 0.70551(10) 0.68927(11) 0.37674(11) 0.0854(8) Uani 1 1 d . . .
S413_1 S 0.70458(10) 0.51911(9) 0.37797(11) 0.0862(8) Uani 1 1 d . . .
S423_1 S 0.79041(8) 0.59668(9) 0.23498(11) 0.0752(7) Uani 1 1 d . . .
O1_1 O 0.03181(17) 0.63185(16) 0.31574(16) 0.0446(12) Uani 1 1 d . . .
O2_1 O -0.07501(18) 0.6878(2) 0.33311(18) 0.0592(15) Uani 1 1 d . . .
O3_1 O -0.1192(2) 0.6719(3) 0.4019(2) 0.101(2) Uani 1 1 d . . .
O4_1 O -0.0997(3) 0.7401(3) 0.3874(3) 0.114(3) Uani 1 1 d . . .
O5_1 O -0.0366(2) 0.6560(2) 0.39782(18) 0.0656(16) Uani 1 1 d . . .
O6_1 O 0.0487(2) 0.56704(19) 0.39985(18) 0.0673(16) Uani 1 1 d . . .
O7_1 O 0.1313(3) 0.5032(3) 0.3951(3) 0.134(3) Uani 1 1 d . . .
O8_1 O 0.0654(3) 0.4844(3) 0.4049(2) 0.119(3) Uani 1 1 d . . .
O9_1 O 0.0871(2) 0.52439(18) 0.33673(19) 0.0637(16) Uani 1 1 d . . .
O10_1 O 0.04007(19) 0.56356(19) 0.26381(19) 0.0607(15) Uani 1 1 d . . .
O11_1 O 0.0137(3) 0.6044(3) 0.1944(2) 0.103(2) Uani 1 1 d . . .
O12_1 O -0.0340(2) 0.5711(2) 0.2482(3) 0.097(2) Uani 1 1 d . . .
O13_1 O -0.0336(2) 0.6422(2) 0.25892(19) 0.0643(15) Uani 1 1 d . . .
O14_1 O -0.0160(2) 0.73877(18) 0.3023(2) 0.0609(15) Uani 1 1 d . . .
O15_1 O 0.0222(2) 0.7054(2) 0.3615(2) 0.0659(16) Uani 1 1 d . . .
O16_1 O 0.1065(2) 0.6175(2) 0.3636(2) 0.0649(16) Uani 1 1 d . . .
O17_1 O 0.13884(19) 0.5819(2) 0.3032(2) 0.0677(16) Uani 1 1 d . . .
O18_1 O 0.0939(2) 0.6188(2) 0.22998(18) 0.0624(15) Uani 1 1 d . . .
O19_1 O 0.0261(2) 0.6912(2) 0.22939(19) 0.0656(16) Uani 1 1 d . . .
O20_1 O 0.03288(18) 1.27717(17) 0.31457(17) 0.0526(13) Uani 1 1 d . . .
O21_1 O 0.0910(2) 1.3190(2) 0.3307(2) 0.0687(16) Uani 1 1 d . . .
O22_1 O 0.0740(4) 1.3481(3) 0.3970(3) 0.125(3) Uani 1 1 d . . .
O23_1 O 0.1389(3) 1.2661(4) 0.3864(3) 0.135(3) Uani 1 1 d . . .
O24_1 O 0.0539(2) 1.2852(2) 0.39644(18) 0.0663(16) Uani 1 1 d . . .
O25_1 O -0.0337(2) 1.2854(2) 0.39841(18) 0.0687(16) Uani 1 1 d . . .
O26_1 O -0.0964(3) 1.2667(4) 0.3937(3) 0.137(3) Uani 1 1 d . . .
O27_1 O -0.1168(3) 1.3491(3) 0.4025(3) 0.137(4) Uani 1 1 d . . .
O28_1 O -0.0750(2) 1.3186(2) 0.3353(2) 0.0686(16) Uani 1 1 d . . .
O29_1 O -0.0347(2) 1.36062(19) 0.2609(2) 0.0721(17) Uani 1 1 d . . .
O30_1 O 0.0084(3) 1.3830(3) 0.1934(3) 0.112(3) Uani 1 1 d . . .
O31_1 O -0.0318(3) 1.4360(2) 0.2495(3) 0.102(2) Uani 1 1 d . . .
O32_1 O 0.0411(2) 1.36141(19) 0.2603(2) 0.0749(18) Uani 1 1 d . . .
O33_1 O 0.1401(2) 1.2254(2) 0.2990(2) 0.0752(18) Uani 1 1 d . . .
O34_1 O 0.1068(2) 1.1936(2) 0.3611(2) 0.0702(17) Uani 1 1 d . . .
O35_1 O 0.0195(2) 1.19346(19) 0.3638(2) 0.0714(17) Uani 1 1 d . . .
O36_1 O -0.0167(2) 1.2256(2) 0.3042(2) 0.0705(17) Uani 1 1 d . . .
O37_1 O 0.0215(3) 1.2676(2) 0.2299(2) 0.0756(18) Uani 1 1 d . . .
O38_1 O 0.0919(2) 1.2692(2) 0.2272(2) 0.0764(18) Uani 1 1 d . . .
O39_1 O 0.3412(2) 0.93249(18) -0.23352(17) 0.0588(14) Uani 1 1 d . . .
O40_1 O 0.4324(3) 0.8641(3) -0.2812(2) 0.098(2) Uani 1 1 d . . .
O41_1 O 0.4823(4) 0.8926(4) -0.3352(3) 0.169(5) Uani 1 1 d . . .
O42_1 O 0.5011(3) 0.8633(3) -0.2612(4) 0.158(4) Uani 1 1 d . . .
O43_1 O 0.4310(2) 0.9395(2) -0.2778(2) 0.086(2) Uani 1 1 d . . .
O44_1 O 0.3421(2) 1.0259(2) -0.2727(2) 0.0750(18) Uani 1 1 d . . .
O45_1 O 0.2654(3) 1.0898(2) -0.2444(3) 0.110(3) Uani 1 1 d . . .
O46_1 O 0.2882(3) 1.0832(3) -0.3226(3) 0.127(3) Uani 1 1 d . . .
O47_1 O 0.2663(2) 1.0255(2) -0.27238(19) 0.0723(17) Uani 1 1 d . . .
O48_1 O 0.2682(3) 0.9386(2) -0.2787(2) 0.0815(19) Uani 1 1 d . . .
O49_1 O 0.2666(4) 0.8624(3) -0.2635(4) 0.149(4) Uani 1 1 d . . .
O50_1 O 0.2947(4) 0.8923(3) -0.3374(3) 0.152(4) Uani 1 1 d . . .
O51_1 O 0.3450(3) 0.8637(2) -0.2818(2) 0.097(2) Uani 1 1 d . . .
O52_1 O 0.4152(3) 0.8466(2) -0.1880(2) 0.0822(19) Uani 1 1 d . . .
O53_1 O 0.4146(2) 0.9167(2) -0.1847(2) 0.0801(18) Uani 1 1 d . . .
O54_1 O 0.3278(3) 1.0020(2) -0.18021(19) 0.0678(16) Uani 1 1 d . . .
O55_1 O 0.2568(2) 1.0010(2) -0.18004(18) 0.0678(16) Uani 1 1 d . . .
O56_1 O 0.2583(2) 0.9154(2) -0.18539(19) 0.0732(17) Uani 1 1 d . . .
O57_1 O 0.3297(3) 0.8465(2) -0.1879(2) 0.0783(18) Uani 1 1 d . . .
O58_1 O 0.67965(17) 0.63251(17) 0.31104(19) 0.0571(14) Uani 1 1 d . . .
O59_1 O 0.76412(19) 0.6432(2) 0.2545(2) 0.0757(18) Uani 1 1 d . . .
O60_1 O 0.7872(3) 0.6068(3) 0.1888(3) 0.115(3) Uani 1 1 d . . .
O61_1 O 0.8410(2) 0.5719(3) 0.2454(3) 0.114(3) Uani 1 1 d . . .
O62_1 O 0.76557(19) 0.5655(2) 0.2583(2) 0.0747(18) Uani 1 1 d . . .
O63_1 O 0.7220(2) 0.5256(2) 0.3298(2) 0.0741(17) Uani 1 1 d . . .
O64_1 O 0.7469(3) 0.4826(3) 0.3991(3) 0.123(3) Uani 1 1 d . . .
O65_1 O 0.6654(3) 0.5055(3) 0.3854(3) 0.133(3) Uani 1 1 d . . .
O66_1 O 0.6846(2) 0.5669(2) 0.3942(2) 0.0745(17) Uani 1 1 d . . .
O67_1 O 0.6834(2) 0.6552(2) 0.3936(2) 0.0818(19) Uani 1 1 d . . .
O68_1 O 0.6689(3) 0.7388(3) 0.3836(3) 0.126(3) Uani 1 1 d . . .
O69_1 O 0.7472(3) 0.6727(3) 0.3977(3) 0.121(3) Uani 1 1 d . . .
O70_1 O 0.7224(2) 0.6882(2) 0.3285(2) 0.0739(17) Uani 1 1 d . . .
O71_1 O 0.6708(2) 0.6925(2) 0.2251(2) 0.0798(19) Uani 1 1 d . . .
O72_1 O 0.6740(2) 0.6207(2) 0.2254(2) 0.0761(18) Uani 1 1 d . . .
O73_1 O 0.6280(2) 0.5838(2) 0.2986(3) 0.082(2) Uani 1 1 d . . .
O74_1 O 0.5954(2) 0.6194(3) 0.3580(2) 0.0805(19) Uani 1 1 d . . .
O75_1 O 0.5934(2) 0.7066(2) 0.3577(2) 0.0821(19) Uani 1 1 d . . .
O76_1 O 0.6283(2) 0.7392(2) 0.2979(2) 0.0759(19) Uani 1 1 d . . .
C1A_1 C 0.1409(3) 0.5984(3) 0.3346(4) 0.064(2) Uani 1 1 d . . .
C2A_1 C 0.1904(3) 0.5931(4) 0.3353(3) 0.081(3) Uani 1 1 d . . .
C3A_1 C 0.19478(12) 0.61176(16) 0.36836(14) 0.117(5) Uani 1 1 d . . .
H12A_1 H 0.1681 0.6251 0.3902 0.141 Uiso 1 1 calc R . .
C4A_1 C 0.23935(12) 0.61036(16) 0.36849(14) 0.144(6) Uani 1 1 d R . .
H13A_1 H 0.2425 0.6230 0.3903 0.173 Uiso 1 1 d R . .
C5A_1 C 0.27926(12) 0.59009(16) 0.33597(14) 0.127(5) Uani 1 1 d R . .
C6A_1 C 0.27459(12) 0.57123(16) 0.30332(14) 0.144(6) Uani 1 1 d R . .
H15A_1 H 0.3013 0.5577 0.2816 0.172 Uiso 1 1 d R . .
C7A_1 C 0.23001(12) 0.57263(16) 0.30319(14) 0.123(5) Uani 1 1 d R . .
H16A_1 H 0.2269 0.5597 0.2816 0.148 Uiso 1 1 d R . .
C8A_1 C 0.32638(12) 0.59159(16) 0.33437(14) 0.154(6) Uani 1 1 d R . .
C9A_1 C 0.32682(12) 0.62246(16) 0.35841(14) 0.319(19) Uani 1 1 d R . .
H18A_1 H 0.2976 0.6434 0.3743 0.383 Uiso 1 1 d R . .
C10A_1 C 0.37086(12) 0.62204(16) 0.35876(14) 0.35(2) Uani 1 1 d R . .
H19A_1 H 0.3711 0.6427 0.3748 0.425 Uiso 1 1 d R . .
C11A_1 C 0.41447(12) 0.59077(16) 0.33507(14) 0.165(7) Uani 1 1 d R . .
C12A_1 C 0.41403(12) 0.55991(16) 0.31103(14) 0.215(10) Uani 1 1 d R . .
H21A_1 H 0.4432 0.5390 0.2952 0.258 Uiso 1 1 d R . .
C13A_1 C 0.36999(12) 0.56032(16) 0.31068(14) 0.264(14) Uani 1 1 d R . .
H22A_1 H 0.3697 0.5397 0.2946 0.317 Uiso 1 1 d R . .
C14A_1 C 0.46304(12) 0.59287(16) 0.33183(14) 0.160(7) Uani 1 1 d R . .
C15A_1 C 0.46642(12) 0.61350(16) 0.36386(14) 0.180(8) Uani 1 1 d R . .
H24A_1 H 0.4396 0.6265 0.3857 0.216 Uiso 1 1 d R . .
C16A_1 C 0.50987(12) 0.61473(16) 0.36325(14) 0.141(6) Uani 1 1 d R . .
H25A_1 H 0.5121 0.6285 0.3847 0.169 Uiso 1 1 d R . .
C17A_1 C 0.54995(12) 0.59533(16) 0.33061(14) 0.096(4) Uani 1 1 d R . .
C18A_1 C 0.54657(12) 0.57470(16) 0.29858(14) 0.125(5) Uani 1 1 d R . .
H27A_1 H 0.5734 0.5617 0.2767 0.150 Uiso 1 1 d R . .
C19A_1 C 0.50312(12) 0.57347(16) 0.29919(14) 0.163(7) Uani 1 1 d R . .
H28A_1 H 0.5009 0.5597 0.2778 0.195 Uiso 1 1 d R . .
C20A_1 C 0.5940(4) 0.5999(4) 0.3291(4) 0.076(3) Uani 1 1 d . . .
C21B_1 C 0.0014(3) 0.7403(3) 0.3329(3) 0.062(2) Uani 1 1 d . . .
C22B_1 C -0.0009(3) 0.7886(3) 0.3346(3) 0.067(2) Uani 1 1 d . . .
C23B_1 C -0.02533(14) 0.82935(10) 0.30596(12) 0.103(4) Uani 1 1 d . . .
H12B_1 H -0.0408 0.8274 0.2857 0.124 Uiso 1 1 calc R . .
C24B_1 C -0.02681(14) 0.87345(10) 0.30743(12) 0.130(5) Uani 1 1 d R . .
H13B_1 H -0.0435 0.9012 0.2883 0.156 Uiso 1 1 d R . .
C25B_1 C -0.00334(14) 0.87602(10) 0.33746(12) 0.098(4) Uani 1 1 d R . .
C26B_1 C 0.02161(14) 0.83449(10) 0.36603(12) 0.100(4) Uani 1 1 d R . .
H15B_1 H 0.0373 0.8362 0.3861 0.120 Uiso 1 1 d R . .
C27B_1 C 0.02308(14) 0.79039(10) 0.36456(12) 0.096(4) Uani 1 1 d R . .
H16B_1 H 0.0397 0.7625 0.3836 0.115 Uiso 1 1 d R . .
C28B_1 C -0.00516(14) 0.92402(10) 0.34000(12) 0.121(5) Uani 1 1 d R . .
C29B_1 C -0.03832(14) 0.96746(10) 0.31860(12) 0.217(11) Uani 1 1 d R . .
H18B_1 H -0.0604 0.9672 0.3043 0.261 Uiso 1 1 d R . .
C30B_1 C -0.03850(14) 1.01132(10) 0.31858(12) 0.237(13) Uani 1 1 d R . .
H19B_1 H -0.0607 1.0404 0.3043 0.284 Uiso 1 1 d R . .
C31B_1 C -0.00550(14) 1.01172(10) 0.33995(12) 0.124(5) Uani 1 1 d R . .
C32B_1 C 0.02767(14) 0.96828(10) 0.36135(12) 0.306(18) Uani 1 1 d R . .
H21B_1 H 0.0497 0.9685 0.3756 0.367 Uiso 1 1 d R . .
C33B_1 C 0.02784(14) 0.92442(10) 0.36137(12) 0.294(17) Uani 1 1 d R . .
H22B_1 H 0.0500 0.8954 0.3757 0.353 Uiso 1 1 d R . .
C34B_1 C -0.00555(14) 1.05911(10) 0.34082(12) 0.114(4) Uani 1 1 d R . .
C35B_1 C -0.02689(14) 1.09892(10) 0.30936(12) 0.144(6) Uani 1 1 d R . .
H24B_1 H -0.0420 1.0965 0.2892 0.173 Uiso 1 1 d R . .
C36B_1 C -0.02564(14) 1.14234(10) 0.30807(12) 0.125(5) Uani 1 1 d R . .
H25B_1 H -0.0399 1.1690 0.2870 0.150 Uiso 1 1 d R . .
C37B_1 C -0.00304(14) 1.14597(10) 0.33824(12) 0.083(3) Uani 1 1 d R . .
C38B_1 C 0.01830(14) 1.10617(10) 0.36970(12) 0.119(5) Uani 1 1 d R . .
H27B_1 H 0.0334 1.1086 0.3899 0.142 Uiso 1 1 d R . .
C39B_1 C 0.01704(14) 1.06274(10) 0.37099(12) 0.152(7) Uani 1 1 d R . .
H28B_1 H 0.0313 1.0361 0.3920 0.182 Uiso 1 1 d R . .
C40B_1 C -0.0005(4) 1.1928(3) 0.3350(4) 0.070(3) Uani 1 1 d . . .
C41C_1 C 0.0683(3) 0.6621(3) 0.2129(3) 0.057(2) Uani 1 1 d . . .
C42C_1 C 0.0901(4) 0.6799(4) 0.1700(3) 0.074(3) Uani 1 1 d . . .
C43C_1 C 0.13786(13) 0.65111(12) 0.15136(11) 0.111(4) Uani 1 1 d . . .
H12C_1 H 0.1561 0.6196 0.1650 0.133 Uiso 1 1 calc R . .
C44C_1 C 0.15866(13) 0.66932(12) 0.11217(11) 0.130(5) Uani 1 1 d R . .
H13C_1 H 0.1911 0.6502 0.0999 0.156 Uiso 1 1 d R . .
C45C_1 C 0.13105(13) 0.71610(12) 0.09133(11) 0.101(4) Uani 1 1 d R . .
C46C_1 C 0.08263(13) 0.74468(12) 0.10968(11) 0.130(5) Uani 1 1 d R . .
H15C_1 H 0.0641 0.7760 0.0957 0.156 Uiso 1 1 d R . .
C47C_1 C 0.06182(13) 0.72647(12) 0.14886(11) 0.110(4) Uani 1 1 d R . .
H16C_1 H 0.0293 0.7455 0.1609 0.133 Uiso 1 1 d R . .
C48C_1 C 0.15471(13) 0.73656(12) 0.04969(11) 0.120(5) Uani 1 1 d R . .
C49C_1 C 0.20518(13) 0.71285(12) 0.03496(11) 0.224(12) Uani 1 1 d R . .
H18C_1 H 0.2253 0.6835 0.0506 0.269 Uiso 1 1 d R . .
C50C_1 C 0.22564(13) 0.73302(12) -0.00311(11) 0.223(12) Uani 1 1 d R . .
H19C_1 H 0.2594 0.7172 -0.0130 0.268 Uiso 1 1 d R . .
C51C_1 C 0.19562(13) 0.77691(12) -0.02645(11) 0.126(5) Uani 1 1 d R . .
C52C_1 C 0.14515(13) 0.80063(12) -0.01172(11) 0.262(15) Uani 1 1 d R . .
H21C_1 H 0.1251 0.8300 -0.0273 0.314 Uiso 1 1 d R . .
C53C_1 C 0.12470(13) 0.78046(12) 0.02636(11) 0.222(12) Uani 1 1 d R . .
H22C_1 H 0.0909 0.7963 0.0362 0.266 Uiso 1 1 d R . .
C54C_1 C 0.21901(13) 0.80109(12) -0.06534(11) 0.109(4) Uani 1 1 d R . .
C55C_1 C 0.26871(13) 0.77587(12) -0.08231(11) 0.148(6) Uani 1 1 d R . .
H24C_1 H 0.2878 0.7439 -0.0700 0.178 Uiso 1 1 d R . .
C56C_1 C 0.28991(13) 0.79843(12) -0.11770(11) 0.118(5) Uani 1 1 d R . .
H25C_1 H 0.3232 0.7816 -0.1291 0.142 Uiso 1 1 d R . .
C57C_1 C 0.26142(13) 0.84622(12) -0.13612(11) 0.084(3) Uani 1 1 d R . .
C58C_1 C 0.21172(13) 0.87144(12) -0.11916(11) 0.132(5) Uani 1 1 d R . .
H27C_1 H 0.1927 0.9034 -0.1315 0.158 Uiso 1 1 d R . .
C59C_1 C 0.19052(13) 0.84887(12) -0.08376(11) 0.138(6) Uani 1 1 d R . .
H28C_1 H 0.1573 0.8657 -0.0724 0.165 Uiso 1 1 d R . .
C60C_1 C 0.2845(5) 0.8714(4) -0.1732(3) 0.071(3) Uani 1 1 d . . .
C61D_1 C 0.4272(4) 0.8712(4) -0.1729(3) 0.079(3) Uani 1 1 d . . .
C62D_1 C 0.4578(4) 0.8475(4) -0.1361(3) 0.088(3) Uani 1 1 d . . .
C63D_1 C 0.46817(14) 0.79949(14) -0.11782(13) 0.118(5) Uani 1 1 d . . .
H12D_1 H 0.4574 0.7825 -0.1288 0.141 Uiso 1 1 calc R . .
C64D_1 C 0.49485(14) 0.77710(14) -0.08311(13) 0.134(5) Uani 1 1 d R . .
H13D_1 H 0.5021 0.7450 -0.0708 0.161 Uiso 1 1 d R . .
C65D_1 C 0.51066(14) 0.80275(14) -0.06674(13) 0.115(4) Uani 1 1 d R . .
C66D_1 C 0.49980(14) 0.85080(14) -0.08508(13) 0.155(7) Uani 1 1 d R . .
H15D_1 H 0.5104 0.8680 -0.0741 0.186 Uiso 1 1 d R . .
C67D_1 C 0.47312(14) 0.87319(14) -0.11979(13) 0.125(5) Uani 1 1 d R . .
H16D_1 H 0.4650 0.9056 -0.1316 0.150 Uiso 1 1 d R . .
C68D_1 C 0.53792(14) 0.77963(14) -0.02714(13) 0.139(5) Uani 1 1 d R . .
C69D_1 C 0.54032(14) 0.73584(14) -0.00302(13) 0.228(12) Uani 1 1 d R . .
H18D_1 H 0.5262 0.7202 -0.0114 0.274 Uiso 1 1 d R . .
C70D_1 C 0.56390(14) 0.71536(14) 0.03367(13) 0.250(14) Uani 1 1 d R . .
H19D_1 H 0.5655 0.6861 0.0498 0.301 Uiso 1 1 d R . .
C71D_1 C 0.58507(14) 0.73867(14) 0.04624(13) 0.130(5) Uani 1 1 d R . .
C72D_1 C 0.58267(14) 0.78246(14) 0.02212(13) 0.286(17) Uani 1 1 d R . .
H21D_1 H 0.5968 0.7981 0.0305 0.343 Uiso 1 1 d R . .
C73D_1 C 0.55909(14) 0.80294(14) -0.01457(13) 0.298(18) Uani 1 1 d R . .
H22D_1 H 0.5575 0.8322 -0.0307 0.357 Uiso 1 1 d R . .
C74D_1 C 0.60844(14) 0.71831(14) 0.08707(13) 0.121(5) Uani 1 1 d R . .
C75D_1 C 0.61789(14) 0.67122(14) 0.10772(13) 0.144(6) Uani 1 1 d R . .
H24D_1 H 0.6110 0.6519 0.0956 0.172 Uiso 1 1 d R . .
C76D_1 C 0.63765(14) 0.65300(14) 0.14648(13) 0.138(6) Uani 1 1 d R . .
H25D_1 H 0.6440 0.6215 0.1603 0.166 Uiso 1 1 d R . .
C77D_1 C 0.64798(14) 0.68185(14) 0.16461(13) 0.092(3) Uani 1 1 d R . .
C78D_1 C 0.63853(14) 0.72894(14) 0.14397(13) 0.126(5) Uani 1 1 d R . .
H27D_1 H 0.6454 0.7482 0.1561 0.151 Uiso 1 1 d R . .
C79D_1 C 0.61876(14) 0.74717(14) 0.10520(13) 0.146(6) Uani 1 1 d R . .
H28D_1 H 0.6124 0.7787 0.0914 0.176 Uiso 1 1 d R . .
C80D_1 C 0.6654(3) 0.6639(4) 0.2091(3) 0.073(3) Uani 1 1 d . . .
C81E_1 C 0.5951(4) 0.7410(3) 0.3274(5) 0.082(3) Uani 1 1 d . . .
C82E_1 C 0.5473(4) 0.7895(4) 0.3305(4) 0.097(4) Uani 1 1 d . . .
C83E_1 C 0.50719(12) 0.79303(11) 0.36369(14) 0.122(5) Uani 1 1 d . . .
H12E_1 H 0.5094 0.7660 0.3845 0.146 Uiso 1 1 calc R . .
C84E_1 C 0.46413(12) 0.83738(11) 0.36506(14) 0.152(6) Uani 1 1 d R . .
H13E_1 H 0.4374 0.8402 0.3869 0.182 Uiso 1 1 d R . .
C85E_1 C 0.46106(12) 0.87750(11) 0.33374(14) 0.136(6) Uani 1 1 d R . .
C86E_1 C 0.50105(12) 0.87328(11) 0.30104(14) 0.163(7) Uani 1 1 d R . .
H15E_1 H 0.4990 0.9001 0.2801 0.196 Uiso 1 1 d R . .
C87E_1 C 0.54412(12) 0.82893(11) 0.29966(14) 0.128(5) Uani 1 1 d R . .
H16E_1 H 0.5709 0.8260 0.2778 0.154 Uiso 1 1 d R . .
C88E_1 C 0.41358(12) 0.92556(11) 0.33419(14) 0.138(6) Uani 1 1 d R . .
C89E_1 C 0.37035(12) 0.92660(11) 0.35960(14) 0.283(16) Uani 1 1 d R . .
H18E_1 H 0.3708 0.8982 0.3768 0.340 Uiso 1 1 d R . .
C90E_1 C 0.32639(12) 0.97012(11) 0.35923(14) 0.304(18) Uani 1 1 d R . .
H19E_1 H 0.2975 0.9708 0.3762 0.364 Uiso 1 1 d R . .
C91E_1 C 0.32567(12) 1.01261(11) 0.33344(14) 0.136(5) Uani 1 1 d R . .
C92E_1 C 0.36891(12) 1.01157(11) 0.30803(14) 0.283(16) Uani 1 1 d R . .
H21E_1 H 0.3684 1.0400 0.2908 0.340 Uiso 1 1 d R . .
C93E_1 C 0.41286(12) 0.96805(11) 0.30840(14) 0.251(13) Uani 1 1 d R . .
H22E_1 H 0.4418 0.9674 0.2914 0.302 Uiso 1 1 d R . .
C94E_1 C 0.27790(12) 1.06064(11) 0.33453(14) 0.128(5) Uani 1 1 d R . .
C95E_1 C 0.23718(12) 1.06447(11) 0.36616(14) 0.156(7) Uani 1 1 d R . .
H24E_1 H 0.2397 1.0383 0.3881 0.187 Uiso 1 1 d R . .
C96E_1 C 0.19277(12) 1.10745(11) 0.36499(14) 0.117(4) Uani 1 1 d R . .
H25E_1 H 0.1655 1.1100 0.3862 0.140 Uiso 1 1 d R . .
C97E_1 C 0.18907(12) 1.14659(11) 0.33219(14) 0.083(3) Uani 1 1 d R . .
C98E_1 C 0.22978(12) 1.14276(11) 0.30056(14) 0.132(5) Uani 1 1 d R . .
H27E_1 H 0.2273 1.1690 0.2786 0.158 Uiso 1 1 d R . .
C99E_1 C 0.27420(12) 1.09978(11) 0.30173(14) 0.154(7) Uani 1 1 d R . .
H28E_1 H 0.3014 1.0972 0.2806 0.184 Uiso 1 1 d R . .
C100_1 C 0.1409(4) 1.1925(3) 0.3317(4) 0.073(3) Uani 1 1 d . . .
C101_1 C 0.2825(5) 1.0137(3) -0.1666(3) 0.073(3) Uani 1 1 d . . .
C102_1 C 0.2568(4) 1.0470(3) -0.1315(3) 0.076(3) Uani 1 1 d . . .
C103_1 C 0.28317(14) 1.06107(12) -0.11512(11) 0.097(4) Uani 1 1 d . . .
H12F_1 H 0.3162 1.0517 -0.1267 0.117 Uiso 1 1 calc R . .
C104_1 C 0.26051(14) 1.08936(12) -0.08112(11) 0.111(4) Uani 1 1 d R . .
H13F_1 H 0.2784 1.0988 -0.0698 0.133 Uiso 1 1 d R . .
C105_1 C 0.21107(14) 1.10358(12) -0.06399(11) 0.104(4) Uani 1 1 d R . .
C106_1 C 0.18429(14) 1.08950(12) -0.08085(11) 0.116(4) Uani 1 1 d R . .
H15F_1 H 0.1512 1.0990 -0.0694 0.139 Uiso 1 1 d R . .
C107_1 C 0.20694(14) 1.06120(12) -0.11484(11) 0.101(4) Uani 1 1 d R . .
H16F_1 H 0.1892 1.0519 -0.1265 0.122 Uiso 1 1 d R . .
C108_1 C 0.18553(14) 1.13385(12) -0.02603(11) 0.122(5) Uani 1 1 d R . .
C109_1 C 0.21292(14) 1.14711(12) -0.00907(11) 0.304(18) Uani 1 1 d R . .
H18F_1 H 0.2446 1.1411 -0.0230 0.364 Uiso 1 1 d R . .
C110_1 C 0.19288(14) 1.16938(12) 0.02873(11) 0.33(2) Uani 1 1 d R . .
H19F_1 H 0.2112 1.1783 0.0401 0.397 Uiso 1 1 d R . .
C111_1 C 0.14546(14) 1.17840(12) 0.04957(11) 0.132(5) Uani 1 1 d R . .
C112_1 C 0.11808(14) 1.16515(12) 0.03260(11) 0.280(16) Uani 1 1 d R . .
H21F_1 H 0.0864 1.1712 0.0465 0.336 Uiso 1 1 d R . .
C113_1 C 0.13811(14) 1.14287(12) -0.00520(11) 0.33(2) Uani 1 1 d R . .
H22F_1 H 0.1198 1.1340 -0.0165 0.400 Uiso 1 1 d R . .
C114_1 C 0.12285(14) 1.20159(12) 0.09154(11) 0.112(4) Uani 1 1 d R . .
C115_1 C 0.15094(14) 1.21284(12) 0.10974(11) 0.126(5) Uani 1 1 d R . .
H24F_1 H 0.1828 1.2066 0.0960 0.151 Uiso 1 1 d R . .
C116_1 C 0.13145(14) 1.23338(12) 0.14847(11) 0.114(4) Uani 1 1 d R . .
H25F_1 H 0.1502 1.2409 0.1607 0.136 Uiso 1 1 d R . .
C117_1 C 0.08387(14) 1.24268(12) 0.16900(11) 0.088(3) Uani 1 1 d R . .
C118_1 C 0.05578(14) 1.23144(12) 0.15080(11) 0.119(5) Uani 1 1 d R . .
H27F_1 H 0.0239 1.2377 0.1645 0.143 Uiso 1 1 d R . .
C119_1 C 0.07527(14) 1.21089(12) 0.11207(11) 0.132(5) Uani 1 1 d R . .
H28F_1 H 0.0565 1.2034 0.0999 0.158 Uiso 1 1 d R . .
C120_1 C 0.0635(5) 1.2618(3) 0.2118(3) 0.071(3) Uani 1 1 d . . .
N1_1 N 0.1450(2) 0.5171(2) 0.2520(3) 0.068(2) Uani 1 1 d . . .
C121_1 C 0.18450(6) 0.48343(5) 0.27311(5) 0.086(3) Uani 1 1 d . . .
H111_1 H 0.1851 0.4858 0.3015 0.103 Uiso 1 1 calc R . .
C122_1 C 0.22341(6) 0.44581(5) 0.25129(5) 0.134(5) Uani 1 1 d R . .
H112_1 H 0.2503 0.4228 0.2650 0.161 Uiso 1 1 d R . .
C123_1 C 0.22208(6) 0.44260(5) 0.20891(5) 0.149(6) Uani 1 1 d R . .
H113_1 H 0.2481 0.4174 0.1943 0.178 Uiso 1 1 d R . .
C124_1 C 0.18186(6) 0.47700(5) 0.18835(5) 0.138(5) Uani 1 1 d R . .
H114_1 H 0.1810 0.4749 0.1600 0.166 Uiso 1 1 d R . .
C125_1 C 0.14296(6) 0.51461(5) 0.21016(5) 0.087(3) Uani 1 1 d R . .
H115_1 H 0.1160 0.5378 0.1965 0.105 Uiso 1 1 d R . .
N2_1 N -0.07762(6) 0.74483(5) 0.25002(5) 0.065(2) Uani 1 1 d R . .
C126_1 C -0.07725(6) 0.74576(5) 0.20605(5) 0.082(3) Uani 1 1 d R . .
H121_1 H -0.0519 0.7206 0.1910 0.099 Uiso 1 1 d R . .
C127_1 C -0.11469(6) 0.78435(5) 0.18453(5) 0.106(4) Uani 1 1 d R . .
H122_1 H -0.1144 0.7850 0.1551 0.127 Uiso 1 1 d R . .
C128_1 C -0.15251(6) 0.82202(5) 0.20699(5) 0.116(5) Uani 1 1 d R . .
H123_1 H -0.1776 0.8478 0.1926 0.140 Uiso 1 1 d R . .
C129_1 C -0.15288(6) 0.82108(5) 0.25097(5) 0.101(4) Uani 1 1 d R . .
H124_1 H -0.1782 0.8463 0.2660 0.121 Uiso 1 1 d R . .
C130_1 C -0.11543(6) 0.78249(5) 0.27248(5) 0.079(3) Uani 1 1 d R . .
H125_1 H -0.1157 0.7819 0.3019 0.094 Uiso 1 1 d R . .
N3_1 N 0.03774(6) 0.64312(5) 0.43944(5) 0.0652(19) Uani 1 1 d R . .
C131_1 C 0.00153(6) 0.68409(5) 0.45872(5) 0.081(3) Uani 1 1 d R . .
H131_1 H -0.0245 0.7078 0.4441 0.097 Uiso 1 1 d R . .
C132_1 C 0.00418(6) 0.68971(5) 0.49979(5) 0.108(4) Uani 1 1 d R . .
H132_1 H -0.0200 0.7171 0.5127 0.130 Uiso 1 1 d R . .
C133_1 C 0.04303(6) 0.65435(5) 0.52157(5) 0.125(5) Uani 1 1 d R . .
H133_1 H 0.0448 0.6581 0.5490 0.150 Uiso 1 1 d R . .
C134_1 C 0.07924(6) 0.61338(5) 0.50229(5) 0.130(5) Uani 1 1 d R . .
H134_1 H 0.1052 0.5897 0.5169 0.157 Uiso 1 1 d R . .
C135_1 C 0.07659(6) 0.60776(5) 0.46122(5) 0.092(3) Uani 1 1 d R . .
H135_1 H 0.1008 0.5803 0.4483 0.110 Uiso 1 1 d R . .
N4_1 N 0.14519(6) 1.30820(5) 0.24691(5) 0.085(2) Uani 1 1 d R . .
C136_1 C 0.14211(6) 1.33368(5) 0.20462(5) 0.110(4) Uani 1 1 d R . .
H211_1 H 0.1147 1.3435 0.1918 0.132 Uiso 1 1 d R . .
C137_1 C 0.18000(6) 1.34445(5) 0.18150(5) 0.158(7) Uani 1 1 d R . .
H212_1 H 0.1779 1.3615 0.1532 0.190 Uiso 1 1 d R . .
C138_1 C 0.22097(6) 1.32973(5) 0.20067(5) 0.173(8) Uani 1 1 d R . .
H213_1 H 0.2463 1.3369 0.1852 0.207 Uiso 1 1 d R . .
C139_1 C 0.22406(6) 1.30425(5) 0.24296(5) 0.152(6) Uani 1 1 d R . .
H214_1 H 0.2515 1.2944 0.2558 0.182 Uiso 1 1 d R . .
C140_1 C 0.18617(6) 1.29349(5) 0.26608(5) 0.108(4) Uani 1 1 d R . .
H215_1 H 0.1882 1.2764 0.2944 0.130 Uiso 1 1 d R . .
N5_1 N 0.04185(6) 1.20384(5) 0.43981(5) 0.070(2) Uani 1 1 d R . .
C141_1 C 0.08322(6) 1.18925(5) 0.45836(5) 0.094(3) Uani 1 1 d R . .
H221_1 H 0.1083 1.1966 0.4425 0.113 Uiso 1 1 d R . .
C142_1 C 0.08702(6) 1.16362(5) 0.50057(5) 0.142(6) Uani 1 1 d R . .
H222_1 H 0.1147 1.1539 0.5130 0.171 Uiso 1 1 d R . .
C143_1 C 0.04947(6) 1.15259(5) 0.52423(5) 0.172(7) Uani 1 1 d R . .
H223_1 H 0.0520 1.1354 0.5525 0.206 Uiso 1 1 d R . .
C144_1 C 0.00811(6) 1.16718(5) 0.50568(5) 0.160(7) Uani 1 1 d R . .
H224_1 H -0.0170 1.1598 0.5215 0.192 Uiso 1 1 d R . .
C145_1 C 0.00430(6) 1.19280(5) 0.46346(5) 0.107(4) Uani 1 1 d R . .
H225_1 H -0.0234 1.2026 0.4511 0.128 Uiso 1 1 d R . .
N6_1 N -0.08035(6) 1.30607(5) 0.25338(5) 0.080(2) Uani 1 1 d R . .
C146_1 C -0.11536(6) 1.29062(5) 0.27512(5) 0.100(4) Uani 1 1 d R . .
H231_1 H -0.1138 1.2748 0.3039 0.120 Uiso 1 1 d R . .
C147_1 C -0.15268(6) 1.29881(5) 0.25392(5) 0.145(6) Uani 1 1 d R . .
H232_1 H -0.1761 1.2885 0.2685 0.174 Uiso 1 1 d R . .
C148_1 C -0.15499(6) 1.32244(5) 0.21097(5) 0.163(8) Uani 1 1 d R . .
H233_1 H -0.1800 1.3279 0.1968 0.196 Uiso 1 1 d R . .
C149_1 C -0.11998(6) 1.33789(5) 0.18923(5) 0.156(7) Uani 1 1 d R . .
H234_1 H -0.1215 1.3537 0.1605 0.187 Uiso 1 1 d R . .
C150_1 C -0.08266(6) 1.32971(5) 0.21043(5) 0.105(4) Uani 1 1 d R . .
H235_1 H -0.0592 1.3400 0.1959 0.127 Uiso 1 1 d R . .
N7_1 N 0.41612(6) 0.78406(5) -0.23536(5) 0.114(3) Uani 1 1 d R . .
C151_1 C 0.39099(6) 0.75884(5) -0.23630(5) 0.161(7) Uani 1 1 d R . .
H311_1 H 0.3571 0.7756 -0.2363 0.194 Uiso 1 1 d R . .
C152_1 C 0.41652(6) 0.70855(5) -0.23728(5) 0.325(19) Uani 1 1 d R . .
H312_1 H 0.3997 0.6917 -0.2379 0.390 Uiso 1 1 d R . .
C153_1 C 0.46718(6) 0.68348(5) -0.23733(5) 0.251(13) Uani 1 1 d R . .
H313_1 H 0.4843 0.6498 -0.2380 0.301 Uiso 1 1 d R . .
C154_1 C 0.49230(6) 0.70870(5) -0.23639(5) 0.320(18) Uani 1 1 d R . .
H314_1 H 0.5262 0.6919 -0.2364 0.384 Uiso 1 1 d R . .
C155_1 C 0.46677(6) 0.75899(5) -0.23541(5) 0.178(7) Uani 1 1 d R . .
H315_1 H 0.4836 0.7759 -0.2348 0.214 Uiso 1 1 d R . .
N8_1 N 0.41353(6) 1.00571(5) -0.22321(5) 0.086(2) Uani 1 1 d R . .
C156_1 C 0.46400(6) 0.98076(5) -0.22227(5) 0.115(4) Uani 1 1 d R . .
H321_1 H 0.4820 0.9479 -0.2263 0.138 Uiso 1 1 d R . .
C157_1 C 0.48762(6) 1.00487(5) -0.21528(5) 0.162(7) Uani 1 1 d R . .
H322_1 H 0.5214 0.9882 -0.2146 0.195 Uiso 1 1 d R . .
C158_1 C 0.46078(6) 1.05392(5) -0.20923(5) 0.158(7) Uani 1 1 d R . .
H323_1 H 0.4766 1.0700 -0.2046 0.189 Uiso 1 1 d R . .
C159_1 C 0.41032(6) 1.07887(5) -0.21018(5) 0.139(5) Uani 1 1 d R . .
H324_1 H 0.3924 1.1117 -0.2061 0.167 Uiso 1 1 d R . .
C160_1 C 0.38669(6) 1.05476(5) -0.21717(5) 0.106(4) Uani 1 1 d R . .
H325_1 H 0.3529 1.0714 -0.2178 0.127 Uiso 1 1 d R . .
N9_1 N 0.18971(6) 1.00380(5) -0.22460(5) 0.083(2) Uani 1 1 d R . .
C161_1 C 0.16365(6) 1.05277(5) -0.21827(5) 0.099(3) Uani 1 1 d R . .
H331_1 H 0.1805 1.0696 -0.2178 0.119 Uiso 1 1 d R . .
C162_1 C 0.11240(6) 1.07651(5) -0.21264(5) 0.140(5) Uani 1 1 d R . .
H332_1 H 0.0950 1.1093 -0.2084 0.168 Uiso 1 1 d R . .
C163_1 C 0.08720(6) 1.05128(5) -0.21334(5) 0.152(6) Uani 1 1 d R . .
H333_1 H 0.0529 1.0672 -0.2096 0.183 Uiso 1 1 d R . .
C164_1 C 0.11326(6) 1.00231(5) -0.21968(5) 0.144(6) Uani 1 1 d R . .
H334_1 H 0.0964 0.9854 -0.2201 0.173 Uiso 1 1 d R . .
C165_1 C 0.16452(6) 0.97857(5) -0.22530(5) 0.108(4) Uani 1 1 d R . .
H335_1 H 0.1820 0.9458 -0.2295 0.130 Uiso 1 1 d R . .
N10_1 N 0.60104(6) 0.64014(5) 0.43661(5) 0.095(3) Uani 1 1 d R . .
C166_1 C 0.58736(6) 0.60368(5) 0.45662(5) 0.141(5) Uani 1 1 d R . .
H411_1 H 0.5981 0.5767 0.4427 0.169 Uiso 1 1 d R . .
C167_1 C 0.55760(6) 0.60753(5) 0.49747(5) 0.227(11) Uani 1 1 d R . .
H412_1 H 0.5484 0.5831 0.5109 0.272 Uiso 1 1 d R . .
C168_1 C 0.54152(6) 0.64783(5) 0.51829(5) 0.241(13) Uani 1 1 d R . .
H413_1 H 0.5216 0.6504 0.5456 0.289 Uiso 1 1 d R . .
C169_1 C 0.55520(6) 0.68429(5) 0.49828(5) 0.240(12) Uani 1 1 d R . .
H414_1 H 0.5445 0.7113 0.5122 0.287 Uiso 1 1 d R . .
C170_1 C 0.58496(6) 0.68044(5) 0.45743(5) 0.156(6) Uani 1 1 d R . .
H415_1 H 0.5941 0.7048 0.4440 0.187 Uiso 1 1 d R . .
N11_1 N 0.71033(6) 0.74548(5) 0.24609(5) 0.078(2) Uani 1 1 d R . .
C171_1 C 0.69927(6) 0.78289(5) 0.26876(5) 0.090(3) Uani 1 1 d R . .
H421_1 H 0.6850 0.7822 0.2982 0.108 Uiso 1 1 d R . .
C172_1 C 0.70954(6) 0.82132(5) 0.24749(5) 0.132(5) Uani 1 1 d R . .
H422_1 H 0.7021 0.8463 0.2627 0.159 Uiso 1 1 d R . .
C173_1 C 0.73088(6) 0.82233(5) 0.20355(5) 0.133(6) Uani 1 1 d R . .
H423_1 H 0.7378 0.8480 0.1893 0.159 Uiso 1 1 d R . .
C174_1 C 0.74194(6) 0.78492(5) 0.18088(5) 0.122(5) Uani 1 1 d R . .
H424_1 H 0.7562 0.7856 0.1515 0.147 Uiso 1 1 d R . .
C175_1 C 0.73167(6) 0.74649(5) 0.20215(5) 0.102(4) Uani 1 1 d R . .
H425_1 H 0.7391 0.7215 0.1870 0.122 Uiso 1 1 d R . .
N12_1 N 0.71329(6) 0.51953(5) 0.24752(5) 0.081(2) Uani 1 1 d R . .
C176_1 C 0.73869(6) 0.51653(5) 0.20485(5) 0.104(4) Uani 1 1 d R . .
H431_1 H 0.7491 0.5399 0.1907 0.125 Uiso 1 1 d R . .
C177_1 C 0.74855(6) 0.47865(5) 0.18337(5) 0.151(6) Uani 1 1 d R . .
H432_1 H 0.7655 0.4766 0.1548 0.181 Uiso 1 1 d R . .
C178_1 C 0.73301(6) 0.44377(5) 0.20457(5) 0.182(9) Uani 1 1 d R . .
H433_1 H 0.7396 0.4184 0.1902 0.219 Uiso 1 1 d R . .
C179_1 C 0.70761(6) 0.44677(5) 0.24725(5) 0.157(7) Uani 1 1 d R . .
H434_1 H 0.6972 0.4234 0.2614 0.189 Uiso 1 1 d R . .
C180_1 C 0.69775(6) 0.48465(5) 0.26873(5) 0.103(4) Uani 1 1 d R . .
H435_1 H 0.6808 0.4867 0.2973 0.124 Uiso 1 1 d R . .
N13S_1 N 0.8145(6) 0.9564(6) 0.3454(6) 0.156(9) Uiso 0.50 1 d PG . .
C181_1 C 0.8215(7) 0.9119(8) 0.3377(5) 0.127(9) Uiso 0.50 1 d PG . .
C182_1 C 0.8515(7) 0.8683(6) 0.3615(6) 0.141(10) Uiso 0.50 1 d PG . .
C183_1 C 0.8745(6) 0.8693(6) 0.3929(6) 0.106(7) Uiso 0.50 1 d PG . .
C184_1 C 0.8674(7) 0.9137(8) 0.4005(5) 0.108(8) Uiso 0.50 1 d PG . .
C185_1 C 0.8375(7) 0.9573(6) 0.3768(7) 0.177(14) Uiso 0.50 1 d PG . .
N14S_1 N 0.5695(15) 0.9473(12) 0.3387(8) 0.212(13) Uiso 0.50 1 d PG . .
C186_1 C 0.6075(9) 0.8994(15) 0.3414(9) 0.189(15) Uiso 0.50 1 d PG . .
C187_1 C 0.5987(13) 0.8618(9) 0.3677(12) 0.27(2) Uiso 0.50 1 d PG . .
C188_1 C 0.5520(17) 0.8720(13) 0.3913(9) 0.217(18) Uiso 0.50 1 d PG . .
C189_1 C 0.5140(10) 0.9198(17) 0.3886(9) 0.214(17) Uiso 0.50 1 d PG . .
C190_1 C 0.5228(11) 0.9575(10) 0.3623(11) 0.232(19) Uiso 0.50 1 d PG . .
N18S_1 N 0.0592(4) 0.9539(4) 0.9769(3) 0.50(5) Uiso 0.50 1 d PG . .
C206_1 C 0.0573(3) 0.9628(4) 0.9323(3) 0.43(5) Uiso 0.50 1 d PG . .
C207_1 C 0.0871(3) 0.9811(4) 0.9028(3) 0.232(19) Uiso 0.50 1 d PG . .
C208_1 C 0.1187(3) 0.9904(4) 0.9180(3) 0.227(19) Uiso 0.50 1 d PG . .
C209_1 C 0.1206(4) 0.9814(4) 0.9626(3) 0.30(3) Uiso 0.50 1 d PG . .
C210_1 C 0.0908(4) 0.9632(4) 0.9921(3) 0.41(4) Uiso 0.50 1 d PG . .
C211_1 C 0.6502(2) 0.5401(2) 0.09704(17) 0.38(4) Uiso 0.50 1 d PG . .
C214_1 C 0.5834(2) 0.5733(2) 0.17207(17) 0.31(3) Uiso 0.50 1 d PG . .
O52W_1 O 0.0459(3) 0.4471(3) 0.2981(3) 0.293(17) Uiso 0.50 1 d PG . .
O53W_1 O 0.6020(3) 0.7572(3) 0.8502(2) 0.65(6) Uiso 0.50 1 d PG . .
O54W_1 O 0.5863(3) 0.7459(3) 0.7884(2) 0.47(3) Uiso 0.50 1 d PG . .
O55W_1 O 0.6553(3) 0.6734(3) 0.8029(2) 0.501(19) Uiso 1 1 d G . .
O56W_1 O 0.3157(3) 0.9032(4) 0.9219(2) 0.360(11) Uiso 1 1 d G . .
O57W_1 O 0.3456(4) 0.9136(4) 0.9456(2) 0.49(4) Uiso 0.50 1 d PG . .
O58W_1 O 0.2622(4) 0.9282(4) 0.9539(3) 0.52(4) Uiso 0.50 1 d PG . .
O59W_1 O 0.7159(2) 0.3236(2) 0.2325(2) 0.382(13) Uiso 1 1 d G . .
O60W_1 O 0.7256(2) 0.2500(2) 0.2460(2) 0.51(2) Uiso 1 1 d G . .
O61W_1 O 0.7365(2) 0.3188(2) 0.1829(2) 0.34(2) Uiso 0.50 1 d PG . .
O62W_1 O 0.1165(4) 0.1283(4) 0.2561(4) 0.381(12) Uiso 1 1 d G . .
O63W_1 O 0.1501(4) 0.0713(4) 0.2086(4) 0.70(7) Uiso 0.50 1 d PG . .
O64W_1 O 0.1838(4) 0.0999(4) 0.2411(4) 0.45(3) Uiso 0.50 1 d PG . .
O65W_1 O 0.3536(3) 0.9641(3) 0.6373(2) 0.371(12) Uiso 1 1 d G . .
O66W_1 O 0.3866(3) 0.9760(3) 0.6517(2) 0.68(6) Uiso 0.50 1 d PG . .
O67W_1 O 0.3969(3) 0.8977(3) 0.7241(2) 0.71(7) Uiso 0.50 1 d PG . .
O68W_1 O 0.9518(3) 0.8402(3) 0.0737(2) 0.44(3) Uiso 0.50 1 d PG . .
O69W_1 O 0.9647(3) 0.8585(3) 0.1152(3) 0.33(2) Uiso 0.50 1 d PG . .
O70W_1 O 0.9732(3) 0.8749(4) 0.0306(3) 0.39(3) Uiso 0.50 1 d PG . .
O71W_1 O 0.4990(3) 0.5889(3) 0.89041(17) 0.62(5) Uiso 0.50 1 d PG . .
O72W_1 O 0.4291(3) 0.6970(4) 0.90824(19) 0.41(3) Uiso 0.50 1 d PG . .
O73W_1 O 0.5199(4) 0.6284(4) 0.93300(18) 0.86(9) Uiso 0.50 1 d PG . .
O74W_1 O 0.8638(2) 0.6309(3) 0.2813(2) 0.215(5) Uiso 1 1 d G . .
O75W_1 O 0.8409(2) 0.6877(3) 0.2634(2) 0.304(9) Uiso 1 1 d G . .
O76W_1 O 0.8573(2) 0.6214(2) 0.3304(2) 0.316(10) Uiso 1 1 d G . .
O77W_1 O 0.82460(19) 0.4245(2) 0.2994(2) 0.197(10) Uiso 0.50 1 d PG . .
O78W_1 O 0.0956(3) 0.4275(3) 0.2971(3) 0.165(8) Uiso 0.50 1 d PG . .
O79W_1 O 0.7697(2) 0.7836(2) 0.3534(2) 0.171(8) Uiso 0.50 1 d PG . .
O80W_1 O 0.9552(2) 0.5158(3) 0.1664(2) 0.38(3) Uiso 0.50 1 d PG . .
O81W_1 O 0.8897(2) 0.4831(3) 0.1663(2) 0.238(12) Uiso 0.50 1 d PG . .
O82W_1 O 0.5298(2) 0.7198(2) 0.25574(17) 0.274(15) Uiso 0.50 1 d PG . .
O83W_1 O 0.6325(3) 0.8526(2) 0.10754(19) 0.308(18) Uiso 0.50 1 d PG . .
O84W_1 O 0.1935(2) 0.7088(3) 0.2077(2) 0.55(4) Uiso 0.50 1 d PG . .
O85W_1 O 0.7834(2) 0.5800(3) 0.09085(18) 0.41(3) Uiso 0.50 1 d PG . .
O86W_1 O 0.0526(3) 0.4779(4) 0.1630(3) 0.264(14) Uiso 0.50 1 d PG . .
O87W_1 O 0.0622(3) 0.4005(3) 0.4930(3) 0.301(17) Uiso 0.50 1 d PG . .
O88W_1 O 0.7594(2) 0.3639(2) 0.3797(2) 0.39(3) Uiso 0.50 1 d PG . .
O89W_1 O 0.7959(2) 0.3981(3) 0.0934(2) 0.37(2) Uiso 0.50 1 d PG . .
O90W_1 O 0.12942(19) 0.7311(2) 0.4233(2) 0.317(19) Uiso 0.50 1 d PG . .
O91W_1 O 0.1260(2) 0.7160(3) 0.2600(3) 0.260(14) Uiso 0.50 1 d PG . .
O92W_1 O 0.7558(3) 0.9340(3) 0.2195(2) 0.54(5) Uiso 0.50 1 d PG . .
O93W_1 O 0.0483(3) 0.4391(3) 0.3357(3) 0.189(9) Uiso 0.50 1 d PG . .
O94W_1 O 0.83867(19) 0.4378(2) 0.3408(2) 0.181(9) Uiso 0.50 1 d PG . .
O95W_1 O 0.9677(2) 0.4866(3) 0.1564(2) 0.291(17) Uiso 0.50 1 d PG . .
O96W_1 O 0.85410(18) 0.4679(2) 0.3268(2) 0.274(15) Uiso 0.50 1 d PG . .
O97W_1 O 0.84497(19) 0.4422(2) 0.2955(2) 0.34(2) Uiso 0.50 1 d PG . .
O98W_1 O 0.7311(2) 0.2501(2) 0.2075(2) 0.39(3) Uiso 0.50 1 d PG . .
O99W_1 O 0.0007(3) 0.4576(3) 0.3373(3) 0.288(16) Uiso 0.50 1 d PG . .

loop_
_atom_site_aniso_label
_atom_site_aniso_U_11
_atom_site_aniso_U_22
_atom_site_aniso_U_33
_atom_site_aniso_U_23
_atom_site_aniso_U_13
_atom_site_aniso_U_12
Fe11_1 0.0432(6) 0.0385(6) 0.0672(8) -0.0092(5) -0.0069(5) -0.0210(5)
Fe12_1 0.0465(6) 0.0367(6) 0.0671(8) -0.0074(5) -0.0134(6) -0.0200(5)
Fe13_1 0.0481(7) 0.0405(6) 0.0647(8) -0.0085(5) -0.0120(6) -0.0232(5)
Fe21_1 0.0617(8) 0.0344(6) 0.0748(9) -0.0184(6) -0.0095(6) -0.0138(6)
Fe22_1 0.0569(7) 0.0288(6) 0.0714(8) -0.0143(5) -0.0173(6) -0.0099(5)
Fe23_1 0.0627(8) 0.0315(6) 0.0727(8) -0.0157(6) -0.0206(6) -0.0109(6)
Fe31_1 0.0884(10) 0.0430(7) 0.0624(8) -0.0095(6) -0.0068(7) -0.0202(7)
Fe32_1 0.0704(8) 0.0460(7) 0.0625(8) -0.0017(6) -0.0118(7) -0.0209(6)
Fe33_1 0.0765(9) 0.0436(7) 0.0575(8) -0.0029(6) -0.0162(6) -0.0236(6)
Fe41_1 0.0422(7) 0.0481(7) 0.0992(10) -0.0073(7) -0.0236(7) -0.0139(6)
Fe42_1 0.0410(6) 0.0372(6) 0.1026(10) -0.0078(6) -0.0236(6) -0.0107(5)
Fe43_1 0.0427(7) 0.0404(7) 0.1015(10) -0.0076(6) -0.0277(7) -0.0133(5)
S112_1 0.0595(14) 0.0544(13) 0.0853(18) -0.0251(12) -0.0169(13) -0.0236(12)
S113_1 0.097(2) 0.0387(13) 0.0777(18) -0.0010(12) -0.0197(15) -0.0226(13)
S123_1 0.0466(13) 0.0743(17) 0.0752(17) -0.0115(13) -0.0072(12) -0.0206(12)
S212_1 0.097(2) 0.0714(17) 0.091(2) -0.0150(15) -0.0290(16) -0.0461(16)
S213_1 0.0826(17) 0.0358(12) 0.092(2) -0.0030(12) -0.0213(15) -0.0166(12)
S223_1 0.0570(15) 0.0860(19) 0.086(2) -0.0194(15) -0.0142(14) -0.0181(14)
S312_1 0.094(2) 0.079(2) 0.114(3) -0.0238(19) 0.029(2) -0.027(2)
S313_1 0.151(3) 0.078(2) 0.092(2) -0.0210(17) -0.040(2) -0.050(2)
S323_1 0.0876(19) 0.0478(14) 0.096(2) 0.0159(14) -0.0321(16) -0.0289(14)
S412_1 0.0786(18) 0.0780(19) 0.118(2) -0.0196(17) -0.0264(17) -0.0421(16)
S413_1 0.0760(18) 0.0502(15) 0.116(2) 0.0045(15) -0.0245(17) -0.0198(14)
S423_1 0.0495(14) 0.0552(14) 0.117(2) -0.0207(14) -0.0116(14) -0.0182(12)
O1_1 0.039(3) 0.034(3) 0.063(3) -0.007(2) -0.010(2) -0.018(2)
O2_1 0.040(3) 0.060(4) 0.074(4) -0.008(3) -0.012(3) -0.019(3)
O3_1 0.064(4) 0.143(7) 0.095(5) 0.004(5) -0.006(4) -0.058(5)
O4_1 0.109(6) 0.069(5) 0.126(6) -0.046(4) -0.020(5) 0.003(4)
O5_1 0.052(3) 0.077(4) 0.062(4) -0.010(3) -0.007(3) -0.027(3)
O6_1 0.086(4) 0.043(3) 0.065(4) -0.001(3) -0.010(3) -0.028(3)
O7_1 0.125(7) 0.099(6) 0.146(7) -0.039(5) -0.081(6) 0.008(5)
O8_1 0.176(8) 0.072(5) 0.098(6) -0.011(4) 0.027(5) -0.071(6)
O9_1 0.071(4) 0.031(3) 0.076(4) -0.002(3) -0.003(3) -0.020(3)
O10_1 0.055(3) 0.046(3) 0.090(4) -0.021(3) -0.021(3) -0.021(3)
O11_1 0.106(6) 0.105(6) 0.077(5) -0.023(4) -0.020(4) -0.026(5)
O12_1 0.075(4) 0.075(5) 0.171(7) -0.038(5) -0.032(5) -0.042(4)
O13_1 0.057(3) 0.052(3) 0.097(4) -0.020(3) -0.025(3) -0.024(3)
O14_1 0.072(4) 0.034(3) 0.086(4) -0.007(3) -0.030(3) -0.023(3)
O15_1 0.083(4) 0.046(3) 0.086(4) -0.004(3) -0.027(4) -0.039(3)
O16_1 0.044(3) 0.077(4) 0.082(4) -0.026(3) -0.006(3) -0.029(3)
O17_1 0.042(3) 0.069(4) 0.099(5) -0.024(4) -0.006(3) -0.029(3)
O18_1 0.062(4) 0.054(4) 0.065(4) -0.005(3) 0.003(3) -0.030(3)
O19_1 0.057(4) 0.055(4) 0.075(4) -0.001(3) -0.002(3) -0.026(3)
O20_1 0.056(3) 0.027(3) 0.069(4) -0.015(2) -0.015(3) -0.009(2)
O21_1 0.080(4) 0.061(4) 0.078(4) -0.024(3) -0.016(3) -0.034(3)
O22_1 0.206(9) 0.109(6) 0.109(6) -0.048(5) -0.005(6) -0.106(7)
O23_1 0.116(7) 0.140(8) 0.158(8) 0.025(6) -0.071(6) -0.063(6)
O24_1 0.080(4) 0.058(4) 0.070(4) -0.014(3) -0.016(3) -0.035(3)
O25_1 0.051(3) 0.071(4) 0.066(4) -0.020(3) -0.010(3) -0.010(3)
O26_1 0.128(7) 0.175(9) 0.134(7) 0.043(6) -0.049(6) -0.105(7)
O27_1 0.079(5) 0.143(8) 0.120(6) -0.076(6) -0.021(5) 0.026(5)
O28_1 0.051(3) 0.068(4) 0.076(4) -0.030(3) -0.011(3) -0.010(3)
O29_1 0.070(4) 0.035(3) 0.102(5) -0.007(3) -0.026(3) -0.014(3)
O30_1 0.119(6) 0.109(6) 0.089(6) -0.004(5) -0.024(5) -0.039(5)
O31_1 0.110(6) 0.031(3) 0.145(7) -0.008(4) -0.029(5) -0.015(4)
O32_1 0.076(4) 0.035(3) 0.108(5) -0.003(3) -0.031(4) -0.016(3)
O33_1 0.064(4) 0.040(3) 0.102(5) -0.015(4) -0.013(4) -0.007(3)
O34_1 0.056(4) 0.037(3) 0.089(5) -0.011(3) -0.009(4) -0.001(3)
O35_1 0.104(5) 0.039(3) 0.082(4) -0.008(3) -0.030(4) -0.033(3)
O36_1 0.094(5) 0.031(3) 0.091(5) -0.001(3) -0.042(4) -0.023(3)
O37_1 0.081(5) 0.065(4) 0.080(5) -0.035(3) -0.005(4) -0.026(4)
O38_1 0.090(5) 0.066(4) 0.074(4) -0.032(3) -0.010(4) -0.028(4)
O39_1 0.066(4) 0.044(3) 0.055(3) -0.007(3) -0.011(3) -0.017(3)
O40_1 0.102(5) 0.063(4) 0.091(5) -0.027(4) 0.022(4) -0.021(4)
O41_1 0.189(10) 0.135(8) 0.152(9) -0.060(7) 0.082(8) -0.085(8)
O42_1 0.084(6) 0.094(7) 0.240(12) -0.014(7) -0.029(7) -0.002(5)
O43_1 0.076(4) 0.063(4) 0.089(5) -0.012(3) 0.015(4) -0.022(4)
O44_1 0.078(4) 0.050(4) 0.082(4) 0.015(3) -0.020(3) -0.026(3)
O45_1 0.103(6) 0.048(4) 0.173(8) -0.029(5) -0.028(5) -0.022(4)
O46_1 0.141(7) 0.109(6) 0.126(7) 0.063(5) -0.058(6) -0.073(6)
O47_1 0.088(4) 0.054(4) 0.075(4) 0.008(3) -0.030(3) -0.033(3)
O48_1 0.117(5) 0.061(4) 0.071(4) -0.012(3) -0.034(4) -0.035(4)
O49_1 0.196(10) 0.104(7) 0.187(10) -0.018(6) -0.052(8) -0.091(8)
O50_1 0.218(11) 0.108(7) 0.118(7) -0.042(6) -0.057(7) -0.041(7)
O51_1 0.141(7) 0.065(4) 0.084(5) -0.025(4) -0.030(5) -0.036(5)
O52_1 0.093(5) 0.049(4) 0.090(5) -0.005(3) -0.020(4) -0.021(4)
O53_1 0.091(5) 0.056(4) 0.086(5) 0.008(3) -0.029(4) -0.030(4)
O54_1 0.074(4) 0.063(4) 0.063(4) -0.024(3) -0.004(3) -0.026(4)
O55_1 0.083(4) 0.062(4) 0.059(4) -0.022(3) -0.010(3) -0.028(3)
O56_1 0.084(4) 0.050(4) 0.068(4) 0.009(3) -0.015(3) -0.024(3)
O57_1 0.100(5) 0.053(4) 0.071(4) 0.002(3) -0.007(4) -0.035(4)
O58_1 0.035(3) 0.034(3) 0.100(4) -0.005(3) -0.025(3) -0.010(2)
O59_1 0.038(3) 0.047(3) 0.137(6) -0.024(4) -0.009(3) -0.013(3)
O60_1 0.134(7) 0.105(6) 0.118(7) -0.022(5) -0.015(5) -0.063(6)
O61_1 0.043(4) 0.081(5) 0.216(9) -0.048(5) -0.017(5) -0.016(4)
O62_1 0.041(3) 0.048(3) 0.130(5) -0.029(3) -0.005(3) -0.014(3)
O63_1 0.075(4) 0.042(3) 0.095(5) 0.001(3) -0.029(4) -0.018(3)
O64_1 0.126(7) 0.079(5) 0.126(7) 0.011(5) -0.054(6) -0.014(5)
O65_1 0.118(7) 0.106(7) 0.184(9) -0.014(6) 0.004(6) -0.073(6)
O66_1 0.067(4) 0.044(3) 0.097(5) -0.003(3) -0.024(3) -0.013(3)
O67_1 0.082(4) 0.085(5) 0.095(5) -0.007(4) -0.028(4) -0.046(4)
O68_1 0.139(7) 0.071(5) 0.156(8) -0.049(5) 0.009(6) -0.040(5)
O69_1 0.113(6) 0.149(8) 0.138(7) -0.003(6) -0.059(5) -0.079(6)
O70_1 0.070(4) 0.067(4) 0.100(5) -0.014(4) -0.020(4) -0.039(3)
O71_1 0.075(4) 0.062(4) 0.108(5) 0.001(4) -0.042(4) -0.029(4)
O72_1 0.077(4) 0.047(4) 0.104(5) -0.002(3) -0.042(4) -0.020(3)
O73_1 0.054(4) 0.075(5) 0.129(6) -0.017(4) -0.029(4) -0.030(4)
O74_1 0.055(4) 0.081(5) 0.116(6) -0.019(4) -0.019(4) -0.035(4)
O75_1 0.048(4) 0.055(4) 0.118(6) -0.011(4) -0.015(4) -0.005(3)
O76_1 0.036(3) 0.044(4) 0.123(6) -0.006(4) -0.005(4) -0.007(3)
C1A_1 0.048(5) 0.057(6) 0.093(7) -0.009(5) -0.028(5) -0.023(5)
C2A_1 0.060(6) 0.109(8) 0.100(8) -0.032(6) -0.014(6) -0.051(6)
C3A_1 0.060(7) 0.180(13) 0.145(11) -0.064(10) 0.005(7) -0.072(8)
C4A_1 0.095(10) 0.220(17) 0.176(14) -0.084(12) -0.019(9) -0.092(11)
C5A_1 0.047(6) 0.179(14) 0.174(13) -0.073(11) 0.001(7) -0.055(8)
C6A_1 0.074(8) 0.230(18) 0.171(13) -0.109(13) 0.014(8) -0.084(10)
C7A_1 0.061(7) 0.185(14) 0.160(12) -0.098(11) 0.021(7) -0.068(8)
C8A_1 0.090(10) 0.212(18) 0.209(16) -0.076(14) -0.014(10) -0.091(12)
C9A_1 0.084(11) 0.48(4) 0.53(4) -0.40(4) 0.068(17) -0.141(18)
C10A_1 0.105(14) 0.47(4) 0.62(5) -0.44(4) 0.10(2) -0.15(2)
C11A_1 0.071(9) 0.229(19) 0.240(18) -0.096(15) -0.023(10) -0.077(11)
C12A_1 0.077(10) 0.31(3) 0.33(3) -0.19(2) 0.018(12) -0.097(14)
C13A_1 0.100(12) 0.36(3) 0.44(4) -0.24(3) 0.010(17) -0.128(18)
C14A_1 0.086(9) 0.229(19) 0.229(18) -0.103(15) -0.004(10) -0.098(12)
C15A_1 0.075(9) 0.30(2) 0.216(17) -0.146(17) 0.027(10) -0.102(13)
C16A_1 0.083(9) 0.208(16) 0.182(14) -0.070(12) -0.019(9) -0.087(10)
C17A_1 0.041(5) 0.106(9) 0.150(11) -0.034(8) -0.012(6) -0.036(6)
C18A_1 0.065(7) 0.169(13) 0.173(13) -0.066(11) -0.006(8) -0.065(8)
C19A_1 0.070(8) 0.230(18) 0.241(18) -0.121(15) 0.001(10) -0.082(11)
C20A_1 0.045(6) 0.060(6) 0.116(9) -0.005(6) -0.017(6) -0.021(5)
C21B_1 0.058(5) 0.041(5) 0.087(7) -0.019(5) -0.013(5) -0.018(4)
C22B_1 0.082(6) 0.043(5) 0.094(7) -0.015(5) -0.015(5) -0.039(5)
C23B_1 0.144(10) 0.041(6) 0.149(10) 0.012(6) -0.083(9) -0.045(6)
C24B_1 0.203(15) 0.058(7) 0.171(13) 0.009(7) -0.114(11) -0.065(9)
C25B_1 0.134(10) 0.051(6) 0.130(10) 0.003(6) -0.047(8) -0.053(7)
C26B_1 0.163(11) 0.072(7) 0.110(9) 0.004(6) -0.059(8) -0.078(8)
C27B_1 0.151(11) 0.059(6) 0.113(9) -0.005(6) -0.051(8) -0.063(7)
C28B_1 0.177(13) 0.061(7) 0.175(12) 0.002(7) -0.086(10) -0.073(8)
C29B_1 0.35(3) 0.061(8) 0.33(2) 0.045(11) -0.25(2) -0.094(13)
C30B_1 0.39(3) 0.067(9) 0.36(3) 0.039(12) -0.30(2) -0.103(14)
C31B_1 0.181(13) 0.050(7) 0.167(12) -0.005(7) -0.082(11) -0.053(8)
C32B_1 0.56(4) 0.097(12) 0.41(3) 0.079(16) -0.39(3) -0.18(2)
C33B_1 0.53(4) 0.089(11) 0.41(3) 0.088(15) -0.37(3) -0.172(19)
C34B_1 0.177(13) 0.057(7) 0.143(11) 0.012(7) -0.079(10) -0.068(8)
C35B_1 0.207(15) 0.064(8) 0.218(16) 0.021(9) -0.135(13) -0.077(9)
C36B_1 0.201(14) 0.062(7) 0.159(12) 0.020(7) -0.108(11) -0.075(9)
C37B_1 0.115(8) 0.048(6) 0.103(8) -0.005(5) -0.033(7) -0.045(6)
C38B_1 0.203(14) 0.055(7) 0.141(11) 0.017(7) -0.101(10) -0.072(8)
C39B_1 0.269(19) 0.072(8) 0.186(14) 0.033(8) -0.139(14) -0.107(11)
C40B_1 0.078(6) 0.051(6) 0.097(8) -0.027(6) -0.025(6) -0.030(5)
C41C_1 0.058(6) 0.054(6) 0.059(6) -0.007(5) -0.009(5) -0.025(5)
C42C_1 0.077(7) 0.066(6) 0.076(7) -0.002(5) 0.002(5) -0.041(6)
C43C_1 0.086(8) 0.085(8) 0.102(9) 0.008(7) 0.034(7) -0.029(7)
C44C_1 0.104(9) 0.088(9) 0.129(11) 0.001(8) 0.035(8) -0.025(8)
C45C_1 0.101(9) 0.081(8) 0.092(8) 0.014(6) -0.006(7) -0.035(7)
C46C_1 0.102(10) 0.082(9) 0.135(11) 0.027(8) -0.007(8) -0.014(8)
C47C_1 0.075(7) 0.083(8) 0.105(9) 0.034(7) 0.009(6) -0.017(6)
C48C_1 0.120(11) 0.101(10) 0.110(10) 0.009(8) 0.018(8) -0.056(9)
C49C_1 0.145(14) 0.145(15) 0.196(17) 0.081(13) 0.064(13) -0.017(12)
C50C_1 0.137(13) 0.137(14) 0.194(17) 0.081(13) 0.065(12) -0.003(11)
C51C_1 0.124(11) 0.083(9) 0.108(10) 0.022(7) 0.022(8) -0.035(8)
C52C_1 0.105(12) 0.21(2) 0.27(2) 0.156(18) 0.017(13) -0.029(13)
C53C_1 0.104(11) 0.159(15) 0.220(19) 0.102(14) 0.028(12) -0.008(11)
C54C_1 0.113(10) 0.090(9) 0.086(8) 0.010(7) 0.012(7) -0.041(8)
C55C_1 0.142(12) 0.076(8) 0.152(13) 0.029(8) 0.035(10) -0.041(9)
C56C_1 0.111(9) 0.073(8) 0.112(10) 0.013(7) 0.019(8) -0.029(7)
C57C_1 0.115(9) 0.064(7) 0.069(7) 0.002(5) -0.013(6) -0.043(7)
C58C_1 0.092(9) 0.084(9) 0.142(12) 0.026(8) 0.009(8) -0.015(7)
C59C_1 0.087(8) 0.095(9) 0.146(12) 0.050(9) 0.012(8) -0.023(7)
C60C_1 0.102(8) 0.063(7) 0.062(6) -0.001(5) -0.014(6) -0.050(7)
C61D_1 0.074(7) 0.055(7) 0.074(7) -0.002(5) -0.009(5) -0.010(5)
C62D_1 0.095(8) 0.064(7) 0.079(7) 0.005(5) -0.034(6) -0.016(6)
C63D_1 0.160(12) 0.064(7) 0.134(11) 0.025(7) -0.085(10) -0.043(8)
C64D_1 0.188(15) 0.081(9) 0.130(11) 0.029(8) -0.092(11) -0.050(9)
C65D_1 0.146(12) 0.098(10) 0.098(9) 0.011(7) -0.061(8) -0.047(9)
C66D_1 0.215(17) 0.095(10) 0.195(16) 0.031(10) -0.136(14) -0.076(11)
C67D_1 0.169(13) 0.084(9) 0.136(11) 0.021(8) -0.091(10) -0.055(9)
C68D_1 0.188(15) 0.102(10) 0.126(11) 0.021(9) -0.092(11) -0.053(10)
C69D_1 0.42(3) 0.170(17) 0.194(18) 0.086(14) -0.23(2) -0.18(2)
C70D_1 0.44(4) 0.187(19) 0.25(2) 0.112(16) -0.28(3) -0.20(2)
C71D_1 0.148(12) 0.097(10) 0.141(12) 0.028(9) -0.091(10) -0.044(9)
C72D_1 0.50(4) 0.21(2) 0.30(3) 0.14(2) -0.32(3) -0.24(3)
C73D_1 0.52(4) 0.19(2) 0.33(3) 0.14(2) -0.35(3) -0.22(3)
C74D_1 0.164(13) 0.098(10) 0.109(10) 0.029(8) -0.078(9) -0.061(9)
C75D_1 0.214(16) 0.106(10) 0.157(13) 0.028(9) -0.128(12) -0.083(11)
C76D_1 0.194(15) 0.073(8) 0.168(13) 0.003(8) -0.122(12) -0.043(9)
C77D_1 0.084(7) 0.069(7) 0.124(9) -0.009(7) -0.052(7) -0.021(6)
C78D_1 0.183(14) 0.095(9) 0.143(11) 0.035(8) -0.109(11) -0.083(10)
C79D_1 0.233(18) 0.105(10) 0.143(12) 0.032(9) -0.115(12) -0.092(12)
C80D_1 0.062(6) 0.059(6) 0.100(8) -0.012(6) -0.038(5) -0.019(5)
C81E_1 0.062(7) 0.033(5) 0.140(11) -0.015(6) -0.042(7) -0.001(5)
C82E_1 0.060(6) 0.055(6) 0.145(11) -0.016(7) -0.033(7) 0.004(5)
C83E_1 0.068(8) 0.077(8) 0.137(11) 0.007(7) 0.003(7) 0.009(6)
C84E_1 0.072(8) 0.094(10) 0.167(13) 0.005(9) 0.032(8) 0.018(7)
C85E_1 0.073(8) 0.053(7) 0.204(15) 0.012(8) -0.008(9) 0.008(6)
C86E_1 0.070(8) 0.064(8) 0.242(18) 0.019(9) 0.029(10) 0.012(7)
C87E_1 0.063(7) 0.062(7) 0.177(13) 0.022(8) 0.004(8) 0.005(6)
C88E_1 0.063(7) 0.060(7) 0.213(15) 0.002(9) -0.021(9) 0.020(6)
C89E_1 0.111(13) 0.101(12) 0.39(3) 0.057(16) 0.057(17) 0.050(10)
C90E_1 0.138(15) 0.116(14) 0.34(3) 0.061(16) 0.084(17) 0.077(12)
C91E_1 0.071(8) 0.057(7) 0.196(14) 0.007(8) -0.014(8) 0.019(6)
C92E_1 0.088(11) 0.065(10) 0.51(4) 0.048(16) 0.038(17) 0.022(9)
C93E_1 0.089(11) 0.078(10) 0.40(3) 0.048(15) 0.020(14) 0.036(8)
C94E_1 0.085(9) 0.065(8) 0.151(12) 0.005(8) 0.001(8) 0.009(7)
C95E_1 0.095(10) 0.068(8) 0.183(14) 0.007(9) 0.003(9) 0.030(7)
C96E_1 0.075(7) 0.069(7) 0.129(10) -0.003(7) -0.003(7) 0.013(6)
C97E_1 0.063(6) 0.038(5) 0.119(9) -0.008(5) -0.015(6) -0.004(5)
C98E_1 0.065(7) 0.067(8) 0.176(13) 0.004(8) 0.008(8) 0.011(6)
C99E_1 0.060(7) 0.065(8) 0.238(17) 0.001(9) 0.022(9) 0.013(6)
C100_1 0.070(7) 0.035(5) 0.104(9) -0.025(6) -0.026(6) -0.005(5)
C101_1 0.111(9) 0.042(5) 0.051(6) -0.012(4) -0.009(6) -0.023(6)
C102_1 0.103(8) 0.059(6) 0.060(6) -0.015(5) -0.009(6) -0.032(6)
C103_1 0.098(8) 0.117(10) 0.092(8) -0.056(7) 0.018(6) -0.058(8)
C104_1 0.138(11) 0.122(10) 0.092(9) -0.051(8) 0.002(8) -0.068(9)
C105_1 0.120(10) 0.098(9) 0.088(8) -0.053(7) -0.010(7) -0.032(8)
C106_1 0.101(9) 0.134(11) 0.094(9) -0.063(8) 0.004(7) -0.030(8)
C107_1 0.088(8) 0.111(9) 0.106(9) -0.063(8) -0.007(7) -0.030(7)
C108_1 0.137(12) 0.156(13) 0.084(8) -0.059(8) 0.002(8) -0.066(10)
C109_1 0.23(2) 0.60(5) 0.24(2) -0.32(3) 0.137(18) -0.27(3)
C110_1 0.22(2) 0.59(5) 0.32(3) -0.38(4) 0.12(2) -0.23(3)
C111_1 0.145(12) 0.119(11) 0.145(12) -0.087(9) -0.013(10) -0.047(10)
C112_1 0.160(16) 0.50(4) 0.24(2) -0.30(3) 0.046(15) -0.12(2)
C113_1 0.146(16) 0.63(5) 0.30(3) -0.39(4) 0.076(17) -0.15(2)
C114_1 0.131(11) 0.125(11) 0.079(8) -0.056(7) 0.013(8) -0.054(9)
C115_1 0.126(11) 0.171(14) 0.099(9) -0.078(9) 0.017(8) -0.073(10)
C116_1 0.116(10) 0.139(11) 0.108(9) -0.074(9) 0.018(8) -0.067(9)
C117_1 0.103(8) 0.075(7) 0.081(7) -0.033(6) -0.006(6) -0.030(6)
C118_1 0.097(9) 0.151(12) 0.116(10) -0.082(9) -0.002(7) -0.042(9)
C119_1 0.114(10) 0.163(14) 0.124(11) -0.086(10) -0.008(9) -0.045(10)
C120_1 0.102(8) 0.040(5) 0.064(6) -0.020(4) -0.022(6) -0.018(6)
N1_1 0.047(4) 0.049(4) 0.099(6) -0.021(4) 0.002(4) -0.018(4)
C121_1 0.063(6) 0.056(6) 0.124(9) -0.031(6) -0.016(6) -0.008(5)
C122_1 0.074(8) 0.067(8) 0.226(17) -0.042(9) -0.023(10) 0.003(6)
C123_1 0.097(10) 0.115(12) 0.218(18) -0.097(13) 0.000(11) -0.016(9)
C124_1 0.123(12) 0.129(12) 0.145(12) -0.077(10) 0.030(10) -0.043(10)
C125_1 0.087(8) 0.083(8) 0.087(8) -0.030(6) 0.002(6) -0.034(6)
N2_1 0.060(4) 0.040(4) 0.097(6) 0.006(4) -0.031(4) -0.023(4)
C126_1 0.074(7) 0.074(7) 0.091(8) 0.004(6) -0.026(6) -0.029(6)
C127_1 0.109(9) 0.100(9) 0.101(9) 0.020(7) -0.056(8) -0.040(8)
C128_1 0.082(8) 0.072(8) 0.186(14) 0.003(9) -0.059(9) -0.021(7)
C129_1 0.078(7) 0.054(6) 0.150(11) -0.007(7) -0.038(8) -0.009(6)
C130_1 0.066(6) 0.044(5) 0.108(8) 0.000(5) -0.023(6) -0.013(5)
N3_1 0.072(5) 0.062(5) 0.071(5) -0.018(4) -0.011(4) -0.034(4)
C131_1 0.105(8) 0.065(6) 0.077(7) -0.017(5) -0.015(6) -0.040(6)
C132_1 0.135(11) 0.090(9) 0.102(9) -0.048(7) -0.016(8) -0.041(8)
C133_1 0.161(14) 0.148(13) 0.093(9) -0.029(9) -0.034(9) -0.080(12)
C134_1 0.132(12) 0.130(12) 0.108(10) -0.021(9) -0.059(9) -0.024(9)
C135_1 0.090(8) 0.095(8) 0.083(8) -0.023(6) -0.033(6) -0.024(7)
N4_1 0.082(6) 0.060(5) 0.108(7) -0.029(5) 0.009(5) -0.032(5)
C136_1 0.117(10) 0.103(9) 0.109(10) -0.022(8) 0.019(8) -0.063(9)
C137_1 0.183(18) 0.146(15) 0.137(13) -0.024(11) 0.027(12) -0.093(15)
C138_1 0.167(17) 0.177(19) 0.184(19) -0.053(15) 0.051(15) -0.112(16)
C139_1 0.101(11) 0.141(14) 0.24(2) -0.071(13) -0.003(12) -0.066(11)
C140_1 0.088(9) 0.095(9) 0.153(12) -0.039(8) 0.006(8) -0.054(8)
N5_1 0.078(5) 0.048(4) 0.070(5) -0.008(4) -0.023(4) -0.013(4)
C141_1 0.083(7) 0.077(7) 0.093(8) -0.005(6) -0.033(6) -0.008(6)
C142_1 0.122(12) 0.137(13) 0.114(12) 0.021(9) -0.049(9) -0.024(10)
C143_1 0.185(18) 0.185(17) 0.108(12) 0.045(11) -0.058(12) -0.071(15)
C144_1 0.140(13) 0.219(18) 0.112(12) 0.051(11) -0.035(10) -0.102(13)
C145_1 0.127(10) 0.110(10) 0.082(8) 0.015(7) -0.024(7) -0.063(9)
N6_1 0.083(6) 0.052(5) 0.110(7) -0.027(5) -0.039(5) -0.018(4)
C146_1 0.099(9) 0.087(8) 0.132(10) -0.027(7) -0.052(8) -0.036(7)
C147_1 0.119(11) 0.133(13) 0.206(17) -0.045(12) -0.078(12) -0.042(10)
C148_1 0.147(14) 0.143(15) 0.208(19) -0.027(13) -0.113(14) -0.033(12)
C149_1 0.189(17) 0.131(13) 0.147(14) -0.017(10) -0.105(13) -0.039(12)
C150_1 0.107(9) 0.091(8) 0.108(9) -0.019(7) -0.056(8) -0.018(7)
N7_1 0.130(9) 0.058(6) 0.128(8) -0.026(6) -0.005(7) -0.025(6)
C151_1 0.206(18) 0.071(9) 0.182(15) -0.033(9) -0.037(13) -0.036(11)
C152_1 0.30(3) 0.068(13) 0.57(5) -0.06(2) -0.08(3) -0.041(17)
C153_1 0.30(3) 0.060(11) 0.33(3) -0.035(15) -0.05(3) -0.036(15)
C154_1 0.20(2) 0.068(12) 0.60(5) -0.01(2) -0.10(3) 0.005(14)
C155_1 0.160(15) 0.066(9) 0.27(2) -0.056(11) -0.001(15) -0.021(10)
N8_1 0.081(6) 0.079(6) 0.098(6) -0.003(5) -0.017(5) -0.040(5)
C156_1 0.117(10) 0.101(10) 0.139(11) 0.009(8) -0.044(9) -0.059(9)
C157_1 0.127(13) 0.171(17) 0.210(18) 0.015(14) -0.070(12) -0.083(13)
C158_1 0.185(18) 0.180(17) 0.170(15) 0.013(13) -0.052(14) -0.137(16)
C159_1 0.156(14) 0.105(11) 0.190(15) -0.029(10) -0.027(12) -0.083(11)
C160_1 0.118(10) 0.087(9) 0.126(10) -0.021(7) -0.008(8) -0.060(8)
N9_1 0.082(6) 0.072(6) 0.083(6) -0.004(4) -0.024(5) -0.024(5)
C161_1 0.086(8) 0.093(9) 0.105(9) -0.014(7) -0.022(7) -0.029(7)
C162_1 0.096(11) 0.127(13) 0.146(13) -0.016(10) -0.035(9) -0.009(9)
C163_1 0.100(11) 0.179(17) 0.145(13) 0.000(12) -0.045(10) -0.039(11)
C164_1 0.106(11) 0.161(15) 0.184(15) 0.011(12) -0.039(11) -0.083(11)
C165_1 0.111(10) 0.113(10) 0.113(10) 0.007(8) -0.041(8) -0.060(9)
N10_1 0.079(6) 0.092(7) 0.102(7) -0.023(5) -0.007(5) -0.032(5)
C166_1 0.149(14) 0.139(13) 0.141(13) -0.016(10) -0.010(10) -0.079(12)
C167_1 0.22(2) 0.18(2) 0.20(2) -0.040(16) 0.096(17) -0.086(18)
C168_1 0.19(2) 0.25(3) 0.21(2) -0.04(2) 0.088(18) -0.10(2)
C169_1 0.22(2) 0.27(3) 0.148(17) -0.094(18) 0.085(16) -0.07(2)
C170_1 0.136(13) 0.143(14) 0.171(16) -0.036(12) -0.019(11) -0.047(12)
N11_1 0.058(5) 0.037(4) 0.136(7) -0.008(5) -0.038(5) -0.013(4)
C171_1 0.089(7) 0.052(6) 0.131(9) 0.013(6) -0.038(7) -0.036(6)
C172_1 0.128(11) 0.042(6) 0.226(17) 0.002(8) -0.041(11) -0.043(7)
C173_1 0.106(10) 0.086(9) 0.204(16) 0.038(10) -0.039(10) -0.063(9)
C174_1 0.152(12) 0.092(9) 0.134(11) 0.011(8) -0.030(9) -0.073(10)
C175_1 0.107(9) 0.083(8) 0.125(10) 0.018(7) -0.036(8) -0.057(7)
N12_1 0.066(5) 0.051(5) 0.133(8) -0.014(5) -0.040(5) -0.021(4)
C176_1 0.101(9) 0.075(8) 0.136(11) -0.038(8) -0.027(8) -0.027(7)
C177_1 0.160(14) 0.102(11) 0.187(16) -0.066(11) -0.055(12) -0.025(10)
C178_1 0.157(16) 0.086(11) 0.31(3) -0.103(15) -0.063(16) -0.017(11)
C179_1 0.136(13) 0.080(10) 0.28(2) -0.051(12) -0.060(14) -0.043(10)
C180_1 0.095(8) 0.065(7) 0.166(12) -0.028(7) -0.048(8) -0.032(6)

_geom_special_details            
;
All esds (except the esd in the dihedral angle between two l.s. planes)
are estimated using the full covariance matrix. The cell esds are taken
into account individually in the estimation of esds in distances, angles
and torsion angles; correlations between esds in cell parameters are only
used when they are defined by crystal symmetry. An approximate (isotropic)
treatment of cell esds is used for estimating esds involving l.s. planes.
;

loop_
_geom_bond_atom_site_label_1
_geom_bond_atom_site_label_2
_geom_bond_distance
_geom_bond_site_symmetry_2
_geom_bond_publ_flag
Fe11_1 O1_1 1.918(5) . ?
Fe11_1 O10_1 1.973(5) . ?
Fe11_1 O9_1 1.985(5) . ?
Fe11_1 O18_1 2.027(5) . ?
Fe11_1 O17_1 2.028(6) . ?
Fe11_1 N1_1 2.224(7) . ?
Fe11_1 Fe13_1 3.3176(16) . ?
Fe11_1 Fe12_1 3.3212(15) . ?
Fe12_1 O1_1 1.910(5) . ?
Fe12_1 O13_1 1.980(5) . ?
Fe12_1 O2_1 1.981(5) . ?
Fe12_1 O14_1 2.022(5) . ?
Fe12_1 O19_1 2.033(6) . ?
Fe12_1 N2_1 2.2000(18) . ?
Fe12_1 Fe13_1 3.3240(16) . ?
Fe13_1 O1_1 1.924(5) . ?
Fe13_1 O5_1 1.979(5) . ?
Fe13_1 O6_1 1.980(5) . ?
Fe13_1 O15_1 2.012(5) . ?
Fe13_1 O16_1 2.022(6) . ?
Fe13_1 N3_1 2.176(2) . ?
Fe21_1 O20_1 1.910(5) . ?
Fe21_1 O21_1 1.978(6) . ?
Fe21_1 O32_1 1.986(5) . ?
Fe21_1 O33_1 2.020(6) . ?
Fe21_1 O38_1 2.026(6) . ?
Fe21_1 N4_1 2.188(2) . ?
Fe21_1 Fe22_1 3.3176(18) . ?
Fe21_1 Fe23_1 3.3227(18) . ?
Fe22_1 O20_1 1.926(5) . ?
Fe22_1 O25_1 1.969(5) . ?
Fe22_1 O24_1 1.980(6) . ?
Fe22_1 O34_1 2.025(6) . ?
Fe22_1 O35_1 2.039(6) . ?
Fe22_1 N5_1 2.172(2) . ?
Fe22_1 Fe23_1 3.3155(17) . ?
Fe23_1 O20_1 1.912(5) . ?
Fe23_1 O28_1 1.971(6) . ?
Fe23_1 O29_1 1.985(6) . ?
Fe23_1 O36_1 1.999(6) . ?
Fe23_1 O37_1 2.022(7) . ?
Fe23_1 N6_1 2.1965(19) . ?
Fe31_1 O67W_1 1.684(8) 1_554 ?
Fe31_1 O39_1 1.918(5) . ?
Fe31_1 O51_1 1.968(7) . ?
Fe31_1 O40_1 1.982(8) . ?
Fe31_1 O52_1 1.996(7) . ?
Fe31_1 O57_1 2.014(7) . ?
Fe31_1 N7_1 2.1808(19) . ?
Fe31_1 Fe33_1 3.3207(18) . ?
Fe31_1 Fe32_1 3.3209(18) . ?
Fe32_1 O39_1 1.912(6) . ?
Fe32_1 O43_1 1.978(6) . ?
Fe32_1 O44_1 1.980(5) . ?
Fe32_1 O54_1 2.008(6) . ?
Fe32_1 O53_1 2.011(6) . ?
Fe32_1 N8_1 2.188(2) . ?
Fe32_1 Fe33_1 3.3189(19) . ?
Fe33_1 O39_1 1.921(6) . ?
Fe33_1 O48_1 1.969(6) . ?
Fe33_1 O47_1 1.975(6) . ?
Fe33_1 O55_1 2.016(6) . ?
Fe33_1 O56_1 2.021(6) . ?
Fe33_1 N9_1 2.204(2) . ?
Fe41_1 O58_1 1.914(6) . ?
Fe41_1 O67_1 1.970(6) . ?
Fe41_1 O66_1 1.979(6) . ?
Fe41_1 O74_1 2.015(6) . ?
Fe41_1 O75_1 2.023(6) . ?
Fe41_1 N10_1 2.215(2) . ?
Fe41_1 Fe42_1 3.3157(19) . ?
Fe41_1 Fe43_1 3.3209(19) . ?
Fe42_1 O58_1 1.922(5) . ?
Fe42_1 O70_1 1.981(6) . ?
Fe42_1 O59_1 1.984(6) . ?
Fe42_1 O76_1 2.002(6) . ?
Fe42_1 O71_1 2.018(7) . ?
Fe42_1 N11_1 2.191(2) . ?
Fe42_1 Fe43_1 3.3169(16) . ?
Fe43_1 O58_1 1.912(5) . ?
Fe43_1 O62_1 1.965(6) . ?
Fe43_1 O63_1 1.968(6) . ?
Fe43_1 O72_1 2.007(6) . ?
Fe43_1 O73_1 2.043(7) . ?
Fe43_1 N12_1 2.182(2) . ?
S112_1 O11_1 1.415(7) . ?
S112_1 O12_1 1.455(6) . ?
S112_1 O13_1 1.498(6) . ?
S112_1 O10_1 1.505(6) . ?
S113_1 O8_1 1.415(7) . ?
S113_1 O7_1 1.439(8) . ?
S113_1 O9_1 1.481(6) . ?
S113_1 O6_1 1.486(6) . ?
S123_1 O3_1 1.437(7) . ?
S123_1 O4_1 1.471(7) . ?
S123_1 O2_1 1.482(6) . ?
S123_1 O5_1 1.495(6) . ?
S212_1 O22_1 1.420(7) . ?
S212_1 O23_1 1.461(9) . ?
S212_1 O21_1 1.471(6) . ?
S212_1 O24_1 1.499(6) . ?
S213_1 O30_1 1.433(8) . ?
S213_1 O31_1 1.456(6) . ?
S213_1 O32_1 1.487(6) . ?
S213_1 O29_1 1.488(6) . ?
S223_1 O27_1 1.429(8) . ?
S223_1 O26_1 1.455(9) . ?
S223_1 O28_1 1.479(6) . ?
S223_1 O25_1 1.492(6) . ?
S312_1 O41_1 1.420(9) . ?
S312_1 O42_1 1.461(10) . ?
S312_1 O40_1 1.483(8) . ?
S312_1 O43_1 1.488(7) . ?
S312_1 O67W_1 1.925(11) 1_554 ?
S313_1 O50_1 1.445(9) . ?
S313_1 O49_1 1.449(10) . ?
S313_1 O48_1 1.494(6) . ?
S313_1 O51_1 1.495(8) . ?
S323_1 O46_1 1.431(7) . ?
S323_1 O45_1 1.450(8) . ?
S323_1 O47_1 1.497(6) . ?
S323_1 O44_1 1.501(6) . ?
S323_1 O92W_1 2.033(11) 2_675 ?
S412_1 O69_1 1.431(7) . ?
S412_1 O68_1 1.445(8) . ?
S412_1 O70_1 1.494(7) . ?
S412_1 O67_1 1.494(7) . ?
S413_1 O65_1 1.456(8) . ?
S413_1 O64_1 1.458(8) . ?
S413_1 O63_1 1.493(7) . ?
S413_1 O66_1 1.494(6) . ?
S423_1 O60_1 1.444(8) . ?
S423_1 O61_1 1.477(7) . ?
S423_1 O59_1 1.492(6) . ?
S423_1 O62_1 1.507(6) . ?
O14_1 C21B_1 1.255(10) . ?
O15_1 C21B_1 1.254(10) . ?
O16_1 C1A_1 1.229(10) . ?
O17_1 C1A_1 1.264(10) . ?
O18_1 C41C_1 1.260(9) . ?
O19_1 C41C_1 1.253(10) . ?
O33_1 C100_1 1.278(12) . ?
O34_1 C100_1 1.229(12) . ?
O35_1 C40B_1 1.249(10) . ?
O36_1 C40B_1 1.238(11) . ?
O37_1 C120_1 1.248(12) . ?
O38_1 C120_1 1.260(11) . ?
O40_1 O67W_1 1.108(14) 1_554 ?
O45_1 O92W_1 1.262(12) 2_675 ?
O52_1 C61D_1 1.249(12) . ?
O53_1 C61D_1 1.275(11) . ?
O54_1 C101_1 1.269(12) . ?
O55_1 C101_1 1.261(12) . ?
O56_1 C60C_1 1.239(11) . ?
O57_1 C60C_1 1.265(11) . ?
O71_1 C80D_1 1.243(10) . ?
O72_1 C80D_1 1.253(11) . ?
O73_1 C20A_1 1.236(12) . ?
O74_1 C20A_1 1.249(12) . ?
O75_1 C81E_1 1.283(13) . ?
O76_1 C81E_1 1.207(13) . ?
C1A_1 C2A_1 1.496(12) . ?
C2A_1 C7A_1 1.379(11) . ?
C2A_1 C3A_1 1.393(10) . ?
C3A_1 C4A_1 1.3900 . ?
C3A_1 H12A_1 0.9300 . ?
C4A_1 C5A_1 1.3900 . ?
C4A_1 H13A_1 0.9300 . ?
C5A_1 C6A_1 1.3900 . ?
C5A_1 C8A_1 1.5030 . ?
C6A_1 C7A_1 1.3900 . ?
C6A_1 H15A_1 0.9300 . ?
C7A_1 H16A_1 0.9300 . ?
C8A_1 C9A_1 1.3900 . ?
C8A_1 C13A_1 1.3900 . ?
C9A_1 C10A_1 1.3900 . ?
C9A_1 H18A_1 0.9300 . ?
C10A_1 C11A_1 1.3900 . ?
C10A_1 H19A_1 0.9300 . ?
C11A_1 C12A_1 1.3900 . ?
C11A_1 C14A_1 1.5477 . ?
C12A_1 C13A_1 1.3900 . ?
C12A_1 H21A_1 0.9300 . ?
C13A_1 H22A_1 0.9300 . ?
C14A_1 C15A_1 1.3900 . ?
C14A_1 C19A_1 1.3900 . ?
C15A_1 C16A_1 1.3900 . ?
C15A_1 H24A_1 0.9300 . ?
C16A_1 C17A_1 1.3900 . ?
C16A_1 H25A_1 0.9300 . ?
C17A_1 C18A_1 1.3900 . ?
C17A_1 C20A_1 1.459(10) . ?
C18A_1 C19A_1 1.3899 . ?
C18A_1 H27A_1 0.9300 . ?
C19A_1 H28A_1 0.9300 . ?
C21B_1 C22B_1 1.512(11) . ?
C22B_1 C23B_1 1.376(10) . ?
C22B_1 C27B_1 1.387(9) . ?
C23B_1 C24B_1 1.3900 . ?
C23B_1 H12B_1 0.9300 . ?
C24B_1 C25B_1 1.3900 . ?
C24B_1 H13B_1 0.9300 . ?
C25B_1 C26B_1 1.3900 . ?
C25B_1 C28B_1 1.5181 . ?
C26B_1 C27B_1 1.3900 . ?
C26B_1 H15B_1 0.9300 . ?
C27B_1 H16B_1 0.9300 . ?
C28B_1 C29B_1 1.3900 . ?
C28B_1 C33B_1 1.3901 . ?
C29B_1 C30B_1 1.3900 . ?
C29B_1 H18B_1 0.9300 . ?
C30B_1 C31B_1 1.3899 . ?
C30B_1 H19B_1 0.9300 . ?
C31B_1 C32B_1 1.3900 . ?
C31B_1 C34B_1 1.5113 . ?
C32B_1 C33B_1 1.3900 . ?
C32B_1 H21B_1 0.9300 . ?
C33B_1 H22B_1 0.9300 . ?
C34B_1 C35B_1 1.3900 . ?
C34B_1 C39B_1 1.3900 . ?
C35B_1 C36B_1 1.3900 . ?
C35B_1 H24B_1 0.9300 . ?
C36B_1 C37B_1 1.3901 . ?
C36B_1 H25B_1 0.9300 . ?
C37B_1 C38B_1 1.3900 . ?
C37B_1 C40B_1 1.508(9) . ?
C38B_1 C39B_1 1.3901 . ?
C38B_1 H27B_1 0.9300 . ?
C39B_1 H28B_1 0.9300 . ?
C41C_1 C42C_1 1.479(12) . ?
C42C_1 C43C_1 1.381(10) . ?
C42C_1 C47C_1 1.395(10) . ?
C43C_1 C44C_1 1.3900 . ?
C43C_1 H12C_1 0.9300 . ?
C44C_1 C45C_1 1.3900 . ?
C44C_1 H13C_1 0.9300 . ?
C45C_1 C46C_1 1.3900 . ?
C45C_1 C48C_1 1.5159 . ?
C46C_1 C47C_1 1.3900 . ?
C46C_1 H15C_1 0.9300 . ?
C47C_1 H16C_1 0.9300 . ?
C48C_1 C49C_1 1.3900 . ?
C48C_1 C53C_1 1.3900 . ?
C49C_1 C50C_1 1.3900 . ?
C49C_1 H18C_1 0.9300 . ?
C50C_1 C51C_1 1.3900 . ?
C50C_1 H19C_1 0.9300 . ?
C51C_1 C52C_1 1.3900 . ?
C51C_1 C54C_1 1.5180 . ?
C52C_1 C53C_1 1.3900 . ?
C52C_1 H21C_1 0.9300 . ?
C53C_1 H22C_1 0.9300 . ?
C54C_1 C55C_1 1.3900 . ?
C54C_1 C59C_1 1.3901 . ?
C55C_1 C56C_1 1.3900 . ?
C55C_1 H24C_1 0.9300 . ?
C56C_1 C57C_1 1.3900 . ?
C56C_1 H25C_1 0.9300 . ?
C57C_1 C58C_1 1.3899 . ?
C57C_1 C60C_1 1.500(10) . ?
C58C_1 C59C_1 1.3900 . ?
C58C_1 H27C_1 0.9300 . ?
C59C_1 H28C_1 0.9300 . ?
C61D_1 C62D_1 1.516(14) . ?
C62D_1 C67D_1 1.379(12) . ?
C62D_1 C63D_1 1.390(11) . ?
C63D_1 C64D_1 1.3900 . ?
C63D_1 H12D_1 0.9300 . ?
C64D_1 C65D_1 1.3899 . ?
C64D_1 H13D_1 0.9300 . ?
C65D_1 C66D_1 1.3900 . ?
C65D_1 C68D_1 1.5303 . ?
C66D_1 C67D_1 1.3900 . ?
C66D_1 H15D_1 0.9300 . ?
C67D_1 H16D_1 0.9300 . ?
C68D_1 C73D_1 1.3900 . ?
C68D_1 C69D_1 1.3900 . ?
C69D_1 C70D_1 1.3900 . ?
C69D_1 H18D_1 0.9300 . ?
C70D_1 C71D_1 1.3899 . ?
C70D_1 H19D_1 0.9300 . ?
C71D_1 C72D_1 1.3900 . ?
C71D_1 C74D_1 1.5022 . ?
C72D_1 C73D_1 1.3900 . ?
C72D_1 H21D_1 0.9300 . ?
C73D_1 H22D_1 0.9300 . ?
C74D_1 C79D_1 1.3900 . ?
C74D_1 C75D_1 1.3900 . ?
C75D_1 C76D_1 1.3900 . ?
C75D_1 H24D_1 0.9300 . ?
C76D_1 C77D_1 1.3900 . ?
C76D_1 H25D_1 0.9300 . ?
C77D_1 C78D_1 1.3900 . ?
C77D_1 C80D_1 1.525(10) . ?
C78D_1 C79D_1 1.3900 . ?
C78D_1 H27D_1 0.9300 . ?
C79D_1 H28D_1 0.9300 . ?
C81E_1 C82E_1 1.531(13) . ?
C82E_1 C87E_1 1.366(12) . ?
C82E_1 C83E_1 1.405(13) . ?
C83E_1 C84E_1 1.3900 . ?
C83E_1 H12E_1 0.9300 . ?
C84E_1 C85E_1 1.3900 . ?
C84E_1 H13E_1 0.9300 . ?
C85E_1 C86E_1 1.3900 . ?
C85E_1 C88E_1 1.5181 . ?
C86E_1 C87E_1 1.3900 . ?
C86E_1 H15E_1 0.9300 . ?
C87E_1 H16E_1 0.9300 . ?
C88E_1 C89E_1 1.3900 . ?
C88E_1 C93E_1 1.3900 . ?
C89E_1 C90E_1 1.3900 . ?
C89E_1 H18E_1 0.9300 . ?
C90E_1 C91E_1 1.3900 . ?
C90E_1 H19E_1 0.9300 . ?
C91E_1 C92E_1 1.3900 . ?
C91E_1 C94E_1 1.5224 . ?
C92E_1 C93E_1 1.3900 . ?
C92E_1 H21E_1 0.9300 . ?
C93E_1 H22E_1 0.9300 . ?
C94E_1 C95E_1 1.3900 . ?
C94E_1 C99E_1 1.3900 . ?
C95E_1 C96E_1 1.3900 . ?
C95E_1 H24E_1 0.9300 . ?
C96E_1 C97E_1 1.3900 . ?
C96E_1 H25E_1 0.9300 . ?
C97E_1 C98E_1 1.3900 . ?
C97E_1 C100_1 1.495(9) . ?
C98E_1 C99E_1 1.3900 . ?
C98E_1 H27E_1 0.9300 . ?
C99E_1 H28E_1 0.9300 . ?
C101_1 C102_1 1.512(12) . ?
C102_1 C103_1 1.369(11) . ?
C102_1 C107_1 1.399(11) . ?
C103_1 C104_1 1.3900 . ?
C103_1 H12F_1 0.9300 . ?
C104_1 C105_1 1.3900 . ?
C104_1 H13F_1 0.9300 . ?
C105_1 C106_1 1.3900 . ?
C105_1 C108_1 1.5281 . ?
C106_1 C107_1 1.3900 . ?
C106_1 H15F_1 0.9300 . ?
C107_1 H16F_1 0.9300 . ?
C108_1 C109_1 1.3900 . ?
C108_1 C113_1 1.3900 . ?
C109_1 C110_1 1.3900 . ?
C109_1 H18F_1 0.9300 . ?
C110_1 C111_1 1.3900 . ?
C110_1 H19F_1 0.9300 . ?
C111_1 C112_1 1.3900 . ?
C111_1 C114_1 1.5197 . ?
C112_1 C113_1 1.3900 . ?
C112_1 H21F_1 0.9300 . ?
C113_1 H22F_1 0.9300 . ?
C114_1 C115_1 1.3900 . ?
C114_1 C119_1 1.3900 . ?
C115_1 C116_1 1.3900 . ?
C115_1 H24F_1 0.9300 . ?
C116_1 C117_1 1.3900 . ?
C116_1 H25F_1 0.9300 . ?
C117_1 C118_1 1.3900 . ?
C117_1 C120_1 1.487(10) . ?
C118_1 C119_1 1.3900 . ?
C118_1 H27F_1 0.9300 . ?
C119_1 H28F_1 0.9300 . ?
N1_1 C125_1 1.374(8) . ?
N1_1 C121_1 1.380(8) . ?
C121_1 C122_1 1.3900 . ?
C121_1 H111_1 0.9300 . ?
C122_1 C123_1 1.3900 . ?
C122_1 H112_1 0.9300 . ?
C123_1 C124_1 1.3900 . ?
C123_1 H113_1 0.9300 . ?
C124_1 C125_1 1.3900 . ?
C124_1 H114_1 0.9300 . ?
C125_1 H115_1 0.9300 . ?
N2_1 C130_1 1.3900 . ?
N2_1 C126_1 1.3900 . ?
C126_1 C127_1 1.3900 . ?
C126_1 H121_1 0.9300 . ?
C127_1 C128_1 1.3900 . ?
C127_1 H122_1 0.9300 . ?
C128_1 C129_1 1.3900 . ?
C128_1 H123_1 0.9300 . ?
C129_1 C130_1 1.3900 . ?
C129_1 H124_1 0.9300 . ?
C130_1 H125_1 0.9300 . ?
N3_1 C131_1 1.3900 . ?
N3_1 C135_1 1.3900 . ?
C131_1 C132_1 1.3900 . ?
C131_1 H131_1 0.9300 . ?
C132_1 C133_1 1.3900 . ?
C132_1 H132_1 0.9300 . ?
C133_1 C134_1 1.3900 . ?
C133_1 H133_1 0.9300 . ?
C134_1 C135_1 1.3900 . ?
C134_1 H134_1 0.9300 . ?
C135_1 H135_1 0.9300 . ?
N4_1 C136_1 1.3900 . ?
N4_1 C140_1 1.3900 . ?
C136_1 C137_1 1.3900 . ?
C136_1 H211_1 0.9300 . ?
C137_1 C138_1 1.3900 . ?
C137_1 H212_1 0.9300 . ?
C138_1 C139_1 1.3900 . ?
C138_1 H213_1 0.9300 . ?
C139_1 C140_1 1.3899 . ?
C139_1 H214_1 0.9300 . ?
C140_1 H215_1 0.9300 . ?
N5_1 C141_1 1.3900 . ?
N5_1 C145_1 1.3901 . ?
C141_1 C142_1 1.3900 . ?
C141_1 H221_1 0.9300 . ?
C142_1 C143_1 1.3900 . ?
C142_1 H222_1 0.9300 . ?
C143_1 C144_1 1.3900 . ?
C143_1 H223_1 0.9300 . ?
C144_1 C145_1 1.3900 . ?
C144_1 H224_1 0.9300 . ?
C145_1 H225_1 0.9300 . ?
N6_1 C146_1 1.3899 . ?
N6_1 C150_1 1.3900 . ?
C146_1 C147_1 1.3900 . ?
C146_1 H231_1 0.9300 . ?
C147_1 C148_1 1.3900 . ?
C147_1 H232_1 0.9300 . ?
C148_1 C149_1 1.3900 . ?
C148_1 H233_1 0.9300 . ?
C149_1 C150_1 1.3900 . ?
C149_1 H234_1 0.9300 . ?
C150_1 H235_1 0.9300 . ?
N7_1 C151_1 1.3899 . ?
N7_1 C155_1 1.3901 . ?
C151_1 C152_1 1.3900 . ?
C151_1 H311_1 0.9300 . ?
C152_1 C153_1 1.3900 . ?
C152_1 H312_1 0.9300 . ?
C153_1 C154_1 1.3900 . ?
C153_1 H313_1 0.9300 . ?
C154_1 C155_1 1.3900 . ?
C154_1 H314_1 0.9299 . ?
C155_1 H315_1 0.9300 . ?
N8_1 C160_1 1.3899 . ?
N8_1 C156_1 1.3900 . ?
C156_1 C157_1 1.3900 . ?
C156_1 H321_1 0.9300 . ?
C157_1 C158_1 1.3900 . ?
C157_1 H322_1 0.9299 . ?
C158_1 C159_1 1.3900 . ?
C158_1 H323_1 0.9300 . ?
C159_1 C160_1 1.3901 . ?
C159_1 H324_1 0.9300 . ?
C160_1 H325_1 0.9300 . ?
N9_1 C161_1 1.3899 . ?
N9_1 C165_1 1.3900 . ?
C161_1 C162_1 1.3900 . ?
C161_1 H331_1 0.9300 . ?
C162_1 C163_1 1.3901 . ?
C162_1 H332_1 0.9300 . ?
C163_1 C164_1 1.3900 . ?
C163_1 H333_1 0.9300 . ?
C164_1 C165_1 1.3900 . ?
C164_1 H334_1 0.9300 . ?
C165_1 H335_1 0.9300 . ?
N10_1 C170_1 1.3900 . ?
N10_1 C166_1 1.3901 . ?
C166_1 C167_1 1.3900 . ?
C166_1 H411_1 0.9300 . ?
C167_1 C168_1 1.3899 . ?
C167_1 H412_1 0.9300 . ?
C168_1 C169_1 1.3899 . ?
C168_1 H413_1 0.9300 . ?
C169_1 C170_1 1.3900 . ?
C169_1 H414_1 0.9300 . ?
C170_1 H415_1 0.9300 . ?
N11_1 C171_1 1.3900 . ?
N11_1 C175_1 1.3900 . ?
C171_1 C172_1 1.3900 . ?
C171_1 H421_1 0.9300 . ?
C172_1 C173_1 1.3900 . ?
C172_1 H422_1 0.9300 . ?
C173_1 C174_1 1.3900 . ?
C173_1 H423_1 0.9300 . ?
C174_1 C175_1 1.3900 . ?
C174_1 H424_1 0.9300 . ?
C175_1 H425_1 0.9300 . ?
N12_1 C180_1 1.3900 . ?
N12_1 C176_1 1.3900 . ?
C176_1 C177_1 1.3899 . ?
C176_1 H431_1 0.9300 . ?
C177_1 C178_1 1.3900 . ?
C177_1 H432_1 0.9300 . ?
C178_1 C179_1 1.3900 . ?
C178_1 H433_1 0.9300 . ?
C179_1 C180_1 1.3900 . ?
C179_1 H434_1 0.9300 . ?
C180_1 H435_1 0.9300 . ?
N13S_1 C181_1 1.3900 . ?
N13S_1 C185_1 1.3900 . ?
C181_1 C182_1 1.3900 . ?
C182_1 C183_1 1.3900 . ?
C183_1 C184_1 1.3900 . ?
C184_1 C185_1 1.3900 . ?
N14S_1 C186_1 1.3900 . ?
N14S_1 C190_1 1.3900 . ?
C186_1 C187_1 1.3900 . ?
C187_1 C188_1 1.3900 . ?
C188_1 C189_1 1.3900 . ?
C189_1 C190_1 1.3900 . ?
N18S_1 C206_1 1.3900 . ?
N18S_1 C210_1 1.3900 . ?
C206_1 C207_1 1.3900 . ?
C207_1 C208_1 1.3900 . ?
C208_1 C209_1 1.3900 . ?
C209_1 C210_1 1.3900 . ?
O52W_1 O93W_1 1.1742 . ?
O52W_1 O78W_1 1.3695 . ?
O52W_1 O99W_1 1.5921 . ?
O56W_1 O57W_1 1.5392 . ?
O56W_1 O58W_1 1.6483 . ?
O59W_1 O61W_1 1.5590 . ?
O60W_1 O98W_1 1.1918 . ?
O62W_1 O64W_1 1.8326 . ?
O65W_1 O66W_1 1.4709 . ?
O67W_1 O40_1 1.108(10) 1_556 ?
O67W_1 Fe31_1 1.684(8) 1_556 ?
O67W_1 S312_1 1.925(8) 1_556 ?
O68W_1 O70W_1 1.7579 . ?
O68W_1 O69W_1 1.7673 . ?
O74W_1 O76W_1 1.4960 . ?
O74W_1 O75W_1 1.5848 . ?
O77W_1 O97W_1 1.0178 . ?
O77W_1 O94W_1 1.6931 . ?
O78W_1 O93W_1 1.6201 . ?
O80W_1 O95W_1 0.9146 . ?
O92W_1 O45_1 1.263(10) 2_675 ?
O92W_1 S323_1 2.033(8) 2_675 ?
O93W_1 O99W_1 1.3090 . ?
O94W_1 O96W_1 1.2235 . ?
O94W_1 O97W_1 1.3835 . ?
O96W_1 O97W_1 1.5867 . ?

loop_
_geom_angle_atom_site_label_1
_geom_angle_atom_site_label_2
_geom_angle_atom_site_label_3
_geom_angle
_geom_angle_site_symmetry_1
_geom_angle_site_symmetry_3
_geom_angle_publ_flag
O1_1 Fe11_1 O10_1 96.8(2) . . ?
O1_1 Fe11_1 O9_1 98.1(2) . . ?
O10_1 Fe11_1 O9_1 88.7(2) . . ?
O1_1 Fe11_1 O18_1 95.2(2) . . ?
O10_1 Fe11_1 O18_1 91.8(2) . . ?
O9_1 Fe11_1 O18_1 166.5(2) . . ?
O1_1 Fe11_1 O17_1 94.6(2) . . ?
O10_1 Fe11_1 O17_1 168.3(2) . . ?
O9_1 Fe11_1 O17_1 91.7(2) . . ?
O18_1 Fe11_1 O17_1 85.1(2) . . ?
O1_1 Fe11_1 N1_1 176.7(2) . . ?
O10_1 Fe11_1 N1_1 85.1(2) . . ?
O9_1 Fe11_1 N1_1 84.5(3) . . ?
O18_1 Fe11_1 N1_1 82.1(3) . . ?
O17_1 Fe11_1 N1_1 83.3(3) . . ?
O1_1 Fe11_1 Fe13_1 30.35(14) . . ?
O10_1 Fe11_1 Fe13_1 117.00(17) . . ?
O9_1 Fe11_1 Fe13_1 76.49(16) . . ?
O18_1 Fe11_1 Fe13_1 115.00(17) . . ?
O17_1 Fe11_1 Fe13_1 74.34(18) . . ?
N1_1 Fe11_1 Fe13_1 150.0(2) . . ?
O1_1 Fe11_1 Fe12_1 29.76(14) . . ?
O10_1 Fe11_1 Fe12_1 77.13(15) . . ?
O9_1 Fe11_1 Fe12_1 119.24(16) . . ?
O18_1 Fe11_1 Fe12_1 73.94(17) . . ?
O17_1 Fe11_1 Fe12_1 112.61(17) . . ?
N1_1 Fe11_1 Fe12_1 149.5(2) . . ?
Fe13_1 Fe11_1 Fe12_1 60.09(3) . . ?
O1_1 Fe12_1 O13_1 97.8(2) . . ?
O1_1 Fe12_1 O2_1 96.6(2) . . ?
O13_1 Fe12_1 O2_1 88.2(2) . . ?
O1_1 Fe12_1 O14_1 95.8(2) . . ?
O13_1 Fe12_1 O14_1 166.3(2) . . ?
O2_1 Fe12_1 O14_1 92.6(2) . . ?
O1_1 Fe12_1 O19_1 95.4(2) . . ?
O13_1 Fe12_1 O19_1 90.8(2) . . ?
O2_1 Fe12_1 O19_1 168.0(2) . . ?
O14_1 Fe12_1 O19_1 85.6(2) . . ?
O1_1 Fe12_1 N2_1 177.91(15) . . ?
O13_1 Fe12_1 N2_1 84.13(17) . . ?
O2_1 Fe12_1 N2_1 84.33(16) . . ?
O14_1 Fe12_1 N2_1 82.31(16) . . ?
O19_1 Fe12_1 N2_1 83.65(17) . . ?
O1_1 Fe12_1 Fe11_1 29.90(15) . . ?
O13_1 Fe12_1 Fe11_1 76.70(16) . . ?
O2_1 Fe12_1 Fe11_1 116.44(16) . . ?
O14_1 Fe12_1 Fe11_1 114.88(16) . . ?
O19_1 Fe12_1 Fe11_1 74.87(17) . . ?
N2_1 Fe12_1 Fe11_1 150.77(7) . . ?
O1_1 Fe12_1 Fe13_1 30.03(15) . . ?
O13_1 Fe12_1 Fe13_1 118.92(17) . . ?
O2_1 Fe12_1 Fe13_1 76.73(15) . . ?
O14_1 Fe12_1 Fe13_1 74.52(16) . . ?
O19_1 Fe12_1 Fe13_1 114.05(17) . . ?
N2_1 Fe12_1 Fe13_1 149.10(6) . . ?
Fe11_1 Fe12_1 Fe13_1 59.90(3) . . ?
O1_1 Fe13_1 O5_1 97.0(2) . . ?
O1_1 Fe13_1 O6_1 97.6(2) . . ?
O5_1 Fe13_1 O6_1 88.9(3) . . ?
O1_1 Fe13_1 O15_1 94.9(2) . . ?
O5_1 Fe13_1 O15_1 91.6(2) . . ?
O6_1 Fe13_1 O15_1 167.4(2) . . ?
O1_1 Fe13_1 O16_1 95.5(2) . . ?
O5_1 Fe13_1 O16_1 167.4(2) . . ?
O6_1 Fe13_1 O16_1 91.3(3) . . ?
O15_1 Fe13_1 O16_1 85.5(2) . . ?
O1_1 Fe13_1 N3_1 176.60(15) . . ?
O5_1 Fe13_1 N3_1 84.43(17) . . ?
O6_1 Fe13_1 N3_1 85.51(17) . . ?
O15_1 Fe13_1 N3_1 82.02(18) . . ?
O16_1 Fe13_1 N3_1 82.99(18) . . ?
O1_1 Fe13_1 Fe11_1 30.25(14) . . ?
O5_1 Fe13_1 Fe11_1 118.10(17) . . ?
O6_1 Fe13_1 Fe11_1 76.95(17) . . ?
O15_1 Fe13_1 Fe11_1 113.67(18) . . ?
O16_1 Fe13_1 Fe11_1 74.17(17) . . ?
N3_1 Fe13_1 Fe11_1 150.64(6) . . ?
O1_1 Fe13_1 Fe12_1 29.78(14) . . ?
O5_1 Fe13_1 Fe12_1 76.32(16) . . ?
O6_1 Fe13_1 Fe12_1 117.88(18) . . ?
O15_1 Fe13_1 Fe12_1 74.39(17) . . ?
O16_1 Fe13_1 Fe12_1 114.50(18) . . ?
N3_1 Fe13_1 Fe12_1 148.86(6) . . ?
Fe11_1 Fe13_1 Fe12_1 60.01(3) . . ?
O20_1 Fe21_1 O21_1 98.3(2) . . ?
O20_1 Fe21_1 O32_1 96.2(2) . . ?
O21_1 Fe21_1 O32_1 87.7(3) . . ?
O20_1 Fe21_1 O33_1 95.3(2) . . ?
O21_1 Fe21_1 O33_1 92.4(3) . . ?
O32_1 Fe21_1 O33_1 168.3(3) . . ?
O20_1 Fe21_1 O38_1 95.6(3) . . ?
O21_1 Fe21_1 O38_1 166.1(3) . . ?
O32_1 Fe21_1 O38_1 91.3(3) . . ?
O33_1 Fe21_1 O38_1 85.8(3) . . ?
O20_1 Fe21_1 N4_1 177.92(16) . . ?
O21_1 Fe21_1 N4_1 83.42(19) . . ?
O32_1 Fe21_1 N4_1 85.06(19) . . ?
O33_1 Fe21_1 N4_1 83.3(2) . . ?
O38_1 Fe21_1 N4_1 82.7(2) . . ?
O20_1 Fe21_1 Fe22_1 30.26(15) . . ?
O21_1 Fe21_1 Fe22_1 76.64(18) . . ?
O32_1 Fe21_1 Fe22_1 115.8(2) . . ?
O33_1 Fe21_1 Fe22_1 75.5(2) . . ?
O38_1 Fe21_1 Fe22_1 116.0(2) . . ?
N4_1 Fe21_1 Fe22_1 150.01(7) . . ?
O20_1 Fe21_1 Fe23_1 29.65(15) . . ?
O21_1 Fe21_1 Fe23_1 118.83(18) . . ?
O32_1 Fe21_1 Fe23_1 76.53(18) . . ?
O33_1 Fe21_1 Fe23_1 113.38(19) . . ?
O38_1 Fe21_1 Fe23_1 74.2(2) . . ?
N4_1 Fe21_1 Fe23_1 149.90(7) . . ?
Fe22_1 Fe21_1 Fe23_1 59.91(4) . . ?
O20_1 Fe22_1 O25_1 97.4(2) . . ?
O20_1 Fe22_1 O24_1 97.9(2) . . ?
O25_1 Fe22_1 O24_1 88.5(3) . . ?
O20_1 Fe22_1 O34_1 94.1(2) . . ?
O25_1 Fe22_1 O34_1 168.2(3) . . ?
O24_1 Fe22_1 O34_1 92.1(3) . . ?
O20_1 Fe22_1 O35_1 94.3(2) . . ?
O25_1 Fe22_1 O35_1 92.0(3) . . ?
O24_1 Fe22_1 O35_1 167.6(2) . . ?
O34_1 Fe22_1 O35_1 85.0(3) . . ?
O20_1 Fe22_1 N5_1 176.61(16) . . ?
O25_1 Fe22_1 N5_1 85.60(18) . . ?
O24_1 Fe22_1 N5_1 83.70(17) . . ?
O34_1 Fe22_1 N5_1 82.78(19) . . ?
O35_1 Fe22_1 N5_1 84.01(18) . . ?
O20_1 Fe22_1 Fe23_1 30.13(16) . . ?
O25_1 Fe22_1 Fe23_1 76.56(16) . . ?
O24_1 Fe22_1 Fe23_1 118.34(17) . . ?
O34_1 Fe22_1 Fe23_1 113.25(19) . . ?
O35_1 Fe22_1 Fe23_1 73.70(17) . . ?
N5_1 Fe22_1 Fe23_1 150.67(7) . . ?
O20_1 Fe22_1 Fe21_1 29.99(16) . . ?
O25_1 Fe22_1 Fe21_1 117.60(18) . . ?
O24_1 Fe22_1 Fe21_1 76.87(17) . . ?
O34_1 Fe22_1 Fe21_1 73.89(19) . . ?
O35_1 Fe22_1 Fe21_1 113.61(18) . . ?
N5_1 Fe22_1 Fe21_1 148.80(7) . . ?
Fe23_1 Fe22_1 Fe21_1 60.12(4) . . ?
O20_1 Fe23_1 O28_1 98.2(2) . . ?
O20_1 Fe23_1 O29_1 97.0(2) . . ?
O28_1 Fe23_1 O29_1 88.5(3) . . ?
O20_1 Fe23_1 O36_1 95.1(2) . . ?
O28_1 Fe23_1 O36_1 92.2(3) . . ?
O29_1 Fe23_1 O36_1 167.6(3) . . ?
O20_1 Fe23_1 O37_1 95.5(3) . . ?
O28_1 Fe23_1 O37_1 166.2(3) . . ?
O29_1 Fe23_1 O37_1 91.0(3) . . ?
O36_1 Fe23_1 O37_1 85.3(3) . . ?
O20_1 Fe23_1 N6_1 177.09(16) . . ?
O28_1 Fe23_1 N6_1 83.86(17) . . ?
O29_1 Fe23_1 N6_1 85.03(18) . . ?
O36_1 Fe23_1 N6_1 82.77(18) . . ?
O37_1 Fe23_1 N6_1 82.4(2) . . ?
O20_1 Fe23_1 Fe22_1 30.36(16) . . ?
O28_1 Fe23_1 Fe22_1 76.68(17) . . ?
O29_1 Fe23_1 Fe22_1 117.16(18) . . ?
O36_1 Fe23_1 Fe22_1 74.96(18) . . ?
O37_1 Fe23_1 Fe22_1 115.5(2) . . ?
N6_1 Fe23_1 Fe22_1 149.58(7) . . ?
O20_1 Fe23_1 Fe21_1 29.62(16) . . ?
O28_1 Fe23_1 Fe21_1 118.63(17) . . ?
O29_1 Fe23_1 Fe21_1 76.77(18) . . ?
O36_1 Fe23_1 Fe21_1 113.41(18) . . ?
O37_1 Fe23_1 Fe21_1 74.6(2) . . ?
N6_1 Fe23_1 Fe21_1 150.12(7) . . ?
Fe22_1 Fe23_1 Fe21_1 59.97(4) . . ?
O67W_1 Fe31_1 O39_1 64.4(4) 1_554 . ?
O67W_1 Fe31_1 O51_1 83.2(3) 1_554 . ?
O39_1 Fe31_1 O51_1 96.7(3) . . ?
O67W_1 Fe31_1 O40_1 34.0(5) 1_554 . ?
O39_1 Fe31_1 O40_1 96.7(3) . . ?
O51_1 Fe31_1 O40_1 89.4(3) . . ?
O67W_1 Fe31_1 O52_1 104.2(3) 1_554 . ?
O39_1 Fe31_1 O52_1 96.0(3) . . ?
O51_1 Fe31_1 O52_1 167.1(3) . . ?
O40_1 Fe31_1 O52_1 91.2(3) . . ?
O67W_1 Fe31_1 O57_1 158.5(5) 1_554 . ?
O39_1 Fe31_1 O57_1 95.5(3) . . ?
O51_1 Fe31_1 O57_1 91.9(3) . . ?
O40_1 Fe31_1 O57_1 167.5(3) . . ?
O52_1 Fe31_1 O57_1 84.8(3) . . ?
O67W_1 Fe31_1 N7_1 117.7(4) 1_554 . ?
O39_1 Fe31_1 N7_1 177.59(18) . . ?
O51_1 Fe31_1 N7_1 84.8(2) . . ?
O40_1 Fe31_1 N7_1 85.2(2) . . ?
O52_1 Fe31_1 N7_1 82.5(2) . . ?
O57_1 Fe31_1 N7_1 82.5(2) . . ?
O67W_1 Fe31_1 Fe33_1 83.9(4) 1_554 . ?
O39_1 Fe31_1 Fe33_1 30.15(17) . . ?
O51_1 Fe31_1 Fe33_1 76.2(2) . . ?
O40_1 Fe31_1 Fe33_1 117.8(2) . . ?
O52_1 Fe31_1 Fe33_1 114.7(2) . . ?
O57_1 Fe31_1 Fe33_1 74.6(2) . . ?
N7_1 Fe31_1 Fe33_1 149.41(8) . . ?
O67W_1 Fe31_1 Fe32_1 51.9(4) 1_554 . ?
O39_1 Fe31_1 Fe32_1 29.84(17) . . ?
O51_1 Fe31_1 Fe32_1 117.4(2) . . ?
O40_1 Fe31_1 Fe32_1 76.1(2) . . ?
O52_1 Fe31_1 Fe32_1 75.1(2) . . ?
O57_1 Fe31_1 Fe32_1 114.08(19) . . ?
N7_1 Fe31_1 Fe32_1 150.29(8) . . ?
Fe33_1 Fe31_1 Fe32_1 59.96(4) . . ?
O39_1 Fe32_1 O43_1 97.5(3) . . ?
O39_1 Fe32_1 O44_1 97.8(2) . . ?
O43_1 Fe32_1 O44_1 89.5(3) . . ?
O39_1 Fe32_1 O54_1 95.8(2) . . ?
O43_1 Fe32_1 O54_1 166.6(3) . . ?
O44_1 Fe32_1 O54_1 90.5(3) . . ?
O39_1 Fe32_1 O53_1 94.9(2) . . ?
O43_1 Fe32_1 O53_1 91.2(3) . . ?
O44_1 Fe32_1 O53_1 167.1(3) . . ?
O54_1 Fe32_1 O53_1 85.8(3) . . ?
O39_1 Fe32_1 N8_1 176.91(17) . . ?
O43_1 Fe32_1 N8_1 84.6(2) . . ?
O44_1 Fe32_1 N8_1 84.44(19) . . ?
O54_1 Fe32_1 N8_1 82.04(19) . . ?
O53_1 Fe32_1 N8_1 82.80(19) . . ?
O39_1 Fe32_1 Fe33_1 30.11(16) . . ?
O43_1 Fe32_1 Fe33_1 118.2(2) . . ?
O44_1 Fe32_1 Fe33_1 76.76(18) . . ?
O54_1 Fe32_1 Fe33_1 74.81(19) . . ?
O53_1 Fe32_1 Fe33_1 114.00(19) . . ?
N8_1 Fe32_1 Fe33_1 149.81(7) . . ?
O39_1 Fe32_1 Fe31_1 29.93(16) . . ?
O43_1 Fe32_1 Fe31_1 77.1(2) . . ?
O44_1 Fe32_1 Fe31_1 118.94(19) . . ?
O54_1 Fe32_1 Fe31_1 114.42(19) . . ?
O53_1 Fe32_1 Fe31_1 73.74(19) . . ?
N8_1 Fe32_1 Fe31_1 149.67(7) . . ?
Fe33_1 Fe32_1 Fe31_1 60.02(4) . . ?
O39_1 Fe33_1 O48_1 97.4(3) . . ?
O39_1 Fe33_1 O47_1 97.7(2) . . ?
O48_1 Fe33_1 O47_1 89.8(3) . . ?
O39_1 Fe33_1 O55_1 95.4(2) . . ?
O48_1 Fe33_1 O55_1 167.1(3) . . ?
O47_1 Fe33_1 O55_1 90.2(3) . . ?
O39_1 Fe33_1 O56_1 95.3(2) . . ?
O48_1 Fe33_1 O56_1 91.4(3) . . ?
O47_1 Fe33_1 O56_1 166.6(3) . . ?
O55_1 Fe33_1 O56_1 85.7(3) . . ?
O39_1 Fe33_1 N9_1 177.14(18) . . ?
O48_1 Fe33_1 N9_1 84.3(2) . . ?
O47_1 Fe33_1 N9_1 84.53(19) . . ?
O55_1 Fe33_1 N9_1 82.83(19) . . ?
O56_1 Fe33_1 N9_1 82.33(19) . . ?
O39_1 Fe33_1 Fe32_1 29.96(16) . . ?
O48_1 Fe33_1 Fe32_1 117.9(2) . . ?
O47_1 Fe33_1 Fe32_1 76.51(18) . . ?
O55_1 Fe33_1 Fe32_1 74.64(19) . . ?
O56_1 Fe33_1 Fe32_1 114.43(19) . . ?
N9_1 Fe33_1 Fe32_1 150.25(7) . . ?
O39_1 Fe33_1 Fe31_1 30.09(16) . . ?
O48_1 Fe33_1 Fe31_1 77.1(2) . . ?
O47_1 Fe33_1 Fe31_1 119.19(19) . . ?
O55_1 Fe33_1 Fe31_1 113.97(18) . . ?
O56_1 Fe33_1 Fe31_1 74.01(18) . . ?
N9_1 Fe33_1 Fe31_1 149.29(7) . . ?
Fe32_1 Fe33_1 Fe31_1 60.02(4) . . ?
O58_1 Fe41_1 O67_1 98.0(2) . . ?
O58_1 Fe41_1 O66_1 97.5(2) . . ?
O67_1 Fe41_1 O66_1 89.5(3) . . ?
O58_1 Fe41_1 O74_1 94.2(3) . . ?
O67_1 Fe41_1 O74_1 167.6(3) . . ?
O66_1 Fe41_1 O74_1 91.0(3) . . ?
O58_1 Fe41_1 O75_1 95.1(3) . . ?
O67_1 Fe41_1 O75_1 91.5(3) . . ?
O66_1 Fe41_1 O75_1 167.1(3) . . ?
O74_1 Fe41_1 O75_1 85.3(3) . . ?
O58_1 Fe41_1 N10_1 177.04(16) . . ?
O67_1 Fe41_1 N10_1 84.8(2) . . ?
O66_1 Fe41_1 N10_1 83.5(2) . . ?
O74_1 Fe41_1 N10_1 83.0(2) . . ?
O75_1 Fe41_1 N10_1 83.8(2) . . ?
O58_1 Fe41_1 Fe42_1 30.24(15) . . ?
O67_1 Fe41_1 Fe42_1 77.0(2) . . ?
O66_1 Fe41_1 Fe42_1 118.44(19) . . ?
O74_1 Fe41_1 Fe42_1 113.4(2) . . ?
O75_1 Fe41_1 Fe42_1 74.3(2) . . ?
N10_1 Fe41_1 Fe42_1 150.87(7) . . ?
O58_1 Fe41_1 Fe43_1 29.74(15) . . ?
O67_1 Fe41_1 Fe43_1 118.4(2) . . ?
O66_1 Fe41_1 Fe43_1 76.68(19) . . ?
O74_1 Fe41_1 Fe43_1 73.7(2) . . ?
O75_1 Fe41_1 Fe43_1 113.9(2) . . ?
N10_1 Fe41_1 Fe43_1 148.81(7) . . ?
Fe42_1 Fe41_1 Fe43_1 59.97(4) . . ?
O58_1 Fe42_1 O70_1 96.8(2) . . ?
O58_1 Fe42_1 O59_1 97.8(2) . . ?
O70_1 Fe42_1 O59_1 87.5(3) . . ?
O58_1 Fe42_1 O76_1 95.7(2) . . ?
O70_1 Fe42_1 O76_1 92.9(3) . . ?
O59_1 Fe42_1 O76_1 166.4(3) . . ?
O58_1 Fe42_1 O71_1 95.5(2) . . ?
O70_1 Fe42_1 O71_1 167.8(3) . . ?
O59_1 Fe42_1 O71_1 90.9(3) . . ?
O76_1 Fe42_1 O71_1 85.7(3) . . ?
O58_1 Fe42_1 N11_1 178.12(15) . . ?
O70_1 Fe42_1 N11_1 84.02(19) . . ?
O59_1 Fe42_1 N11_1 83.96(18) . . ?
O76_1 Fe42_1 N11_1 82.54(19) . . ?
O71_1 Fe42_1 N11_1 83.75(19) . . ?
O58_1 Fe42_1 Fe41_1 30.11(17) . . ?
O70_1 Fe42_1 Fe41_1 76.64(19) . . ?
O59_1 Fe42_1 Fe41_1 118.50(19) . . ?
O76_1 Fe42_1 Fe41_1 74.8(2) . . ?
O71_1 Fe42_1 Fe41_1 114.54(19) . . ?
N11_1 Fe42_1 Fe41_1 149.12(7) . . ?
O58_1 Fe42_1 Fe43_1 30.00(17) . . ?
O70_1 Fe42_1 Fe43_1 116.72(18) . . ?
O59_1 Fe42_1 Fe43_1 76.86(17) . . ?
O76_1 Fe42_1 Fe43_1 114.76(19) . . ?
O71_1 Fe42_1 Fe43_1 74.63(19) . . ?
N11_1 Fe42_1 Fe43_1 150.61(8) . . ?
Fe41_1 Fe42_1 Fe43_1 60.09(4) . . ?
O58_1 Fe43_1 O62_1 96.8(2) . . ?
O58_1 Fe43_1 O63_1 98.0(2) . . ?
O62_1 Fe43_1 O63_1 87.6(3) . . ?
O58_1 Fe43_1 O72_1 95.6(2) . . ?
O62_1 Fe43_1 O72_1 92.0(3) . . ?
O63_1 Fe43_1 O72_1 166.4(3) . . ?
O58_1 Fe43_1 O73_1 93.9(3) . . ?
O62_1 Fe43_1 O73_1 169.2(3) . . ?
O63_1 Fe43_1 O73_1 92.4(3) . . ?
O72_1 Fe43_1 O73_1 85.5(3) . . ?
O58_1 Fe43_1 N12_1 177.54(15) . . ?
O62_1 Fe43_1 N12_1 85.29(18) . . ?
O63_1 Fe43_1 N12_1 83.34(19) . . ?
O72_1 Fe43_1 N12_1 83.10(19) . . ?
O73_1 Fe43_1 N12_1 84.0(2) . . ?
O58_1 Fe43_1 Fe42_1 30.17(17) . . ?
O62_1 Fe43_1 Fe42_1 76.86(17) . . ?
O63_1 Fe43_1 Fe42_1 118.98(18) . . ?
O72_1 Fe43_1 Fe42_1 74.01(18) . . ?
O73_1 Fe43_1 Fe42_1 112.4(2) . . ?
N12_1 Fe43_1 Fe42_1 150.21(8) . . ?
O58_1 Fe43_1 Fe41_1 29.78(17) . . ?
O62_1 Fe43_1 Fe41_1 116.42(19) . . ?
O63_1 Fe43_1 Fe41_1 76.96(19) . . ?
O72_1 Fe43_1 Fe41_1 115.10(19) . . ?
O73_1 Fe43_1 Fe41_1 74.0(2) . . ?
N12_1 Fe43_1 Fe41_1 149.56(7) . . ?
Fe42_1 Fe43_1 Fe41_1 59.94(4) . . ?
O11_1 S112_1 O12_1 112.7(5) . . ?
O11_1 S112_1 O13_1 110.8(4) . . ?
O12_1 S112_1 O13_1 106.8(4) . . ?
O11_1 S112_1 O10_1 109.9(4) . . ?
O12_1 S112_1 O10_1 108.4(4) . . ?
O13_1 S112_1 O10_1 108.0(3) . . ?
O8_1 S113_1 O7_1 112.2(6) . . ?
O8_1 S113_1 O9_1 108.9(4) . . ?
O7_1 S113_1 O9_1 108.7(5) . . ?
O8_1 S113_1 O6_1 110.0(4) . . ?
O7_1 S113_1 O6_1 108.5(4) . . ?
O9_1 S113_1 O6_1 108.5(3) . . ?
O3_1 S123_1 O4_1 114.3(5) . . ?
O3_1 S123_1 O2_1 108.4(4) . . ?
O4_1 S123_1 O2_1 109.1(4) . . ?
O3_1 S123_1 O5_1 108.2(4) . . ?
O4_1 S123_1 O5_1 108.9(4) . . ?
O2_1 S123_1 O5_1 107.7(3) . . ?
O22_1 S212_1 O23_1 114.3(6) . . ?
O22_1 S212_1 O21_1 108.1(4) . . ?
O23_1 S212_1 O21_1 108.2(5) . . ?
O22_1 S212_1 O24_1 109.5(5) . . ?
O23_1 S212_1 O24_1 108.0(4) . . ?
O21_1 S212_1 O24_1 108.5(3) . . ?
O30_1 S213_1 O31_1 113.3(5) . . ?
O30_1 S213_1 O32_1 110.7(5) . . ?
O31_1 S213_1 O32_1 107.2(4) . . ?
O30_1 S213_1 O29_1 109.7(5) . . ?
O31_1 S213_1 O29_1 107.7(4) . . ?
O32_1 S213_1 O29_1 108.0(4) . . ?
O27_1 S223_1 O26_1 115.2(6) . . ?
O27_1 S223_1 O28_1 108.4(5) . . ?
O26_1 S223_1 O28_1 107.7(5) . . ?
O27_1 S223_1 O25_1 109.4(4) . . ?
O26_1 S223_1 O25_1 107.9(5) . . ?
O28_1 S223_1 O25_1 108.1(4) . . ?
O41_1 S312_1 O42_1 114.3(7) . . ?
O41_1 S312_1 O40_1 108.3(6) . . ?
O42_1 S312_1 O40_1 109.3(6) . . ?
O41_1 S312_1 O43_1 109.0(5) . . ?
O42_1 S312_1 O43_1 107.9(6) . . ?
O40_1 S312_1 O43_1 107.8(4) . . ?
O41_1 S312_1 O67W_1 114.7(6) . 1_554 ?
O42_1 S312_1 O67W_1 127.1(5) . 1_554 ?
O40_1 S312_1 O67W_1 35.0(4) . 1_554 ?
O43_1 S312_1 O67W_1 73.4(4) . 1_554 ?
O50_1 S313_1 O49_1 114.3(6) . . ?
O50_1 S313_1 O48_1 108.3(5) . . ?
O49_1 S313_1 O48_1 107.5(5) . . ?
O50_1 S313_1 O51_1 108.6(6) . . ?
O49_1 S313_1 O51_1 110.4(6) . . ?
O48_1 S313_1 O51_1 107.4(4) . . ?
O46_1 S323_1 O45_1 115.6(5) . . ?
O46_1 S323_1 O47_1 108.8(4) . . ?
O45_1 S323_1 O47_1 109.4(4) . . ?
O46_1 S323_1 O44_1 108.0(5) . . ?
O45_1 S323_1 O44_1 108.0(4) . . ?
O47_1 S323_1 O44_1 106.7(4) . . ?
O46_1 S323_1 O92W_1 138.9(5) . 2_675 ?
O45_1 S323_1 O92W_1 38.1(4) . 2_675 ?
O47_1 S323_1 O92W_1 72.5(4) . 2_675 ?
O44_1 S323_1 O92W_1 110.8(3) . 2_675 ?
O69_1 S412_1 O68_1 111.9(6) . . ?
O69_1 S412_1 O70_1 109.0(5) . . ?
O68_1 S412_1 O70_1 108.3(5) . . ?
O69_1 S412_1 O67_1 109.4(5) . . ?
O68_1 S412_1 O67_1 110.2(5) . . ?
O70_1 S412_1 O67_1 107.9(4) . . ?
O65_1 S413_1 O64_1 113.5(5) . . ?
O65_1 S413_1 O63_1 108.5(5) . . ?
O64_1 S413_1 O63_1 108.0(5) . . ?
O65_1 S413_1 O66_1 109.4(5) . . ?
O64_1 S413_1 O66_1 109.0(5) . . ?
O63_1 S413_1 O66_1 108.3(4) . . ?
O60_1 S423_1 O61_1 115.1(5) . . ?
O60_1 S423_1 O59_1 110.4(4) . . ?
O61_1 S423_1 O59_1 105.8(4) . . ?
O60_1 S423_1 O62_1 109.1(4) . . ?
O61_1 S423_1 O62_1 108.4(4) . . ?
O59_1 S423_1 O62_1 107.7(4) . . ?
Fe12_1 O1_1 Fe11_1 120.3(3) . . ?
Fe12_1 O1_1 Fe13_1 120.2(2) . . ?
Fe11_1 O1_1 Fe13_1 119.4(2) . . ?
S123_1 O2_1 Fe12_1 134.0(3) . . ?
S123_1 O5_1 Fe13_1 135.6(4) . . ?
S113_1 O6_1 Fe13_1 134.1(4) . . ?
S113_1 O9_1 Fe11_1 135.6(3) . . ?
S112_1 O10_1 Fe11_1 133.4(3) . . ?
S112_1 O13_1 Fe12_1 135.4(3) . . ?
C21B_1 O14_1 Fe12_1 131.8(5) . . ?
C21B_1 O15_1 Fe13_1 132.4(5) . . ?
C1A_1 O16_1 Fe13_1 133.3(6) . . ?
C1A_1 O17_1 Fe11_1 132.0(6) . . ?
C41C_1 O18_1 Fe11_1 133.7(6) . . ?
C41C_1 O19_1 Fe12_1 132.2(6) . . ?
Fe21_1 O20_1 Fe23_1 120.7(3) . . ?
Fe21_1 O20_1 Fe22_1 119.7(3) . . ?
Fe23_1 O20_1 Fe22_1 119.5(3) . . ?
S212_1 O21_1 Fe21_1 135.2(4) . . ?
S212_1 O24_1 Fe22_1 133.6(4) . . ?
S223_1 O25_1 Fe22_1 134.6(4) . . ?
S223_1 O28_1 Fe23_1 135.4(4) . . ?
S213_1 O29_1 Fe23_1 135.2(4) . . ?
S213_1 O32_1 Fe21_1 134.8(4) . . ?
C100_1 O33_1 Fe21_1 129.8(6) . . ?
C100_1 O34_1 Fe22_1 133.1(6) . . ?
C40B_1 O35_1 Fe22_1 132.0(6) . . ?
C40B_1 O36_1 Fe23_1 132.3(6) . . ?
C120_1 O37_1 Fe23_1 132.6(6) . . ?
C120_1 O38_1 Fe21_1 132.7(7) . . ?
Fe32_1 O39_1 Fe31_1 120.2(3) . . ?
Fe32_1 O39_1 Fe33_1 119.9(3) . . ?
Fe31_1 O39_1 Fe33_1 119.8(3) . . ?
O67W_1 O40_1 S312_1 94.8(7) 1_554 . ?
O67W_1 O40_1 Fe31_1 58.1(5) 1_554 . ?
S312_1 O40_1 Fe31_1 135.2(4) . . ?
S312_1 O43_1 Fe32_1 133.7(4) . . ?
S323_1 O44_1 Fe32_1 133.2(4) . . ?
O92W_1 O45_1 S323_1 96.9(7) 2_675 . ?
S323_1 O47_1 Fe33_1 134.1(4) . . ?
S313_1 O48_1 Fe33_1 133.8(4) . . ?
S313_1 O51_1 Fe31_1 135.1(4) . . ?
C61D_1 O52_1 Fe31_1 132.3(6) . . ?
C61D_1 O53_1 Fe32_1 133.1(7) . . ?
C101_1 O54_1 Fe32_1 131.8(6) . . ?
C101_1 O55_1 Fe33_1 131.8(6) . . ?
C60C_1 O56_1 Fe33_1 133.4(7) . . ?
C60C_1 O57_1 Fe31_1 132.2(6) . . ?
Fe43_1 O58_1 Fe41_1 120.5(3) . . ?
Fe43_1 O58_1 Fe42_1 119.8(3) . . ?
Fe41_1 O58_1 Fe42_1 119.6(3) . . ?
S423_1 O59_1 Fe42_1 135.3(4) . . ?
S423_1 O62_1 Fe43_1 134.5(4) . . ?
S413_1 O63_1 Fe43_1 133.7(4) . . ?
S413_1 O66_1 Fe41_1 133.3(4) . . ?
S412_1 O67_1 Fe41_1 134.8(4) . . ?
S412_1 O70_1 Fe42_1 133.8(4) . . ?
C80D_1 O71_1 Fe42_1 131.8(6) . . ?
C80D_1 O72_1 Fe43_1 133.0(6) . . ?
C20A_1 O73_1 Fe43_1 133.3(7) . . ?
C20A_1 O74_1 Fe41_1 134.9(7) . . ?
C81E_1 O75_1 Fe41_1 130.3(7) . . ?
C81E_1 O76_1 Fe42_1 132.3(6) . . ?
O16_1 C1A_1 O17_1 126.0(8) . . ?
O16_1 C1A_1 C2A_1 119.0(9) . . ?
O17_1 C1A_1 C2A_1 115.0(9) . . ?
C7A_1 C2A_1 C3A_1 120.6(6) . . ?
C7A_1 C2A_1 C1A_1 121.5(8) . . ?
C3A_1 C2A_1 C1A_1 117.9(8) . . ?
C4A_1 C3A_1 C2A_1 119.6(4) . . ?
C4A_1 C3A_1 H12A_1 120.2 . . ?
C2A_1 C3A_1 H12A_1 120.2 . . ?
C5A_1 C4A_1 C3A_1 120.0 . . ?
C5A_1 C4A_1 H13A_1 120.0 . . ?
C3A_1 C4A_1 H13A_1 120.0 . . ?
C4A_1 C5A_1 C6A_1 120.0 . . ?
C4A_1 C5A_1 C8A_1 120.0 . . ?
C6A_1 C5A_1 C8A_1 119.9 . . ?
C7A_1 C6A_1 C5A_1 120.0 . . ?
C7A_1 C6A_1 H15A_1 120.0 . . ?
C5A_1 C6A_1 H15A_1 120.0 . . ?
C2A_1 C7A_1 C6A_1 119.9(4) . . ?
C2A_1 C7A_1 H16A_1 120.0 . . ?
C6A_1 C7A_1 H16A_1 120.1 . . ?
C9A_1 C8A_1 C13A_1 120.0 . . ?
C9A_1 C8A_1 C5A_1 119.9 . . ?
C13A_1 C8A_1 C5A_1 120.0 . . ?
C8A_1 C9A_1 C10A_1 120.0 . . ?
C8A_1 C9A_1 H18A_1 120.0 . . ?
C10A_1 C9A_1 H18A_1 120.0 . . ?
C11A_1 C10A_1 C9A_1 120.0 . . ?
C11A_1 C10A_1 H19A_1 120.0 . . ?
C9A_1 C10A_1 H19A_1 120.0 . . ?
C10A_1 C11A_1 C12A_1 120.0 . . ?
C10A_1 C11A_1 C14A_1 120.8 . . ?
C12A_1 C11A_1 C14A_1 119.0 . . ?
C11A_1 C12A_1 C13A_1 120.0 . . ?
C11A_1 C12A_1 H21A_1 120.0 . . ?
C13A_1 C12A_1 H21A_1 120.0 . . ?
C8A_1 C13A_1 C12A_1 120.0 . . ?
C8A_1 C13A_1 H22A_1 120.0 . . ?
C12A_1 C13A_1 H22A_1 120.0 . . ?
C15A_1 C14A_1 C19A_1 120.0 . . ?
C15A_1 C14A_1 C11A_1 117.8 . . ?
C19A_1 C14A_1 C11A_1 122.2 . . ?
C14A_1 C15A_1 C16A_1 120.0 . . ?
C14A_1 C15A_1 H24A_1 120.0 . . ?
C16A_1 C15A_1 H24A_1 120.0 . . ?
C17A_1 C16A_1 C15A_1 120.0 . . ?
C17A_1 C16A_1 H25A_1 120.0 . . ?
C15A_1 C16A_1 H25A_1 120.0 . . ?
C18A_1 C17A_1 C16A_1 120.0 . . ?
C18A_1 C17A_1 C20A_1 121.0(6) . . ?
C16A_1 C17A_1 C20A_1 118.9(6) . . ?
C19A_1 C18A_1 C17A_1 120.0 . . ?
C19A_1 C18A_1 H27A_1 120.0 . . ?
C17A_1 C18A_1 H27A_1 120.0 . . ?
C18A_1 C19A_1 C14A_1 120.0 . . ?
C18A_1 C19A_1 H28A_1 120.0 . . ?
C14A_1 C19A_1 H28A_1 120.0 . . ?
O73_1 C20A_1 O74_1 124.0(9) . . ?
O73_1 C20A_1 C17A_1 116.7(10) . . ?
O74_1 C20A_1 C17A_1 119.3(10) . . ?
O15_1 C21B_1 O14_1 126.8(8) . . ?
O15_1 C21B_1 C22B_1 116.1(8) . . ?
O14_1 C21B_1 C22B_1 117.0(8) . . ?
C23B_1 C22B_1 C27B_1 121.3(6) . . ?
C23B_1 C22B_1 C21B_1 119.8(7) . . ?
C27B_1 C22B_1 C21B_1 118.9(7) . . ?
C22B_1 C23B_1 C24B_1 119.5(4) . . ?
C22B_1 C23B_1 H12B_1 120.3 . . ?
C24B_1 C23B_1 H12B_1 120.3 . . ?
C25B_1 C24B_1 C23B_1 120.0 . . ?
C25B_1 C24B_1 H13B_1 120.0 . . ?
C23B_1 C24B_1 H13B_1 120.0 . . ?
C24B_1 C25B_1 C26B_1 120.0 . . ?
C24B_1 C25B_1 C28B_1 120.8 . . ?
C26B_1 C25B_1 C28B_1 119.2 . . ?
C27B_1 C26B_1 C25B_1 120.0 . . ?
C27B_1 C26B_1 H15B_1 120.0 . . ?
C25B_1 C26B_1 H15B_1 120.0 . . ?
C22B_1 C27B_1 C26B_1 119.2(4) . . ?
C22B_1 C27B_1 H16B_1 120.3 . . ?
C26B_1 C27B_1 H16B_1 120.4 . . ?
C29B_1 C28B_1 C33B_1 120.0 . . ?
C29B_1 C28B_1 C25B_1 119.4 . . ?
C33B_1 C28B_1 C25B_1 120.5 . . ?
C28B_1 C29B_1 C30B_1 120.0 . . ?
C28B_1 C29B_1 H18B_1 120.0 . . ?
C30B_1 C29B_1 H18B_1 120.0 . . ?
C31B_1 C30B_1 C29B_1 120.0 . . ?
C31B_1 C30B_1 H19B_1 120.0 . . ?
C29B_1 C30B_1 H19B_1 120.0 . . ?
C30B_1 C31B_1 C32B_1 120.0 . . ?
C30B_1 C31B_1 C34B_1 120.8 . . ?
C32B_1 C31B_1 C34B_1 119.2 . . ?
C33B_1 C32B_1 C31B_1 120.0 . . ?
C33B_1 C32B_1 H21B_1 120.0 . . ?
C31B_1 C32B_1 H21B_1 120.0 . . ?
C32B_1 C33B_1 C28B_1 120.0 . . ?
C32B_1 C33B_1 H22B_1 120.0 . . ?
C28B_1 C33B_1 H22B_1 120.0 . . ?
C35B_1 C34B_1 C39B_1 120.0 . . ?
C35B_1 C34B_1 C31B_1 118.6 . . ?
C39B_1 C34B_1 C31B_1 121.3 . . ?
C36B_1 C35B_1 C34B_1 120.0 . . ?
C36B_1 C35B_1 H24B_1 120.0 . . ?
C34B_1 C35B_1 H24B_1 120.0 . . ?
C35B_1 C36B_1 C37B_1 120.0 . . ?
C35B_1 C36B_1 H25B_1 120.0 . . ?
C37B_1 C36B_1 H25B_1 120.0 . . ?
C38B_1 C37B_1 C36B_1 120.0 . . ?
C38B_1 C37B_1 C40B_1 121.1(4) . . ?
C36B_1 C37B_1 C40B_1 118.8(4) . . ?
C37B_1 C38B_1 C39B_1 120.0 . . ?
C37B_1 C38B_1 H27B_1 120.0 . . ?
C39B_1 C38B_1 H27B_1 120.0 . . ?
C34B_1 C39B_1 C38B_1 120.0 . . ?
C34B_1 C39B_1 H28B_1 120.0 . . ?
C38B_1 C39B_1 H28B_1 120.0 . . ?
O36_1 C40B_1 O35_1 127.0(8) . . ?
O36_1 C40B_1 C37B_1 118.2(7) . . ?
O35_1 C40B_1 C37B_1 114.8(8) . . ?
O19_1 C41C_1 O18_1 125.2(8) . . ?
O19_1 C41C_1 C42C_1 117.4(8) . . ?
O18_1 C41C_1 C42C_1 117.4(8) . . ?
C43C_1 C42C_1 C47C_1 120.3(7) . . ?
C43C_1 C42C_1 C41C_1 120.7(8) . . ?
C47C_1 C42C_1 C41C_1 119.0(8) . . ?
C42C_1 C43C_1 C44C_1 120.0(4) . . ?
C42C_1 C43C_1 H12C_1 120.0 . . ?
C44C_1 C43C_1 H12C_1 120.0 . . ?
C43C_1 C44C_1 C45C_1 120.0 . . ?
C43C_1 C44C_1 H13C_1 120.0 . . ?
C45C_1 C44C_1 H13C_1 120.0 . . ?
C44C_1 C45C_1 C46C_1 120.0 . . ?
C44C_1 C45C_1 C48C_1 119.7 . . ?
C46C_1 C45C_1 C48C_1 120.3 . . ?
C45C_1 C46C_1 C47C_1 120.0 . . ?
C45C_1 C46C_1 H15C_1 120.0 . . ?
C47C_1 C46C_1 H15C_1 120.0 . . ?
C46C_1 C47C_1 C42C_1 119.7(4) . . ?
C46C_1 C47C_1 H16C_1 119.9 . . ?
C42C_1 C47C_1 H16C_1 120.4 . . ?
C49C_1 C48C_1 C53C_1 120.0 . . ?
C49C_1 C48C_1 C45C_1 121.6 . . ?
C53C_1 C48C_1 C45C_1 118.3 . . ?
C50C_1 C49C_1 C48C_1 120.0 . . ?
C50C_1 C49C_1 H18C_1 120.0 . . ?
C48C_1 C49C_1 H18C_1 120.0 . . ?
C49C_1 C50C_1 C51C_1 120.0 . . ?
C49C_1 C50C_1 H19C_1 120.0 . . ?
C51C_1 C50C_1 H19C_1 120.0 . . ?
C52C_1 C51C_1 C50C_1 120.0 . . ?
C52C_1 C51C_1 C54C_1 120.3 . . ?
C50C_1 C51C_1 C54C_1 119.4 . . ?
C51C_1 C52C_1 C53C_1 120.0 . . ?
C51C_1 C52C_1 H21C_1 120.0 . . ?
C53C_1 C52C_1 H21C_1 120.0 . . ?
C48C_1 C53C_1 C52C_1 120.0 . . ?
C48C_1 C53C_1 H22C_1 120.0 . . ?
C52C_1 C53C_1 H22C_1 120.0 . . ?
C55C_1 C54C_1 C59C_1 120.0 . . ?
C55C_1 C54C_1 C51C_1 120.4 . . ?
C59C_1 C54C_1 C51C_1 119.6 . . ?
C56C_1 C55C_1 C54C_1 120.0 . . ?
C56C_1 C55C_1 H24C_1 120.0 . . ?
C54C_1 C55C_1 H24C_1 120.0 . . ?
C55C_1 C56C_1 C57C_1 120.0 . . ?
C55C_1 C56C_1 H25C_1 120.0 . . ?
C57C_1 C56C_1 H25C_1 120.0 . . ?
C58C_1 C57C_1 C56C_1 120.0 . . ?
C58C_1 C57C_1 C60C_1 119.7(5) . . ?
C56C_1 C57C_1 C60C_1 120.2(5) . . ?
C57C_1 C58C_1 C59C_1 120.0 . . ?
C57C_1 C58C_1 H27C_1 120.0 . . ?
C59C_1 C58C_1 H27C_1 120.0 . . ?
C58C_1 C59C_1 C54C_1 120.0 . . ?
C58C_1 C59C_1 H28C_1 120.0 . . ?
C54C_1 C59C_1 H28C_1 120.0 . . ?
O56_1 C60C_1 O57_1 125.8(9) . . ?
O56_1 C60C_1 C57C_1 117.0(9) . . ?
O57_1 C60C_1 C57C_1 117.2(8) . . ?
O52_1 C61D_1 O53_1 125.7(10) . . ?
O52_1 C61D_1 C62D_1 119.8(9) . . ?
O53_1 C61D_1 C62D_1 114.4(11) . . ?
C67D_1 C62D_1 C63D_1 120.8(7) . . ?
C67D_1 C62D_1 C61D_1 121.2(9) . . ?
C63D_1 C62D_1 C61D_1 118.0(9) . . ?
C62D_1 C63D_1 C64D_1 119.5(5) . . ?
C62D_1 C63D_1 H12D_1 120.3 . . ?
C64D_1 C63D_1 H12D_1 120.3 . . ?
C65D_1 C64D_1 C63D_1 120.0 . . ?
C65D_1 C64D_1 H13D_1 120.0 . . ?
C63D_1 C64D_1 H13D_1 120.0 . . ?
C64D_1 C65D_1 C66D_1 120.0 . . ?
C64D_1 C65D_1 C68D_1 120.8 . . ?
C66D_1 C65D_1 C68D_1 119.1 . . ?
C67D_1 C66D_1 C65D_1 120.0 . . ?
C67D_1 C66D_1 H15D_1 120.0 . . ?
C65D_1 C66D_1 H15D_1 120.0 . . ?
C62D_1 C67D_1 C66D_1 119.7(4) . . ?
C62D_1 C67D_1 H16D_1 120.2 . . ?
C66D_1 C67D_1 H16D_1 120.1 . . ?
C73D_1 C68D_1 C69D_1 120.0 . . ?
C73D_1 C68D_1 C65D_1 120.2 . . ?
C69D_1 C68D_1 C65D_1 119.8 . . ?
C68D_1 C69D_1 C70D_1 120.0 . . ?
C68D_1 C69D_1 H18D_1 120.0 . . ?
C70D_1 C69D_1 H18D_1 120.0 . . ?
C71D_1 C70D_1 C69D_1 120.0 . . ?
C71D_1 C70D_1 H19D_1 120.0 . . ?
C69D_1 C70D_1 H19D_1 120.0 . . ?
C70D_1 C71D_1 C72D_1 120.0 . . ?
C70D_1 C71D_1 C74D_1 120.6 . . ?
C72D_1 C71D_1 C74D_1 119.3 . . ?
C73D_1 C72D_1 C71D_1 120.0 . . ?
C73D_1 C72D_1 H21D_1 120.0 . . ?
C71D_1 C72D_1 H21D_1 120.0 . . ?
C72D_1 C73D_1 C68D_1 120.0 . . ?
C72D_1 C73D_1 H22D_1 120.0 . . ?
C68D_1 C73D_1 H22D_1 120.0 . . ?
C79D_1 C74D_1 C75D_1 120.0 . . ?
C79D_1 C74D_1 C71D_1 120.1 . . ?
C75D_1 C74D_1 C71D_1 119.8 . . ?
C76D_1 C75D_1 C74D_1 120.0 . . ?
C76D_1 C75D_1 H24D_1 120.0 . . ?
C74D_1 C75D_1 H24D_1 120.0 . . ?
C75D_1 C76D_1 C77D_1 120.0 . . ?
C75D_1 C76D_1 H25D_1 120.0 . . ?
C77D_1 C76D_1 H25D_1 120.0 . . ?
C78D_1 C77D_1 C76D_1 120.0 . . ?
C78D_1 C77D_1 C80D_1 119.6(4) . . ?
C76D_1 C77D_1 C80D_1 120.2(4) . . ?
C77D_1 C78D_1 C79D_1 120.0 . . ?
C77D_1 C78D_1 H27D_1 120.0 . . ?
C79D_1 C78D_1 H27D_1 120.0 . . ?
C74D_1 C79D_1 C78D_1 120.0 . . ?
C74D_1 C79D_1 H28D_1 120.0 . . ?
C78D_1 C79D_1 H28D_1 120.0 . . ?
O71_1 C80D_1 O72_1 126.6(9) . . ?
O71_1 C80D_1 C77D_1 117.5(8) . . ?
O72_1 C80D_1 C77D_1 115.9(8) . . ?
O76_1 C81E_1 O75_1 128.3(9) . . ?
O76_1 C81E_1 C82E_1 118.8(11) . . ?
O75_1 C81E_1 C82E_1 112.8(11) . . ?
C87E_1 C82E_1 C83E_1 120.6(7) . . ?
C87E_1 C82E_1 C81E_1 118.6(10) . . ?
C83E_1 C82E_1 C81E_1 120.8(10) . . ?
C84E_1 C83E_1 C82E_1 119.2(4) . . ?
C84E_1 C83E_1 H12E_1 120.4 . . ?
C82E_1 C83E_1 H12E_1 120.4 . . ?
C83E_1 C84E_1 C85E_1 120.0 . . ?
C83E_1 C84E_1 H13E_1 120.0 . . ?
C85E_1 C84E_1 H13E_1 120.0 . . ?
C86E_1 C85E_1 C84E_1 120.0 . . ?
C86E_1 C85E_1 C88E_1 119.7 . . ?
C84E_1 C85E_1 C88E_1 120.3 . . ?
C85E_1 C86E_1 C87E_1 120.0 . . ?
C85E_1 C86E_1 H15E_1 120.0 . . ?
C87E_1 C86E_1 H15E_1 120.0 . . ?
C82E_1 C87E_1 C86E_1 120.1(5) . . ?
C82E_1 C87E_1 H16E_1 119.7 . . ?
C86E_1 C87E_1 H16E_1 120.2 . . ?
C89E_1 C88E_1 C93E_1 120.0 . . ?
C89E_1 C88E_1 C85E_1 119.6 . . ?
C93E_1 C88E_1 C85E_1 120.4 . . ?
C88E_1 C89E_1 C90E_1 120.0 . . ?
C88E_1 C89E_1 H18E_1 120.0 . . ?
C90E_1 C89E_1 H18E_1 120.0 . . ?
C91E_1 C90E_1 C89E_1 120.0 . . ?
C91E_1 C90E_1 H19E_1 120.0 . . ?
C89E_1 C90E_1 H19E_1 120.0 . . ?
C90E_1 C91E_1 C92E_1 120.0 . . ?
C90E_1 C91E_1 C94E_1 119.8 . . ?
C92E_1 C91E_1 C94E_1 120.1 . . ?
C93E_1 C92E_1 C91E_1 120.0 . . ?
C93E_1 C92E_1 H21E_1 120.0 . . ?
C91E_1 C92E_1 H21E_1 120.0 . . ?
C92E_1 C93E_1 C88E_1 120.0 . . ?
C92E_1 C93E_1 H22E_1 120.0 . . ?
C88E_1 C93E_1 H22E_1 120.0 . . ?
C95E_1 C94E_1 C99E_1 120.0 . . ?
C95E_1 C94E_1 C91E_1 120.6 . . ?
C99E_1 C94E_1 C91E_1 119.3 . . ?
C96E_1 C95E_1 C94E_1 120.0 . . ?
C96E_1 C95E_1 H24E_1 120.0 . . ?
C94E_1 C95E_1 H24E_1 120.0 . . ?
C97E_1 C96E_1 C95E_1 120.0 . . ?
C97E_1 C96E_1 H25E_1 120.0 . . ?
C95E_1 C96E_1 H25E_1 120.0 . . ?
C96E_1 C97E_1 C98E_1 120.0 . . ?
C96E_1 C97E_1 C100_1 119.0(5) . . ?
C98E_1 C97E_1 C100_1 121.0(5) . . ?
C99E_1 C98E_1 C97E_1 120.0 . . ?
C99E_1 C98E_1 H27E_1 120.0 . . ?
C97E_1 C98E_1 H27E_1 120.0 . . ?
C98E_1 C99E_1 C94E_1 120.0 . . ?
C98E_1 C99E_1 H28E_1 120.0 . . ?
C94E_1 C99E_1 H28E_1 120.0 . . ?
O34_1 C100_1 O33_1 127.7(9) . . ?
O34_1 C100_1 C97E_1 117.5(9) . . ?
O33_1 C100_1 C97E_1 114.7(9) . . ?
O55_1 C101_1 O54_1 126.5(8) . . ?
O55_1 C101_1 C102_1 117.1(11) . . ?
O54_1 C101_1 C102_1 116.4(10) . . ?
C103_1 C102_1 C107_1 120.8(7) . . ?
C103_1 C102_1 C101_1 119.6(9) . . ?
C107_1 C102_1 C101_1 119.5(9) . . ?
C102_1 C103_1 C104_1 119.9(4) . . ?
C102_1 C103_1 H12F_1 120.0 . . ?
C104_1 C103_1 H12F_1 120.0 . . ?
C105_1 C104_1 C103_1 120.0 . . ?
C105_1 C104_1 H13F_1 120.0 . . ?
C103_1 C104_1 H13F_1 120.0 . . ?
C104_1 C105_1 C106_1 120.0 . . ?
C104_1 C105_1 C108_1 121.1 . . ?
C106_1 C105_1 C108_1 118.9 . . ?
C105_1 C106_1 C107_1 120.0 . . ?
C105_1 C106_1 H15F_1 120.0 . . ?
C107_1 C106_1 H15F_1 120.0 . . ?
C106_1 C107_1 C102_1 119.2(4) . . ?
C106_1 C107_1 H16F_1 120.5 . . ?
C102_1 C107_1 H16F_1 120.3 . . ?
C109_1 C108_1 C113_1 120.0 . . ?
C109_1 C108_1 C105_1 118.4 . . ?
C113_1 C108_1 C105_1 121.2 . . ?
C108_1 C109_1 C110_1 120.0 . . ?
C108_1 C109_1 H18F_1 120.0 . . ?
C110_1 C109_1 H18F_1 120.0 . . ?
C111_1 C110_1 C109_1 120.0 . . ?
C111_1 C110_1 H19F_1 120.0 . . ?
C109_1 C110_1 H19F_1 120.0 . . ?
C112_1 C111_1 C110_1 120.0 . . ?
C112_1 C111_1 C114_1 118.6 . . ?
C110_1 C111_1 C114_1 121.4 . . ?
C111_1 C112_1 C113_1 120.0 . . ?
C111_1 C112_1 H21F_1 120.0 . . ?
C113_1 C112_1 H21F_1 120.0 . . ?
C112_1 C113_1 C108_1 120.0 . . ?
C112_1 C113_1 H22F_1 120.0 . . ?
C108_1 C113_1 H22F_1 120.0 . . ?
C115_1 C114_1 C119_1 120.0 . . ?
C115_1 C114_1 C111_1 118.8 . . ?
C119_1 C114_1 C111_1 121.2 . . ?
C114_1 C115_1 C116_1 120.0 . . ?
C114_1 C115_1 H24F_1 120.0 . . ?
C116_1 C115_1 H24F_1 120.0 . . ?
C117_1 C116_1 C115_1 120.0 . . ?
C117_1 C116_1 H25F_1 120.0 . . ?
C115_1 C116_1 H25F_1 120.0 . . ?
C116_1 C117_1 C118_1 120.0 . . ?
C116_1 C117_1 C120_1 120.7(5) . . ?
C118_1 C117_1 C120_1 119.2(5) . . ?
C117_1 C118_1 C119_1 120.0 . . ?
C117_1 C118_1 H27F_1 120.0 . . ?
C119_1 C118_1 H27F_1 120.0 . . ?
C114_1 C119_1 C118_1 120.0 . . ?
C114_1 C119_1 H28F_1 120.0 . . ?
C118_1 C119_1 H28F_1 120.0 . . ?
O37_1 C120_1 O38_1 125.9(9) . . ?
O37_1 C120_1 C117_1 118.4(9) . . ?
O38_1 C120_1 C117_1 115.7(10) . . ?
C125_1 N1_1 C121_1 122.0(5) . . ?
C125_1 N1_1 Fe11_1 119.5(4) . . ?
C121_1 N1_1 Fe11_1 118.6(5) . . ?
N1_1 C121_1 C122_1 119.0(3) . . ?
N1_1 C121_1 H111_1 120.5 . . ?
C122_1 C121_1 H111_1 120.5 . . ?
C123_1 C122_1 C121_1 120.0 . . ?
C123_1 C122_1 H112_1 120.0 . . ?
C121_1 C122_1 H112_1 120.0 . . ?
C124_1 C123_1 C122_1 120.0 . . ?
C124_1 C123_1 H113_1 120.0 . . ?
C122_1 C123_1 H113_1 120.0 . . ?
C125_1 C124_1 C123_1 120.0 . . ?
C125_1 C124_1 H114_1 120.0 . . ?
C123_1 C124_1 H114_1 120.0 . . ?
N1_1 C125_1 C124_1 119.1(3) . . ?
N1_1 C125_1 H115_1 120.5 . . ?
C124_1 C125_1 H115_1 120.4 . . ?
C130_1 N2_1 C126_1 120.0 . . ?
C130_1 N2_1 Fe12_1 119.22(5) . . ?
C126_1 N2_1 Fe12_1 120.77(5) . . ?
C127_1 C126_1 N2_1 120.0 . . ?
C127_1 C126_1 H121_1 120.0 . . ?
N2_1 C126_1 H121_1 120.0 . . ?
C126_1 C127_1 C128_1 120.0 . . ?
C126_1 C127_1 H122_1 120.0 . . ?
C128_1 C127_1 H122_1 120.0 . . ?
C129_1 C128_1 C127_1 120.0 . . ?
C129_1 C128_1 H123_1 120.0 . . ?
C127_1 C128_1 H123_1 120.0 . . ?
C128_1 C129_1 C130_1 120.0 . . ?
C128_1 C129_1 H124_1 120.0 . . ?
C130_1 C129_1 H124_1 120.0 . . ?
N2_1 C130_1 C129_1 120.0 . . ?
N2_1 C130_1 H125_1 120.0 . . ?
C129_1 C130_1 H125_1 120.0 . . ?
C131_1 N3_1 C135_1 120.0 . . ?
C131_1 N3_1 Fe13_1 119.7 . . ?
C135_1 N3_1 Fe13_1 120.3 . . ?
N3_1 C131_1 C132_1 120.0 . . ?
N3_1 C131_1 H131_1 120.0 . . ?
C132_1 C131_1 H131_1 120.0 . . ?
C133_1 C132_1 C131_1 120.0 . . ?
C133_1 C132_1 H132_1 120.0 . . ?
C131_1 C132_1 H132_1 120.0 . . ?
C134_1 C133_1 C132_1 120.0 . . ?
C134_1 C133_1 H133_1 120.0 . . ?
C132_1 C133_1 H133_1 120.0 . . ?
C133_1 C134_1 C135_1 120.0 . . ?
C133_1 C134_1 H134_1 120.0 . . ?
C135_1 C134_1 H134_1 120.0 . . ?
C134_1 C135_1 N3_1 120.0 . . ?
C134_1 C135_1 H135_1 120.0 . . ?
N3_1 C135_1 H135_1 120.0 . . ?
C136_1 N4_1 C140_1 120.0 . . ?
C136_1 N4_1 Fe21_1 119.76(5) . . ?
C140_1 N4_1 Fe21_1 120.23(5) . . ?
C137_1 C136_1 N4_1 120.0 . . ?
C137_1 C136_1 H211_1 120.0 . . ?
N4_1 C136_1 H211_1 120.0 . . ?
C138_1 C137_1 C136_1 120.0 . . ?
C138_1 C137_1 H212_1 120.0 . . ?
C136_1 C137_1 H212_1 120.0 . . ?
C137_1 C138_1 C139_1 120.0 . . ?
C137_1 C138_1 H213_1 120.0 . . ?
C139_1 C138_1 H213_1 120.0 . . ?
C140_1 C139_1 C138_1 120.0 . . ?
C140_1 C139_1 H214_1 120.0 . . ?
C138_1 C139_1 H214_1 120.0 . . ?
C139_1 C140_1 N4_1 120.0 . . ?
C139_1 C140_1 H215_1 120.0 . . ?
N4_1 C140_1 H215_1 120.0 . . ?
C141_1 N5_1 C145_1 120.0 . . ?
C141_1 N5_1 Fe22_1 120.08(5) . . ?
C145_1 N5_1 Fe22_1 119.92(5) . . ?
C142_1 C141_1 N5_1 120.0 . . ?
C142_1 C141_1 H221_1 120.0 . . ?
N5_1 C141_1 H221_1 120.0 . . ?
C143_1 C142_1 C141_1 120.0 . . ?
C143_1 C142_1 H222_1 120.0 . . ?
C141_1 C142_1 H222_1 120.0 . . ?
C142_1 C143_1 C144_1 120.0 . . ?
C142_1 C143_1 H223_1 120.0 . . ?
C144_1 C143_1 H223_1 120.0 . . ?
C145_1 C144_1 C143_1 120.0 . . ?
C145_1 C144_1 H224_1 120.0 . . ?
C143_1 C144_1 H224_1 120.0 . . ?
C144_1 C145_1 N5_1 120.0 . . ?
C144_1 C145_1 H225_1 120.0 . . ?
N5_1 C145_1 H225_1 120.0 . . ?
C146_1 N6_1 C150_1 120.0 . . ?
C146_1 N6_1 Fe23_1 119.95(5) . . ?
C150_1 N6_1 Fe23_1 120.05(5) . . ?
N6_1 C146_1 C147_1 120.0 . . ?
N6_1 C146_1 H231_1 120.0 . . ?
C147_1 C146_1 H231_1 120.0 . . ?
C148_1 C147_1 C146_1 120.0 . . ?
C148_1 C147_1 H232_1 120.0 . . ?
C146_1 C147_1 H232_1 120.0 . . ?
C149_1 C148_1 C147_1 120.0 . . ?
C149_1 C148_1 H233_1 120.0 . . ?
C147_1 C148_1 H233_1 120.0 . . ?
C150_1 C149_1 C148_1 120.0 . . ?
C150_1 C149_1 H234_1 120.0 . . ?
C148_1 C149_1 H234_1 120.0 . . ?
C149_1 C150_1 N6_1 120.0 . . ?
C149_1 C150_1 H235_1 120.0 . . ?
N6_1 C150_1 H235_1 120.0 . . ?
C151_1 N7_1 C155_1 120.0 . . ?
C151_1 N7_1 Fe31_1 120.19(6) . . ?
C155_1 N7_1 Fe31_1 119.78(6) . . ?
N7_1 C151_1 C152_1 120.0 . . ?
N7_1 C151_1 H311_1 120.0 . . ?
C152_1 C151_1 H311_1 120.0 . . ?
C153_1 C152_1 C151_1 120.0 . . ?
C153_1 C152_1 H312_1 120.0 . . ?
C151_1 C152_1 H312_1 120.0 . . ?
C154_1 C153_1 C152_1 120.0 . . ?
C154_1 C153_1 H313_1 120.0 . . ?
C152_1 C153_1 H313_1 120.0 . . ?
C153_1 C154_1 C155_1 120.0 . . ?
C153_1 C154_1 H314_1 120.0 . . ?
C155_1 C154_1 H314_1 120.0 . . ?
C154_1 C155_1 N7_1 120.0 . . ?
C154_1 C155_1 H315_1 120.0 . . ?
N7_1 C155_1 H315_1 120.0 . . ?
C160_1 N8_1 C156_1 120.0 . . ?
C160_1 N8_1 Fe32_1 119.55(5) . . ?
C156_1 N8_1 Fe32_1 120.36(5) . . ?
C157_1 C156_1 N8_1 120.0 . . ?
C157_1 C156_1 H321_1 120.0 . . ?
N8_1 C156_1 H321_1 120.0 . . ?
C158_1 C157_1 C156_1 120.0 . . ?
C158_1 C157_1 H322_1 120.0 . . ?
C156_1 C157_1 H322_1 120.0 . . ?
C157_1 C158_1 C159_1 120.0 . . ?
C157_1 C158_1 H323_1 120.0 . . ?
C159_1 C158_1 H323_1 120.0 . . ?
C158_1 C159_1 C160_1 120.0 . . ?
C158_1 C159_1 H324_1 120.0 . . ?
C160_1 C159_1 H324_1 120.0 . . ?
N8_1 C160_1 C159_1 120.0 . . ?
N8_1 C160_1 H325_1 120.0 . . ?
C159_1 C160_1 H325_1 120.0 . . ?
C161_1 N9_1 C165_1 120.0 . . ?
C161_1 N9_1 Fe33_1 119.2 . . ?
C165_1 N9_1 Fe33_1 120.7 . . ?
N9_1 C161_1 C162_1 120.0 . . ?
N9_1 C161_1 H331_1 120.0 . . ?
C162_1 C161_1 H331_1 120.0 . . ?
C161_1 C162_1 C163_1 120.0 . . ?
C161_1 C162_1 H332_1 120.0 . . ?
C163_1 C162_1 H332_1 120.0 . . ?
C164_1 C163_1 C162_1 120.0 . . ?
C164_1 C163_1 H333_1 120.0 . . ?
C162_1 C163_1 H333_1 120.0 . . ?
C163_1 C164_1 C165_1 120.0 . . ?
C163_1 C164_1 H334_1 120.0 . . ?
C165_1 C164_1 H334_1 120.0 . . ?
C164_1 C165_1 N9_1 120.0 . . ?
C164_1 C165_1 H335_1 120.0 . . ?
N9_1 C165_1 H335_1 120.0 . . ?
C170_1 N10_1 C166_1 120.0 . . ?
C170_1 N10_1 Fe41_1 120.2 . . ?
C166_1 N10_1 Fe41_1 119.70(5) . . ?
C167_1 C166_1 N10_1 120.0 . . ?
C167_1 C166_1 H411_1 120.0 . . ?
N10_1 C166_1 H411_1 120.0 . . ?
C168_1 C167_1 C166_1 120.0 . . ?
C168_1 C167_1 H412_1 120.0 . . ?
C166_1 C167_1 H412_1 120.0 . . ?
C167_1 C168_1 C169_1 120.0 . . ?
C167_1 C168_1 H413_1 120.0 . . ?
C169_1 C168_1 H413_1 120.0 . . ?
C168_1 C169_1 C170_1 120.0 . . ?
C168_1 C169_1 H414_1 120.0 . . ?
C170_1 C169_1 H414_1 120.0 . . ?
N10_1 C170_1 C169_1 120.0 . . ?
N10_1 C170_1 H415_1 120.0 . . ?
C169_1 C170_1 H415_1 120.0 . . ?
C171_1 N11_1 C175_1 120.0 . . ?
C171_1 N11_1 Fe42_1 119.31(6) . . ?
C175_1 N11_1 Fe42_1 120.68(5) . . ?
N11_1 C171_1 C172_1 120.0 . . ?
N11_1 C171_1 H421_1 120.0 . . ?
C172_1 C171_1 H421_1 120.0 . . ?
C173_1 C172_1 C171_1 120.0 . . ?
C173_1 C172_1 H422_1 120.0 . . ?
C171_1 C172_1 H422_1 120.0 . . ?
C172_1 C173_1 C174_1 120.0 . . ?
C172_1 C173_1 H423_1 120.0 . . ?
C174_1 C173_1 H423_1 120.0 . . ?
C175_1 C174_1 C173_1 120.0 . . ?
C175_1 C174_1 H424_1 120.0 . . ?
C173_1 C174_1 H424_1 120.0 . . ?
C174_1 C175_1 N11_1 120.0 . . ?
C174_1 C175_1 H425_1 120.0 . . ?
N11_1 C175_1 H425_1 120.0 . . ?
C180_1 N12_1 C176_1 120.0 . . ?
C180_1 N12_1 Fe43_1 119.45(6) . . ?
C176_1 N12_1 Fe43_1 120.54(6) . . ?
C177_1 C176_1 N12_1 120.0 . . ?
C177_1 C176_1 H431_1 120.0 . . ?
N12_1 C176_1 H431_1 120.0 . . ?
C176_1 C177_1 C178_1 120.0 . . ?
C176_1 C177_1 H432_1 120.0 . . ?
C178_1 C177_1 H432_1 120.0 . . ?
C179_1 C178_1 C177_1 120.0 . . ?
C179_1 C178_1 H433_1 120.0 . . ?
C177_1 C178_1 H433_1 120.0 . . ?
C178_1 C179_1 C180_1 120.0 . . ?
C178_1 C179_1 H434_1 120.0 . . ?
C180_1 C179_1 H434_1 120.0 . . ?
N12_1 C180_1 C179_1 120.0 . . ?
N12_1 C180_1 H435_1 120.0 . . ?
C179_1 C180_1 H435_1 120.0 . . ?
C181_1 N13S_1 C185_1 120.0 . . ?
N13S_1 C181_1 C182_1 120.0 . . ?
C181_1 C182_1 C183_1 120.0 . . ?
C184_1 C183_1 C182_1 120.0 . . ?
C183_1 C184_1 C185_1 120.0 . . ?
C184_1 C185_1 N13S_1 120.0 . . ?
C186_1 N14S_1 C190_1 120.0 . . ?
C187_1 C186_1 N14S_1 120.0 . . ?
C186_1 C187_1 C188_1 120.0 . . ?
C189_1 C188_1 C187_1 120.0 . . ?
C188_1 C189_1 C190_1 120.0 . . ?
C189_1 C190_1 N14S_1 120.0 . . ?
C206_1 N18S_1 C210_1 120.0 . . ?
N18S_1 C206_1 C207_1 120.0 . . ?
C208_1 C207_1 C206_1 120.0 . . ?
C207_1 C208_1 C209_1 120.0 . . ?
C208_1 C209_1 C210_1 120.0 . . ?
C209_1 C210_1 N18S_1 120.0 . . ?
O93W_1 O52W_1 O78W_1 78.7 . . ?
O93W_1 O52W_1 O99W_1 54.0 . . ?
O78W_1 O52W_1 O99W_1 132.7 . . ?
O57W_1 O56W_1 O58W_1 97.4 . . ?
O40_1 O67W_1 Fe31_1 87.9(6) 1_556 1_556 ?
O40_1 O67W_1 S312_1 50.2(5) 1_556 1_556 ?
Fe31_1 O67W_1 S312_1 125.4(5) 1_556 1_556 ?
O70W_1 O68W_1 O69W_1 94.2 . . ?
O76W_1 O74W_1 O75W_1 112.0 . . ?
O97W_1 O77W_1 O94W_1 54.8 . . ?
O52W_1 O78W_1 O93W_1 45.3 . . ?
O45_1 O92W_1 S323_1 45.1(4) 2_675 2_675 ?
O52W_1 O93W_1 O99W_1 79.6 . . ?
O52W_1 O93W_1 O78W_1 56.0 . . ?
O99W_1 O93W_1 O78W_1 135.5 . . ?
O96W_1 O94W_1 O97W_1 74.7 . . ?
O96W_1 O94W_1 O77W_1 110.6 . . ?
O97W_1 O94W_1 O77W_1 36.9 . . ?
O94W_1 O96W_1 O97W_1 57.2 . . ?
O77W_1 O97W_1 O94W_1 88.3 . . ?
O77W_1 O97W_1 O96W_1 134.5 . . ?
O94W_1 O97W_1 O96W_1 48.1 . . ?
O93W_1 O99W_1 O52W_1 46.5 . . ?

loop_
_geom_torsion_atom_site_label_1
_geom_torsion_atom_site_label_2
_geom_torsion_atom_site_label_3
_geom_torsion_atom_site_label_4
_geom_torsion
_geom_torsion_site_symmetry_1
_geom_torsion_site_symmetry_2
_geom_torsion_site_symmetry_3
_geom_torsion_site_symmetry_4
_geom_torsion_publ_flag
O10_1 Fe11_1 Fe12_1 O1_1 130.2(3) . . . . ?
O9_1 Fe11_1 Fe12_1 O1_1 49.2(3) . . . . ?
O18_1 Fe11_1 Fe12_1 O1_1 -134.0(3) . . . . ?
O17_1 Fe11_1 Fe12_1 O1_1 -56.5(3) . . . . ?
N1_1 Fe11_1 Fe12_1 O1_1 -173.7(4) . . . . ?
Fe13_1 Fe11_1 Fe12_1 O1_1 -1.7(3) . . . . ?
O1_1 Fe11_1 Fe12_1 O13_1 -133.6(3) . . . . ?
O10_1 Fe11_1 Fe12_1 O13_1 -3.4(3) . . . . ?
O9_1 Fe11_1 Fe12_1 O13_1 -84.5(3) . . . . ?
O18_1 Fe11_1 Fe12_1 O13_1 92.4(2) . . . . ?
O17_1 Fe11_1 Fe12_1 O13_1 169.9(3) . . . . ?
N1_1 Fe11_1 Fe12_1 O13_1 52.7(4) . . . . ?
Fe13_1 Fe11_1 Fe12_1 O13_1 -135.35(18) . . . . ?
O1_1 Fe11_1 Fe12_1 O2_1 -52.5(3) . . . . ?
O10_1 Fe11_1 Fe12_1 O2_1 77.7(3) . . . . ?
O9_1 Fe11_1 Fe12_1 O2_1 -3.4(3) . . . . ?
O18_1 Fe11_1 Fe12_1 O2_1 173.5(2) . . . . ?
O17_1 Fe11_1 Fe12_1 O2_1 -109.0(3) . . . . ?
N1_1 Fe11_1 Fe12_1 O2_1 133.8(4) . . . . ?
Fe13_1 Fe11_1 Fe12_1 O2_1 -54.23(18) . . . . ?
O1_1 Fe11_1 Fe12_1 O14_1 54.2(3) . . . . ?
O10_1 Fe11_1 Fe12_1 O14_1 -175.6(3) . . . . ?
O9_1 Fe11_1 Fe12_1 O14_1 103.4(3) . . . . ?
O18_1 Fe11_1 Fe12_1 O14_1 -79.8(3) . . . . ?
O17_1 Fe11_1 Fe12_1 O14_1 -2.3(3) . . . . ?
N1_1 Fe11_1 Fe12_1 O14_1 -119.5(4) . . . . ?
Fe13_1 Fe11_1 Fe12_1 O14_1 52.48(19) . . . . ?
O1_1 Fe11_1 Fe12_1 O19_1 131.9(3) . . . . ?
O10_1 Fe11_1 Fe12_1 O19_1 -97.9(2) . . . . ?
O9_1 Fe11_1 Fe12_1 O19_1 -179.0(3) . . . . ?
O18_1 Fe11_1 Fe12_1 O19_1 -2.1(2) . . . . ?
O17_1 Fe11_1 Fe12_1 O19_1 75.4(3) . . . . ?
N1_1 Fe11_1 Fe12_1 O19_1 -41.8(4) . . . . ?
Fe13_1 Fe11_1 Fe12_1 O19_1 130.14(18) . . . . ?
O1_1 Fe11_1 Fe12_1 N2_1 176.0(3) . . . . ?
O10_1 Fe11_1 Fe12_1 N2_1 -53.8(2) . . . . ?
O9_1 Fe11_1 Fe12_1 N2_1 -134.9(2) . . . . ?
O18_1 Fe11_1 Fe12_1 N2_1 42.0(2) . . . . ?
O17_1 Fe11_1 Fe12_1 N2_1 119.5(2) . . . . ?
N1_1 Fe11_1 Fe12_1 N2_1 2.3(4) . . . . ?
Fe13_1 Fe11_1 Fe12_1 N2_1 174.27(13) . . . . ?
O1_1 Fe11_1 Fe12_1 Fe13_1 1.7(3) . . . . ?
O10_1 Fe11_1 Fe12_1 Fe13_1 131.96(18) . . . . ?
O9_1 Fe11_1 Fe12_1 Fe13_1 50.9(2) . . . . ?
O18_1 Fe11_1 Fe12_1 Fe13_1 -132.29(17) . . . . ?
O17_1 Fe11_1 Fe12_1 Fe13_1 -54.8(2) . . . . ?
N1_1 Fe11_1 Fe12_1 Fe13_1 -172.0(4) . . . . ?
O10_1 Fe11_1 Fe13_1 O1_1 -52.8(3) . . . . ?
O9_1 Fe11_1 Fe13_1 O1_1 -134.2(3) . . . . ?
O18_1 Fe11_1 Fe13_1 O1_1 53.3(3) . . . . ?
O17_1 Fe11_1 Fe13_1 O1_1 130.1(3) . . . . ?
N1_1 Fe11_1 Fe13_1 O1_1 173.5(5) . . . . ?
Fe12_1 Fe11_1 Fe13_1 O1_1 1.7(3) . . . . ?
O1_1 Fe11_1 Fe13_1 O5_1 50.2(3) . . . . ?
O10_1 Fe11_1 Fe13_1 O5_1 -2.6(3) . . . . ?
O9_1 Fe11_1 Fe13_1 O5_1 -84.0(3) . . . . ?
O18_1 Fe11_1 Fe13_1 O5_1 103.5(3) . . . . ?
O17_1 Fe11_1 Fe13_1 O5_1 -179.7(3) . . . . ?
N1_1 Fe11_1 Fe13_1 O5_1 -136.3(4) . . . . ?
Fe12_1 Fe11_1 Fe13_1 O5_1 51.9(2) . . . . ?
O1_1 Fe11_1 Fe13_1 O6_1 131.8(3) . . . . ?
O10_1 Fe11_1 Fe13_1 O6_1 79.0(3) . . . . ?
O9_1 Fe11_1 Fe13_1 O6_1 -2.4(3) . . . . ?
O18_1 Fe11_1 Fe13_1 O6_1 -174.9(3) . . . . ?
O17_1 Fe11_1 Fe13_1 O6_1 -98.1(3) . . . . ?
N1_1 Fe11_1 Fe13_1 O6_1 -54.7(4) . . . . ?
Fe12_1 Fe11_1 Fe13_1 O6_1 133.47(19) . . . . ?
O1_1 Fe11_1 Fe13_1 O15_1 -55.4(3) . . . . ?
O10_1 Fe11_1 Fe13_1 O15_1 -108.1(3) . . . . ?
O9_1 Fe11_1 Fe13_1 O15_1 170.4(3) . . . . ?
O18_1 Fe11_1 Fe13_1 O15_1 -2.0(3) . . . . ?
O17_1 Fe11_1 Fe13_1 O15_1 74.8(3) . . . . ?
N1_1 Fe11_1 Fe13_1 O15_1 118.2(4) . . . . ?
Fe12_1 Fe11_1 Fe13_1 O15_1 -53.69(19) . . . . ?
O1_1 Fe11_1 Fe13_1 O16_1 -133.1(3) . . . . ?
O10_1 Fe11_1 Fe13_1 O16_1 174.1(3) . . . . ?
O9_1 Fe11_1 Fe13_1 O16_1 92.7(3) . . . . ?
O18_1 Fe11_1 Fe13_1 O16_1 -79.7(3) . . . . ?
O17_1 Fe11_1 Fe13_1 O16_1 -3.0(3) . . . . ?
N1_1 Fe11_1 Fe13_1 O16_1 40.4(4) . . . . ?
Fe12_1 Fe11_1 Fe13_1 O16_1 -131.40(19) . . . . ?
O1_1 Fe11_1 Fe13_1 N3_1 -173.4(3) . . . . ?
O10_1 Fe11_1 Fe13_1 N3_1 133.8(2) . . . . ?
O9_1 Fe11_1 Fe13_1 N3_1 52.4(2) . . . . ?
O18_1 Fe11_1 Fe13_1 N3_1 -120.1(2) . . . . ?
O17_1 Fe11_1 Fe13_1 N3_1 -43.3(2) . . . . ?
N1_1 Fe11_1 Fe13_1 N3_1 0.1(4) . . . . ?
Fe12_1 Fe11_1 Fe13_1 N3_1 -171.71(13) . . . . ?
O1_1 Fe11_1 Fe13_1 Fe12_1 -1.7(3) . . . . ?
O10_1 Fe11_1 Fe13_1 Fe12_1 -54.45(18) . . . . ?
O9_1 Fe11_1 Fe13_1 Fe12_1 -135.88(18) . . . . ?
O18_1 Fe11_1 Fe13_1 Fe12_1 51.66(18) . . . . ?
O17_1 Fe11_1 Fe13_1 Fe12_1 128.45(18) . . . . ?
N1_1 Fe11_1 Fe13_1 Fe12_1 171.8(4) . . . . ?
O13_1 Fe12_1 Fe13_1 O1_1 49.7(3) . . . . ?
O2_1 Fe12_1 Fe13_1 O1_1 130.0(3) . . . . ?
O14_1 Fe12_1 Fe13_1 O1_1 -133.4(3) . . . . ?
O19_1 Fe12_1 Fe13_1 O1_1 -55.6(3) . . . . ?
N2_1 Fe12_1 Fe13_1 O1_1 -176.3(3) . . . . ?
Fe11_1 Fe12_1 Fe13_1 O1_1 -1.7(3) . . . . ?
O1_1 Fe12_1 Fe13_1 O5_1 -132.7(3) . . . . ?
O13_1 Fe12_1 Fe13_1 O5_1 -83.1(3) . . . . ?
O2_1 Fe12_1 Fe13_1 O5_1 -2.7(2) . . . . ?
O14_1 Fe12_1 Fe13_1 O5_1 93.9(3) . . . . ?
O19_1 Fe12_1 Fe13_1 O5_1 171.7(3) . . . . ?
N2_1 Fe12_1 Fe13_1 O5_1 51.0(2) . . . . ?
Fe11_1 Fe12_1 Fe13_1 O5_1 -134.44(18) . . . . ?
O1_1 Fe12_1 Fe13_1 O6_1 -51.4(3) . . . . ?
O13_1 Fe12_1 Fe13_1 O6_1 -1.7(3) . . . . ?
O2_1 Fe12_1 Fe13_1 O6_1 78.6(3) . . . . ?
O14_1 Fe12_1 Fe13_1 O6_1 175.2(3) . . . . ?
O19_1 Fe12_1 Fe13_1 O6_1 -107.0(3) . . . . ?
N2_1 Fe12_1 Fe13_1 O6_1 132.3(2) . . . . ?
Fe11_1 Fe12_1 Fe13_1 O6_1 -53.1(2) . . . . ?
O1_1 Fe12_1 Fe13_1 O15_1 131.7(3) . . . . ?
O13_1 Fe12_1 Fe13_1 O15_1 -178.6(3) . . . . ?
O2_1 Fe12_1 Fe13_1 O15_1 -98.3(2) . . . . ?
O14_1 Fe12_1 Fe13_1 O15_1 -1.7(3) . . . . ?
O19_1 Fe12_1 Fe13_1 O15_1 76.1(3) . . . . ?
N2_1 Fe12_1 Fe13_1 O15_1 -44.6(2) . . . . ?
Fe11_1 Fe12_1 Fe13_1 O15_1 129.98(19) . . . . ?
O1_1 Fe12_1 Fe13_1 O16_1 54.2(3) . . . . ?
O13_1 Fe12_1 Fe13_1 O16_1 103.9(3) . . . . ?
O2_1 Fe12_1 Fe13_1 O16_1 -175.8(3) . . . . ?
O14_1 Fe12_1 Fe13_1 O16_1 -79.2(3) . . . . ?
O19_1 Fe12_1 Fe13_1 O16_1 -1.4(3) . . . . ?
N2_1 Fe12_1 Fe13_1 O16_1 -122.1(2) . . . . ?
Fe11_1 Fe12_1 Fe13_1 O16_1 52.47(19) . . . . ?
O1_1 Fe12_1 Fe13_1 N3_1 173.9(3) . . . . ?
O13_1 Fe12_1 Fe13_1 N3_1 -136.5(2) . . . . ?
O2_1 Fe12_1 Fe13_1 N3_1 -56.1(2) . . . . ?
O14_1 Fe12_1 Fe13_1 N3_1 40.4(2) . . . . ?
O19_1 Fe12_1 Fe13_1 N3_1 118.2(2) . . . . ?
N2_1 Fe12_1 Fe13_1 N3_1 -2.41(16) . . . . ?
Fe11_1 Fe12_1 Fe13_1 N3_1 172.14(13) . . . . ?
O1_1 Fe12_1 Fe13_1 Fe11_1 1.7(3) . . . . ?
O13_1 Fe12_1 Fe13_1 Fe11_1 51.39(19) . . . . ?
O2_1 Fe12_1 Fe13_1 Fe11_1 131.72(17) . . . . ?
O14_1 Fe12_1 Fe13_1 Fe11_1 -131.70(18) . . . . ?
O19_1 Fe12_1 Fe13_1 Fe11_1 -53.91(19) . . . . ?
N2_1 Fe12_1 Fe13_1 Fe11_1 -174.56(13) . . . . ?
O21_1 Fe21_1 Fe22_1 O20_1 134.5(3) . . . . ?
O32_1 Fe21_1 Fe22_1 O20_1 53.8(3) . . . . ?
O33_1 Fe21_1 Fe22_1 O20_1 -129.4(3) . . . . ?
O38_1 Fe21_1 Fe22_1 O20_1 -51.5(3) . . . . ?
N4_1 Fe21_1 Fe22_1 O20_1 -175.9(3) . . . . ?
Fe23_1 Fe21_1 Fe22_1 O20_1 -0.8(3) . . . . ?
O20_1 Fe21_1 Fe22_1 O25_1 -52.1(3) . . . . ?
O21_1 Fe21_1 Fe22_1 O25_1 82.3(3) . . . . ?
O32_1 Fe21_1 Fe22_1 O25_1 1.6(3) . . . . ?
O33_1 Fe21_1 Fe22_1 O25_1 178.5(3) . . . . ?
O38_1 Fe21_1 Fe22_1 O25_1 -103.7(3) . . . . ?
N4_1 Fe21_1 Fe22_1 O25_1 132.0(2) . . . . ?
Fe23_1 Fe21_1 Fe22_1 O25_1 -52.9(2) . . . . ?
O20_1 Fe21_1 Fe22_1 O24_1 -133.3(3) . . . . ?
O21_1 Fe21_1 Fe22_1 O24_1 1.1(2) . . . . ?
O32_1 Fe21_1 Fe22_1 O24_1 -79.6(3) . . . . ?
O33_1 Fe21_1 Fe22_1 O24_1 97.3(3) . . . . ?
O38_1 Fe21_1 Fe22_1 O24_1 175.1(3) . . . . ?
N4_1 Fe21_1 Fe22_1 O24_1 50.8(2) . . . . ?
Fe23_1 Fe21_1 Fe22_1 O24_1 -134.13(18) . . . . ?
O20_1 Fe21_1 Fe22_1 O34_1 130.6(3) . . . . ?
O21_1 Fe21_1 Fe22_1 O34_1 -95.0(3) . . . . ?
O32_1 Fe21_1 Fe22_1 O34_1 -175.7(3) . . . . ?
O33_1 Fe21_1 Fe22_1 O34_1 1.2(3) . . . . ?
O38_1 Fe21_1 Fe22_1 O34_1 79.0(3) . . . . ?
N4_1 Fe21_1 Fe22_1 O34_1 -45.3(2) . . . . ?
Fe23_1 Fe21_1 Fe22_1 O34_1 129.77(19) . . . . ?
O20_1 Fe21_1 Fe22_1 O35_1 53.6(3) . . . . ?
O21_1 Fe21_1 Fe22_1 O35_1 -171.9(3) . . . . ?
O32_1 Fe21_1 Fe22_1 O35_1 107.4(3) . . . . ?
O33_1 Fe21_1 Fe22_1 O35_1 -75.8(3) . . . . ?
O38_1 Fe21_1 Fe22_1 O35_1 2.1(3) . . . . ?
N4_1 Fe21_1 Fe22_1 O35_1 -122.3(2) . . . . ?
Fe23_1 Fe21_1 Fe22_1 O35_1 52.8(2) . . . . ?
O20_1 Fe21_1 Fe22_1 N5_1 173.8(3) . . . . ?
O21_1 Fe21_1 Fe22_1 N5_1 -51.8(2) . . . . ?
O32_1 Fe21_1 Fe22_1 N5_1 -132.5(2) . . . . ?
O33_1 Fe21_1 Fe22_1 N5_1 44.4(2) . . . . ?
O38_1 Fe21_1 Fe22_1 N5_1 122.2(2) . . . . ?
N4_1 Fe21_1 Fe22_1 N5_1 -2.12(16) . . . . ?
Fe23_1 Fe21_1 Fe22_1 N5_1 172.95(12) . . . . ?
O20_1 Fe21_1 Fe22_1 Fe23_1 0.8(3) . . . . ?
O21_1 Fe21_1 Fe22_1 Fe23_1 135.27(18) . . . . ?
O32_1 Fe21_1 Fe22_1 Fe23_1 54.6(2) . . . . ?
O33_1 Fe21_1 Fe22_1 Fe23_1 -128.60(19) . . . . ?
O38_1 Fe21_1 Fe22_1 Fe23_1 -50.7(2) . . . . ?
N4_1 Fe21_1 Fe22_1 Fe23_1 -175.07(13) . . . . ?
O25_1 Fe22_1 Fe23_1 O20_1 132.6(3) . . . . ?
O24_1 Fe22_1 Fe23_1 O20_1 51.8(3) . . . . ?
O34_1 Fe22_1 Fe23_1 O20_1 -54.3(3) . . . . ?
O35_1 Fe22_1 Fe23_1 O20_1 -131.3(3) . . . . ?
N5_1 Fe22_1 Fe23_1 O20_1 -173.3(3) . . . . ?
Fe21_1 Fe22_1 Fe23_1 O20_1 -0.8(3) . . . . ?
O20_1 Fe22_1 Fe23_1 O28_1 -134.1(3) . . . . ?
O25_1 Fe22_1 Fe23_1 O28_1 -1.5(3) . . . . ?
O24_1 Fe22_1 Fe23_1 O28_1 -82.3(3) . . . . ?
O34_1 Fe22_1 Fe23_1 O28_1 171.6(3) . . . . ?
O35_1 Fe22_1 Fe23_1 O28_1 94.6(3) . . . . ?
N5_1 Fe22_1 Fe23_1 O28_1 52.6(2) . . . . ?
Fe21_1 Fe22_1 Fe23_1 O28_1 -134.88(19) . . . . ?
O20_1 Fe22_1 Fe23_1 O29_1 -52.8(3) . . . . ?
O25_1 Fe22_1 Fe23_1 O29_1 79.8(3) . . . . ?
O24_1 Fe22_1 Fe23_1 O29_1 -1.0(3) . . . . ?
O34_1 Fe22_1 Fe23_1 O29_1 -107.1(3) . . . . ?
O35_1 Fe22_1 Fe23_1 O29_1 175.9(3) . . . . ?
N5_1 Fe22_1 Fe23_1 O29_1 133.9(2) . . . . ?
Fe21_1 Fe22_1 Fe23_1 O29_1 -53.6(2) . . . . ?
O20_1 Fe22_1 Fe23_1 O36_1 129.9(3) . . . . ?
O25_1 Fe22_1 Fe23_1 O36_1 -97.5(3) . . . . ?
O24_1 Fe22_1 Fe23_1 O36_1 -178.3(3) . . . . ?
O34_1 Fe22_1 Fe23_1 O36_1 75.6(3) . . . . ?
O35_1 Fe22_1 Fe23_1 O36_1 -1.4(3) . . . . ?
N5_1 Fe22_1 Fe23_1 O36_1 -43.5(2) . . . . ?
Fe21_1 Fe22_1 Fe23_1 O36_1 129.1(2) . . . . ?
O20_1 Fe22_1 Fe23_1 O37_1 52.7(3) . . . . ?
O25_1 Fe22_1 Fe23_1 O37_1 -174.7(3) . . . . ?
O24_1 Fe22_1 Fe23_1 O37_1 104.5(3) . . . . ?
O34_1 Fe22_1 Fe23_1 O37_1 -1.6(3) . . . . ?
O35_1 Fe22_1 Fe23_1 O37_1 -78.6(3) . . . . ?
N5_1 Fe22_1 Fe23_1 O37_1 -120.6(2) . . . . ?
Fe21_1 Fe22_1 Fe23_1 O37_1 51.9(2) . . . . ?
O20_1 Fe22_1 Fe23_1 N6_1 174.3(3) . . . . ?
O25_1 Fe22_1 Fe23_1 N6_1 -53.2(2) . . . . ?
O24_1 Fe22_1 Fe23_1 N6_1 -134.0(2) . . . . ?
O34_1 Fe22_1 Fe23_1 N6_1 120.0(2) . . . . ?
O35_1 Fe22_1 Fe23_1 N6_1 43.0(2) . . . . ?
N5_1 Fe22_1 Fe23_1 N6_1 0.90(17) . . . . ?
Fe21_1 Fe22_1 Fe23_1 N6_1 173.45(13) . . . . ?
O20_1 Fe22_1 Fe23_1 Fe21_1 0.8(3) . . . . ?
O25_1 Fe22_1 Fe23_1 Fe21_1 133.37(19) . . . . ?
O24_1 Fe22_1 Fe23_1 Fe21_1 52.6(2) . . . . ?
O34_1 Fe22_1 Fe23_1 Fe21_1 -53.5(2) . . . . ?
O35_1 Fe22_1 Fe23_1 Fe21_1 -130.49(19) . . . . ?
N5_1 Fe22_1 Fe23_1 Fe21_1 -172.54(13) . . . . ?
O21_1 Fe21_1 Fe23_1 O20_1 -50.6(3) . . . . ?
O32_1 Fe21_1 Fe23_1 O20_1 -130.2(3) . . . . ?
O33_1 Fe21_1 Fe23_1 O20_1 56.3(3) . . . . ?
O38_1 Fe21_1 Fe23_1 O20_1 134.5(3) . . . . ?
N4_1 Fe21_1 Fe23_1 O20_1 175.9(3) . . . . ?
Fe22_1 Fe21_1 Fe23_1 O20_1 0.8(3) . . . . ?
O20_1 Fe21_1 Fe23_1 O28_1 51.0(3) . . . . ?
O21_1 Fe21_1 Fe23_1 O28_1 0.4(3) . . . . ?
O32_1 Fe21_1 Fe23_1 O28_1 -79.3(3) . . . . ?
O33_1 Fe21_1 Fe23_1 O28_1 107.3(3) . . . . ?
O38_1 Fe21_1 Fe23_1 O28_1 -174.5(3) . . . . ?
N4_1 Fe21_1 Fe23_1 O28_1 -133.1(2) . . . . ?
Fe22_1 Fe21_1 Fe23_1 O28_1 51.8(2) . . . . ?
O20_1 Fe21_1 Fe23_1 O29_1 131.8(3) . . . . ?
O21_1 Fe21_1 Fe23_1 O29_1 81.3(3) . . . . ?
O32_1 Fe21_1 Fe23_1 O29_1 1.6(3) . . . . ?
O33_1 Fe21_1 Fe23_1 O29_1 -171.8(3) . . . . ?
O38_1 Fe21_1 Fe23_1 O29_1 -93.7(3) . . . . ?
N4_1 Fe21_1 Fe23_1 O29_1 -52.3(2) . . . . ?
Fe22_1 Fe21_1 Fe23_1 O29_1 132.65(19) . . . . ?
O20_1 Fe21_1 Fe23_1 O36_1 -55.6(3) . . . . ?
O21_1 Fe21_1 Fe23_1 O36_1 -106.2(3) . . . . ?
O32_1 Fe21_1 Fe23_1 O36_1 174.2(3) . . . . ?
O33_1 Fe21_1 Fe23_1 O36_1 0.7(3) . . . . ?
O38_1 Fe21_1 Fe23_1 O36_1 78.9(3) . . . . ?
N4_1 Fe21_1 Fe23_1 O36_1 120.3(2) . . . . ?
Fe22_1 Fe21_1 Fe23_1 O36_1 -54.8(2) . . . . ?
O20_1 Fe21_1 Fe23_1 O37_1 -133.4(3) . . . . ?
O21_1 Fe21_1 Fe23_1 O37_1 176.0(3) . . . . ?
O32_1 Fe21_1 Fe23_1 O37_1 96.4(3) . . . . ?
O33_1 Fe21_1 Fe23_1 O37_1 -77.0(3) . . . . ?
O38_1 Fe21_1 Fe23_1 O37_1 1.1(3) . . . . ?
N4_1 Fe21_1 Fe23_1 O37_1 42.5(2) . . . . ?
Fe22_1 Fe21_1 Fe23_1 O37_1 -132.6(2) . . . . ?
O20_1 Fe21_1 Fe23_1 N6_1 -174.2(3) . . . . ?
O21_1 Fe21_1 Fe23_1 N6_1 135.3(2) . . . . ?
O32_1 Fe21_1 Fe23_1 N6_1 55.6(2) . . . . ?
O33_1 Fe21_1 Fe23_1 N6_1 -117.8(2) . . . . ?
O38_1 Fe21_1 Fe23_1 N6_1 -39.6(2) . . . . ?
N4_1 Fe21_1 Fe23_1 N6_1 1.75(17) . . . . ?
Fe22_1 Fe21_1 Fe23_1 N6_1 -173.34(13) . . . . ?
O20_1 Fe21_1 Fe23_1 Fe22_1 -0.8(3) . . . . ?
O21_1 Fe21_1 Fe23_1 Fe22_1 -51.4(2) . . . . ?
O32_1 Fe21_1 Fe23_1 Fe22_1 -131.0(2) . . . . ?
O33_1 Fe21_1 Fe23_1 Fe22_1 55.5(2) . . . . ?
O38_1 Fe21_1 Fe23_1 Fe22_1 133.69(19) . . . . ?
N4_1 Fe21_1 Fe23_1 Fe22_1 175.09(13) . . . . ?
O67W_1 Fe31_1 Fe32_1 O39_1 105.3(5) 1_554 . . . ?
O51_1 Fe31_1 Fe32_1 O39_1 50.4(4) . . . . ?
O40_1 Fe31_1 Fe32_1 O39_1 132.2(4) . . . . ?
O52_1 Fe31_1 Fe32_1 O39_1 -132.7(4) . . . . ?
O57_1 Fe31_1 Fe32_1 O39_1 -55.5(4) . . . . ?
N7_1 Fe31_1 Fe32_1 O39_1 -175.2(3) . . . . ?
Fe33_1 Fe31_1 Fe32_1 O39_1 -2.0(3) . . . . ?
O67W_1 Fe31_1 Fe32_1 O43_1 -26.5(5) 1_554 . . . ?
O39_1 Fe31_1 Fe32_1 O43_1 -131.8(4) . . . . ?
O51_1 Fe31_1 Fe32_1 O43_1 -81.4(3) . . . . ?
O40_1 Fe31_1 Fe32_1 O43_1 0.5(3) . . . . ?
O52_1 Fe31_1 Fe32_1 O43_1 95.5(3) . . . . ?
O57_1 Fe31_1 Fe32_1 O43_1 172.8(3) . . . . ?
N7_1 Fe31_1 Fe32_1 O43_1 53.1(3) . . . . ?
Fe33_1 Fe31_1 Fe32_1 O43_1 -133.8(2) . . . . ?
O67W_1 Fe31_1 Fe32_1 O44_1 55.7(5) 1_554 . . . ?
O39_1 Fe31_1 Fe32_1 O44_1 -49.6(4) . . . . ?
O51_1 Fe31_1 Fe32_1 O44_1 0.8(3) . . . . ?
O40_1 Fe31_1 Fe32_1 O44_1 82.6(3) . . . . ?
O52_1 Fe31_1 Fe32_1 O44_1 177.6(3) . . . . ?
O57_1 Fe31_1 Fe32_1 O44_1 -105.1(3) . . . . ?
N7_1 Fe31_1 Fe32_1 O44_1 135.2(2) . . . . ?
Fe33_1 Fe31_1 Fe32_1 O44_1 -51.6(2) . . . . ?
O67W_1 Fe31_1 Fe32_1 O54_1 160.8(5) 1_554 . . . ?
O39_1 Fe31_1 Fe32_1 O54_1 55.5(4) . . . . ?
O51_1 Fe31_1 Fe32_1 O54_1 105.9(3) . . . . ?
O40_1 Fe31_1 Fe32_1 O54_1 -172.2(3) . . . . ?
O52_1 Fe31_1 Fe32_1 O54_1 -77.2(3) . . . . ?
O57_1 Fe31_1 Fe32_1 O54_1 0.1(3) . . . . ?
N7_1 Fe31_1 Fe32_1 O54_1 -119.6(2) . . . . ?
Fe33_1 Fe31_1 Fe32_1 O54_1 53.5(2) . . . . ?
O67W_1 Fe31_1 Fe32_1 O53_1 -121.6(5) 1_554 . . . ?
O39_1 Fe31_1 Fe32_1 O53_1 133.1(4) . . . . ?
O51_1 Fe31_1 Fe32_1 O53_1 -176.5(3) . . . . ?
O40_1 Fe31_1 Fe32_1 O53_1 -94.7(3) . . . . ?
O52_1 Fe31_1 Fe32_1 O53_1 0.4(3) . . . . ?
O57_1 Fe31_1 Fe32_1 O53_1 77.6(3) . . . . ?
N7_1 Fe31_1 Fe32_1 O53_1 -42.1(2) . . . . ?
Fe33_1 Fe31_1 Fe32_1 O53_1 131.1(2) . . . . ?
O67W_1 Fe31_1 Fe32_1 N8_1 -80.8(4) 1_554 . . . ?
O39_1 Fe31_1 Fe32_1 N8_1 173.9(3) . . . . ?
O51_1 Fe31_1 Fe32_1 N8_1 -135.7(3) . . . . ?
O40_1 Fe31_1 Fe32_1 N8_1 -53.9(3) . . . . ?
O52_1 Fe31_1 Fe32_1 N8_1 41.1(3) . . . . ?
O57_1 Fe31_1 Fe32_1 N8_1 118.4(3) . . . . ?
N7_1 Fe31_1 Fe32_1 N8_1 -1.3(2) . . . . ?
Fe33_1 Fe31_1 Fe32_1 N8_1 171.89(15) . . . . ?
O67W_1 Fe31_1 Fe32_1 Fe33_1 107.3(4) 1_554 . . . ?
O39_1 Fe31_1 Fe32_1 Fe33_1 2.0(3) . . . . ?
O51_1 Fe31_1 Fe32_1 Fe33_1 52.4(3) . . . . ?
O40_1 Fe31_1 Fe32_1 Fe33_1 134.2(2) . . . . ?
O52_1 Fe31_1 Fe32_1 Fe33_1 -130.8(2) . . . . ?
O57_1 Fe31_1 Fe32_1 Fe33_1 -53.5(2) . . . . ?
N7_1 Fe31_1 Fe32_1 Fe33_1 -173.16(15) . . . . ?
O43_1 Fe32_1 Fe33_1 O39_1 51.0(4) . . . . ?
O44_1 Fe32_1 Fe33_1 O39_1 133.2(4) . . . . ?
O54_1 Fe32_1 Fe33_1 O39_1 -132.6(4) . . . . ?
O53_1 Fe32_1 Fe33_1 O39_1 -54.3(4) . . . . ?
N8_1 Fe32_1 Fe33_1 O39_1 -173.8(3) . . . . ?
Fe31_1 Fe32_1 Fe33_1 O39_1 -2.0(3) . . . . ?
O39_1 Fe32_1 Fe33_1 O48_1 -51.3(4) . . . . ?
O43_1 Fe32_1 Fe33_1 O48_1 -0.3(3) . . . . ?
O44_1 Fe32_1 Fe33_1 O48_1 81.9(3) . . . . ?
O54_1 Fe32_1 Fe33_1 O48_1 176.0(3) . . . . ?
O53_1 Fe32_1 Fe33_1 O48_1 -105.7(3) . . . . ?
N8_1 Fe32_1 Fe33_1 O48_1 134.8(2) . . . . ?
Fe31_1 Fe32_1 Fe33_1 O48_1 -53.3(2) . . . . ?
O39_1 Fe32_1 Fe33_1 O47_1 -133.9(4) . . . . ?
O43_1 Fe32_1 Fe33_1 O47_1 -82.9(3) . . . . ?
O44_1 Fe32_1 Fe33_1 O47_1 -0.6(3) . . . . ?
O54_1 Fe32_1 Fe33_1 O47_1 93.5(3) . . . . ?
O53_1 Fe32_1 Fe33_1 O47_1 171.8(3) . . . . ?
N8_1 Fe32_1 Fe33_1 O47_1 52.3(2) . . . . ?
Fe31_1 Fe32_1 Fe33_1 O47_1 -135.84(19) . . . . ?
O39_1 Fe32_1 Fe33_1 O55_1 132.1(4) . . . . ?
O43_1 Fe32_1 Fe33_1 O55_1 -176.9(3) . . . . ?
O44_1 Fe32_1 Fe33_1 O55_1 -94.7(3) . . . . ?
O54_1 Fe32_1 Fe33_1 O55_1 -0.5(3) . . . . ?
O53_1 Fe32_1 Fe33_1 O55_1 77.8(3) . . . . ?
N8_1 Fe32_1 Fe33_1 O55_1 -41.7(2) . . . . ?
Fe31_1 Fe32_1 Fe33_1 O55_1 130.14(18) . . . . ?
O39_1 Fe32_1 Fe33_1 O56_1 54.3(4) . . . . ?
O43_1 Fe32_1 Fe33_1 O56_1 105.3(3) . . . . ?
O44_1 Fe32_1 Fe33_1 O56_1 -172.5(3) . . . . ?
O54_1 Fe32_1 Fe33_1 O56_1 -78.3(3) . . . . ?
O53_1 Fe32_1 Fe33_1 O56_1 0.0(3) . . . . ?
N8_1 Fe32_1 Fe33_1 O56_1 -119.5(2) . . . . ?
Fe31_1 Fe32_1 Fe33_1 O56_1 52.3(2) . . . . ?
O39_1 Fe32_1 Fe33_1 N9_1 174.3(3) . . . . ?
O43_1 Fe32_1 Fe33_1 N9_1 -134.7(2) . . . . ?
O44_1 Fe32_1 Fe33_1 N9_1 -52.5(2) . . . . ?
O54_1 Fe32_1 Fe33_1 N9_1 41.6(2) . . . . ?
O53_1 Fe32_1 Fe33_1 N9_1 119.9(2) . . . . ?
N8_1 Fe32_1 Fe33_1 N9_1 0.43(19) . . . . ?
Fe31_1 Fe32_1 Fe33_1 N9_1 172.28(14) . . . . ?
O39_1 Fe32_1 Fe33_1 Fe31_1 2.0(3) . . . . ?
O43_1 Fe32_1 Fe33_1 Fe31_1 53.0(2) . . . . ?
O44_1 Fe32_1 Fe33_1 Fe31_1 135.2(2) . . . . ?
O54_1 Fe32_1 Fe33_1 Fe31_1 -130.63(19) . . . . ?
O53_1 Fe32_1 Fe33_1 Fe31_1 -52.4(2) . . . . ?
N8_1 Fe32_1 Fe33_1 Fe31_1 -171.86(14) . . . . ?
O67W_1 Fe31_1 Fe33_1 O39_1 -47.1(4) 1_554 . . . ?
O51_1 Fe31_1 Fe33_1 O39_1 -131.6(4) . . . . ?
O40_1 Fe31_1 Fe33_1 O39_1 -49.8(4) . . . . ?
O52_1 Fe31_1 Fe33_1 O39_1 55.7(4) . . . . ?
O57_1 Fe31_1 Fe33_1 O39_1 132.4(4) . . . . ?
N7_1 Fe31_1 Fe33_1 O39_1 175.3(3) . . . . ?
Fe32_1 Fe31_1 Fe33_1 O39_1 2.0(3) . . . . ?
O67W_1 Fe31_1 Fe33_1 O48_1 84.2(3) 1_554 . . . ?
O39_1 Fe31_1 Fe33_1 O48_1 131.4(4) . . . . ?
O51_1 Fe31_1 Fe33_1 O48_1 -0.3(3) . . . . ?
O40_1 Fe31_1 Fe33_1 O48_1 81.5(3) . . . . ?
O52_1 Fe31_1 Fe33_1 O48_1 -173.0(3) . . . . ?
O57_1 Fe31_1 Fe33_1 O48_1 -96.2(3) . . . . ?
N7_1 Fe31_1 Fe33_1 O48_1 -53.3(2) . . . . ?
Fe32_1 Fe31_1 Fe33_1 O48_1 133.3(2) . . . . ?
O67W_1 Fe31_1 Fe33_1 O47_1 1.8(3) 1_554 . . . ?
O39_1 Fe31_1 Fe33_1 O47_1 48.9(4) . . . . ?
O51_1 Fe31_1 Fe33_1 O47_1 -82.7(3) . . . . ?
O40_1 Fe31_1 Fe33_1 O47_1 -0.9(3) . . . . ?
O52_1 Fe31_1 Fe33_1 O47_1 104.6(3) . . . . ?
O57_1 Fe31_1 Fe33_1 O47_1 -178.7(3) . . . . ?
N7_1 Fe31_1 Fe33_1 O47_1 -135.8(2) . . . . ?
Fe32_1 Fe31_1 Fe33_1 O47_1 50.9(2) . . . . ?
O67W_1 Fe31_1 Fe33_1 O55_1 -102.9(3) 1_554 . . . ?
O39_1 Fe31_1 Fe33_1 O55_1 -55.7(4) . . . . ?
O51_1 Fe31_1 Fe33_1 O55_1 172.6(3) . . . . ?
O40_1 Fe31_1 Fe33_1 O55_1 -105.6(3) . . . . ?
O52_1 Fe31_1 Fe33_1 O55_1 -0.1(3) . . . . ?
O57_1 Fe31_1 Fe33_1 O55_1 76.7(3) . . . . ?
N7_1 Fe31_1 Fe33_1 O55_1 119.6(2) . . . . ?
Fe32_1 Fe31_1 Fe33_1 O55_1 -53.8(2) . . . . ?
O67W_1 Fe31_1 Fe33_1 O56_1 179.5(3) 1_554 . . . ?
O39_1 Fe31_1 Fe33_1 O56_1 -133.4(4) . . . . ?
O51_1 Fe31_1 Fe33_1 O56_1 95.0(3) . . . . ?
O40_1 Fe31_1 Fe33_1 O56_1 176.8(3) . . . . ?
O52_1 Fe31_1 Fe33_1 O56_1 -77.7(3) . . . . ?
O57_1 Fe31_1 Fe33_1 O56_1 -1.0(3) . . . . ?
N7_1 Fe31_1 Fe33_1 O56_1 41.9(2) . . . . ?
Fe32_1 Fe31_1 Fe33_1 O56_1 -131.44(19) . . . . ?
O67W_1 Fe31_1 Fe33_1 N9_1 138.4(3) 1_554 . . . ?
O39_1 Fe31_1 Fe33_1 N9_1 -174.5(3) . . . . ?
O51_1 Fe31_1 Fe33_1 N9_1 53.9(3) . . . . ?
O40_1 Fe31_1 Fe33_1 N9_1 135.7(3) . . . . ?
O52_1 Fe31_1 Fe33_1 N9_1 -118.8(3) . . . . ?
O57_1 Fe31_1 Fe33_1 N9_1 -42.1(2) . . . . ?
N7_1 Fe31_1 Fe33_1 N9_1 0.83(19) . . . . ?
Fe32_1 Fe31_1 Fe33_1 N9_1 -172.50(14) . . . . ?
O67W_1 Fe31_1 Fe33_1 Fe32_1 -49.1(3) 1_554 . . . ?
O39_1 Fe31_1 Fe33_1 Fe32_1 -2.0(3) . . . . ?
O51_1 Fe31_1 Fe33_1 Fe32_1 -133.6(2) . . . . ?
O40_1 Fe31_1 Fe33_1 Fe32_1 -51.8(3) . . . . ?
O52_1 Fe31_1 Fe33_1 Fe32_1 53.7(2) . . . . ?
O57_1 Fe31_1 Fe33_1 Fe32_1 130.4(2) . . . . ?
N7_1 Fe31_1 Fe33_1 Fe32_1 173.34(15) . . . . ?
O67_1 Fe41_1 Fe42_1 O58_1 132.8(3) . . . . ?
O66_1 Fe41_1 Fe42_1 O58_1 50.6(3) . . . . ?
O74_1 Fe41_1 Fe42_1 O58_1 -54.2(3) . . . . ?
O75_1 Fe41_1 Fe42_1 O58_1 -131.9(3) . . . . ?
N10_1 Fe41_1 Fe42_1 O58_1 -174.5(3) . . . . ?
Fe43_1 Fe41_1 Fe42_1 O58_1 -1.4(3) . . . . ?
O58_1 Fe41_1 Fe42_1 O70_1 -130.6(3) . . . . ?
O67_1 Fe41_1 Fe42_1 O70_1 2.2(3) . . . . ?
O66_1 Fe41_1 Fe42_1 O70_1 -80.0(3) . . . . ?
O74_1 Fe41_1 Fe42_1 O70_1 175.1(3) . . . . ?
O75_1 Fe41_1 Fe42_1 O70_1 97.5(3) . . . . ?
N10_1 Fe41_1 Fe42_1 O70_1 54.9(2) . . . . ?
Fe43_1 Fe41_1 Fe42_1 O70_1 -132.04(19) . . . . ?
O58_1 Fe41_1 Fe42_1 O59_1 -51.0(3) . . . . ?
O67_1 Fe41_1 Fe42_1 O59_1 81.8(3) . . . . ?
O66_1 Fe41_1 Fe42_1 O59_1 -0.4(3) . . . . ?
O74_1 Fe41_1 Fe42_1 O59_1 -105.2(3) . . . . ?
O75_1 Fe41_1 Fe42_1 O59_1 177.2(3) . . . . ?
N10_1 Fe41_1 Fe42_1 O59_1 134.6(2) . . . . ?
Fe43_1 Fe41_1 Fe42_1 O59_1 -52.4(2) . . . . ?
O58_1 Fe41_1 Fe42_1 O76_1 132.5(3) . . . . ?
O67_1 Fe41_1 Fe42_1 O76_1 -94.7(3) . . . . ?
O66_1 Fe41_1 Fe42_1 O76_1 -176.9(3) . . . . ?
O74_1 Fe41_1 Fe42_1 O76_1 78.3(3) . . . . ?
O75_1 Fe41_1 Fe42_1 O76_1 0.6(3) . . . . ?
N10_1 Fe41_1 Fe42_1 O76_1 -42.0(2) . . . . ?
Fe43_1 Fe41_1 Fe42_1 O76_1 131.1(2) . . . . ?
O58_1 Fe41_1 Fe42_1 O71_1 54.6(3) . . . . ?
O67_1 Fe41_1 Fe42_1 O71_1 -172.6(3) . . . . ?
O66_1 Fe41_1 Fe42_1 O71_1 105.2(3) . . . . ?
O74_1 Fe41_1 Fe42_1 O71_1 0.4(3) . . . . ?
O75_1 Fe41_1 Fe42_1 O71_1 -77.3(3) . . . . ?
N10_1 Fe41_1 Fe42_1 O71_1 -119.9(2) . . . . ?
Fe43_1 Fe41_1 Fe42_1 O71_1 53.2(2) . . . . ?
O58_1 Fe41_1 Fe42_1 N11_1 176.6(3) . . . . ?
O67_1 Fe41_1 Fe42_1 N11_1 -50.6(2) . . . . ?
O66_1 Fe41_1 Fe42_1 N11_1 -132.8(2) . . . . ?
O74_1 Fe41_1 Fe42_1 N11_1 122.4(2) . . . . ?
O75_1 Fe41_1 Fe42_1 N11_1 44.7(2) . . . . ?
N10_1 Fe41_1 Fe42_1 N11_1 2.16(18) . . . . ?
Fe43_1 Fe41_1 Fe42_1 N11_1 175.23(13) . . . . ?
O58_1 Fe41_1 Fe42_1 Fe43_1 1.4(3) . . . . ?
O67_1 Fe41_1 Fe42_1 Fe43_1 134.2(2) . . . . ?
O66_1 Fe41_1 Fe42_1 Fe43_1 52.0(2) . . . . ?
O74_1 Fe41_1 Fe42_1 Fe43_1 -52.8(2) . . . . ?
O75_1 Fe41_1 Fe42_1 Fe43_1 -130.5(2) . . . . ?
N10_1 Fe41_1 Fe42_1 Fe43_1 -173.07(14) . . . . ?
O70_1 Fe42_1 Fe43_1 O58_1 52.6(3) . . . . ?
O59_1 Fe42_1 Fe43_1 O58_1 133.0(3) . . . . ?
O76_1 Fe42_1 Fe43_1 O58_1 -54.6(4) . . . . ?
O71_1 Fe42_1 Fe43_1 O58_1 -132.3(3) . . . . ?
N11_1 Fe42_1 Fe43_1 O58_1 -176.4(3) . . . . ?
Fe41_1 Fe42_1 Fe43_1 O58_1 -1.4(3) . . . . ?
O58_1 Fe42_1 Fe43_1 O62_1 -130.1(3) . . . . ?
O70_1 Fe42_1 Fe43_1 O62_1 -77.5(3) . . . . ?
O59_1 Fe42_1 Fe43_1 O62_1 2.9(3) . . . . ?
O76_1 Fe42_1 Fe43_1 O62_1 175.3(3) . . . . ?
O71_1 Fe42_1 Fe43_1 O62_1 97.5(3) . . . . ?
N11_1 Fe42_1 Fe43_1 O62_1 53.5(2) . . . . ?
Fe41_1 Fe42_1 Fe43_1 O62_1 -131.5(2) . . . . ?
O58_1 Fe42_1 Fe43_1 O63_1 -50.4(4) . . . . ?
O70_1 Fe42_1 Fe43_1 O63_1 2.2(3) . . . . ?
O59_1 Fe42_1 Fe43_1 O63_1 82.6(3) . . . . ?
O76_1 Fe42_1 Fe43_1 O63_1 -105.0(3) . . . . ?
O71_1 Fe42_1 Fe43_1 O63_1 177.3(3) . . . . ?
N11_1 Fe42_1 Fe43_1 O63_1 133.2(3) . . . . ?
Fe41_1 Fe42_1 Fe43_1 O63_1 -51.8(2) . . . . ?
O58_1 Fe42_1 Fe43_1 O72_1 133.9(3) . . . . ?
O70_1 Fe42_1 Fe43_1 O72_1 -173.5(3) . . . . ?
O59_1 Fe42_1 Fe43_1 O72_1 -93.1(3) . . . . ?
O76_1 Fe42_1 Fe43_1 O72_1 79.3(3) . . . . ?
O71_1 Fe42_1 Fe43_1 O72_1 1.6(3) . . . . ?
N11_1 Fe42_1 Fe43_1 O72_1 -42.5(2) . . . . ?
Fe41_1 Fe42_1 Fe43_1 O72_1 132.5(2) . . . . ?
O58_1 Fe42_1 Fe43_1 O73_1 55.8(4) . . . . ?
O70_1 Fe42_1 Fe43_1 O73_1 108.4(3) . . . . ?
O59_1 Fe42_1 Fe43_1 O73_1 -171.2(3) . . . . ?
O76_1 Fe42_1 Fe43_1 O73_1 1.3(3) . . . . ?
O71_1 Fe42_1 Fe43_1 O73_1 -76.5(3) . . . . ?
N11_1 Fe42_1 Fe43_1 O73_1 -120.6(3) . . . . ?
Fe41_1 Fe42_1 Fe43_1 O73_1 54.4(2) . . . . ?
O58_1 Fe42_1 Fe43_1 N12_1 175.1(3) . . . . ?
O70_1 Fe42_1 Fe43_1 N12_1 -132.3(2) . . . . ?
O59_1 Fe42_1 Fe43_1 N12_1 -51.9(2) . . . . ?
O76_1 Fe42_1 Fe43_1 N12_1 120.6(3) . . . . ?
O71_1 Fe42_1 Fe43_1 N12_1 42.8(2) . . . . ?
N11_1 Fe42_1 Fe43_1 N12_1 -1.27(17) . . . . ?
Fe41_1 Fe42_1 Fe43_1 N12_1 173.74(13) . . . . ?
O58_1 Fe42_1 Fe43_1 Fe41_1 1.4(3) . . . . ?
O70_1 Fe42_1 Fe43_1 Fe41_1 54.0(2) . . . . ?
O59_1 Fe42_1 Fe43_1 Fe41_1 134.4(2) . . . . ?
O76_1 Fe42_1 Fe43_1 Fe41_1 -53.2(2) . . . . ?
O71_1 Fe42_1 Fe43_1 Fe41_1 -130.9(2) . . . . ?
N11_1 Fe42_1 Fe43_1 Fe41_1 -175.01(13) . . . . ?
O67_1 Fe41_1 Fe43_1 O58_1 -51.2(4) . . . . ?
O66_1 Fe41_1 Fe43_1 O58_1 -133.2(3) . . . . ?
O74_1 Fe41_1 Fe43_1 O58_1 131.8(3) . . . . ?
O75_1 Fe41_1 Fe43_1 O58_1 54.6(3) . . . . ?
N10_1 Fe41_1 Fe43_1 O58_1 174.9(3) . . . . ?
Fe42_1 Fe41_1 Fe43_1 O58_1 1.4(3) . . . . ?
O58_1 Fe41_1 Fe43_1 O62_1 53.1(3) . . . . ?
O67_1 Fe41_1 Fe43_1 O62_1 1.9(3) . . . . ?
O66_1 Fe41_1 Fe43_1 O62_1 -80.1(3) . . . . ?
O74_1 Fe41_1 Fe43_1 O62_1 -175.1(3) . . . . ?
O75_1 Fe41_1 Fe43_1 O62_1 107.7(3) . . . . ?
N10_1 Fe41_1 Fe43_1 O62_1 -132.0(2) . . . . ?
Fe42_1 Fe41_1 Fe43_1 O62_1 54.5(2) . . . . ?
O58_1 Fe41_1 Fe43_1 O63_1 133.7(3) . . . . ?
O67_1 Fe41_1 Fe43_1 O63_1 82.5(3) . . . . ?
O66_1 Fe41_1 Fe43_1 O63_1 0.5(3) . . . . ?
O74_1 Fe41_1 Fe43_1 O63_1 -94.5(3) . . . . ?
O75_1 Fe41_1 Fe43_1 O63_1 -171.7(3) . . . . ?
N10_1 Fe41_1 Fe43_1 O63_1 -51.4(2) . . . . ?
Fe42_1 Fe41_1 Fe43_1 O63_1 135.12(19) . . . . ?
O58_1 Fe41_1 Fe43_1 O72_1 -52.9(3) . . . . ?
O67_1 Fe41_1 Fe43_1 O72_1 -104.1(3) . . . . ?
O66_1 Fe41_1 Fe43_1 O72_1 173.9(3) . . . . ?
O74_1 Fe41_1 Fe43_1 O72_1 78.9(3) . . . . ?
O75_1 Fe41_1 Fe43_1 O72_1 1.7(3) . . . . ?
N10_1 Fe41_1 Fe43_1 O72_1 122.0(2) . . . . ?
Fe42_1 Fe41_1 Fe43_1 O72_1 -51.5(2) . . . . ?
O58_1 Fe41_1 Fe43_1 O73_1 -129.9(3) . . . . ?
O67_1 Fe41_1 Fe43_1 O73_1 178.9(3) . . . . ?
O66_1 Fe41_1 Fe43_1 O73_1 96.9(3) . . . . ?
O74_1 Fe41_1 Fe43_1 O73_1 1.9(3) . . . . ?
O75_1 Fe41_1 Fe43_1 O73_1 -75.3(3) . . . . ?
N10_1 Fe41_1 Fe43_1 O73_1 45.0(2) . . . . ?
Fe42_1 Fe41_1 Fe43_1 O73_1 -128.5(2) . . . . ?
O58_1 Fe41_1 Fe43_1 N12_1 -175.3(3) . . . . ?
O67_1 Fe41_1 Fe43_1 N12_1 133.5(2) . . . . ?
O66_1 Fe41_1 Fe43_1 N12_1 51.5(2) . . . . ?
O74_1 Fe41_1 Fe43_1 N12_1 -43.5(2) . . . . ?
O75_1 Fe41_1 Fe43_1 N12_1 -120.6(2) . . . . ?
N10_1 Fe41_1 Fe43_1 N12_1 -0.37(17) . . . . ?
Fe42_1 Fe41_1 Fe43_1 N12_1 -173.86(13) . . . . ?
O58_1 Fe41_1 Fe43_1 Fe42_1 -1.4(3) . . . . ?
O67_1 Fe41_1 Fe43_1 Fe42_1 -52.6(2) . . . . ?
O66_1 Fe41_1 Fe43_1 Fe42_1 -134.60(19) . . . . ?
O74_1 Fe41_1 Fe43_1 Fe42_1 130.4(2) . . . . ?
O75_1 Fe41_1 Fe43_1 Fe42_1 53.2(2) . . . . ?
N10_1 Fe41_1 Fe43_1 Fe42_1 173.48(13) . . . . ?
O13_1 Fe12_1 O1_1 Fe11_1 45.3(3) . . . . ?
O2_1 Fe12_1 O1_1 Fe11_1 134.3(3) . . . . ?
O14_1 Fe12_1 O1_1 Fe11_1 -132.3(3) . . . . ?
O19_1 Fe12_1 O1_1 Fe11_1 -46.2(3) . . . . ?
N2_1 Fe12_1 O1_1 Fe11_1 -110(5) . . . . ?
Fe13_1 Fe12_1 O1_1 Fe11_1 -177.0(5) . . . . ?
O13_1 Fe12_1 O1_1 Fe13_1 -137.7(3) . . . . ?
O2_1 Fe12_1 O1_1 Fe13_1 -48.6(3) . . . . ?
O14_1 Fe12_1 O1_1 Fe13_1 44.7(3) . . . . ?
O19_1 Fe12_1 O1_1 Fe13_1 130.8(3) . . . . ?
N2_1 Fe12_1 O1_1 Fe13_1 67(5) . . . . ?
Fe11_1 Fe12_1 O1_1 Fe13_1 177.0(5) . . . . ?
O10_1 Fe11_1 O1_1 Fe12_1 -48.5(3) . . . . ?
O9_1 Fe11_1 O1_1 Fe12_1 -138.2(3) . . . . ?
O18_1 Fe11_1 O1_1 Fe12_1 44.0(3) . . . . ?
O17_1 Fe11_1 O1_1 Fe12_1 129.4(3) . . . . ?
N1_1 Fe11_1 O1_1 Fe12_1 79(5) . . . . ?
Fe13_1 Fe11_1 O1_1 Fe12_1 177.1(5) . . . . ?
O10_1 Fe11_1 O1_1 Fe13_1 134.4(3) . . . . ?
O9_1 Fe11_1 O1_1 Fe13_1 44.8(3) . . . . ?
O18_1 Fe11_1 O1_1 Fe13_1 -133.1(3) . . . . ?
O17_1 Fe11_1 O1_1 Fe13_1 -47.6(3) . . . . ?
N1_1 Fe11_1 O1_1 Fe13_1 -98(5) . . . . ?
Fe12_1 Fe11_1 O1_1 Fe13_1 -177.1(5) . . . . ?
O5_1 Fe13_1 O1_1 Fe12_1 46.0(3) . . . . ?
O6_1 Fe13_1 O1_1 Fe12_1 135.8(3) . . . . ?
O15_1 Fe13_1 O1_1 Fe12_1 -46.2(3) . . . . ?
O16_1 Fe13_1 O1_1 Fe12_1 -132.2(3) . . . . ?
N3_1 Fe13_1 O1_1 Fe12_1 -69(3) . . . . ?
Fe11_1 Fe13_1 O1_1 Fe12_1 -177.1(5) . . . . ?
O5_1 Fe13_1 O1_1 Fe11_1 -137.0(3) . . . . ?
O6_1 Fe13_1 O1_1 Fe11_1 -47.1(3) . . . . ?
O15_1 Fe13_1 O1_1 Fe11_1 130.9(3) . . . . ?
O16_1 Fe13_1 O1_1 Fe11_1 44.9(3) . . . . ?
N3_1 Fe13_1 O1_1 Fe11_1 108(3) . . . . ?
Fe12_1 Fe13_1 O1_1 Fe11_1 177.1(5) . . . . ?
O3_1 S123_1 O2_1 Fe12_1 -155.7(5) . . . . ?
O4_1 S123_1 O2_1 Fe12_1 79.3(6) . . . . ?
O5_1 S123_1 O2_1 Fe12_1 -38.8(6) . . . . ?
O1_1 Fe12_1 O2_1 S123_1 47.3(5) . . . . ?
O13_1 Fe12_1 O2_1 S123_1 144.9(5) . . . . ?
O14_1 Fe12_1 O2_1 S123_1 -48.8(5) . . . . ?
O19_1 Fe12_1 O2_1 S123_1 -129.9(10) . . . . ?
N2_1 Fe12_1 O2_1 S123_1 -130.8(5) . . . . ?
Fe11_1 Fe12_1 O2_1 S123_1 70.8(5) . . . . ?
Fe13_1 Fe12_1 O2_1 S123_1 24.6(4) . . . . ?
O3_1 S123_1 O5_1 Fe13_1 151.1(5) . . . . ?
O4_1 S123_1 O5_1 Fe13_1 -84.1(6) . . . . ?
O2_1 S123_1 O5_1 Fe13_1 34.1(6) . . . . ?
O1_1 Fe13_1 O5_1 S123_1 -39.1(6) . . . . ?
O6_1 Fe13_1 O5_1 S123_1 -136.6(6) . . . . ?
O15_1 Fe13_1 O5_1 S123_1 56.0(6) . . . . ?
O16_1 Fe13_1 O5_1 S123_1 132.4(10) . . . . ?
N3_1 Fe13_1 O5_1 S123_1 137.8(5) . . . . ?
Fe11_1 Fe13_1 O5_1 S123_1 -62.1(6) . . . . ?
Fe12_1 Fe13_1 O5_1 S123_1 -17.6(5) . . . . ?
O8_1 S113_1 O6_1 Fe13_1 -155.0(6) . . . . ?
O7_1 S113_1 O6_1 Fe13_1 82.0(7) . . . . ?
O9_1 S113_1 O6_1 Fe13_1 -35.9(6) . . . . ?
O1_1 Fe13_1 O6_1 S113_1 44.8(6) . . . . ?
O5_1 Fe13_1 O6_1 S113_1 141.8(5) . . . . ?
O15_1 Fe13_1 O6_1 S113_1 -125.9(11) . . . . ?
O16_1 Fe13_1 O6_1 S113_1 -50.9(6) . . . . ?
N3_1 Fe13_1 O6_1 S113_1 -133.8(5) . . . . ?
Fe11_1 Fe13_1 O6_1 S113_1 22.5(5) . . . . ?
Fe12_1 Fe13_1 O6_1 S113_1 67.9(6) . . . . ?
O8_1 S113_1 O9_1 Fe11_1 151.6(6) . . . . ?
O7_1 S113_1 O9_1 Fe11_1 -85.9(6) . . . . ?
O6_1 S113_1 O9_1 Fe11_1 31.9(6) . . . . ?
O1_1 Fe11_1 O9_1 S113_1 -38.0(5) . . . . ?
O10_1 Fe11_1 O9_1 S113_1 -134.7(5) . . . . ?
O18_1 Fe11_1 O9_1 S113_1 132.8(9) . . . . ?
O17_1 Fe11_1 O9_1 S113_1 56.9(5) . . . . ?
N1_1 Fe11_1 O9_1 S113_1 140.0(6) . . . . ?
Fe13_1 Fe11_1 O9_1 S113_1 -16.6(5) . . . . ?
Fe12_1 Fe11_1 O9_1 S113_1 -60.3(6) . . . . ?
O11_1 S112_1 O10_1 Fe11_1 82.4(6) . . . . ?
O12_1 S112_1 O10_1 Fe11_1 -154.0(5) . . . . ?
O13_1 S112_1 O10_1 Fe11_1 -38.6(6) . . . . ?
O1_1 Fe11_1 O10_1 S112_1 47.3(5) . . . . ?
O9_1 Fe11_1 O10_1 S112_1 145.3(5) . . . . ?
O18_1 Fe11_1 O10_1 S112_1 -48.2(5) . . . . ?
O17_1 Fe11_1 O10_1 S112_1 -122.8(11) . . . . ?
N1_1 Fe11_1 O10_1 S112_1 -130.1(5) . . . . ?
Fe13_1 Fe11_1 O10_1 S112_1 71.2(5) . . . . ?
Fe12_1 Fe11_1 O10_1 S112_1 24.8(4) . . . . ?
O11_1 S112_1 O13_1 Fe12_1 -87.5(6) . . . . ?
O12_1 S112_1 O13_1 Fe12_1 149.4(5) . . . . ?
O10_1 S112_1 O13_1 Fe12_1 32.9(6) . . . . ?
O1_1 Fe12_1 O13_1 S112_1 -37.8(6) . . . . ?
O2_1 Fe12_1 O13_1 S112_1 -134.2(5) . . . . ?
O14_1 Fe12_1 O13_1 S112_1 132.2(9) . . . . ?
O19_1 Fe12_1 O13_1 S112_1 57.8(5) . . . . ?
N2_1 Fe12_1 O13_1 S112_1 141.3(5) . . . . ?
Fe11_1 Fe12_1 O13_1 S112_1 -16.4(5) . . . . ?
Fe13_1 Fe12_1 O13_1 S112_1 -60.4(6) . . . . ?
O1_1 Fe12_1 O14_1 C21B_1 -20.2(8) . . . . ?
O13_1 Fe12_1 O14_1 C21B_1 169.8(9) . . . . ?
O2_1 Fe12_1 O14_1 C21B_1 76.6(8) . . . . ?
O19_1 Fe12_1 O14_1 C21B_1 -115.3(8) . . . . ?
N2_1 Fe12_1 O14_1 C21B_1 160.6(8) . . . . ?
Fe11_1 Fe12_1 O14_1 C21B_1 -44.2(8) . . . . ?
Fe13_1 Fe12_1 O14_1 C21B_1 1.2(7) . . . . ?
O1_1 Fe13_1 O15_1 C21B_1 25.3(8) . . . . ?
O5_1 Fe13_1 O15_1 C21B_1 -71.9(8) . . . . ?
O6_1 Fe13_1 O15_1 C21B_1 -164.0(10) . . . . ?
O16_1 Fe13_1 O15_1 C21B_1 120.4(8) . . . . ?
N3_1 Fe13_1 O15_1 C21B_1 -156.0(8) . . . . ?
Fe11_1 Fe13_1 O15_1 C21B_1 49.9(8) . . . . ?
Fe12_1 Fe13_1 O15_1 C21B_1 3.4(8) . . . . ?
O1_1 Fe13_1 O16_1 C1A_1 -17.1(9) . . . . ?
O5_1 Fe13_1 O16_1 C1A_1 171.3(10) . . . . ?
O6_1 Fe13_1 O16_1 C1A_1 80.6(8) . . . . ?
O15_1 Fe13_1 O16_1 C1A_1 -111.5(8) . . . . ?
N3_1 Fe13_1 O16_1 C1A_1 166.0(8) . . . . ?
Fe11_1 Fe13_1 O16_1 C1A_1 4.6(8) . . . . ?
Fe12_1 Fe13_1 O16_1 C1A_1 -41.0(9) . . . . ?
O1_1 Fe11_1 O17_1 C1A_1 26.3(8) . . . . ?
O10_1 Fe11_1 O17_1 C1A_1 -163.6(11) . . . . ?
O9_1 Fe11_1 O17_1 C1A_1 -71.9(8) . . . . ?
O18_1 Fe11_1 O17_1 C1A_1 121.2(8) . . . . ?
N1_1 Fe11_1 O17_1 C1A_1 -156.2(8) . . . . ?
Fe13_1 Fe11_1 O17_1 C1A_1 3.5(7) . . . . ?
Fe12_1 Fe11_1 O17_1 C1A_1 50.9(8) . . . . ?
O1_1 Fe11_1 O18_1 C41C_1 -18.4(8) . . . . ?
O10_1 Fe11_1 O18_1 C41C_1 78.6(8) . . . . ?
O9_1 Fe11_1 O18_1 C41C_1 170.7(9) . . . . ?
O17_1 Fe11_1 O18_1 C41C_1 -112.7(8) . . . . ?
N1_1 Fe11_1 O18_1 C41C_1 163.4(8) . . . . ?
Fe13_1 Fe11_1 O18_1 C41C_1 -42.5(8) . . . . ?
Fe12_1 Fe11_1 O18_1 C41C_1 2.6(7) . . . . ?
O1_1 Fe12_1 O19_1 C41C_1 25.2(8) . . . . ?
O13_1 Fe12_1 O19_1 C41C_1 -72.7(8) . . . . ?
O2_1 Fe12_1 O19_1 C41C_1 -157.6(10) . . . . ?
O14_1 Fe12_1 O19_1 C41C_1 120.6(8) . . . . ?
N2_1 Fe12_1 O19_1 C41C_1 -156.7(8) . . . . ?
Fe11_1 Fe12_1 O19_1 C41C_1 3.3(7) . . . . ?
Fe13_1 Fe12_1 O19_1 C41C_1 49.7(8) . . . . ?
O21_1 Fe21_1 O20_1 Fe23_1 136.9(3) . . . . ?
O32_1 Fe21_1 O20_1 Fe23_1 48.3(3) . . . . ?
O33_1 Fe21_1 O20_1 Fe23_1 -129.9(3) . . . . ?
O38_1 Fe21_1 O20_1 Fe23_1 -43.6(3) . . . . ?
N4_1 Fe21_1 O20_1 Fe23_1 -79(5) . . . . ?
Fe22_1 Fe21_1 O20_1 Fe23_1 -178.6(5) . . . . ?
O21_1 Fe21_1 O20_1 Fe22_1 -44.6(3) . . . . ?
O32_1 Fe21_1 O20_1 Fe22_1 -133.1(3) . . . . ?
O33_1 Fe21_1 O20_1 Fe22_1 48.7(3) . . . . ?
O38_1 Fe21_1 O20_1 Fe22_1 135.0(3) . . . . ?
N4_1 Fe21_1 O20_1 Fe22_1 99(5) . . . . ?
Fe23_1 Fe21_1 O20_1 Fe22_1 178.6(5) . . . . ?
O28_1 Fe23_1 O20_1 Fe21_1 -136.5(3) . . . . ?
O29_1 Fe23_1 O20_1 Fe21_1 -47.0(3) . . . . ?
O36_1 Fe23_1 O20_1 Fe21_1 130.5(3) . . . . ?
O37_1 Fe23_1 O20_1 Fe21_1 44.7(3) . . . . ?
N6_1 Fe23_1 O20_1 Fe21_1 87(4) . . . . ?
Fe22_1 Fe23_1 O20_1 Fe21_1 178.6(5) . . . . ?
O28_1 Fe23_1 O20_1 Fe22_1 44.9(3) . . . . ?
O29_1 Fe23_1 O20_1 Fe22_1 134.5(3) . . . . ?
O36_1 Fe23_1 O20_1 Fe22_1 -48.1(3) . . . . ?
O37_1 Fe23_1 O20_1 Fe22_1 -133.9(3) . . . . ?
N6_1 Fe23_1 O20_1 Fe22_1 -91(4) . . . . ?
Fe21_1 Fe23_1 O20_1 Fe22_1 -178.6(5) . . . . ?
O25_1 Fe22_1 O20_1 Fe21_1 135.1(3) . . . . ?
O24_1 Fe22_1 O20_1 Fe21_1 45.7(3) . . . . ?
O34_1 Fe22_1 O20_1 Fe21_1 -47.0(3) . . . . ?
O35_1 Fe22_1 O20_1 Fe21_1 -132.3(3) . . . . ?
N5_1 Fe22_1 O20_1 Fe21_1 -72(3) . . . . ?
Fe23_1 Fe22_1 O20_1 Fe21_1 -178.6(5) . . . . ?
O25_1 Fe22_1 O20_1 Fe23_1 -46.3(3) . . . . ?
O24_1 Fe22_1 O20_1 Fe23_1 -135.7(3) . . . . ?
O34_1 Fe22_1 O20_1 Fe23_1 131.6(3) . . . . ?
O35_1 Fe22_1 O20_1 Fe23_1 46.3(3) . . . . ?
N5_1 Fe22_1 O20_1 Fe23_1 107(3) . . . . ?
Fe21_1 Fe22_1 O20_1 Fe23_1 178.6(5) . . . . ?
O22_1 S212_1 O21_1 Fe21_1 -153.6(6) . . . . ?
O23_1 S212_1 O21_1 Fe21_1 82.0(7) . . . . ?
O24_1 S212_1 O21_1 Fe21_1 -34.9(6) . . . . ?
O20_1 Fe21_1 O21_1 S212_1 40.7(6) . . . . ?
O32_1 Fe21_1 O21_1 S212_1 136.6(6) . . . . ?
O33_1 Fe21_1 O21_1 S212_1 -55.1(6) . . . . ?
O38_1 Fe21_1 O21_1 S212_1 -137.5(9) . . . . ?
N4_1 Fe21_1 O21_1 S212_1 -138.1(5) . . . . ?
Fe22_1 Fe21_1 O21_1 S212_1 19.4(5) . . . . ?
Fe23_1 Fe21_1 O21_1 S212_1 63.4(6) . . . . ?
O22_1 S212_1 O24_1 Fe22_1 154.1(5) . . . . ?
O23_1 S212_1 O24_1 Fe22_1 -80.8(6) . . . . ?
O21_1 S212_1 O24_1 Fe22_1 36.3(6) . . . . ?
O20_1 Fe22_1 O24_1 S212_1 -43.1(5) . . . . ?
O25_1 Fe22_1 O24_1 S212_1 -140.3(5) . . . . ?
O34_1 Fe22_1 O24_1 S212_1 51.4(5) . . . . ?
O35_1 Fe22_1 O24_1 S212_1 127.3(11) . . . . ?
N5_1 Fe22_1 O24_1 S212_1 133.9(5) . . . . ?
Fe23_1 Fe22_1 O24_1 S212_1 -66.5(5) . . . . ?
Fe21_1 Fe22_1 O24_1 S212_1 -21.5(5) . . . . ?
O27_1 S223_1 O25_1 Fe22_1 -153.7(6) . . . . ?
O26_1 S223_1 O25_1 Fe22_1 80.2(7) . . . . ?
O28_1 S223_1 O25_1 Fe22_1 -35.9(7) . . . . ?
O20_1 Fe22_1 O25_1 S223_1 43.8(6) . . . . ?
O24_1 Fe22_1 O25_1 S223_1 141.5(6) . . . . ?
O34_1 Fe22_1 O25_1 S223_1 -125.6(11) . . . . ?
O35_1 Fe22_1 O25_1 S223_1 -50.8(6) . . . . ?
N5_1 Fe22_1 O25_1 S223_1 -134.7(6) . . . . ?
Fe23_1 Fe22_1 O25_1 S223_1 21.9(5) . . . . ?
Fe21_1 Fe22_1 O25_1 S223_1 67.2(6) . . . . ?
O27_1 S223_1 O28_1 Fe23_1 151.7(6) . . . . ?
O26_1 S223_1 O28_1 Fe23_1 -83.0(7) . . . . ?
O25_1 S223_1 O28_1 Fe23_1 33.3(7) . . . . ?
O20_1 Fe23_1 O28_1 S223_1 -39.7(6) . . . . ?
O29_1 Fe23_1 O28_1 S223_1 -136.6(6) . . . . ?
O36_1 Fe23_1 O28_1 S223_1 55.8(6) . . . . ?
O37_1 Fe23_1 O28_1 S223_1 135.3(10) . . . . ?
N6_1 Fe23_1 O28_1 S223_1 138.3(5) . . . . ?
Fe22_1 Fe23_1 O28_1 S223_1 -18.2(5) . . . . ?
Fe21_1 Fe23_1 O28_1 S223_1 -62.5(6) . . . . ?
O30_1 S213_1 O29_1 Fe23_1 87.6(6) . . . . ?
O31_1 S213_1 O29_1 Fe23_1 -148.6(5) . . . . ?
O32_1 S213_1 O29_1 Fe23_1 -33.1(7) . . . . ?
O20_1 Fe23_1 O29_1 S213_1 39.7(6) . . . . ?
O28_1 Fe23_1 O29_1 S213_1 137.8(6) . . . . ?
O36_1 Fe23_1 O29_1 S213_1 -128.5(11) . . . . ?
O37_1 Fe23_1 O29_1 S213_1 -56.0(6) . . . . ?
N6_1 Fe23_1 O29_1 S213_1 -138.2(6) . . . . ?
Fe22_1 Fe23_1 O29_1 S213_1 63.6(6) . . . . ?
Fe21_1 Fe23_1 O29_1 S213_1 17.9(5) . . . . ?
O30_1 S213_1 O32_1 Fe21_1 -84.0(7) . . . . ?
O31_1 S213_1 O32_1 Fe21_1 152.0(6) . . . . ?
O29_1 S213_1 O32_1 Fe21_1 36.1(7) . . . . ?
O20_1 Fe21_1 O32_1 S213_1 -44.6(6) . . . . ?
O21_1 Fe21_1 O32_1 S213_1 -142.6(6) . . . . ?
O33_1 Fe21_1 O32_1 S213_1 126.6(12) . . . . ?
O38_1 Fe21_1 O32_1 S213_1 51.2(6) . . . . ?
N4_1 Fe21_1 O32_1 S213_1 133.8(6) . . . . ?
Fe22_1 Fe21_1 O32_1 S213_1 -68.7(6) . . . . ?
Fe23_1 Fe21_1 O32_1 S213_1 -22.2(5) . . . . ?
O20_1 Fe21_1 O33_1 C100_1 -25.4(8) . . . . ?
O21_1 Fe21_1 O33_1 C100_1 73.2(8) . . . . ?
O32_1 Fe21_1 O33_1 C100_1 163.4(12) . . . . ?
O38_1 Fe21_1 O33_1 C100_1 -120.6(8) . . . . ?
N4_1 Fe21_1 O33_1 C100_1 156.3(8) . . . . ?
Fe22_1 Fe21_1 O33_1 C100_1 -2.3(7) . . . . ?
Fe23_1 Fe21_1 O33_1 C100_1 -49.8(8) . . . . ?
O20_1 Fe22_1 O34_1 C100_1 21.7(9) . . . . ?
O25_1 Fe22_1 O34_1 C100_1 -168.9(11) . . . . ?
O24_1 Fe22_1 O34_1 C100_1 -76.4(9) . . . . ?
O35_1 Fe22_1 O34_1 C100_1 115.6(9) . . . . ?
N5_1 Fe22_1 O34_1 C100_1 -159.8(9) . . . . ?
Fe23_1 Fe22_1 O34_1 C100_1 45.8(9) . . . . ?
Fe21_1 Fe22_1 O34_1 C100_1 -0.7(8) . . . . ?
O20_1 Fe22_1 O35_1 C40B_1 -20.5(9) . . . . ?
O25_1 Fe22_1 O35_1 C40B_1 77.1(8) . . . . ?
O24_1 Fe22_1 O35_1 C40B_1 169.0(11) . . . . ?
O34_1 Fe22_1 O35_1 C40B_1 -114.3(9) . . . . ?
N5_1 Fe22_1 O35_1 C40B_1 162.4(8) . . . . ?
Fe23_1 Fe22_1 O35_1 C40B_1 1.7(8) . . . . ?
Fe21_1 Fe22_1 O35_1 C40B_1 -44.3(9) . . . . ?
O20_1 Fe23_1 O36_1 C40B_1 25.0(9) . . . . ?
O28_1 Fe23_1 O36_1 C40B_1 -73.5(9) . . . . ?
O29_1 Fe23_1 O36_1 C40B_1 -166.8(11) . . . . ?
O37_1 Fe23_1 O36_1 C40B_1 120.1(9) . . . . ?
N6_1 Fe23_1 O36_1 C40B_1 -157.0(9) . . . . ?
Fe22_1 Fe23_1 O36_1 C40B_1 2.1(8) . . . . ?
Fe21_1 Fe23_1 O36_1 C40B_1 49.2(9) . . . . ?
O20_1 Fe23_1 O37_1 C120_1 -23.6(9) . . . . ?
O28_1 Fe23_1 O37_1 C120_1 161.3(10) . . . . ?
O29_1 Fe23_1 O37_1 C120_1 73.5(9) . . . . ?
O36_1 Fe23_1 O37_1 C120_1 -118.3(9) . . . . ?
N6_1 Fe23_1 O37_1 C120_1 158.3(9) . . . . ?
Fe22_1 Fe23_1 O37_1 C120_1 -47.5(9) . . . . ?
Fe21_1 Fe23_1 O37_1 C120_1 -2.5(8) . . . . ?
O20_1 Fe21_1 O38_1 C120_1 20.1(8) . . . . ?
O21_1 Fe21_1 O38_1 C120_1 -161.7(10) . . . . ?
O32_1 Fe21_1 O38_1 C120_1 -76.2(8) . . . . ?
O33_1 Fe21_1 O38_1 C120_1 115.1(8) . . . . ?
N4_1 Fe21_1 O38_1 C120_1 -161.1(8) . . . . ?
Fe22_1 Fe21_1 O38_1 C120_1 43.5(9) . . . . ?
Fe23_1 Fe21_1 O38_1 C120_1 -0.6(8) . . . . ?
O43_1 Fe32_1 O39_1 Fe31_1 47.2(3) . . . . ?
O44_1 Fe32_1 O39_1 Fe31_1 137.7(3) . . . . ?
O54_1 Fe32_1 O39_1 Fe31_1 -131.0(3) . . . . ?
O53_1 Fe32_1 O39_1 Fe31_1 -44.7(3) . . . . ?
N8_1 Fe32_1 O39_1 Fe31_1 -85(3) . . . . ?
Fe33_1 Fe32_1 O39_1 Fe31_1 -176.6(5) . . . . ?
O43_1 Fe32_1 O39_1 Fe33_1 -136.3(3) . . . . ?
O44_1 Fe32_1 O39_1 Fe33_1 -45.7(3) . . . . ?
O54_1 Fe32_1 O39_1 Fe33_1 45.6(3) . . . . ?
O53_1 Fe32_1 O39_1 Fe33_1 131.9(3) . . . . ?
N8_1 Fe32_1 O39_1 Fe33_1 91(3) . . . . ?
Fe31_1 Fe32_1 O39_1 Fe33_1 176.6(5) . . . . ?
O67W_1 Fe31_1 O39_1 Fe32_1 -57.3(4) 1_554 . . . ?
O51_1 Fe31_1 O39_1 Fe32_1 -136.5(4) . . . . ?
O40_1 Fe31_1 O39_1 Fe32_1 -46.3(4) . . . . ?
O52_1 Fe31_1 O39_1 Fe32_1 45.5(4) . . . . ?
O57_1 Fe31_1 O39_1 Fe32_1 130.9(3) . . . . ?
N7_1 Fe31_1 O39_1 Fe32_1 95(5) . . . . ?
Fe33_1 Fe31_1 O39_1 Fe32_1 176.6(5) . . . . ?
O67W_1 Fe31_1 O39_1 Fe33_1 126.1(4) 1_554 . . . ?
O51_1 Fe31_1 O39_1 Fe33_1 47.0(4) . . . . ?
O40_1 Fe31_1 O39_1 Fe33_1 137.1(4) . . . . ?
O52_1 Fe31_1 O39_1 Fe33_1 -131.0(3) . . . . ?
O57_1 Fe31_1 O39_1 Fe33_1 -45.7(3) . . . . ?
N7_1 Fe31_1 O39_1 Fe33_1 -82(5) . . . . ?
Fe32_1 Fe31_1 O39_1 Fe33_1 -176.6(5) . . . . ?
O48_1 Fe33_1 O39_1 Fe32_1 135.9(3) . . . . ?
O47_1 Fe33_1 O39_1 Fe32_1 45.0(3) . . . . ?
O55_1 Fe33_1 O39_1 Fe32_1 -45.9(3) . . . . ?
O56_1 Fe33_1 O39_1 Fe32_1 -132.0(3) . . . . ?
N9_1 Fe33_1 O39_1 Fe32_1 -97(4) . . . . ?
Fe31_1 Fe33_1 O39_1 Fe32_1 -176.6(5) . . . . ?
O48_1 Fe33_1 O39_1 Fe31_1 -47.5(3) . . . . ?
O47_1 Fe33_1 O39_1 Fe31_1 -138.4(3) . . . . ?
O55_1 Fe33_1 O39_1 Fe31_1 130.7(3) . . . . ?
O56_1 Fe33_1 O39_1 Fe31_1 44.5(3) . . . . ?
N9_1 Fe33_1 O39_1 Fe31_1 80(4) . . . . ?
Fe32_1 Fe33_1 O39_1 Fe31_1 176.6(5) . . . . ?
O41_1 S312_1 O40_1 O67W_1 -107.0(7) . . . 1_554 ?
O42_1 S312_1 O40_1 O67W_1 127.8(7) . . . 1_554 ?
O43_1 S312_1 O40_1 O67W_1 10.8(7) . . . 1_554 ?
O41_1 S312_1 O40_1 Fe31_1 -155.2(7) . . . . ?
O42_1 S312_1 O40_1 Fe31_1 79.6(8) . . . . ?
O43_1 S312_1 O40_1 Fe31_1 -37.4(8) . . . . ?
O67W_1 S312_1 O40_1 Fe31_1 -48.2(5) 1_554 . . . ?
O39_1 Fe31_1 O40_1 O67W_1 -17.9(6) . . . 1_554 ?
O51_1 Fe31_1 O40_1 O67W_1 78.8(6) . . . 1_554 ?
O52_1 Fe31_1 O40_1 O67W_1 -114.1(6) . . . 1_554 ?
O57_1 Fe31_1 O40_1 O67W_1 174.8(13) . . . 1_554 ?
N7_1 Fe31_1 O40_1 O67W_1 163.6(6) . . . 1_554 ?
Fe33_1 Fe31_1 O40_1 O67W_1 4.8(7) . . . 1_554 ?
Fe32_1 Fe31_1 O40_1 O67W_1 -39.7(6) . . . 1_554 ?
O67W_1 Fe31_1 O40_1 S312_1 61.0(7) 1_554 . . . ?
O39_1 Fe31_1 O40_1 S312_1 43.0(7) . . . . ?
O51_1 Fe31_1 O40_1 S312_1 139.7(7) . . . . ?
O52_1 Fe31_1 O40_1 S312_1 -53.1(7) . . . . ?
O57_1 Fe31_1 O40_1 S312_1 -124.2(13) . . . . ?
N7_1 Fe31_1 O40_1 S312_1 -135.5(7) . . . . ?
Fe33_1 Fe31_1 O40_1 S312_1 65.8(8) . . . . ?
Fe32_1 Fe31_1 O40_1 S312_1 21.3(6) . . . . ?
O41_1 S312_1 O43_1 Fe32_1 154.9(7) . . . . ?
O42_1 S312_1 O43_1 Fe32_1 -80.4(8) . . . . ?
O40_1 S312_1 O43_1 Fe32_1 37.6(8) . . . . ?
O67W_1 S312_1 O43_1 Fe32_1 44.0(6) 1_554 . . . ?
O39_1 Fe32_1 O43_1 S312_1 -44.0(7) . . . . ?
O44_1 Fe32_1 O43_1 S312_1 -141.9(7) . . . . ?
O54_1 Fe32_1 O43_1 S312_1 128.1(10) . . . . ?
O53_1 Fe32_1 O43_1 S312_1 51.0(7) . . . . ?
N8_1 Fe32_1 O43_1 S312_1 133.7(7) . . . . ?
Fe33_1 Fe32_1 O43_1 S312_1 -67.2(7) . . . . ?
Fe31_1 Fe32_1 O43_1 S312_1 -22.0(6) . . . . ?
O46_1 S323_1 O44_1 Fe32_1 -158.8(6) . . . . ?
O45_1 S323_1 O44_1 Fe32_1 75.4(7) . . . . ?
O47_1 S323_1 O44_1 Fe32_1 -42.0(7) . . . . ?
O92W_1 S323_1 O44_1 Fe32_1 35.1(7) 2_675 . . . ?
O39_1 Fe32_1 O44_1 S323_1 46.4(6) . . . . ?
O43_1 Fe32_1 O44_1 S323_1 143.8(6) . . . . ?
O54_1 Fe32_1 O44_1 S323_1 -49.5(6) . . . . ?
O53_1 Fe32_1 O44_1 S323_1 -122.7(11) . . . . ?
N8_1 Fe32_1 O44_1 S323_1 -131.5(6) . . . . ?
Fe33_1 Fe32_1 O44_1 S323_1 24.7(5) . . . . ?
Fe31_1 Fe32_1 O44_1 S323_1 68.9(6) . . . . ?
O46_1 S323_1 O45_1 O92W_1 138.0(6) . . . 2_675 ?
O47_1 S323_1 O45_1 O92W_1 14.8(7) . . . 2_675 ?
O44_1 S323_1 O45_1 O92W_1 -100.9(6) . . . 2_675 ?
O46_1 S323_1 O47_1 Fe33_1 157.7(6) . . . . ?
O45_1 S323_1 O47_1 Fe33_1 -75.2(6) . . . . ?
O44_1 S323_1 O47_1 Fe33_1 41.4(7) . . . . ?
O92W_1 S323_1 O47_1 Fe33_1 -65.7(5) 2_675 . . . ?
O39_1 Fe33_1 O47_1 S323_1 -44.8(6) . . . . ?
O48_1 Fe33_1 O47_1 S323_1 -142.2(6) . . . . ?
O55_1 Fe33_1 O47_1 S323_1 50.7(6) . . . . ?
O56_1 Fe33_1 O47_1 S323_1 122.6(11) . . . . ?
N9_1 Fe33_1 O47_1 S323_1 133.4(6) . . . . ?
Fe32_1 Fe33_1 O47_1 S323_1 -23.5(5) . . . . ?
Fe31_1 Fe33_1 O47_1 S323_1 -67.2(6) . . . . ?
O50_1 S313_1 O48_1 Fe33_1 -154.9(7) . . . . ?
O49_1 S313_1 O48_1 Fe33_1 81.0(8) . . . . ?
O51_1 S313_1 O48_1 Fe33_1 -37.8(8) . . . . ?
O39_1 Fe33_1 O48_1 S313_1 44.3(7) . . . . ?
O47_1 Fe33_1 O48_1 S313_1 142.1(6) . . . . ?
O55_1 Fe33_1 O48_1 S313_1 -127.6(11) . . . . ?
O56_1 Fe33_1 O48_1 S313_1 -51.2(6) . . . . ?
N9_1 Fe33_1 O48_1 S313_1 -133.4(6) . . . . ?
Fe32_1 Fe33_1 O48_1 S313_1 67.5(7) . . . . ?
Fe31_1 Fe33_1 O48_1 S313_1 22.0(6) . . . . ?
O50_1 S313_1 O51_1 Fe31_1 154.9(6) . . . . ?
O49_1 S313_1 O51_1 Fe31_1 -79.0(8) . . . . ?
O48_1 S313_1 O51_1 Fe31_1 38.0(8) . . . . ?
O67W_1 Fe31_1 O51_1 S313_1 -107.2(8) 1_554 . . . ?
O39_1 Fe31_1 O51_1 S313_1 -44.0(7) . . . . ?
O40_1 Fe31_1 O51_1 S313_1 -140.7(7) . . . . ?
O52_1 Fe31_1 O51_1 S313_1 127.0(13) . . . . ?
O57_1 Fe31_1 O51_1 S313_1 51.8(7) . . . . ?
N7_1 Fe31_1 O51_1 S313_1 134.1(7) . . . . ?
Fe33_1 Fe31_1 O51_1 S313_1 -21.8(6) . . . . ?
Fe32_1 Fe31_1 O51_1 S313_1 -66.7(7) . . . . ?
O67W_1 Fe31_1 O52_1 C61D_1 41.7(10) 1_554 . . . ?
O39_1 Fe31_1 O52_1 C61D_1 -23.3(9) . . . . ?
O51_1 Fe31_1 O52_1 C61D_1 165.6(13) . . . . ?
O40_1 Fe31_1 O52_1 C61D_1 73.5(9) . . . . ?
O57_1 Fe31_1 O52_1 C61D_1 -118.4(9) . . . . ?
N7_1 Fe31_1 O52_1 C61D_1 158.5(9) . . . . ?
Fe33_1 Fe31_1 O52_1 C61D_1 -48.0(10) . . . . ?
Fe32_1 Fe31_1 O52_1 C61D_1 -1.8(9) . . . . ?
O39_1 Fe32_1 O53_1 C61D_1 22.3(9) . . . . ?
O43_1 Fe32_1 O53_1 C61D_1 -75.3(9) . . . . ?
O44_1 Fe32_1 O53_1 C61D_1 -168.5(11) . . . . ?
O54_1 Fe32_1 O53_1 C61D_1 117.8(9) . . . . ?
N8_1 Fe32_1 O53_1 C61D_1 -159.7(9) . . . . ?
Fe33_1 Fe32_1 O53_1 C61D_1 46.4(9) . . . . ?
Fe31_1 Fe32_1 O53_1 C61D_1 0.8(8) . . . . ?
O39_1 Fe32_1 O54_1 C101_1 -25.0(8) . . . . ?
O43_1 Fe32_1 O54_1 C101_1 162.9(10) . . . . ?
O44_1 Fe32_1 O54_1 C101_1 72.9(8) . . . . ?
O53_1 Fe32_1 O54_1 C101_1 -119.5(8) . . . . ?
N8_1 Fe32_1 O54_1 C101_1 157.2(8) . . . . ?
Fe33_1 Fe32_1 O54_1 C101_1 -3.2(7) . . . . ?
Fe31_1 Fe32_1 O54_1 C101_1 -49.5(8) . . . . ?
O39_1 Fe33_1 O55_1 C101_1 26.4(8) . . . . ?
O48_1 Fe33_1 O55_1 C101_1 -161.6(10) . . . . ?
O47_1 Fe33_1 O55_1 C101_1 -71.4(8) . . . . ?
O56_1 Fe33_1 O55_1 C101_1 121.4(8) . . . . ?
N9_1 Fe33_1 O55_1 C101_1 -155.8(8) . . . . ?
Fe32_1 Fe33_1 O55_1 C101_1 4.6(7) . . . . ?
Fe31_1 Fe33_1 O55_1 C101_1 51.0(8) . . . . ?
O39_1 Fe33_1 O56_1 C60C_1 -21.0(9) . . . . ?
O48_1 Fe33_1 O56_1 C60C_1 76.6(9) . . . . ?
O47_1 Fe33_1 O56_1 C60C_1 171.6(10) . . . . ?
O55_1 Fe33_1 O56_1 C60C_1 -116.0(9) . . . . ?
N9_1 Fe33_1 O56_1 C60C_1 160.7(9) . . . . ?
Fe32_1 Fe33_1 O56_1 C60C_1 -45.1(9) . . . . ?
Fe31_1 Fe33_1 O56_1 C60C_1 0.4(8) . . . . ?
O67W_1 Fe31_1 O57_1 C60C_1 3.6(15) 1_554 . . . ?
O39_1 Fe31_1 O57_1 C60C_1 24.2(9) . . . . ?
O51_1 Fe31_1 O57_1 C60C_1 -72.8(9) . . . . ?
O40_1 Fe31_1 O57_1 C60C_1 -168.6(13) . . . . ?
O52_1 Fe31_1 O57_1 C60C_1 119.7(9) . . . . ?
N7_1 Fe31_1 O57_1 C60C_1 -157.3(9) . . . . ?
Fe33_1 Fe31_1 O57_1 C60C_1 2.3(8) . . . . ?
Fe32_1 Fe31_1 O57_1 C60C_1 48.5(9) . . . . ?
O62_1 Fe43_1 O58_1 Fe41_1 -133.9(3) . . . . ?
O63_1 Fe43_1 O58_1 Fe41_1 -45.3(3) . . . . ?
O72_1 Fe43_1 O58_1 Fe41_1 133.5(3) . . . . ?
O73_1 Fe43_1 O58_1 Fe41_1 47.7(3) . . . . ?
N12_1 Fe43_1 O58_1 Fe41_1 76(5) . . . . ?
Fe42_1 Fe43_1 O58_1 Fe41_1 177.6(5) . . . . ?
O62_1 Fe43_1 O58_1 Fe42_1 48.6(3) . . . . ?
O63_1 Fe43_1 O58_1 Fe42_1 137.1(3) . . . . ?
O72_1 Fe43_1 O58_1 Fe42_1 -44.1(3) . . . . ?
O73_1 Fe43_1 O58_1 Fe42_1 -129.9(3) . . . . ?
N12_1 Fe43_1 O58_1 Fe42_1 -101(4) . . . . ?
Fe41_1 Fe43_1 O58_1 Fe42_1 -177.6(5) . . . . ?
O67_1 Fe41_1 O58_1 Fe43_1 136.2(3) . . . . ?
O66_1 Fe41_1 O58_1 Fe43_1 45.7(3) . . . . ?
O74_1 Fe41_1 O58_1 Fe43_1 -45.8(3) . . . . ?
O75_1 Fe41_1 O58_1 Fe43_1 -131.5(3) . . . . ?
N10_1 Fe41_1 O58_1 Fe43_1 -63(3) . . . . ?
Fe42_1 Fe41_1 O58_1 Fe43_1 -177.6(5) . . . . ?
O67_1 Fe41_1 O58_1 Fe42_1 -46.2(3) . . . . ?
O66_1 Fe41_1 O58_1 Fe42_1 -136.7(3) . . . . ?
O74_1 Fe41_1 O58_1 Fe42_1 131.7(3) . . . . ?
O75_1 Fe41_1 O58_1 Fe42_1 46.0(3) . . . . ?
N10_1 Fe41_1 O58_1 Fe42_1 115(3) . . . . ?
Fe43_1 Fe41_1 O58_1 Fe42_1 177.6(5) . . . . ?
O70_1 Fe42_1 O58_1 Fe43_1 -134.4(3) . . . . ?
O59_1 Fe42_1 O58_1 Fe43_1 -46.0(3) . . . . ?
O76_1 Fe42_1 O58_1 Fe43_1 132.0(3) . . . . ?
O71_1 Fe42_1 O58_1 Fe43_1 45.7(3) . . . . ?
N11_1 Fe42_1 O58_1 Fe43_1 110(6) . . . . ?
Fe41_1 Fe42_1 O58_1 Fe43_1 177.6(5) . . . . ?
O70_1 Fe42_1 O58_1 Fe41_1 48.0(3) . . . . ?
O59_1 Fe42_1 O58_1 Fe41_1 136.5(3) . . . . ?
O76_1 Fe42_1 O58_1 Fe41_1 -45.6(3) . . . . ?
O71_1 Fe42_1 O58_1 Fe41_1 -131.8(3) . . . . ?
N11_1 Fe42_1 O58_1 Fe41_1 -67(6) . . . . ?
Fe43_1 Fe42_1 O58_1 Fe41_1 -177.6(5) . . . . ?
O60_1 S423_1 O59_1 Fe42_1 87.0(7) . . . . ?
O61_1 S423_1 O59_1 Fe42_1 -147.9(6) . . . . ?
O62_1 S423_1 O59_1 Fe42_1 -32.1(7) . . . . ?
O58_1 Fe42_1 O59_1 S423_1 38.2(6) . . . . ?
O70_1 Fe42_1 O59_1 S423_1 134.7(6) . . . . ?
O76_1 Fe42_1 O59_1 S423_1 -133.0(10) . . . . ?
O71_1 Fe42_1 O59_1 S423_1 -57.5(6) . . . . ?
N11_1 Fe42_1 O59_1 S423_1 -141.1(6) . . . . ?
Fe41_1 Fe42_1 O59_1 S423_1 61.3(6) . . . . ?
Fe43_1 Fe42_1 O59_1 S423_1 16.5(5) . . . . ?
O60_1 S423_1 O62_1 Fe43_1 -82.5(7) . . . . ?
O61_1 S423_1 O62_1 Fe43_1 151.4(6) . . . . ?
O59_1 S423_1 O62_1 Fe43_1 37.3(7) . . . . ?
O58_1 Fe43_1 O62_1 S423_1 -46.6(6) . . . . ?
O63_1 Fe43_1 O62_1 S423_1 -144.3(6) . . . . ?
O72_1 Fe43_1 O62_1 S423_1 49.3(6) . . . . ?
O73_1 Fe43_1 O62_1 S423_1 125.3(13) . . . . ?
N12_1 Fe43_1 O62_1 S423_1 132.2(6) . . . . ?
Fe42_1 Fe43_1 O62_1 S423_1 -23.8(5) . . . . ?
Fe41_1 Fe43_1 O62_1 S423_1 -70.2(6) . . . . ?
O65_1 S413_1 O63_1 Fe43_1 80.0(6) . . . . ?
O64_1 S413_1 O63_1 Fe43_1 -156.5(6) . . . . ?
O66_1 S413_1 O63_1 Fe43_1 -38.6(6) . . . . ?
O58_1 Fe43_1 O63_1 S413_1 42.9(6) . . . . ?
O62_1 Fe43_1 O63_1 S413_1 139.4(5) . . . . ?
O72_1 Fe43_1 O63_1 S413_1 -132.0(10) . . . . ?
O73_1 Fe43_1 O63_1 S413_1 -51.4(6) . . . . ?
N12_1 Fe43_1 O63_1 S413_1 -135.0(5) . . . . ?
Fe42_1 Fe43_1 O63_1 S413_1 65.9(6) . . . . ?
Fe41_1 Fe43_1 O63_1 S413_1 21.6(5) . . . . ?
O65_1 S413_1 O66_1 Fe41_1 -78.7(7) . . . . ?
O64_1 S413_1 O66_1 Fe41_1 156.7(6) . . . . ?
O63_1 S413_1 O66_1 Fe41_1 39.4(6) . . . . ?
O58_1 Fe41_1 O66_1 S413_1 -44.2(6) . . . . ?
O67_1 Fe41_1 O66_1 S413_1 -142.3(6) . . . . ?
O74_1 Fe41_1 O66_1 S413_1 50.1(6) . . . . ?
O75_1 Fe41_1 O66_1 S413_1 123.4(12) . . . . ?
N10_1 Fe41_1 O66_1 S413_1 132.9(5) . . . . ?
Fe42_1 Fe41_1 O66_1 S413_1 -67.4(6) . . . . ?
Fe43_1 Fe41_1 O66_1 S413_1 -22.8(5) . . . . ?
O69_1 S412_1 O67_1 Fe41_1 -153.1(6) . . . . ?
O68_1 S412_1 O67_1 Fe41_1 83.5(7) . . . . ?
O70_1 S412_1 O67_1 Fe41_1 -34.6(7) . . . . ?
O58_1 Fe41_1 O67_1 S412_1 40.2(6) . . . . ?
O66_1 Fe41_1 O67_1 S412_1 137.7(6) . . . . ?
O74_1 Fe41_1 O67_1 S412_1 -130.2(12) . . . . ?
O75_1 Fe41_1 O67_1 S412_1 -55.2(6) . . . . ?
N10_1 Fe41_1 O67_1 S412_1 -138.8(6) . . . . ?
Fe42_1 Fe41_1 O67_1 S412_1 18.3(6) . . . . ?
Fe43_1 Fe41_1 O67_1 S412_1 63.2(6) . . . . ?
O69_1 S412_1 O70_1 Fe42_1 157.1(6) . . . . ?
O68_1 S412_1 O70_1 Fe42_1 -81.0(6) . . . . ?
O67_1 S412_1 O70_1 Fe42_1 38.3(6) . . . . ?
O58_1 Fe42_1 O70_1 S412_1 -46.3(6) . . . . ?
O59_1 Fe42_1 O70_1 S412_1 -143.8(5) . . . . ?
O76_1 Fe42_1 O70_1 S412_1 49.8(6) . . . . ?
O71_1 Fe42_1 O70_1 S412_1 133.1(11) . . . . ?
N11_1 Fe42_1 O70_1 S412_1 132.0(5) . . . . ?
Fe41_1 Fe42_1 O70_1 S412_1 -23.8(5) . . . . ?
Fe43_1 Fe42_1 O70_1 S412_1 -69.9(6) . . . . ?
O58_1 Fe42_1 O71_1 C80D_1 -23.7(9) . . . . ?
O70_1 Fe42_1 O71_1 C80D_1 157.0(12) . . . . ?
O59_1 Fe42_1 O71_1 C80D_1 74.2(9) . . . . ?
O76_1 Fe42_1 O71_1 C80D_1 -119.0(9) . . . . ?
N11_1 Fe42_1 O71_1 C80D_1 158.1(9) . . . . ?
Fe41_1 Fe42_1 O71_1 C80D_1 -47.9(9) . . . . ?
Fe43_1 Fe42_1 O71_1 C80D_1 -1.9(8) . . . . ?
O58_1 Fe43_1 O72_1 C80D_1 18.9(9) . . . . ?
O62_1 Fe43_1 O72_1 C80D_1 -78.2(9) . . . . ?
O63_1 Fe43_1 O72_1 C80D_1 -166.2(11) . . . . ?
O73_1 Fe43_1 O72_1 C80D_1 112.4(9) . . . . ?
N12_1 Fe43_1 O72_1 C80D_1 -163.2(9) . . . . ?
Fe42_1 Fe43_1 O72_1 C80D_1 -2.4(8) . . . . ?
Fe41_1 Fe43_1 O72_1 C80D_1 42.4(9) . . . . ?
O58_1 Fe43_1 O73_1 C20A_1 -25.1(9) . . . . ?
O62_1 Fe43_1 O73_1 C20A_1 162.9(13) . . . . ?
O63_1 Fe43_1 O73_1 C20A_1 73.0(9) . . . . ?
O72_1 Fe43_1 O73_1 C20A_1 -120.4(9) . . . . ?
N12_1 Fe43_1 O73_1 C20A_1 156.0(9) . . . . ?
Fe42_1 Fe43_1 O73_1 C20A_1 -49.8(9) . . . . ?
Fe41_1 Fe43_1 O73_1 C20A_1 -2.7(9) . . . . ?
O58_1 Fe41_1 O74_1 C20A_1 19.2(10) . . . . ?
O67_1 Fe41_1 O74_1 C20A_1 -170.3(11) . . . . ?
O66_1 Fe41_1 O74_1 C20A_1 -78.4(10) . . . . ?
O75_1 Fe41_1 O74_1 C20A_1 114.0(10) . . . . ?
N10_1 Fe41_1 O74_1 C20A_1 -161.7(10) . . . . ?
Fe42_1 Fe41_1 O74_1 C20A_1 43.3(10) . . . . ?
Fe43_1 Fe41_1 O74_1 C20A_1 -2.6(9) . . . . ?
O58_1 Fe41_1 O75_1 C81E_1 -23.0(9) . . . . ?
O67_1 Fe41_1 O75_1 C81E_1 75.2(9) . . . . ?
O66_1 Fe41_1 O75_1 C81E_1 169.3(11) . . . . ?
O74_1 Fe41_1 O75_1 C81E_1 -116.8(9) . . . . ?
N10_1 Fe41_1 O75_1 C81E_1 159.8(9) . . . . ?
Fe42_1 Fe41_1 O75_1 C81E_1 -0.9(8) . . . . ?
Fe43_1 Fe41_1 O75_1 C81E_1 -47.0(9) . . . . ?
O58_1 Fe42_1 O76_1 C81E_1 21.0(10) . . . . ?
O70_1 Fe42_1 O76_1 C81E_1 -76.1(10) . . . . ?
O59_1 Fe42_1 O76_1 C81E_1 -167.7(11) . . . . ?
O71_1 Fe42_1 O76_1 C81E_1 116.1(10) . . . . ?
N11_1 Fe42_1 O76_1 C81E_1 -159.6(10) . . . . ?
Fe41_1 Fe42_1 O76_1 C81E_1 -0.8(9) . . . . ?
Fe43_1 Fe42_1 O76_1 C81E_1 45.2(10) . . . . ?
Fe13_1 O16_1 C1A_1 O17_1 -4.0(15) . . . . ?
Fe13_1 O16_1 C1A_1 C2A_1 176.3(6) . . . . ?
Fe11_1 O17_1 C1A_1 O16_1 -1.8(15) . . . . ?
Fe11_1 O17_1 C1A_1 C2A_1 177.9(6) . . . . ?
O16_1 C1A_1 C2A_1 C7A_1 -178.9(8) . . . . ?
O17_1 C1A_1 C2A_1 C7A_1 1.3(14) . . . . ?
O16_1 C1A_1 C2A_1 C3A_1 -2.1(14) . . . . ?
O17_1 C1A_1 C2A_1 C3A_1 178.2(8) . . . . ?
C7A_1 C2A_1 C3A_1 C4A_1 1.0(12) . . . . ?
C1A_1 C2A_1 C3A_1 C4A_1 -175.9(6) . . . . ?
C2A_1 C3A_1 C4A_1 C5A_1 -0.5(6) . . . . ?
C3A_1 C4A_1 C5A_1 C6A_1 0.0 . . . . ?
C3A_1 C4A_1 C5A_1 C8A_1 175.9 . . . . ?
C4A_1 C5A_1 C6A_1 C7A_1 0.0 . . . . ?
C8A_1 C5A_1 C6A_1 C7A_1 -175.9 . . . . ?
C3A_1 C2A_1 C7A_1 C6A_1 -1.0(12) . . . . ?
C1A_1 C2A_1 C7A_1 C6A_1 175.8(7) . . . . ?
C5A_1 C6A_1 C7A_1 C2A_1 0.5(6) . . . . ?
C4A_1 C5A_1 C8A_1 C9A_1 -14.8 . . . . ?
C6A_1 C5A_1 C8A_1 C9A_1 161.2 . . . . ?
C4A_1 C5A_1 C8A_1 C13A_1 161.9 . . . . ?
C6A_1 C5A_1 C8A_1 C13A_1 -22.1 . . . . ?
C13A_1 C8A_1 C9A_1 C10A_1 0.0 . . . . ?
C5A_1 C8A_1 C9A_1 C10A_1 176.7 . . . . ?
C8A_1 C9A_1 C10A_1 C11A_1 0.0 . . . . ?
C9A_1 C10A_1 C11A_1 C12A_1 0.0 . . . . ?
C9A_1 C10A_1 C11A_1 C14A_1 174.8 . . . . ?
C10A_1 C11A_1 C12A_1 C13A_1 0.0 . . . . ?
C14A_1 C11A_1 C12A_1 C13A_1 -174.9 . . . . ?
C9A_1 C8A_1 C13A_1 C12A_1 0.0 . . . . ?
C5A_1 C8A_1 C13A_1 C12A_1 -176.7 . . . . ?
C11A_1 C12A_1 C13A_1 C8A_1 0.0 . . . . ?
C10A_1 C11A_1 C14A_1 C15A_1 21.4 . . . . ?
C12A_1 C11A_1 C14A_1 C15A_1 -163.7 . . . . ?
C10A_1 C11A_1 C14A_1 C19A_1 -160.8 . . . . ?
C12A_1 C11A_1 C14A_1 C19A_1 14.0 . . . . ?
C19A_1 C14A_1 C15A_1 C16A_1 0.0 . . . . ?
C11A_1 C14A_1 C15A_1 C16A_1 177.8 . . . . ?
C14A_1 C15A_1 C16A_1 C17A_1 0.0 . . . . ?
C15A_1 C16A_1 C17A_1 C18A_1 0.0 . . . . ?
C15A_1 C16A_1 C17A_1 C20A_1 176.2(5) . . . . ?
C16A_1 C17A_1 C18A_1 C19A_1 0.0 . . . . ?
C20A_1 C17A_1 C18A_1 C19A_1 -176.1(5) . . . . ?
C17A_1 C18A_1 C19A_1 C14A_1 0.0 . . . . ?
C15A_1 C14A_1 C19A_1 C18A_1 0.0 . . . . ?
C11A_1 C14A_1 C19A_1 C18A_1 -177.7 . . . . ?
Fe43_1 O73_1 C20A_1 O74_1 2.0(16) . . . . ?
Fe43_1 O73_1 C20A_1 C17A_1 -178.2(5) . . . . ?
Fe41_1 O74_1 C20A_1 O73_1 1.8(17) . . . . ?
Fe41_1 O74_1 C20A_1 C17A_1 -178.0(5) . . . . ?
C18A_1 C17A_1 C20A_1 O73_1 -1.1(10) . . . . ?
C16A_1 C17A_1 C20A_1 O73_1 -177.2(6) . . . . ?
C18A_1 C17A_1 C20A_1 O74_1 178.7(6) . . . . ?
C16A_1 C17A_1 C20A_1 O74_1 2.5(11) . . . . ?
Fe13_1 O15_1 C21B_1 O14_1 -4.1(14) . . . . ?
Fe13_1 O15_1 C21B_1 C22B_1 178.8(6) . . . . ?
Fe12_1 O14_1 C21B_1 O15_1 0.7(14) . . . . ?
Fe12_1 O14_1 C21B_1 C22B_1 177.9(6) . . . . ?
O15_1 C21B_1 C22B_1 C23B_1 -176.6(7) . . . . ?
O14_1 C21B_1 C22B_1 C23B_1 6.0(12) . . . . ?
O15_1 C21B_1 C22B_1 C27B_1 5.1(12) . . . . ?
O14_1 C21B_1 C22B_1 C27B_1 -172.3(7) . . . . ?
C27B_1 C22B_1 C23B_1 C24B_1 -1.1(10) . . . . ?
C21B_1 C22B_1 C23B_1 C24B_1 -179.3(6) . . . . ?
C22B_1 C23B_1 C24B_1 C25B_1 0.5(5) . . . . ?
C23B_1 C24B_1 C25B_1 C26B_1 0.0 . . . . ?
C23B_1 C24B_1 C25B_1 C28B_1 -179.1 . . . . ?
C24B_1 C25B_1 C26B_1 C27B_1 0.0 . . . . ?
C28B_1 C25B_1 C26B_1 C27B_1 179.1 . . . . ?
C23B_1 C22B_1 C27B_1 C26B_1 1.1(10) . . . . ?
C21B_1 C22B_1 C27B_1 C26B_1 179.3(6) . . . . ?
C25B_1 C26B_1 C27B_1 C22B_1 -0.5(5) . . . . ?
C24B_1 C25B_1 C28B_1 C29B_1 12.9 . . . . ?
C26B_1 C25B_1 C28B_1 C29B_1 -166.2 . . . . ?
C24B_1 C25B_1 C28B_1 C33B_1 -163.5 . . . . ?
C26B_1 C25B_1 C28B_1 C33B_1 17.4 . . . . ?
C33B_1 C28B_1 C29B_1 C30B_1 0.0 . . . . ?
C25B_1 C28B_1 C29B_1 C30B_1 -176.4 . . . . ?
C28B_1 C29B_1 C30B_1 C31B_1 0.0 . . . . ?
C29B_1 C30B_1 C31B_1 C32B_1 0.0 . . . . ?
C29B_1 C30B_1 C31B_1 C34B_1 -179.2 . . . . ?
C30B_1 C31B_1 C32B_1 C33B_1 0.0 . . . . ?
C34B_1 C31B_1 C32B_1 C33B_1 179.2 . . . . ?
C31B_1 C32B_1 C33B_1 C28B_1 0.0 . . . . ?
C29B_1 C28B_1 C33B_1 C32B_1 0.0 . . . . ?
C25B_1 C28B_1 C33B_1 C32B_1 176.4 . . . . ?
C30B_1 C31B_1 C34B_1 C35B_1 -20.3 . . . . ?
C32B_1 C31B_1 C34B_1 C35B_1 160.5 . . . . ?
C30B_1 C31B_1 C34B_1 C39B_1 162.5 . . . . ?
C32B_1 C31B_1 C34B_1 C39B_1 -16.7 . . . . ?
C39B_1 C34B_1 C35B_1 C36B_1 0.0 . . . . ?
C31B_1 C34B_1 C35B_1 C36B_1 -177.2 . . . . ?
C34B_1 C35B_1 C36B_1 C37B_1 0.0 . . . . ?
C35B_1 C36B_1 C37B_1 C38B_1 0.0 . . . . ?
C35B_1 C36B_1 C37B_1 C40B_1 177.6(5) . . . . ?
C36B_1 C37B_1 C38B_1 C39B_1 0.0 . . . . ?
C40B_1 C37B_1 C38B_1 C39B_1 -177.6(5) . . . . ?
C35B_1 C34B_1 C39B_1 C38B_1 0.0 . . . . ?
C31B_1 C34B_1 C39B_1 C38B_1 177.1 . . . . ?
C37B_1 C38B_1 C39B_1 C34B_1 0.0 . . . . ?
Fe23_1 O36_1 C40B_1 O35_1 -1.7(16) . . . . ?
Fe23_1 O36_1 C40B_1 C37B_1 -179.8(5) . . . . ?
Fe22_1 O35_1 C40B_1 O36_1 -1.0(16) . . . . ?
Fe22_1 O35_1 C40B_1 C37B_1 177.1(5) . . . . ?
C38B_1 C37B_1 C40B_1 O36_1 174.4(6) . . . . ?
C36B_1 C37B_1 C40B_1 O36_1 -3.2(10) . . . . ?
C38B_1 C37B_1 C40B_1 O35_1 -3.8(10) . . . . ?
C36B_1 C37B_1 C40B_1 O35_1 178.6(6) . . . . ?
Fe12_1 O19_1 C41C_1 O18_1 -2.9(13) . . . . ?
Fe12_1 O19_1 C41C_1 C42C_1 177.5(6) . . . . ?
Fe11_1 O18_1 C41C_1 O19_1 -1.3(14) . . . . ?
Fe11_1 O18_1 C41C_1 C42C_1 178.3(6) . . . . ?
O19_1 C41C_1 C42C_1 C43C_1 175.3(8) . . . . ?
O18_1 C41C_1 C42C_1 C43C_1 -4.3(13) . . . . ?
O19_1 C41C_1 C42C_1 C47C_1 -4.1(12) . . . . ?
O18_1 C41C_1 C42C_1 C47C_1 176.3(7) . . . . ?
C47C_1 C42C_1 C43C_1 C44C_1 2.6(10) . . . . ?
C41C_1 C42C_1 C43C_1 C44C_1 -176.7(6) . . . . ?
C42C_1 C43C_1 C44C_1 C45C_1 -1.3(5) . . . . ?
C43C_1 C44C_1 C45C_1 C46C_1 0.0 . . . . ?
C43C_1 C44C_1 C45C_1 C48C_1 177.3 . . . . ?
C44C_1 C45C_1 C46C_1 C47C_1 0.0 . . . . ?
C48C_1 C45C_1 C46C_1 C47C_1 -177.3 . . . . ?
C45C_1 C46C_1 C47C_1 C42C_1 1.3(5) . . . . ?
C43C_1 C42C_1 C47C_1 C46C_1 -2.6(10) . . . . ?
C41C_1 C42C_1 C47C_1 C46C_1 176.8(6) . . . . ?
C44C_1 C45C_1 C48C_1 C49C_1 -9.3 . . . . ?
C46C_1 C45C_1 C48C_1 C49C_1 168.0 . . . . ?
C44C_1 C45C_1 C48C_1 C53C_1 171.4 . . . . ?
C46C_1 C45C_1 C48C_1 C53C_1 -11.3 . . . . ?
C53C_1 C48C_1 C49C_1 C50C_1 0.0 . . . . ?
C45C_1 C48C_1 C49C_1 C50C_1 -179.3 . . . . ?
C48C_1 C49C_1 C50C_1 C51C_1 0.0 . . . . ?
C49C_1 C50C_1 C51C_1 C52C_1 0.0 . . . . ?
C49C_1 C50C_1 C51C_1 C54C_1 173.9 . . . . ?
C50C_1 C51C_1 C52C_1 C53C_1 0.0 . . . . ?
C54C_1 C51C_1 C52C_1 C53C_1 -173.9 . . . . ?
C49C_1 C48C_1 C53C_1 C52C_1 0.0 . . . . ?
C45C_1 C48C_1 C53C_1 C52C_1 179.3 . . . . ?
C51C_1 C52C_1 C53C_1 C48C_1 0.0 . . . . ?
C52C_1 C51C_1 C54C_1 C55C_1 -174.8 . . . . ?
C50C_1 C51C_1 C54C_1 C55C_1 11.2 . . . . ?
C52C_1 C51C_1 C54C_1 C59C_1 5.7 . . . . ?
C50C_1 C51C_1 C54C_1 C59C_1 -168.3 . . . . ?
C59C_1 C54C_1 C55C_1 C56C_1 0.0 . . . . ?
C51C_1 C54C_1 C55C_1 C56C_1 -179.5 . . . . ?
C54C_1 C55C_1 C56C_1 C57C_1 0.0 . . . . ?
C55C_1 C56C_1 C57C_1 C58C_1 0.0 . . . . ?
C55C_1 C56C_1 C57C_1 C60C_1 177.7(4) . . . . ?
C56C_1 C57C_1 C58C_1 C59C_1 0.0 . . . . ?
C60C_1 C57C_1 C58C_1 C59C_1 -177.7(4) . . . . ?
C57C_1 C58C_1 C59C_1 C54C_1 0.0 . . . . ?
C55C_1 C54C_1 C59C_1 C58C_1 0.0 . . . . ?
C51C_1 C54C_1 C59C_1 C58C_1 179.5 . . . . ?
Fe33_1 O56_1 C60C_1 O57_1 1.0(16) . . . . ?
Fe33_1 O56_1 C60C_1 C57C_1 177.5(5) . . . . ?
Fe31_1 O57_1 C60C_1 O56_1 -2.9(15) . . . . ?
Fe31_1 O57_1 C60C_1 C57C_1 -179.4(5) . . . . ?
C58C_1 C57C_1 C60C_1 O56_1 4.3(10) . . . . ?
C56C_1 C57C_1 C60C_1 O56_1 -173.4(6) . . . . ?
C58C_1 C57C_1 C60C_1 O57_1 -178.9(6) . . . . ?
C56C_1 C57C_1 C60C_1 O57_1 3.4(10) . . . . ?
Fe31_1 O52_1 C61D_1 O53_1 3.1(16) . . . . ?
Fe31_1 O52_1 C61D_1 C62D_1 -179.3(7) . . . . ?
Fe32_1 O53_1 C61D_1 O52_1 -2.4(16) . . . . ?
Fe32_1 O53_1 C61D_1 C62D_1 179.8(6) . . . . ?
O52_1 C61D_1 C62D_1 C67D_1 177.5(9) . . . . ?
O53_1 C61D_1 C62D_1 C67D_1 -4.6(14) . . . . ?
O52_1 C61D_1 C62D_1 C63D_1 -5.2(14) . . . . ?
O53_1 C61D_1 C62D_1 C63D_1 172.7(8) . . . . ?
C67D_1 C62D_1 C63D_1 C64D_1 -0.7(11) . . . . ?
C61D_1 C62D_1 C63D_1 C64D_1 -178.0(6) . . . . ?
C62D_1 C63D_1 C64D_1 C65D_1 0.4(6) . . . . ?
C63D_1 C64D_1 C65D_1 C66D_1 0.0 . . . . ?
C63D_1 C64D_1 C65D_1 C68D_1 177.0 . . . . ?
C64D_1 C65D_1 C66D_1 C67D_1 0.0 . . . . ?
C68D_1 C65D_1 C66D_1 C67D_1 -177.1 . . . . ?
C63D_1 C62D_1 C67D_1 C66D_1 0.7(12) . . . . ?
C61D_1 C62D_1 C67D_1 C66D_1 178.0(7) . . . . ?
C65D_1 C66D_1 C67D_1 C62D_1 -0.4(6) . . . . ?
C64D_1 C65D_1 C68D_1 C73D_1 171.7 . . . . ?
C66D_1 C65D_1 C68D_1 C73D_1 -11.2 . . . . ?
C64D_1 C65D_1 C68D_1 C69D_1 -10.0 . . . . ?
C66D_1 C65D_1 C68D_1 C69D_1 167.0 . . . . ?
C73D_1 C68D_1 C69D_1 C70D_1 0.0 . . . . ?
C65D_1 C68D_1 C69D_1 C70D_1 -178.3 . . . . ?
C68D_1 C69D_1 C70D_1 C71D_1 0.0 . . . . ?
C69D_1 C70D_1 C71D_1 C72D_1 0.0 . . . . ?
C69D_1 C70D_1 C71D_1 C74D_1 176.9 . . . . ?
C70D_1 C71D_1 C72D_1 C73D_1 0.0 . . . . ?
C74D_1 C71D_1 C72D_1 C73D_1 -177.0 . . . . ?
C71D_1 C72D_1 C73D_1 C68D_1 0.0 . . . . ?
C69D_1 C68D_1 C73D_1 C72D_1 0.0 . . . . ?
C65D_1 C68D_1 C73D_1 C72D_1 178.3 . . . . ?
C70D_1 C71D_1 C74D_1 C79D_1 -164.5 . . . . ?
C72D_1 C71D_1 C74D_1 C79D_1 12.4 . . . . ?
C70D_1 C71D_1 C74D_1 C75D_1 12.9 . . . . ?
C72D_1 C71D_1 C74D_1 C75D_1 -170.2 . . . . ?
C79D_1 C74D_1 C75D_1 C76D_1 0.0 . . . . ?
C71D_1 C74D_1 C75D_1 C76D_1 -177.4 . . . . ?
C74D_1 C75D_1 C76D_1 C77D_1 0.0 . . . . ?
C75D_1 C76D_1 C77D_1 C78D_1 0.0 . . . . ?
C75D_1 C76D_1 C77D_1 C80D_1 174.6(5) . . . . ?
C76D_1 C77D_1 C78D_1 C79D_1 0.0 . . . . ?
C80D_1 C77D_1 C78D_1 C79D_1 -174.6(5) . . . . ?
C75D_1 C74D_1 C79D_1 C78D_1 0.0 . . . . ?
C71D_1 C74D_1 C79D_1 C78D_1 177.4 . . . . ?
C77D_1 C78D_1 C79D_1 C74D_1 0.0 . . . . ?
Fe42_1 O71_1 C80D_1 O72_1 0.9(16) . . . . ?
Fe42_1 O71_1 C80D_1 C77D_1 -177.1(5) . . . . ?
Fe43_1 O72_1 C80D_1 O71_1 2.1(16) . . . . ?
Fe43_1 O72_1 C80D_1 C77D_1 -179.8(5) . . . . ?
C78D_1 C77D_1 C80D_1 O71_1 -0.5(10) . . . . ?
C76D_1 C77D_1 C80D_1 O71_1 -175.1(6) . . . . ?
C78D_1 C77D_1 C80D_1 O72_1 -178.8(6) . . . . ?
C76D_1 C77D_1 C80D_1 O72_1 6.6(10) . . . . ?
Fe42_1 O76_1 C81E_1 O75_1 0.4(18) . . . . ?
Fe42_1 O76_1 C81E_1 C82E_1 -178.6(7) . . . . ?
Fe41_1 O75_1 C81E_1 O76_1 0.7(17) . . . . ?
Fe41_1 O75_1 C81E_1 C82E_1 179.9(6) . . . . ?
O76_1 C81E_1 C82E_1 C87E_1 0.1(15) . . . . ?
O75_1 C81E_1 C82E_1 C87E_1 -179.1(9) . . . . ?
O76_1 C81E_1 C82E_1 C83E_1 178.4(9) . . . . ?
O75_1 C81E_1 C82E_1 C83E_1 -0.8(14) . . . . ?
C87E_1 C82E_1 C83E_1 C84E_1 -0.6(12) . . . . ?
C81E_1 C82E_1 C83E_1 C84E_1 -178.9(7) . . . . ?
C82E_1 C83E_1 C84E_1 C85E_1 0.3(6) . . . . ?
C83E_1 C84E_1 C85E_1 C86E_1 0.0 . . . . ?
C83E_1 C84E_1 C85E_1 C88E_1 178.0 . . . . ?
C84E_1 C85E_1 C86E_1 C87E_1 0.0 . . . . ?
C88E_1 C85E_1 C86E_1 C87E_1 -178.1 . . . . ?
C83E_1 C82E_1 C87E_1 C86E_1 0.6(12) . . . . ?
C81E_1 C82E_1 C87E_1 C86E_1 178.9(6) . . . . ?
C85E_1 C86E_1 C87E_1 C82E_1 -0.3(6) . . . . ?
C86E_1 C85E_1 C88E_1 C89E_1 164.3 . . . . ?
C84E_1 C85E_1 C88E_1 C89E_1 -13.7 . . . . ?
C86E_1 C85E_1 C88E_1 C93E_1 -13.8 . . . . ?
C84E_1 C85E_1 C88E_1 C93E_1 168.2 . . . . ?
C93E_1 C88E_1 C89E_1 C90E_1 0.0 . . . . ?
C85E_1 C88E_1 C89E_1 C90E_1 -178.1 . . . . ?
C88E_1 C89E_1 C90E_1 C91E_1 0.0 . . . . ?
C89E_1 C90E_1 C91E_1 C92E_1 0.0 . . . . ?
C89E_1 C90E_1 C91E_1 C94E_1 -177.5 . . . . ?
C90E_1 C91E_1 C92E_1 C93E_1 0.0 . . . . ?
C94E_1 C91E_1 C92E_1 C93E_1 177.5 . . . . ?
C91E_1 C92E_1 C93E_1 C88E_1 0.0 . . . . ?
C89E_1 C88E_1 C93E_1 C92E_1 0.0 . . . . ?
C85E_1 C88E_1 C93E_1 C92E_1 178.1 . . . . ?
C90E_1 C91E_1 C94E_1 C95E_1 10.8 . . . . ?
C92E_1 C91E_1 C94E_1 C95E_1 -166.7 . . . . ?
C90E_1 C91E_1 C94E_1 C99E_1 -164.8 . . . . ?
C92E_1 C91E_1 C94E_1 C99E_1 17.7 . . . . ?
C99E_1 C94E_1 C95E_1 C96E_1 0.0 . . . . ?
C91E_1 C94E_1 C95E_1 C96E_1 -175.6 . . . . ?
C94E_1 C95E_1 C96E_1 C97E_1 0.0 . . . . ?
C95E_1 C96E_1 C97E_1 C98E_1 0.0 . . . . ?
C95E_1 C96E_1 C97E_1 C100_1 -179.8(4) . . . . ?
C96E_1 C97E_1 C98E_1 C99E_1 0.0 . . . . ?
C100_1 C97E_1 C98E_1 C99E_1 179.8(5) . . . . ?
C97E_1 C98E_1 C99E_1 C94E_1 0.0 . . . . ?
C95E_1 C94E_1 C99E_1 C98E_1 0.0 . . . . ?
C91E_1 C94E_1 C99E_1 C98E_1 175.7 . . . . ?
Fe22_1 O34_1 C100_1 O33_1 -0.8(16) . . . . ?
Fe22_1 O34_1 C100_1 C97E_1 -177.6(4) . . . . ?
Fe21_1 O33_1 C100_1 O34_1 2.9(15) . . . . ?
Fe21_1 O33_1 C100_1 C97E_1 179.8(4) . . . . ?
C96E_1 C97E_1 C100_1 O34_1 1.1(10) . . . . ?
C98E_1 C97E_1 C100_1 O34_1 -178.7(6) . . . . ?
C96E_1 C97E_1 C100_1 O33_1 -176.1(5) . . . . ?
C98E_1 C97E_1 C100_1 O33_1 4.1(9) . . . . ?
Fe33_1 O55_1 C101_1 O54_1 -8.9(14) . . . . ?
Fe33_1 O55_1 C101_1 C102_1 169.9(6) . . . . ?
Fe32_1 O54_1 C101_1 O55_1 7.9(14) . . . . ?
Fe32_1 O54_1 C101_1 C102_1 -170.8(6) . . . . ?
O55_1 C101_1 C102_1 C103_1 178.7(7) . . . . ?
O54_1 C101_1 C102_1 C103_1 -2.5(12) . . . . ?
O55_1 C101_1 C102_1 C107_1 1.4(12) . . . . ?
O54_1 C101_1 C102_1 C107_1 -179.7(7) . . . . ?
C107_1 C102_1 C103_1 C104_1 0.8(10) . . . . ?
C101_1 C102_1 C103_1 C104_1 -176.4(6) . . . . ?
C102_1 C103_1 C104_1 C105_1 -0.4(5) . . . . ?
C103_1 C104_1 C105_1 C106_1 0.0 . . . . ?
C103_1 C104_1 C105_1 C108_1 178.8 . . . . ?
C104_1 C105_1 C106_1 C107_1 0.0 . . . . ?
C108_1 C105_1 C106_1 C107_1 -178.8 . . . . ?
C105_1 C106_1 C107_1 C102_1 0.4(5) . . . . ?
C103_1 C102_1 C107_1 C106_1 -0.8(10) . . . . ?
C101_1 C102_1 C107_1 C106_1 176.4(6) . . . . ?
C104_1 C105_1 C108_1 C109_1 0.3 . . . . ?
C106_1 C105_1 C108_1 C109_1 179.1 . . . . ?
C104_1 C105_1 C108_1 C113_1 -171.8 . . . . ?
C106_1 C105_1 C108_1 C113_1 7.0 . . . . ?
C113_1 C108_1 C109_1 C110_1 0.0 . . . . ?
C105_1 C108_1 C109_1 C110_1 -172.2 . . . . ?
C108_1 C109_1 C110_1 C111_1 0.0 . . . . ?
C109_1 C110_1 C111_1 C112_1 0.0 . . . . ?
C109_1 C110_1 C111_1 C114_1 178.5 . . . . ?
C110_1 C111_1 C112_1 C113_1 0.0 . . . . ?
C114_1 C111_1 C112_1 C113_1 -178.6 . . . . ?
C111_1 C112_1 C113_1 C108_1 0.0 . . . . ?
C109_1 C108_1 C113_1 C112_1 0.0 . . . . ?
C105_1 C108_1 C113_1 C112_1 171.9 . . . . ?
C112_1 C111_1 C114_1 C115_1 177.1 . . . . ?
C110_1 C111_1 C114_1 C115_1 -1.5 . . . . ?
C112_1 C111_1 C114_1 C119_1 -1.9 . . . . ?
C110_1 C111_1 C114_1 C119_1 179.5 . . . . ?
C119_1 C114_1 C115_1 C116_1 0.0 . . . . ?
C111_1 C114_1 C115_1 C116_1 -179.0 . . . . ?
C114_1 C115_1 C116_1 C117_1 0.0 . . . . ?
C115_1 C116_1 C117_1 C118_1 0.0 . . . . ?
C115_1 C116_1 C117_1 C120_1 176.3(4) . . . . ?
C116_1 C117_1 C118_1 C119_1 0.0 . . . . ?
C120_1 C117_1 C118_1 C119_1 -176.3(4) . . . . ?
C115_1 C114_1 C119_1 C118_1 0.0 . . . . ?
C111_1 C114_1 C119_1 C118_1 179.0 . . . . ?
C117_1 C118_1 C119_1 C114_1 0.0 . . . . ?
Fe23_1 O37_1 C120_1 O38_1 3.1(15) . . . . ?
Fe23_1 O37_1 C120_1 C117_1 -179.6(4) . . . . ?
Fe21_1 O38_1 C120_1 O37_1 -0.9(15) . . . . ?
Fe21_1 O38_1 C120_1 C117_1 -178.3(4) . . . . ?
C116_1 C117_1 C120_1 O37_1 -176.9(6) . . . . ?
C118_1 C117_1 C120_1 O37_1 -0.6(9) . . . . ?
C116_1 C117_1 C120_1 O38_1 0.7(9) . . . . ?
C118_1 C117_1 C120_1 O38_1 177.0(5) . . . . ?
O1_1 Fe11_1 N1_1 C125_1 -84(5) . . . . ?
O10_1 Fe11_1 N1_1 C125_1 43.6(5) . . . . ?
O9_1 Fe11_1 N1_1 C125_1 132.8(5) . . . . ?
O18_1 Fe11_1 N1_1 C125_1 -48.9(5) . . . . ?
O17_1 Fe11_1 N1_1 C125_1 -134.9(5) . . . . ?
Fe13_1 Fe11_1 N1_1 C125_1 -176.62(16) . . . . ?
Fe12_1 Fe11_1 N1_1 C125_1 -10.6(7) . . . . ?
O1_1 Fe11_1 N1_1 C121_1 96(5) . . . . ?
O10_1 Fe11_1 N1_1 C121_1 -136.9(5) . . . . ?
O9_1 Fe11_1 N1_1 C121_1 -47.8(5) . . . . ?
O18_1 Fe11_1 N1_1 C121_1 130.6(5) . . . . ?
O17_1 Fe11_1 N1_1 C121_1 44.6(4) . . . . ?
Fe13_1 Fe11_1 N1_1 C121_1 2.8(7) . . . . ?
Fe12_1 Fe11_1 N1_1 C121_1 168.82(18) . . . . ?
C125_1 N1_1 C121_1 C122_1 -0.1(7) . . . . ?
Fe11_1 N1_1 C121_1 C122_1 -179.5(2) . . . . ?
N1_1 C121_1 C122_1 C123_1 0.0(3) . . . . ?
C121_1 C122_1 C123_1 C124_1 0.0 . . . . ?
C122_1 C123_1 C124_1 C125_1 0.0 . . . . ?
C121_1 N1_1 C125_1 C124_1 0.1(7) . . . . ?
Fe11_1 N1_1 C125_1 C124_1 179.5(2) . . . . ?
C123_1 C124_1 C125_1 N1_1 0.0(3) . . . . ?
O1_1 Fe12_1 N2_1 C130_1 -74(5) . . . . ?
O13_1 Fe12_1 N2_1 C130_1 130.66(18) . . . . ?
O2_1 Fe12_1 N2_1 C130_1 41.92(17) . . . . ?
O14_1 Fe12_1 N2_1 C130_1 -51.53(18) . . . . ?
O19_1 Fe12_1 N2_1 C130_1 -137.89(17) . . . . ?
Fe11_1 Fe12_1 N2_1 C130_1 179.56(9) . . . . ?
Fe13_1 Fe12_1 N2_1 C130_1 -10.12(14) . . . . ?
O1_1 Fe12_1 N2_1 C126_1 107(5) . . . . ?
O13_1 Fe12_1 N2_1 C126_1 -48.22(18) . . . . ?
O2_1 Fe12_1 N2_1 C126_1 -136.95(16) . . . . ?
O14_1 Fe12_1 N2_1 C126_1 129.60(17) . . . . ?
O19_1 Fe12_1 N2_1 C126_1 43.24(17) . . . . ?
Fe11_1 Fe12_1 N2_1 C126_1 0.68(14) . . . . ?
Fe13_1 Fe12_1 N2_1 C126_1 171.00(9) . . . . ?
C130_1 N2_1 C126_1 C127_1 0.0 . . . . ?
Fe12_1 N2_1 C126_1 C127_1 178.87(6) . . . . ?
N2_1 C126_1 C127_1 C128_1 0.0 . . . . ?
C126_1 C127_1 C128_1 C129_1 0.0 . . . . ?
C127_1 C128_1 C129_1 C130_1 0.0 . . . . ?
C126_1 N2_1 C130_1 C129_1 0.0 . . . . ?
Fe12_1 N2_1 C130_1 C129_1 -178.89(6) . . . . ?
C128_1 C129_1 C130_1 N2_1 0.0 . . . . ?
O1_1 Fe13_1 N3_1 C131_1 71(3) . . . . ?
O5_1 Fe13_1 N3_1 C131_1 -44.97(18) . . . . ?
O6_1 Fe13_1 N3_1 C131_1 -134.32(18) . . . . ?
O15_1 Fe13_1 N3_1 C131_1 47.41(18) . . . . ?
O16_1 Fe13_1 N3_1 C131_1 133.85(18) . . . . ?
Fe11_1 Fe13_1 N3_1 C131_1 172.68(9) . . . . ?
Fe12_1 Fe13_1 N3_1 C131_1 6.65(14) . . . . ?
O1_1 Fe13_1 N3_1 C135_1 -108(3) . . . . ?
O5_1 Fe13_1 N3_1 C135_1 136.34(18) . . . . ?
O6_1 Fe13_1 N3_1 C135_1 47.00(18) . . . . ?
O15_1 Fe13_1 N3_1 C135_1 -131.28(18) . . . . ?
O16_1 Fe13_1 N3_1 C135_1 -44.84(18) . . . . ?
Fe11_1 Fe13_1 N3_1 C135_1 -6.01(15) . . . . ?
Fe12_1 Fe13_1 N3_1 C135_1 -172.03(9) . . . . ?
C135_1 N3_1 C131_1 C132_1 0.0 . . . . ?
Fe13_1 N3_1 C131_1 C132_1 -178.69(6) . . . . ?
N3_1 C131_1 C132_1 C133_1 0.0 . . . . ?
C131_1 C132_1 C133_1 C134_1 0.0 . . . . ?
C132_1 C133_1 C134_1 C135_1 0.0 . . . . ?
C133_1 C134_1 C135_1 N3_1 0.0 . . . . ?
C131_1 N3_1 C135_1 C134_1 0.0 . . . . ?
Fe13_1 N3_1 C135_1 C134_1 178.68(6) . . . . ?
O20_1 Fe21_1 N4_1 C136_1 85(5) . . . . ?
O21_1 Fe21_1 N4_1 C136_1 -131.25(18) . . . . ?
O32_1 Fe21_1 N4_1 C136_1 -43.05(19) . . . . ?
O33_1 Fe21_1 N4_1 C136_1 135.50(19) . . . . ?
O38_1 Fe21_1 N4_1 C136_1 48.89(19) . . . . ?
Fe22_1 Fe21_1 N4_1 C136_1 -179.53(9) . . . . ?
Fe23_1 Fe21_1 N4_1 C136_1 8.99(14) . . . . ?
O20_1 Fe21_1 N4_1 C140_1 -96(5) . . . . ?
O21_1 Fe21_1 N4_1 C140_1 47.47(18) . . . . ?
O32_1 Fe21_1 N4_1 C140_1 135.68(18) . . . . ?
O33_1 Fe21_1 N4_1 C140_1 -45.78(19) . . . . ?
O38_1 Fe21_1 N4_1 C140_1 -132.39(18) . . . . ?
Fe22_1 Fe21_1 N4_1 C140_1 -0.81(14) . . . . ?
Fe23_1 Fe21_1 N4_1 C140_1 -172.29(9) . . . . ?
C140_1 N4_1 C136_1 C137_1 0.0 . . . . ?
Fe21_1 N4_1 C136_1 C137_1 178.73(6) . . . . ?
N4_1 C136_1 C137_1 C138_1 0.0 . . . . ?
C136_1 C137_1 C138_1 C139_1 0.0 . . . . ?
C137_1 C138_1 C139_1 C140_1 0.0 . . . . ?
C138_1 C139_1 C140_1 N4_1 0.0 . . . . ?
C136_1 N4_1 C140_1 C139_1 0.0 . . . . ?
Fe21_1 N4_1 C140_1 C139_1 -178.72(6) . . . . ?
O20_1 Fe22_1 N5_1 C141_1 70(3) . . . . ?
O25_1 Fe22_1 N5_1 C141_1 -137.35(18) . . . . ?
O24_1 Fe22_1 N5_1 C141_1 -48.41(18) . . . . ?
O34_1 Fe22_1 N5_1 C141_1 44.51(19) . . . . ?
O35_1 Fe22_1 N5_1 C141_1 130.18(18) . . . . ?
Fe23_1 Fe22_1 N5_1 C141_1 170.45(9) . . . . ?
Fe21_1 Fe22_1 N5_1 C141_1 3.00(14) . . . . ?
O20_1 Fe22_1 N5_1 C145_1 -111(3) . . . . ?
O25_1 Fe22_1 N5_1 C145_1 42.00(18) . . . . ?
O24_1 Fe22_1 N5_1 C145_1 130.94(18) . . . . ?
O34_1 Fe22_1 N5_1 C145_1 -136.15(18) . . . . ?
O35_1 Fe22_1 N5_1 C145_1 -50.47(19) . . . . ?
Fe23_1 Fe22_1 N5_1 C145_1 -10.20(14) . . . . ?
Fe21_1 Fe22_1 N5_1 C145_1 -177.65(9) . . . . ?
C145_1 N5_1 C141_1 C142_1 0.0 . . . . ?
Fe22_1 N5_1 C141_1 C142_1 179.35(6) . . . . ?
N5_1 C141_1 C142_1 C143_1 0.0 . . . . ?
C141_1 C142_1 C143_1 C144_1 0.0 . . . . ?
C142_1 C143_1 C144_1 C145_1 0.0 . . . . ?
C143_1 C144_1 C145_1 N5_1 0.0 . . . . ?
C141_1 N5_1 C145_1 C144_1 0.0 . . . . ?
Fe22_1 N5_1 C145_1 C144_1 -179.35(6) . . . . ?
O20_1 Fe23_1 N6_1 C146_1 89(4) . . . . ?
O28_1 Fe23_1 N6_1 C146_1 -47.77(19) . . . . ?
O29_1 Fe23_1 N6_1 C146_1 -136.81(19) . . . . ?
O36_1 Fe23_1 N6_1 C146_1 45.28(19) . . . . ?
O37_1 Fe23_1 N6_1 C146_1 131.52(19) . . . . ?
Fe22_1 Fe23_1 N6_1 C146_1 2.39(14) . . . . ?
Fe21_1 Fe23_1 N6_1 C146_1 170.95(9) . . . . ?
O20_1 Fe23_1 N6_1 C150_1 -91(4) . . . . ?
O28_1 Fe23_1 N6_1 C150_1 132.98(19) . . . . ?
O29_1 Fe23_1 N6_1 C150_1 43.94(19) . . . . ?
O36_1 Fe23_1 N6_1 C150_1 -133.96(19) . . . . ?
O37_1 Fe23_1 N6_1 C150_1 -47.73(19) . . . . ?
Fe22_1 Fe23_1 N6_1 C150_1 -176.86(9) . . . . ?
Fe21_1 Fe23_1 N6_1 C150_1 -8.30(14) . . . . ?
C150_1 N6_1 C146_1 C147_1 0.0 . . . . ?
Fe23_1 N6_1 C146_1 C147_1 -179.25(6) . . . . ?
N6_1 C146_1 C147_1 C148_1 0.0 . . . . ?
C146_1 C147_1 C148_1 C149_1 0.0 . . . . ?
C147_1 C148_1 C149_1 C150_1 0.0 . . . . ?
C148_1 C149_1 C150_1 N6_1 0.0 . . . . ?
C146_1 N6_1 C150_1 C149_1 0.0 . . . . ?
Fe23_1 N6_1 C150_1 C149_1 179.25(6) . . . . ?
O67W_1 Fe31_1 N7_1 C151_1 -123.7(3) 1_554 . . . ?
O39_1 Fe31_1 N7_1 C151_1 85(5) . . . . ?
O51_1 Fe31_1 N7_1 C151_1 -44.2(2) . . . . ?
O40_1 Fe31_1 N7_1 C151_1 -133.9(2) . . . . ?
O52_1 Fe31_1 N7_1 C151_1 134.3(2) . . . . ?
O57_1 Fe31_1 N7_1 C151_1 48.5(2) . . . . ?
Fe33_1 Fe31_1 N7_1 C151_1 7.05(16) . . . . ?
Fe32_1 Fe31_1 N7_1 C151_1 175.36(11) . . . . ?
O67W_1 Fe31_1 N7_1 C155_1 54.5(3) 1_554 . . . ?
O39_1 Fe31_1 N7_1 C155_1 -97(5) . . . . ?
O51_1 Fe31_1 N7_1 C155_1 134.0(2) . . . . ?
O40_1 Fe31_1 N7_1 C155_1 44.2(2) . . . . ?
O52_1 Fe31_1 N7_1 C155_1 -47.6(2) . . . . ?
O57_1 Fe31_1 N7_1 C155_1 -133.3(2) . . . . ?
Fe33_1 Fe31_1 N7_1 C155_1 -174.76(10) . . . . ?
Fe32_1 Fe31_1 N7_1 C155_1 -6.45(16) . . . . ?
C155_1 N7_1 C151_1 C152_1 0.0 . . . . ?
Fe31_1 N7_1 C151_1 C152_1 178.18(6) . . . . ?
N7_1 C151_1 C152_1 C153_1 0.0 . . . . ?
C151_1 C152_1 C153_1 C154_1 0.0 . . . . ?
C152_1 C153_1 C154_1 C155_1 0.0 . . . . ?
C153_1 C154_1 C155_1 N7_1 0.0 . . . . ?
C151_1 N7_1 C155_1 C154_1 0.0 . . . . ?
Fe31_1 N7_1 C155_1 C154_1 -178.19(6) . . . . ?
O39_1 Fe32_1 N8_1 C160_1 -90(3) . . . . ?
O43_1 Fe32_1 N8_1 C160_1 137.25(19) . . . . ?
O44_1 Fe32_1 N8_1 C160_1 47.19(19) . . . . ?
O54_1 Fe32_1 N8_1 C160_1 -44.06(18) . . . . ?
O53_1 Fe32_1 N8_1 C160_1 -130.8(2) . . . . ?
Fe33_1 Fe32_1 N8_1 C160_1 -4.11(16) . . . . ?
Fe31_1 Fe32_1 N8_1 C160_1 -170.05(10) . . . . ?
O39_1 Fe32_1 N8_1 C156_1 86(3) . . . . ?
O43_1 Fe32_1 N8_1 C156_1 -46.2(2) . . . . ?
O44_1 Fe32_1 N8_1 C156_1 -136.23(19) . . . . ?
O54_1 Fe32_1 N8_1 C156_1 132.52(18) . . . . ?
O53_1 Fe32_1 N8_1 C156_1 45.7(2) . . . . ?
Fe33_1 Fe32_1 N8_1 C156_1 172.47(10) . . . . ?
Fe31_1 Fe32_1 N8_1 C156_1 6.53(16) . . . . ?
C160_1 N8_1 C156_1 C157_1 0.0 . . . . ?
Fe32_1 N8_1 C156_1 C157_1 -176.57(6) . . . . ?
N8_1 C156_1 C157_1 C158_1 0.0 . . . . ?
C156_1 C157_1 C158_1 C159_1 0.0 . . . . ?
C157_1 C158_1 C159_1 C160_1 0.0 . . . . ?
C156_1 N8_1 C160_1 C159_1 0.0 . . . . ?
Fe32_1 N8_1 C160_1 C159_1 176.59(6) . . . . ?
C158_1 C159_1 C160_1 N8_1 0.0 . . . . ?
O39_1 Fe33_1 N9_1 C161_1 95(4) . . . . ?
O48_1 Fe33_1 N9_1 C161_1 -137.40(19) . . . . ?
O47_1 Fe33_1 N9_1 C161_1 -47.02(18) . . . . ?
O55_1 Fe33_1 N9_1 C161_1 43.89(18) . . . . ?
O56_1 Fe33_1 N9_1 C161_1 130.45(19) . . . . ?
Fe32_1 Fe33_1 N9_1 C161_1 3.19(15) . . . . ?
Fe31_1 Fe33_1 N9_1 C161_1 170.03(10) . . . . ?
O39_1 Fe33_1 N9_1 C165_1 -83(4) . . . . ?
O48_1 Fe33_1 N9_1 C165_1 44.84(19) . . . . ?
O47_1 Fe33_1 N9_1 C165_1 135.22(18) . . . . ?
O55_1 Fe33_1 N9_1 C165_1 -133.86(18) . . . . ?
O56_1 Fe33_1 N9_1 C165_1 -47.31(19) . . . . ?
Fe32_1 Fe33_1 N9_1 C165_1 -174.57(10) . . . . ?
Fe31_1 Fe33_1 N9_1 C165_1 -7.73(15) . . . . ?
C165_1 N9_1 C161_1 C162_1 0.0 . . . . ?
Fe33_1 N9_1 C161_1 C162_1 -177.78(6) . . . . ?
N9_1 C161_1 C162_1 C163_1 0.0 . . . . ?
C161_1 C162_1 C163_1 C164_1 0.0 . . . . ?
C162_1 C163_1 C164_1 C165_1 0.0 . . . . ?
C163_1 C164_1 C165_1 N9_1 0.0 . . . . ?
C161_1 N9_1 C165_1 C164_1 0.0 . . . . ?
Fe33_1 N9_1 C165_1 C164_1 177.74(6) . . . . ?
O58_1 Fe41_1 N10_1 C170_1 -114(3) . . . . ?
O67_1 Fe41_1 N10_1 C170_1 47.1(2) . . . . ?
O66_1 Fe41_1 N10_1 C170_1 137.17(18) . . . . ?
O74_1 Fe41_1 N10_1 C170_1 -131.03(19) . . . . ?
O75_1 Fe41_1 N10_1 C170_1 -45.0(2) . . . . ?
Fe42_1 Fe41_1 N10_1 C170_1 -4.04(15) . . . . ?
Fe43_1 Fe41_1 N10_1 C170_1 -172.40(9) . . . . ?
O58_1 Fe41_1 N10_1 C166_1 63(3) . . . . ?
O67_1 Fe41_1 N10_1 C166_1 -136.6(2) . . . . ?
O66_1 Fe41_1 N10_1 C166_1 -46.50(19) . . . . ?
O74_1 Fe41_1 N10_1 C166_1 45.3(2) . . . . ?
O75_1 Fe41_1 N10_1 C166_1 131.4(2) . . . . ?
Fe42_1 Fe41_1 N10_1 C166_1 172.29(10) . . . . ?
Fe43_1 Fe41_1 N10_1 C166_1 3.94(14) . . . . ?
C170_1 N10_1 C166_1 C167_1 0.0 . . . . ?
Fe41_1 N10_1 C166_1 C167_1 -176.34(6) . . . . ?
N10_1 C166_1 C167_1 C168_1 0.0 . . . . ?
C166_1 C167_1 C168_1 C169_1 0.0 . . . . ?
C167_1 C168_1 C169_1 C170_1 0.0 . . . . ?
C166_1 N10_1 C170_1 C169_1 0.0 . . . . ?
Fe41_1 N10_1 C170_1 C169_1 176.33(6) . . . . ?
C168_1 C169_1 C170_1 N10_1 0.0 . . . . ?
O58_1 Fe42_1 N11_1 C171_1 73(6) . . . . ?
O70_1 Fe42_1 N11_1 C171_1 -42.16(19) . . . . ?
O59_1 Fe42_1 N11_1 C171_1 -130.31(19) . . . . ?
O76_1 Fe42_1 N11_1 C171_1 51.6(2) . . . . ?
O71_1 Fe42_1 N11_1 C171_1 138.07(19) . . . . ?
Fe41_1 Fe42_1 N11_1 C171_1 8.96(14) . . . . ?
Fe43_1 Fe42_1 N11_1 C171_1 -179.49(9) . . . . ?
O58_1 Fe42_1 N11_1 C175_1 -108(6) . . . . ?
O70_1 Fe42_1 N11_1 C175_1 136.57(19) . . . . ?
O59_1 Fe42_1 N11_1 C175_1 48.42(19) . . . . ?
O76_1 Fe42_1 N11_1 C175_1 -129.7(2) . . . . ?
O71_1 Fe42_1 N11_1 C175_1 -43.2(2) . . . . ?
Fe41_1 Fe42_1 N11_1 C175_1 -172.31(9) . . . . ?
Fe43_1 Fe42_1 N11_1 C175_1 -0.76(15) . . . . ?
C175_1 N11_1 C171_1 C172_1 0.0 . . . . ?
Fe42_1 N11_1 C171_1 C172_1 178.74(6) . . . . ?
N11_1 C171_1 C172_1 C173_1 0.0 . . . . ?
C171_1 C172_1 C173_1 C174_1 0.0 . . . . ?
C172_1 C173_1 C174_1 C175_1 0.0 . . . . ?
C173_1 C174_1 C175_1 N11_1 0.0 . . . . ?
C171_1 N11_1 C175_1 C174_1 0.0 . . . . ?
Fe42_1 N11_1 C175_1 C174_1 -178.72(6) . . . . ?
O58_1 Fe43_1 N12_1 C180_1 -74(4) . . . . ?
O62_1 Fe43_1 N12_1 C180_1 135.74(19) . . . . ?
O63_1 Fe43_1 N12_1 C180_1 47.60(19) . . . . ?
O72_1 Fe43_1 N12_1 C180_1 -131.69(19) . . . . ?
O73_1 Fe43_1 N12_1 C180_1 -45.5(2) . . . . ?
Fe42_1 Fe43_1 N12_1 C180_1 -171.35(9) . . . . ?
Fe41_1 Fe43_1 N12_1 C180_1 -2.09(14) . . . . ?
O58_1 Fe43_1 N12_1 C176_1 105(4) . . . . ?
O62_1 Fe43_1 N12_1 C176_1 -44.8(2) . . . . ?
O63_1 Fe43_1 N12_1 C176_1 -132.93(19) . . . . ?
O72_1 Fe43_1 N12_1 C176_1 47.78(19) . . . . ?
O73_1 Fe43_1 N12_1 C176_1 133.9(2) . . . . ?
Fe42_1 Fe43_1 N12_1 C176_1 8.12(14) . . . . ?
Fe41_1 Fe43_1 N12_1 C176_1 177.38(9) . . . . ?
C180_1 N12_1 C176_1 C177_1 0.0 . . . . ?
Fe43_1 N12_1 C176_1 C177_1 -179.47(6) . . . . ?
N12_1 C176_1 C177_1 C178_1 0.0 . . . . ?
C176_1 C177_1 C178_1 C179_1 0.0 . . . . ?
C177_1 C178_1 C179_1 C180_1 0.0 . . . . ?
C176_1 N12_1 C180_1 C179_1 0.0 . . . . ?
Fe43_1 N12_1 C180_1 C179_1 179.47(6) . . . . ?
C178_1 C179_1 C180_1 N12_1 0.0 . . . . ?
C185_1 N13S_1 C181_1 C182_1 0.0 . . . . ?
N13S_1 C181_1 C182_1 C183_1 0.0 . . . . ?
C181_1 C182_1 C183_1 C184_1 0.0 . . . . ?
C182_1 C183_1 C184_1 C185_1 0.0 . . . . ?
C183_1 C184_1 C185_1 N13S_1 0.0 . . . . ?
C181_1 N13S_1 C185_1 C184_1 0.0 . . . . ?
C190_1 N14S_1 C186_1 C187_1 0.0 . . . . ?
N14S_1 C186_1 C187_1 C188_1 0.0 . . . . ?
C186_1 C187_1 C188_1 C189_1 0.0 . . . . ?
C187_1 C188_1 C189_1 C190_1 0.0 . . . . ?
C188_1 C189_1 C190_1 N14S_1 0.0 . . . . ?
C186_1 N14S_1 C190_1 C189_1 0.0 . . . . ?
C210_1 N18S_1 C206_1 C207_1 0.0 . . . . ?
N18S_1 C206_1 C207_1 C208_1 0.0 . . . . ?
C206_1 C207_1 C208_1 C209_1 0.0 . . . . ?
C207_1 C208_1 C209_1 C210_1 0.0 . . . . ?
C208_1 C209_1 C210_1 N18S_1 0.0 . . . . ?
C206_1 N18S_1 C210_1 C209_1 0.0 . . . . ?
O99W_1 O52W_1 O78W_1 O93W_1 -0.4 . . . . ?
O78W_1 O52W_1 O93W_1 O99W_1 -179.6 . . . . ?
O99W_1 O52W_1 O93W_1 O78W_1 179.6 . . . . ?
O52W_1 O78W_1 O93W_1 O99W_1 0.5 . . . . ?
O97W_1 O77W_1 O94W_1 O96W_1 14.5 . . . . ?
O77W_1 O94W_1 O96W_1 O97W_1 -9.0 . . . . ?
O94W_1 O77W_1 O97W_1 O96W_1 -14.7 . . . . ?
O96W_1 O94W_1 O97W_1 O77W_1 -165.9 . . . . ?
O77W_1 O94W_1 O97W_1 O96W_1 165.9 . . . . ?
O94W_1 O96W_1 O97W_1 O77W_1 19.9 . . . . ?
O78W_1 O93W_1 O99W_1 O52W_1 -0.4 . . . . ?
O78W_1 O52W_1 O99W_1 O93W_1 0.5 . . . . ?

_diffrn_measured_fraction_theta_max 0.995
_diffrn_reflns_theta_full        25.10
_diffrn_measured_fraction_theta_full 0.995
_refine_diff_density_max         0.965
_refine_diff_density_min         -0.877
_refine_diff_density_rms         0.196
####################################################################### 
# 
# This file contains crystal structure data downloaded from the 
# Cambridge Structural Database (CSD) hosted by the Cambridge 
# Crystallographic Data Centre (CCDC).
# 
# Full information about CCDC data access policies and citation 
# guidelines are available at http://www.ccdc.cam.ac.uk/access/V1 
# 
# Audit and citation data items may have been added by the CCDC. 
# Please retain this information to preserve the provenance of 
# this file and to allow appropriate attribution of the data. 
# 
#######################################################################

data_IRMOF-54
_audit_block_doi                 10.5517/cc95qkq
_database_code_depnum_ccdc_archive 'CCDC 273623'
loop_
_citation_id
_citation_doi
_citation_year
1 10.1021/ja042802q 2005
_audit_update_record             
;
2005-06-01 deposited with the CCDC.	2019-02-14 downloaded from the CCDC.
;

_audit_creation_method           SHELXL-97
_chemical_name_systematic        
;
?
;
_chemical_name_common            IRMOP-54
_chemical_melting_point          ?
_chemical_formula_moiety         'C180 H120 Fe12 N16 O115 S12'
_chemical_formula_sum            'C180 H120 Fe12 N16 O115 S12'
_chemical_formula_weight         5401.84

loop_
_atom_type_symbol
_atom_type_description
_atom_type_scat_dispersion_real
_atom_type_scat_dispersion_imag
_atom_type_scat_source
C C 0.0033 0.0016 'International Tables Vol C Tables 4.2.6.8 and 6.1.1.4'
H H 0.0000 0.0000 'International Tables Vol C Tables 4.2.6.8 and 6.1.1.4'
N N 0.0061 0.0033 'International Tables Vol C Tables 4.2.6.8 and 6.1.1.4'
O O 0.0106 0.0060 'International Tables Vol C Tables 4.2.6.8 and 6.1.1.4'
S S 0.1246 0.1234 'International Tables Vol C Tables 4.2.6.8 and 6.1.1.4'
Fe Fe 0.3463 0.8444 'International Tables Vol C Tables 4.2.6.8 and 6.1.1.4'

_symmetry_cell_setting           tetragonal
_symmetry_space_group_name_H-M   I4(1)/a

loop_
_symmetry_equiv_pos_as_xyz
'x, y, z'
'-x+1/2, -y, z+1/2'
'-y+3/4, x+1/4, z+1/4'
'y+3/4, -x+3/4, z+3/4'
'x+1/2, y+1/2, z+1/2'
'-x+1, -y+1/2, z+1'
'-y+5/4, x+3/4, z+3/4'
'y+5/4, -x+5/4, z+5/4'
'-x, -y, -z'
'x-1/2, y, -z-1/2'
'y-3/4, -x-1/4, -z-1/4'
'-y-3/4, x-3/4, -z-3/4'
'-x+1/2, -y+1/2, -z+1/2'
'x, y+1/2, -z'
'y-1/4, -x+1/4, -z+1/4'
'-y-1/4, x-1/4, -z-1/4'

_cell_length_a                   26.8549(13)
_cell_length_b                   26.8549(13)
_cell_length_c                   40.9221(19)
_cell_angle_alpha                90.00
_cell_angle_beta                 90.00
_cell_angle_gamma                90.00
_cell_volume                     29512(2)
_cell_formula_units_Z            4
_cell_measurement_temperature    258(2)
_cell_measurement_reflns_used    999
_cell_measurement_theta_min      0.8
_cell_measurement_theta_max      12

_exptl_crystal_description       octahedron
_exptl_crystal_colour            orange
_exptl_crystal_size_max          0.20
_exptl_crystal_size_mid          0.20
_exptl_crystal_size_min          0.20
_exptl_crystal_density_meas      ?
_exptl_crystal_density_diffrn    1.216
_exptl_crystal_density_method    'not measured'
_exptl_crystal_F_000             10944
_exptl_absorpt_coefficient_mu    0.738
_exptl_absorpt_correction_type   multi-scan
_exptl_absorpt_correction_T_min  0.866
_exptl_absorpt_correction_T_max  0.866
_exptl_absorpt_process_details   'Blessing, Acta Cryst. (1995) A51 33-58'

_exptl_special_details           
;
The only optimal crystals suitable for analysis were small and weakly
diffracting. Optimization of synthetic conditions could yield larger
crystals, however these specimens had only a very low degree of
crystallinity and presented little coherent scattering compared to
that of smaller crystals. Owing to these challenges observed strong
(high intensity) scattering was limited to 1.0 angstrom, with higher
resolution data present but weak (low intensity). Increasing the exposure
time of the crystal to X-rays did not ameliorate the quality of the data
as this woulThe only optimal crystals suitable for analysis were small
and weakly diffracting. Optimization of synthetic conditions could yield larger
crystals, however these specimens had only a very low degree of
crystallinity and presented little coherent scattering compared to
that of smaller crystals. Additionally, diffuse scattering from the highly
disordered solvent in the large void spaces within the crystal and from
the capillary used mount the crystal contributes to the background
noise and the 'washing out' of high angle data.
;

_diffrn_ambient_temperature      258(2)
_diffrn_radiation_wavelength     0.71073
_diffrn_radiation_type           MoK\a
_diffrn_radiation_source         'fine-focus sealed tube'
_diffrn_radiation_monochromator  graphite
_diffrn_measurement_device_type  'CCD area detector'
_diffrn_measurement_method       'phi and omega scans'
_diffrn_detector_area_resol_mean ?
_diffrn_standards_number         ?
_diffrn_standards_interval_count ?
_diffrn_standards_interval_time  ?
_diffrn_standards_decay_%        ?
_diffrn_reflns_number            85438
_diffrn_reflns_av_R_equivalents  0.1184
_diffrn_reflns_av_sigmaI/netI    0.1253
_diffrn_reflns_limit_h_min       -35
_diffrn_reflns_limit_h_max       35
_diffrn_reflns_limit_k_min       -35
_diffrn_reflns_limit_k_max       34
_diffrn_reflns_limit_l_min       -54
_diffrn_reflns_limit_l_max       43
_diffrn_reflns_theta_min         1.46
_diffrn_reflns_theta_max         28.28
_reflns_number_total             17618
_reflns_number_gt                8457
_reflns_threshold_expression     >2sigma(I)

_computing_data_collection       'Bruker SMART'
_computing_cell_refinement       'Bruker SMART'
_computing_data_reduction        'Bruker SAINT'
_computing_structure_solution    'SHELXS-97 (Sheldrick, 1990)'
_computing_structure_refinement  'SHELXL-97 (Sheldrick, 1997)'
_computing_molecular_graphics    crystalmaker
_computing_publication_material  wingx

_refine_special_details          
;
Refinement of F^2^ against ALL reflections. The weighted R-factor wR and
goodness of fit S are based on F^2^, conventional R-factors R are based
on F, with F set to zero for negative F^2^. The threshold expression of
F^2^ > 2sigma(F^2^) is used only for calculating R-factors(gt) etc. and is
not relevant to the choice of reflections for refinement. R-factors based
on F^2^ are statistically about twice as large as those based on F, and R-
factors based on ALL data will be even larger.


Due to the large void space in the structure, solvent in the structure
is highly disordered. Complete assignment of
scattering factors to all residual electron density was therfore not possible
Assigment of the largest peaks in the Fourier difference map to carbon
and nitrogen was made; these were refined anisotropically if possible.
All other electron density in the void space was treated as separated
oxygen atoms with large thermal parameters. Cations in the structure could
not be resolved as they are components of the highly disordered
portion of the structure.
;

_refine_ls_structure_factor_coef Fsqd
_refine_ls_matrix_type           full
_refine_ls_weighting_scheme      calc
_refine_ls_weighting_details     
'calc w=1/[\s^2^(Fo^2^)+(0.1612P)^2^+2.6112P] where P=(Fo^2^+2Fc^2^)/3'
_atom_sites_solution_primary     direct
_atom_sites_solution_secondary   difmap
_atom_sites_solution_hydrogens   geom
_refine_ls_hydrogen_treatment    constr
_refine_ls_extinction_method     none
_refine_ls_extinction_coef       ?
_refine_ls_number_reflns         17618
_refine_ls_number_parameters     728
_refine_ls_number_restraints     2
_refine_ls_R_factor_all          0.1833
_refine_ls_R_factor_gt           0.0834
_refine_ls_wR_factor_ref         0.2890
_refine_ls_wR_factor_gt          0.2306
_refine_ls_goodness_of_fit_ref   1.006
_refine_ls_restrained_S_all      1.006
_refine_ls_shift/su_max          0.002
_refine_ls_shift/su_mean         0.000

loop_
_atom_site_label
_atom_site_type_symbol
_atom_site_fract_x
_atom_site_fract_y
_atom_site_fract_z
_atom_site_U_iso_or_equiv
_atom_site_adp_type
_atom_site_occupancy
_atom_site_symmetry_multiplicity
_atom_site_calc_flag
_atom_site_refinement_flags
_atom_site_disorder_assembly
_atom_site_disorder_group
Fe1 Fe 0.57544(3) 0.49763(3) 0.31077(2) 0.0320(2) Uani 1 1 d . . .
Fe2 Fe 0.65678(3) 0.44883(3) 0.25791(2) 0.0317(2) Uani 1 1 d . . .
Fe3 Fe 0.53800(3) 0.41280(3) 0.25695(2) 0.0337(2) Uani 1 1 d . . .
S1 S 0.49302(6) 0.41585(7) 0.33041(4) 0.0468(4) Uani 1 1 d . . .
S2 S 0.68803(6) 0.47299(6) 0.33206(4) 0.0415(4) Uani 1 1 d . . .
S3 S 0.62524(7) 0.33347(6) 0.24762(5) 0.0456(4) Uani 1 1 d . . .
O1 O 0.59035(13) 0.45231(14) 0.27542(10) 0.0308(9) Uani 1 1 d . . .
O2 O 0.50457(19) 0.39290(18) 0.29863(12) 0.0593(14) Uani 1 1 d . . .
O3 O 0.53519(16) 0.45050(17) 0.33788(11) 0.0458(11) Uani 1 1 d . . .
O4 O 0.4920(2) 0.3769(2) 0.35472(14) 0.0700(16) Uani 1 1 d . . .
O5 O 0.44636(17) 0.4425(2) 0.32892(14) 0.0657(15) Uani 1 1 d . . .
O6 O 0.63394(16) 0.48065(17) 0.33826(11) 0.0468(11) Uani 1 1 d . . .
O7 O 0.69179(15) 0.44475(16) 0.30043(11) 0.0412(10) Uani 1 1 d . . .
O8 O 0.71315(19) 0.52046(19) 0.32939(14) 0.0658(15) Uani 1 1 d . . .
O9 O 0.70714(19) 0.4417(2) 0.35783(12) 0.0655(15) Uani 1 1 d . . .
O10 O 0.66011(16) 0.37523(16) 0.25417(12) 0.0479(12) Uani 1 1 d . . .
O11 O 0.57462(16) 0.34922(15) 0.25892(12) 0.0447(11) Uani 1 1 d . . .
O12 O 0.6408(2) 0.29059(18) 0.26622(16) 0.0728(17) Uani 1 1 d . . .
O13 O 0.6238(3) 0.3246(3) 0.21327(15) 0.089(2) Uani 1 1 d . . .
O14 O 0.51219(16) 0.52464(16) 0.28992(11) 0.0428(11) Uani 1 1 d . . .
O15 O 0.49065(17) 0.47077(16) 0.25081(13) 0.0519(13) Uani 1 1 d . . .
O16 O 0.20539(17) 0.61592(16) 0.03961(10) 0.0447(11) Uani 1 1 d . . .
O17 O 0.17591(16) 0.69340(17) 0.03988(11) 0.0455(11) Uani 1 1 d . . .
O18 O 0.33253(16) 0.97649(15) 0.25594(11) 0.0421(11) Uani 1 1 d . . .
O19 O 0.38902(16) 0.94481(15) 0.29020(11) 0.0431(11) Uani 1 1 d . . .
N1 N 0.5576(2) 0.5516(2) 0.34845(13) 0.0433(13) Uani 1 1 d . . .
N2 N 0.7318(2) 0.4487(2) 0.23560(15) 0.0467(14) Uani 1 1 d . . .
N3 N 0.4772(2) 0.3692(2) 0.23516(15) 0.0513(15) Uani 1 1 d . . .
C1 C 0.3395(3) 0.6540(2) 0.22250(17) 0.0477(17) Uani 1 1 d . . .
C2 C 0.3095(3) 0.6471(2) 0.19483(17) 0.0498(18) Uani 1 1 d . . .
H2 H 0.3080 0.6158 0.1852 0.060 Uiso 1 1 calc R . .
C3 C 0.2816(3) 0.6861(2) 0.18136(17) 0.0480(17) Uani 1 1 d . . .
C4 C 0.2836(3) 0.7328(2) 0.19659(18) 0.0512(19) Uani 1 1 d . . .
H4 H 0.2645 0.7588 0.1883 0.061 Uiso 1 1 calc R . .
C5 C 0.3137(3) 0.7415(2) 0.22407(17) 0.0453(16) Uani 1 1 d . . .
C6 C 0.3411(3) 0.7009(2) 0.23639(17) 0.0488(18) Uani 1 1 d . . .
H6 H 0.3612 0.7059 0.2546 0.059 Uiso 1 1 calc R . .
C7 C 0.3741(3) 0.6138(2) 0.23408(18) 0.0500(18) Uani 1 1 d . . .
C8 C 0.3938(3) 0.5795(3) 0.2136(2) 0.066(2) Uani 1 1 d . . .
H8 H 0.3841 0.5792 0.1918 0.079 Uiso 1 1 calc R . .
C9 C 0.4277(3) 0.5449(3) 0.2244(2) 0.060(2) Uani 1 1 d . . .
H9 H 0.4392 0.5206 0.2101 0.072 Uiso 1 1 calc R . .
C10 C 0.4450(2) 0.5456(2) 0.25590(18) 0.0438(16) Uani 1 1 d . . .
C11 C 0.4224(3) 0.5781(3) 0.27724(19) 0.0546(19) Uani 1 1 d . . .
H11 H 0.4310 0.5773 0.2993 0.065 Uiso 1 1 calc R . .
C12 C 0.3876(3) 0.6118(3) 0.26670(19) 0.061(2) Uani 1 1 d . . .
H12 H 0.3729 0.6334 0.2816 0.074 Uiso 1 1 calc R . .
C13 C 0.4856(2) 0.5109(2) 0.26635(17) 0.0407(15) Uani 1 1 d . . .
C14 C 0.2547(3) 0.6783(2) 0.14966(17) 0.0457(17) Uani 1 1 d . . .
C15 C 0.2388(3) 0.6323(2) 0.13980(17) 0.0511(18) Uani 1 1 d . . .
H15 H 0.2410 0.6055 0.1541 0.061 Uiso 1 1 calc R . .
C16A C 0.2196(3) 0.6252(2) 0.10890(17) 0.0478(17) Uani 1 1 d . . .
H16 H 0.2103 0.5933 0.1025 0.057 Uiso 1 1 calc R . .
C17 C 0.2139(2) 0.6637(2) 0.08745(16) 0.0401(15) Uani 1 1 d . . .
C18 C 0.2264(3) 0.7108(3) 0.09825(19) 0.062(2) Uani 1 1 d . . .
H18 H 0.2202 0.7381 0.0849 0.075 Uiso 1 1 calc R . .
C19 C 0.2480(3) 0.7180(3) 0.12845(19) 0.064(2) Uani 1 1 d . . .
H19 H 0.2581 0.7497 0.1346 0.077 Uiso 1 1 calc R . .
C20 C 0.1970(2) 0.6573(2) 0.05297(15) 0.0371(14) Uani 1 1 d . . .
C21 C 0.32072(19) 0.79234(12) 0.23817(14) 0.0468(17) Uani 1 1 d G . .
C22 C 0.28682(16) 0.83033(16) 0.23206(15) 0.071(3) Uani 1 1 d G . .
H22 H 0.2576 0.8236 0.2207 0.085 Uiso 1 1 calc R . .
C23 C 0.29662(17) 0.87839(14) 0.24292(15) 0.072(3) Uani 1 1 d G . .
H23 H 0.2739 0.9038 0.2388 0.087 Uiso 1 1 calc R . .
C24 C 0.34032(18) 0.88846(12) 0.25987(13) 0.0432(16) Uani 1 1 d G . .
C25 C 0.37422(19) 0.85047(17) 0.26598(17) 0.120(5) Uani 1 1 d G . .
H25 H 0.4035 0.8572 0.2773 0.144 Uiso 1 1 calc R . .
C26 C 0.3644(2) 0.80241(15) 0.25513(18) 0.125(5) Uani 1 1 d G . .
H26 H 0.3871 0.7770 0.2592 0.150 Uiso 1 1 calc R . .
C27 C 0.3544(2) 0.9411(2) 0.26973(17) 0.0395(15) Uani 1 1 d . . .
C28 C 0.5104(3) 0.5579(3) 0.35835(19) 0.063(2) Uani 1 1 d . . .
H28 H 0.4855 0.5387 0.3488 0.076 Uiso 1 1 calc R . .
C29 C 0.4975(3) 0.5918(4) 0.3821(2) 0.088(3) Uani 1 1 d . . .
H29 H 0.4644 0.5958 0.3881 0.106 Uiso 1 1 calc R . .
C30 C 0.5333(4) 0.6191(5) 0.3965(3) 0.106(4) Uani 1 1 d . . .
H30 H 0.5253 0.6424 0.4125 0.128 Uiso 1 1 calc R . .
C31 C 0.5824(4) 0.6120(4) 0.3872(3) 0.099(4) Uani 1 1 d . . .
H31 H 0.6079 0.6290 0.3977 0.119 Uiso 1 1 calc R . .
C32 C 0.5929(3) 0.5795(3) 0.3621(2) 0.063(2) Uani 1 1 d . . .
H32 H 0.6254 0.5769 0.3545 0.075 Uiso 1 1 calc R . .
C33 C 0.7689(3) 0.4757(3) 0.2489(2) 0.063(2) Uani 1 1 d . . .
H33 H 0.7627 0.4936 0.2679 0.076 Uiso 1 1 calc R . .
C34 C 0.8161(3) 0.4776(4) 0.2351(3) 0.093(3) Uani 1 1 d . . .
H34 H 0.8414 0.4950 0.2456 0.112 Uiso 1 1 calc R . .
C35A C 0.8250(4) 0.4550(5) 0.2075(3) 0.115(4) Uani 1 1 d . . .
H35 H 0.8564 0.4567 0.1980 0.138 Uiso 1 1 calc R . .
C36 C 0.7865(4) 0.4279(5) 0.1922(3) 0.104(4) Uani 1 1 d . . .
H36 H 0.7921 0.4117 0.1725 0.124 Uiso 1 1 calc R . .
C37 C 0.7399(3) 0.4257(4) 0.2072(2) 0.072(2) Uani 1 1 d . . .
H37B H 0.7143 0.4080 0.1974 0.087 Uiso 1 1 calc R . .
C38A C 0.4858(3) 0.3331(3) 0.2151(2) 0.077(3) Uani 1 1 d . . .
H38 H 0.5180 0.3288 0.2071 0.092 Uiso 1 1 calc R . .
C39 C 0.4479(5) 0.2998(4) 0.2049(3) 0.119(5) Uani 1 1 d . . .
H39 H 0.4554 0.2735 0.1909 0.143 Uiso 1 1 calc R . .
C40 C 0.4002(4) 0.3069(5) 0.2158(3) 0.115(4) Uani 1 1 d . . .
H40 H 0.3749 0.2847 0.2104 0.138 Uiso 1 1 calc R . .
C41 C 0.3913(4) 0.3473(5) 0.2345(4) 0.139(6) Uani 1 1 d . . .
H41 H 0.3588 0.3555 0.2403 0.167 Uiso 1 1 calc R . .
C42 C 0.4307(3) 0.3763(4) 0.2450(3) 0.094(3) Uani 1 1 d . . .
H42 H 0.4242 0.4020 0.2596 0.113 Uiso 1 1 calc R . .
O5S O 0.0000 0.2500 0.0735(10) 0.191(13) Uiso 0.50 2 d SP . .
O4S O 0.0121(12) 0.2873(12) 0.0500(7) 0.237(12) Uiso 0.50 1 d P . .
O13S O 0.0883(6) 0.3434(5) 0.1313(4) 0.097(4) Uiso 0.50 1 d P . .
O14S O 0.1187(5) 0.3480(4) 0.1597(3) 0.177(4) Uiso 1 1 d . . .
O12S O 0.1007(6) 0.3808(6) 0.1072(4) 0.106(5) Uiso 0.50 1 d P . .
O16S O 0.1677(9) 0.3525(8) 0.1374(5) 0.149(7) Uiso 0.50 1 d P . .
O17S O 0.2026(11) 0.3159(12) 0.1631(8) 0.242(13) Uiso 0.50 1 d P . .
O8S O 0.2481(16) 0.2295(19) 0.2832(11) 0.309(18) Uiso 0.50 1 d P . .
O9S O 0.2629(15) 0.2815(15) 0.2615(11) 0.294(18) Uiso 0.50 1 d P . .
O7S O 0.2489(15) 0.2768(17) 0.3013(10) 0.290(16) Uiso 0.50 1 d P . .
N1P N 0.5000 0.2500 0.0522(10) 0.51(4) Uiso 1 2 d SD . .
C1P C 0.453(2) 0.2564(19) 0.0450(11) 0.25(2) Uiso 0.50 1 d PD . .
C2P C 0.4519(16) 0.2632(15) 0.0051(9) 0.195(15) Uiso 0.50 1 d PD . .
C3P C 0.5000 0.2500 -0.0031(11) 0.38(3) Uiso 1 2 d SD . .
O1D O 0.2786(12) 0.5903(11) 0.4156(8) 0.238(12) Uiso 0.50 1 d P . .
C3D C 0.2129(11) 0.6606(11) 0.3847(8) 0.135(10) Uiso 0.50 1 d P . .
C1D C 0.2495(12) 0.5885(13) 0.3793(9) 0.157(12) Uiso 0.50 1 d P . .
C2D C 0.2541(14) 0.5673(14) 0.3462(10) 0.180(14) Uiso 0.50 1 d P . .
N1D N 0.2278(15) 0.6457(15) 0.3593(10) 0.239(17) Uiso 0.50 1 d P . .
O6S O 0.0000 0.2500 0.1250 0.174(8) Uiso 1 4 d S . .
O1S O 0.5000 0.2500 0.1363(9) 0.217(15) Uiso 0.50 2 d SP . .
O2S O 0.2583(9) 0.3569(9) 0.1198(6) 0.075(6) Uiso 0.25 1 d P . .
O3S O 0.2602(11) 0.3428(12) 0.2027(8) 0.113(10) Uiso 0.25 1 d P . .
O10S O 0.415(2) 0.876(2) 0.1690(16) 0.23(2) Uiso 0.25 1 d P . .
O11S O 0.4457(13) 0.9042(13) 0.1976(9) 0.261(15) Uiso 0.50 1 d P . .
O18S O 0.384(2) 0.759(2) 0.3439(13) 0.35(2) Uiso 0.50 1 d P . .
O19S O 0.3504(13) 0.7213(14) 0.3321(8) 0.236(13) Uiso 0.50 1 d P . .
O20S O 0.3854(17) 0.7193(19) 0.3639(12) 0.33(2) Uiso 0.50 1 d P . .
O15S O 0.1306(13) 0.3643(11) 0.1294(8) 0.096(8) Uiso 0.25 1 d P . .
O21S O 0.3171(9) 0.6837(9) 0.3239(6) 0.165(8) Uiso 0.50 1 d P . .

loop_
_atom_site_aniso_label
_atom_site_aniso_U_11
_atom_site_aniso_U_22
_atom_site_aniso_U_33
_atom_site_aniso_U_23
_atom_site_aniso_U_13
_atom_site_aniso_U_12
Fe1 0.0312(4) 0.0328(4) 0.0319(5) 0.0047(4) 0.0014(4) 0.0009(3)
Fe2 0.0295(4) 0.0299(4) 0.0358(5) 0.0036(4) 0.0021(4) 0.0017(3)
Fe3 0.0328(5) 0.0288(4) 0.0394(5) 0.0041(4) 0.0002(4) -0.0026(3)
S1 0.0414(9) 0.0519(10) 0.0470(11) 0.0090(8) 0.0116(8) -0.0080(7)
S2 0.0371(8) 0.0450(9) 0.0423(10) 0.0003(7) -0.0073(7) 0.0038(7)
S3 0.0515(10) 0.0315(8) 0.0538(11) -0.0034(7) 0.0001(8) 0.0054(7)
O1 0.028(2) 0.032(2) 0.032(2) 0.0045(17) 0.0013(17) 0.0001(16)
O2 0.066(3) 0.056(3) 0.056(3) -0.001(2) 0.023(3) -0.025(3)
O3 0.041(2) 0.053(3) 0.043(3) 0.013(2) 0.007(2) -0.008(2)
O4 0.066(3) 0.072(4) 0.072(4) 0.032(3) 0.015(3) -0.013(3)
O5 0.034(3) 0.080(4) 0.083(4) 0.012(3) 0.009(3) 0.000(2)
O6 0.041(2) 0.063(3) 0.037(3) 0.000(2) -0.006(2) 0.009(2)
O7 0.035(2) 0.044(2) 0.045(3) 0.003(2) -0.0040(19) 0.0082(19)
O8 0.061(3) 0.056(3) 0.080(4) -0.011(3) -0.009(3) -0.014(3)
O9 0.062(3) 0.086(4) 0.048(3) 0.007(3) -0.017(3) 0.015(3)
O10 0.043(3) 0.032(2) 0.069(3) -0.003(2) 0.009(2) 0.0011(19)
O11 0.042(2) 0.030(2) 0.062(3) 0.006(2) -0.003(2) 0.0031(18)
O12 0.060(3) 0.043(3) 0.116(5) 0.018(3) -0.002(3) 0.014(2)
O13 0.104(5) 0.104(5) 0.059(4) -0.030(4) 0.006(3) 0.009(4)
O14 0.046(3) 0.041(2) 0.041(3) 0.001(2) -0.007(2) 0.011(2)
O15 0.044(3) 0.034(2) 0.078(4) -0.011(2) -0.017(2) 0.009(2)
O16 0.063(3) 0.040(2) 0.030(3) 0.001(2) -0.010(2) -0.002(2)
O17 0.048(3) 0.052(3) 0.036(3) 0.000(2) -0.010(2) 0.011(2)
O18 0.045(2) 0.028(2) 0.054(3) -0.007(2) -0.011(2) 0.0014(18)
O19 0.054(3) 0.033(2) 0.043(3) -0.0049(19) -0.018(2) -0.0044(19)
N1 0.046(3) 0.050(3) 0.034(3) -0.001(3) 0.003(3) 0.005(3)
N2 0.034(3) 0.050(3) 0.056(4) 0.001(3) 0.009(3) 0.004(2)
N3 0.046(3) 0.045(3) 0.063(4) -0.002(3) -0.007(3) -0.011(3)
C1 0.057(4) 0.041(4) 0.044(4) -0.004(3) -0.026(3) 0.013(3)
C2 0.067(5) 0.031(3) 0.051(4) -0.008(3) -0.019(4) 0.010(3)
C3 0.059(4) 0.041(4) 0.044(4) -0.008(3) -0.022(3) 0.005(3)
C4 0.067(5) 0.028(3) 0.058(5) 0.000(3) -0.028(4) 0.009(3)
C5 0.055(4) 0.034(3) 0.047(4) -0.004(3) -0.016(3) 0.002(3)
C6 0.058(4) 0.039(4) 0.050(4) -0.010(3) -0.029(3) 0.010(3)
C7 0.064(5) 0.036(4) 0.050(5) -0.005(3) -0.017(4) 0.010(3)
C8 0.078(6) 0.059(5) 0.060(5) -0.015(4) -0.030(4) 0.027(4)
C9 0.070(5) 0.056(5) 0.056(5) -0.015(4) -0.015(4) 0.027(4)
C10 0.046(4) 0.033(3) 0.052(4) -0.001(3) -0.010(3) 0.006(3)
C11 0.061(5) 0.050(4) 0.053(5) -0.004(3) -0.017(4) 0.021(3)
C12 0.078(5) 0.054(4) 0.052(5) -0.018(4) -0.022(4) 0.028(4)
C13 0.036(3) 0.041(4) 0.045(4) 0.010(3) -0.002(3) 0.005(3)
C14 0.058(4) 0.032(3) 0.046(4) -0.002(3) -0.018(3) 0.007(3)
C15 0.074(5) 0.035(3) 0.045(4) -0.002(3) -0.025(4) -0.002(3)
C16A 0.062(4) 0.037(3) 0.045(4) 0.003(3) -0.015(3) -0.009(3)
C17 0.045(4) 0.037(3) 0.038(4) -0.001(3) -0.009(3) -0.003(3)
C18 0.098(6) 0.033(4) 0.056(5) 0.002(3) -0.032(4) 0.011(4)
C19 0.105(7) 0.032(4) 0.056(5) -0.004(3) -0.040(5) 0.002(4)
C20 0.035(3) 0.043(4) 0.034(4) 0.004(3) -0.001(3) -0.005(3)
C21 0.060(4) 0.030(3) 0.050(4) -0.005(3) -0.017(3) -0.001(3)
C22 0.066(5) 0.040(4) 0.106(7) -0.019(4) -0.046(5) 0.009(4)
C23 0.070(5) 0.040(4) 0.107(7) -0.010(4) -0.041(5) 0.006(4)
C24 0.053(4) 0.035(3) 0.042(4) -0.008(3) -0.011(3) 0.003(3)
C25 0.154(10) 0.046(5) 0.159(11) -0.015(6) -0.111(9) 0.009(6)
C26 0.183(12) 0.041(5) 0.151(11) -0.027(6) -0.122(10) 0.026(6)
C27 0.039(3) 0.032(3) 0.047(4) -0.007(3) 0.005(3) -0.002(3)
C28 0.055(5) 0.086(6) 0.049(5) -0.015(4) 0.003(4) 0.009(4)
C29 0.057(5) 0.144(10) 0.064(6) -0.026(6) 0.002(5) 0.034(6)
C30 0.076(7) 0.154(11) 0.090(8) -0.067(8) -0.002(6) 0.035(7)
C31 0.087(7) 0.119(9) 0.091(8) -0.055(7) -0.021(6) 0.022(6)
C32 0.058(5) 0.066(5) 0.065(6) -0.018(4) 0.004(4) 0.006(4)
C33 0.037(4) 0.074(5) 0.079(6) 0.004(4) 0.008(4) -0.011(4)
C34 0.047(5) 0.109(8) 0.123(10) -0.003(7) 0.024(6) -0.019(5)
C35A 0.064(7) 0.148(11) 0.133(11) -0.007(9) 0.055(7) -0.005(7)
C36 0.089(8) 0.127(10) 0.095(8) -0.012(7) 0.051(7) 0.013(7)
C37 0.059(5) 0.099(7) 0.059(6) -0.013(5) 0.016(4) 0.013(5)
C38A 0.063(5) 0.070(6) 0.097(7) -0.026(5) -0.017(5) -0.004(4)
C39 0.119(10) 0.086(8) 0.153(12) -0.053(8) -0.056(9) -0.002(7)
C40 0.080(8) 0.109(9) 0.157(12) -0.025(9) -0.003(8) -0.050(7)
C41 0.075(8) 0.152(12) 0.189(15) -0.079(11) 0.024(8) -0.047(8)
C42 0.054(5) 0.101(8) 0.127(9) -0.040(7) -0.002(6) -0.021(5)

_geom_special_details            
;
All esds (except the esd in the dihedral angle between two l.s. planes)
are estimated using the full covariance matrix. The cell esds are taken
into account individually in the estimation of esds in distances, angles
and torsion angles; correlations between esds in cell parameters are only
used when they are defined by crystal symmetry. An approximate (isotropic)
treatment of cell esds is used for estimating esds involving l.s. planes.
;

loop_
_geom_bond_atom_site_label_1
_geom_bond_atom_site_label_2
_geom_bond_distance
_geom_bond_site_symmetry_2
_geom_bond_publ_flag
Fe1 O1 1.933(4) . ?
Fe1 O6 1.985(4) . ?
Fe1 O3 2.000(4) . ?
Fe1 O19 2.002(4) 6_564 ?
Fe1 O14 2.035(4) . ?
Fe1 N1 2.170(5) . ?
Fe2 O1 1.925(4) . ?
Fe2 O7 1.981(4) . ?
Fe2 O10 1.984(4) . ?
Fe2 O18 2.028(4) 6_564 ?
Fe2 O16 2.046(4) 12_766 ?
Fe2 N2 2.212(5) . ?
Fe3 O1 1.917(4) . ?
Fe3 O11 1.972(4) . ?
Fe3 O2 2.000(5) . ?
Fe3 O17 2.011(4) 12_766 ?
Fe3 O15 2.026(4) . ?
Fe3 N3 2.199(6) . ?
S1 O5 1.444(5) . ?
S1 O4 1.444(5) . ?
S1 O2 1.472(5) . ?
S1 O3 1.497(5) . ?
S2 O9 1.443(5) . ?
S2 O8 1.446(5) . ?
S2 O6 1.489(4) . ?
S2 O7 1.504(5) . ?
S3 O13 1.426(6) . ?
S3 O12 1.442(5) . ?
S3 O10 1.485(5) . ?
S3 O11 1.497(5) . ?
O14 C13 1.255(7) . ?
O15 C13 1.259(8) . ?
O16 C20 1.259(7) . ?
O16 Fe2 2.046(4) 15_565 ?
O17 C20 1.244(7) . ?
O17 Fe3 2.011(4) 15_565 ?
O18 C27 1.252(7) . ?
O18 Fe2 2.028(4) 6_564 ?
O19 C27 1.255(7) . ?
O19 Fe1 2.002(4) 6_564 ?
N1 C32 1.328(9) . ?
N1 C28 1.343(9) . ?
N2 C37 1.334(9) . ?
N2 C33 1.345(9) . ?
N3 C38A 1.291(10) . ?
N3 C42 1.326(11) . ?
C1 C6 1.384(9) . ?
C1 C2 1.402(9) . ?
C1 C7 1.499(9) . ?
C2 C3 1.402(9) . ?
C2 H2 0.9300 . ?
C3 C4 1.401(9) . ?
C3 C14 1.500(9) . ?
C4 C5 1.405(9) . ?
C4 H4 0.9300 . ?
C5 C6 1.407(9) . ?
C5 C21 1.495(7) . ?
C6 H6 0.9300 . ?
C7 C8 1.354(10) . ?
C7 C12 1.385(10) . ?
C8 C9 1.374(10) . ?
C8 H8 0.9300 . ?
C9 C10 1.369(10) . ?
C9 H9 0.9300 . ?
C10 C11 1.377(9) . ?
C10 C13 1.496(8) . ?
C11 C12 1.369(9) . ?
C11 H11 0.9300 . ?
C12 H12 0.9300 . ?
C14 C15 1.367(9) . ?
C14 C19 1.386(9) . ?
C15 C16A 1.379(9) . ?
C15 H15 0.9300 . ?
C16A C17 1.365(9) . ?
C16A H16 0.9300 . ?
C17 C18 1.380(9) . ?
C17 C20 1.492(9) . ?
C18 C19 1.379(10) . ?
C18 H18 0.9300 . ?
C19 H19 0.9300 . ?
C21 C22 1.3900 . ?
C21 C26 1.3900 . ?
C22 C23 1.3900 . ?
C22 H22 0.9300 . ?
C23 C24 1.3900 . ?
C23 H23 0.9300 . ?
C24 C25 1.3900 . ?
C24 C27 1.519(7) . ?
C25 C26 1.3900 . ?
C25 H25 0.9300 . ?
C26 H26 0.9300 . ?
C28 C29 1.375(11) . ?
C28 H28 0.9300 . ?
C29 C30 1.347(14) . ?
C29 H29 0.9300 . ?
C30 C31 1.385(13) . ?
C30 H30 0.9300 . ?
C31 C32 1.379(11) . ?
C31 H31 0.9300 . ?
C32 H32 0.9300 . ?
C33 C34 1.389(11) . ?
C33 H33 0.9300 . ?
C34 C35A 1.306(15) . ?
C34 H34 0.9300 . ?
C35A C36 1.410(16) . ?
C35A H35 0.9300 . ?
C36 C37 1.395(12) . ?
C36 H36 0.9300 . ?
C37 H37B 0.9300 . ?
C38A C39 1.418(13) . ?
C38A H38 0.9300 . ?
C39 C40 1.371(15) . ?
C39 H39 0.9300 . ?
C40 C41 1.348(16) . ?
C40 H40 0.9300 . ?
C41 C42 1.383(13) . ?
C41 H41 0.9300 . ?
C42 H42 0.9300 . ?
O5S O4S 1.43(3) 6_454 ?
O5S O4S 1.43(3) . ?
O13S O15S 1.27(3) . ?
O13S O12S 1.45(2) . ?
O13S O14S 1.428(17) . ?
O14S O15S 1.35(3) . ?
O14S O16S 1.60(2) . ?
O12S O15S 1.29(3) . ?
O16S O15S 1.09(3) . ?
O16S O17S 1.72(3) . ?
O8S O7S 1.47(5) . ?
O8S O9S 1.70(5) . ?
O9S O7S 1.68(5) . ?
N1P C1P 1.31(6) . ?
N1P C1P 1.31(6) 6_554 ?
C1P C2P 1.64(6) . ?
C2P C3P 1.38(4) . ?
C3P C2P 1.38(5) 6_554 ?
O1D C1D 1.68(4) . ?
C3D N1D 1.18(4) . ?
C1D C2D 1.47(4) . ?
C1D N1D 1.83(5) . ?
O10S O11S 1.62(6) . ?
O18S O20S 1.34(6) . ?
O18S O19S 1.43(5) . ?
O19S O21S 1.39(4) . ?

loop_
_geom_angle_atom_site_label_1
_geom_angle_atom_site_label_2
_geom_angle_atom_site_label_3
_geom_angle
_geom_angle_site_symmetry_1
_geom_angle_site_symmetry_3
_geom_angle_publ_flag
O1 Fe1 O6 96.64(17) . . ?
O1 Fe1 O3 97.39(18) . . ?
O6 Fe1 O3 88.16(19) . . ?
O1 Fe1 O19 94.17(17) . 6_564 ?
O6 Fe1 O19 92.2(2) . 6_564 ?
O3 Fe1 O19 168.31(19) . 6_564 ?
O1 Fe1 O14 94.78(17) . . ?
O6 Fe1 O14 168.57(19) . . ?
O3 Fe1 O14 90.40(18) . . ?
O19 Fe1 O14 86.93(18) 6_564 . ?
O1 Fe1 N1 176.80(19) . . ?
O6 Fe1 N1 85.7(2) . . ?
O3 Fe1 N1 84.8(2) . . ?
O19 Fe1 N1 83.55(19) 6_564 . ?
O14 Fe1 N1 82.86(19) . . ?
O1 Fe2 O7 96.64(17) . . ?
O1 Fe2 O10 96.82(17) . . ?
O7 Fe2 O10 89.50(19) . . ?
O1 Fe2 O18 95.62(17) . 6_564 ?
O7 Fe2 O18 91.28(18) . 6_564 ?
O10 Fe2 O18 167.35(18) . 6_564 ?
O1 Fe2 O16 94.21(17) . 12_766 ?
O7 Fe2 O16 168.91(18) . 12_766 ?
O10 Fe2 O16 91.5(2) . 12_766 ?
O18 Fe2 O16 85.36(19) 6_564 12_766 ?
O1 Fe2 N2 176.31(19) . . ?
O7 Fe2 N2 86.0(2) . . ?
O10 Fe2 N2 85.76(19) . . ?
O18 Fe2 N2 81.70(19) 6_564 . ?
O16 Fe2 N2 83.1(2) 12_766 . ?
O1 Fe3 O11 95.58(17) . . ?
O1 Fe3 O2 98.10(19) . . ?
O11 Fe3 O2 87.6(2) . . ?
O1 Fe3 O17 95.54(17) . 12_766 ?
O11 Fe3 O17 93.82(19) . 12_766 ?
O2 Fe3 O17 166.1(2) . 12_766 ?
O1 Fe3 O15 94.82(17) . . ?
O11 Fe3 O15 169.58(19) . . ?
O2 Fe3 O15 91.7(2) . . ?
O17 Fe3 O15 84.4(2) 12_766 . ?
O1 Fe3 N3 178.5(2) . . ?
O11 Fe3 N3 85.8(2) . . ?
O2 Fe3 N3 82.5(2) . . ?
O17 Fe3 N3 83.8(2) 12_766 . ?
O15 Fe3 N3 83.8(2) . . ?
O5 S1 O4 111.9(3) . . ?
O5 S1 O2 110.6(3) . . ?
O4 S1 O2 108.0(3) . . ?
O5 S1 O3 110.9(3) . . ?
O4 S1 O3 108.9(3) . . ?
O2 S1 O3 106.3(3) . . ?
O9 S2 O8 113.8(3) . . ?
O9 S2 O6 107.6(3) . . ?
O8 S2 O6 110.2(3) . . ?
O9 S2 O7 108.1(3) . . ?
O8 S2 O7 110.4(3) . . ?
O6 S2 O7 106.4(3) . . ?
O13 S3 O12 113.2(4) . . ?
O13 S3 O10 108.8(4) . . ?
O12 S3 O10 109.0(3) . . ?
O13 S3 O11 109.0(3) . . ?
O12 S3 O11 109.0(3) . . ?
O10 S3 O11 107.7(3) . . ?
Fe3 O1 Fe2 120.4(2) . . ?
Fe3 O1 Fe1 119.47(19) . . ?
Fe2 O1 Fe1 120.08(19) . . ?
S1 O2 Fe3 137.4(3) . . ?
S1 O3 Fe1 133.5(3) . . ?
S2 O6 Fe1 135.0(3) . . ?
S2 O7 Fe2 134.1(3) . . ?
S3 O10 Fe2 137.5(3) . . ?
S3 O11 Fe3 133.2(3) . . ?
C13 O14 Fe1 133.8(4) . . ?
C13 O15 Fe3 131.5(4) . . ?
C20 O16 Fe2 131.3(4) . 15_565 ?
C20 O17 Fe3 133.1(4) . 15_565 ?
C27 O18 Fe2 131.8(4) . 6_564 ?
C27 O19 Fe1 134.0(4) . 6_564 ?
C32 N1 C28 118.4(6) . . ?
C32 N1 Fe1 121.2(5) . . ?
C28 N1 Fe1 120.4(5) . . ?
C37 N2 C33 118.8(7) . . ?
C37 N2 Fe2 120.6(5) . . ?
C33 N2 Fe2 120.4(5) . . ?
C38A N3 C42 118.1(7) . . ?
C38A N3 Fe3 121.6(5) . . ?
C42 N3 Fe3 120.0(6) . . ?
C6 C1 C2 118.1(6) . . ?
C6 C1 C7 120.3(6) . . ?
C2 C1 C7 121.1(6) . . ?
C1 C2 C3 121.7(6) . . ?
C1 C2 H2 119.1 . . ?
C3 C2 H2 119.1 . . ?
C4 C3 C2 118.3(6) . . ?
C4 C3 C14 121.9(6) . . ?
C2 C3 C14 119.5(6) . . ?
C3 C4 C5 121.8(6) . . ?
C3 C4 H4 119.1 . . ?
C5 C4 H4 119.1 . . ?
C4 C5 C6 117.4(6) . . ?
C4 C5 C21 122.2(5) . . ?
C6 C5 C21 120.2(5) . . ?
C1 C6 C5 122.7(6) . . ?
C1 C6 H6 118.6 . . ?
C5 C6 H6 118.6 . . ?
C8 C7 C12 117.8(6) . . ?
C8 C7 C1 122.4(7) . . ?
C12 C7 C1 119.8(6) . . ?
C7 C8 C9 121.4(7) . . ?
C7 C8 H8 119.3 . . ?
C9 C8 H8 119.3 . . ?
C10 C9 C8 121.3(7) . . ?
C10 C9 H9 119.4 . . ?
C8 C9 H9 119.4 . . ?
C9 C10 C11 117.1(6) . . ?
C9 C10 C13 120.5(6) . . ?
C11 C10 C13 122.4(6) . . ?
C12 C11 C10 121.3(7) . . ?
C12 C11 H11 119.3 . . ?
C10 C11 H11 119.3 . . ?
C11 C12 C7 120.6(7) . . ?
C11 C12 H12 119.7 . . ?
C7 C12 H12 119.7 . . ?
O14 C13 O15 125.4(6) . . ?
O14 C13 C10 116.9(6) . . ?
O15 C13 C10 117.8(6) . . ?
C15 C14 C19 118.0(6) . . ?
C15 C14 C3 122.1(6) . . ?
C19 C14 C3 119.8(6) . . ?
C14 C15 C16A 120.8(6) . . ?
C14 C15 H15 119.6 . . ?
C16A C15 H15 119.6 . . ?
C17 C16A C15 121.8(6) . . ?
C17 C16A H16 119.1 . . ?
C15 C16A H16 119.1 . . ?
C16A C17 C18 117.4(6) . . ?
C16A C17 C20 123.7(6) . . ?
C18 C17 C20 118.8(6) . . ?
C19 C18 C17 121.2(6) . . ?
C19 C18 H18 119.4 . . ?
C17 C18 H18 119.4 . . ?
C18 C19 C14 120.5(6) . . ?
C18 C19 H19 119.8 . . ?
C14 C19 H19 119.8 . . ?
O17 C20 O16 125.6(6) . . ?
O17 C20 C17 117.1(6) . . ?
O16 C20 C17 117.3(6) . . ?
C22 C21 C26 120.0 . . ?
C22 C21 C5 121.3(4) . . ?
C26 C21 C5 118.5(4) . . ?
C21 C22 C23 120.0 . . ?
C21 C22 H22 120.0 . . ?
C23 C22 H22 120.0 . . ?
C24 C23 C22 120.0 . . ?
C24 C23 H23 120.0 . . ?
C22 C23 H23 120.0 . . ?
C23 C24 C25 120.0 . . ?
C23 C24 C27 121.6(4) . . ?
C25 C24 C27 118.2(4) . . ?
C26 C25 C24 120.0 . . ?
C26 C25 H25 120.0 . . ?
C24 C25 H25 120.0 . . ?
C25 C26 C21 120.0 . . ?
C25 C26 H26 120.0 . . ?
C21 C26 H26 120.0 . . ?
O18 C27 O19 126.1(6) . . ?
O18 C27 C24 118.0(5) . . ?
O19 C27 C24 115.8(5) . . ?
N1 C28 C29 122.3(8) . . ?
N1 C28 H28 118.9 . . ?
C29 C28 H28 118.9 . . ?
C30 C29 C28 119.4(8) . . ?
C30 C29 H29 120.3 . . ?
C28 C29 H29 120.3 . . ?
C29 C30 C31 118.9(9) . . ?
C29 C30 H30 120.6 . . ?
C31 C30 H30 120.6 . . ?
C32 C31 C30 119.2(9) . . ?
C32 C31 H31 120.4 . . ?
C30 C31 H31 120.4 . . ?
N1 C32 C31 121.6(8) . . ?
N1 C32 H32 119.2 . . ?
C31 C32 H32 119.2 . . ?
N2 C33 C34 122.0(9) . . ?
N2 C33 H33 119.0 . . ?
C34 C33 H33 119.0 . . ?
C35A C34 C33 120.2(10) . . ?
C35A C34 H34 119.9 . . ?
C33 C34 H34 119.9 . . ?
C34 C35A C36 119.2(9) . . ?
C34 C35A H35 120.4 . . ?
C36 C35A H35 120.4 . . ?
C37 C36 C35A 119.0(10) . . ?
C37 C36 H36 120.5 . . ?
C35A C36 H36 120.5 . . ?
N2 C37 C36 120.7(9) . . ?
N2 C37 H37B 119.7 . . ?
C36 C37 H37B 119.7 . . ?
N3 C38A C39 122.1(9) . . ?
N3 C38A H38 119.0 . . ?
C39 C38A H38 119.0 . . ?
C40 C39 C38A 119.2(10) . . ?
C40 C39 H39 120.4 . . ?
C38A C39 H39 120.4 . . ?
C41 C40 C39 117.6(10) . . ?
C41 C40 H40 121.2 . . ?
C39 C40 H40 121.2 . . ?
C40 C41 C42 119.6(11) . . ?
C40 C41 H41 120.2 . . ?
C42 C41 H41 120.2 . . ?
N3 C42 C41 123.1(10) . . ?
N3 C42 H42 118.5 . . ?
C41 C42 H42 118.5 . . ?
O4S O5S O4S 95(4) 6_454 . ?
O15S O13S O12S 56.4(16) . . ?
O15S O13S O14S 59.8(16) . . ?
O12S O13S O14S 111.2(13) . . ?
O15S O14S O13S 54.3(15) . . ?
O15S O14S O16S 42.3(14) . . ?
O13S O14S O16S 90.7(12) . . ?
O15S O12S O13S 55.0(16) . . ?
O15S O16S O14S 56(2) . . ?
O15S O16S O17S 148(3) . . ?
O14S O16S O17S 93.1(16) . . ?
O7S O8S O9S 63(3) . . ?
O7S O9S O8S 52(2) . . ?
O8S O7S O9S 65(3) . . ?
C1P N1P C1P 154(5) . 6_554 ?
N1P C1P C2P 105(3) . . ?
C3P C2P C1P 101(3) . . ?
C2P C3P C2P 152(5) 6_554 . ?
C2D C1D O1D 142(3) . . ?
C2D C1D N1D 87(3) . . ?
O1D C1D N1D 121(3) . . ?
C3D N1D C1D 90(3) . . ?
O20S O18S O19S 71(4) . . ?
O21S O19S O18S 174(4) . . ?
O16S O15S O13S 132(3) . . ?
O16S O15S O12S 151(4) . . ?
O13S O15S O12S 69(2) . . ?
O16S O15S O14S 81(3) . . ?
O13S O15S O14S 65.9(17) . . ?
O12S O15S O14S 127(3) . . ?

loop_
_geom_torsion_atom_site_label_1
_geom_torsion_atom_site_label_2
_geom_torsion_atom_site_label_3
_geom_torsion_atom_site_label_4
_geom_torsion
_geom_torsion_site_symmetry_1
_geom_torsion_site_symmetry_2
_geom_torsion_site_symmetry_3
_geom_torsion_site_symmetry_4
_geom_torsion_publ_flag
O11 Fe3 O1 Fe2 51.2(3) . . . . ?
O2 Fe3 O1 Fe2 139.5(2) . . . . ?
O17 Fe3 O1 Fe2 -43.2(2) 12_766 . . . ?
O15 Fe3 O1 Fe2 -128.1(2) . . . . ?
N3 Fe3 O1 Fe2 -105(9) . . . . ?
O11 Fe3 O1 Fe1 -131.1(2) . . . . ?
O2 Fe3 O1 Fe1 -42.8(3) . . . . ?
O17 Fe3 O1 Fe1 134.5(2) 12_766 . . . ?
O15 Fe3 O1 Fe1 49.6(3) . . . . ?
N3 Fe3 O1 Fe1 73(9) . . . . ?
O7 Fe2 O1 Fe3 -135.0(2) . . . . ?
O10 Fe2 O1 Fe3 -44.7(3) . . . . ?
O18 Fe2 O1 Fe3 133.1(2) 6_564 . . . ?
O16 Fe2 O1 Fe3 47.3(2) 12_766 . . . ?
N2 Fe2 O1 Fe3 90(3) . . . . ?
O7 Fe2 O1 Fe1 47.3(2) . . . . ?
O10 Fe2 O1 Fe1 137.6(2) . . . . ?
O18 Fe2 O1 Fe1 -44.6(2) 6_564 . . . ?
O16 Fe2 O1 Fe1 -130.4(2) 12_766 . . . ?
N2 Fe2 O1 Fe1 -88(3) . . . . ?
O6 Fe1 O1 Fe3 135.8(2) . . . . ?
O3 Fe1 O1 Fe3 46.8(2) . . . . ?
O19 Fe1 O1 Fe3 -131.5(2) 6_564 . . . ?
O14 Fe1 O1 Fe3 -44.2(2) . . . . ?
N1 Fe1 O1 Fe3 -87(3) . . . . ?
O6 Fe1 O1 Fe2 -46.5(2) . . . . ?
O3 Fe1 O1 Fe2 -135.5(2) . . . . ?
O19 Fe1 O1 Fe2 46.2(2) 6_564 . . . ?
O14 Fe1 O1 Fe2 133.5(2) . . . . ?
N1 Fe1 O1 Fe2 91(3) . . . . ?
O5 S1 O2 Fe3 86.5(5) . . . . ?
O4 S1 O2 Fe3 -150.8(5) . . . . ?
O3 S1 O2 Fe3 -34.0(6) . . . . ?
O1 Fe3 O2 S1 37.8(5) . . . . ?
O11 Fe3 O2 S1 133.1(5) . . . . ?
O17 Fe3 O2 S1 -130.8(7) 12_766 . . . ?
O15 Fe3 O2 S1 -57.3(5) . . . . ?
N3 Fe3 O2 S1 -140.8(6) . . . . ?
O5 S1 O3 Fe1 -80.3(5) . . . . ?
O4 S1 O3 Fe1 156.2(4) . . . . ?
O2 S1 O3 Fe1 40.0(5) . . . . ?
O1 Fe1 O3 S1 -48.5(4) . . . . ?
O6 Fe1 O3 S1 -145.0(4) . . . . ?
O19 Fe1 O3 S1 123.0(9) 6_564 . . . ?
O14 Fe1 O3 S1 46.4(4) . . . . ?
N1 Fe1 O3 S1 129.2(4) . . . . ?
O9 S2 O6 Fe1 -155.9(4) . . . . ?
O8 S2 O6 Fe1 79.5(5) . . . . ?
O7 S2 O6 Fe1 -40.2(5) . . . . ?
O1 Fe1 O6 S2 44.8(4) . . . . ?
O3 Fe1 O6 S2 142.0(4) . . . . ?
O19 Fe1 O6 S2 -49.7(4) 6_564 . . . ?
O14 Fe1 O6 S2 -135.1(8) . . . . ?
N1 Fe1 O6 S2 -133.0(4) . . . . ?
O9 S2 O7 Fe2 156.6(4) . . . . ?
O8 S2 O7 Fe2 -78.3(4) . . . . ?
O6 S2 O7 Fe2 41.3(4) . . . . ?
O1 Fe2 O7 S2 -46.8(4) . . . . ?
O10 Fe2 O7 S2 -143.6(4) . . . . ?
O18 Fe2 O7 S2 49.0(4) 6_564 . . . ?
O16 Fe2 O7 S2 121.2(9) 12_766 . . . ?
N2 Fe2 O7 S2 130.6(4) . . . . ?
O13 S3 O10 Fe2 90.4(5) . . . . ?
O12 S3 O10 Fe2 -145.8(4) . . . . ?
O11 S3 O10 Fe2 -27.7(5) . . . . ?
O1 Fe2 O10 S3 32.1(5) . . . . ?
O7 Fe2 O10 S3 128.7(5) . . . . ?
O18 Fe2 O10 S3 -137.6(8) 6_564 . . . ?
O16 Fe2 O10 S3 -62.3(5) 12_766 . . . ?
N2 Fe2 O10 S3 -145.3(5) . . . . ?
O13 S3 O11 Fe3 -78.9(5) . . . . ?
O12 S3 O11 Fe3 157.0(4) . . . . ?
O10 S3 O11 Fe3 39.0(5) . . . . ?
O1 Fe3 O11 S3 -51.2(4) . . . . ?
O2 Fe3 O11 S3 -149.1(4) . . . . ?
O17 Fe3 O11 S3 44.8(4) 12_766 . . . ?
O15 Fe3 O11 S3 124.8(11) . . . . ?
N3 Fe3 O11 S3 128.2(4) . . . . ?
O1 Fe1 O14 C13 13.1(6) . . . . ?
O6 Fe1 O14 C13 -167.0(9) . . . . ?
O3 Fe1 O14 C13 -84.4(6) . . . . ?
O19 Fe1 O14 C13 107.0(6) 6_564 . . . ?
N1 Fe1 O14 C13 -169.1(6) . . . . ?
O1 Fe3 O15 C13 -29.3(6) . . . . ?
O11 Fe3 O15 C13 154.7(10) . . . . ?
O2 Fe3 O15 C13 68.9(6) . . . . ?
O17 Fe3 O15 C13 -124.5(6) 12_766 . . . ?
N3 Fe3 O15 C13 151.2(6) . . . . ?
O1 Fe1 N1 C32 -95(3) . . . . ?
O6 Fe1 N1 C32 42.1(6) . . . . ?
O3 Fe1 N1 C32 130.6(6) . . . . ?
O19 Fe1 N1 C32 -50.6(6) 6_564 . . . ?
O14 Fe1 N1 C32 -138.3(6) . . . . ?
O1 Fe1 N1 C28 84(3) . . . . ?
O6 Fe1 N1 C28 -138.5(6) . . . . ?
O3 Fe1 N1 C28 -49.9(6) . . . . ?
O19 Fe1 N1 C28 128.8(6) 6_564 . . . ?
O14 Fe1 N1 C28 41.1(6) . . . . ?
O1 Fe2 N2 C37 -80(3) . . . . ?
O7 Fe2 N2 C37 144.2(6) . . . . ?
O10 Fe2 N2 C37 54.4(6) . . . . ?
O18 Fe2 N2 C37 -123.9(6) 6_564 . . . ?
O16 Fe2 N2 C37 -37.6(6) 12_766 . . . ?
O1 Fe2 N2 C33 94(3) . . . . ?
O7 Fe2 N2 C33 -41.8(6) . . . . ?
O10 Fe2 N2 C33 -131.6(6) . . . . ?
O18 Fe2 N2 C33 50.1(6) 6_564 . . . ?
O16 Fe2 N2 C33 136.4(6) 12_766 . . . ?
O1 Fe3 N3 C38A 119(9) . . . . ?
O11 Fe3 N3 C38A -37.4(7) . . . . ?
O2 Fe3 N3 C38A -125.5(7) . . . . ?
O17 Fe3 N3 C38A 56.9(7) 12_766 . . . ?
O15 Fe3 N3 C38A 142.0(7) . . . . ?
O1 Fe3 N3 C42 -68(9) . . . . ?
O11 Fe3 N3 C42 135.8(8) . . . . ?
O2 Fe3 N3 C42 47.7(7) . . . . ?
O17 Fe3 N3 C42 -129.9(8) 12_766 . . . ?
O15 Fe3 N3 C42 -44.8(7) . . . . ?
C6 C1 C2 C3 -0.2(12) . . . . ?
C7 C1 C2 C3 -172.1(7) . . . . ?
C1 C2 C3 C4 -1.0(12) . . . . ?
C1 C2 C3 C14 173.1(7) . . . . ?
C2 C3 C4 C5 1.9(12) . . . . ?
C14 C3 C4 C5 -172.1(7) . . . . ?
C3 C4 C5 C6 -1.6(12) . . . . ?
C3 C4 C5 C21 172.8(7) . . . . ?
C2 C1 C6 C5 0.6(12) . . . . ?
C7 C1 C6 C5 172.5(7) . . . . ?
C4 C5 C6 C1 0.3(12) . . . . ?
C21 C5 C6 C1 -174.2(7) . . . . ?
C6 C1 C7 C8 -144.4(8) . . . . ?
C2 C1 C7 C8 27.4(12) . . . . ?
C6 C1 C7 C12 34.4(12) . . . . ?
C2 C1 C7 C12 -153.9(8) . . . . ?
C12 C7 C8 C9 -2.7(13) . . . . ?
C1 C7 C8 C9 176.0(8) . . . . ?
C7 C8 C9 C10 -3.6(14) . . . . ?
C8 C9 C10 C11 8.0(12) . . . . ?
C8 C9 C10 C13 -173.9(7) . . . . ?
C9 C10 C11 C12 -6.2(12) . . . . ?
C13 C10 C11 C12 175.7(7) . . . . ?
C10 C11 C12 C7 0.1(13) . . . . ?
C8 C7 C12 C11 4.4(13) . . . . ?
C1 C7 C12 C11 -174.3(7) . . . . ?
Fe1 O14 C13 O15 7.6(10) . . . . ?
Fe1 O14 C13 C10 -172.0(4) . . . . ?
Fe3 O15 C13 O14 2.6(11) . . . . ?
Fe3 O15 C13 C10 -177.8(5) . . . . ?
C9 C10 C13 O14 153.9(7) . . . . ?
C11 C10 C13 O14 -28.0(10) . . . . ?
C9 C10 C13 O15 -25.7(10) . . . . ?
C11 C10 C13 O15 152.3(7) . . . . ?
C4 C3 C14 C15 -158.9(8) . . . . ?
C2 C3 C14 C15 27.2(11) . . . . ?
C4 C3 C14 C19 25.2(12) . . . . ?
C2 C3 C14 C19 -148.8(8) . . . . ?
C19 C14 C15 C16A 3.9(12) . . . . ?
C3 C14 C15 C16A -172.1(7) . . . . ?
C14 C15 C16A C17 -2.5(12) . . . . ?
C15 C16A C17 C18 -2.3(11) . . . . ?
C15 C16A C17 C20 175.1(7) . . . . ?
C16A C17 C18 C19 5.6(12) . . . . ?
C20 C17 C18 C19 -171.9(8) . . . . ?
C17 C18 C19 C14 -4.2(14) . . . . ?
C15 C14 C19 C18 -0.6(13) . . . . ?
C3 C14 C19 C18 175.5(8) . . . . ?
Fe3 O17 C20 O16 -19.0(10) 15_565 . . . ?
Fe3 O17 C20 C17 160.9(4) 15_565 . . . ?
Fe2 O16 C20 O17 10.1(10) 15_565 . . . ?
Fe2 O16 C20 C17 -169.9(4) 15_565 . . . ?
C16A C17 C20 O17 154.0(7) . . . . ?
C18 C17 C20 O17 -28.7(9) . . . . ?
C16A C17 C20 O16 -26.1(10) . . . . ?
C18 C17 C20 O16 151.3(7) . . . . ?
C4 C5 C21 C22 20.8(10) . . . . ?
C6 C5 C21 C22 -165.0(6) . . . . ?
C4 C5 C21 C26 -153.2(6) . . . . ?
C6 C5 C21 C26 21.0(9) . . . . ?
C26 C21 C22 C23 0.0 . . . . ?
C5 C21 C22 C23 -174.0(6) . . . . ?
C21 C22 C23 C24 0.0 . . . . ?
C22 C23 C24 C25 0.0 . . . . ?
C22 C23 C24 C27 175.0(5) . . . . ?
C23 C24 C25 C26 0.0 . . . . ?
C27 C24 C25 C26 -175.1(5) . . . . ?
C24 C25 C26 C21 0.0 . . . . ?
C22 C21 C26 C25 0.0 . . . . ?
C5 C21 C26 C25 174.1(6) . . . . ?
Fe2 O18 C27 O19 3.1(10) 6_564 . . . ?
Fe2 O18 C27 C24 -173.4(4) 6_564 . . . ?
Fe1 O19 C27 O18 0.9(11) 6_564 . . . ?
Fe1 O19 C27 C24 177.5(4) 6_564 . . . ?
C23 C24 C27 O18 -16.6(8) . . . . ?
C25 C24 C27 O18 158.5(5) . . . . ?
C23 C24 C27 O19 166.5(5) . . . . ?
C25 C24 C27 O19 -18.4(7) . . . . ?
C32 N1 C28 C29 -0.4(12) . . . . ?
Fe1 N1 C28 C29 -179.9(7) . . . . ?
N1 C28 C29 C30 -1.3(16) . . . . ?
C28 C29 C30 C31 -0.5(18) . . . . ?
C29 C30 C31 C32 3.9(19) . . . . ?
C28 N1 C32 C31 3.9(13) . . . . ?
Fe1 N1 C32 C31 -176.6(7) . . . . ?
C30 C31 C32 N1 -5.7(16) . . . . ?
C37 N2 C33 C34 -4.3(13) . . . . ?
Fe2 N2 C33 C34 -178.3(7) . . . . ?
N2 C33 C34 C35A 3.8(17) . . . . ?
C33 C34 C35A C36 -1.3(19) . . . . ?
C34 C35A C36 C37 -0.4(19) . . . . ?
C33 N2 C37 C36 2.4(13) . . . . ?
Fe2 N2 C37 C36 176.5(8) . . . . ?
C35A C36 C37 N2 -0.1(17) . . . . ?
C42 N3 C38A C39 -3.4(15) . . . . ?
Fe3 N3 C38A C39 169.9(8) . . . . ?
N3 C38A C39 C40 2.0(19) . . . . ?
C38A C39 C40 C41 4(2) . . . . ?
C39 C40 C41 C42 -7(2) . . . . ?
C38A N3 C42 C41 -0.6(17) . . . . ?
Fe3 N3 C42 C41 -174.1(11) . . . . ?
C40 C41 C42 N3 6(2) . . . . ?
O12S O13S O14S O15S -24.0(19) . . . . ?
O15S O13S O14S O16S -23.3(18) . . . . ?
O12S O13S O14S O16S -47.3(15) . . . . ?
O14S O13S O12S O15S 25.0(19) . . . . ?
O13S O14S O16S O15S 28(2) . . . . ?
O15S O14S O16S O17S -168(3) . . . . ?
O13S O14S O16S O17S -139.7(15) . . . . ?
C1P N1P C1P C2P -6(3) 6_554 . . . ?
N1P C1P C2P C3P 10(4) . . . . ?
C1P C2P C3P C2P -6(2) . . . 6_554 ?
C2D C1D N1D C3D 165(3) . . . . ?
O1D C1D N1D C3D -43(4) . . . . ?
O20S O18S O19S O21S 36(41) . . . . ?
O14S O16S O15S O13S -46(3) . . . . ?
O17S O16S O15S O13S -23(8) . . . . ?
O14S O16S O15S O12S -174(7) . . . . ?
O17S O16S O15S O12S -152(5) . . . . ?
O17S O16S O15S O14S 23(5) . . . . ?
O12S O13S O15S O16S -156(5) . . . . ?
O14S O13S O15S O16S 51(4) . . . . ?
O14S O13S O15S O12S -153(2) . . . . ?
O12S O13S O15S O14S 153(2) . . . . ?
O13S O12S O15S O16S 141(7) . . . . ?
O13S O12S O15S O14S -32(2) . . . . ?
O13S O14S O15S O16S -144(3) . . . . ?
O16S O14S O15S O13S 144(3) . . . . ?
O13S O14S O15S O12S 32(2) . . . . ?
O16S O14S O15S O12S 176(4) . . . . ?

_diffrn_measured_fraction_theta_max 0.962
_diffrn_reflns_theta_full        28.28
_diffrn_measured_fraction_theta_full 0.962
_refine_diff_density_max         0.924
_refine_diff_density_min         -0.498
_refine_diff_density_rms         0.139


####################################################################### 
# 
# This file contains crystal structure data downloaded from the 
# Cambridge Structural Database (CSD) hosted by the Cambridge 
# Crystallographic Data Centre (CCDC).
# 
# Full information about CCDC data access policies and citation 
# guidelines are available at http://www.ccdc.cam.ac.uk/access/V1 
# 
# Audit and citation data items may have been added by the CCDC. 
# Please retain this information to preserve the provenance of 
# this file and to allow appropriate attribution of the data. 
# 
#######################################################################

data_sqzdIRMOF-53
_audit_block_doi                 10.5517/cc95qjp
_database_code_depnum_ccdc_archive 'CCDC 273622'
loop_
_citation_id
_citation_doi
_citation_year
1 10.1021/ja042802q 2005
_audit_update_record             
;
2005-06-01 deposited with the CCDC.	2019-02-14 downloaded from the CCDC.
;

_audit_creation_method           SHELXL-97
_chemical_name_systematic        
;
?
;
_chemical_name_common            IRMOF53
_chemical_melting_point          ?
_chemical_formula_moiety         'C180 H132 Fe12 N12 O76 S12'
_chemical_formula_sum            'C180 H132 Fe12 N12 O76 S12'
_chemical_formula_weight         4734.02

loop_
_atom_type_symbol
_atom_type_description
_atom_type_scat_dispersion_real
_atom_type_scat_dispersion_imag
_atom_type_scat_source
C C 0.0033 0.0016 'International Tables Vol C Tables 4.2.6.8 and 6.1.1.4'
Fe Fe 0.3463 0.8444 'International Tables Vol C Tables 4.2.6.8 and 6.1.1.4'
N N 0.0061 0.0033 'International Tables Vol C Tables 4.2.6.8 and 6.1.1.4'
O O 0.0106 0.0060 'International Tables Vol C Tables 4.2.6.8 and 6.1.1.4'
S S 0.1246 0.1234 'International Tables Vol C Tables 4.2.6.8 and 6.1.1.4'
H H 0.0000 0.0000 'International Tables Vol C Tables 4.2.6.8 and 6.1.1.4'

_symmetry_cell_setting           triclinic
_symmetry_space_group_name_H-M   P-1

loop_
_symmetry_equiv_pos_as_xyz
'x, y, z'
'-x, -y, -z'

_cell_length_a                   31.642(3)
_cell_length_b                   31.762(3)
_cell_length_c                   31.830(3)
_cell_angle_alpha                75.847(2)
_cell_angle_beta                 75.264(2)
_cell_angle_gamma                60.155(2)
_cell_volume                     26568(4)
_cell_formula_units_Z            2
_cell_measurement_temperature    293(2)
_cell_measurement_reflns_used    999
_cell_measurement_theta_min      3
_cell_measurement_theta_max      22

_exptl_crystal_description       plate
_exptl_crystal_colour            orange
_exptl_crystal_size_max          0.43
_exptl_crystal_size_mid          0.22
_exptl_crystal_size_min          0.09
_exptl_crystal_density_meas      ?
_exptl_crystal_density_diffrn    0.592
_exptl_crystal_density_method    'not measured'
_exptl_crystal_F_000             4815
_exptl_absorpt_coefficient_mu    0.400
_exptl_absorpt_correction_type   multi-scan
_exptl_absorpt_correction_T_min  0.898
_exptl_absorpt_correction_T_max  0.964
_exptl_absorpt_process_details   'Blessing, Acta Cryst. (1995) A51 33-58'

_exptl_special_details           
;
The only optimal crystals suitable for analysis were small and weakly
diffracting. Optimization of synthetic conditions could yield larger
crystals, however these specimens had only a very low degree of
crystallinity and presented little coherent scattering compared to
that of smaller crystals. Owing to these challenges observed strong
(high intensity) scattering was limited to 1.0 angstrom, with higher
resolution data present but weak (low intensity). Increasing the exposure
time of the crystal to X-rays did not ameliorate the quality of the data
as this woulThe only optimal crystals suitable for analysis were small
and weakly diffracting. Optimization of synthetic conditions could yield larger
crystals, however these specimens had only a very low degree of
crystallinity and presented little coherent scattering compared to
that of smaller crystals. Additionally, diffuse scattering from the highly
disordered solvent in the large void spaces within the crystal and from
the capillary used mount the crystal contributes to the background
noise and the 'washing out' of high angle data.

This model has been treated with the SQUEEZE subroutine of PLATON.

;

_diffrn_ambient_temperature      293(2)
_diffrn_radiation_wavelength     0.71073
_diffrn_radiation_type           MoK\a
_diffrn_radiation_source         'fine-focus sealed tube'
_diffrn_radiation_monochromator  graphite
_diffrn_measurement_device_type  ?
_diffrn_measurement_method       ?
_diffrn_detector_area_resol_mean ?
_diffrn_standards_number         ?
_diffrn_standards_interval_count ?
_diffrn_standards_interval_time  ?
_diffrn_standards_decay_%        ?
_diffrn_reflns_number            216798
_diffrn_reflns_av_R_equivalents  0.0734
_diffrn_reflns_av_sigmaI/netI    0.1504
_diffrn_reflns_limit_h_min       -37
_diffrn_reflns_limit_h_max       37
_diffrn_reflns_limit_k_min       -37
_diffrn_reflns_limit_k_max       37
_diffrn_reflns_limit_l_min       -37
_diffrn_reflns_limit_l_max       37
_diffrn_reflns_theta_min         0.67
_diffrn_reflns_theta_max         25.10
_reflns_number_total             94094
_reflns_number_gt                34653
_reflns_threshold_expression     >2sigma(I)

_computing_data_collection       ?
_computing_cell_refinement       ?
_computing_data_reduction        ?
_computing_structure_solution    'SHELXS-97 (Sheldrick, 1990)'
_computing_structure_refinement  'SHELXL-97 (Sheldrick, 1997)'
_computing_molecular_graphics    crystalmaker
_computing_publication_material  wingx

_refine_special_details          
;
Refinement of F^2^ against ALL reflections. The weighted R-factor wR and
goodness of fit S are based on F^2^, conventional R-factors R are based
on F, with F set to zero for negative F^2^. The threshold expression of
F^2^ > 2sigma(F^2^) is used only for calculating R-factors(gt) etc. and is
not relevant to the choice of reflections for refinement. R-factors based
on F^2^ are statistically about twice as large as those based on F, and R-
factors based on ALL data will be even larger.

Due to the large void space in the structure, solvent in the structure
is highly disordered. Complete assignment of scattering factors to all residual
electron density was therfore not possible.
Assigment of the largest peaks in the Fourier difference map to carbon
and nitrogen was made; these were refined anisotropically if possible.
All other electron density in the void space was treated as separated
oxygen atoms with large thermal parameters. Cations in the structure could
not be resolved as they are components of the highly disordered
portion of the structure.

Fourier difference maps revealed the presence of disordered solvent
molecules within the lattice which were ulitmately modeled through the
use of the PLATON software suite: Spek, A.L. (1990), Acta Crystallogr.
A46, C-34. A sum total of 3699 electrons were accounted for in void
space of 19012.9 A^3.


;

_refine_ls_structure_factor_coef Fsqd
_refine_ls_matrix_type           full
_refine_ls_weighting_scheme      calc
_refine_ls_weighting_details     
'calc w=1/[\s^2^(Fo^2^)+(0.0734P)^2^+0.0000P] where P=(Fo^2^+2Fc^2^)/3'
_atom_sites_solution_primary     direct
_atom_sites_solution_secondary   difmap
_atom_sites_solution_hydrogens   geom
_refine_ls_hydrogen_treatment    constr
_refine_ls_extinction_method     none
_refine_ls_extinction_coef       ?
_refine_ls_number_reflns         94094
_refine_ls_number_parameters     2131
_refine_ls_number_restraints     9
_refine_ls_R_factor_all          0.1213
_refine_ls_R_factor_gt           0.0585
_refine_ls_wR_factor_ref         0.1504
_refine_ls_wR_factor_gt          0.1373
_refine_ls_goodness_of_fit_ref   0.710
_refine_ls_restrained_S_all      0.711
_refine_ls_shift/su_max          0.002
_refine_ls_shift/su_mean         0.000

loop_
_atom_site_label
_atom_site_type_symbol
_atom_site_fract_x
_atom_site_fract_y
_atom_site_fract_z
_atom_site_U_iso_or_equiv
_atom_site_adp_type
_atom_site_occupancy
_atom_site_symmetry_multiplicity
_atom_site_calc_flag
_atom_site_refinement_flags
_atom_site_disorder_assembly
_atom_site_disorder_group
Fe11_1 Fe 0.083292(16) 0.577491(16) 0.287177(16) 0.05162(13) Uani 1 1 d . . .
Fe12_1 Fe -0.019545(17) 0.683543(16) 0.285155(16) 0.05210(13) Uani 1 1 d . . .
Fe13_1 Fe 0.034056(17) 0.635467(16) 0.374583(16) 0.05198(13) Uani 1 1 d . . .
Fe21_1 Fe 0.084656(19) 1.292732(17) 0.283598(17) 0.06199(15) Uani 1 1 d . . .
Fe22_1 Fe 0.035478(18) 1.244557(16) 0.374119(17) 0.05742(14) Uani 1 1 d . . .
Fe23_1 Fe -0.020812(18) 1.292338(16) 0.286596(17) 0.05995(15) Uani 1 1 d . . .
Fe31_1 Fe 0.37659(2) 0.863360(18) -0.235853(18) 0.07373(17) Uani 1 1 d . . .
Fe32_1 Fe 0.37512(2) 0.967195(18) -0.230514(17) 0.06638(15) Uani 1 1 d . . .
Fe33_1 Fe 0.27079(2) 0.966348(17) -0.230985(16) 0.06377(15) Uani 1 1 d . . .
Fe41_1 Fe 0.644718(18) 0.635901(18) 0.369917(19) 0.06730(16) Uani 1 1 d . . .
Fe42_1 Fe 0.695206(17) 0.684548(17) 0.280720(19) 0.06445(15) Uani 1 1 d . . .
Fe43_1 Fe 0.696856(17) 0.579115(17) 0.281610(19) 0.06443(15) Uani 1 1 d . . .
S112_1 S -0.00316(4) 0.59530(3) 0.23965(4) 0.0676(3) Uani 1 1 d . . .
S113_1 S 0.08358(5) 0.51864(4) 0.38476(4) 0.0794(3) Uani 1 1 d . . .
S123_1 S -0.08421(4) 0.68997(4) 0.38076(4) 0.0718(3) Uani 1 1 d . . .
S212_1 S 0.09004(5) 1.30502(4) 0.37854(4) 0.0829(3) Uani 1 1 d . . .
S213_1 S -0.00409(4) 1.38584(3) 0.23942(4) 0.0779(3) Uani 1 1 d . . .
S223_1 S -0.08234(4) 1.30537(5) 0.38362(4) 0.0846(3) Uani 1 1 d . . .
S312_1 S 0.46334(6) 0.88906(5) -0.28976(5) 0.1129(5) Uani 1 1 d . . .
S313_1 S 0.29301(6) 0.88813(5) -0.29086(5) 0.1062(4) Uani 1 1 d . . .
S323_1 S 0.28922(4) 1.05834(4) -0.27857(4) 0.0827(3) Uani 1 1 d . . .
S412_1 S 0.70558(4) 0.68925(4) 0.37664(5) 0.0875(3) Uani 1 1 d . . .
S413_1 S 0.70457(4) 0.51893(4) 0.37789(5) 0.0896(4) Uani 1 1 d . . .
S423_1 S 0.79042(4) 0.59661(4) 0.23489(5) 0.0790(3) Uani 1 1 d . . .
O1_1 O 0.03183(7) 0.63176(7) 0.31621(7) 0.0478(5) Uani 1 1 d . . .
O2_1 O -0.07511(7) 0.68800(8) 0.33307(8) 0.0599(6) Uani 1 1 d . . .
O3_1 O -0.11912(9) 0.67247(12) 0.40217(9) 0.1061(10) Uani 1 1 d . . .
O4_1 O -0.10026(11) 0.73992(10) 0.38766(10) 0.1176(11) Uani 1 1 d . . .
O5_1 O -0.03660(8) 0.65620(9) 0.39795(7) 0.0682(7) Uani 1 1 d . . .
O6_1 O 0.04834(9) 0.56737(8) 0.39976(7) 0.0694(7) Uani 1 1 d . . .
O7_1 O 0.13184(13) 0.50314(11) 0.39497(11) 0.1392(13) Uani 1 1 d . . .
O8_1 O 0.06442(14) 0.48443(11) 0.40496(10) 0.1314(13) Uani 1 1 d . . .
O9_1 O 0.08710(8) 0.52457(7) 0.33682(8) 0.0650(7) Uani 1 1 d . . .
O10_1 O 0.03972(8) 0.56372(7) 0.26374(8) 0.0633(6) Uani 1 1 d . . .
O11_1 O 0.01376(11) 0.60496(11) 0.19393(9) 0.1047(10) Uani 1 1 d . . .
O12_1 O -0.03425(9) 0.57139(10) 0.24870(10) 0.1012(9) Uani 1 1 d . . .
O13_1 O -0.03331(8) 0.64218(8) 0.25880(8) 0.0666(7) Uani 1 1 d . . .
O14_1 O -0.01602(8) 0.73887(7) 0.30248(8) 0.0610(6) Uani 1 1 d . . .
O15_1 O 0.02235(9) 0.70539(9) 0.36113(8) 0.0688(7) Uani 1 1 d . . .
O16_1 O 0.10644(9) 0.61735(9) 0.36319(8) 0.0677(7) Uani 1 1 d . . .
O17_1 O 0.13867(8) 0.58177(9) 0.30286(9) 0.0683(7) Uani 1 1 d . . .
O18_1 O 0.09392(8) 0.61872(9) 0.23003(7) 0.0660(7) Uani 1 1 d . . .
O19_1 O 0.02610(9) 0.69083(8) 0.22958(8) 0.0681(7) Uani 1 1 d . . .
O20_1 O 0.03280(8) 1.27744(7) 0.31465(7) 0.0569(6) Uani 1 1 d . . .
O21_1 O 0.09113(9) 1.31853(8) 0.33080(8) 0.0712(7) Uani 1 1 d . . .
O22_1 O 0.07433(14) 1.34753(12) 0.39751(10) 0.1308(13) Uani 1 1 d . . .
O23_1 O 0.13901(13) 1.26680(13) 0.38662(12) 0.1402(13) Uani 1 1 d . . .
O24_1 O 0.05444(9) 1.28504(8) 0.39636(7) 0.0678(7) Uani 1 1 d . . .
O25_1 O -0.03403(8) 1.28534(9) 0.39849(7) 0.0740(7) Uani 1 1 d . . .
O26_1 O -0.09759(13) 1.26800(15) 0.39384(11) 0.1422(13) Uani 1 1 d . . .
O27_1 O -0.11716(11) 1.34918(13) 0.40244(10) 0.1410(14) Uani 1 1 d . . .
O28_1 O -0.07506(8) 1.31845(8) 0.33528(8) 0.0719(7) Uani 1 1 d . . .
O29_1 O -0.03489(9) 1.36083(8) 0.26092(8) 0.0752(7) Uani 1 1 d . . .
O30_1 O 0.00824(11) 1.38322(11) 0.19307(10) 0.1119(10) Uani 1 1 d . . .
O31_1 O -0.03189(11) 1.43622(8) 0.24949(10) 0.1086(10) Uani 1 1 d . . .
O32_1 O 0.04113(9) 1.36132(8) 0.26032(8) 0.0758(7) Uani 1 1 d . . .
O33_1 O 0.13986(9) 1.22588(9) 0.29896(9) 0.0786(8) Uani 1 1 d . . .
O34_1 O 0.10667(10) 1.19396(8) 0.36085(9) 0.0740(8) Uani 1 1 d . . .
O35_1 O 0.01917(10) 1.19359(8) 0.36397(8) 0.0724(7) Uani 1 1 d . . .
O36_1 O -0.01687(9) 1.22520(8) 0.30464(9) 0.0731(7) Uani 1 1 d . . .
O37_1 O 0.02161(11) 1.26775(9) 0.22959(9) 0.0791(8) Uani 1 1 d . . .
O38_1 O 0.09187(10) 1.26892(9) 0.22764(8) 0.0783(8) Uani 1 1 d . . .
O39_1 O 0.34123(8) 0.93239(7) -0.23343(7) 0.0611(6) Uani 1 1 d . . .
O40_1 O 0.43214(11) 0.86434(9) -0.28113(9) 0.1015(10) Uani 1 1 d . . .
O41_1 O 0.48242(15) 0.89315(14) -0.33531(13) 0.1695(17) Uani 1 1 d . . .
O42_1 O 0.50121(13) 0.86315(13) -0.26243(15) 0.1633(16) Uani 1 1 d . . .
O43_1 O 0.43086(10) 0.93953(9) -0.27804(8) 0.0921(9) Uani 1 1 d . . .
O44_1 O 0.34253(9) 1.02537(8) -0.27305(8) 0.0775(7) Uani 1 1 d . . .
O45_1 O 0.26523(11) 1.09002(10) -0.24457(11) 0.1133(10) Uani 1 1 d . . .
O46_1 O 0.28778(12) 1.08370(11) -0.32225(11) 0.1281(12) Uani 1 1 d . . .
O47_1 O 0.26643(9) 1.02527(8) -0.27264(8) 0.0761(7) Uani 1 1 d . . .
O48_1 O 0.26846(10) 0.93860(9) -0.27866(8) 0.0850(8) Uani 1 1 d . . .
O49_1 O 0.26648(15) 0.86188(13) -0.26311(14) 0.1516(14) Uani 1 1 d . . .
O50_1 O 0.29381(15) 0.89284(12) -0.33705(12) 0.1543(15) Uani 1 1 d . . .
O51_1 O 0.34463(13) 0.86397(9) -0.28161(9) 0.0996(9) Uani 1 1 d . . .
O52_1 O 0.41549(10) 0.84680(9) -0.18765(9) 0.0843(8) Uani 1 1 d . . .
O53_1 O 0.41436(10) 0.91694(9) -0.18432(8) 0.0822(8) Uani 1 1 d . . .
O54_1 O 0.32774(11) 1.00178(9) -0.18018(8) 0.0724(7) Uani 1 1 d . . .
O55_1 O 0.25691(9) 1.00109(8) -0.17980(8) 0.0709(7) Uani 1 1 d . . .
O56_1 O 0.25818(9) 0.91580(9) -0.18531(8) 0.0764(8) Uani 1 1 d . . .
O57_1 O 0.32982(12) 0.84675(9) -0.18789(8) 0.0823(8) Uani 1 1 d . . .
O58_1 O 0.67968(7) 0.63280(7) 0.31119(7) 0.0590(6) Uani 1 1 d . . .
O59_1 O 0.76388(8) 0.64323(8) 0.25443(9) 0.0777(8) Uani 1 1 d . . .
O60_1 O 0.78761(12) 0.60605(12) 0.18913(11) 0.1190(11) Uani 1 1 d . . .
O61_1 O 0.84078(9) 0.57171(10) 0.24523(11) 0.1149(11) Uani 1 1 d . . .
O62_1 O 0.76580(8) 0.56587(8) 0.25779(9) 0.0761(7) Uani 1 1 d . . .
O63_1 O 0.72202(9) 0.52555(8) 0.33014(9) 0.0753(7) Uani 1 1 d . . .
O64_1 O 0.74652(12) 0.48313(11) 0.39916(10) 0.1272(12) Uani 1 1 d . . .
O65_1 O 0.66563(13) 0.50490(11) 0.38589(12) 0.1348(12) Uani 1 1 d . . .
O66_1 O 0.68483(8) 0.56704(8) 0.39430(8) 0.0775(7) Uani 1 1 d . . .
O67_1 O 0.68328(9) 0.65517(9) 0.39347(8) 0.0835(8) Uani 1 1 d . . .
O68_1 O 0.66877(13) 0.73878(11) 0.38338(11) 0.1340(12) Uani 1 1 d . . .
O69_1 O 0.74764(12) 0.67179(13) 0.39746(11) 0.1267(12) Uani 1 1 d . . .
O70_1 O 0.72242(9) 0.68830(8) 0.32823(9) 0.0756(7) Uani 1 1 d . . .
O71_1 O 0.67045(9) 0.69259(9) 0.22532(9) 0.0810(8) Uani 1 1 d . . .
O72_1 O 0.67409(9) 0.62091(9) 0.22523(9) 0.0802(8) Uani 1 1 d . . .
O73_1 O 0.62875(10) 0.58352(9) 0.29794(10) 0.0830(8) Uani 1 1 d . . .
O74_1 O 0.59531(9) 0.61926(10) 0.35814(10) 0.0841(8) Uani 1 1 d . . .
O75_1 O 0.59334(9) 0.70667(10) 0.35744(10) 0.0873(8) Uani 1 1 d . . .
O76_1 O 0.62820(9) 0.73936(8) 0.29837(10) 0.0786(8) Uani 1 1 d . . .
C1A_1 C 0.14107(14) 0.59806(14) 0.33423(15) 0.0654(11) Uani 1 1 d . . .
C2A_1 C 0.19054(14) 0.59304(16) 0.33551(14) 0.0831(12) Uani 1 1 d . . .
C3A_1 C 0.19497(5) 0.61153(6) 0.36795(6) 0.1164(18) Uani 1 1 d . . .
H12A_1 H 0.1683 0.6249 0.3897 0.140 Uiso 1 1 calc R . .
C4A_1 C 0.23954(5) 0.61013(6) 0.36808(6) 0.143(2) Uani 1 1 d R . .
H13A_1 H 0.2427 0.6228 0.3899 0.172 Uiso 1 1 d R . .
C5A_1 C 0.27945(5) 0.58987(6) 0.33556(6) 0.131(2) Uani 1 1 d R . .
C6A_1 C 0.27478(5) 0.57100(6) 0.30291(6) 0.147(2) Uani 1 1 d R . .
H15A_1 H 0.3015 0.5574 0.2811 0.176 Uiso 1 1 d R . .
C7A_1 C 0.23020(5) 0.57240(6) 0.30277(6) 0.1225(18) Uani 1 1 d R . .
H16A_1 H 0.2271 0.5595 0.2811 0.147 Uiso 1 1 d R . .
C8A_1 C 0.32657(5) 0.59137(6) 0.33396(6) 0.158(2) Uani 1 1 d R . .
C9A_1 C 0.32700(5) 0.62223(6) 0.35800(6) 0.340(7) Uani 1 1 d RU . .
H18A_1 H 0.2978 0.6432 0.3739 0.408 Uiso 1 1 d R . .
C10A_1 C 0.37105(5) 0.62182(6) 0.35835(6) 0.700(19) Uani 1 1 d RU . .
H19A_1 H 0.3713 0.6425 0.3744 0.840 Uiso 1 1 d R . .
C11A_1 C 0.41466(5) 0.59055(6) 0.33466(6) 0.162(3) Uani 1 1 d RU . .
C12A_1 C 0.41422(5) 0.55969(6) 0.31062(6) 0.233(4) Uani 1 1 d R . .
H21A_1 H 0.4434 0.5388 0.2948 0.280 Uiso 1 1 d R . .
C13A_1 C 0.37018(5) 0.56010(6) 0.31027(6) 0.247(5) Uani 1 1 d R . .
H22A_1 H 0.3699 0.5394 0.2942 0.296 Uiso 1 1 d R . .
C14A_1 C 0.46323(5) 0.59265(6) 0.33141(6) 0.149(2) Uani 1 1 d R . .
C15A_1 C 0.46661(5) 0.61328(6) 0.36344(6) 0.169(3) Uani 1 1 d R . .
H24A_1 H 0.4398 0.6263 0.3853 0.203 Uiso 1 1 d R . .
C16A_1 C 0.51006(5) 0.61451(6) 0.36284(6) 0.145(2) Uani 1 1 d R . .
H25A_1 H 0.5123 0.6283 0.3843 0.174 Uiso 1 1 d R . .
C17A_1 C 0.55014(5) 0.59511(6) 0.33020(6) 0.0960(14) Uani 1 1 d R . .
C18A_1 C 0.54676(5) 0.57448(6) 0.29817(6) 0.134(2) Uani 1 1 d R . .
H27A_1 H 0.5736 0.5615 0.2763 0.161 Uiso 1 1 d R . .
C19A_1 C 0.50331(5) 0.57325(6) 0.29878(6) 0.164(3) Uani 1 1 d R . .
H28A_1 H 0.5010 0.5594 0.2773 0.197 Uiso 1 1 d R . .
C20A_1 C 0.59431(16) 0.59969(16) 0.32879(18) 0.0784(13) Uani 1 1 d . . .
C21B_1 C 0.00180(14) 0.74030(14) 0.33258(15) 0.0654(11) Uani 1 1 d . . .
C22B_1 C -0.00071(14) 0.78855(13) 0.33429(13) 0.0725(11) Uani 1 1 d . . .
C23B_1 C -0.02552(5) 0.82954(4) 0.30591(5) 0.1106(17) Uani 1 1 d . . .
H12B_1 H -0.0412 0.8277 0.2859 0.133 Uiso 1 1 calc R . .
C24B_1 C -0.02700(5) 0.87364(4) 0.30738(5) 0.131(2) Uani 1 1 d R . .
H13B_1 H -0.0437 0.9014 0.2883 0.157 Uiso 1 1 d R . .
C25B_1 C -0.00353(5) 0.87621(4) 0.33742(5) 0.0993(15) Uani 1 1 d R . .
C26B_1 C 0.02142(5) 0.83468(4) 0.36598(5) 0.1067(16) Uani 1 1 d R . .
H15B_1 H 0.0371 0.8364 0.3861 0.128 Uiso 1 1 d R . .
C27B_1 C 0.02289(5) 0.79058(4) 0.36452(5) 0.1012(15) Uani 1 1 d R . .
H16B_1 H 0.0395 0.7627 0.3835 0.121 Uiso 1 1 d R . .
C28B_1 C -0.00534(5) 0.92421(4) 0.33995(5) 0.1174(18) Uani 1 1 d R . .
C29B_1 C -0.03851(5) 0.96766(4) 0.31855(5) 0.210(4) Uani 1 1 d R . .
H18B_1 H -0.0606 0.9674 0.3043 0.252 Uiso 1 1 d R . .
C30B_1 C -0.03869(5) 1.01151(4) 0.31853(5) 0.244(5) Uani 1 1 d R . .
H19B_1 H -0.0609 1.0406 0.3042 0.292 Uiso 1 1 d R . .
C31B_1 C -0.00569(5) 1.01192(4) 0.33990(5) 0.130(2) Uani 1 1 d R . .
C32B_1 C 0.02748(5) 0.96847(4) 0.36130(5) 0.274(6) Uani 1 1 d R . .
H21B_1 H 0.0496 0.9687 0.3756 0.328 Uiso 1 1 d R . .
C33B_1 C 0.02765(5) 0.92462(4) 0.36132(5) 0.264(5) Uani 1 1 d R . .
H22B_1 H 0.0498 0.8956 0.3756 0.317 Uiso 1 1 d R . .
C34B_1 C -0.00574(5) 1.05931(4) 0.34077(5) 0.1148(17) Uani 1 1 d R . .
C35B_1 C -0.02708(5) 1.09911(4) 0.30931(5) 0.150(2) Uani 1 1 d R . .
H24B_1 H -0.0422 1.0967 0.2891 0.180 Uiso 1 1 d R . .
C36B_1 C -0.02582(5) 1.14254(4) 0.30802(5) 0.131(2) Uani 1 1 d R . .
H25B_1 H -0.0401 1.1692 0.2870 0.157 Uiso 1 1 d R . .
C37B_1 C -0.00323(5) 1.14617(4) 0.33820(5) 0.0858(13) Uani 1 1 d R . .
C38B_1 C 0.01811(5) 1.10636(4) 0.36965(5) 0.1227(19) Uani 1 1 d R . .
H27B_1 H 0.0332 1.1088 0.3898 0.147 Uiso 1 1 d R . .
C39B_1 C 0.01686(5) 1.06293(4) 0.37094(5) 0.146(2) Uani 1 1 d R . .
H28B_1 H 0.0311 1.0363 0.3920 0.176 Uiso 1 1 d R . .
C40B_1 C -0.00062(15) 1.19261(14) 0.33537(15) 0.0707(11) Uani 1 1 d . . .
C41C_1 C 0.06856(15) 0.66198(15) 0.21280(12) 0.0606(10) Uani 1 1 d . . .
C42C_1 C 0.09026(15) 0.67958(14) 0.16975(13) 0.0742(11) Uani 1 1 d . . .
C43C_1 C 0.13805(6) 0.65096(5) 0.15135(5) 0.1124(17) Uani 1 1 d . . .
H12C_1 H 0.1564 0.6195 0.1651 0.135 Uiso 1 1 calc R . .
C44C_1 C 0.15886(6) 0.66917(5) 0.11216(5) 0.1272(19) Uani 1 1 d R . .
H13C_1 H 0.1913 0.6501 0.0999 0.153 Uiso 1 1 d R . .
C45C_1 C 0.13124(6) 0.71595(5) 0.09132(5) 0.1075(16) Uani 1 1 d R . .
C46C_1 C 0.08282(6) 0.74453(5) 0.10966(5) 0.141(2) Uani 1 1 d R . .
H15C_1 H 0.0643 0.7758 0.0957 0.169 Uiso 1 1 d R . .
C47C_1 C 0.06202(6) 0.72632(5) 0.14885(5) 0.1168(18) Uani 1 1 d R . .
H16C_1 H 0.0295 0.7453 0.1609 0.140 Uiso 1 1 d R . .
C48C_1 C 0.15491(6) 0.73641(5) 0.04968(5) 0.1219(18) Uani 1 1 d R . .
C49C_1 C 0.20538(6) 0.71270(5) 0.03495(5) 0.227(4) Uani 1 1 d R . .
H18C_1 H 0.2255 0.6833 0.0506 0.272 Uiso 1 1 d R . .
C50C_1 C 0.22583(6) 0.73287(5) -0.00312(5) 0.206(4) Uani 1 1 d R . .
H19C_1 H 0.2596 0.7170 -0.0130 0.247 Uiso 1 1 d R . .
C51C_1 C 0.19582(6) 0.77676(5) -0.02646(5) 0.1276(19) Uani 1 1 d R . .
C52C_1 C 0.14535(6) 0.80048(5) -0.01173(5) 0.268(6) Uani 1 1 d R . .
H21C_1 H 0.1253 0.8298 -0.0273 0.321 Uiso 1 1 d R . .
C53C_1 C 0.12490(6) 0.78031(5) 0.02634(5) 0.253(5) Uani 1 1 d R . .
H22C_1 H 0.0911 0.7962 0.0362 0.303 Uiso 1 1 d R . .
C54C_1 C 0.21921(6) 0.80094(5) -0.06535(5) 0.1095(16) Uani 1 1 d R . .
C55C_1 C 0.26891(6) 0.77572(5) -0.08232(5) 0.143(2) Uani 1 1 d R . .
H24C_1 H 0.2880 0.7437 -0.0700 0.171 Uiso 1 1 d R . .
C56C_1 C 0.29011(6) 0.79828(5) -0.11771(5) 0.1213(18) Uani 1 1 d R . .
H25C_1 H 0.3234 0.7814 -0.1291 0.146 Uiso 1 1 d R . .
C57C_1 C 0.26162(6) 0.84607(5) -0.13613(5) 0.0849(12) Uani 1 1 d R . .
C58C_1 C 0.21192(6) 0.87129(5) -0.11917(5) 0.133(2) Uani 1 1 d R . .
H27C_1 H 0.1929 0.9033 -0.1315 0.159 Uiso 1 1 d R . .
C59C_1 C 0.19071(6) 0.84872(5) -0.08378(5) 0.142(2) Uani 1 1 d R . .
H28C_1 H 0.1575 0.8656 -0.0724 0.170 Uiso 1 1 d R . .
C60C_1 C 0.28444(19) 0.87145(17) -0.17334(13) 0.0745(12) Uani 1 1 d . . .
C61D_1 C 0.42737(15) 0.87172(17) -0.17268(14) 0.0790(12) Uani 1 1 d . . .
C62D_1 C 0.45793(16) 0.84718(15) -0.13633(14) 0.0870(13) Uani 1 1 d . . .
C63D_1 C 0.46746(6) 0.79970(6) -0.11731(5) 0.132(2) Uani 1 1 d . . .
H12D_1 H 0.4560 0.7829 -0.1278 0.158 Uiso 1 1 calc R . .
C64D_1 C 0.49414(6) 0.77731(6) -0.08260(5) 0.145(2) Uani 1 1 d R . .
H13D_1 H 0.5014 0.7452 -0.0703 0.174 Uiso 1 1 d R . .
C65D_1 C 0.50995(6) 0.80296(6) -0.06623(5) 0.1162(17) Uani 1 1 d R . .
C66D_1 C 0.49909(6) 0.85101(6) -0.08457(5) 0.156(2) Uani 1 1 d R . .
H15D_1 H 0.5097 0.8682 -0.0736 0.188 Uiso 1 1 d R . .
C67D_1 C 0.47241(6) 0.87340(6) -0.11928(5) 0.135(2) Uani 1 1 d R . .
H16D_1 H 0.4643 0.9058 -0.1311 0.162 Uiso 1 1 d R . .
C68D_1 C 0.53721(6) 0.77984(6) -0.02663(5) 0.136(2) Uani 1 1 d R . .
C69D_1 C 0.53961(6) 0.73605(6) -0.00251(5) 0.252(5) Uani 1 1 d R . .
H18D_1 H 0.5254 0.7204 -0.0109 0.302 Uiso 1 1 d R . .
C70D_1 C 0.56319(6) 0.71557(6) 0.03418(5) 0.248(5) Uani 1 1 d R . .
H19D_1 H 0.5648 0.6863 0.0503 0.297 Uiso 1 1 d R . .
C71D_1 C 0.58436(6) 0.73888(6) 0.04675(5) 0.1246(18) Uani 1 1 d R . .
C72D_1 C 0.58196(6) 0.78267(6) 0.02263(5) 0.277(6) Uani 1 1 d R . .
H21D_1 H 0.5961 0.7983 0.0310 0.333 Uiso 1 1 d R . .
C73D_1 C 0.55838(6) 0.80315(6) -0.01406(5) 0.265(5) Uani 1 1 d R . .
H22D_1 H 0.5568 0.8324 -0.0302 0.318 Uiso 1 1 d R . .
C74D_1 C 0.60773(6) 0.71852(6) 0.08758(5) 0.1192(17) Uani 1 1 d R . .
C75D_1 C 0.61718(6) 0.67143(6) 0.10823(5) 0.149(2) Uani 1 1 d R . .
H24D_1 H 0.6103 0.6521 0.0961 0.179 Uiso 1 1 d R . .
C76D_1 C 0.63695(6) 0.65321(6) 0.14699(5) 0.133(2) Uani 1 1 d R . .
H25D_1 H 0.6433 0.6217 0.1608 0.160 Uiso 1 1 d R . .
C77D_1 C 0.64727(6) 0.68206(6) 0.16512(5) 0.0927(14) Uani 1 1 d R . .
C78D_1 C 0.63782(6) 0.72915(6) 0.14448(5) 0.134(2) Uani 1 1 d R . .
H27D_1 H 0.6447 0.7485 0.1566 0.160 Uiso 1 1 d R . .
C79D_1 C 0.61805(6) 0.74738(6) 0.10571(5) 0.145(2) Uani 1 1 d R . .
H28D_1 H 0.6117 0.7789 0.0919 0.174 Uiso 1 1 d R . .
C80D_1 C 0.66549(14) 0.66434(16) 0.20817(14) 0.0747(12) Uani 1 1 d . . .
C81E_1 C 0.59460(16) 0.74126(14) 0.32780(19) 0.0814(14) Uani 1 1 d . . .
C82E_1 C 0.54689(15) 0.78952(14) 0.33098(16) 0.0940(14) Uani 1 1 d . . .
C83E_1 C 0.50722(5) 0.79270(5) 0.36334(5) 0.1252(19) Uani 1 1 d . . .
H12E_1 H 0.5093 0.7656 0.3839 0.150 Uiso 1 1 calc R . .
C84E_1 C 0.46415(5) 0.83705(5) 0.36471(5) 0.150(2) Uani 1 1 d R . .
H13E_1 H 0.4374 0.8399 0.3866 0.180 Uiso 1 1 d R . .
C85E_1 C 0.46108(5) 0.87717(5) 0.33339(5) 0.128(2) Uani 1 1 d R . .
C86E_1 C 0.50108(5) 0.87295(5) 0.30069(5) 0.155(3) Uani 1 1 d R . .
H15E_1 H 0.4990 0.8998 0.2797 0.186 Uiso 1 1 d R . .
C87E_1 C 0.54414(5) 0.82860(5) 0.29931(5) 0.134(2) Uani 1 1 d R . .
H16E_1 H 0.5709 0.8256 0.2774 0.160 Uiso 1 1 d R . .
C88E_1 C 0.41360(5) 0.92523(5) 0.33383(5) 0.145(2) Uani 1 1 d R . .
C89E_1 C 0.37037(5) 0.92627(5) 0.35925(5) 0.293(6) Uani 1 1 d R . .
H18E_1 H 0.3709 0.8978 0.3765 0.351 Uiso 1 1 d R . .
C90E_1 C 0.32641(5) 0.96979(5) 0.35887(5) 0.309(7) Uani 1 1 d R . .
H19E_1 H 0.2975 0.9705 0.3759 0.371 Uiso 1 1 d R . .
C91E_1 C 0.32570(5) 1.01228(5) 0.33309(5) 0.145(2) Uani 1 1 d R . .
C92E_1 C 0.36893(5) 1.01124(5) 0.30768(5) 0.307(6) Uani 1 1 d R . .
H21E_1 H 0.3685 1.0397 0.2904 0.368 Uiso 1 1 d R . .
C93E_1 C 0.41289(5) 0.96772(5) 0.30805(5) 0.262(5) Uani 1 1 d R . .
H22E_1 H 0.4418 0.9670 0.2910 0.314 Uiso 1 1 d R . .
C94E_1 C 0.27792(5) 1.06031(5) 0.33418(5) 0.1265(19) Uani 1 1 d R . .
C95E_1 C 0.23721(5) 1.06414(5) 0.36581(5) 0.148(2) Uani 1 1 d R . .
H24E_1 H 0.2397 1.0380 0.3878 0.177 Uiso 1 1 d R . .
C96E_1 C 0.19279(5) 1.10712(5) 0.36464(5) 0.1161(17) Uani 1 1 d R . .
H25E_1 H 0.1656 1.1097 0.3858 0.139 Uiso 1 1 d R . .
C97E_1 C 0.18909(5) 1.14627(5) 0.33184(5) 0.0852(13) Uani 1 1 d R . .
C98E_1 C 0.22981(5) 1.14243(5) 0.30020(5) 0.135(2) Uani 1 1 d R . .
H27E_1 H 0.2273 1.1686 0.2783 0.162 Uiso 1 1 d R . .
C99E_1 C 0.27422(5) 1.09945(5) 0.30137(5) 0.149(2) Uani 1 1 d R . .
H28E_1 H 0.3015 1.0969 0.2802 0.178 Uiso 1 1 d R . .
C100_1 C 0.14113(16) 1.19319(14) 0.33114(17) 0.0740(12) Uani 1 1 d . . .
C101_1 C 0.2826(2) 1.01372(14) -0.16688(12) 0.0730(12) Uani 1 1 d . . .
C102_1 C 0.25675(16) 1.04726(14) -0.13165(12) 0.0759(11) Uani 1 1 d . . .
C103_1 C 0.28317(6) 1.06121(5) -0.11507(4) 0.0978(14) Uani 1 1 d . . .
H12F_1 H 0.3162 1.0517 -0.1266 0.117 Uiso 1 1 calc R . .
C104_1 C 0.26051(6) 1.08950(5) -0.08108(4) 0.1134(17) Uani 1 1 d R . .
H13F_1 H 0.2784 1.0989 -0.0698 0.136 Uiso 1 1 d R . .
C105_1 C 0.21107(6) 1.10372(5) -0.06394(4) 0.1022(15) Uani 1 1 d R . .
C106_1 C 0.18429(6) 1.08964(5) -0.08080(4) 0.1154(17) Uani 1 1 d R . .
H15F_1 H 0.1512 1.0992 -0.0693 0.138 Uiso 1 1 d R . .
C107_1 C 0.20695(6) 1.06134(5) -0.11480(4) 0.1004(15) Uani 1 1 d R . .
H16F_1 H 0.1892 1.0521 -0.1264 0.120 Uiso 1 1 d R . .
C108_1 C 0.18554(6) 1.13399(5) -0.02599(4) 0.1210(18) Uani 1 1 d R . .
C109_1 C 0.21292(6) 1.14725(5) -0.00902(4) 0.329(7) Uani 1 1 d R . .
H18F_1 H 0.2446 1.1412 -0.0230 0.395 Uiso 1 1 d R . .
C110_1 C 0.19289(6) 1.16952(5) 0.02878(4) 0.329(7) Uani 1 1 d R . .
H19F_1 H 0.2112 1.1784 0.0401 0.395 Uiso 1 1 d R . .
C111_1 C 0.14547(6) 1.17854(5) 0.04962(4) 0.1282(19) Uani 1 1 d R . .
C112_1 C 0.11808(6) 1.16528(5) 0.03265(4) 0.297(6) Uani 1 1 d R . .
H21F_1 H 0.0864 1.1713 0.0466 0.356 Uiso 1 1 d R . .
C113_1 C 0.13812(6) 1.14301(5) -0.00515(4) 0.321(7) Uani 1 1 d R . .
H22F_1 H 0.1198 1.1341 -0.0165 0.386 Uiso 1 1 d R . .
C114_1 C 0.12286(6) 1.20173(5) 0.09159(4) 0.1117(16) Uani 1 1 d R . .
C115_1 C 0.15094(6) 1.21298(5) 0.10979(4) 0.133(2) Uani 1 1 d R . .
H24F_1 H 0.1828 1.2068 0.0961 0.159 Uiso 1 1 d R . .
C116_1 C 0.13145(6) 1.23352(5) 0.14852(4) 0.1196(18) Uani 1 1 d R . .
H25F_1 H 0.1502 1.2410 0.1607 0.143 Uiso 1 1 d R . .
C117_1 C 0.08387(6) 1.24282(5) 0.16905(4) 0.0899(13) Uani 1 1 d R . .
C118_1 C 0.05578(6) 1.23158(5) 0.15085(4) 0.1175(18) Uani 1 1 d R . .
H27F_1 H 0.0240 1.2378 0.1646 0.141 Uiso 1 1 d R . .
C119_1 C 0.07528(6) 1.21103(5) 0.11212(4) 0.137(2) Uani 1 1 d R . .
H28F_1 H 0.0565 1.2035 0.0999 0.165 Uiso 1 1 d R . .
C120_1 C 0.0641(2) 1.26164(13) 0.21187(13) 0.0726(12) Uani 1 1 d . . .
N1_1 N 0.14506(10) 0.51682(10) 0.25214(11) 0.0698(9) Uani 1 1 d . . .
C121_1 C 0.18465(2) 0.48335(2) 0.27313(2) 0.0915(13) Uani 1 1 d . . .
H111_1 H 0.1853 0.4859 0.3014 0.110 Uiso 1 1 calc R . .
C122_1 C 0.22356(2) 0.44574(2) 0.25132(2) 0.131(2) Uani 1 1 d R . .
H112_1 H 0.2505 0.4227 0.2651 0.157 Uiso 1 1 d R . .
C123_1 C 0.22223(2) 0.44253(2) 0.20894(2) 0.143(2) Uani 1 1 d R . .
H113_1 H 0.2483 0.4174 0.1943 0.172 Uiso 1 1 d R . .
C124_1 C 0.18201(2) 0.47693(2) 0.18837(2) 0.133(2) Uani 1 1 d R . .
H114_1 H 0.1811 0.4748 0.1600 0.160 Uiso 1 1 d R . .
C125_1 C 0.14311(2) 0.51454(2) 0.21019(2) 0.0910(13) Uani 1 1 d R . .
H115_1 H 0.1162 0.5378 0.1966 0.109 Uiso 1 1 d R . .
N2_1 N -0.07747(2) 0.74476(2) 0.25005(2) 0.0661(8) Uani 1 1 d R . .
C126_1 C -0.07710(2) 0.74569(2) 0.20607(2) 0.0870(13) Uani 1 1 d R . .
H121_1 H -0.0518 0.7205 0.1910 0.104 Uiso 1 1 d R . .
C127_1 C -0.11454(2) 0.78428(2) 0.18456(2) 0.1100(16) Uani 1 1 d R . .
H122_1 H -0.1143 0.7849 0.1551 0.132 Uiso 1 1 d R . .
C128_1 C -0.15236(2) 0.82194(2) 0.20702(2) 0.1121(17) Uani 1 1 d R . .
H123_1 H -0.1774 0.8478 0.1926 0.135 Uiso 1 1 d R . .
C129_1 C -0.15273(2) 0.82101(2) 0.25099(2) 0.1047(16) Uani 1 1 d R . .
H124_1 H -0.1780 0.8462 0.2660 0.126 Uiso 1 1 d R . .
C130_1 C -0.11528(2) 0.78242(2) 0.27251(2) 0.0795(12) Uani 1 1 d R . .
H125_1 H -0.1155 0.7818 0.3019 0.095 Uiso 1 1 d R . .
N3_1 N 0.03789(2) 0.64305(2) 0.43946(2) 0.0684(8) Uani 1 1 d R . .
C131_1 C 0.00168(2) 0.68402(2) 0.45875(2) 0.0819(12) Uani 1 1 d R . .
H131_1 H -0.0243 0.7077 0.4442 0.098 Uiso 1 1 d R . .
C132_1 C 0.00433(2) 0.68964(2) 0.49981(2) 0.1109(16) Uani 1 1 d R . .
H132_1 H -0.0199 0.7171 0.5127 0.133 Uiso 1 1 d R . .
C133_1 C 0.04318(2) 0.65428(2) 0.52159(2) 0.130(2) Uani 1 1 d R . .
H133_1 H 0.0450 0.6580 0.5491 0.156 Uiso 1 1 d R . .
C134_1 C 0.07939(2) 0.61331(2) 0.50231(2) 0.142(2) Uani 1 1 d R . .
H134_1 H 0.1054 0.5896 0.5169 0.170 Uiso 1 1 d R . .
C135_1 C 0.07674(2) 0.60769(2) 0.46125(2) 0.0952(14) Uani 1 1 d R . .
H135_1 H 0.1010 0.5803 0.4483 0.114 Uiso 1 1 d R . .
N4_1 N 0.14534(2) 1.30813(2) 0.24693(2) 0.0859(10) Uani 1 1 d R . .
C136_1 C 0.14226(2) 1.33361(2) 0.20464(2) 0.1103(16) Uani 1 1 d R . .
H211_1 H 0.1148 1.3435 0.1918 0.132 Uiso 1 1 d R . .
C137_1 C 0.18015(2) 1.34437(2) 0.18152(2) 0.155(2) Uani 1 1 d R . .
H212_1 H 0.1781 1.3614 0.1532 0.186 Uiso 1 1 d R . .
C138_1 C 0.22112(2) 1.32966(2) 0.20070(2) 0.175(3) Uani 1 1 d R . .
H213_1 H 0.2465 1.3369 0.1852 0.211 Uiso 1 1 d R . .
C139_1 C 0.22421(2) 1.30418(2) 0.24299(2) 0.158(3) Uani 1 1 d R . .
H214_1 H 0.2516 1.2943 0.2558 0.189 Uiso 1 1 d R . .
C140_1 C 0.18632(2) 1.29341(2) 0.26611(2) 0.1134(17) Uani 1 1 d R . .
H215_1 H 0.1884 1.2764 0.2944 0.136 Uiso 1 1 d R . .
N5_1 N 0.04200(2) 1.20377(2) 0.43983(2) 0.0733(9) Uani 1 1 d R . .
C141_1 C 0.08336(2) 1.18918(2) 0.45839(2) 0.0980(14) Uani 1 1 d R . .
H221_1 H 0.1085 1.1966 0.4426 0.118 Uiso 1 1 d R . .
C142_1 C 0.08717(2) 1.16355(2) 0.50060(2) 0.144(2) Uani 1 1 d R . .
H222_1 H 0.1148 1.1538 0.5130 0.173 Uiso 1 1 d R . .
C143_1 C 0.04962(2) 1.15252(2) 0.52425(2) 0.173(3) Uani 1 1 d R . .
H223_1 H 0.0522 1.1354 0.5525 0.208 Uiso 1 1 d R . .
C144_1 C 0.00826(2) 1.16711(2) 0.50570(2) 0.167(3) Uani 1 1 d R . .
H224_1 H -0.0169 1.1597 0.5215 0.200 Uiso 1 1 d R . .
C145_1 C 0.00445(2) 1.19273(2) 0.46349(2) 0.1143(17) Uani 1 1 d R . .
H225_1 H -0.0232 1.2025 0.4511 0.137 Uiso 1 1 d R . .
N6_1 N -0.08020(2) 1.30600(2) 0.25341(2) 0.0805(10) Uani 1 1 d R . .
C146_1 C -0.11521(2) 1.29055(2) 0.27515(2) 0.1018(15) Uani 1 1 d R . .
H231_1 H -0.1137 1.2747 0.3039 0.122 Uiso 1 1 d R . .
C147_1 C -0.15253(2) 1.29873(2) 0.25394(2) 0.146(2) Uani 1 1 d R . .
H232_1 H -0.1760 1.2884 0.2685 0.175 Uiso 1 1 d R . .
C148_1 C -0.15484(2) 1.32237(2) 0.21099(2) 0.160(3) Uani 1 1 d R . .
H233_1 H -0.1798 1.3278 0.1968 0.192 Uiso 1 1 d R . .
C149_1 C -0.11983(2) 1.33782(2) 0.18925(2) 0.153(3) Uani 1 1 d R . .
H234_1 H -0.1214 1.3536 0.1605 0.184 Uiso 1 1 d R . .
C150_1 C -0.08251(2) 1.32963(2) 0.21046(2) 0.1103(16) Uani 1 1 d R . .
H235_1 H -0.0591 1.3400 0.1959 0.132 Uiso 1 1 d R . .
N7_1 N 0.41626(2) 0.78398(2) -0.23534(2) 0.1181(14) Uani 1 1 d R . .
C151_1 C 0.39114(2) 0.75876(2) -0.23627(2) 0.163(3) Uani 1 1 d R . .
H311_1 H 0.3573 0.7755 -0.2362 0.196 Uiso 1 1 d R . .
C152_1 C 0.41667(2) 0.70848(2) -0.23725(2) 0.292(6) Uani 1 1 d R . .
H312_1 H 0.3999 0.6916 -0.2379 0.350 Uiso 1 1 d R . .
C153_1 C 0.46733(2) 0.68341(2) -0.23730(2) 0.273(5) Uani 1 1 d R . .
H313_1 H 0.4844 0.6498 -0.2380 0.328 Uiso 1 1 d R . .
C154_1 C 0.49245(2) 0.70863(2) -0.23637(2) 0.320(7) Uani 1 1 d R . .
H314_1 H 0.5263 0.6919 -0.2364 0.385 Uiso 1 1 d R . .
C155_1 C 0.46692(2) 0.75892(2) -0.23539(2) 0.186(3) Uani 1 1 d R . .
H315_1 H 0.4837 0.7758 -0.2348 0.224 Uiso 1 1 d R . .
N8_1 N 0.41368(2) 1.00564(2) -0.22319(2) 0.0861(10) Uani 1 1 d R . .
C156_1 C 0.46415(2) 0.98069(2) -0.22224(2) 0.1176(17) Uani 1 1 d R . .
H321_1 H 0.4821 0.9479 -0.2263 0.141 Uiso 1 1 d R . .
C157_1 C 0.48777(2) 1.00479(2) -0.21525(2) 0.158(3) Uani 1 1 d R . .
H322_1 H 0.5215 0.9881 -0.2146 0.190 Uiso 1 1 d R . .
C158_1 C 0.46093(2) 1.05385(2) -0.20921(2) 0.155(3) Uani 1 1 d R . .
H323_1 H 0.4767 1.0700 -0.2045 0.186 Uiso 1 1 d R . .
C159_1 C 0.41047(2) 1.07880(2) -0.21015(2) 0.143(2) Uani 1 1 d R . .
H324_1 H 0.3925 1.1116 -0.2061 0.172 Uiso 1 1 d R . .
C160_1 C 0.38684(2) 1.05469(2) -0.21714(2) 0.1093(16) Uani 1 1 d R . .
H325_1 H 0.3531 1.0714 -0.2178 0.131 Uiso 1 1 d R . .
N9_1 N 0.18986(2) 1.00373(2) -0.22457(2) 0.0870(10) Uani 1 1 d R . .
C161_1 C 0.16380(2) 1.05270(2) -0.21824(2) 0.1025(15) Uani 1 1 d R . .
H331_1 H 0.1807 1.0696 -0.2178 0.123 Uiso 1 1 d R . .
C162_1 C 0.11254(2) 1.07644(2) -0.21261(2) 0.140(2) Uani 1 1 d R . .
H332_1 H 0.0951 1.1092 -0.2084 0.168 Uiso 1 1 d R . .
C163_1 C 0.08735(2) 1.05121(2) -0.21332(2) 0.150(2) Uani 1 1 d R . .
H333_1 H 0.0531 1.0671 -0.2096 0.180 Uiso 1 1 d R . .
C164_1 C 0.11341(2) 1.00224(2) -0.21965(2) 0.143(2) Uani 1 1 d R . .
H334_1 H 0.0966 0.9854 -0.2201 0.172 Uiso 1 1 d R . .
C165_1 C 0.16466(2) 0.97850(2) -0.22528(2) 0.1123(16) Uani 1 1 d R . .
H335_1 H 0.1821 0.9457 -0.2295 0.135 Uiso 1 1 d R . .
N10_1 N 0.60119(2) 0.64007(2) 0.43663(2) 0.1007(12) Uani 1 1 d R . .
C166_1 C 0.58751(2) 0.60361(2) 0.45665(2) 0.145(2) Uani 1 1 d R . .
H411_1 H 0.5983 0.5766 0.4427 0.175 Uiso 1 1 d R . .
C167_1 C 0.55775(2) 0.60746(2) 0.49749(2) 0.222(4) Uani 1 1 d R . .
H412_1 H 0.5486 0.5831 0.5109 0.266 Uiso 1 1 d R . .
C168_1 C 0.54167(2) 0.64776(2) 0.51832(2) 0.248(5) Uani 1 1 d R . .
H413_1 H 0.5218 0.6503 0.5456 0.298 Uiso 1 1 d R . .
C169_1 C 0.55535(2) 0.68421(2) 0.49830(2) 0.258(5) Uani 1 1 d R . .
H414_1 H 0.5446 0.7112 0.5122 0.309 Uiso 1 1 d R . .
C170_1 C 0.58511(2) 0.68037(2) 0.45746(2) 0.158(2) Uani 1 1 d R . .
H415_1 H 0.5943 0.7048 0.4441 0.189 Uiso 1 1 d R . .
N11_1 N 0.71048(2) 0.74541(2) 0.24611(2) 0.0779(10) Uani 1 1 d R . .
C171_1 C 0.69942(2) 0.78282(2) 0.26878(2) 0.0890(13) Uani 1 1 d R . .
H421_1 H 0.6851 0.7821 0.2982 0.107 Uiso 1 1 d R . .
C172_1 C 0.70969(2) 0.82124(2) 0.24752(2) 0.1231(19) Uani 1 1 d R . .
H422_1 H 0.7023 0.8463 0.2627 0.148 Uiso 1 1 d R . .
C173_1 C 0.73103(2) 0.82225(2) 0.20358(2) 0.126(2) Uani 1 1 d R . .
H423_1 H 0.7379 0.8480 0.1894 0.151 Uiso 1 1 d R . .
C174_1 C 0.74209(2) 0.78484(2) 0.18091(2) 0.1235(18) Uani 1 1 d R . .
H424_1 H 0.7564 0.7855 0.1515 0.148 Uiso 1 1 d R . .
C175_1 C 0.73182(2) 0.74642(2) 0.20217(2) 0.1038(16) Uani 1 1 d R . .
H425_1 H 0.7392 0.7214 0.1870 0.125 Uiso 1 1 d R . .
N12_1 N 0.71343(2) 0.51945(2) 0.24755(2) 0.0832(10) Uani 1 1 d R . .
C176_1 C 0.73883(2) 0.51645(2) 0.20487(2) 0.1048(15) Uani 1 1 d R . .
H431_1 H 0.7492 0.5398 0.1907 0.126 Uiso 1 1 d R . .
C177_1 C 0.74870(2) 0.47858(2) 0.18340(2) 0.154(2) Uani 1 1 d R . .
H432_1 H 0.7657 0.4766 0.1548 0.185 Uiso 1 1 d R . .
C178_1 C 0.73316(2) 0.44370(2) 0.20460(2) 0.171(3) Uani 1 1 d R . .
H433_1 H 0.7398 0.4184 0.1902 0.205 Uiso 1 1 d R . .
C179_1 C 0.70776(2) 0.44670(2) 0.24728(2) 0.149(2) Uani 1 1 d R . .
H434_1 H 0.6974 0.4234 0.2615 0.178 Uiso 1 1 d R . .
C180_1 C 0.69790(2) 0.48458(2) 0.26875(2) 0.1058(16) Uani 1 1 d R . .
H435_1 H 0.6809 0.4866 0.2973 0.127 Uiso 1 1 d R . .

loop_
_atom_site_aniso_label
_atom_site_aniso_U_11
_atom_site_aniso_U_22
_atom_site_aniso_U_33
_atom_site_aniso_U_23
_atom_site_aniso_U_13
_atom_site_aniso_U_12
Fe11_1 0.0458(3) 0.0389(3) 0.0721(4) -0.0098(2) -0.0080(3) -0.0209(2)
Fe12_1 0.0487(3) 0.0378(3) 0.0728(4) -0.0080(2) -0.0143(3) -0.0200(2)
Fe13_1 0.0503(3) 0.0418(3) 0.0691(3) -0.0089(2) -0.0126(3) -0.0233(2)
Fe21_1 0.0642(3) 0.0346(3) 0.0802(4) -0.0189(3) -0.0098(3) -0.0137(3)
Fe22_1 0.0598(3) 0.0303(3) 0.0763(4) -0.0158(2) -0.0177(3) -0.0098(2)
Fe23_1 0.0657(3) 0.0319(3) 0.0778(4) -0.0164(3) -0.0219(3) -0.0108(2)
Fe31_1 0.0937(4) 0.0434(3) 0.0668(4) -0.0104(3) -0.0078(3) -0.0201(3)
Fe32_1 0.0742(4) 0.0465(3) 0.0665(4) -0.0025(3) -0.0123(3) -0.0211(3)
Fe33_1 0.0800(4) 0.0447(3) 0.0615(4) -0.0038(3) -0.0171(3) -0.0241(3)
Fe41_1 0.0452(3) 0.0488(3) 0.1038(5) -0.0082(3) -0.0244(3) -0.0141(3)
Fe42_1 0.0436(3) 0.0389(3) 0.1069(4) -0.0089(3) -0.0241(3) -0.0112(2)
Fe43_1 0.0459(3) 0.0408(3) 0.1068(4) -0.0090(3) -0.0290(3) -0.0131(2)
S112_1 0.0623(6) 0.0552(6) 0.0937(9) -0.0255(6) -0.0200(6) -0.0233(5)
S113_1 0.1002(9) 0.0407(6) 0.0842(9) -0.0014(6) -0.0197(7) -0.0239(6)
S123_1 0.0497(6) 0.0741(7) 0.0797(8) -0.0114(6) -0.0090(6) -0.0203(6)
S212_1 0.1003(9) 0.0725(8) 0.0945(10) -0.0161(7) -0.0292(7) -0.0457(7)
S213_1 0.0846(8) 0.0363(5) 0.0977(9) -0.0028(6) -0.0225(7) -0.0161(6)
S223_1 0.0617(7) 0.0863(8) 0.0911(10) -0.0208(7) -0.0146(7) -0.0187(7)
S312_1 0.0990(11) 0.0780(9) 0.1179(12) -0.0235(8) 0.0258(9) -0.0241(9)
S313_1 0.1544(14) 0.0784(9) 0.0969(11) -0.0234(8) -0.0421(10) -0.0472(10)
S323_1 0.0899(8) 0.0528(6) 0.0982(9) 0.0158(7) -0.0324(7) -0.0313(7)
S412_1 0.0799(8) 0.0763(8) 0.1221(11) -0.0207(7) -0.0264(8) -0.0403(7)
S413_1 0.0785(8) 0.0500(7) 0.1218(11) 0.0034(7) -0.0274(8) -0.0176(6)
S423_1 0.0532(6) 0.0560(7) 0.1247(11) -0.0210(7) -0.0135(7) -0.0197(6)
O1_1 0.0406(12) 0.0346(12) 0.0688(15) -0.0072(10) -0.0130(11) -0.0159(10)
O2_1 0.0436(13) 0.0595(15) 0.0723(18) -0.0012(13) -0.0162(12) -0.0210(12)
O3_1 0.0617(18) 0.151(3) 0.101(2) 0.0022(19) 0.0007(16) -0.061(2)
O4_1 0.107(2) 0.068(2) 0.135(3) -0.0462(18) -0.020(2) 0.0057(17)
O5_1 0.0610(16) 0.0789(17) 0.0662(16) -0.0077(13) -0.0102(13) -0.0346(14)
O6_1 0.0907(18) 0.0405(14) 0.0690(16) -0.0032(12) -0.0098(14) -0.0278(14)
O7_1 0.130(3) 0.098(2) 0.156(3) -0.035(2) -0.085(2) 0.008(2)
O8_1 0.202(4) 0.077(2) 0.106(2) -0.0142(18) 0.031(2) -0.083(2)
O9_1 0.0761(17) 0.0310(12) 0.0711(18) -0.0009(12) -0.0032(13) -0.0190(12)
O10_1 0.0593(15) 0.0459(14) 0.0939(18) -0.0210(13) -0.0236(14) -0.0209(12)
O11_1 0.110(2) 0.104(2) 0.075(2) -0.0239(17) -0.0147(18) -0.0260(19)
O12_1 0.0767(19) 0.0778(19) 0.178(3) -0.0357(19) -0.0353(19) -0.0424(17)
O13_1 0.0601(15) 0.0514(14) 0.1004(19) -0.0248(13) -0.0271(13) -0.0220(12)
O14_1 0.0721(16) 0.0350(13) 0.0848(18) -0.0101(12) -0.0255(14) -0.0247(12)
O15_1 0.0836(18) 0.0459(15) 0.091(2) -0.0088(14) -0.0259(15) -0.0356(14)
O16_1 0.0477(15) 0.0752(18) 0.0881(19) -0.0248(15) -0.0095(14) -0.0291(14)
O17_1 0.0460(15) 0.0717(17) 0.094(2) -0.0215(15) -0.0061(14) -0.0305(13)
O18_1 0.0609(16) 0.0528(16) 0.0715(17) -0.0042(13) 0.0032(13) -0.0252(14)
O19_1 0.0620(17) 0.0526(15) 0.0805(18) -0.0037(13) -0.0043(14) -0.0254(14)
O20_1 0.0633(15) 0.0291(12) 0.0714(16) -0.0190(11) -0.0144(12) -0.0093(11)
O21_1 0.0866(18) 0.0607(16) 0.081(2) -0.0245(14) -0.0134(15) -0.0387(14)
O22_1 0.220(4) 0.125(3) 0.109(2) -0.053(2) -0.003(2) -0.120(3)
O23_1 0.120(3) 0.136(3) 0.171(3) 0.028(2) -0.080(3) -0.060(3)
O24_1 0.0779(17) 0.0589(15) 0.0748(17) -0.0184(13) -0.0135(14) -0.0331(14)
O25_1 0.0516(15) 0.0769(17) 0.0723(17) -0.0246(14) -0.0146(13) -0.0058(13)
O26_1 0.137(3) 0.171(4) 0.144(3) 0.036(3) -0.042(2) -0.107(3)
O27_1 0.081(2) 0.150(3) 0.123(3) -0.075(2) -0.0190(19) 0.023(2)
O28_1 0.0568(15) 0.0673(16) 0.0742(19) -0.0289(14) -0.0096(13) -0.0079(13)
O29_1 0.0701(17) 0.0348(13) 0.111(2) -0.0036(13) -0.0269(15) -0.0139(13)
O30_1 0.121(3) 0.106(2) 0.086(2) -0.0008(18) -0.0212(19) -0.039(2)
O31_1 0.111(2) 0.0296(14) 0.162(3) -0.0115(16) -0.031(2) -0.0126(15)
O32_1 0.0748(17) 0.0346(13) 0.113(2) -0.0031(13) -0.0311(16) -0.0172(13)
O33_1 0.0625(17) 0.0401(15) 0.109(2) -0.0132(15) -0.0132(15) -0.0047(13)
O34_1 0.0568(17) 0.0377(14) 0.097(2) -0.0133(14) -0.0125(15) 0.0023(13)
O35_1 0.104(2) 0.0404(14) 0.0838(19) -0.0103(13) -0.0270(16) -0.0352(14)
O36_1 0.0929(19) 0.0318(13) 0.098(2) -0.0057(14) -0.0416(16) -0.0210(14)
O37_1 0.087(2) 0.0653(18) 0.079(2) -0.0323(15) -0.0082(17) -0.0241(17)
O38_1 0.095(2) 0.0624(17) 0.0768(19) -0.0292(14) -0.0171(16) -0.0261(16)
O39_1 0.0680(15) 0.0436(13) 0.0610(15) -0.0112(11) -0.0128(12) -0.0151(12)
O40_1 0.113(2) 0.0620(18) 0.096(2) -0.0258(15) 0.0277(18) -0.0299(18)
O41_1 0.191(4) 0.135(3) 0.148(3) -0.057(3) 0.081(3) -0.083(3)
O42_1 0.096(3) 0.090(3) 0.247(5) -0.017(3) -0.026(3) -0.005(2)
O43_1 0.086(2) 0.0699(18) 0.0845(19) -0.0088(15) 0.0179(15) -0.0250(16)
O44_1 0.0793(18) 0.0521(15) 0.0843(18) 0.0143(13) -0.0217(15) -0.0246(14)
O45_1 0.099(2) 0.0534(17) 0.187(3) -0.041(2) -0.032(2) -0.0204(17)
O46_1 0.144(3) 0.111(2) 0.125(3) 0.067(2) -0.061(2) -0.074(2)
O47_1 0.0933(19) 0.0556(15) 0.0794(18) 0.0102(13) -0.0324(15) -0.0346(15)
O48_1 0.121(2) 0.0606(17) 0.0764(18) -0.0124(14) -0.0355(16) -0.0337(16)
O49_1 0.192(4) 0.107(3) 0.193(4) -0.020(3) -0.045(3) -0.091(3)
O50_1 0.217(4) 0.114(3) 0.125(3) -0.047(2) -0.068(3) -0.040(3)
O51_1 0.144(3) 0.0604(18) 0.087(2) -0.0254(15) -0.032(2) -0.0288(19)
O52_1 0.094(2) 0.0500(17) 0.090(2) -0.0018(15) -0.0263(16) -0.0175(15)
O53_1 0.092(2) 0.0530(17) 0.090(2) 0.0123(15) -0.0331(16) -0.0267(15)
O54_1 0.0774(19) 0.0665(17) 0.0673(18) -0.0260(14) 0.0006(15) -0.0272(16)
O55_1 0.0901(19) 0.0579(16) 0.0618(17) -0.0204(13) -0.0156(14) -0.0253(15)
O56_1 0.0892(19) 0.0556(17) 0.0663(18) 0.0120(14) -0.0130(15) -0.0290(15)
O57_1 0.101(2) 0.0556(17) 0.0759(19) 0.0002(14) -0.0044(17) -0.0344(17)
O58_1 0.0384(12) 0.0349(12) 0.1007(18) -0.0050(12) -0.0239(12) -0.0108(10)
O59_1 0.0417(14) 0.0491(15) 0.140(2) -0.0241(15) -0.0066(14) -0.0180(12)
O60_1 0.149(3) 0.110(3) 0.110(3) -0.022(2) -0.013(2) -0.070(2)
O61_1 0.0480(17) 0.076(2) 0.215(3) -0.043(2) -0.0199(19) -0.0154(15)
O62_1 0.0411(14) 0.0478(14) 0.134(2) -0.0270(15) -0.0093(14) -0.0128(12)
O63_1 0.0755(17) 0.0391(14) 0.096(2) 0.0023(14) -0.0311(16) -0.0122(13)
O64_1 0.138(3) 0.074(2) 0.126(3) 0.0034(19) -0.050(2) -0.012(2)
O65_1 0.123(3) 0.098(2) 0.189(3) -0.007(2) 0.000(2) -0.072(2)
O66_1 0.0662(16) 0.0466(15) 0.101(2) -0.0050(14) -0.0245(14) -0.0099(13)
O67_1 0.0805(18) 0.0819(19) 0.098(2) -0.0078(15) -0.0279(15) -0.0408(16)
O68_1 0.152(3) 0.074(2) 0.164(3) -0.048(2) 0.007(2) -0.045(2)
O69_1 0.122(3) 0.162(3) 0.139(3) -0.013(2) -0.061(2) -0.083(2)
O70_1 0.0713(17) 0.0630(17) 0.102(2) -0.0087(15) -0.0202(16) -0.0363(14)
O71_1 0.0777(18) 0.0590(17) 0.109(2) -0.0012(15) -0.0389(16) -0.0276(15)
O72_1 0.0865(19) 0.0513(16) 0.108(2) -0.0043(15) -0.0476(16) -0.0243(15)
O73_1 0.0523(17) 0.0694(19) 0.133(3) -0.0174(17) -0.0261(17) -0.0259(15)
O74_1 0.0543(17) 0.080(2) 0.124(2) -0.0155(18) -0.0213(16) -0.0318(15)
O75_1 0.0509(16) 0.0575(18) 0.131(3) -0.0155(17) -0.0192(16) -0.0056(14)
O76_1 0.0412(16) 0.0442(15) 0.124(2) -0.0068(15) -0.0110(16) -0.0037(13)
C1A_1 0.046(2) 0.063(3) 0.092(3) -0.008(2) -0.026(2) -0.024(2)
C2A_1 0.062(3) 0.114(4) 0.099(3) -0.030(3) -0.011(2) -0.054(3)
C3A_1 0.060(3) 0.177(5) 0.136(4) -0.067(4) 0.004(3) -0.062(3)
C4A_1 0.095(4) 0.217(6) 0.180(5) -0.091(5) -0.009(4) -0.096(4)
C5A_1 0.051(3) 0.190(6) 0.182(6) -0.082(5) 0.001(3) -0.063(3)
C6A_1 0.066(3) 0.226(7) 0.196(6) -0.119(5) 0.020(3) -0.082(4)
C7A_1 0.076(3) 0.169(5) 0.148(5) -0.084(4) 0.014(3) -0.063(4)
C8A_1 0.088(4) 0.220(7) 0.219(7) -0.098(5) -0.009(4) -0.089(5)
C9A_1 0.087(5) 0.562(17) 0.516(15) -0.401(14) 0.072(7) -0.170(8)
C10A_1 0.188(9) 1.20(4) 1.02(4) -0.91(4) 0.220(16) -0.366(18)
C11A_1 0.075(3) 0.221(7) 0.231(7) -0.090(6) -0.017(4) -0.076(4)
C12A_1 0.095(5) 0.339(11) 0.351(11) -0.201(9) 0.027(5) -0.124(6)
C13A_1 0.096(5) 0.372(12) 0.374(11) -0.223(10) 0.024(6) -0.137(7)
C14A_1 0.083(4) 0.205(6) 0.217(7) -0.081(5) -0.012(4) -0.092(4)
C15A_1 0.076(4) 0.263(8) 0.213(7) -0.124(6) 0.016(4) -0.090(5)
C16A_1 0.090(4) 0.207(6) 0.195(6) -0.074(5) -0.022(4) -0.090(4)
C17A_1 0.046(3) 0.111(4) 0.141(4) -0.020(3) -0.017(3) -0.041(3)
C18A_1 0.070(3) 0.168(5) 0.200(6) -0.076(4) -0.018(3) -0.060(3)
C19A_1 0.072(4) 0.218(7) 0.250(7) -0.113(6) 0.004(4) -0.081(4)
C20A_1 0.055(3) 0.063(3) 0.116(4) -0.003(3) -0.027(3) -0.025(2)
C21B_1 0.066(3) 0.043(2) 0.090(3) -0.020(2) -0.018(2) -0.020(2)
C22B_1 0.091(3) 0.047(2) 0.100(3) -0.014(2) -0.020(2) -0.044(2)
C23B_1 0.164(5) 0.046(3) 0.150(4) 0.021(3) -0.092(4) -0.054(3)
C24B_1 0.203(6) 0.062(3) 0.175(5) 0.005(3) -0.118(4) -0.066(3)
C25B_1 0.131(4) 0.045(2) 0.137(4) -0.002(3) -0.044(3) -0.046(3)
C26B_1 0.174(5) 0.073(3) 0.120(4) 0.004(3) -0.068(3) -0.079(3)
C27B_1 0.154(4) 0.062(3) 0.124(4) -0.006(3) -0.056(3) -0.064(3)
C28B_1 0.168(5) 0.061(3) 0.167(5) 0.000(3) -0.069(4) -0.073(3)
C29B_1 0.322(9) 0.061(3) 0.321(9) 0.038(5) -0.226(8) -0.091(5)
C30B_1 0.382(11) 0.082(4) 0.382(11) 0.043(5) -0.292(10) -0.120(6)
C31B_1 0.180(5) 0.054(3) 0.188(5) -0.007(3) -0.089(4) -0.054(3)
C32B_1 0.493(14) 0.085(4) 0.371(11) 0.074(6) -0.326(11) -0.157(7)
C33B_1 0.443(13) 0.083(4) 0.392(11) 0.056(5) -0.316(11) -0.139(6)
C34B_1 0.176(5) 0.057(3) 0.145(4) 0.001(3) -0.072(4) -0.064(3)
C35B_1 0.226(6) 0.057(3) 0.225(6) 0.024(3) -0.148(5) -0.076(4)
C36B_1 0.209(6) 0.063(3) 0.166(5) 0.016(3) -0.112(4) -0.074(4)
C37B_1 0.117(4) 0.048(2) 0.115(4) -0.002(2) -0.038(3) -0.049(3)
C38B_1 0.214(6) 0.059(3) 0.141(4) 0.016(3) -0.096(4) -0.080(3)
C39B_1 0.264(7) 0.071(3) 0.160(5) 0.023(3) -0.117(5) -0.097(4)
C40B_1 0.081(3) 0.044(2) 0.098(3) -0.019(2) -0.033(3) -0.024(2)
C41C_1 0.056(3) 0.056(3) 0.069(3) -0.008(2) -0.007(2) -0.027(2)
C42C_1 0.078(3) 0.071(3) 0.070(3) 0.000(2) 0.000(2) -0.041(2)
C43C_1 0.091(3) 0.075(3) 0.110(4) 0.014(3) 0.030(3) -0.026(3)
C44C_1 0.106(4) 0.097(4) 0.117(4) 0.010(3) 0.027(3) -0.033(3)
C45C_1 0.105(4) 0.097(4) 0.090(4) 0.014(3) -0.005(3) -0.041(3)
C46C_1 0.102(4) 0.098(4) 0.123(4) 0.032(3) 0.013(3) -0.008(3)
C47C_1 0.087(3) 0.085(3) 0.107(4) 0.032(3) 0.006(3) -0.018(3)
C48C_1 0.125(4) 0.099(4) 0.108(4) 0.011(3) 0.017(3) -0.054(4)
C49C_1 0.148(6) 0.147(6) 0.202(7) 0.066(5) 0.071(5) -0.017(5)
C50C_1 0.129(5) 0.149(6) 0.178(6) 0.088(5) 0.038(4) -0.023(4)
C51C_1 0.133(5) 0.093(4) 0.106(4) 0.019(3) 0.016(4) -0.045(4)
C52C_1 0.101(5) 0.211(8) 0.285(9) 0.132(7) 0.044(5) -0.027(5)
C53C_1 0.128(5) 0.171(7) 0.249(8) 0.102(6) 0.068(5) -0.018(5)
C54C_1 0.112(4) 0.097(4) 0.091(4) 0.012(3) 0.010(3) -0.050(3)
C55C_1 0.119(4) 0.079(3) 0.145(5) 0.035(3) 0.030(4) -0.028(3)
C56C_1 0.103(4) 0.078(3) 0.120(4) 0.018(3) 0.021(3) -0.027(3)
C57C_1 0.105(3) 0.067(3) 0.076(3) 0.003(2) -0.015(3) -0.041(3)
C58C_1 0.094(4) 0.085(4) 0.147(5) 0.025(3) 0.012(3) -0.020(3)
C59C_1 0.107(4) 0.090(4) 0.146(5) 0.043(3) 0.013(4) -0.026(3)
C60C_1 0.102(4) 0.072(3) 0.063(3) 0.001(3) -0.015(3) -0.055(3)
C61D_1 0.079(3) 0.061(3) 0.075(3) -0.003(3) -0.016(2) -0.017(3)
C62D_1 0.096(3) 0.061(3) 0.085(3) 0.000(2) -0.033(3) -0.018(2)
C63D_1 0.186(5) 0.061(3) 0.147(5) 0.021(3) -0.097(4) -0.039(3)
C64D_1 0.222(6) 0.076(4) 0.142(5) 0.033(3) -0.115(5) -0.053(4)
C65D_1 0.144(5) 0.091(4) 0.113(4) 0.012(3) -0.069(4) -0.043(3)
C66D_1 0.220(7) 0.107(4) 0.178(6) 0.036(4) -0.126(5) -0.084(5)
C67D_1 0.191(6) 0.101(4) 0.144(5) 0.023(3) -0.102(4) -0.073(4)
C68D_1 0.186(6) 0.100(4) 0.122(5) 0.011(3) -0.083(4) -0.052(4)
C69D_1 0.471(14) 0.151(6) 0.237(8) 0.104(6) -0.285(9) -0.173(8)
C70D_1 0.443(13) 0.171(7) 0.242(8) 0.092(6) -0.268(9) -0.181(8)
C71D_1 0.144(5) 0.097(4) 0.127(5) 0.021(3) -0.076(4) -0.042(4)
C72D_1 0.461(14) 0.200(8) 0.304(10) 0.135(7) -0.310(11) -0.212(9)
C73D_1 0.453(14) 0.202(8) 0.274(9) 0.111(7) -0.281(10) -0.212(9)
C74D_1 0.149(5) 0.099(4) 0.113(4) 0.020(3) -0.073(4) -0.051(4)
C75D_1 0.239(7) 0.097(4) 0.155(5) 0.027(4) -0.134(5) -0.081(4)
C76D_1 0.199(6) 0.072(3) 0.149(5) 0.006(3) -0.115(4) -0.048(4)
C77D_1 0.098(3) 0.069(3) 0.115(4) -0.005(3) -0.055(3) -0.028(3)
C78D_1 0.196(6) 0.097(4) 0.155(5) 0.037(4) -0.110(4) -0.089(4)
C79D_1 0.222(6) 0.108(4) 0.138(5) 0.032(4) -0.115(5) -0.083(4)
C80D_1 0.065(3) 0.058(3) 0.104(4) -0.012(3) -0.040(2) -0.019(2)
C81E_1 0.055(3) 0.036(2) 0.139(5) -0.010(3) -0.034(3) -0.003(2)
C82E_1 0.060(3) 0.051(3) 0.134(4) -0.011(3) -0.025(3) 0.005(2)
C83E_1 0.076(3) 0.066(3) 0.154(5) 0.000(3) 0.010(3) 0.006(3)
C84E_1 0.078(3) 0.082(4) 0.171(5) 0.005(4) 0.025(3) 0.021(3)
C85E_1 0.076(3) 0.056(3) 0.180(5) 0.010(3) -0.015(3) 0.009(3)
C86E_1 0.074(3) 0.064(3) 0.219(6) 0.015(4) 0.024(4) 0.010(3)
C87E_1 0.063(3) 0.063(3) 0.192(6) 0.011(3) -0.001(3) 0.011(3)
C88E_1 0.067(3) 0.069(3) 0.204(6) 0.007(4) -0.008(4) 0.022(3)
C89E_1 0.107(5) 0.107(5) 0.407(13) 0.062(6) 0.068(6) 0.048(4)
C90E_1 0.148(6) 0.107(5) 0.352(11) 0.083(6) 0.072(7) 0.076(5)
C91E_1 0.076(3) 0.067(3) 0.194(6) 0.004(3) -0.015(4) 0.026(3)
C92E_1 0.073(4) 0.080(4) 0.573(17) 0.050(7) 0.021(7) 0.033(4)
C93E_1 0.099(5) 0.070(4) 0.426(12) 0.039(6) 0.037(6) 0.033(4)
C94E_1 0.082(3) 0.069(3) 0.150(5) -0.002(3) -0.004(3) 0.010(3)
C95E_1 0.091(4) 0.078(3) 0.170(5) -0.003(3) 0.000(4) 0.020(3)
C96E_1 0.078(3) 0.063(3) 0.128(4) 0.005(3) -0.006(3) 0.013(2)
C97E_1 0.060(3) 0.046(2) 0.119(4) -0.011(2) -0.013(3) -0.002(2)
C98E_1 0.069(3) 0.073(3) 0.178(5) 0.001(3) 0.012(3) 0.007(3)
C99E_1 0.068(3) 0.064(3) 0.220(6) 0.007(4) 0.009(4) 0.012(3)
C100_1 0.067(3) 0.040(2) 0.106(4) -0.028(3) -0.022(3) -0.007(2)
C101_1 0.108(4) 0.048(2) 0.055(3) -0.014(2) -0.014(3) -0.027(3)
C102_1 0.098(3) 0.063(3) 0.061(3) -0.017(2) -0.011(2) -0.031(2)
C103_1 0.105(4) 0.116(4) 0.088(3) -0.051(3) 0.010(3) -0.058(3)
C104_1 0.135(4) 0.128(4) 0.099(4) -0.055(3) 0.003(3) -0.070(4)
C105_1 0.117(4) 0.094(3) 0.088(3) -0.045(3) -0.008(3) -0.033(3)
C106_1 0.108(4) 0.130(4) 0.099(4) -0.065(3) -0.001(3) -0.034(3)
C107_1 0.094(4) 0.110(4) 0.094(3) -0.056(3) -0.004(3) -0.032(3)
C108_1 0.145(5) 0.149(5) 0.075(3) -0.051(3) 0.001(3) -0.066(4)
C109_1 0.240(9) 0.63(2) 0.279(10) -0.365(13) 0.136(8) -0.273(12)
C110_1 0.220(9) 0.564(18) 0.329(11) -0.378(13) 0.135(8) -0.217(11)
C111_1 0.141(5) 0.118(4) 0.133(5) -0.080(4) -0.006(4) -0.045(4)
C112_1 0.165(7) 0.524(16) 0.264(9) -0.337(11) 0.060(6) -0.125(9)
C113_1 0.171(7) 0.603(19) 0.271(10) -0.348(12) 0.070(7) -0.162(10)
C114_1 0.128(4) 0.112(4) 0.092(4) -0.057(3) 0.004(3) -0.044(4)
C115_1 0.123(4) 0.179(6) 0.114(4) -0.089(4) 0.018(3) -0.070(4)
C116_1 0.128(4) 0.154(5) 0.108(4) -0.082(4) 0.024(3) -0.080(4)
C117_1 0.103(4) 0.073(3) 0.087(3) -0.033(3) -0.013(3) -0.028(3)
C118_1 0.093(4) 0.150(5) 0.114(4) -0.083(4) -0.001(3) -0.039(3)
C119_1 0.116(4) 0.175(6) 0.136(5) -0.098(4) -0.002(4) -0.053(4)
C120_1 0.098(4) 0.044(2) 0.066(3) -0.026(2) -0.023(3) -0.013(3)
N1_1 0.0498(19) 0.0521(19) 0.099(3) -0.0173(18) 0.0018(18) -0.0205(16)
C121_1 0.067(3) 0.055(3) 0.138(4) -0.033(3) -0.020(3) -0.007(2)
C122_1 0.081(3) 0.078(3) 0.186(6) -0.043(4) -0.007(4) 0.003(3)
C123_1 0.093(4) 0.098(4) 0.204(7) -0.076(4) 0.019(4) -0.015(3)
C124_1 0.116(4) 0.112(4) 0.146(5) -0.076(4) 0.029(4) -0.031(4)
C125_1 0.091(3) 0.089(3) 0.090(3) -0.033(3) 0.005(3) -0.039(3)
N2_1 0.0592(19) 0.0392(17) 0.100(2) 0.0076(17) -0.0299(18) -0.0230(15)
C126_1 0.079(3) 0.080(3) 0.090(3) 0.007(3) -0.029(3) -0.029(2)
C127_1 0.113(4) 0.096(4) 0.104(4) 0.012(3) -0.053(3) -0.030(3)
C128_1 0.081(3) 0.066(3) 0.172(5) 0.013(3) -0.050(4) -0.020(3)
C129_1 0.092(3) 0.057(3) 0.138(4) -0.004(3) -0.038(3) -0.010(3)
C130_1 0.070(3) 0.046(2) 0.111(3) -0.005(2) -0.026(2) -0.015(2)
N3_1 0.073(2) 0.064(2) 0.077(2) -0.0145(17) -0.0106(18) -0.0372(18)
C131_1 0.101(3) 0.065(3) 0.080(3) -0.020(2) -0.015(3) -0.035(3)
C132_1 0.142(5) 0.094(4) 0.097(4) -0.040(3) -0.025(3) -0.040(3)
C133_1 0.181(6) 0.132(5) 0.098(4) -0.044(4) -0.029(4) -0.073(5)
C134_1 0.170(6) 0.145(5) 0.110(4) -0.012(4) -0.083(4) -0.048(4)
C135_1 0.093(3) 0.097(3) 0.094(3) -0.025(3) -0.037(3) -0.027(3)
N4_1 0.085(3) 0.061(2) 0.101(3) -0.027(2) 0.008(2) -0.030(2)
C136_1 0.108(4) 0.095(4) 0.122(4) -0.034(3) 0.021(3) -0.053(3)
C137_1 0.155(6) 0.160(6) 0.148(5) -0.022(4) 0.030(5) -0.097(5)
C138_1 0.151(6) 0.163(7) 0.218(8) -0.054(6) 0.057(6) -0.104(6)
C139_1 0.096(4) 0.150(6) 0.251(8) -0.068(5) 0.010(5) -0.074(4)
C140_1 0.091(4) 0.089(4) 0.168(5) -0.038(3) -0.005(3) -0.046(3)
N5_1 0.088(2) 0.0476(18) 0.071(2) -0.0079(16) -0.0282(19) -0.0147(18)
C141_1 0.092(3) 0.074(3) 0.105(4) -0.008(3) -0.038(3) -0.014(3)
C142_1 0.135(5) 0.139(5) 0.104(4) 0.023(4) -0.055(4) -0.025(4)
C143_1 0.174(7) 0.204(7) 0.106(5) 0.035(4) -0.039(5) -0.078(6)
C144_1 0.179(6) 0.229(7) 0.110(5) 0.059(5) -0.050(4) -0.131(6)
C145_1 0.140(5) 0.115(4) 0.090(4) 0.014(3) -0.019(3) -0.073(4)
N6_1 0.084(2) 0.050(2) 0.108(3) -0.0240(19) -0.037(2) -0.0166(18)
C146_1 0.105(4) 0.089(3) 0.131(4) -0.025(3) -0.054(3) -0.040(3)
C147_1 0.123(5) 0.141(5) 0.206(7) -0.042(5) -0.073(5) -0.054(4)
C148_1 0.132(5) 0.127(5) 0.232(8) -0.034(5) -0.106(6) -0.030(4)
C149_1 0.180(6) 0.130(5) 0.155(5) -0.028(4) -0.108(5) -0.035(5)
C150_1 0.113(4) 0.091(4) 0.117(4) -0.028(3) -0.057(3) -0.017(3)
N7_1 0.135(4) 0.060(3) 0.135(3) -0.028(2) -0.008(3) -0.027(2)
C151_1 0.197(7) 0.076(4) 0.180(6) -0.035(4) -0.023(5) -0.032(4)
C152_1 0.281(12) 0.069(5) 0.472(16) -0.059(7) -0.029(11) -0.047(6)
C153_1 0.270(11) 0.055(4) 0.403(13) -0.072(6) -0.040(10) 0.003(5)
C154_1 0.278(11) 0.050(4) 0.564(19) -0.076(7) -0.088(11) 0.000(6)
C155_1 0.163(6) 0.079(4) 0.267(8) -0.043(5) -0.015(6) -0.020(4)
N8_1 0.081(2) 0.069(2) 0.107(3) -0.001(2) -0.020(2) -0.037(2)
C156_1 0.117(4) 0.097(4) 0.149(5) 0.003(3) -0.031(4) -0.061(3)
C157_1 0.138(5) 0.149(6) 0.206(7) 0.016(5) -0.060(5) -0.084(5)
C158_1 0.184(7) 0.183(7) 0.164(6) 0.011(5) -0.048(5) -0.140(6)
C159_1 0.163(6) 0.115(5) 0.190(6) -0.028(4) -0.028(5) -0.090(5)
C160_1 0.127(4) 0.088(4) 0.121(4) -0.021(3) -0.010(3) -0.058(3)
N9_1 0.086(3) 0.080(2) 0.085(2) -0.009(2) -0.022(2) -0.028(2)
C161_1 0.090(3) 0.087(3) 0.112(4) -0.020(3) -0.024(3) -0.021(3)
C162_1 0.084(4) 0.131(5) 0.161(5) -0.022(4) -0.033(4) -0.011(4)
C163_1 0.093(4) 0.166(6) 0.160(5) -0.008(5) -0.048(4) -0.030(4)
C164_1 0.097(4) 0.152(6) 0.184(6) 0.003(5) -0.037(4) -0.065(4)
C165_1 0.120(4) 0.113(4) 0.110(4) 0.004(3) -0.043(3) -0.055(4)
N10_1 0.078(3) 0.090(3) 0.124(3) -0.015(2) -0.015(2) -0.032(2)
C166_1 0.122(5) 0.144(5) 0.175(6) -0.022(5) -0.013(4) -0.070(4)
C167_1 0.191(8) 0.232(9) 0.188(8) -0.050(7) 0.088(6) -0.103(7)
C168_1 0.232(9) 0.282(12) 0.189(8) -0.090(8) 0.109(7) -0.130(9)
C169_1 0.246(10) 0.327(13) 0.179(8) -0.138(8) 0.127(7) -0.146(9)
C170_1 0.138(5) 0.119(5) 0.191(7) -0.026(5) -0.019(5) -0.042(4)
N11_1 0.060(2) 0.0394(18) 0.133(3) -0.003(2) -0.038(2) -0.0152(16)
C171_1 0.086(3) 0.048(2) 0.131(4) 0.003(2) -0.033(3) -0.029(2)
C172_1 0.129(4) 0.044(3) 0.199(6) 0.007(3) -0.049(4) -0.042(3)
C173_1 0.115(4) 0.074(3) 0.186(6) 0.031(4) -0.040(4) -0.057(3)
C174_1 0.126(4) 0.080(4) 0.158(5) 0.015(3) -0.027(4) -0.054(3)
C175_1 0.101(4) 0.088(3) 0.130(4) 0.022(3) -0.040(3) -0.057(3)
N12_1 0.067(2) 0.0476(19) 0.137(3) -0.014(2) -0.040(2) -0.0167(17)
C176_1 0.100(4) 0.073(3) 0.130(4) -0.030(3) -0.026(3) -0.021(3)
C177_1 0.181(6) 0.092(4) 0.193(6) -0.075(4) -0.046(5) -0.034(4)
C178_1 0.189(7) 0.081(4) 0.253(8) -0.081(5) -0.080(6) -0.024(4)
C179_1 0.153(5) 0.087(4) 0.234(7) -0.056(4) -0.056(5) -0.050(4)
C180_1 0.100(4) 0.065(3) 0.170(5) -0.021(3) -0.055(3) -0.034(3)

_geom_special_details            
;
All esds (except the esd in the dihedral angle between two l.s. planes)
are estimated using the full covariance matrix. The cell esds are taken
into account individually in the estimation of esds in distances, angles
and torsion angles; correlations between esds in cell parameters are only
used when they are defined by crystal symmetry. An approximate (isotropic)
treatment of cell esds is used for estimating esds involving l.s. planes.
;

loop_
_geom_bond_atom_site_label_1
_geom_bond_atom_site_label_2
_geom_bond_distance
_geom_bond_site_symmetry_2
_geom_bond_publ_flag
Fe11_1 O1_1 1.9226(19) . ?
Fe11_1 O9_1 1.983(2) . ?
Fe11_1 O10_1 1.983(2) . ?
Fe11_1 O17_1 2.013(2) . ?
Fe11_1 O18_1 2.025(2) . ?
Fe11_1 N1_1 2.229(3) . ?
Fe11_1 Fe13_1 3.3171(7) . ?
Fe11_1 Fe12_1 3.3211(7) . ?
Fe12_1 O1_1 1.9200(19) . ?
Fe12_1 O13_1 1.978(2) . ?
Fe12_1 O2_1 1.983(2) . ?
Fe12_1 O19_1 2.025(2) . ?
Fe12_1 O14_1 2.026(2) . ?
Fe12_1 N2_1 2.1956 . ?
Fe12_1 Fe13_1 3.3262(7) . ?
Fe13_1 O1_1 1.911(2) . ?
Fe13_1 O6_1 1.972(2) . ?
Fe13_1 O5_1 1.978(2) . ?
Fe13_1 O15_1 2.012(2) . ?
Fe13_1 O16_1 2.019(2) . ?
Fe13_1 N3_1 2.1765 . ?
Fe21_1 O20_1 1.908(2) . ?
Fe21_1 O21_1 1.974(2) . ?
Fe21_1 O32_1 1.984(2) . ?
Fe21_1 O33_1 2.009(2) . ?
Fe21_1 O38_1 2.019(3) . ?
Fe21_1 N4_1 2.1917 . ?
Fe21_1 Fe22_1 3.3163(8) . ?
Fe21_1 Fe23_1 3.3204(8) . ?
Fe22_1 O20_1 1.926(2) . ?
Fe22_1 O25_1 1.976(2) . ?
Fe22_1 O24_1 1.986(2) . ?
Fe22_1 O34_1 2.020(3) . ?
Fe22_1 O35_1 2.040(2) . ?
Fe22_1 N5_1 2.1735 . ?
Fe22_1 Fe23_1 3.3171(7) . ?
Fe23_1 O20_1 1.914(2) . ?
Fe23_1 O28_1 1.973(2) . ?
Fe23_1 O29_1 1.988(2) . ?
Fe23_1 O36_1 2.016(2) . ?
Fe23_1 O37_1 2.029(3) . ?
Fe23_1 N6_1 2.1930 . ?
Fe31_1 O39_1 1.914(2) . ?
Fe31_1 O51_1 1.965(3) . ?
Fe31_1 O40_1 1.978(3) . ?
Fe31_1 O57_1 2.008(3) . ?
Fe31_1 O52_1 2.017(3) . ?
Fe31_1 N7_1 2.1846 . ?
Fe31_1 Fe33_1 3.3190(8) . ?
Fe31_1 Fe32_1 3.3204(8) . ?
Fe32_1 O39_1 1.913(2) . ?
Fe32_1 O44_1 1.975(2) . ?
Fe32_1 O43_1 1.980(3) . ?
Fe32_1 O54_1 2.005(3) . ?
Fe32_1 O53_1 2.015(2) . ?
Fe32_1 N8_1 2.1911 . ?
Fe32_1 Fe33_1 3.3184(8) . ?
Fe33_1 O39_1 1.923(2) . ?
Fe33_1 O48_1 1.965(2) . ?
Fe33_1 O47_1 1.975(2) . ?
Fe33_1 O56_1 2.013(2) . ?
Fe33_1 O55_1 2.024(2) . ?
Fe33_1 N9_1 2.1990 . ?
Fe41_1 O58_1 1.912(2) . ?
Fe41_1 O67_1 1.964(2) . ?
Fe41_1 O66_1 1.976(2) . ?
Fe41_1 O74_1 2.020(3) . ?
Fe41_1 O75_1 2.027(3) . ?
Fe41_1 N10_1 2.2118 . ?
Fe41_1 Fe42_1 3.3173(8) . ?
Fe41_1 Fe43_1 3.3217(8) . ?
Fe42_1 O58_1 1.914(2) . ?
Fe42_1 O70_1 1.974(3) . ?
Fe42_1 O59_1 1.979(2) . ?
Fe42_1 O76_1 2.010(3) . ?
Fe42_1 O71_1 2.018(3) . ?
Fe42_1 N11_1 2.1913 . ?
Fe42_1 Fe43_1 3.3163(7) . ?
Fe43_1 O58_1 1.922(2) . ?
Fe43_1 O63_1 1.977(2) . ?
Fe43_1 O62_1 1.978(2) . ?
Fe43_1 O72_1 2.011(3) . ?
Fe43_1 O73_1 2.025(3) . ?
Fe43_1 N12_1 2.1834 . ?
S112_1 O11_1 1.431(3) . ?
S112_1 O12_1 1.456(3) . ?
S112_1 O10_1 1.494(2) . ?
S112_1 O13_1 1.494(2) . ?
S113_1 O8_1 1.441(3) . ?
S113_1 O7_1 1.451(3) . ?
S113_1 O9_1 1.473(2) . ?
S113_1 O6_1 1.497(2) . ?
S123_1 O3_1 1.427(3) . ?
S123_1 O4_1 1.461(3) . ?
S123_1 O2_1 1.482(2) . ?
S123_1 O5_1 1.498(2) . ?
S212_1 O22_1 1.419(3) . ?
S212_1 O23_1 1.456(3) . ?
S212_1 O21_1 1.471(2) . ?
S212_1 O24_1 1.485(2) . ?
S213_1 O30_1 1.439(3) . ?
S213_1 O31_1 1.464(2) . ?
S213_1 O29_1 1.488(2) . ?
S213_1 O32_1 1.489(2) . ?
S223_1 O26_1 1.431(3) . ?
S223_1 O27_1 1.433(3) . ?
S223_1 O28_1 1.482(2) . ?
S223_1 O25_1 1.489(2) . ?
S312_1 O41_1 1.423(4) . ?
S312_1 O42_1 1.438(4) . ?
S312_1 O40_1 1.481(3) . ?
S312_1 O43_1 1.491(3) . ?
S313_1 O50_1 1.436(3) . ?
S313_1 O49_1 1.462(4) . ?
S313_1 O51_1 1.493(3) . ?
S313_1 O48_1 1.495(3) . ?
S323_1 O46_1 1.426(3) . ?
S323_1 O45_1 1.454(3) . ?
S323_1 O47_1 1.499(2) . ?
S323_1 O44_1 1.508(2) . ?
S412_1 O69_1 1.432(3) . ?
S412_1 O68_1 1.446(3) . ?
S412_1 O67_1 1.497(3) . ?
S412_1 O70_1 1.499(3) . ?
S413_1 O64_1 1.446(3) . ?
S413_1 O65_1 1.454(3) . ?
S413_1 O63_1 1.480(3) . ?
S413_1 O66_1 1.507(2) . ?
S423_1 O60_1 1.430(3) . ?
S423_1 O61_1 1.469(3) . ?
S423_1 O62_1 1.487(2) . ?
S423_1 O59_1 1.494(2) . ?
O14_1 C21B_1 1.249(4) . ?
O15_1 C21B_1 1.252(4) . ?
O16_1 C1A_1 1.233(4) . ?
O17_1 C1A_1 1.265(4) . ?
O18_1 C41C_1 1.261(4) . ?
O19_1 C41C_1 1.257(4) . ?
O33_1 C100_1 1.260(5) . ?
O34_1 C100_1 1.242(5) . ?
O35_1 C40B_1 1.243(4) . ?
O36_1 C40B_1 1.234(4) . ?
O37_1 C120_1 1.255(5) . ?
O38_1 C120_1 1.248(5) . ?
O52_1 C61D_1 1.252(5) . ?
O53_1 C61D_1 1.264(4) . ?
O54_1 C101_1 1.262(5) . ?
O55_1 C101_1 1.252(5) . ?
O56_1 C60C_1 1.246(5) . ?
O57_1 C60C_1 1.269(5) . ?
O71_1 C80D_1 1.246(4) . ?
O72_1 C80D_1 1.268(4) . ?
O73_1 C20A_1 1.249(5) . ?
O74_1 C20A_1 1.256(5) . ?
O75_1 C81E_1 1.271(5) . ?
O76_1 C81E_1 1.212(5) . ?
C1A_1 C2A_1 1.503(5) . ?
C2A_1 C3A_1 1.372(4) . ?
C2A_1 C7A_1 1.393(4) . ?
C3A_1 C4A_1 1.3900 . ?
C3A_1 H12A_1 0.9300 . ?
C4A_1 C5A_1 1.3900 . ?
C4A_1 H13A_1 0.9300 . ?
C5A_1 C6A_1 1.3900 . ?
C5A_1 C8A_1 1.5030 . ?
C6A_1 C7A_1 1.3900 . ?
C6A_1 H15A_1 0.9300 . ?
C7A_1 H16A_1 0.9300 . ?
C8A_1 C9A_1 1.3900 . ?
C8A_1 C13A_1 1.3900 . ?
C9A_1 C10A_1 1.3900 . ?
C9A_1 H18A_1 0.9300 . ?
C10A_1 C11A_1 1.3900 . ?
C10A_1 H19A_1 0.9300 . ?
C11A_1 C12A_1 1.3900 . ?
C11A_1 C14A_1 1.5477 . ?
C12A_1 C13A_1 1.3900 . ?
C12A_1 H21A_1 0.9300 . ?
C13A_1 H22A_1 0.9300 . ?
C14A_1 C15A_1 1.3900 . ?
C14A_1 C19A_1 1.3900 . ?
C15A_1 C16A_1 1.3900 . ?
C15A_1 H24A_1 0.9300 . ?
C16A_1 C17A_1 1.3900 . ?
C16A_1 H25A_1 0.9300 . ?
C17A_1 C18A_1 1.3900 . ?
C17A_1 C20A_1 1.464(4) . ?
C18A_1 C19A_1 1.3899 . ?
C18A_1 H27A_1 0.9300 . ?
C19A_1 H28A_1 0.9300 . ?
C21B_1 C22B_1 1.508(5) . ?
C22B_1 C23B_1 1.377(4) . ?
C22B_1 C27B_1 1.390(4) . ?
C23B_1 C24B_1 1.3900 . ?
C23B_1 H12B_1 0.9300 . ?
C24B_1 C25B_1 1.3900 . ?
C24B_1 H13B_1 0.9300 . ?
C25B_1 C26B_1 1.3900 . ?
C25B_1 C28B_1 1.5181 . ?
C26B_1 C27B_1 1.3900 . ?
C26B_1 H15B_1 0.9300 . ?
C27B_1 H16B_1 0.9300 . ?
C28B_1 C29B_1 1.3900 . ?
C28B_1 C33B_1 1.3901 . ?
C29B_1 C30B_1 1.3901 . ?
C29B_1 H18B_1 0.9300 . ?
C30B_1 C31B_1 1.3899 . ?
C30B_1 H19B_1 0.9300 . ?
C31B_1 C32B_1 1.3900 . ?
C31B_1 C34B_1 1.5113 . ?
C32B_1 C33B_1 1.3900 . ?
C32B_1 H21B_1 0.9300 . ?
C33B_1 H22B_1 0.9300 . ?
C34B_1 C35B_1 1.3900 . ?
C34B_1 C39B_1 1.3900 . ?
C35B_1 C36B_1 1.3900 . ?
C35B_1 H24B_1 0.9300 . ?
C36B_1 C37B_1 1.3901 . ?
C36B_1 H25B_1 0.9300 . ?
C37B_1 C38B_1 1.3900 . ?
C37B_1 C40B_1 1.498(4) . ?
C38B_1 C39B_1 1.3901 . ?
C38B_1 H27B_1 0.9300 . ?
C39B_1 H28B_1 0.9300 . ?
C41C_1 C42C_1 1.480(5) . ?
C42C_1 C43C_1 1.378(4) . ?
C42C_1 C47C_1 1.394(4) . ?
C43C_1 C44C_1 1.3900 . ?
C43C_1 H12C_1 0.9300 . ?
C44C_1 C45C_1 1.3900 . ?
C44C_1 H13C_1 0.9300 . ?
C45C_1 C46C_1 1.3900 . ?
C45C_1 C48C_1 1.5159 . ?
C46C_1 C47C_1 1.3900 . ?
C46C_1 H15C_1 0.9299 . ?
C47C_1 H16C_1 0.9300 . ?
C48C_1 C49C_1 1.3900 . ?
C48C_1 C53C_1 1.3900 . ?
C49C_1 C50C_1 1.3900 . ?
C49C_1 H18C_1 0.9300 . ?
C50C_1 C51C_1 1.3900 . ?
C50C_1 H19C_1 0.9300 . ?
C51C_1 C52C_1 1.3900 . ?
C51C_1 C54C_1 1.5181 . ?
C52C_1 C53C_1 1.3900 . ?
C52C_1 H21C_1 0.9300 . ?
C53C_1 H22C_1 0.9300 . ?
C54C_1 C55C_1 1.3900 . ?
C54C_1 C59C_1 1.3901 . ?
C55C_1 C56C_1 1.3899 . ?
C55C_1 H24C_1 0.9300 . ?
C56C_1 C57C_1 1.3900 . ?
C56C_1 H25C_1 0.9300 . ?
C57C_1 C58C_1 1.3899 . ?
C57C_1 C60C_1 1.501(4) . ?
C58C_1 C59C_1 1.3900 . ?
C58C_1 H27C_1 0.9300 . ?
C59C_1 H28C_1 0.9300 . ?
C61D_1 C62D_1 1.503(5) . ?
C62D_1 C67D_1 1.387(5) . ?
C62D_1 C63D_1 1.388(4) . ?
C63D_1 C64D_1 1.3900 . ?
C63D_1 H12D_1 0.9300 . ?
C64D_1 C65D_1 1.3899 . ?
C64D_1 H13D_1 0.9300 . ?
C65D_1 C66D_1 1.3900 . ?
C65D_1 C68D_1 1.5303 . ?
C66D_1 C67D_1 1.3900 . ?
C66D_1 H15D_1 0.9300 . ?
C67D_1 H16D_1 0.9300 . ?
C68D_1 C73D_1 1.3900 . ?
C68D_1 C69D_1 1.3900 . ?
C69D_1 C70D_1 1.3900 . ?
C69D_1 H18D_1 0.9300 . ?
C70D_1 C71D_1 1.3899 . ?
C70D_1 H19D_1 0.9300 . ?
C71D_1 C72D_1 1.3900 . ?
C71D_1 C74D_1 1.5022 . ?
C72D_1 C73D_1 1.3900 . ?
C72D_1 H21D_1 0.9300 . ?
C73D_1 H22D_1 0.9299 . ?
C74D_1 C75D_1 1.3900 . ?
C74D_1 C79D_1 1.3900 . ?
C75D_1 C76D_1 1.3900 . ?
C75D_1 H24D_1 0.9300 . ?
C76D_1 C77D_1 1.3900 . ?
C76D_1 H25D_1 0.9300 . ?
C77D_1 C78D_1 1.3900 . ?
C77D_1 C80D_1 1.493(4) . ?
C78D_1 C79D_1 1.3900 . ?
C78D_1 H27D_1 0.9300 . ?
C79D_1 H28D_1 0.9300 . ?
C81E_1 C82E_1 1.528(5) . ?
C82E_1 C87E_1 1.375(5) . ?
C82E_1 C83E_1 1.383(5) . ?
C83E_1 C84E_1 1.3900 . ?
C83E_1 H12E_1 0.9300 . ?
C84E_1 C85E_1 1.3900 . ?
C84E_1 H13E_1 0.9300 . ?
C85E_1 C86E_1 1.3900 . ?
C85E_1 C88E_1 1.5181 . ?
C86E_1 C87E_1 1.3900 . ?
C86E_1 H15E_1 0.9300 . ?
C87E_1 H16E_1 0.9300 . ?
C88E_1 C89E_1 1.3900 . ?
C88E_1 C93E_1 1.3900 . ?
C89E_1 C90E_1 1.3901 . ?
C89E_1 H18E_1 0.9300 . ?
C90E_1 C91E_1 1.3900 . ?
C90E_1 H19E_1 0.9300 . ?
C91E_1 C92E_1 1.3901 . ?
C91E_1 C94E_1 1.5224 . ?
C92E_1 C93E_1 1.3900 . ?
C92E_1 H21E_1 0.9300 . ?
C93E_1 H22E_1 0.9300 . ?
C94E_1 C95E_1 1.3900 . ?
C94E_1 C99E_1 1.3900 . ?
C95E_1 C96E_1 1.3900 . ?
C95E_1 H24E_1 0.9300 . ?
C96E_1 C97E_1 1.3900 . ?
C96E_1 H25E_1 0.9300 . ?
C97E_1 C98E_1 1.3900 . ?
C97E_1 C100_1 1.508(4) . ?
C98E_1 C99E_1 1.3900 . ?
C98E_1 H27E_1 0.9300 . ?
C99E_1 H28E_1 0.9300 . ?
C101_1 C102_1 1.520(5) . ?
C102_1 C103_1 1.371(4) . ?
C102_1 C107_1 1.399(4) . ?
C103_1 C104_1 1.3900 . ?
C103_1 H12F_1 0.9300 . ?
C104_1 C105_1 1.3900 . ?
C104_1 H13F_1 0.9300 . ?
C105_1 C106_1 1.3900 . ?
C105_1 C108_1 1.5281 . ?
C106_1 C107_1 1.3900 . ?
C106_1 H15F_1 0.9300 . ?
C107_1 H16F_1 0.9300 . ?
C108_1 C109_1 1.3900 . ?
C108_1 C113_1 1.3900 . ?
C109_1 C110_1 1.3900 . ?
C109_1 H18F_1 0.9300 . ?
C110_1 C111_1 1.3900 . ?
C110_1 H19F_1 0.9300 . ?
C111_1 C112_1 1.3900 . ?
C111_1 C114_1 1.5197 . ?
C112_1 C113_1 1.3900 . ?
C112_1 H21F_1 0.9300 . ?
C113_1 H22F_1 0.9300 . ?
C114_1 C115_1 1.3900 . ?
C114_1 C119_1 1.3900 . ?
C115_1 C116_1 1.3900 . ?
C115_1 H24F_1 0.9300 . ?
C116_1 C117_1 1.3900 . ?
C116_1 H25F_1 0.9300 . ?
C117_1 C118_1 1.3900 . ?
C117_1 C120_1 1.483(4) . ?
C118_1 C119_1 1.3900 . ?
C118_1 H27F_1 0.9300 . ?
C119_1 H28F_1 0.9300 . ?
N1_1 C125_1 1.373(3) . ?
N1_1 C121_1 1.378(3) . ?
C121_1 C122_1 1.3900 . ?
C121_1 H111_1 0.9300 . ?
C122_1 C123_1 1.3900 . ?
C122_1 H112_1 0.9300 . ?
C123_1 C124_1 1.3900 . ?
C123_1 H113_1 0.9300 . ?
C124_1 C125_1 1.3900 . ?
C124_1 H114_1 0.9300 . ?
C125_1 H115_1 0.9300 . ?
N2_1 C130_1 1.3900 . ?
N2_1 C126_1 1.3900 . ?
C126_1 C127_1 1.3900 . ?
C126_1 H121_1 0.9300 . ?
C127_1 C128_1 1.3900 . ?
C127_1 H122_1 0.9300 . ?
C128_1 C129_1 1.3900 . ?
C128_1 H123_1 0.9300 . ?
C129_1 C130_1 1.3900 . ?
C129_1 H124_1 0.9300 . ?
C130_1 H125_1 0.9300 . ?
N3_1 C131_1 1.3900 . ?
N3_1 C135_1 1.3900 . ?
C131_1 C132_1 1.3900 . ?
C131_1 H131_1 0.9300 . ?
C132_1 C133_1 1.3900 . ?
C132_1 H132_1 0.9300 . ?
C133_1 C134_1 1.3900 . ?
C133_1 H133_1 0.9300 . ?
C134_1 C135_1 1.3900 . ?
C134_1 H134_1 0.9300 . ?
C135_1 H135_1 0.9300 . ?
N4_1 C136_1 1.3900 . ?
N4_1 C140_1 1.3900 . ?
C136_1 C137_1 1.3900 . ?
C136_1 H211_1 0.9300 . ?
C137_1 C138_1 1.3900 . ?
C137_1 H212_1 0.9300 . ?
C138_1 C139_1 1.3900 . ?
C138_1 H213_1 0.9300 . ?
C139_1 C140_1 1.3899 . ?
C139_1 H214_1 0.9300 . ?
C140_1 H215_1 0.9300 . ?
N5_1 C141_1 1.3900 . ?
N5_1 C145_1 1.3901 . ?
C141_1 C142_1 1.3900 . ?
C141_1 H221_1 0.9300 . ?
C142_1 C143_1 1.3900 . ?
C142_1 H222_1 0.9300 . ?
C143_1 C144_1 1.3900 . ?
C143_1 H223_1 0.9300 . ?
C144_1 C145_1 1.3900 . ?
C144_1 H224_1 0.9300 . ?
C145_1 H225_1 0.9300 . ?
N6_1 C146_1 1.3899 . ?
N6_1 C150_1 1.3900 . ?
C146_1 C147_1 1.3900 . ?
C146_1 H231_1 0.9300 . ?
C147_1 C148_1 1.3900 . ?
C147_1 H232_1 0.9300 . ?
C148_1 C149_1 1.3900 . ?
C148_1 H233_1 0.9300 . ?
C149_1 C150_1 1.3900 . ?
C149_1 H234_1 0.9300 . ?
C150_1 H235_1 0.9300 . ?
N7_1 C151_1 1.3899 . ?
N7_1 C155_1 1.3901 . ?
C151_1 C152_1 1.3900 . ?
C151_1 H311_1 0.9300 . ?
C152_1 C153_1 1.3900 . ?
C152_1 H312_1 0.9300 . ?
C153_1 C154_1 1.3900 . ?
C153_1 H313_1 0.9300 . ?
C154_1 C155_1 1.3900 . ?
C154_1 H314_1 0.9299 . ?
C155_1 H315_1 0.9300 . ?
N8_1 C160_1 1.3899 . ?
N8_1 C156_1 1.3900 . ?
C156_1 C157_1 1.3900 . ?
C156_1 H321_1 0.9300 . ?
C157_1 C158_1 1.3900 . ?
C157_1 H322_1 0.9299 . ?
C158_1 C159_1 1.3900 . ?
C158_1 H323_1 0.9300 . ?
C159_1 C160_1 1.3901 . ?
C159_1 H324_1 0.9300 . ?
C160_1 H325_1 0.9300 . ?
N9_1 C161_1 1.3899 . ?
N9_1 C165_1 1.3900 . ?
C161_1 C162_1 1.3900 . ?
C161_1 H331_1 0.9300 . ?
C162_1 C163_1 1.3901 . ?
C162_1 H332_1 0.9300 . ?
C163_1 C164_1 1.3900 . ?
C163_1 H333_1 0.9300 . ?
C164_1 C165_1 1.3900 . ?
C164_1 H334_1 0.9300 . ?
C165_1 H335_1 0.9300 . ?
N10_1 C170_1 1.3900 . ?
N10_1 C166_1 1.3901 . ?
C166_1 C167_1 1.3900 . ?
C166_1 H411_1 0.9300 . ?
C167_1 C168_1 1.3899 . ?
C167_1 H412_1 0.9300 . ?
C168_1 C169_1 1.3899 . ?
C168_1 H413_1 0.9300 . ?
C169_1 C170_1 1.3900 . ?
C169_1 H414_1 0.9300 . ?
C170_1 H415_1 0.9300 . ?
N11_1 C171_1 1.3900 . ?
N11_1 C175_1 1.3900 . ?
C171_1 C172_1 1.3900 . ?
C171_1 H421_1 0.9300 . ?
C172_1 C173_1 1.3900 . ?
C172_1 H422_1 0.9300 . ?
C173_1 C174_1 1.3900 . ?
C173_1 H423_1 0.9300 . ?
C174_1 C175_1 1.3900 . ?
C174_1 H424_1 0.9300 . ?
C175_1 H425_1 0.9300 . ?
N12_1 C180_1 1.3899 . ?
N12_1 C176_1 1.3899 . ?
C176_1 C177_1 1.3899 . ?
C176_1 H431_1 0.9300 . ?
C177_1 C178_1 1.3900 . ?
C177_1 H432_1 0.9300 . ?
C178_1 C179_1 1.3900 . ?
C178_1 H433_1 0.9300 . ?
C179_1 C180_1 1.3900 . ?
C179_1 H434_1 0.9300 . ?
C180_1 H435_1 0.9300 . ?

loop_
_geom_angle_atom_site_label_1
_geom_angle_atom_site_label_2
_geom_angle_atom_site_label_3
_geom_angle
_geom_angle_site_symmetry_1
_geom_angle_site_symmetry_3
_geom_angle_publ_flag
O1_1 Fe11_1 O9_1 97.65(9) . . ?
O1_1 Fe11_1 O10_1 96.85(8) . . ?
O9_1 Fe11_1 O10_1 88.86(10) . . ?
O1_1 Fe11_1 O17_1 94.72(9) . . ?
O9_1 Fe11_1 O17_1 91.72(10) . . ?
O10_1 Fe11_1 O17_1 168.24(10) . . ?
O1_1 Fe11_1 O18_1 95.64(9) . . ?
O9_1 Fe11_1 O18_1 166.53(9) . . ?
O10_1 Fe11_1 O18_1 91.74(10) . . ?
O17_1 Fe11_1 O18_1 84.99(10) . . ?
O1_1 Fe11_1 N1_1 177.06(9) . . ?
O9_1 Fe11_1 N1_1 84.45(10) . . ?
O10_1 Fe11_1 N1_1 85.23(10) . . ?
O17_1 Fe11_1 N1_1 83.13(11) . . ?
O18_1 Fe11_1 N1_1 82.18(10) . . ?
O1_1 Fe11_1 Fe13_1 29.99(6) . . ?
O9_1 Fe11_1 Fe13_1 76.34(7) . . ?
O10_1 Fe11_1 Fe13_1 116.85(7) . . ?
O17_1 Fe11_1 Fe13_1 74.64(7) . . ?
O18_1 Fe11_1 Fe13_1 115.11(7) . . ?
N1_1 Fe11_1 Fe13_1 149.92(9) . . ?
O1_1 Fe11_1 Fe12_1 30.18(6) . . ?
O9_1 Fe11_1 Fe12_1 119.21(7) . . ?
O10_1 Fe11_1 Fe12_1 76.91(6) . . ?
O17_1 Fe11_1 Fe12_1 112.80(7) . . ?
O18_1 Fe11_1 Fe12_1 73.96(7) . . ?
N1_1 Fe11_1 Fe12_1 149.49(9) . . ?
Fe13_1 Fe11_1 Fe12_1 60.141(14) . . ?
O1_1 Fe12_1 O13_1 97.86(9) . . ?
O1_1 Fe12_1 O2_1 96.34(9) . . ?
O13_1 Fe12_1 O2_1 88.44(10) . . ?
O1_1 Fe12_1 O19_1 95.58(9) . . ?
O13_1 Fe12_1 O19_1 90.50(10) . . ?
O2_1 Fe12_1 O19_1 168.07(9) . . ?
O1_1 Fe12_1 O14_1 95.53(9) . . ?
O13_1 Fe12_1 O14_1 166.42(9) . . ?
O2_1 Fe12_1 O14_1 92.35(9) . . ?
O19_1 Fe12_1 O14_1 85.93(10) . . ?
O1_1 Fe12_1 N2_1 177.80(6) . . ?
O13_1 Fe12_1 N2_1 84.27(7) . . ?
O2_1 Fe12_1 N2_1 84.22(6) . . ?
O19_1 Fe12_1 N2_1 83.85(7) . . ?
O14_1 Fe12_1 N2_1 82.32(7) . . ?
O1_1 Fe12_1 Fe11_1 30.22(6) . . ?
O13_1 Fe12_1 Fe11_1 76.58(6) . . ?
O2_1 Fe12_1 Fe11_1 116.55(6) . . ?
O19_1 Fe12_1 Fe11_1 74.66(7) . . ?
O14_1 Fe12_1 Fe11_1 114.88(7) . . ?
N2_1 Fe12_1 Fe11_1 150.85(3) . . ?
O1_1 Fe12_1 Fe13_1 29.68(6) . . ?
O13_1 Fe12_1 Fe13_1 118.87(7) . . ?
O2_1 Fe12_1 Fe13_1 76.74(6) . . ?
O19_1 Fe12_1 Fe13_1 113.98(7) . . ?
O14_1 Fe12_1 Fe13_1 74.42(7) . . ?
N2_1 Fe12_1 Fe13_1 149.05(3) . . ?
Fe11_1 Fe12_1 Fe13_1 59.870(14) . . ?
O1_1 Fe13_1 O6_1 97.40(9) . . ?
O1_1 Fe13_1 O5_1 97.16(9) . . ?
O6_1 Fe13_1 O5_1 88.81(10) . . ?
O1_1 Fe13_1 O15_1 94.63(9) . . ?
O6_1 Fe13_1 O15_1 167.82(10) . . ?
O5_1 Fe13_1 O15_1 91.60(10) . . ?
O1_1 Fe13_1 O16_1 95.03(9) . . ?
O6_1 Fe13_1 O16_1 91.45(10) . . ?
O5_1 Fe13_1 O16_1 167.67(10) . . ?
O15_1 Fe13_1 O16_1 85.56(10) . . ?
O1_1 Fe13_1 N3_1 176.64(6) . . ?
O6_1 Fe13_1 N3_1 85.59(7) . . ?
O5_1 Fe13_1 N3_1 84.39(7) . . ?
O15_1 Fe13_1 N3_1 82.34(7) . . ?
O16_1 Fe13_1 N3_1 83.33(7) . . ?
O1_1 Fe13_1 Fe11_1 30.19(6) . . ?
O6_1 Fe13_1 Fe11_1 76.98(7) . . ?
O5_1 Fe13_1 Fe11_1 118.31(7) . . ?
O15_1 Fe13_1 Fe11_1 113.30(7) . . ?
O16_1 Fe13_1 Fe11_1 73.68(7) . . ?
N3_1 Fe13_1 Fe11_1 150.53(3) . . ?
O1_1 Fe13_1 Fe12_1 29.83(6) . . ?
O6_1 Fe13_1 Fe12_1 117.72(7) . . ?
O5_1 Fe13_1 Fe12_1 76.44(7) . . ?
O15_1 Fe13_1 Fe12_1 74.14(7) . . ?
O16_1 Fe13_1 Fe12_1 114.10(7) . . ?
N3_1 Fe13_1 Fe12_1 148.96(3) . . ?
Fe11_1 Fe13_1 Fe12_1 59.990(15) . . ?
O20_1 Fe21_1 O21_1 97.99(9) . . ?
O20_1 Fe21_1 O32_1 96.06(9) . . ?
O21_1 Fe21_1 O32_1 88.00(10) . . ?
O20_1 Fe21_1 O33_1 95.64(10) . . ?
O21_1 Fe21_1 O33_1 92.03(10) . . ?
O32_1 Fe21_1 O33_1 168.19(11) . . ?
O20_1 Fe21_1 O38_1 95.61(10) . . ?
O21_1 Fe21_1 O38_1 166.37(11) . . ?
O32_1 Fe21_1 O38_1 91.53(10) . . ?
O33_1 Fe21_1 O38_1 85.67(11) . . ?
O20_1 Fe21_1 N4_1 178.14(6) . . ?
O21_1 Fe21_1 N4_1 83.46(7) . . ?
O32_1 Fe21_1 N4_1 85.13(7) . . ?
O33_1 Fe21_1 N4_1 83.14(8) . . ?
O38_1 Fe21_1 N4_1 82.92(8) . . ?
O20_1 Fe21_1 Fe22_1 30.25(6) . . ?
O21_1 Fe21_1 Fe22_1 76.43(7) . . ?
O32_1 Fe21_1 Fe22_1 115.85(8) . . ?
O33_1 Fe21_1 Fe22_1 75.56(8) . . ?
O38_1 Fe21_1 Fe22_1 115.79(8) . . ?
N4_1 Fe21_1 Fe22_1 149.92(3) . . ?
O20_1 Fe21_1 Fe23_1 29.73(6) . . ?
O21_1 Fe21_1 Fe23_1 118.91(7) . . ?
O32_1 Fe21_1 Fe23_1 76.51(7) . . ?
O33_1 Fe21_1 Fe23_1 113.55(8) . . ?
O38_1 Fe21_1 Fe23_1 74.10(8) . . ?
N4_1 Fe21_1 Fe23_1 149.92(3) . . ?
Fe22_1 Fe21_1 Fe23_1 59.975(16) . . ?
O20_1 Fe22_1 O25_1 97.33(9) . . ?
O20_1 Fe22_1 O24_1 97.65(9) . . ?
O25_1 Fe22_1 O24_1 89.05(10) . . ?
O20_1 Fe22_1 O34_1 94.00(10) . . ?
O25_1 Fe22_1 O34_1 168.44(11) . . ?
O24_1 Fe22_1 O34_1 91.74(10) . . ?
O20_1 Fe22_1 O35_1 94.58(9) . . ?
O25_1 Fe22_1 O35_1 91.48(10) . . ?
O24_1 Fe22_1 O35_1 167.60(10) . . ?
O34_1 Fe22_1 O35_1 85.30(10) . . ?
O20_1 Fe22_1 N5_1 176.76(7) . . ?
O25_1 Fe22_1 N5_1 85.62(7) . . ?
O24_1 Fe22_1 N5_1 83.70(7) . . ?
O34_1 Fe22_1 N5_1 83.01(8) . . ?
O35_1 Fe22_1 N5_1 83.99(7) . . ?
O20_1 Fe22_1 Fe21_1 29.94(6) . . ?
O25_1 Fe22_1 Fe21_1 117.74(7) . . ?
O24_1 Fe22_1 Fe21_1 76.72(7) . . ?
O34_1 Fe22_1 Fe21_1 73.61(8) . . ?
O35_1 Fe22_1 Fe21_1 113.76(7) . . ?
N5_1 Fe22_1 Fe21_1 148.75(3) . . ?
O20_1 Fe22_1 Fe23_1 30.14(6) . . ?
O25_1 Fe22_1 Fe23_1 76.54(7) . . ?
O24_1 Fe22_1 Fe23_1 118.42(7) . . ?
O34_1 Fe22_1 Fe23_1 112.98(8) . . ?
O35_1 Fe22_1 Fe23_1 73.68(7) . . ?
N5_1 Fe22_1 Fe23_1 150.77(3) . . ?
Fe21_1 Fe22_1 Fe23_1 60.075(17) . . ?
O20_1 Fe23_1 O28_1 98.15(9) . . ?
O20_1 Fe23_1 O29_1 96.91(9) . . ?
O28_1 Fe23_1 O29_1 88.54(10) . . ?
O20_1 Fe23_1 O36_1 95.23(9) . . ?
O28_1 Fe23_1 O36_1 91.62(11) . . ?
O29_1 Fe23_1 O36_1 167.71(10) . . ?
O20_1 Fe23_1 O37_1 95.73(10) . . ?
O28_1 Fe23_1 O37_1 166.06(11) . . ?
O29_1 Fe23_1 O37_1 90.99(11) . . ?
O36_1 Fe23_1 O37_1 85.90(11) . . ?
O20_1 Fe23_1 N6_1 177.30(6) . . ?
O28_1 Fe23_1 N6_1 83.72(7) . . ?
O29_1 Fe23_1 N6_1 85.06(7) . . ?
O36_1 Fe23_1 N6_1 82.75(7) . . ?
O37_1 Fe23_1 N6_1 82.36(9) . . ?
O20_1 Fe23_1 Fe22_1 30.34(7) . . ?
O28_1 Fe23_1 Fe22_1 76.68(7) . . ?
O29_1 Fe23_1 Fe22_1 117.15(7) . . ?
O36_1 Fe23_1 Fe22_1 74.77(7) . . ?
O37_1 Fe23_1 Fe22_1 115.67(8) . . ?
N6_1 Fe23_1 Fe22_1 149.49(3) . . ?
O20_1 Fe23_1 Fe21_1 29.62(7) . . ?
O28_1 Fe23_1 Fe21_1 118.80(7) . . ?
O29_1 Fe23_1 Fe21_1 76.93(7) . . ?
O36_1 Fe23_1 Fe21_1 113.50(7) . . ?
O37_1 Fe23_1 Fe21_1 74.55(8) . . ?
N6_1 Fe23_1 Fe21_1 150.22(3) . . ?
Fe22_1 Fe23_1 Fe21_1 59.950(15) . . ?
O39_1 Fe31_1 O51_1 96.69(10) . . ?
O39_1 Fe31_1 O40_1 96.62(10) . . ?
O51_1 Fe31_1 O40_1 89.64(13) . . ?
O39_1 Fe31_1 O57_1 95.35(10) . . ?
O51_1 Fe31_1 O57_1 91.96(12) . . ?
O40_1 Fe31_1 O57_1 167.65(11) . . ?
O39_1 Fe31_1 O52_1 95.59(10) . . ?
O51_1 Fe31_1 O52_1 167.53(11) . . ?
O40_1 Fe31_1 O52_1 91.05(13) . . ?
O57_1 Fe31_1 O52_1 84.78(12) . . ?
O39_1 Fe31_1 N7_1 177.37(7) . . ?
O51_1 Fe31_1 N7_1 85.09(8) . . ?
O40_1 Fe31_1 N7_1 85.30(8) . . ?
O57_1 Fe31_1 N7_1 82.63(8) . . ?
O52_1 Fe31_1 N7_1 82.56(8) . . ?
O39_1 Fe31_1 Fe33_1 30.18(7) . . ?
O51_1 Fe31_1 Fe33_1 75.97(8) . . ?
O40_1 Fe31_1 Fe33_1 117.70(8) . . ?
O57_1 Fe31_1 Fe33_1 74.53(8) . . ?
O52_1 Fe31_1 Fe33_1 114.49(8) . . ?
N7_1 Fe31_1 Fe33_1 149.54(3) . . ?
O39_1 Fe31_1 Fe32_1 29.82(7) . . ?
O51_1 Fe31_1 Fe32_1 117.35(8) . . ?
O40_1 Fe31_1 Fe32_1 75.97(8) . . ?
O57_1 Fe31_1 Fe32_1 113.89(8) . . ?
O52_1 Fe31_1 Fe32_1 74.84(8) . . ?
N7_1 Fe31_1 Fe32_1 150.12(3) . . ?
Fe33_1 Fe31_1 Fe32_1 59.974(17) . . ?
O39_1 Fe32_1 O44_1 97.79(10) . . ?
O39_1 Fe32_1 O43_1 97.30(11) . . ?
O44_1 Fe32_1 O43_1 88.90(11) . . ?
O39_1 Fe32_1 O54_1 95.63(10) . . ?
O44_1 Fe32_1 O54_1 91.15(10) . . ?
O43_1 Fe32_1 O54_1 166.94(12) . . ?
O39_1 Fe32_1 O53_1 94.85(10) . . ?
O44_1 Fe32_1 O53_1 167.16(11) . . ?
O43_1 Fe32_1 O53_1 91.71(11) . . ?
O54_1 Fe32_1 O53_1 85.38(11) . . ?
O39_1 Fe32_1 N8_1 176.77(7) . . ?
O44_1 Fe32_1 N8_1 84.73(8) . . ?
O43_1 Fe32_1 N8_1 84.73(9) . . ?
O54_1 Fe32_1 N8_1 82.27(8) . . ?
O53_1 Fe32_1 N8_1 82.55(8) . . ?
O39_1 Fe32_1 Fe33_1 30.19(6) . . ?
O44_1 Fe32_1 Fe33_1 76.81(7) . . ?
O43_1 Fe32_1 Fe33_1 117.95(9) . . ?
O54_1 Fe32_1 Fe33_1 74.69(8) . . ?
O53_1 Fe32_1 Fe33_1 113.96(8) . . ?
N8_1 Fe32_1 Fe33_1 149.94(3) . . ?
O39_1 Fe32_1 Fe31_1 29.82(6) . . ?
O44_1 Fe32_1 Fe31_1 118.54(8) . . ?
O43_1 Fe32_1 Fe31_1 76.96(8) . . ?
O54_1 Fe32_1 Fe31_1 114.23(8) . . ?
O53_1 Fe32_1 Fe31_1 74.02(8) . . ?
N8_1 Fe32_1 Fe31_1 149.56(3) . . ?
Fe33_1 Fe32_1 Fe31_1 59.993(16) . . ?
O39_1 Fe33_1 O48_1 97.24(10) . . ?
O39_1 Fe33_1 O47_1 97.69(10) . . ?
O48_1 Fe33_1 O47_1 89.49(10) . . ?
O39_1 Fe33_1 O56_1 95.31(10) . . ?
O48_1 Fe33_1 O56_1 91.72(11) . . ?
O47_1 Fe33_1 O56_1 166.68(11) . . ?
O39_1 Fe33_1 O55_1 95.22(10) . . ?
O48_1 Fe33_1 O55_1 167.41(12) . . ?
O47_1 Fe33_1 O55_1 90.58(10) . . ?
O56_1 Fe33_1 O55_1 85.37(10) . . ?
O39_1 Fe33_1 N9_1 177.05(7) . . ?
O48_1 Fe33_1 N9_1 84.52(8) . . ?
O47_1 Fe33_1 N9_1 84.67(8) . . ?
O56_1 Fe33_1 N9_1 82.25(8) . . ?
O55_1 Fe33_1 N9_1 82.96(8) . . ?
O39_1 Fe33_1 Fe32_1 30.03(6) . . ?
O48_1 Fe33_1 Fe32_1 117.66(8) . . ?
O47_1 Fe33_1 Fe32_1 76.49(7) . . ?
O56_1 Fe33_1 Fe32_1 114.39(8) . . ?
O55_1 Fe33_1 Fe32_1 74.53(8) . . ?
N9_1 Fe33_1 Fe32_1 150.25(3) . . ?
O39_1 Fe33_1 Fe31_1 30.03(6) . . ?
O48_1 Fe33_1 Fe31_1 76.88(8) . . ?
O47_1 Fe33_1 Fe31_1 118.92(8) . . ?
O56_1 Fe33_1 Fe31_1 74.22(8) . . ?
O55_1 Fe33_1 Fe31_1 113.88(7) . . ?
N9_1 Fe33_1 Fe31_1 149.29(3) . . ?
Fe32_1 Fe33_1 Fe31_1 60.033(17) . . ?
O58_1 Fe41_1 O67_1 97.67(10) . . ?
O58_1 Fe41_1 O66_1 97.63(9) . . ?
O67_1 Fe41_1 O66_1 89.28(10) . . ?
O58_1 Fe41_1 O74_1 94.50(11) . . ?
O67_1 Fe41_1 O74_1 167.66(12) . . ?
O66_1 Fe41_1 O74_1 91.17(10) . . ?
O58_1 Fe41_1 O75_1 94.69(10) . . ?
O67_1 Fe41_1 O75_1 91.67(11) . . ?
O66_1 Fe41_1 O75_1 167.41(12) . . ?
O74_1 Fe41_1 O75_1 85.25(11) . . ?
O58_1 Fe41_1 N10_1 177.27(6) . . ?
O67_1 Fe41_1 N10_1 84.83(8) . . ?
O66_1 Fe41_1 N10_1 83.48(8) . . ?
O74_1 Fe41_1 N10_1 82.97(9) . . ?
O75_1 Fe41_1 N10_1 84.10(9) . . ?
O58_1 Fe41_1 Fe42_1 29.92(6) . . ?
O67_1 Fe41_1 Fe42_1 76.93(8) . . ?
O66_1 Fe41_1 Fe42_1 118.30(8) . . ?
O74_1 Fe41_1 Fe42_1 113.48(9) . . ?
O75_1 Fe41_1 Fe42_1 74.09(9) . . ?
N10_1 Fe41_1 Fe42_1 150.90(3) . . ?
O58_1 Fe41_1 Fe43_1 30.04(6) . . ?
O67_1 Fe41_1 Fe43_1 118.37(8) . . ?
O66_1 Fe41_1 Fe43_1 76.77(8) . . ?
O74_1 Fe41_1 Fe43_1 73.67(9) . . ?
O75_1 Fe41_1 Fe43_1 113.55(9) . . ?
N10_1 Fe41_1 Fe43_1 148.83(3) . . ?
Fe42_1 Fe41_1 Fe43_1 59.937(17) . . ?
O58_1 Fe42_1 O70_1 96.71(10) . . ?
O58_1 Fe42_1 O59_1 97.78(9) . . ?
O70_1 Fe42_1 O59_1 87.68(11) . . ?
O58_1 Fe42_1 O76_1 95.55(10) . . ?
O70_1 Fe42_1 O76_1 92.61(11) . . ?
O59_1 Fe42_1 O76_1 166.54(11) . . ?
O58_1 Fe42_1 O71_1 95.51(10) . . ?
O70_1 Fe42_1 O71_1 167.77(11) . . ?
O59_1 Fe42_1 O71_1 90.98(11) . . ?
O76_1 Fe42_1 O71_1 85.90(11) . . ?
O58_1 Fe42_1 N11_1 178.19(7) . . ?
O70_1 Fe42_1 N11_1 83.83(7) . . ?
O59_1 Fe42_1 N11_1 83.97(7) . . ?
O76_1 Fe42_1 N11_1 82.69(8) . . ?
O71_1 Fe42_1 N11_1 83.95(8) . . ?
O58_1 Fe42_1 Fe43_1 30.23(7) . . ?
O70_1 Fe42_1 Fe43_1 116.83(7) . . ?
O59_1 Fe42_1 Fe43_1 76.70(7) . . ?
O76_1 Fe42_1 Fe43_1 114.85(8) . . ?
O71_1 Fe42_1 Fe43_1 74.56(8) . . ?
N11_1 Fe42_1 Fe43_1 150.59(3) . . ?
O58_1 Fe42_1 Fe41_1 29.88(7) . . ?
O70_1 Fe42_1 Fe41_1 76.79(7) . . ?
O59_1 Fe42_1 Fe41_1 118.49(7) . . ?
O76_1 Fe42_1 Fe41_1 74.56(8) . . ?
O71_1 Fe42_1 Fe41_1 114.32(8) . . ?
N11_1 Fe42_1 Fe41_1 149.14(3) . . ?
Fe43_1 Fe42_1 Fe41_1 60.098(17) . . ?
O58_1 Fe43_1 O63_1 97.77(10) . . ?
O58_1 Fe43_1 O62_1 96.61(9) . . ?
O63_1 Fe43_1 O62_1 88.13(11) . . ?
O58_1 Fe43_1 O72_1 95.53(10) . . ?
O63_1 Fe43_1 O72_1 166.66(10) . . ?
O62_1 Fe43_1 O72_1 91.38(11) . . ?
O58_1 Fe43_1 O73_1 94.52(10) . . ?
O63_1 Fe43_1 O73_1 92.52(11) . . ?
O62_1 Fe43_1 O73_1 168.66(11) . . ?
O72_1 Fe43_1 O73_1 85.39(11) . . ?
O58_1 Fe43_1 N12_1 177.79(6) . . ?
O63_1 Fe43_1 N12_1 83.43(8) . . ?
O62_1 Fe43_1 N12_1 85.26(7) . . ?
O72_1 Fe43_1 N12_1 83.24(8) . . ?
O73_1 Fe43_1 N12_1 83.57(9) . . ?
O58_1 Fe43_1 Fe42_1 30.11(7) . . ?
O63_1 Fe43_1 Fe42_1 118.83(7) . . ?
O62_1 Fe43_1 Fe42_1 76.59(7) . . ?
O72_1 Fe43_1 Fe42_1 73.90(7) . . ?
O73_1 Fe43_1 Fe42_1 112.74(8) . . ?
N12_1 Fe43_1 Fe42_1 150.19(3) . . ?
O58_1 Fe43_1 Fe41_1 29.88(7) . . ?
O63_1 Fe43_1 Fe41_1 76.75(8) . . ?
O62_1 Fe43_1 Fe41_1 116.50(7) . . ?
O72_1 Fe43_1 Fe41_1 115.16(8) . . ?
O73_1 Fe43_1 Fe41_1 74.60(9) . . ?
N12_1 Fe43_1 Fe41_1 149.58(3) . . ?
Fe42_1 Fe43_1 Fe41_1 59.965(16) . . ?
O11_1 S112_1 O12_1 113.67(19) . . ?
O11_1 S112_1 O10_1 110.27(16) . . ?
O12_1 S112_1 O10_1 108.19(15) . . ?
O11_1 S112_1 O13_1 110.19(16) . . ?
O12_1 S112_1 O13_1 106.44(15) . . ?
O10_1 S112_1 O13_1 107.86(13) . . ?
O8_1 S113_1 O7_1 113.2(2) . . ?
O8_1 S113_1 O9_1 108.74(17) . . ?
O7_1 S113_1 O9_1 108.76(19) . . ?
O8_1 S113_1 O6_1 109.01(17) . . ?
O7_1 S113_1 O6_1 108.82(17) . . ?
O9_1 S113_1 O6_1 108.22(13) . . ?
O3_1 S123_1 O4_1 113.1(2) . . ?
O3_1 S123_1 O2_1 109.06(16) . . ?
O4_1 S123_1 O2_1 109.30(16) . . ?
O3_1 S123_1 O5_1 108.21(16) . . ?
O4_1 S123_1 O5_1 109.14(17) . . ?
O2_1 S123_1 O5_1 107.89(13) . . ?
O22_1 S212_1 O23_1 112.8(2) . . ?
O22_1 S212_1 O21_1 109.00(17) . . ?
O23_1 S212_1 O21_1 108.1(2) . . ?
O22_1 S212_1 O24_1 109.56(18) . . ?
O23_1 S212_1 O24_1 108.80(18) . . ?
O21_1 S212_1 O24_1 108.40(14) . . ?
O30_1 S213_1 O31_1 113.02(18) . . ?
O30_1 S213_1 O29_1 109.96(18) . . ?
O31_1 S213_1 O29_1 107.36(17) . . ?
O30_1 S213_1 O32_1 111.12(18) . . ?
O31_1 S213_1 O32_1 107.19(16) . . ?
O29_1 S213_1 O32_1 107.98(14) . . ?
O26_1 S223_1 O27_1 114.1(2) . . ?
O26_1 S223_1 O28_1 107.93(19) . . ?
O27_1 S223_1 O28_1 108.16(18) . . ?
O26_1 S223_1 O25_1 109.12(19) . . ?
O27_1 S223_1 O25_1 109.43(18) . . ?
O28_1 S223_1 O25_1 107.96(15) . . ?
O41_1 S312_1 O42_1 113.1(3) . . ?
O41_1 S312_1 O40_1 109.5(2) . . ?
O42_1 S312_1 O40_1 109.7(2) . . ?
O41_1 S312_1 O43_1 108.1(2) . . ?
O42_1 S312_1 O43_1 109.0(2) . . ?
O40_1 S312_1 O43_1 107.31(17) . . ?
O50_1 S313_1 O49_1 114.3(2) . . ?
O50_1 S313_1 O51_1 109.5(2) . . ?
O49_1 S313_1 O51_1 110.1(2) . . ?
O50_1 S313_1 O48_1 107.82(18) . . ?
O49_1 S313_1 O48_1 108.1(2) . . ?
O51_1 S313_1 O48_1 106.64(16) . . ?
O46_1 S323_1 O45_1 114.5(2) . . ?
O46_1 S323_1 O47_1 108.93(18) . . ?
O45_1 S323_1 O47_1 109.73(17) . . ?
O46_1 S323_1 O44_1 108.24(18) . . ?
O45_1 S323_1 O44_1 108.82(17) . . ?
O47_1 S323_1 O44_1 106.28(14) . . ?
O69_1 S412_1 O68_1 113.2(2) . . ?
O69_1 S412_1 O67_1 108.81(18) . . ?
O68_1 S412_1 O67_1 109.95(19) . . ?
O69_1 S412_1 O70_1 108.75(19) . . ?
O68_1 S412_1 O70_1 108.07(19) . . ?
O67_1 S412_1 O70_1 107.95(15) . . ?
O64_1 S413_1 O65_1 113.1(2) . . ?
O64_1 S413_1 O63_1 108.23(18) . . ?
O65_1 S413_1 O63_1 109.6(2) . . ?
O64_1 S413_1 O66_1 107.99(18) . . ?
O65_1 S413_1 O66_1 109.82(18) . . ?
O63_1 S413_1 O66_1 107.99(15) . . ?
O60_1 S423_1 O61_1 114.7(2) . . ?
O60_1 S423_1 O62_1 108.80(17) . . ?
O61_1 S423_1 O62_1 108.31(17) . . ?
O60_1 S423_1 O59_1 110.92(18) . . ?
O61_1 S423_1 O59_1 106.36(16) . . ?
O62_1 S423_1 O59_1 107.50(15) . . ?
Fe13_1 O1_1 Fe12_1 120.50(10) . . ?
Fe13_1 O1_1 Fe11_1 119.82(10) . . ?
Fe12_1 O1_1 Fe11_1 119.60(10) . . ?
S123_1 O2_1 Fe12_1 133.98(13) . . ?
S123_1 O5_1 Fe13_1 135.51(14) . . ?
S113_1 O6_1 Fe13_1 133.79(15) . . ?
S113_1 O9_1 Fe11_1 135.90(14) . . ?
S112_1 O10_1 Fe11_1 133.41(13) . . ?
S112_1 O13_1 Fe12_1 135.70(14) . . ?
C21B_1 O14_1 Fe12_1 131.9(2) . . ?
C21B_1 O15_1 Fe13_1 132.9(2) . . ?
C1A_1 O16_1 Fe13_1 134.0(2) . . ?
C1A_1 O17_1 Fe11_1 132.1(2) . . ?
C41C_1 O18_1 Fe11_1 133.9(2) . . ?
C41C_1 O19_1 Fe12_1 133.0(2) . . ?
Fe21_1 O20_1 Fe23_1 120.64(11) . . ?
Fe21_1 O20_1 Fe22_1 119.80(11) . . ?
Fe23_1 O20_1 Fe22_1 119.51(11) . . ?
S212_1 O21_1 Fe21_1 135.74(15) . . ?
S212_1 O24_1 Fe22_1 134.00(15) . . ?
S223_1 O25_1 Fe22_1 134.73(15) . . ?
S223_1 O28_1 Fe23_1 135.54(15) . . ?
S213_1 O29_1 Fe23_1 134.81(14) . . ?
S213_1 O32_1 Fe21_1 134.82(14) . . ?
C100_1 O33_1 Fe21_1 130.2(3) . . ?
C100_1 O34_1 Fe22_1 133.0(3) . . ?
C40B_1 O35_1 Fe22_1 132.5(2) . . ?
C40B_1 O36_1 Fe23_1 132.3(2) . . ?
C120_1 O37_1 Fe23_1 132.2(3) . . ?
C120_1 O38_1 Fe21_1 133.5(3) . . ?
Fe32_1 O39_1 Fe31_1 120.36(11) . . ?
Fe32_1 O39_1 Fe33_1 119.78(11) . . ?
Fe31_1 O39_1 Fe33_1 119.79(11) . . ?
S312_1 O40_1 Fe31_1 135.63(18) . . ?
S312_1 O43_1 Fe32_1 133.69(16) . . ?
S323_1 O44_1 Fe32_1 132.82(15) . . ?
S323_1 O47_1 Fe33_1 133.87(15) . . ?
S313_1 O48_1 Fe33_1 134.21(16) . . ?
S313_1 O51_1 Fe31_1 135.69(18) . . ?
C61D_1 O52_1 Fe31_1 132.2(3) . . ?
C61D_1 O53_1 Fe32_1 133.2(3) . . ?
C101_1 O54_1 Fe32_1 131.9(3) . . ?
C101_1 O55_1 Fe33_1 131.4(3) . . ?
C60C_1 O56_1 Fe33_1 133.2(3) . . ?
C60C_1 O57_1 Fe31_1 132.4(3) . . ?
Fe41_1 O58_1 Fe42_1 120.20(11) . . ?
Fe41_1 O58_1 Fe43_1 120.08(11) . . ?
Fe42_1 O58_1 Fe43_1 119.66(12) . . ?
S423_1 O59_1 Fe42_1 135.77(14) . . ?
S423_1 O62_1 Fe43_1 134.93(14) . . ?
S413_1 O63_1 Fe43_1 133.91(15) . . ?
S413_1 O66_1 Fe41_1 132.92(16) . . ?
S412_1 O67_1 Fe41_1 135.04(16) . . ?
S412_1 O70_1 Fe42_1 133.72(15) . . ?
C80D_1 O71_1 Fe42_1 133.1(3) . . ?
C80D_1 O72_1 Fe43_1 134.0(3) . . ?
C20A_1 O73_1 Fe43_1 132.9(3) . . ?
C20A_1 O74_1 Fe41_1 134.3(3) . . ?
C81E_1 O75_1 Fe41_1 131.2(3) . . ?
C81E_1 O76_1 Fe42_1 132.7(3) . . ?
O16_1 C1A_1 O17_1 125.3(3) . . ?
O16_1 C1A_1 C2A_1 118.5(4) . . ?
O17_1 C1A_1 C2A_1 116.2(4) . . ?
C3A_1 C2A_1 C7A_1 121.1(3) . . ?
C3A_1 C2A_1 C1A_1 118.8(4) . . ?
C7A_1 C2A_1 C1A_1 120.1(3) . . ?
C2A_1 C3A_1 C4A_1 119.70(17) . . ?
C2A_1 C3A_1 H12A_1 120.1 . . ?
C4A_1 C3A_1 H12A_1 120.1 . . ?
C5A_1 C4A_1 C3A_1 120.0 . . ?
C5A_1 C4A_1 H13A_1 120.0 . . ?
C3A_1 C4A_1 H13A_1 120.0 . . ?
C6A_1 C5A_1 C4A_1 120.0 . . ?
C6A_1 C5A_1 C8A_1 119.9 . . ?
C4A_1 C5A_1 C8A_1 120.0 . . ?
C7A_1 C6A_1 C5A_1 120.0 . . ?
C7A_1 C6A_1 H15A_1 120.0 . . ?
C5A_1 C6A_1 H15A_1 120.0 . . ?
C6A_1 C7A_1 C2A_1 119.22(16) . . ?
C6A_1 C7A_1 H16A_1 120.1 . . ?
C2A_1 C7A_1 H16A_1 120.6 . . ?
C9A_1 C8A_1 C13A_1 120.0 . . ?
C9A_1 C8A_1 C5A_1 119.9 . . ?
C13A_1 C8A_1 C5A_1 120.0 . . ?
C8A_1 C9A_1 C10A_1 120.0 . . ?
C8A_1 C9A_1 H18A_1 120.0 . . ?
C10A_1 C9A_1 H18A_1 120.0 . . ?
C11A_1 C10A_1 C9A_1 120.0 . . ?
C11A_1 C10A_1 H19A_1 120.0 . . ?
C9A_1 C10A_1 H19A_1 120.0 . . ?
C12A_1 C11A_1 C10A_1 120.0 . . ?
C12A_1 C11A_1 C14A_1 119.0 . . ?
C10A_1 C11A_1 C14A_1 120.8 . . ?
C11A_1 C12A_1 C13A_1 120.0 . . ?
C11A_1 C12A_1 H21A_1 120.0 . . ?
C13A_1 C12A_1 H21A_1 120.0 . . ?
C8A_1 C13A_1 C12A_1 120.0 . . ?
C8A_1 C13A_1 H22A_1 120.0 . . ?
C12A_1 C13A_1 H22A_1 120.0 . . ?
C15A_1 C14A_1 C19A_1 120.0 . . ?
C15A_1 C14A_1 C11A_1 117.8 . . ?
C19A_1 C14A_1 C11A_1 122.2 . . ?
C16A_1 C15A_1 C14A_1 120.0 . . ?
C16A_1 C15A_1 H24A_1 120.0 . . ?
C14A_1 C15A_1 H24A_1 120.0 . . ?
C17A_1 C16A_1 C15A_1 120.0 . . ?
C17A_1 C16A_1 H25A_1 120.0 . . ?
C15A_1 C16A_1 H25A_1 120.0 . . ?
C18A_1 C17A_1 C16A_1 120.0 . . ?
C18A_1 C17A_1 C20A_1 121.2(2) . . ?
C16A_1 C17A_1 C20A_1 118.7(2) . . ?
C19A_1 C18A_1 C17A_1 120.0 . . ?
C19A_1 C18A_1 H27A_1 120.0 . . ?
C17A_1 C18A_1 H27A_1 120.0 . . ?
C18A_1 C19A_1 C14A_1 120.0 . . ?
C18A_1 C19A_1 H28A_1 120.0 . . ?
C14A_1 C19A_1 H28A_1 120.0 . . ?
O73_1 C20A_1 O74_1 124.5(4) . . ?
O73_1 C20A_1 C17A_1 116.8(4) . . ?
O74_1 C20A_1 C17A_1 118.8(4) . . ?
O14_1 C21B_1 O15_1 126.5(3) . . ?
O14_1 C21B_1 C22B_1 116.9(4) . . ?
O15_1 C21B_1 C22B_1 116.6(4) . . ?
C23B_1 C22B_1 C27B_1 121.0(2) . . ?
C23B_1 C22B_1 C21B_1 120.2(3) . . ?
C27B_1 C22B_1 C21B_1 118.8(3) . . ?
C22B_1 C23B_1 C24B_1 119.68(15) . . ?
C22B_1 C23B_1 H12B_1 120.2 . . ?
C24B_1 C23B_1 H12B_1 120.2 . . ?
C25B_1 C24B_1 C23B_1 120.0 . . ?
C25B_1 C24B_1 H13B_1 120.0 . . ?
C23B_1 C24B_1 H13B_1 120.0 . . ?
C24B_1 C25B_1 C26B_1 120.0 . . ?
C24B_1 C25B_1 C28B_1 120.8 . . ?
C26B_1 C25B_1 C28B_1 119.2 . . ?
C27B_1 C26B_1 C25B_1 120.0 . . ?
C27B_1 C26B_1 H15B_1 120.0 . . ?
C25B_1 C26B_1 H15B_1 120.0 . . ?
C26B_1 C27B_1 C22B_1 119.37(15) . . ?
C26B_1 C27B_1 H16B_1 120.4 . . ?
C22B_1 C27B_1 H16B_1 120.2 . . ?
C29B_1 C28B_1 C33B_1 120.0 . . ?
C29B_1 C28B_1 C25B_1 119.4 . . ?
C33B_1 C28B_1 C25B_1 120.5 . . ?
C28B_1 C29B_1 C30B_1 120.0 . . ?
C28B_1 C29B_1 H18B_1 120.0 . . ?
C30B_1 C29B_1 H18B_1 120.0 . . ?
C31B_1 C30B_1 C29B_1 120.0 . . ?
C31B_1 C30B_1 H19B_1 120.0 . . ?
C29B_1 C30B_1 H19B_1 120.0 . . ?
C30B_1 C31B_1 C32B_1 120.0 . . ?
C30B_1 C31B_1 C34B_1 120.8 . . ?
C32B_1 C31B_1 C34B_1 119.2 . . ?
C33B_1 C32B_1 C31B_1 120.0 . . ?
C33B_1 C32B_1 H21B_1 120.0 . . ?
C31B_1 C32B_1 H21B_1 120.0 . . ?
C32B_1 C33B_1 C28B_1 120.0 . . ?
C32B_1 C33B_1 H22B_1 120.0 . . ?
C28B_1 C33B_1 H22B_1 120.0 . . ?
C35B_1 C34B_1 C39B_1 120.0 . . ?
C35B_1 C34B_1 C31B_1 118.6 . . ?
C39B_1 C34B_1 C31B_1 121.3 . . ?
C36B_1 C35B_1 C34B_1 120.0 . . ?
C36B_1 C35B_1 H24B_1 120.0 . . ?
C34B_1 C35B_1 H24B_1 120.0 . . ?
C35B_1 C36B_1 C37B_1 120.0 . . ?
C35B_1 C36B_1 H25B_1 120.0 . . ?
C37B_1 C36B_1 H25B_1 120.0 . . ?
C38B_1 C37B_1 C36B_1 120.0 . . ?
C38B_1 C37B_1 C40B_1 120.64(19) . . ?
C36B_1 C37B_1 C40B_1 119.33(19) . . ?
C37B_1 C38B_1 C39B_1 120.0 . . ?
C37B_1 C38B_1 H27B_1 120.0 . . ?
C39B_1 C38B_1 H27B_1 120.0 . . ?
C34B_1 C39B_1 C38B_1 120.0 . . ?
C34B_1 C39B_1 H28B_1 120.0 . . ?
C38B_1 C39B_1 H28B_1 120.0 . . ?
O36_1 C40B_1 O35_1 126.7(4) . . ?
O36_1 C40B_1 C37B_1 117.5(3) . . ?
O35_1 C40B_1 C37B_1 115.8(4) . . ?
O19_1 C41C_1 O18_1 124.4(3) . . ?
O19_1 C41C_1 C42C_1 118.1(3) . . ?
O18_1 C41C_1 C42C_1 117.5(4) . . ?
C43C_1 C42C_1 C47C_1 120.6(3) . . ?
C43C_1 C42C_1 C41C_1 120.6(3) . . ?
C47C_1 C42C_1 C41C_1 118.8(3) . . ?
C42C_1 C43C_1 C44C_1 119.90(16) . . ?
C42C_1 C43C_1 H12C_1 120.1 . . ?
C44C_1 C43C_1 H12C_1 120.1 . . ?
C43C_1 C44C_1 C45C_1 120.0 . . ?
C43C_1 C44C_1 H13C_1 120.0 . . ?
C45C_1 C44C_1 H13C_1 120.0 . . ?
C46C_1 C45C_1 C44C_1 120.0 . . ?
C46C_1 C45C_1 C48C_1 120.3 . . ?
C44C_1 C45C_1 C48C_1 119.7 . . ?
C45C_1 C46C_1 C47C_1 120.0 . . ?
C45C_1 C46C_1 H15C_1 120.0 . . ?
C47C_1 C46C_1 H15C_1 120.0 . . ?
C46C_1 C47C_1 C42C_1 119.50(16) . . ?
C46C_1 C47C_1 H16C_1 119.9 . . ?
C42C_1 C47C_1 H16C_1 120.6 . . ?
C49C_1 C48C_1 C53C_1 120.0 . . ?
C49C_1 C48C_1 C45C_1 121.6 . . ?
C53C_1 C48C_1 C45C_1 118.3 . . ?
C50C_1 C49C_1 C48C_1 120.0 . . ?
C50C_1 C49C_1 H18C_1 120.0 . . ?
C48C_1 C49C_1 H18C_1 120.0 . . ?
C51C_1 C50C_1 C49C_1 120.0 . . ?
C51C_1 C50C_1 H19C_1 120.0 . . ?
C49C_1 C50C_1 H19C_1 120.0 . . ?
C50C_1 C51C_1 C52C_1 120.0 . . ?
C50C_1 C51C_1 C54C_1 119.4 . . ?
C52C_1 C51C_1 C54C_1 120.3 . . ?
C51C_1 C52C_1 C53C_1 120.0 . . ?
C51C_1 C52C_1 H21C_1 120.0 . . ?
C53C_1 C52C_1 H21C_1 120.0 . . ?
C48C_1 C53C_1 C52C_1 120.0 . . ?
C48C_1 C53C_1 H22C_1 120.0 . . ?
C52C_1 C53C_1 H22C_1 120.0 . . ?
C55C_1 C54C_1 C59C_1 120.0 . . ?
C55C_1 C54C_1 C51C_1 120.4 . . ?
C59C_1 C54C_1 C51C_1 119.6 . . ?
C56C_1 C55C_1 C54C_1 120.0 . . ?
C56C_1 C55C_1 H24C_1 120.0 . . ?
C54C_1 C55C_1 H24C_1 120.0 . . ?
C55C_1 C56C_1 C57C_1 120.0 . . ?
C55C_1 C56C_1 H25C_1 120.0 . . ?
C57C_1 C56C_1 H25C_1 120.0 . . ?
C58C_1 C57C_1 C56C_1 120.0 . . ?
C58C_1 C57C_1 C60C_1 119.4(2) . . ?
C56C_1 C57C_1 C60C_1 120.5(2) . . ?
C57C_1 C58C_1 C59C_1 120.0 . . ?
C57C_1 C58C_1 H27C_1 120.0 . . ?
C59C_1 C58C_1 H27C_1 120.0 . . ?
C58C_1 C59C_1 C54C_1 120.0 . . ?
C58C_1 C59C_1 H28C_1 120.0 . . ?
C54C_1 C59C_1 H28C_1 120.0 . . ?
O56_1 C60C_1 O57_1 125.5(4) . . ?
O56_1 C60C_1 C57C_1 117.3(4) . . ?
O57_1 C60C_1 C57C_1 117.0(4) . . ?
O52_1 C61D_1 O53_1 125.7(4) . . ?
O52_1 C61D_1 C62D_1 118.4(4) . . ?
O53_1 C61D_1 C62D_1 115.9(4) . . ?
C67D_1 C62D_1 C63D_1 120.4(3) . . ?
C67D_1 C62D_1 C61D_1 120.1(3) . . ?
C63D_1 C62D_1 C61D_1 119.3(4) . . ?
C62D_1 C63D_1 C64D_1 119.76(19) . . ?
C62D_1 C63D_1 H12D_1 120.1 . . ?
C64D_1 C63D_1 H12D_1 120.1 . . ?
C65D_1 C64D_1 C63D_1 120.0 . . ?
C65D_1 C64D_1 H13D_1 120.0 . . ?
C63D_1 C64D_1 H13D_1 120.0 . . ?
C64D_1 C65D_1 C66D_1 120.0 . . ?
C64D_1 C65D_1 C68D_1 120.8 . . ?
C66D_1 C65D_1 C68D_1 119.1 . . ?
C67D_1 C66D_1 C65D_1 120.0 . . ?
C67D_1 C66D_1 H15D_1 120.0 . . ?
C65D_1 C66D_1 H15D_1 120.0 . . ?
C62D_1 C67D_1 C66D_1 119.77(17) . . ?
C62D_1 C67D_1 H16D_1 120.1 . . ?
C66D_1 C67D_1 H16D_1 120.1 . . ?
C73D_1 C68D_1 C69D_1 120.0 . . ?
C73D_1 C68D_1 C65D_1 120.2 . . ?
C69D_1 C68D_1 C65D_1 119.8 . . ?
C68D_1 C69D_1 C70D_1 120.0 . . ?
C68D_1 C69D_1 H18D_1 120.0 . . ?
C70D_1 C69D_1 H18D_1 120.0 . . ?
C71D_1 C70D_1 C69D_1 120.0 . . ?
C71D_1 C70D_1 H19D_1 120.0 . . ?
C69D_1 C70D_1 H19D_1 120.0 . . ?
C70D_1 C71D_1 C72D_1 120.0 . . ?
C70D_1 C71D_1 C74D_1 120.6 . . ?
C72D_1 C71D_1 C74D_1 119.3 . . ?
C73D_1 C72D_1 C71D_1 120.0 . . ?
C73D_1 C72D_1 H21D_1 120.0 . . ?
C71D_1 C72D_1 H21D_1 120.0 . . ?
C72D_1 C73D_1 C68D_1 120.0 . . ?
C72D_1 C73D_1 H22D_1 120.0 . . ?
C68D_1 C73D_1 H22D_1 120.0 . . ?
C75D_1 C74D_1 C79D_1 120.0 . . ?
C75D_1 C74D_1 C71D_1 119.8 . . ?
C79D_1 C74D_1 C71D_1 120.1 . . ?
C76D_1 C75D_1 C74D_1 120.0 . . ?
C76D_1 C75D_1 H24D_1 120.0 . . ?
C74D_1 C75D_1 H24D_1 120.0 . . ?
C75D_1 C76D_1 C77D_1 120.0 . . ?
C75D_1 C76D_1 H25D_1 120.0 . . ?
C77D_1 C76D_1 H25D_1 120.0 . . ?
C78D_1 C77D_1 C76D_1 120.0 . . ?
C78D_1 C77D_1 C80D_1 119.15(19) . . ?
C76D_1 C77D_1 C80D_1 120.74(19) . . ?
C79D_1 C78D_1 C77D_1 120.0 . . ?
C79D_1 C78D_1 H27D_1 120.0 . . ?
C77D_1 C78D_1 H27D_1 120.0 . . ?
C78D_1 C79D_1 C74D_1 120.0 . . ?
C78D_1 C79D_1 H28D_1 120.0 . . ?
C74D_1 C79D_1 H28D_1 120.0 . . ?
O71_1 C80D_1 O72_1 124.3(4) . . ?
O71_1 C80D_1 C77D_1 119.2(4) . . ?
O72_1 C80D_1 C77D_1 116.5(3) . . ?
O76_1 C81E_1 O75_1 127.5(4) . . ?
O76_1 C81E_1 C82E_1 119.1(4) . . ?
O75_1 C81E_1 C82E_1 113.4(5) . . ?
C87E_1 C82E_1 C83E_1 121.6(3) . . ?
C87E_1 C82E_1 C81E_1 117.5(4) . . ?
C83E_1 C82E_1 C81E_1 120.8(4) . . ?
C82E_1 C83E_1 C84E_1 119.08(16) . . ?
C82E_1 C83E_1 H12E_1 120.5 . . ?
C84E_1 C83E_1 H12E_1 120.5 . . ?
C83E_1 C84E_1 C85E_1 120.0 . . ?
C83E_1 C84E_1 H13E_1 120.0 . . ?
C85E_1 C84E_1 H13E_1 120.0 . . ?
C86E_1 C85E_1 C84E_1 120.0 . . ?
C86E_1 C85E_1 C88E_1 119.7 . . ?
C84E_1 C85E_1 C88E_1 120.3 . . ?
C85E_1 C86E_1 C87E_1 120.0 . . ?
C85E_1 C86E_1 H15E_1 120.0 . . ?
C87E_1 C86E_1 H15E_1 120.0 . . ?
C82E_1 C87E_1 C86E_1 119.28(18) . . ?
C82E_1 C87E_1 H16E_1 120.5 . . ?
C86E_1 C87E_1 H16E_1 120.2 . . ?
C89E_1 C88E_1 C93E_1 120.0 . . ?
C89E_1 C88E_1 C85E_1 119.6 . . ?
C93E_1 C88E_1 C85E_1 120.4 . . ?
C88E_1 C89E_1 C90E_1 120.0 . . ?
C88E_1 C89E_1 H18E_1 120.0 . . ?
C90E_1 C89E_1 H18E_1 120.0 . . ?
C91E_1 C90E_1 C89E_1 120.0 . . ?
C91E_1 C90E_1 H19E_1 120.0 . . ?
C89E_1 C90E_1 H19E_1 120.0 . . ?
C90E_1 C91E_1 C92E_1 120.0 . . ?
C90E_1 C91E_1 C94E_1 119.8 . . ?
C92E_1 C91E_1 C94E_1 120.1 . . ?
C93E_1 C92E_1 C91E_1 120.0 . . ?
C93E_1 C92E_1 H21E_1 120.0 . . ?
C91E_1 C92E_1 H21E_1 120.0 . . ?
C92E_1 C93E_1 C88E_1 120.0 . . ?
C92E_1 C93E_1 H22E_1 120.0 . . ?
C88E_1 C93E_1 H22E_1 120.0 . . ?
C95E_1 C94E_1 C99E_1 120.0 . . ?
C95E_1 C94E_1 C91E_1 120.6 . . ?
C99E_1 C94E_1 C91E_1 119.3 . . ?
C94E_1 C95E_1 C96E_1 120.0 . . ?
C94E_1 C95E_1 H24E_1 120.0 . . ?
C96E_1 C95E_1 H24E_1 120.0 . . ?
C97E_1 C96E_1 C95E_1 120.0 . . ?
C97E_1 C96E_1 H25E_1 120.0 . . ?
C95E_1 C96E_1 H25E_1 120.0 . . ?
C96E_1 C97E_1 C98E_1 120.0 . . ?
C96E_1 C97E_1 C100_1 119.9(2) . . ?
C98E_1 C97E_1 C100_1 120.1(2) . . ?
C99E_1 C98E_1 C97E_1 120.0 . . ?
C99E_1 C98E_1 H27E_1 120.0 . . ?
C97E_1 C98E_1 H27E_1 120.0 . . ?
C98E_1 C99E_1 C94E_1 120.0 . . ?
C98E_1 C99E_1 H28E_1 120.0 . . ?
C94E_1 C99E_1 H28E_1 120.0 . . ?
O34_1 C100_1 O33_1 127.6(4) . . ?
O34_1 C100_1 C97E_1 116.2(4) . . ?
O33_1 C100_1 C97E_1 116.0(4) . . ?
O55_1 C101_1 O54_1 126.9(4) . . ?
O55_1 C101_1 C102_1 116.7(4) . . ?
O54_1 C101_1 C102_1 116.4(4) . . ?
C103_1 C102_1 C107_1 120.7(3) . . ?
C103_1 C102_1 C101_1 119.6(4) . . ?
C107_1 C102_1 C101_1 119.6(4) . . ?
C102_1 C103_1 C104_1 119.97(17) . . ?
C102_1 C103_1 H12F_1 120.0 . . ?
C104_1 C103_1 H12F_1 120.0 . . ?
C105_1 C104_1 C103_1 120.0 . . ?
C105_1 C104_1 H13F_1 120.0 . . ?
C103_1 C104_1 H13F_1 120.0 . . ?
C104_1 C105_1 C106_1 120.0 . . ?
C104_1 C105_1 C108_1 121.1 . . ?
C106_1 C105_1 C108_1 118.9 . . ?
C105_1 C106_1 C107_1 120.0 . . ?
C105_1 C106_1 H15F_1 120.0 . . ?
C107_1 C106_1 H15F_1 120.0 . . ?
C106_1 C107_1 C102_1 119.32(16) . . ?
C106_1 C107_1 H16F_1 120.5 . . ?
C102_1 C107_1 H16F_1 120.2 . . ?
C109_1 C108_1 C113_1 120.0 . . ?
C109_1 C108_1 C105_1 118.4 . . ?
C113_1 C108_1 C105_1 121.2 . . ?
C108_1 C109_1 C110_1 120.0 . . ?
C108_1 C109_1 H18F_1 120.0 . . ?
C110_1 C109_1 H18F_1 120.0 . . ?
C109_1 C110_1 C111_1 120.0 . . ?
C109_1 C110_1 H19F_1 120.0 . . ?
C111_1 C110_1 H19F_1 120.0 . . ?
C112_1 C111_1 C110_1 120.0 . . ?
C112_1 C111_1 C114_1 118.6 . . ?
C110_1 C111_1 C114_1 121.4 . . ?
C111_1 C112_1 C113_1 120.0 . . ?
C111_1 C112_1 H21F_1 120.0 . . ?
C113_1 C112_1 H21F_1 120.0 . . ?
C112_1 C113_1 C108_1 120.0 . . ?
C112_1 C113_1 H22F_1 120.0 . . ?
C108_1 C113_1 H22F_1 120.0 . . ?
C115_1 C114_1 C119_1 120.0 . . ?
C115_1 C114_1 C111_1 118.8 . . ?
C119_1 C114_1 C111_1 121.2 . . ?
C114_1 C115_1 C116_1 120.0 . . ?
C114_1 C115_1 H24F_1 120.0 . . ?
C116_1 C115_1 H24F_1 120.0 . . ?
C117_1 C116_1 C115_1 120.0 . . ?
C117_1 C116_1 H25F_1 120.0 . . ?
C115_1 C116_1 H25F_1 120.0 . . ?
C118_1 C117_1 C116_1 120.0 . . ?
C118_1 C117_1 C120_1 119.7(2) . . ?
C116_1 C117_1 C120_1 120.2(2) . . ?
C117_1 C118_1 C119_1 120.0 . . ?
C117_1 C118_1 H27F_1 120.0 . . ?
C119_1 C118_1 H27F_1 120.0 . . ?
C118_1 C119_1 C114_1 120.0 . . ?
C118_1 C119_1 H28F_1 120.0 . . ?
C114_1 C119_1 H28F_1 120.0 . . ?
O38_1 C120_1 O37_1 125.7(4) . . ?
O38_1 C120_1 C117_1 116.9(4) . . ?
O37_1 C120_1 C117_1 117.3(4) . . ?
C125_1 N1_1 C121_1 122.1(2) . . ?
C125_1 N1_1 Fe11_1 119.33(17) . . ?
C121_1 N1_1 Fe11_1 118.54(19) . . ?
N1_1 C121_1 C122_1 118.88(13) . . ?
N1_1 C121_1 H111_1 120.6 . . ?
C122_1 C121_1 H111_1 120.6 . . ?
C123_1 C122_1 C121_1 120.0 . . ?
C123_1 C122_1 H112_1 120.0 . . ?
C121_1 C122_1 H112_1 120.0 . . ?
C124_1 C123_1 C122_1 120.0 . . ?
C124_1 C123_1 H113_1 120.0 . . ?
C122_1 C123_1 H113_1 120.0 . . ?
C125_1 C124_1 C123_1 120.0 . . ?
C125_1 C124_1 H114_1 120.0 . . ?
C123_1 C124_1 H114_1 120.0 . . ?
N1_1 C125_1 C124_1 119.00(12) . . ?
N1_1 C125_1 H115_1 120.6 . . ?
C124_1 C125_1 H115_1 120.4 . . ?
C130_1 N2_1 C126_1 120.0 . . ?
C130_1 N2_1 Fe12_1 119.2 . . ?
C126_1 N2_1 Fe12_1 120.7 . . ?
C127_1 C126_1 N2_1 120.0 . . ?
C127_1 C126_1 H121_1 120.0 . . ?
N2_1 C126_1 H121_1 120.0 . . ?
C126_1 C127_1 C128_1 120.0 . . ?
C126_1 C127_1 H122_1 120.0 . . ?
C128_1 C127_1 H122_1 120.0 . . ?
C129_1 C128_1 C127_1 120.0 . . ?
C129_1 C128_1 H123_1 120.0 . . ?
C127_1 C128_1 H123_1 120.0 . . ?
C128_1 C129_1 C130_1 120.0 . . ?
C128_1 C129_1 H124_1 120.0 . . ?
C130_1 C129_1 H124_1 120.0 . . ?
N2_1 C130_1 C129_1 120.0 . . ?
N2_1 C130_1 H125_1 120.0 . . ?
C129_1 C130_1 H125_1 120.0 . . ?
C131_1 N3_1 C135_1 120.0 . . ?
C131_1 N3_1 Fe13_1 119.6 . . ?
C135_1 N3_1 Fe13_1 120.4 . . ?
C132_1 C131_1 N3_1 120.0 . . ?
C132_1 C131_1 H131_1 120.0 . . ?
N3_1 C131_1 H131_1 120.0 . . ?
C131_1 C132_1 C133_1 120.0 . . ?
C131_1 C132_1 H132_1 120.0 . . ?
C133_1 C132_1 H132_1 120.0 . . ?
C134_1 C133_1 C132_1 120.0 . . ?
C134_1 C133_1 H133_1 120.0 . . ?
C132_1 C133_1 H133_1 120.0 . . ?
C133_1 C134_1 C135_1 120.0 . . ?
C133_1 C134_1 H134_1 120.0 . . ?
C135_1 C134_1 H134_1 120.0 . . ?
C134_1 C135_1 N3_1 120.0 . . ?
C134_1 C135_1 H135_1 120.0 . . ?
N3_1 C135_1 H135_1 120.0 . . ?
C136_1 N4_1 C140_1 120.0 . . ?
C136_1 N4_1 Fe21_1 119.7 . . ?
C140_1 N4_1 Fe21_1 120.3 . . ?
C137_1 C136_1 N4_1 120.0 . . ?
C137_1 C136_1 H211_1 120.0 . . ?
N4_1 C136_1 H211_1 120.0 . . ?
C136_1 C137_1 C138_1 120.0 . . ?
C136_1 C137_1 H212_1 120.0 . . ?
C138_1 C137_1 H212_1 120.0 . . ?
C137_1 C138_1 C139_1 120.0 . . ?
C137_1 C138_1 H213_1 120.0 . . ?
C139_1 C138_1 H213_1 120.0 . . ?
C140_1 C139_1 C138_1 120.0 . . ?
C140_1 C139_1 H214_1 120.0 . . ?
C138_1 C139_1 H214_1 120.0 . . ?
C139_1 C140_1 N4_1 120.0 . . ?
C139_1 C140_1 H215_1 120.0 . . ?
N4_1 C140_1 H215_1 120.0 . . ?
C141_1 N5_1 C145_1 120.0 . . ?
C141_1 N5_1 Fe22_1 120.2 . . ?
C145_1 N5_1 Fe22_1 119.8 . . ?
N5_1 C141_1 C142_1 120.0 . . ?
N5_1 C141_1 H221_1 120.0 . . ?
C142_1 C141_1 H221_1 120.0 . . ?
C143_1 C142_1 C141_1 120.0 . . ?
C143_1 C142_1 H222_1 120.0 . . ?
C141_1 C142_1 H222_1 120.0 . . ?
C144_1 C143_1 C142_1 120.0 . . ?
C144_1 C143_1 H223_1 120.0 . . ?
C142_1 C143_1 H223_1 120.0 . . ?
C145_1 C144_1 C143_1 120.0 . . ?
C145_1 C144_1 H224_1 120.0 . . ?
C143_1 C144_1 H224_1 120.0 . . ?
C144_1 C145_1 N5_1 120.0 . . ?
C144_1 C145_1 H225_1 120.0 . . ?
N5_1 C145_1 H225_1 120.0 . . ?
C146_1 N6_1 C150_1 120.0 . . ?
C146_1 N6_1 Fe23_1 120.0 . . ?
C150_1 N6_1 Fe23_1 120.0 . . ?
N6_1 C146_1 C147_1 120.0 . . ?
N6_1 C146_1 H231_1 120.0 . . ?
C147_1 C146_1 H231_1 120.0 . . ?
C148_1 C147_1 C146_1 120.0 . . ?
C148_1 C147_1 H232_1 120.0 . . ?
C146_1 C147_1 H232_1 120.0 . . ?
C147_1 C148_1 C149_1 120.0 . . ?
C147_1 C148_1 H233_1 120.0 . . ?
C149_1 C148_1 H233_1 120.0 . . ?
C150_1 C149_1 C148_1 120.0 . . ?
C150_1 C149_1 H234_1 120.0 . . ?
C148_1 C149_1 H234_1 120.0 . . ?
C149_1 C150_1 N6_1 120.0 . . ?
C149_1 C150_1 H235_1 120.0 . . ?
N6_1 C150_1 H235_1 120.0 . . ?
C151_1 N7_1 C155_1 120.0 . . ?
C151_1 N7_1 Fe31_1 120.1 . . ?
C155_1 N7_1 Fe31_1 119.9 . . ?
N7_1 C151_1 C152_1 120.0 . . ?
N7_1 C151_1 H311_1 120.0 . . ?
C152_1 C151_1 H311_1 120.0 . . ?
C151_1 C152_1 C153_1 120.0 . . ?
C151_1 C152_1 H312_1 120.0 . . ?
C153_1 C152_1 H312_1 120.0 . . ?
C154_1 C153_1 C152_1 120.0 . . ?
C154_1 C153_1 H313_1 120.0 . . ?
C152_1 C153_1 H313_1 120.0 . . ?
C153_1 C154_1 C155_1 120.0 . . ?
C153_1 C154_1 H314_1 120.0 . . ?
C155_1 C154_1 H314_1 120.0 . . ?
C154_1 C155_1 N7_1 120.0 . . ?
C154_1 C155_1 H315_1 120.0 . . ?
N7_1 C155_1 H315_1 120.0 . . ?
C160_1 N8_1 C156_1 120.0 . . ?
C160_1 N8_1 Fe32_1 119.4 . . ?
C156_1 N8_1 Fe32_1 120.5 . . ?
C157_1 C156_1 N8_1 120.0 . . ?
C157_1 C156_1 H321_1 120.0 . . ?
N8_1 C156_1 H321_1 120.0 . . ?
C156_1 C157_1 C158_1 120.0 . . ?
C156_1 C157_1 H322_1 120.0 . . ?
C158_1 C157_1 H322_1 120.0 . . ?
C157_1 C158_1 C159_1 120.0 . . ?
C157_1 C158_1 H323_1 120.0 . . ?
C159_1 C158_1 H323_1 120.0 . . ?
C158_1 C159_1 C160_1 120.0 . . ?
C158_1 C159_1 H324_1 120.0 . . ?
C160_1 C159_1 H324_1 120.0 . . ?
N8_1 C160_1 C159_1 120.0 . . ?
N8_1 C160_1 H325_1 120.0 . . ?
C159_1 C160_1 H325_1 120.0 . . ?
C161_1 N9_1 C165_1 120.0 . . ?
C161_1 N9_1 Fe33_1 119.2 . . ?
C165_1 N9_1 Fe33_1 120.7 . . ?
N9_1 C161_1 C162_1 120.0 . . ?
N9_1 C161_1 H331_1 120.0 . . ?
C162_1 C161_1 H331_1 120.0 . . ?
C161_1 C162_1 C163_1 120.0 . . ?
C161_1 C162_1 H332_1 120.0 . . ?
C163_1 C162_1 H332_1 120.0 . . ?
C164_1 C163_1 C162_1 120.0 . . ?
C164_1 C163_1 H333_1 120.0 . . ?
C162_1 C163_1 H333_1 120.0 . . ?
C163_1 C164_1 C165_1 120.0 . . ?
C163_1 C164_1 H334_1 120.0 . . ?
C165_1 C164_1 H334_1 120.0 . . ?
C164_1 C165_1 N9_1 120.0 . . ?
C164_1 C165_1 H335_1 120.0 . . ?
N9_1 C165_1 H335_1 120.0 . . ?
C170_1 N10_1 C166_1 120.0 . . ?
C170_1 N10_1 Fe41_1 120.2 . . ?
C166_1 N10_1 Fe41_1 119.7 . . ?
C167_1 C166_1 N10_1 120.0 . . ?
C167_1 C166_1 H411_1 120.0 . . ?
N10_1 C166_1 H411_1 120.0 . . ?
C168_1 C167_1 C166_1 120.0 . . ?
C168_1 C167_1 H412_1 120.0 . . ?
C166_1 C167_1 H412_1 120.0 . . ?
C169_1 C168_1 C167_1 120.0 . . ?
C169_1 C168_1 H413_1 120.0 . . ?
C167_1 C168_1 H413_1 120.0 . . ?
C168_1 C169_1 C170_1 120.0 . . ?
C168_1 C169_1 H414_1 120.0 . . ?
C170_1 C169_1 H414_1 120.0 . . ?
C169_1 C170_1 N10_1 120.0 . . ?
C169_1 C170_1 H415_1 120.0 . . ?
N10_1 C170_1 H415_1 120.0 . . ?
C171_1 N11_1 C175_1 120.0 . . ?
C171_1 N11_1 Fe42_1 119.3 . . ?
C175_1 N11_1 Fe42_1 120.7 . . ?
N11_1 C171_1 C172_1 120.0 . . ?
N11_1 C171_1 H421_1 120.0 . . ?
C172_1 C171_1 H421_1 120.0 . . ?
C173_1 C172_1 C171_1 120.0 . . ?
C173_1 C172_1 H422_1 120.0 . . ?
C171_1 C172_1 H422_1 120.0 . . ?
C172_1 C173_1 C174_1 120.0 . . ?
C172_1 C173_1 H423_1 120.0 . . ?
C174_1 C173_1 H423_1 120.0 . . ?
C175_1 C174_1 C173_1 120.0 . . ?
C175_1 C174_1 H424_1 120.0 . . ?
C173_1 C174_1 H424_1 120.0 . . ?
C174_1 C175_1 N11_1 120.0 . . ?
C174_1 C175_1 H425_1 120.0 . . ?
N11_1 C175_1 H425_1 120.0 . . ?
C180_1 N12_1 C176_1 120.0 . . ?
C180_1 N12_1 Fe43_1 119.4 . . ?
C176_1 N12_1 Fe43_1 120.6 . . ?
C177_1 C176_1 N12_1 120.0 . . ?
C177_1 C176_1 H431_1 120.0 . . ?
N12_1 C176_1 H431_1 120.0 . . ?
C176_1 C177_1 C178_1 120.0 . . ?
C176_1 C177_1 H432_1 120.0 . . ?
C178_1 C177_1 H432_1 120.0 . . ?
C179_1 C178_1 C177_1 120.0 . . ?
C179_1 C178_1 H433_1 120.0 . . ?
C177_1 C178_1 H433_1 120.0 . . ?
C178_1 C179_1 C180_1 120.0 . . ?
C178_1 C179_1 H434_1 120.0 . . ?
C180_1 C179_1 H434_1 120.0 . . ?
N12_1 C180_1 C179_1 120.0 . . ?
N12_1 C180_1 H435_1 120.0 . . ?
C179_1 C180_1 H435_1 120.0 . . ?

loop_
_geom_torsion_atom_site_label_1
_geom_torsion_atom_site_label_2
_geom_torsion_atom_site_label_3
_geom_torsion_atom_site_label_4
_geom_torsion
_geom_torsion_site_symmetry_1
_geom_torsion_site_symmetry_2
_geom_torsion_site_symmetry_3
_geom_torsion_site_symmetry_4
_geom_torsion_publ_flag
O9_1 Fe11_1 Fe12_1 O1_1 48.86(14) . . . . ?
O10_1 Fe11_1 Fe12_1 O1_1 130.04(13) . . . . ?
O17_1 Fe11_1 Fe12_1 O1_1 -56.94(14) . . . . ?
O18_1 Fe11_1 Fe12_1 O1_1 -134.27(13) . . . . ?
N1_1 Fe11_1 Fe12_1 O1_1 -174.21(18) . . . . ?
Fe13_1 Fe11_1 Fe12_1 O1_1 -1.88(11) . . . . ?
O1_1 Fe11_1 Fe12_1 O13_1 -133.55(13) . . . . ?
O9_1 Fe11_1 Fe12_1 O13_1 -84.70(11) . . . . ?
O10_1 Fe11_1 Fe12_1 O13_1 -3.52(10) . . . . ?
O17_1 Fe11_1 Fe12_1 O13_1 169.50(11) . . . . ?
O18_1 Fe11_1 Fe12_1 O13_1 92.18(10) . . . . ?
N1_1 Fe11_1 Fe12_1 O13_1 52.24(16) . . . . ?
Fe13_1 Fe11_1 Fe12_1 O13_1 -135.43(7) . . . . ?
O1_1 Fe11_1 Fe12_1 O2_1 -52.21(13) . . . . ?
O9_1 Fe11_1 Fe12_1 O2_1 -3.35(11) . . . . ?
O10_1 Fe11_1 Fe12_1 O2_1 77.83(10) . . . . ?
O17_1 Fe11_1 Fe12_1 O2_1 -109.15(11) . . . . ?
O18_1 Fe11_1 Fe12_1 O2_1 173.53(10) . . . . ?
N1_1 Fe11_1 Fe12_1 O2_1 133.59(16) . . . . ?
Fe13_1 Fe11_1 Fe12_1 O2_1 -54.09(7) . . . . ?
O1_1 Fe11_1 Fe12_1 O19_1 132.16(13) . . . . ?
O9_1 Fe11_1 Fe12_1 O19_1 -178.98(11) . . . . ?
O10_1 Fe11_1 Fe12_1 O19_1 -97.80(10) . . . . ?
O17_1 Fe11_1 Fe12_1 O19_1 75.22(11) . . . . ?
O18_1 Fe11_1 Fe12_1 O19_1 -2.11(10) . . . . ?
N1_1 Fe11_1 Fe12_1 O19_1 -42.05(16) . . . . ?
Fe13_1 Fe11_1 Fe12_1 O19_1 130.28(7) . . . . ?
O1_1 Fe11_1 Fe12_1 O14_1 54.19(13) . . . . ?
O9_1 Fe11_1 Fe12_1 O14_1 103.05(11) . . . . ?
O10_1 Fe11_1 Fe12_1 O14_1 -175.77(10) . . . . ?
O17_1 Fe11_1 Fe12_1 O14_1 -2.75(11) . . . . ?
O18_1 Fe11_1 Fe12_1 O14_1 -80.08(10) . . . . ?
N1_1 Fe11_1 Fe12_1 O14_1 -120.02(16) . . . . ?
Fe13_1 Fe11_1 Fe12_1 O14_1 52.31(8) . . . . ?
O1_1 Fe11_1 Fe12_1 N2_1 176.12(12) . . . . ?
O9_1 Fe11_1 Fe12_1 N2_1 -135.03(9) . . . . ?
O10_1 Fe11_1 Fe12_1 N2_1 -53.85(9) . . . . ?
O17_1 Fe11_1 Fe12_1 N2_1 119.17(9) . . . . ?
O18_1 Fe11_1 Fe12_1 N2_1 41.85(9) . . . . ?
N1_1 Fe11_1 Fe12_1 N2_1 1.91(16) . . . . ?
Fe13_1 Fe11_1 Fe12_1 N2_1 174.24(5) . . . . ?
O1_1 Fe11_1 Fe12_1 Fe13_1 1.88(11) . . . . ?
O9_1 Fe11_1 Fe12_1 Fe13_1 50.74(8) . . . . ?
O10_1 Fe11_1 Fe12_1 Fe13_1 131.92(7) . . . . ?
O17_1 Fe11_1 Fe12_1 Fe13_1 -55.06(8) . . . . ?
O18_1 Fe11_1 Fe12_1 Fe13_1 -132.39(7) . . . . ?
N1_1 Fe11_1 Fe12_1 Fe13_1 -172.33(14) . . . . ?
O9_1 Fe11_1 Fe13_1 O1_1 -134.04(13) . . . . ?
O10_1 Fe11_1 Fe13_1 O1_1 -52.43(13) . . . . ?
O17_1 Fe11_1 Fe13_1 O1_1 130.29(13) . . . . ?
O18_1 Fe11_1 Fe13_1 O1_1 53.51(13) . . . . ?
N1_1 Fe11_1 Fe13_1 O1_1 174.12(18) . . . . ?
Fe12_1 Fe11_1 Fe13_1 O1_1 1.89(11) . . . . ?
O1_1 Fe11_1 Fe13_1 O6_1 131.33(13) . . . . ?
O9_1 Fe11_1 Fe13_1 O6_1 -2.71(10) . . . . ?
O10_1 Fe11_1 Fe13_1 O6_1 78.90(10) . . . . ?
O17_1 Fe11_1 Fe13_1 O6_1 -98.37(10) . . . . ?
O18_1 Fe11_1 Fe13_1 O6_1 -175.15(10) . . . . ?
N1_1 Fe11_1 Fe13_1 O6_1 -54.55(16) . . . . ?
Fe12_1 Fe11_1 Fe13_1 O6_1 133.23(7) . . . . ?
O1_1 Fe11_1 Fe13_1 O5_1 49.89(14) . . . . ?
O9_1 Fe11_1 Fe13_1 O5_1 -84.15(10) . . . . ?
O10_1 Fe11_1 Fe13_1 O5_1 -2.54(11) . . . . ?
O17_1 Fe11_1 Fe13_1 O5_1 -179.82(11) . . . . ?
O18_1 Fe11_1 Fe13_1 O5_1 103.40(11) . . . . ?
N1_1 Fe11_1 Fe13_1 O5_1 -135.99(16) . . . . ?
Fe12_1 Fe11_1 Fe13_1 O5_1 51.78(8) . . . . ?
O1_1 Fe11_1 Fe13_1 O15_1 -55.57(13) . . . . ?
O9_1 Fe11_1 Fe13_1 O15_1 170.39(10) . . . . ?
O10_1 Fe11_1 Fe13_1 O15_1 -108.00(11) . . . . ?
O17_1 Fe11_1 Fe13_1 O15_1 74.72(11) . . . . ?
O18_1 Fe11_1 Fe13_1 O15_1 -2.06(11) . . . . ?
N1_1 Fe11_1 Fe13_1 O15_1 118.55(16) . . . . ?
Fe12_1 Fe11_1 Fe13_1 O15_1 -53.68(8) . . . . ?
O1_1 Fe11_1 Fe13_1 O16_1 -133.22(13) . . . . ?
O9_1 Fe11_1 Fe13_1 O16_1 92.73(10) . . . . ?
O10_1 Fe11_1 Fe13_1 O16_1 174.34(10) . . . . ?
O17_1 Fe11_1 Fe13_1 O16_1 -2.93(10) . . . . ?
O18_1 Fe11_1 Fe13_1 O16_1 -79.71(10) . . . . ?
N1_1 Fe11_1 Fe13_1 O16_1 40.90(16) . . . . ?
Fe12_1 Fe11_1 Fe13_1 O16_1 -131.33(7) . . . . ?
O1_1 Fe11_1 Fe13_1 N3_1 -173.41(13) . . . . ?
O9_1 Fe11_1 Fe13_1 N3_1 52.55(9) . . . . ?
O10_1 Fe11_1 Fe13_1 N3_1 134.16(9) . . . . ?
O17_1 Fe11_1 Fe13_1 N3_1 -43.12(9) . . . . ?
O18_1 Fe11_1 Fe13_1 N3_1 -119.90(9) . . . . ?
N1_1 Fe11_1 Fe13_1 N3_1 0.71(16) . . . . ?
Fe12_1 Fe11_1 Fe13_1 N3_1 -171.52(6) . . . . ?
O1_1 Fe11_1 Fe13_1 Fe12_1 -1.89(11) . . . . ?
O9_1 Fe11_1 Fe13_1 Fe12_1 -135.93(7) . . . . ?
O10_1 Fe11_1 Fe13_1 Fe12_1 -54.33(7) . . . . ?
O17_1 Fe11_1 Fe13_1 Fe12_1 128.40(7) . . . . ?
O18_1 Fe11_1 Fe13_1 Fe12_1 51.62(8) . . . . ?
N1_1 Fe11_1 Fe13_1 Fe12_1 172.23(15) . . . . ?
O13_1 Fe12_1 Fe13_1 O1_1 49.30(14) . . . . ?
O2_1 Fe12_1 Fe13_1 O1_1 129.99(13) . . . . ?
O19_1 Fe12_1 Fe13_1 O1_1 -55.54(13) . . . . ?
O14_1 Fe12_1 Fe13_1 O1_1 -133.73(13) . . . . ?
N2_1 Fe12_1 Fe13_1 O1_1 -176.45(12) . . . . ?
Fe11_1 Fe12_1 Fe13_1 O1_1 -1.91(11) . . . . ?
O1_1 Fe12_1 Fe13_1 O6_1 -51.40(14) . . . . ?
O13_1 Fe12_1 Fe13_1 O6_1 -2.11(11) . . . . ?
O2_1 Fe12_1 Fe13_1 O6_1 78.58(10) . . . . ?
O19_1 Fe12_1 Fe13_1 O6_1 -106.95(11) . . . . ?
O14_1 Fe12_1 Fe13_1 O6_1 174.87(10) . . . . ?
N2_1 Fe12_1 Fe13_1 O6_1 132.14(9) . . . . ?
Fe11_1 Fe12_1 Fe13_1 O6_1 -53.32(8) . . . . ?
O1_1 Fe12_1 Fe13_1 O5_1 -132.73(13) . . . . ?
O13_1 Fe12_1 Fe13_1 O5_1 -83.43(10) . . . . ?
O2_1 Fe12_1 Fe13_1 O5_1 -2.74(10) . . . . ?
O19_1 Fe12_1 Fe13_1 O5_1 171.73(10) . . . . ?
O14_1 Fe12_1 Fe13_1 O5_1 93.54(10) . . . . ?
N2_1 Fe12_1 Fe13_1 O5_1 50.82(9) . . . . ?
Fe11_1 Fe12_1 Fe13_1 O5_1 -134.64(7) . . . . ?
O1_1 Fe12_1 Fe13_1 O15_1 131.62(13) . . . . ?
O13_1 Fe12_1 Fe13_1 O15_1 -179.08(11) . . . . ?
O2_1 Fe12_1 Fe13_1 O15_1 -98.39(10) . . . . ?
O19_1 Fe12_1 Fe13_1 O15_1 76.08(10) . . . . ?
O14_1 Fe12_1 Fe13_1 O15_1 -2.11(10) . . . . ?
N2_1 Fe12_1 Fe13_1 O15_1 -44.83(9) . . . . ?
Fe11_1 Fe12_1 Fe13_1 O15_1 129.71(7) . . . . ?
O1_1 Fe12_1 Fe13_1 O16_1 54.05(14) . . . . ?
O13_1 Fe12_1 Fe13_1 O16_1 103.35(11) . . . . ?
O2_1 Fe12_1 Fe13_1 O16_1 -175.97(10) . . . . ?
O19_1 Fe12_1 Fe13_1 O16_1 -1.50(11) . . . . ?
O14_1 Fe12_1 Fe13_1 O16_1 -79.68(10) . . . . ?
N2_1 Fe12_1 Fe13_1 O16_1 -122.41(9) . . . . ?
Fe11_1 Fe12_1 Fe13_1 O16_1 52.14(8) . . . . ?
O1_1 Fe12_1 Fe13_1 N3_1 173.82(13) . . . . ?
O13_1 Fe12_1 Fe13_1 N3_1 -136.88(9) . . . . ?
O2_1 Fe12_1 Fe13_1 N3_1 -56.19(8) . . . . ?
O19_1 Fe12_1 Fe13_1 N3_1 118.28(9) . . . . ?
O14_1 Fe12_1 Fe13_1 N3_1 40.09(8) . . . . ?
N2_1 Fe12_1 Fe13_1 N3_1 -2.63(7) . . . . ?
Fe11_1 Fe12_1 Fe13_1 N3_1 171.91(5) . . . . ?
O1_1 Fe12_1 Fe13_1 Fe11_1 1.91(11) . . . . ?
O13_1 Fe12_1 Fe13_1 Fe11_1 51.21(8) . . . . ?
O2_1 Fe12_1 Fe13_1 Fe11_1 131.90(7) . . . . ?
O19_1 Fe12_1 Fe13_1 Fe11_1 -53.63(7) . . . . ?
O14_1 Fe12_1 Fe13_1 Fe11_1 -131.82(7) . . . . ?
N2_1 Fe12_1 Fe13_1 Fe11_1 -174.54(5) . . . . ?
O21_1 Fe21_1 Fe22_1 O20_1 134.26(13) . . . . ?
O32_1 Fe21_1 Fe22_1 O20_1 53.29(13) . . . . ?
O33_1 Fe21_1 Fe22_1 O20_1 -130.01(13) . . . . ?
O38_1 Fe21_1 Fe22_1 O20_1 -52.20(14) . . . . ?
N4_1 Fe21_1 Fe22_1 O20_1 -176.31(12) . . . . ?
Fe23_1 Fe21_1 Fe22_1 O20_1 -1.30(11) . . . . ?
O20_1 Fe21_1 Fe22_1 O25_1 -51.39(13) . . . . ?
O21_1 Fe21_1 Fe22_1 O25_1 82.87(11) . . . . ?
O32_1 Fe21_1 Fe22_1 O25_1 1.90(11) . . . . ?
O33_1 Fe21_1 Fe22_1 O25_1 178.60(11) . . . . ?
O38_1 Fe21_1 Fe22_1 O25_1 -103.58(12) . . . . ?
N4_1 Fe21_1 Fe22_1 O25_1 132.30(9) . . . . ?
Fe23_1 Fe21_1 Fe22_1 O25_1 -52.69(8) . . . . ?
O20_1 Fe21_1 Fe22_1 O24_1 -133.14(13) . . . . ?
O21_1 Fe21_1 Fe22_1 O24_1 1.12(10) . . . . ?
O32_1 Fe21_1 Fe22_1 O24_1 -79.85(10) . . . . ?
O33_1 Fe21_1 Fe22_1 O24_1 96.85(10) . . . . ?
O38_1 Fe21_1 Fe22_1 O24_1 174.66(11) . . . . ?
N4_1 Fe21_1 Fe22_1 O24_1 50.55(9) . . . . ?
Fe23_1 Fe21_1 Fe22_1 O24_1 -134.44(7) . . . . ?
O20_1 Fe21_1 Fe22_1 O34_1 131.01(13) . . . . ?
O21_1 Fe21_1 Fe22_1 O34_1 -94.73(10) . . . . ?
O32_1 Fe21_1 Fe22_1 O34_1 -175.70(11) . . . . ?
O33_1 Fe21_1 Fe22_1 O34_1 1.00(11) . . . . ?
O38_1 Fe21_1 Fe22_1 O34_1 78.81(11) . . . . ?
N4_1 Fe21_1 Fe22_1 O34_1 -45.30(9) . . . . ?
Fe23_1 Fe21_1 Fe22_1 O34_1 129.71(8) . . . . ?
O20_1 Fe21_1 Fe22_1 O35_1 53.88(14) . . . . ?
O21_1 Fe21_1 Fe22_1 O35_1 -171.86(11) . . . . ?
O32_1 Fe21_1 Fe22_1 O35_1 107.17(11) . . . . ?
O33_1 Fe21_1 Fe22_1 O35_1 -76.13(11) . . . . ?
O38_1 Fe21_1 Fe22_1 O35_1 1.68(12) . . . . ?
N4_1 Fe21_1 Fe22_1 O35_1 -122.43(9) . . . . ?
Fe23_1 Fe21_1 Fe22_1 O35_1 52.58(8) . . . . ?
O20_1 Fe21_1 Fe22_1 N5_1 174.19(12) . . . . ?
O21_1 Fe21_1 Fe22_1 N5_1 -51.55(9) . . . . ?
O32_1 Fe21_1 Fe22_1 N5_1 -132.52(9) . . . . ?
O33_1 Fe21_1 Fe22_1 N5_1 44.18(9) . . . . ?
O38_1 Fe21_1 Fe22_1 N5_1 121.99(10) . . . . ?
N4_1 Fe21_1 Fe22_1 N5_1 -2.13(7) . . . . ?
Fe23_1 Fe21_1 Fe22_1 N5_1 172.89(5) . . . . ?
O20_1 Fe21_1 Fe22_1 Fe23_1 1.30(11) . . . . ?
O21_1 Fe21_1 Fe22_1 Fe23_1 135.56(7) . . . . ?
O32_1 Fe21_1 Fe22_1 Fe23_1 54.59(8) . . . . ?
O33_1 Fe21_1 Fe22_1 Fe23_1 -128.71(8) . . . . ?
O38_1 Fe21_1 Fe22_1 Fe23_1 -50.90(8) . . . . ?
N4_1 Fe21_1 Fe22_1 Fe23_1 -175.01(5) . . . . ?
O25_1 Fe22_1 Fe23_1 O20_1 132.34(13) . . . . ?
O24_1 Fe22_1 Fe23_1 O20_1 50.90(14) . . . . ?
O34_1 Fe22_1 Fe23_1 O20_1 -54.58(14) . . . . ?
O35_1 Fe22_1 Fe23_1 O20_1 -132.05(13) . . . . ?
N5_1 Fe22_1 Fe23_1 O20_1 -173.73(12) . . . . ?
Fe21_1 Fe22_1 Fe23_1 O20_1 -1.29(11) . . . . ?
O20_1 Fe22_1 Fe23_1 O28_1 -133.86(13) . . . . ?
O25_1 Fe22_1 Fe23_1 O28_1 -1.52(11) . . . . ?
O24_1 Fe22_1 Fe23_1 O28_1 -82.96(11) . . . . ?
O34_1 Fe22_1 Fe23_1 O28_1 171.56(11) . . . . ?
O35_1 Fe22_1 Fe23_1 O28_1 94.09(10) . . . . ?
N5_1 Fe22_1 Fe23_1 O28_1 52.41(9) . . . . ?
Fe21_1 Fe22_1 Fe23_1 O28_1 -135.15(7) . . . . ?
O20_1 Fe22_1 Fe23_1 O29_1 -52.53(14) . . . . ?
O25_1 Fe22_1 Fe23_1 O29_1 79.81(11) . . . . ?
O24_1 Fe22_1 Fe23_1 O29_1 -1.63(12) . . . . ?
O34_1 Fe22_1 Fe23_1 O29_1 -107.11(12) . . . . ?
O35_1 Fe22_1 Fe23_1 O29_1 175.42(11) . . . . ?
N5_1 Fe22_1 Fe23_1 O29_1 133.74(9) . . . . ?
Fe21_1 Fe22_1 Fe23_1 O29_1 -53.82(8) . . . . ?
O20_1 Fe22_1 Fe23_1 O36_1 130.71(14) . . . . ?
O25_1 Fe22_1 Fe23_1 O36_1 -96.95(11) . . . . ?
O24_1 Fe22_1 Fe23_1 O36_1 -178.38(11) . . . . ?
O34_1 Fe22_1 Fe23_1 O36_1 76.13(11) . . . . ?
O35_1 Fe22_1 Fe23_1 O36_1 -1.34(11) . . . . ?
N5_1 Fe22_1 Fe23_1 O36_1 -43.02(9) . . . . ?
Fe21_1 Fe22_1 Fe23_1 O36_1 129.42(8) . . . . ?
O20_1 Fe22_1 Fe23_1 O37_1 53.02(14) . . . . ?
O25_1 Fe22_1 Fe23_1 O37_1 -174.65(12) . . . . ?
O24_1 Fe22_1 Fe23_1 O37_1 103.92(12) . . . . ?
O34_1 Fe22_1 Fe23_1 O37_1 -1.56(12) . . . . ?
O35_1 Fe22_1 Fe23_1 O37_1 -79.04(12) . . . . ?
N5_1 Fe22_1 Fe23_1 O37_1 -120.71(10) . . . . ?
Fe21_1 Fe22_1 Fe23_1 O37_1 51.72(9) . . . . ?
O20_1 Fe22_1 Fe23_1 N6_1 174.68(12) . . . . ?
O25_1 Fe22_1 Fe23_1 N6_1 -52.98(9) . . . . ?
O24_1 Fe22_1 Fe23_1 N6_1 -134.42(9) . . . . ?
O34_1 Fe22_1 Fe23_1 N6_1 120.10(10) . . . . ?
O35_1 Fe22_1 Fe23_1 N6_1 42.62(9) . . . . ?
N5_1 Fe22_1 Fe23_1 N6_1 0.95(7) . . . . ?
Fe21_1 Fe22_1 Fe23_1 N6_1 173.39(5) . . . . ?
O20_1 Fe22_1 Fe23_1 Fe21_1 1.29(11) . . . . ?
O25_1 Fe22_1 Fe23_1 Fe21_1 133.63(8) . . . . ?
O24_1 Fe22_1 Fe23_1 Fe21_1 52.20(8) . . . . ?
O34_1 Fe22_1 Fe23_1 Fe21_1 -53.29(8) . . . . ?
O35_1 Fe22_1 Fe23_1 Fe21_1 -130.76(8) . . . . ?
N5_1 Fe22_1 Fe23_1 Fe21_1 -172.44(5) . . . . ?
O21_1 Fe21_1 Fe23_1 O20_1 -49.71(14) . . . . ?
O32_1 Fe21_1 Fe23_1 O20_1 -129.71(14) . . . . ?
O33_1 Fe21_1 Fe23_1 O20_1 56.84(14) . . . . ?
O38_1 Fe21_1 Fe23_1 O20_1 134.72(13) . . . . ?
N4_1 Fe21_1 Fe23_1 O20_1 176.33(12) . . . . ?
Fe22_1 Fe21_1 Fe23_1 O20_1 1.32(11) . . . . ?
O20_1 Fe21_1 Fe23_1 O28_1 50.23(14) . . . . ?
O21_1 Fe21_1 Fe23_1 O28_1 0.52(12) . . . . ?
O32_1 Fe21_1 Fe23_1 O28_1 -79.48(11) . . . . ?
O33_1 Fe21_1 Fe23_1 O28_1 107.07(12) . . . . ?
O38_1 Fe21_1 Fe23_1 O28_1 -175.05(11) . . . . ?
N4_1 Fe21_1 Fe23_1 O28_1 -133.44(9) . . . . ?
Fe22_1 Fe21_1 Fe23_1 O28_1 51.55(8) . . . . ?
O20_1 Fe21_1 Fe23_1 O29_1 131.17(14) . . . . ?
O21_1 Fe21_1 Fe23_1 O29_1 81.46(11) . . . . ?
O32_1 Fe21_1 Fe23_1 O29_1 1.46(11) . . . . ?
O33_1 Fe21_1 Fe23_1 O29_1 -171.99(12) . . . . ?
O38_1 Fe21_1 Fe23_1 O29_1 -94.11(11) . . . . ?
N4_1 Fe21_1 Fe23_1 O29_1 -52.50(9) . . . . ?
Fe22_1 Fe21_1 Fe23_1 O29_1 132.49(8) . . . . ?
O20_1 Fe21_1 Fe23_1 O36_1 -55.69(14) . . . . ?
O21_1 Fe21_1 Fe23_1 O36_1 -105.40(12) . . . . ?
O32_1 Fe21_1 Fe23_1 O36_1 174.60(11) . . . . ?
O33_1 Fe21_1 Fe23_1 O36_1 1.15(12) . . . . ?
O38_1 Fe21_1 Fe23_1 O36_1 79.03(11) . . . . ?
N4_1 Fe21_1 Fe23_1 O36_1 120.64(9) . . . . ?
Fe22_1 Fe21_1 Fe23_1 O36_1 -54.37(8) . . . . ?
O20_1 Fe21_1 Fe23_1 O37_1 -134.09(14) . . . . ?
O21_1 Fe21_1 Fe23_1 O37_1 176.20(11) . . . . ?
O32_1 Fe21_1 Fe23_1 O37_1 96.20(11) . . . . ?
O33_1 Fe21_1 Fe23_1 O37_1 -77.25(12) . . . . ?
O38_1 Fe21_1 Fe23_1 O37_1 0.63(11) . . . . ?
N4_1 Fe21_1 Fe23_1 O37_1 42.24(9) . . . . ?
Fe22_1 Fe21_1 Fe23_1 O37_1 -132.77(8) . . . . ?
O20_1 Fe21_1 Fe23_1 N6_1 -174.56(13) . . . . ?
O21_1 Fe21_1 Fe23_1 N6_1 135.73(9) . . . . ?
O32_1 Fe21_1 Fe23_1 N6_1 55.73(9) . . . . ?
O33_1 Fe21_1 Fe23_1 N6_1 -117.72(10) . . . . ?
O38_1 Fe21_1 Fe23_1 N6_1 -39.84(9) . . . . ?
N4_1 Fe21_1 Fe23_1 N6_1 1.77(7) . . . . ?
Fe22_1 Fe21_1 Fe23_1 N6_1 -173.24(5) . . . . ?
O20_1 Fe21_1 Fe23_1 Fe22_1 -1.32(11) . . . . ?
O21_1 Fe21_1 Fe23_1 Fe22_1 -51.03(8) . . . . ?
O32_1 Fe21_1 Fe23_1 Fe22_1 -131.03(8) . . . . ?
O33_1 Fe21_1 Fe23_1 Fe22_1 55.52(9) . . . . ?
O38_1 Fe21_1 Fe23_1 Fe22_1 133.40(8) . . . . ?
N4_1 Fe21_1 Fe23_1 Fe22_1 175.01(5) . . . . ?
O51_1 Fe31_1 Fe32_1 O39_1 50.32(17) . . . . ?
O40_1 Fe31_1 Fe32_1 O39_1 132.47(16) . . . . ?
O57_1 Fe31_1 Fe32_1 O39_1 -55.41(15) . . . . ?
O52_1 Fe31_1 Fe32_1 O39_1 -132.52(15) . . . . ?
N7_1 Fe31_1 Fe32_1 O39_1 -174.71(14) . . . . ?
Fe33_1 Fe31_1 Fe32_1 O39_1 -1.78(13) . . . . ?
O39_1 Fe31_1 Fe32_1 O44_1 -50.33(15) . . . . ?
O51_1 Fe31_1 Fe32_1 O44_1 -0.01(14) . . . . ?
O40_1 Fe31_1 Fe32_1 O44_1 82.14(13) . . . . ?
O57_1 Fe31_1 Fe32_1 O44_1 -105.74(12) . . . . ?
O52_1 Fe31_1 Fe32_1 O44_1 177.15(12) . . . . ?
N7_1 Fe31_1 Fe32_1 O44_1 134.95(10) . . . . ?
Fe33_1 Fe31_1 Fe32_1 O44_1 -52.11(8) . . . . ?
O39_1 Fe31_1 Fe32_1 O43_1 -131.79(15) . . . . ?
O51_1 Fe31_1 Fe32_1 O43_1 -81.47(14) . . . . ?
O40_1 Fe31_1 Fe32_1 O43_1 0.68(13) . . . . ?
O57_1 Fe31_1 Fe32_1 O43_1 172.79(12) . . . . ?
O52_1 Fe31_1 Fe32_1 O43_1 95.69(12) . . . . ?
N7_1 Fe31_1 Fe32_1 O43_1 53.49(10) . . . . ?
Fe33_1 Fe31_1 Fe32_1 O43_1 -133.58(8) . . . . ?
O39_1 Fe31_1 Fe32_1 O54_1 55.32(15) . . . . ?
O51_1 Fe31_1 Fe32_1 O54_1 105.65(14) . . . . ?
O40_1 Fe31_1 Fe32_1 O54_1 -172.21(13) . . . . ?
O57_1 Fe31_1 Fe32_1 O54_1 -0.09(13) . . . . ?
O52_1 Fe31_1 Fe32_1 O54_1 -77.20(12) . . . . ?
N7_1 Fe31_1 Fe32_1 O54_1 -119.39(10) . . . . ?
Fe33_1 Fe31_1 Fe32_1 O54_1 53.54(9) . . . . ?
O39_1 Fe31_1 Fe32_1 O53_1 132.57(15) . . . . ?
O51_1 Fe31_1 Fe32_1 O53_1 -177.11(13) . . . . ?
O40_1 Fe31_1 Fe32_1 O53_1 -94.96(12) . . . . ?
O57_1 Fe31_1 Fe32_1 O53_1 77.16(12) . . . . ?
O52_1 Fe31_1 Fe32_1 O53_1 0.05(11) . . . . ?
N7_1 Fe31_1 Fe32_1 O53_1 -42.15(10) . . . . ?
Fe33_1 Fe31_1 Fe32_1 O53_1 130.79(8) . . . . ?
O39_1 Fe31_1 Fe32_1 N8_1 173.68(14) . . . . ?
O51_1 Fe31_1 Fe32_1 N8_1 -136.00(12) . . . . ?
O40_1 Fe31_1 Fe32_1 N8_1 -53.85(11) . . . . ?
O57_1 Fe31_1 Fe32_1 N8_1 118.26(10) . . . . ?
O52_1 Fe31_1 Fe32_1 N8_1 41.16(10) . . . . ?
N7_1 Fe31_1 Fe32_1 N8_1 -1.04(8) . . . . ?
Fe33_1 Fe31_1 Fe32_1 N8_1 171.89(6) . . . . ?
O39_1 Fe31_1 Fe32_1 Fe33_1 1.78(13) . . . . ?
O51_1 Fe31_1 Fe32_1 Fe33_1 52.11(11) . . . . ?
O40_1 Fe31_1 Fe32_1 Fe33_1 134.26(10) . . . . ?
O57_1 Fe31_1 Fe32_1 Fe33_1 -53.63(9) . . . . ?
O52_1 Fe31_1 Fe32_1 Fe33_1 -130.73(8) . . . . ?
N7_1 Fe31_1 Fe32_1 Fe33_1 -172.93(6) . . . . ?
O44_1 Fe32_1 Fe33_1 O39_1 132.83(15) . . . . ?
O43_1 Fe32_1 Fe33_1 O39_1 51.26(15) . . . . ?
O54_1 Fe32_1 Fe33_1 O39_1 -132.27(15) . . . . ?
O53_1 Fe32_1 Fe33_1 O39_1 -54.57(15) . . . . ?
N8_1 Fe32_1 Fe33_1 O39_1 -173.56(14) . . . . ?
Fe31_1 Fe32_1 Fe33_1 O39_1 -1.76(12) . . . . ?
O39_1 Fe32_1 Fe33_1 O48_1 -51.50(15) . . . . ?
O44_1 Fe32_1 Fe33_1 O48_1 81.32(11) . . . . ?
O43_1 Fe32_1 Fe33_1 O48_1 -0.24(12) . . . . ?
O54_1 Fe32_1 Fe33_1 O48_1 176.23(11) . . . . ?
O53_1 Fe32_1 Fe33_1 O48_1 -106.07(12) . . . . ?
N8_1 Fe32_1 Fe33_1 O48_1 134.93(9) . . . . ?
Fe31_1 Fe32_1 Fe33_1 O48_1 -53.27(8) . . . . ?
O39_1 Fe32_1 Fe33_1 O47_1 -133.68(15) . . . . ?
O44_1 Fe32_1 Fe33_1 O47_1 -0.85(11) . . . . ?
O43_1 Fe32_1 Fe33_1 O47_1 -82.42(11) . . . . ?
O54_1 Fe32_1 Fe33_1 O47_1 94.05(11) . . . . ?
O53_1 Fe32_1 Fe33_1 O47_1 171.75(11) . . . . ?
N8_1 Fe32_1 Fe33_1 O47_1 52.76(9) . . . . ?
Fe31_1 Fe32_1 Fe33_1 O47_1 -135.44(8) . . . . ?
O39_1 Fe32_1 Fe33_1 O56_1 54.45(15) . . . . ?
O44_1 Fe32_1 Fe33_1 O56_1 -172.72(11) . . . . ?
O43_1 Fe32_1 Fe33_1 O56_1 105.71(12) . . . . ?
O54_1 Fe32_1 Fe33_1 O56_1 -77.82(11) . . . . ?
O53_1 Fe32_1 Fe33_1 O56_1 -0.12(12) . . . . ?
N8_1 Fe32_1 Fe33_1 O56_1 -119.11(10) . . . . ?
Fe31_1 Fe32_1 Fe33_1 O56_1 52.69(8) . . . . ?
O39_1 Fe32_1 Fe33_1 O55_1 131.88(14) . . . . ?
O44_1 Fe32_1 Fe33_1 O55_1 -95.29(10) . . . . ?
O43_1 Fe32_1 Fe33_1 O55_1 -176.85(11) . . . . ?
O54_1 Fe32_1 Fe33_1 O55_1 -0.38(10) . . . . ?
O53_1 Fe32_1 Fe33_1 O55_1 77.32(11) . . . . ?
N8_1 Fe32_1 Fe33_1 O55_1 -41.68(9) . . . . ?
Fe31_1 Fe32_1 Fe33_1 O55_1 130.12(7) . . . . ?
O39_1 Fe32_1 Fe33_1 N9_1 174.11(14) . . . . ?
O44_1 Fe32_1 Fe33_1 N9_1 -53.06(10) . . . . ?
O43_1 Fe32_1 Fe33_1 N9_1 -134.62(10) . . . . ?
O54_1 Fe32_1 Fe33_1 N9_1 41.85(9) . . . . ?
O53_1 Fe32_1 Fe33_1 N9_1 119.55(10) . . . . ?
N8_1 Fe32_1 Fe33_1 N9_1 0.55(8) . . . . ?
Fe31_1 Fe32_1 Fe33_1 N9_1 172.35(6) . . . . ?
O39_1 Fe32_1 Fe33_1 Fe31_1 1.76(12) . . . . ?
O44_1 Fe32_1 Fe33_1 Fe31_1 134.59(8) . . . . ?
O43_1 Fe32_1 Fe33_1 Fe31_1 53.03(9) . . . . ?
O54_1 Fe32_1 Fe33_1 Fe31_1 -130.50(8) . . . . ?
O53_1 Fe32_1 Fe33_1 Fe31_1 -52.80(9) . . . . ?
N8_1 Fe32_1 Fe33_1 Fe31_1 -171.80(6) . . . . ?
O51_1 Fe31_1 Fe33_1 O39_1 -131.97(15) . . . . ?
O40_1 Fe31_1 Fe33_1 O39_1 -49.94(16) . . . . ?
O57_1 Fe31_1 Fe33_1 O39_1 131.96(15) . . . . ?
O52_1 Fe31_1 Fe33_1 O39_1 55.24(15) . . . . ?
N7_1 Fe31_1 Fe33_1 O39_1 174.82(14) . . . . ?
Fe32_1 Fe31_1 Fe33_1 O39_1 1.76(12) . . . . ?
O39_1 Fe31_1 Fe33_1 O48_1 131.44(15) . . . . ?
O51_1 Fe31_1 Fe33_1 O48_1 -0.53(12) . . . . ?
O40_1 Fe31_1 Fe33_1 O48_1 81.50(13) . . . . ?
O57_1 Fe31_1 Fe33_1 O48_1 -96.60(11) . . . . ?
O52_1 Fe31_1 Fe33_1 O48_1 -173.31(12) . . . . ?
N7_1 Fe31_1 Fe33_1 O48_1 -53.74(10) . . . . ?
Fe32_1 Fe31_1 Fe33_1 O48_1 133.21(8) . . . . ?
O39_1 Fe31_1 Fe33_1 O47_1 49.44(15) . . . . ?
O51_1 Fe31_1 Fe33_1 O47_1 -82.53(12) . . . . ?
O40_1 Fe31_1 Fe33_1 O47_1 -0.50(14) . . . . ?
O57_1 Fe31_1 Fe33_1 O47_1 -178.60(11) . . . . ?
O52_1 Fe31_1 Fe33_1 O47_1 104.68(12) . . . . ?
N7_1 Fe31_1 Fe33_1 O47_1 -135.74(10) . . . . ?
Fe32_1 Fe31_1 Fe33_1 O47_1 51.20(8) . . . . ?
O39_1 Fe31_1 Fe33_1 O56_1 -132.94(15) . . . . ?
O51_1 Fe31_1 Fe33_1 O56_1 95.09(12) . . . . ?
O40_1 Fe31_1 Fe33_1 O56_1 177.12(13) . . . . ?
O57_1 Fe31_1 Fe33_1 O56_1 -0.98(11) . . . . ?
O52_1 Fe31_1 Fe33_1 O56_1 -77.70(12) . . . . ?
N7_1 Fe31_1 Fe33_1 O56_1 41.88(10) . . . . ?
Fe32_1 Fe31_1 Fe33_1 O56_1 -131.18(8) . . . . ?
O39_1 Fe31_1 Fe33_1 O55_1 -55.47(15) . . . . ?
O51_1 Fe31_1 Fe33_1 O55_1 172.56(12) . . . . ?
O40_1 Fe31_1 Fe33_1 O55_1 -105.40(14) . . . . ?
O57_1 Fe31_1 Fe33_1 O55_1 76.49(12) . . . . ?
O52_1 Fe31_1 Fe33_1 O55_1 -0.22(13) . . . . ?
N7_1 Fe31_1 Fe33_1 O55_1 119.35(10) . . . . ?
Fe32_1 Fe31_1 Fe33_1 O55_1 -53.70(8) . . . . ?
O39_1 Fe31_1 Fe33_1 N9_1 -174.33(14) . . . . ?
O51_1 Fe31_1 Fe33_1 N9_1 53.70(11) . . . . ?
O40_1 Fe31_1 Fe33_1 N9_1 135.73(12) . . . . ?
O57_1 Fe31_1 Fe33_1 N9_1 -42.37(10) . . . . ?
O52_1 Fe31_1 Fe33_1 N9_1 -119.09(11) . . . . ?
N7_1 Fe31_1 Fe33_1 N9_1 0.49(8) . . . . ?
Fe32_1 Fe31_1 Fe33_1 N9_1 -172.57(6) . . . . ?
O39_1 Fe31_1 Fe33_1 Fe32_1 -1.76(12) . . . . ?
O51_1 Fe31_1 Fe33_1 Fe32_1 -133.74(9) . . . . ?
O40_1 Fe31_1 Fe33_1 Fe32_1 -51.70(11) . . . . ?
O57_1 Fe31_1 Fe33_1 Fe32_1 130.19(8) . . . . ?
O52_1 Fe31_1 Fe33_1 Fe32_1 53.48(9) . . . . ?
N7_1 Fe31_1 Fe33_1 Fe32_1 173.05(6) . . . . ?
O67_1 Fe41_1 Fe42_1 O58_1 132.68(14) . . . . ?
O66_1 Fe41_1 Fe42_1 O58_1 50.70(14) . . . . ?
O74_1 Fe41_1 Fe42_1 O58_1 -54.31(14) . . . . ?
O75_1 Fe41_1 Fe42_1 O58_1 -131.74(14) . . . . ?
N10_1 Fe41_1 Fe42_1 O58_1 -174.71(13) . . . . ?
Fe43_1 Fe41_1 Fe42_1 O58_1 -1.58(11) . . . . ?
O58_1 Fe41_1 Fe42_1 O70_1 -130.47(14) . . . . ?
O67_1 Fe41_1 Fe42_1 O70_1 2.21(11) . . . . ?
O66_1 Fe41_1 Fe42_1 O70_1 -79.77(11) . . . . ?
O74_1 Fe41_1 Fe42_1 O70_1 175.22(11) . . . . ?
O75_1 Fe41_1 Fe42_1 O70_1 97.79(11) . . . . ?
N10_1 Fe41_1 Fe42_1 O70_1 54.82(9) . . . . ?
Fe43_1 Fe41_1 Fe42_1 O70_1 -132.05(7) . . . . ?
O58_1 Fe41_1 Fe42_1 O59_1 -50.54(14) . . . . ?
O67_1 Fe41_1 Fe42_1 O59_1 82.14(11) . . . . ?
O66_1 Fe41_1 Fe42_1 O59_1 0.16(12) . . . . ?
O74_1 Fe41_1 Fe42_1 O59_1 -104.85(12) . . . . ?
O75_1 Fe41_1 Fe42_1 O59_1 177.73(12) . . . . ?
N10_1 Fe41_1 Fe42_1 O59_1 134.76(9) . . . . ?
Fe43_1 Fe41_1 Fe42_1 O59_1 -52.11(8) . . . . ?
O58_1 Fe41_1 Fe42_1 O76_1 133.02(14) . . . . ?
O67_1 Fe41_1 Fe42_1 O76_1 -94.30(11) . . . . ?
O66_1 Fe41_1 Fe42_1 O76_1 -176.28(12) . . . . ?
O74_1 Fe41_1 Fe42_1 O76_1 78.71(12) . . . . ?
O75_1 Fe41_1 Fe42_1 O76_1 1.28(12) . . . . ?
N10_1 Fe41_1 Fe42_1 O76_1 -41.69(10) . . . . ?
Fe43_1 Fe41_1 Fe42_1 O76_1 131.44(8) . . . . ?
O58_1 Fe41_1 Fe42_1 O71_1 54.92(14) . . . . ?
O67_1 Fe41_1 Fe42_1 O71_1 -172.40(11) . . . . ?
O66_1 Fe41_1 Fe42_1 O71_1 105.62(12) . . . . ?
O74_1 Fe41_1 Fe42_1 O71_1 0.61(12) . . . . ?
O75_1 Fe41_1 Fe42_1 O71_1 -76.81(12) . . . . ?
N10_1 Fe41_1 Fe42_1 O71_1 -119.78(10) . . . . ?
Fe43_1 Fe41_1 Fe42_1 O71_1 53.35(8) . . . . ?
O58_1 Fe41_1 Fe42_1 N11_1 176.98(13) . . . . ?
O67_1 Fe41_1 Fe42_1 N11_1 -50.34(9) . . . . ?
O66_1 Fe41_1 Fe42_1 N11_1 -132.32(9) . . . . ?
O74_1 Fe41_1 Fe42_1 N11_1 122.67(10) . . . . ?
O75_1 Fe41_1 Fe42_1 N11_1 45.24(10) . . . . ?
N10_1 Fe41_1 Fe42_1 N11_1 2.27(7) . . . . ?
Fe43_1 Fe41_1 Fe42_1 N11_1 175.40(5) . . . . ?
O58_1 Fe41_1 Fe42_1 Fe43_1 1.58(11) . . . . ?
O67_1 Fe41_1 Fe42_1 Fe43_1 134.26(8) . . . . ?
O66_1 Fe41_1 Fe42_1 Fe43_1 52.28(8) . . . . ?
O74_1 Fe41_1 Fe42_1 Fe43_1 -52.73(9) . . . . ?
O75_1 Fe41_1 Fe42_1 Fe43_1 -130.16(8) . . . . ?
N10_1 Fe41_1 Fe42_1 Fe43_1 -173.13(6) . . . . ?
O70_1 Fe42_1 Fe43_1 O58_1 52.55(14) . . . . ?
O59_1 Fe42_1 Fe43_1 O58_1 132.98(14) . . . . ?
O76_1 Fe42_1 Fe43_1 O58_1 -54.34(14) . . . . ?
O71_1 Fe42_1 Fe43_1 O58_1 -132.23(14) . . . . ?
N11_1 Fe42_1 Fe43_1 O58_1 -176.76(13) . . . . ?
Fe41_1 Fe42_1 Fe43_1 O58_1 -1.56(11) . . . . ?
O58_1 Fe42_1 Fe43_1 O63_1 -50.09(14) . . . . ?
O70_1 Fe42_1 Fe43_1 O63_1 2.46(13) . . . . ?
O59_1 Fe42_1 Fe43_1 O63_1 82.89(12) . . . . ?
O76_1 Fe42_1 Fe43_1 O63_1 -104.43(13) . . . . ?
O71_1 Fe42_1 Fe43_1 O63_1 177.68(12) . . . . ?
N11_1 Fe42_1 Fe43_1 O63_1 133.15(10) . . . . ?
Fe41_1 Fe42_1 Fe43_1 O63_1 -51.65(9) . . . . ?
O58_1 Fe42_1 Fe43_1 O62_1 -130.33(14) . . . . ?
O70_1 Fe42_1 Fe43_1 O62_1 -77.78(12) . . . . ?
O59_1 Fe42_1 Fe43_1 O62_1 2.65(11) . . . . ?
O76_1 Fe42_1 Fe43_1 O62_1 175.33(12) . . . . ?
O71_1 Fe42_1 Fe43_1 O62_1 97.44(11) . . . . ?
N11_1 Fe42_1 Fe43_1 O62_1 52.91(9) . . . . ?
Fe41_1 Fe42_1 Fe43_1 O62_1 -131.89(8) . . . . ?
O58_1 Fe42_1 Fe43_1 O72_1 134.24(14) . . . . ?
O70_1 Fe42_1 Fe43_1 O72_1 -173.21(12) . . . . ?
O59_1 Fe42_1 Fe43_1 O72_1 -92.78(11) . . . . ?
O76_1 Fe42_1 Fe43_1 O72_1 79.90(12) . . . . ?
O71_1 Fe42_1 Fe43_1 O72_1 2.01(11) . . . . ?
N11_1 Fe42_1 Fe43_1 O72_1 -42.52(10) . . . . ?
Fe41_1 Fe42_1 Fe43_1 O72_1 132.68(8) . . . . ?
O58_1 Fe42_1 Fe43_1 O73_1 56.47(14) . . . . ?
O70_1 Fe42_1 Fe43_1 O73_1 109.02(13) . . . . ?
O59_1 Fe42_1 Fe43_1 O73_1 -170.55(12) . . . . ?
O76_1 Fe42_1 Fe43_1 O73_1 2.13(13) . . . . ?
O71_1 Fe42_1 Fe43_1 O73_1 -75.76(12) . . . . ?
N11_1 Fe42_1 Fe43_1 O73_1 -120.29(11) . . . . ?
Fe41_1 Fe42_1 Fe43_1 O73_1 54.91(9) . . . . ?
O58_1 Fe42_1 Fe43_1 N12_1 175.62(13) . . . . ?
O70_1 Fe42_1 Fe43_1 N12_1 -131.83(10) . . . . ?
O59_1 Fe42_1 Fe43_1 N12_1 -51.40(9) . . . . ?
O76_1 Fe42_1 Fe43_1 N12_1 121.28(10) . . . . ?
O71_1 Fe42_1 Fe43_1 N12_1 43.39(9) . . . . ?
N11_1 Fe42_1 Fe43_1 N12_1 -1.14(7) . . . . ?
Fe41_1 Fe42_1 Fe43_1 N12_1 174.06(5) . . . . ?
O58_1 Fe42_1 Fe43_1 Fe41_1 1.56(11) . . . . ?
O70_1 Fe42_1 Fe43_1 Fe41_1 54.11(9) . . . . ?
O59_1 Fe42_1 Fe43_1 Fe41_1 134.54(8) . . . . ?
O76_1 Fe42_1 Fe43_1 Fe41_1 -52.78(9) . . . . ?
O71_1 Fe42_1 Fe43_1 Fe41_1 -130.67(8) . . . . ?
N11_1 Fe42_1 Fe43_1 Fe41_1 -175.20(5) . . . . ?
O67_1 Fe41_1 Fe43_1 O58_1 -50.89(14) . . . . ?
O66_1 Fe41_1 Fe43_1 O58_1 -132.75(13) . . . . ?
O74_1 Fe41_1 Fe43_1 O58_1 132.05(14) . . . . ?
O75_1 Fe41_1 Fe43_1 O58_1 54.87(14) . . . . ?
N10_1 Fe41_1 Fe43_1 O58_1 175.12(13) . . . . ?
Fe42_1 Fe41_1 Fe43_1 O58_1 1.57(11) . . . . ?
O58_1 Fe41_1 Fe43_1 O63_1 133.53(14) . . . . ?
O67_1 Fe41_1 Fe43_1 O63_1 82.65(11) . . . . ?
O66_1 Fe41_1 Fe43_1 O63_1 0.78(10) . . . . ?
O74_1 Fe41_1 Fe43_1 O63_1 -94.42(11) . . . . ?
O75_1 Fe41_1 Fe43_1 O63_1 -171.60(11) . . . . ?
N10_1 Fe41_1 Fe43_1 O63_1 -51.35(9) . . . . ?
Fe42_1 Fe41_1 Fe43_1 O63_1 135.10(8) . . . . ?
O58_1 Fe41_1 Fe43_1 O62_1 52.44(14) . . . . ?
O67_1 Fe41_1 Fe43_1 O62_1 1.56(12) . . . . ?
O66_1 Fe41_1 Fe43_1 O62_1 -80.31(11) . . . . ?
O74_1 Fe41_1 Fe43_1 O62_1 -175.51(11) . . . . ?
O75_1 Fe41_1 Fe43_1 O62_1 107.31(12) . . . . ?
N10_1 Fe41_1 Fe43_1 O62_1 -132.44(9) . . . . ?
Fe42_1 Fe41_1 Fe43_1 O62_1 54.01(8) . . . . ?
O58_1 Fe41_1 Fe43_1 O72_1 -52.86(14) . . . . ?
O67_1 Fe41_1 Fe43_1 O72_1 -103.75(12) . . . . ?
O66_1 Fe41_1 Fe43_1 O72_1 174.39(11) . . . . ?
O74_1 Fe41_1 Fe43_1 O72_1 79.19(11) . . . . ?
O75_1 Fe41_1 Fe43_1 O72_1 2.01(12) . . . . ?
N10_1 Fe41_1 Fe43_1 O72_1 122.26(9) . . . . ?
Fe42_1 Fe41_1 Fe43_1 O72_1 -51.29(8) . . . . ?
O58_1 Fe41_1 Fe43_1 O73_1 -130.06(14) . . . . ?
O67_1 Fe41_1 Fe43_1 O73_1 179.06(11) . . . . ?
O66_1 Fe41_1 Fe43_1 O73_1 97.19(11) . . . . ?
O74_1 Fe41_1 Fe43_1 O73_1 1.99(11) . . . . ?
O75_1 Fe41_1 Fe43_1 O73_1 -75.19(12) . . . . ?
N10_1 Fe41_1 Fe43_1 O73_1 45.06(9) . . . . ?
Fe42_1 Fe41_1 Fe43_1 O73_1 -128.49(8) . . . . ?
O58_1 Fe41_1 Fe43_1 N12_1 -175.74(13) . . . . ?
O67_1 Fe41_1 Fe43_1 N12_1 133.38(10) . . . . ?
O66_1 Fe41_1 Fe43_1 N12_1 51.51(9) . . . . ?
O74_1 Fe41_1 Fe43_1 N12_1 -43.69(9) . . . . ?
O75_1 Fe41_1 Fe43_1 N12_1 -120.87(10) . . . . ?
N10_1 Fe41_1 Fe43_1 N12_1 -0.62(7) . . . . ?
Fe42_1 Fe41_1 Fe43_1 N12_1 -174.17(5) . . . . ?
O58_1 Fe41_1 Fe43_1 Fe42_1 -1.57(11) . . . . ?
O67_1 Fe41_1 Fe43_1 Fe42_1 -52.46(9) . . . . ?
O66_1 Fe41_1 Fe43_1 Fe42_1 -134.32(7) . . . . ?
O74_1 Fe41_1 Fe43_1 Fe42_1 130.48(8) . . . . ?
O75_1 Fe41_1 Fe43_1 Fe42_1 53.30(9) . . . . ?
N10_1 Fe41_1 Fe43_1 Fe42_1 173.55(5) . . . . ?
O6_1 Fe13_1 O1_1 Fe12_1 135.76(12) . . . . ?
O5_1 Fe13_1 O1_1 Fe12_1 46.03(12) . . . . ?
O15_1 Fe13_1 O1_1 Fe12_1 -46.17(12) . . . . ?
O16_1 Fe13_1 O1_1 Fe12_1 -132.11(12) . . . . ?
N3_1 Fe13_1 O1_1 Fe12_1 -71.5(11) . . . . ?
Fe11_1 Fe13_1 O1_1 Fe12_1 -176.71(19) . . . . ?
O6_1 Fe13_1 O1_1 Fe11_1 -47.54(12) . . . . ?
O5_1 Fe13_1 O1_1 Fe11_1 -137.26(11) . . . . ?
O15_1 Fe13_1 O1_1 Fe11_1 130.53(12) . . . . ?
O16_1 Fe13_1 O1_1 Fe11_1 44.59(12) . . . . ?
N3_1 Fe13_1 O1_1 Fe11_1 105.2(11) . . . . ?
Fe12_1 Fe13_1 O1_1 Fe11_1 176.71(19) . . . . ?
O13_1 Fe12_1 O1_1 Fe13_1 -137.92(12) . . . . ?
O2_1 Fe12_1 O1_1 Fe13_1 -48.62(12) . . . . ?
O19_1 Fe12_1 O1_1 Fe13_1 130.80(12) . . . . ?
O14_1 Fe12_1 O1_1 Fe13_1 44.37(12) . . . . ?
N2_1 Fe12_1 O1_1 Fe13_1 56.0(19) . . . . ?
Fe11_1 Fe12_1 O1_1 Fe13_1 176.71(19) . . . . ?
O13_1 Fe12_1 O1_1 Fe11_1 45.37(12) . . . . ?
O2_1 Fe12_1 O1_1 Fe11_1 134.67(11) . . . . ?
O19_1 Fe12_1 O1_1 Fe11_1 -45.91(12) . . . . ?
O14_1 Fe12_1 O1_1 Fe11_1 -132.34(11) . . . . ?
N2_1 Fe12_1 O1_1 Fe11_1 -120.7(18) . . . . ?
Fe13_1 Fe12_1 O1_1 Fe11_1 -176.71(19) . . . . ?
O9_1 Fe11_1 O1_1 Fe13_1 44.81(12) . . . . ?
O10_1 Fe11_1 O1_1 Fe13_1 134.58(11) . . . . ?
O17_1 Fe11_1 O1_1 Fe13_1 -47.56(12) . . . . ?
O18_1 Fe11_1 O1_1 Fe13_1 -132.98(12) . . . . ?
N1_1 Fe11_1 O1_1 Fe13_1 -91(2) . . . . ?
Fe12_1 Fe11_1 O1_1 Fe13_1 -176.74(19) . . . . ?
O9_1 Fe11_1 O1_1 Fe12_1 -138.45(11) . . . . ?
O10_1 Fe11_1 O1_1 Fe12_1 -48.69(12) . . . . ?
O17_1 Fe11_1 O1_1 Fe12_1 129.17(12) . . . . ?
O18_1 Fe11_1 O1_1 Fe12_1 43.75(12) . . . . ?
N1_1 Fe11_1 O1_1 Fe12_1 86(2) . . . . ?
Fe13_1 Fe11_1 O1_1 Fe12_1 176.74(19) . . . . ?
O3_1 S123_1 O2_1 Fe12_1 -155.61(19) . . . . ?
O4_1 S123_1 O2_1 Fe12_1 80.3(2) . . . . ?
O5_1 S123_1 O2_1 Fe12_1 -38.3(2) . . . . ?
O1_1 Fe12_1 O2_1 S123_1 46.79(19) . . . . ?
O13_1 Fe12_1 O2_1 S123_1 144.52(19) . . . . ?
O19_1 Fe12_1 O2_1 S123_1 -130.4(4) . . . . ?
O14_1 Fe12_1 O2_1 S123_1 -49.04(19) . . . . ?
N2_1 Fe12_1 O2_1 S123_1 -131.07(19) . . . . ?
Fe11_1 Fe12_1 O2_1 S123_1 70.4(2) . . . . ?
Fe13_1 Fe12_1 O2_1 S123_1 24.35(17) . . . . ?
O3_1 S123_1 O5_1 Fe13_1 151.4(2) . . . . ?
O4_1 S123_1 O5_1 Fe13_1 -85.2(2) . . . . ?
O2_1 S123_1 O5_1 Fe13_1 33.5(2) . . . . ?
O1_1 Fe13_1 O5_1 S123_1 -38.8(2) . . . . ?
O6_1 Fe13_1 O5_1 S123_1 -136.1(2) . . . . ?
O15_1 Fe13_1 O5_1 S123_1 56.1(2) . . . . ?
O16_1 Fe13_1 O5_1 S123_1 132.6(4) . . . . ?
N3_1 Fe13_1 O5_1 S123_1 138.2(2) . . . . ?
Fe11_1 Fe13_1 O5_1 S123_1 -61.6(2) . . . . ?
Fe12_1 Fe13_1 O5_1 S123_1 -17.16(19) . . . . ?
O8_1 S113_1 O6_1 Fe13_1 -154.9(2) . . . . ?
O7_1 S113_1 O6_1 Fe13_1 81.2(3) . . . . ?
O9_1 S113_1 O6_1 Fe13_1 -36.8(3) . . . . ?
O1_1 Fe13_1 O6_1 S113_1 45.6(2) . . . . ?
O5_1 Fe13_1 O6_1 S113_1 142.6(2) . . . . ?
O15_1 Fe13_1 O6_1 S113_1 -125.3(4) . . . . ?
O16_1 Fe13_1 O6_1 S113_1 -49.7(2) . . . . ?
N3_1 Fe13_1 O6_1 S113_1 -132.9(2) . . . . ?
Fe11_1 Fe13_1 O6_1 S113_1 23.18(19) . . . . ?
Fe12_1 Fe13_1 O6_1 S113_1 68.6(2) . . . . ?
O8_1 S113_1 O9_1 Fe11_1 150.8(2) . . . . ?
O7_1 S113_1 O9_1 Fe11_1 -85.6(2) . . . . ?
O6_1 S113_1 O9_1 Fe11_1 32.5(3) . . . . ?
O1_1 Fe11_1 O9_1 S113_1 -38.1(2) . . . . ?
O10_1 Fe11_1 O9_1 S113_1 -134.8(2) . . . . ?
O17_1 Fe11_1 O9_1 S113_1 56.9(2) . . . . ?
O18_1 Fe11_1 O9_1 S113_1 132.4(4) . . . . ?
N1_1 Fe11_1 O9_1 S113_1 139.8(2) . . . . ?
Fe13_1 Fe11_1 O9_1 S113_1 -16.83(19) . . . . ?
Fe12_1 Fe11_1 O9_1 S113_1 -60.5(2) . . . . ?
O11_1 S112_1 O10_1 Fe11_1 81.6(2) . . . . ?
O12_1 S112_1 O10_1 Fe11_1 -153.5(2) . . . . ?
O13_1 S112_1 O10_1 Fe11_1 -38.7(2) . . . . ?
O1_1 Fe11_1 O10_1 S112_1 47.9(2) . . . . ?
O9_1 Fe11_1 O10_1 S112_1 145.4(2) . . . . ?
O17_1 Fe11_1 O10_1 S112_1 -121.6(4) . . . . ?
O18_1 Fe11_1 O10_1 S112_1 -48.0(2) . . . . ?
N1_1 Fe11_1 O10_1 S112_1 -130.0(2) . . . . ?
Fe13_1 Fe11_1 O10_1 S112_1 71.4(2) . . . . ?
Fe12_1 Fe11_1 O10_1 S112_1 25.06(18) . . . . ?
O11_1 S112_1 O13_1 Fe12_1 -87.5(2) . . . . ?
O12_1 S112_1 O13_1 Fe12_1 148.8(2) . . . . ?
O10_1 S112_1 O13_1 Fe12_1 32.9(3) . . . . ?
O1_1 Fe12_1 O13_1 S112_1 -37.9(2) . . . . ?
O2_1 Fe12_1 O13_1 S112_1 -134.1(2) . . . . ?
O19_1 Fe12_1 O13_1 S112_1 57.8(2) . . . . ?
O14_1 Fe12_1 O13_1 S112_1 132.3(4) . . . . ?
N2_1 Fe12_1 O13_1 S112_1 141.6(2) . . . . ?
Fe11_1 Fe12_1 O13_1 S112_1 -16.3(2) . . . . ?
Fe13_1 Fe12_1 O13_1 S112_1 -60.2(2) . . . . ?
O1_1 Fe12_1 O14_1 C21B_1 -18.7(3) . . . . ?
O13_1 Fe12_1 O14_1 C21B_1 171.1(4) . . . . ?
O2_1 Fe12_1 O14_1 C21B_1 77.9(3) . . . . ?
O19_1 Fe12_1 O14_1 C21B_1 -113.9(3) . . . . ?
N2_1 Fe12_1 O14_1 C21B_1 161.8(3) . . . . ?
Fe11_1 Fe12_1 O14_1 C21B_1 -42.9(3) . . . . ?
Fe13_1 Fe12_1 O14_1 C21B_1 2.4(3) . . . . ?
O1_1 Fe13_1 O15_1 C21B_1 25.2(3) . . . . ?
O6_1 Fe13_1 O15_1 C21B_1 -163.9(4) . . . . ?
O5_1 Fe13_1 O15_1 C21B_1 -72.1(3) . . . . ?
O16_1 Fe13_1 O15_1 C21B_1 119.9(3) . . . . ?
N3_1 Fe13_1 O15_1 C21B_1 -156.2(3) . . . . ?
Fe11_1 Fe13_1 O15_1 C21B_1 49.8(3) . . . . ?
Fe12_1 Fe13_1 O15_1 C21B_1 3.3(3) . . . . ?
O1_1 Fe13_1 O16_1 C1A_1 -17.2(4) . . . . ?
O6_1 Fe13_1 O16_1 C1A_1 80.4(4) . . . . ?
O5_1 Fe13_1 O16_1 C1A_1 171.5(4) . . . . ?
O15_1 Fe13_1 O16_1 C1A_1 -111.4(4) . . . . ?
N3_1 Fe13_1 O16_1 C1A_1 165.8(4) . . . . ?
Fe11_1 Fe13_1 O16_1 C1A_1 4.4(3) . . . . ?
Fe12_1 Fe13_1 O16_1 C1A_1 -41.0(4) . . . . ?
O1_1 Fe11_1 O17_1 C1A_1 26.2(3) . . . . ?
O9_1 Fe11_1 O17_1 C1A_1 -71.6(3) . . . . ?
O10_1 Fe11_1 O17_1 C1A_1 -164.3(4) . . . . ?
O18_1 Fe11_1 O17_1 C1A_1 121.4(3) . . . . ?
N1_1 Fe11_1 O17_1 C1A_1 -155.8(3) . . . . ?
Fe13_1 Fe11_1 O17_1 C1A_1 3.7(3) . . . . ?
Fe12_1 Fe11_1 O17_1 C1A_1 51.2(3) . . . . ?
O1_1 Fe11_1 O18_1 C41C_1 -18.3(3) . . . . ?
O9_1 Fe11_1 O18_1 C41C_1 171.1(4) . . . . ?
O10_1 Fe11_1 O18_1 C41C_1 78.7(3) . . . . ?
O17_1 Fe11_1 O18_1 C41C_1 -112.6(3) . . . . ?
N1_1 Fe11_1 O18_1 C41C_1 163.7(3) . . . . ?
Fe13_1 Fe11_1 O18_1 C41C_1 -42.2(3) . . . . ?
Fe12_1 Fe11_1 O18_1 C41C_1 2.9(3) . . . . ?
O1_1 Fe12_1 O19_1 C41C_1 25.0(3) . . . . ?
O13_1 Fe12_1 O19_1 C41C_1 -72.9(3) . . . . ?
O2_1 Fe12_1 O19_1 C41C_1 -157.8(4) . . . . ?
O14_1 Fe12_1 O19_1 C41C_1 120.2(3) . . . . ?
N2_1 Fe12_1 O19_1 C41C_1 -157.1(3) . . . . ?
Fe11_1 Fe12_1 O19_1 C41C_1 3.0(3) . . . . ?
Fe13_1 Fe12_1 O19_1 C41C_1 49.2(3) . . . . ?
O21_1 Fe21_1 O20_1 Fe23_1 137.60(12) . . . . ?
O32_1 Fe21_1 O20_1 Fe23_1 48.78(13) . . . . ?
O33_1 Fe21_1 O20_1 Fe23_1 -129.54(12) . . . . ?
O38_1 Fe21_1 O20_1 Fe23_1 -43.36(12) . . . . ?
N4_1 Fe21_1 O20_1 Fe23_1 -81(2) . . . . ?
Fe22_1 Fe21_1 O20_1 Fe23_1 -177.73(19) . . . . ?
O21_1 Fe21_1 O20_1 Fe22_1 -44.67(12) . . . . ?
O32_1 Fe21_1 O20_1 Fe22_1 -133.49(12) . . . . ?
O33_1 Fe21_1 O20_1 Fe22_1 48.19(13) . . . . ?
O38_1 Fe21_1 O20_1 Fe22_1 134.37(12) . . . . ?
N4_1 Fe21_1 O20_1 Fe22_1 97(2) . . . . ?
Fe23_1 Fe21_1 O20_1 Fe22_1 177.73(19) . . . . ?
O28_1 Fe23_1 O20_1 Fe21_1 -137.13(12) . . . . ?
O29_1 Fe23_1 O20_1 Fe21_1 -47.61(13) . . . . ?
O36_1 Fe23_1 O20_1 Fe21_1 130.48(12) . . . . ?
O37_1 Fe23_1 O20_1 Fe21_1 44.09(13) . . . . ?
N6_1 Fe23_1 O20_1 Fe21_1 89.0(16) . . . . ?
Fe22_1 Fe23_1 O20_1 Fe21_1 177.74(19) . . . . ?
O28_1 Fe23_1 O20_1 Fe22_1 45.14(12) . . . . ?
O29_1 Fe23_1 O20_1 Fe22_1 134.65(12) . . . . ?
O36_1 Fe23_1 O20_1 Fe22_1 -47.26(13) . . . . ?
O37_1 Fe23_1 O20_1 Fe22_1 -133.65(12) . . . . ?
N6_1 Fe23_1 O20_1 Fe22_1 -88.7(16) . . . . ?
Fe21_1 Fe23_1 O20_1 Fe22_1 -177.74(19) . . . . ?
O25_1 Fe22_1 O20_1 Fe21_1 135.79(12) . . . . ?
O24_1 Fe22_1 O20_1 Fe21_1 45.77(12) . . . . ?
O34_1 Fe22_1 O20_1 Fe21_1 -46.53(12) . . . . ?
O35_1 Fe22_1 O20_1 Fe21_1 -132.12(12) . . . . ?
N5_1 Fe22_1 O20_1 Fe21_1 -68.6(13) . . . . ?
Fe23_1 Fe22_1 O20_1 Fe21_1 -177.76(19) . . . . ?
O25_1 Fe22_1 O20_1 Fe23_1 -46.45(12) . . . . ?
O24_1 Fe22_1 O20_1 Fe23_1 -136.47(11) . . . . ?
O34_1 Fe22_1 O20_1 Fe23_1 131.23(12) . . . . ?
O35_1 Fe22_1 O20_1 Fe23_1 45.63(12) . . . . ?
N5_1 Fe22_1 O20_1 Fe23_1 109.1(12) . . . . ?
Fe21_1 Fe22_1 O20_1 Fe23_1 177.76(19) . . . . ?
O22_1 S212_1 O21_1 Fe21_1 -153.4(2) . . . . ?
O23_1 S212_1 O21_1 Fe21_1 83.6(3) . . . . ?
O24_1 S212_1 O21_1 Fe21_1 -34.2(3) . . . . ?
O20_1 Fe21_1 O21_1 S212_1 40.3(2) . . . . ?
O32_1 Fe21_1 O21_1 S212_1 136.2(2) . . . . ?
O33_1 Fe21_1 O21_1 S212_1 -55.7(2) . . . . ?
O38_1 Fe21_1 O21_1 S212_1 -135.6(4) . . . . ?
N4_1 Fe21_1 O21_1 S212_1 -138.5(2) . . . . ?
Fe22_1 Fe21_1 O21_1 S212_1 19.0(2) . . . . ?
Fe23_1 Fe21_1 O21_1 S212_1 62.8(2) . . . . ?
O22_1 S212_1 O24_1 Fe22_1 154.4(2) . . . . ?
O23_1 S212_1 O24_1 Fe22_1 -81.9(3) . . . . ?
O21_1 S212_1 O24_1 Fe22_1 35.5(2) . . . . ?
O20_1 Fe22_1 O24_1 S212_1 -42.8(2) . . . . ?
O25_1 Fe22_1 O24_1 S212_1 -140.1(2) . . . . ?
O34_1 Fe22_1 O24_1 S212_1 51.5(2) . . . . ?
O35_1 Fe22_1 O24_1 S212_1 127.4(4) . . . . ?
N5_1 Fe22_1 O24_1 S212_1 134.3(2) . . . . ?
Fe21_1 Fe22_1 O24_1 S212_1 -21.22(18) . . . . ?
Fe23_1 Fe22_1 O24_1 S212_1 -65.9(2) . . . . ?
O26_1 S223_1 O25_1 Fe22_1 81.3(3) . . . . ?
O27_1 S223_1 O25_1 Fe22_1 -153.3(2) . . . . ?
O28_1 S223_1 O25_1 Fe22_1 -35.8(3) . . . . ?
O20_1 Fe22_1 O25_1 S223_1 43.9(2) . . . . ?
O24_1 Fe22_1 O25_1 S223_1 141.5(2) . . . . ?
O34_1 Fe22_1 O25_1 S223_1 -124.5(5) . . . . ?
O35_1 Fe22_1 O25_1 S223_1 -50.9(2) . . . . ?
N5_1 Fe22_1 O25_1 S223_1 -134.8(2) . . . . ?
Fe21_1 Fe22_1 O25_1 S223_1 67.0(2) . . . . ?
Fe23_1 Fe22_1 O25_1 S223_1 21.9(2) . . . . ?
O26_1 S223_1 O28_1 Fe23_1 -84.7(3) . . . . ?
O27_1 S223_1 O28_1 Fe23_1 151.4(2) . . . . ?
O25_1 S223_1 O28_1 Fe23_1 33.1(3) . . . . ?
O20_1 Fe23_1 O28_1 S223_1 -39.7(2) . . . . ?
O29_1 Fe23_1 O28_1 S223_1 -136.5(2) . . . . ?
O36_1 Fe23_1 O28_1 S223_1 55.8(2) . . . . ?
O37_1 Fe23_1 O28_1 S223_1 135.3(4) . . . . ?
N6_1 Fe23_1 O28_1 S223_1 138.4(2) . . . . ?
Fe22_1 Fe23_1 O28_1 S223_1 -18.1(2) . . . . ?
Fe21_1 Fe23_1 O28_1 S223_1 -62.2(2) . . . . ?
O30_1 S213_1 O29_1 Fe23_1 87.7(2) . . . . ?
O31_1 S213_1 O29_1 Fe23_1 -149.0(2) . . . . ?
O32_1 S213_1 O29_1 Fe23_1 -33.7(3) . . . . ?
O20_1 Fe23_1 O29_1 S213_1 40.4(2) . . . . ?
O28_1 Fe23_1 O29_1 S213_1 138.4(2) . . . . ?
O36_1 Fe23_1 O29_1 S213_1 -130.7(5) . . . . ?
O37_1 Fe23_1 O29_1 S213_1 -55.5(2) . . . . ?
N6_1 Fe23_1 O29_1 S213_1 -137.7(2) . . . . ?
Fe22_1 Fe23_1 O29_1 S213_1 64.2(2) . . . . ?
Fe21_1 Fe23_1 O29_1 S213_1 18.4(2) . . . . ?
O30_1 S213_1 O32_1 Fe21_1 -84.0(3) . . . . ?
O31_1 S213_1 O32_1 Fe21_1 152.1(2) . . . . ?
O29_1 S213_1 O32_1 Fe21_1 36.7(3) . . . . ?
O20_1 Fe21_1 O32_1 S213_1 -44.9(2) . . . . ?
O21_1 Fe21_1 O32_1 S213_1 -142.8(2) . . . . ?
O33_1 Fe21_1 O32_1 S213_1 126.9(5) . . . . ?
O38_1 Fe21_1 O32_1 S213_1 50.9(2) . . . . ?
N4_1 Fe21_1 O32_1 S213_1 133.6(2) . . . . ?
Fe22_1 Fe21_1 O32_1 S213_1 -68.9(2) . . . . ?
Fe23_1 Fe21_1 O32_1 S213_1 -22.4(2) . . . . ?
O20_1 Fe21_1 O33_1 C100_1 -25.3(3) . . . . ?
O21_1 Fe21_1 O33_1 C100_1 73.0(3) . . . . ?
O32_1 Fe21_1 O33_1 C100_1 162.9(5) . . . . ?
O38_1 Fe21_1 O33_1 C100_1 -120.5(3) . . . . ?
N4_1 Fe21_1 O33_1 C100_1 156.1(3) . . . . ?
Fe22_1 Fe21_1 O33_1 C100_1 -2.5(3) . . . . ?
Fe23_1 Fe21_1 O33_1 C100_1 -49.9(4) . . . . ?
O20_1 Fe22_1 O34_1 C100_1 22.0(4) . . . . ?
O25_1 Fe22_1 O34_1 C100_1 -169.5(5) . . . . ?
O24_1 Fe22_1 O34_1 C100_1 -75.7(4) . . . . ?
O35_1 Fe22_1 O34_1 C100_1 116.3(4) . . . . ?
N5_1 Fe22_1 O34_1 C100_1 -159.2(4) . . . . ?
Fe21_1 Fe22_1 O34_1 C100_1 -0.1(3) . . . . ?
Fe23_1 Fe22_1 O34_1 C100_1 46.3(4) . . . . ?
O20_1 Fe22_1 O35_1 C40B_1 -20.1(4) . . . . ?
O25_1 Fe22_1 O35_1 C40B_1 77.4(3) . . . . ?
O24_1 Fe22_1 O35_1 C40B_1 169.7(4) . . . . ?
O34_1 Fe22_1 O35_1 C40B_1 -113.7(4) . . . . ?
N5_1 Fe22_1 O35_1 C40B_1 162.8(3) . . . . ?
Fe21_1 Fe22_1 O35_1 C40B_1 -44.0(4) . . . . ?
Fe23_1 Fe22_1 O35_1 C40B_1 1.9(3) . . . . ?
O20_1 Fe23_1 O36_1 C40B_1 24.4(4) . . . . ?
O28_1 Fe23_1 O36_1 C40B_1 -73.9(4) . . . . ?
O29_1 Fe23_1 O36_1 C40B_1 -164.5(5) . . . . ?
O37_1 Fe23_1 O36_1 C40B_1 119.8(4) . . . . ?
N6_1 Fe23_1 O36_1 C40B_1 -157.4(4) . . . . ?
Fe22_1 Fe23_1 O36_1 C40B_1 1.8(3) . . . . ?
Fe21_1 Fe23_1 O36_1 C40B_1 48.6(4) . . . . ?
O20_1 Fe23_1 O37_1 C120_1 -22.5(4) . . . . ?
O28_1 Fe23_1 O37_1 C120_1 162.5(4) . . . . ?
O29_1 Fe23_1 O37_1 C120_1 74.6(4) . . . . ?
O36_1 Fe23_1 O37_1 C120_1 -117.3(4) . . . . ?
N6_1 Fe23_1 O37_1 C120_1 159.5(4) . . . . ?
Fe22_1 Fe23_1 O37_1 C120_1 -46.4(4) . . . . ?
Fe21_1 Fe23_1 O37_1 C120_1 -1.6(3) . . . . ?
O20_1 Fe21_1 O38_1 C120_1 20.6(3) . . . . ?
O21_1 Fe21_1 O38_1 C120_1 -163.5(4) . . . . ?
O32_1 Fe21_1 O38_1 C120_1 -75.7(3) . . . . ?
O33_1 Fe21_1 O38_1 C120_1 115.8(3) . . . . ?
N4_1 Fe21_1 O38_1 C120_1 -160.6(3) . . . . ?
Fe22_1 Fe21_1 O38_1 C120_1 44.2(4) . . . . ?
Fe23_1 Fe21_1 O38_1 C120_1 -0.2(3) . . . . ?
O44_1 Fe32_1 O39_1 Fe31_1 136.96(13) . . . . ?
O43_1 Fe32_1 O39_1 Fe31_1 47.08(14) . . . . ?
O54_1 Fe32_1 O39_1 Fe31_1 -131.10(13) . . . . ?
O53_1 Fe32_1 O39_1 Fe31_1 -45.28(14) . . . . ?
N8_1 Fe32_1 O39_1 Fe31_1 -81.8(13) . . . . ?
Fe33_1 Fe32_1 O39_1 Fe31_1 -176.9(2) . . . . ?
O44_1 Fe32_1 O39_1 Fe33_1 -46.11(14) . . . . ?
O43_1 Fe32_1 O39_1 Fe33_1 -136.00(13) . . . . ?
O54_1 Fe32_1 O39_1 Fe33_1 45.83(13) . . . . ?
O53_1 Fe32_1 O39_1 Fe33_1 131.65(13) . . . . ?
N8_1 Fe32_1 O39_1 Fe33_1 95.1(12) . . . . ?
Fe31_1 Fe32_1 O39_1 Fe33_1 176.9(2) . . . . ?
O51_1 Fe31_1 O39_1 Fe32_1 -136.50(14) . . . . ?
O40_1 Fe31_1 O39_1 Fe32_1 -46.09(15) . . . . ?
O57_1 Fe31_1 O39_1 Fe32_1 130.88(13) . . . . ?
O52_1 Fe31_1 O39_1 Fe32_1 45.63(14) . . . . ?
N7_1 Fe31_1 O39_1 Fe32_1 90.9(17) . . . . ?
Fe33_1 Fe31_1 O39_1 Fe32_1 176.9(2) . . . . ?
O51_1 Fe31_1 O39_1 Fe33_1 46.57(15) . . . . ?
O40_1 Fe31_1 O39_1 Fe33_1 136.99(14) . . . . ?
O57_1 Fe31_1 O39_1 Fe33_1 -46.04(14) . . . . ?
O52_1 Fe31_1 O39_1 Fe33_1 -131.30(13) . . . . ?
N7_1 Fe31_1 O39_1 Fe33_1 -86.0(17) . . . . ?
Fe32_1 Fe31_1 O39_1 Fe33_1 -176.9(2) . . . . ?
O48_1 Fe33_1 O39_1 Fe32_1 135.67(13) . . . . ?
O47_1 Fe33_1 O39_1 Fe32_1 45.20(14) . . . . ?
O56_1 Fe33_1 O39_1 Fe32_1 -131.91(13) . . . . ?
O55_1 Fe33_1 O39_1 Fe32_1 -46.10(13) . . . . ?
N9_1 Fe33_1 O39_1 Fe32_1 -97.9(14) . . . . ?
Fe31_1 Fe33_1 O39_1 Fe32_1 -176.9(2) . . . . ?
O48_1 Fe33_1 O39_1 Fe31_1 -47.38(14) . . . . ?
O47_1 Fe33_1 O39_1 Fe31_1 -137.85(13) . . . . ?
O56_1 Fe33_1 O39_1 Fe31_1 45.03(14) . . . . ?
O55_1 Fe33_1 O39_1 Fe31_1 130.85(13) . . . . ?
N9_1 Fe33_1 O39_1 Fe31_1 79.0(14) . . . . ?
Fe32_1 Fe33_1 O39_1 Fe31_1 176.9(2) . . . . ?
O41_1 S312_1 O40_1 Fe31_1 -155.0(3) . . . . ?
O42_1 S312_1 O40_1 Fe31_1 80.3(3) . . . . ?
O43_1 S312_1 O40_1 Fe31_1 -37.9(3) . . . . ?
O39_1 Fe31_1 O40_1 S312_1 43.2(3) . . . . ?
O51_1 Fe31_1 O40_1 S312_1 139.9(3) . . . . ?
O57_1 Fe31_1 O40_1 S312_1 -122.5(5) . . . . ?
O52_1 Fe31_1 O40_1 S312_1 -52.5(3) . . . . ?
N7_1 Fe31_1 O40_1 S312_1 -135.0(3) . . . . ?
Fe33_1 Fe31_1 O40_1 S312_1 66.0(3) . . . . ?
Fe32_1 Fe31_1 O40_1 S312_1 21.6(2) . . . . ?
O41_1 S312_1 O43_1 Fe32_1 156.1(3) . . . . ?
O42_1 S312_1 O43_1 Fe32_1 -80.6(3) . . . . ?
O40_1 S312_1 O43_1 Fe32_1 38.1(3) . . . . ?
O39_1 Fe32_1 O43_1 S312_1 -44.5(3) . . . . ?
O44_1 Fe32_1 O43_1 S312_1 -142.2(3) . . . . ?
O54_1 Fe32_1 O43_1 S312_1 127.5(4) . . . . ?
O53_1 Fe32_1 O43_1 S312_1 50.6(3) . . . . ?
N8_1 Fe32_1 O43_1 S312_1 133.0(3) . . . . ?
Fe33_1 Fe32_1 O43_1 S312_1 -67.8(3) . . . . ?
Fe31_1 Fe32_1 O43_1 S312_1 -22.5(2) . . . . ?
O46_1 S323_1 O44_1 Fe32_1 -160.5(2) . . . . ?
O45_1 S323_1 O44_1 Fe32_1 74.5(3) . . . . ?
O47_1 S323_1 O44_1 Fe32_1 -43.6(3) . . . . ?
O39_1 Fe32_1 O44_1 S323_1 47.6(2) . . . . ?
O43_1 Fe32_1 O44_1 S323_1 144.8(2) . . . . ?
O54_1 Fe32_1 O44_1 S323_1 -48.2(2) . . . . ?
O53_1 Fe32_1 O44_1 S323_1 -122.3(5) . . . . ?
N8_1 Fe32_1 O44_1 S323_1 -130.3(2) . . . . ?
Fe33_1 Fe32_1 O44_1 S323_1 25.8(2) . . . . ?
Fe31_1 Fe32_1 O44_1 S323_1 70.4(2) . . . . ?
O46_1 S323_1 O47_1 Fe33_1 159.0(2) . . . . ?
O45_1 S323_1 O47_1 Fe33_1 -74.9(3) . . . . ?
O44_1 S323_1 O47_1 Fe33_1 42.6(3) . . . . ?
O39_1 Fe33_1 O47_1 S323_1 -45.5(2) . . . . ?
O48_1 Fe33_1 O47_1 S323_1 -142.7(2) . . . . ?
O56_1 Fe33_1 O47_1 S323_1 121.9(4) . . . . ?
O55_1 Fe33_1 O47_1 S323_1 49.9(2) . . . . ?
N9_1 Fe33_1 O47_1 S323_1 132.7(2) . . . . ?
Fe32_1 Fe33_1 O47_1 S323_1 -24.1(2) . . . . ?
Fe31_1 Fe33_1 O47_1 S323_1 -68.1(2) . . . . ?
O50_1 S313_1 O48_1 Fe33_1 -155.9(3) . . . . ?
O49_1 S313_1 O48_1 Fe33_1 80.0(3) . . . . ?
O51_1 S313_1 O48_1 Fe33_1 -38.4(3) . . . . ?
O39_1 Fe33_1 O48_1 S313_1 45.0(3) . . . . ?
O47_1 Fe33_1 O48_1 S313_1 142.7(3) . . . . ?
O56_1 Fe33_1 O48_1 S313_1 -50.6(3) . . . . ?
O55_1 Fe33_1 O48_1 S313_1 -126.9(4) . . . . ?
N9_1 Fe33_1 O48_1 S313_1 -132.6(3) . . . . ?
Fe32_1 Fe33_1 O48_1 S313_1 68.3(3) . . . . ?
Fe31_1 Fe33_1 O48_1 S313_1 22.8(2) . . . . ?
O50_1 S313_1 O51_1 Fe31_1 154.6(2) . . . . ?
O49_1 S313_1 O51_1 Fe31_1 -78.9(3) . . . . ?
O48_1 S313_1 O51_1 Fe31_1 38.2(3) . . . . ?
O39_1 Fe31_1 O51_1 S313_1 -44.1(3) . . . . ?
O40_1 Fe31_1 O51_1 S313_1 -140.7(3) . . . . ?
O57_1 Fe31_1 O51_1 S313_1 51.6(3) . . . . ?
O52_1 Fe31_1 O51_1 S313_1 126.1(5) . . . . ?
N7_1 Fe31_1 O51_1 S313_1 134.0(3) . . . . ?
Fe33_1 Fe31_1 O51_1 S313_1 -22.0(2) . . . . ?
Fe32_1 Fe31_1 O51_1 S313_1 -66.7(3) . . . . ?
O39_1 Fe31_1 O52_1 C61D_1 -23.5(4) . . . . ?
O51_1 Fe31_1 O52_1 C61D_1 166.4(5) . . . . ?
O40_1 Fe31_1 O52_1 C61D_1 73.3(4) . . . . ?
O57_1 Fe31_1 O52_1 C61D_1 -118.4(4) . . . . ?
N7_1 Fe31_1 O52_1 C61D_1 158.4(4) . . . . ?
Fe33_1 Fe31_1 O52_1 C61D_1 -48.0(4) . . . . ?
Fe32_1 Fe31_1 O52_1 C61D_1 -1.9(4) . . . . ?
O39_1 Fe32_1 O53_1 C61D_1 23.3(4) . . . . ?
O44_1 Fe32_1 O53_1 C61D_1 -166.7(4) . . . . ?
O43_1 Fe32_1 O53_1 C61D_1 -74.2(4) . . . . ?
O54_1 Fe32_1 O53_1 C61D_1 118.6(4) . . . . ?
N8_1 Fe32_1 O53_1 C61D_1 -158.6(4) . . . . ?
Fe33_1 Fe32_1 O53_1 C61D_1 47.6(4) . . . . ?
Fe31_1 Fe32_1 O53_1 C61D_1 1.7(3) . . . . ?
O39_1 Fe32_1 O54_1 C101_1 -25.9(3) . . . . ?
O44_1 Fe32_1 O54_1 C101_1 72.0(3) . . . . ?
O43_1 Fe32_1 O54_1 C101_1 162.1(4) . . . . ?
O53_1 Fe32_1 O54_1 C101_1 -120.4(3) . . . . ?
N8_1 Fe32_1 O54_1 C101_1 156.6(3) . . . . ?
Fe33_1 Fe32_1 O54_1 C101_1 -4.0(3) . . . . ?
Fe31_1 Fe32_1 O54_1 C101_1 -50.2(3) . . . . ?
O39_1 Fe33_1 O55_1 C101_1 26.9(3) . . . . ?
O48_1 Fe33_1 O55_1 C101_1 -161.1(4) . . . . ?
O47_1 Fe33_1 O55_1 C101_1 -70.8(3) . . . . ?
O56_1 Fe33_1 O55_1 C101_1 121.9(3) . . . . ?
N9_1 Fe33_1 O55_1 C101_1 -155.4(3) . . . . ?
Fe32_1 Fe33_1 O55_1 C101_1 5.0(3) . . . . ?
Fe31_1 Fe33_1 O55_1 C101_1 51.4(3) . . . . ?
O39_1 Fe33_1 O56_1 C60C_1 -22.1(4) . . . . ?
O48_1 Fe33_1 O56_1 C60C_1 75.3(4) . . . . ?
O47_1 Fe33_1 O56_1 C60C_1 170.4(4) . . . . ?
O55_1 Fe33_1 O56_1 C60C_1 -116.9(4) . . . . ?
N9_1 Fe33_1 O56_1 C60C_1 159.5(4) . . . . ?
Fe32_1 Fe33_1 O56_1 C60C_1 -46.3(4) . . . . ?
Fe31_1 Fe33_1 O56_1 C60C_1 -0.5(3) . . . . ?
O39_1 Fe31_1 O57_1 C60C_1 25.2(4) . . . . ?
O51_1 Fe31_1 O57_1 C60C_1 -71.7(4) . . . . ?
O40_1 Fe31_1 O57_1 C60C_1 -169.0(5) . . . . ?
O52_1 Fe31_1 O57_1 C60C_1 120.4(4) . . . . ?
N7_1 Fe31_1 O57_1 C60C_1 -156.5(4) . . . . ?
Fe33_1 Fe31_1 O57_1 C60C_1 3.2(3) . . . . ?
Fe32_1 Fe31_1 O57_1 C60C_1 49.5(4) . . . . ?
O67_1 Fe41_1 O58_1 Fe42_1 -46.27(13) . . . . ?
O66_1 Fe41_1 O58_1 Fe42_1 -136.57(12) . . . . ?
O74_1 Fe41_1 O58_1 Fe42_1 131.65(12) . . . . ?
O75_1 Fe41_1 O58_1 Fe42_1 46.06(13) . . . . ?
N10_1 Fe41_1 O58_1 Fe42_1 109.6(14) . . . . ?
Fe43_1 Fe41_1 O58_1 Fe42_1 177.27(19) . . . . ?
O67_1 Fe41_1 O58_1 Fe43_1 136.46(12) . . . . ?
O66_1 Fe41_1 O58_1 Fe43_1 46.15(13) . . . . ?
O74_1 Fe41_1 O58_1 Fe43_1 -45.63(13) . . . . ?
O75_1 Fe41_1 O58_1 Fe43_1 -131.22(12) . . . . ?
N10_1 Fe41_1 O58_1 Fe43_1 -67.7(14) . . . . ?
Fe42_1 Fe41_1 O58_1 Fe43_1 -177.27(19) . . . . ?
O70_1 Fe42_1 O58_1 Fe41_1 48.22(13) . . . . ?
O59_1 Fe42_1 O58_1 Fe41_1 136.78(12) . . . . ?
O76_1 Fe42_1 O58_1 Fe41_1 -45.08(13) . . . . ?
O71_1 Fe42_1 O58_1 Fe41_1 -131.48(12) . . . . ?
N11_1 Fe42_1 O58_1 Fe41_1 -59(2) . . . . ?
Fe43_1 Fe42_1 O58_1 Fe41_1 -177.29(19) . . . . ?
O70_1 Fe42_1 O58_1 Fe43_1 -134.49(12) . . . . ?
O59_1 Fe42_1 O58_1 Fe43_1 -45.93(13) . . . . ?
O76_1 Fe42_1 O58_1 Fe43_1 132.21(12) . . . . ?
O71_1 Fe42_1 O58_1 Fe43_1 45.81(13) . . . . ?
N11_1 Fe42_1 O58_1 Fe43_1 118(2) . . . . ?
Fe41_1 Fe42_1 O58_1 Fe43_1 177.29(19) . . . . ?
O63_1 Fe43_1 O58_1 Fe41_1 -45.42(13) . . . . ?
O62_1 Fe43_1 O58_1 Fe41_1 -134.42(12) . . . . ?
O72_1 Fe43_1 O58_1 Fe41_1 133.54(12) . . . . ?
O73_1 Fe43_1 O58_1 Fe41_1 47.75(13) . . . . ?
N12_1 Fe43_1 O58_1 Fe41_1 78(2) . . . . ?
Fe42_1 Fe43_1 O58_1 Fe41_1 177.29(19) . . . . ?
O63_1 Fe43_1 O58_1 Fe42_1 137.29(12) . . . . ?
O62_1 Fe43_1 O58_1 Fe42_1 48.29(13) . . . . ?
O72_1 Fe43_1 O58_1 Fe42_1 -43.75(13) . . . . ?
O73_1 Fe43_1 O58_1 Fe42_1 -129.54(12) . . . . ?
N12_1 Fe43_1 O58_1 Fe42_1 -100(2) . . . . ?
Fe41_1 Fe43_1 O58_1 Fe42_1 -177.29(19) . . . . ?
O60_1 S423_1 O59_1 Fe42_1 87.2(3) . . . . ?
O61_1 S423_1 O59_1 Fe42_1 -147.5(2) . . . . ?
O62_1 S423_1 O59_1 Fe42_1 -31.6(3) . . . . ?
O58_1 Fe42_1 O59_1 S423_1 38.2(3) . . . . ?
O70_1 Fe42_1 O59_1 S423_1 134.6(2) . . . . ?
O76_1 Fe42_1 O59_1 S423_1 -133.9(4) . . . . ?
O71_1 Fe42_1 O59_1 S423_1 -57.5(2) . . . . ?
N11_1 Fe42_1 O59_1 S423_1 -141.3(2) . . . . ?
Fe43_1 Fe42_1 O59_1 S423_1 16.3(2) . . . . ?
Fe41_1 Fe42_1 O59_1 S423_1 61.0(3) . . . . ?
O60_1 S423_1 O62_1 Fe43_1 -83.6(3) . . . . ?
O61_1 S423_1 O62_1 Fe43_1 151.1(2) . . . . ?
O59_1 S423_1 O62_1 Fe43_1 36.6(3) . . . . ?
O58_1 Fe43_1 O62_1 S423_1 -46.1(2) . . . . ?
O63_1 Fe43_1 O62_1 S423_1 -143.7(2) . . . . ?
O72_1 Fe43_1 O62_1 S423_1 49.6(2) . . . . ?
O73_1 Fe43_1 O62_1 S423_1 122.8(5) . . . . ?
N12_1 Fe43_1 O62_1 S423_1 132.7(2) . . . . ?
Fe42_1 Fe43_1 O62_1 S423_1 -23.5(2) . . . . ?
Fe41_1 Fe43_1 O62_1 S423_1 -69.6(2) . . . . ?
O64_1 S413_1 O63_1 Fe43_1 -156.2(2) . . . . ?
O65_1 S413_1 O63_1 Fe43_1 80.0(3) . . . . ?
O66_1 S413_1 O63_1 Fe43_1 -39.6(3) . . . . ?
O58_1 Fe43_1 O63_1 S413_1 43.6(2) . . . . ?
O62_1 Fe43_1 O63_1 S413_1 140.0(2) . . . . ?
O72_1 Fe43_1 O63_1 S413_1 -131.9(4) . . . . ?
O73_1 Fe43_1 O63_1 S413_1 -51.3(2) . . . . ?
N12_1 Fe43_1 O63_1 S413_1 -134.6(2) . . . . ?
Fe42_1 Fe43_1 O63_1 S413_1 66.4(2) . . . . ?
Fe41_1 Fe43_1 O63_1 S413_1 22.2(2) . . . . ?
O64_1 S413_1 O66_1 Fe41_1 157.3(2) . . . . ?
O65_1 S413_1 O66_1 Fe41_1 -79.0(3) . . . . ?
O63_1 S413_1 O66_1 Fe41_1 40.4(3) . . . . ?
O58_1 Fe41_1 O66_1 S413_1 -45.2(2) . . . . ?
O67_1 Fe41_1 O66_1 S413_1 -142.9(2) . . . . ?
O74_1 Fe41_1 O66_1 S413_1 49.5(2) . . . . ?
O75_1 Fe41_1 O66_1 S413_1 122.7(5) . . . . ?
N10_1 Fe41_1 O66_1 S413_1 132.2(2) . . . . ?
Fe42_1 Fe41_1 O66_1 S413_1 -68.2(2) . . . . ?
Fe43_1 Fe41_1 O66_1 S413_1 -23.47(19) . . . . ?
O69_1 S412_1 O67_1 Fe41_1 -152.2(2) . . . . ?
O68_1 S412_1 O67_1 Fe41_1 83.4(3) . . . . ?
O70_1 S412_1 O67_1 Fe41_1 -34.3(3) . . . . ?
O58_1 Fe41_1 O67_1 S412_1 39.8(2) . . . . ?
O66_1 Fe41_1 O67_1 S412_1 137.4(2) . . . . ?
O74_1 Fe41_1 O67_1 S412_1 -130.4(5) . . . . ?
O75_1 Fe41_1 O67_1 S412_1 -55.1(2) . . . . ?
N10_1 Fe41_1 O67_1 S412_1 -139.0(2) . . . . ?
Fe42_1 Fe41_1 O67_1 S412_1 18.1(2) . . . . ?
Fe43_1 Fe41_1 O67_1 S412_1 62.9(2) . . . . ?
O69_1 S412_1 O70_1 Fe42_1 155.9(2) . . . . ?
O68_1 S412_1 O70_1 Fe42_1 -80.9(3) . . . . ?
O67_1 S412_1 O70_1 Fe42_1 38.0(3) . . . . ?
O58_1 Fe42_1 O70_1 S412_1 -46.0(2) . . . . ?
O59_1 Fe42_1 O70_1 S412_1 -143.6(2) . . . . ?
O76_1 Fe42_1 O70_1 S412_1 49.9(2) . . . . ?
O71_1 Fe42_1 O70_1 S412_1 132.5(5) . . . . ?
N11_1 Fe42_1 O70_1 S412_1 132.2(2) . . . . ?
Fe43_1 Fe42_1 O70_1 S412_1 -69.8(2) . . . . ?
Fe41_1 Fe42_1 O70_1 S412_1 -23.59(19) . . . . ?
O58_1 Fe42_1 O71_1 C80D_1 -25.5(4) . . . . ?
O70_1 Fe42_1 O71_1 C80D_1 155.9(5) . . . . ?
O59_1 Fe42_1 O71_1 C80D_1 72.4(4) . . . . ?
O76_1 Fe42_1 O71_1 C80D_1 -120.7(4) . . . . ?
N11_1 Fe42_1 O71_1 C80D_1 156.2(4) . . . . ?
Fe43_1 Fe42_1 O71_1 C80D_1 -3.5(3) . . . . ?
Fe41_1 Fe42_1 O71_1 C80D_1 -49.7(4) . . . . ?
O58_1 Fe43_1 O72_1 C80D_1 19.1(4) . . . . ?
O63_1 Fe43_1 O72_1 C80D_1 -165.4(4) . . . . ?
O62_1 Fe43_1 O72_1 C80D_1 -77.7(4) . . . . ?
O73_1 Fe43_1 O72_1 C80D_1 113.2(4) . . . . ?
N12_1 Fe43_1 O72_1 C80D_1 -162.7(4) . . . . ?
Fe42_1 Fe43_1 O72_1 C80D_1 -2.0(3) . . . . ?
Fe41_1 Fe43_1 O72_1 C80D_1 42.6(4) . . . . ?
O58_1 Fe43_1 O73_1 C20A_1 -25.1(4) . . . . ?
O63_1 Fe43_1 O73_1 C20A_1 72.9(4) . . . . ?
O62_1 Fe43_1 O73_1 C20A_1 165.9(5) . . . . ?
O72_1 Fe43_1 O73_1 C20A_1 -120.3(4) . . . . ?
N12_1 Fe43_1 O73_1 C20A_1 156.0(4) . . . . ?
Fe42_1 Fe43_1 O73_1 C20A_1 -49.9(4) . . . . ?
Fe41_1 Fe43_1 O73_1 C20A_1 -2.6(3) . . . . ?
O58_1 Fe41_1 O74_1 C20A_1 18.9(4) . . . . ?
O67_1 Fe41_1 O74_1 C20A_1 -170.8(4) . . . . ?
O66_1 Fe41_1 O74_1 C20A_1 -78.8(4) . . . . ?
O75_1 Fe41_1 O74_1 C20A_1 113.3(4) . . . . ?
N10_1 Fe41_1 O74_1 C20A_1 -162.1(4) . . . . ?
Fe42_1 Fe41_1 O74_1 C20A_1 42.9(4) . . . . ?
Fe43_1 Fe41_1 O74_1 C20A_1 -2.9(4) . . . . ?
O58_1 Fe41_1 O75_1 C81E_1 -23.8(4) . . . . ?
O67_1 Fe41_1 O75_1 C81E_1 74.1(4) . . . . ?
O66_1 Fe41_1 O75_1 C81E_1 168.3(4) . . . . ?
O74_1 Fe41_1 O75_1 C81E_1 -117.9(4) . . . . ?
N10_1 Fe41_1 O75_1 C81E_1 158.7(4) . . . . ?
Fe42_1 Fe41_1 O75_1 C81E_1 -1.8(4) . . . . ?
Fe43_1 Fe41_1 O75_1 C81E_1 -48.0(4) . . . . ?
O58_1 Fe42_1 O76_1 C81E_1 19.9(4) . . . . ?
O70_1 Fe42_1 O76_1 C81E_1 -77.1(4) . . . . ?
O59_1 Fe42_1 O76_1 C81E_1 -168.1(4) . . . . ?
O71_1 Fe42_1 O76_1 C81E_1 115.0(4) . . . . ?
N11_1 Fe42_1 O76_1 C81E_1 -160.6(4) . . . . ?
Fe43_1 Fe42_1 O76_1 C81E_1 44.1(4) . . . . ?
Fe41_1 Fe42_1 O76_1 C81E_1 -1.6(4) . . . . ?
Fe13_1 O16_1 C1A_1 O17_1 -3.6(6) . . . . ?
Fe13_1 O16_1 C1A_1 C2A_1 176.4(3) . . . . ?
Fe11_1 O17_1 C1A_1 O16_1 -2.2(6) . . . . ?
Fe11_1 O17_1 C1A_1 C2A_1 177.8(2) . . . . ?
O16_1 C1A_1 C2A_1 C3A_1 -2.2(6) . . . . ?
O17_1 C1A_1 C2A_1 C3A_1 177.8(3) . . . . ?
O16_1 C1A_1 C2A_1 C7A_1 -178.6(3) . . . . ?
O17_1 C1A_1 C2A_1 C7A_1 1.4(5) . . . . ?
C7A_1 C2A_1 C3A_1 C4A_1 0.6(5) . . . . ?
C1A_1 C2A_1 C3A_1 C4A_1 -175.8(2) . . . . ?
C2A_1 C3A_1 C4A_1 C5A_1 -0.3(2) . . . . ?
C3A_1 C4A_1 C5A_1 C6A_1 0.0 . . . . ?
C3A_1 C4A_1 C5A_1 C8A_1 175.9 . . . . ?
C4A_1 C5A_1 C6A_1 C7A_1 0.0 . . . . ?
C8A_1 C5A_1 C6A_1 C7A_1 -175.9 . . . . ?
C5A_1 C6A_1 C7A_1 C2A_1 0.3(2) . . . . ?
C3A_1 C2A_1 C7A_1 C6A_1 -0.6(5) . . . . ?
C1A_1 C2A_1 C7A_1 C6A_1 175.8(3) . . . . ?
C6A_1 C5A_1 C8A_1 C9A_1 161.2 . . . . ?
C4A_1 C5A_1 C8A_1 C9A_1 -14.7 . . . . ?
C6A_1 C5A_1 C8A_1 C13A_1 -22.1 . . . . ?
C4A_1 C5A_1 C8A_1 C13A_1 161.9 . . . . ?
C13A_1 C8A_1 C9A_1 C10A_1 0.0 . . . . ?
C5A_1 C8A_1 C9A_1 C10A_1 176.7 . . . . ?
C8A_1 C9A_1 C10A_1 C11A_1 0.0 . . . . ?
C9A_1 C10A_1 C11A_1 C12A_1 0.0 . . . . ?
C9A_1 C10A_1 C11A_1 C14A_1 174.8 . . . . ?
C10A_1 C11A_1 C12A_1 C13A_1 0.0 . . . . ?
C14A_1 C11A_1 C12A_1 C13A_1 -174.9 . . . . ?
C9A_1 C8A_1 C13A_1 C12A_1 0.0 . . . . ?
C5A_1 C8A_1 C13A_1 C12A_1 -176.7 . . . . ?
C11A_1 C12A_1 C13A_1 C8A_1 0.0 . . . . ?
C12A_1 C11A_1 C14A_1 C15A_1 -163.7 . . . . ?
C10A_1 C11A_1 C14A_1 C15A_1 21.4 . . . . ?
C12A_1 C11A_1 C14A_1 C19A_1 14.0 . . . . ?
C10A_1 C11A_1 C14A_1 C19A_1 -160.8 . . . . ?
C19A_1 C14A_1 C15A_1 C16A_1 0.0 . . . . ?
C11A_1 C14A_1 C15A_1 C16A_1 177.8 . . . . ?
C14A_1 C15A_1 C16A_1 C17A_1 0.0 . . . . ?
C15A_1 C16A_1 C17A_1 C18A_1 0.0 . . . . ?
C15A_1 C16A_1 C17A_1 C20A_1 176.20(19) . . . . ?
C16A_1 C17A_1 C18A_1 C19A_1 0.0 . . . . ?
C20A_1 C17A_1 C18A_1 C19A_1 -176.11(19) . . . . ?
C17A_1 C18A_1 C19A_1 C14A_1 0.0 . . . . ?
C15A_1 C14A_1 C19A_1 C18A_1 0.0 . . . . ?
C11A_1 C14A_1 C19A_1 C18A_1 -177.7 . . . . ?
Fe43_1 O73_1 C20A_1 O74_1 1.7(7) . . . . ?
Fe43_1 O73_1 C20A_1 C17A_1 -178.28(18) . . . . ?
Fe41_1 O74_1 C20A_1 O73_1 2.3(7) . . . . ?
Fe41_1 O74_1 C20A_1 C17A_1 -177.75(19) . . . . ?
C18A_1 C17A_1 C20A_1 O73_1 -1.1(4) . . . . ?
C16A_1 C17A_1 C20A_1 O73_1 -177.2(3) . . . . ?
C18A_1 C17A_1 C20A_1 O74_1 179.0(3) . . . . ?
C16A_1 C17A_1 C20A_1 O74_1 2.8(4) . . . . ?
Fe12_1 O14_1 C21B_1 O15_1 -1.1(6) . . . . ?
Fe12_1 O14_1 C21B_1 C22B_1 177.6(2) . . . . ?
Fe13_1 O15_1 C21B_1 O14_1 -3.0(6) . . . . ?
Fe13_1 O15_1 C21B_1 C22B_1 178.3(2) . . . . ?
O14_1 C21B_1 C22B_1 C23B_1 5.4(5) . . . . ?
O15_1 C21B_1 C22B_1 C23B_1 -175.7(3) . . . . ?
O14_1 C21B_1 C22B_1 C27B_1 -173.8(3) . . . . ?
O15_1 C21B_1 C22B_1 C27B_1 5.1(5) . . . . ?
C27B_1 C22B_1 C23B_1 C24B_1 0.1(4) . . . . ?
C21B_1 C22B_1 C23B_1 C24B_1 -179.1(2) . . . . ?
C22B_1 C23B_1 C24B_1 C25B_1 0.0(2) . . . . ?
C23B_1 C24B_1 C25B_1 C26B_1 0.0 . . . . ?
C23B_1 C24B_1 C25B_1 C28B_1 -179.1 . . . . ?
C24B_1 C25B_1 C26B_1 C27B_1 0.0 . . . . ?
C28B_1 C25B_1 C26B_1 C27B_1 179.1 . . . . ?
C25B_1 C26B_1 C27B_1 C22B_1 0.0(2) . . . . ?
C23B_1 C22B_1 C27B_1 C26B_1 -0.1(4) . . . . ?
C21B_1 C22B_1 C27B_1 C26B_1 179.1(2) . . . . ?
C24B_1 C25B_1 C28B_1 C29B_1 12.9 . . . . ?
C26B_1 C25B_1 C28B_1 C29B_1 -166.2 . . . . ?
C24B_1 C25B_1 C28B_1 C33B_1 -163.5 . . . . ?
C26B_1 C25B_1 C28B_1 C33B_1 17.4 . . . . ?
C33B_1 C28B_1 C29B_1 C30B_1 0.0 . . . . ?
C25B_1 C28B_1 C29B_1 C30B_1 -176.4 . . . . ?
C28B_1 C29B_1 C30B_1 C31B_1 0.0 . . . . ?
C29B_1 C30B_1 C31B_1 C32B_1 0.0 . . . . ?
C29B_1 C30B_1 C31B_1 C34B_1 -179.2 . . . . ?
C30B_1 C31B_1 C32B_1 C33B_1 0.0 . . . . ?
C34B_1 C31B_1 C32B_1 C33B_1 179.2 . . . . ?
C31B_1 C32B_1 C33B_1 C28B_1 0.0 . . . . ?
C29B_1 C28B_1 C33B_1 C32B_1 0.0 . . . . ?
C25B_1 C28B_1 C33B_1 C32B_1 176.4 . . . . ?
C30B_1 C31B_1 C34B_1 C35B_1 -20.3 . . . . ?
C32B_1 C31B_1 C34B_1 C35B_1 160.5 . . . . ?
C30B_1 C31B_1 C34B_1 C39B_1 162.5 . . . . ?
C32B_1 C31B_1 C34B_1 C39B_1 -16.7 . . . . ?
C39B_1 C34B_1 C35B_1 C36B_1 0.0 . . . . ?
C31B_1 C34B_1 C35B_1 C36B_1 -177.2 . . . . ?
C34B_1 C35B_1 C36B_1 C37B_1 0.0 . . . . ?
C35B_1 C36B_1 C37B_1 C38B_1 0.0 . . . . ?
C35B_1 C36B_1 C37B_1 C40B_1 177.86(19) . . . . ?
C36B_1 C37B_1 C38B_1 C39B_1 0.0 . . . . ?
C40B_1 C37B_1 C38B_1 C39B_1 -177.83(19) . . . . ?
C35B_1 C34B_1 C39B_1 C38B_1 0.0 . . . . ?
C31B_1 C34B_1 C39B_1 C38B_1 177.1 . . . . ?
C37B_1 C38B_1 C39B_1 C34B_1 0.0 . . . . ?
Fe23_1 O36_1 C40B_1 O35_1 -1.2(6) . . . . ?
Fe23_1 O36_1 C40B_1 C37B_1 -179.11(18) . . . . ?
Fe22_1 O35_1 C40B_1 O36_1 -1.4(6) . . . . ?
Fe22_1 O35_1 C40B_1 C37B_1 176.52(18) . . . . ?
C38B_1 C37B_1 C40B_1 O36_1 174.5(2) . . . . ?
C36B_1 C37B_1 C40B_1 O36_1 -3.4(4) . . . . ?
C38B_1 C37B_1 C40B_1 O35_1 -3.6(4) . . . . ?
C36B_1 C37B_1 C40B_1 O35_1 178.5(2) . . . . ?
Fe12_1 O19_1 C41C_1 O18_1 -2.2(6) . . . . ?
Fe12_1 O19_1 C41C_1 C42C_1 177.2(2) . . . . ?
Fe11_1 O18_1 C41C_1 O19_1 -1.9(6) . . . . ?
Fe11_1 O18_1 C41C_1 C42C_1 178.6(2) . . . . ?
O19_1 C41C_1 C42C_1 C43C_1 175.1(3) . . . . ?
O18_1 C41C_1 C42C_1 C43C_1 -5.5(5) . . . . ?
O19_1 C41C_1 C42C_1 C47C_1 -2.8(5) . . . . ?
O18_1 C41C_1 C42C_1 C47C_1 176.6(3) . . . . ?
C47C_1 C42C_1 C43C_1 C44C_1 1.6(4) . . . . ?
C41C_1 C42C_1 C43C_1 C44C_1 -176.2(2) . . . . ?
C42C_1 C43C_1 C44C_1 C45C_1 -0.8(2) . . . . ?
C43C_1 C44C_1 C45C_1 C46C_1 0.0 . . . . ?
C43C_1 C44C_1 C45C_1 C48C_1 177.3 . . . . ?
C44C_1 C45C_1 C46C_1 C47C_1 0.0 . . . . ?
C48C_1 C45C_1 C46C_1 C47C_1 -177.3 . . . . ?
C45C_1 C46C_1 C47C_1 C42C_1 0.8(2) . . . . ?
C43C_1 C42C_1 C47C_1 C46C_1 -1.6(4) . . . . ?
C41C_1 C42C_1 C47C_1 C46C_1 176.3(2) . . . . ?
C46C_1 C45C_1 C48C_1 C49C_1 168.0 . . . . ?
C44C_1 C45C_1 C48C_1 C49C_1 -9.3 . . . . ?
C46C_1 C45C_1 C48C_1 C53C_1 -11.3 . . . . ?
C44C_1 C45C_1 C48C_1 C53C_1 171.4 . . . . ?
C53C_1 C48C_1 C49C_1 C50C_1 0.0 . . . . ?
C45C_1 C48C_1 C49C_1 C50C_1 -179.3 . . . . ?
C48C_1 C49C_1 C50C_1 C51C_1 0.0 . . . . ?
C49C_1 C50C_1 C51C_1 C52C_1 0.0 . . . . ?
C49C_1 C50C_1 C51C_1 C54C_1 173.9 . . . . ?
C50C_1 C51C_1 C52C_1 C53C_1 0.0 . . . . ?
C54C_1 C51C_1 C52C_1 C53C_1 -173.9 . . . . ?
C49C_1 C48C_1 C53C_1 C52C_1 0.0 . . . . ?
C45C_1 C48C_1 C53C_1 C52C_1 179.3 . . . . ?
C51C_1 C52C_1 C53C_1 C48C_1 0.0 . . . . ?
C50C_1 C51C_1 C54C_1 C55C_1 11.2 . . . . ?
C52C_1 C51C_1 C54C_1 C55C_1 -174.8 . . . . ?
C50C_1 C51C_1 C54C_1 C59C_1 -168.3 . . . . ?
C52C_1 C51C_1 C54C_1 C59C_1 5.7 . . . . ?
C59C_1 C54C_1 C55C_1 C56C_1 0.0 . . . . ?
C51C_1 C54C_1 C55C_1 C56C_1 -179.5 . . . . ?
C54C_1 C55C_1 C56C_1 C57C_1 0.0 . . . . ?
C55C_1 C56C_1 C57C_1 C58C_1 0.0 . . . . ?
C55C_1 C56C_1 C57C_1 C60C_1 177.87(18) . . . . ?
C56C_1 C57C_1 C58C_1 C59C_1 0.0 . . . . ?
C60C_1 C57C_1 C58C_1 C59C_1 -177.90(18) . . . . ?
C57C_1 C58C_1 C59C_1 C54C_1 0.0 . . . . ?
C55C_1 C54C_1 C59C_1 C58C_1 0.0 . . . . ?
C51C_1 C54C_1 C59C_1 C58C_1 179.5 . . . . ?
Fe33_1 O56_1 C60C_1 O57_1 2.9(6) . . . . ?
Fe33_1 O56_1 C60C_1 C57C_1 177.83(18) . . . . ?
Fe31_1 O57_1 C60C_1 O56_1 -4.8(6) . . . . ?
Fe31_1 O57_1 C60C_1 C57C_1 -179.71(18) . . . . ?
C58C_1 C57C_1 C60C_1 O56_1 5.2(4) . . . . ?
C56C_1 C57C_1 C60C_1 O56_1 -172.7(2) . . . . ?
C58C_1 C57C_1 C60C_1 O57_1 -179.5(2) . . . . ?
C56C_1 C57C_1 C60C_1 O57_1 2.6(4) . . . . ?
Fe31_1 O52_1 C61D_1 O53_1 3.8(7) . . . . ?
Fe31_1 O52_1 C61D_1 C62D_1 -179.0(3) . . . . ?
Fe32_1 O53_1 C61D_1 O52_1 -3.8(7) . . . . ?
Fe32_1 O53_1 C61D_1 C62D_1 179.0(3) . . . . ?
O52_1 C61D_1 C62D_1 C67D_1 179.1(3) . . . . ?
O53_1 C61D_1 C62D_1 C67D_1 -3.4(6) . . . . ?
O52_1 C61D_1 C62D_1 C63D_1 -6.9(6) . . . . ?
O53_1 C61D_1 C62D_1 C63D_1 170.5(3) . . . . ?
C67D_1 C62D_1 C63D_1 C64D_1 -3.7(4) . . . . ?
C61D_1 C62D_1 C63D_1 C64D_1 -177.6(3) . . . . ?
C62D_1 C63D_1 C64D_1 C65D_1 1.9(2) . . . . ?
C63D_1 C64D_1 C65D_1 C66D_1 0.0 . . . . ?
C63D_1 C64D_1 C65D_1 C68D_1 177.0 . . . . ?
C64D_1 C65D_1 C66D_1 C67D_1 0.0 . . . . ?
C68D_1 C65D_1 C66D_1 C67D_1 -177.1 . . . . ?
C63D_1 C62D_1 C67D_1 C66D_1 3.7(4) . . . . ?
C61D_1 C62D_1 C67D_1 C66D_1 177.6(3) . . . . ?
C65D_1 C66D_1 C67D_1 C62D_1 -1.8(2) . . . . ?
C64D_1 C65D_1 C68D_1 C73D_1 171.7 . . . . ?
C66D_1 C65D_1 C68D_1 C73D_1 -11.2 . . . . ?
C64D_1 C65D_1 C68D_1 C69D_1 -10.0 . . . . ?
C66D_1 C65D_1 C68D_1 C69D_1 167.0 . . . . ?
C73D_1 C68D_1 C69D_1 C70D_1 0.0 . . . . ?
C65D_1 C68D_1 C69D_1 C70D_1 -178.3 . . . . ?
C68D_1 C69D_1 C70D_1 C71D_1 0.0 . . . . ?
C69D_1 C70D_1 C71D_1 C72D_1 0.0 . . . . ?
C69D_1 C70D_1 C71D_1 C74D_1 176.9 . . . . ?
C70D_1 C71D_1 C72D_1 C73D_1 0.0 . . . . ?
C74D_1 C71D_1 C72D_1 C73D_1 -177.0 . . . . ?
C71D_1 C72D_1 C73D_1 C68D_1 0.0 . . . . ?
C69D_1 C68D_1 C73D_1 C72D_1 0.0 . . . . ?
C65D_1 C68D_1 C73D_1 C72D_1 178.3 . . . . ?
C70D_1 C71D_1 C74D_1 C75D_1 12.9 . . . . ?
C72D_1 C71D_1 C74D_1 C75D_1 -170.2 . . . . ?
C70D_1 C71D_1 C74D_1 C79D_1 -164.5 . . . . ?
C72D_1 C71D_1 C74D_1 C79D_1 12.4 . . . . ?
C79D_1 C74D_1 C75D_1 C76D_1 0.0 . . . . ?
C71D_1 C74D_1 C75D_1 C76D_1 -177.4 . . . . ?
C74D_1 C75D_1 C76D_1 C77D_1 0.0 . . . . ?
C75D_1 C76D_1 C77D_1 C78D_1 0.0 . . . . ?
C75D_1 C76D_1 C77D_1 C80D_1 176.09(19) . . . . ?
C76D_1 C77D_1 C78D_1 C79D_1 0.0 . . . . ?
C80D_1 C77D_1 C78D_1 C79D_1 -176.15(19) . . . . ?
C77D_1 C78D_1 C79D_1 C74D_1 0.0 . . . . ?
C75D_1 C74D_1 C79D_1 C78D_1 0.0 . . . . ?
C71D_1 C74D_1 C79D_1 C78D_1 177.4 . . . . ?
Fe42_1 O71_1 C80D_1 O72_1 3.5(6) . . . . ?
Fe42_1 O71_1 C80D_1 C77D_1 -177.80(18) . . . . ?
Fe43_1 O72_1 C80D_1 O71_1 0.4(6) . . . . ?
Fe43_1 O72_1 C80D_1 C77D_1 -178.25(19) . . . . ?
C78D_1 C77D_1 C80D_1 O71_1 2.1(4) . . . . ?
C76D_1 C77D_1 C80D_1 O71_1 -174.0(3) . . . . ?
C78D_1 C77D_1 C80D_1 O72_1 -179.1(2) . . . . ?
C76D_1 C77D_1 C80D_1 O72_1 4.8(4) . . . . ?
Fe42_1 O76_1 C81E_1 O75_1 1.0(7) . . . . ?
Fe42_1 O76_1 C81E_1 C82E_1 -177.9(3) . . . . ?
Fe41_1 O75_1 C81E_1 O76_1 1.5(7) . . . . ?
Fe41_1 O75_1 C81E_1 C82E_1 -179.6(3) . . . . ?
O76_1 C81E_1 C82E_1 C87E_1 1.3(6) . . . . ?
O75_1 C81E_1 C82E_1 C87E_1 -177.7(3) . . . . ?
O76_1 C81E_1 C82E_1 C83E_1 178.1(4) . . . . ?
O75_1 C81E_1 C82E_1 C83E_1 -0.9(6) . . . . ?
C87E_1 C82E_1 C83E_1 C84E_1 -2.3(5) . . . . ?
C81E_1 C82E_1 C83E_1 C84E_1 -178.9(3) . . . . ?
C82E_1 C83E_1 C84E_1 C85E_1 1.1(2) . . . . ?
C83E_1 C84E_1 C85E_1 C86E_1 0.0 . . . . ?
C83E_1 C84E_1 C85E_1 C88E_1 178.0 . . . . ?
C84E_1 C85E_1 C86E_1 C87E_1 0.0 . . . . ?
C88E_1 C85E_1 C86E_1 C87E_1 -178.1 . . . . ?
C83E_1 C82E_1 C87E_1 C86E_1 2.3(5) . . . . ?
C81E_1 C82E_1 C87E_1 C86E_1 179.1(3) . . . . ?
C85E_1 C86E_1 C87E_1 C82E_1 -1.1(2) . . . . ?
C86E_1 C85E_1 C88E_1 C89E_1 164.3 . . . . ?
C84E_1 C85E_1 C88E_1 C89E_1 -13.7 . . . . ?
C86E_1 C85E_1 C88E_1 C93E_1 -13.8 . . . . ?
C84E_1 C85E_1 C88E_1 C93E_1 168.2 . . . . ?
C93E_1 C88E_1 C89E_1 C90E_1 0.0 . . . . ?
C85E_1 C88E_1 C89E_1 C90E_1 -178.1 . . . . ?
C88E_1 C89E_1 C90E_1 C91E_1 0.0 . . . . ?
C89E_1 C90E_1 C91E_1 C92E_1 0.0 . . . . ?
C89E_1 C90E_1 C91E_1 C94E_1 -177.5 . . . . ?
C90E_1 C91E_1 C92E_1 C93E_1 0.0 . . . . ?
C94E_1 C91E_1 C92E_1 C93E_1 177.5 . . . . ?
C91E_1 C92E_1 C93E_1 C88E_1 0.0 . . . . ?
C89E_1 C88E_1 C93E_1 C92E_1 0.0 . . . . ?
C85E_1 C88E_1 C93E_1 C92E_1 178.1 . . . . ?
C90E_1 C91E_1 C94E_1 C95E_1 10.8 . . . . ?
C92E_1 C91E_1 C94E_1 C95E_1 -166.7 . . . . ?
C90E_1 C91E_1 C94E_1 C99E_1 -164.8 . . . . ?
C92E_1 C91E_1 C94E_1 C99E_1 17.7 . . . . ?
C99E_1 C94E_1 C95E_1 C96E_1 0.0 . . . . ?
C91E_1 C94E_1 C95E_1 C96E_1 -175.6 . . . . ?
C94E_1 C95E_1 C96E_1 C97E_1 0.0 . . . . ?
C95E_1 C96E_1 C97E_1 C98E_1 0.0 . . . . ?
C95E_1 C96E_1 C97E_1 C100_1 -178.87(18) . . . . ?
C96E_1 C97E_1 C98E_1 C99E_1 0.0 . . . . ?
C100_1 C97E_1 C98E_1 C99E_1 178.87(18) . . . . ?
C97E_1 C98E_1 C99E_1 C94E_1 0.0 . . . . ?
C95E_1 C94E_1 C99E_1 C98E_1 0.0 . . . . ?
C91E_1 C94E_1 C99E_1 C98E_1 175.7 . . . . ?
Fe22_1 O34_1 C100_1 O33_1 -1.6(7) . . . . ?
Fe22_1 O34_1 C100_1 C97E_1 -176.92(17) . . . . ?
Fe21_1 O33_1 C100_1 O34_1 3.5(6) . . . . ?
Fe21_1 O33_1 C100_1 C97E_1 178.75(17) . . . . ?
C96E_1 C97E_1 C100_1 O34_1 -0.2(4) . . . . ?
C98E_1 C97E_1 C100_1 O34_1 -179.0(2) . . . . ?
C96E_1 C97E_1 C100_1 O33_1 -176.0(2) . . . . ?
C98E_1 C97E_1 C100_1 O33_1 5.1(4) . . . . ?
Fe33_1 O55_1 C101_1 O54_1 -10.0(6) . . . . ?
Fe33_1 O55_1 C101_1 C102_1 169.6(2) . . . . ?
Fe32_1 O54_1 C101_1 O55_1 9.3(6) . . . . ?
Fe32_1 O54_1 C101_1 C102_1 -170.2(2) . . . . ?
O55_1 C101_1 C102_1 C103_1 178.0(3) . . . . ?
O54_1 C101_1 C102_1 C103_1 -2.4(5) . . . . ?
O55_1 C101_1 C102_1 C107_1 1.5(5) . . . . ?
O54_1 C101_1 C102_1 C107_1 -178.9(3) . . . . ?
C107_1 C102_1 C103_1 C104_1 0.2(4) . . . . ?
C101_1 C102_1 C103_1 C104_1 -176.2(2) . . . . ?
C102_1 C103_1 C104_1 C105_1 -0.10(19) . . . . ?
C103_1 C104_1 C105_1 C106_1 0.0 . . . . ?
C103_1 C104_1 C105_1 C108_1 178.8 . . . . ?
C104_1 C105_1 C106_1 C107_1 0.0 . . . . ?
C108_1 C105_1 C106_1 C107_1 -178.8 . . . . ?
C105_1 C106_1 C107_1 C102_1 0.10(19) . . . . ?
C103_1 C102_1 C107_1 C106_1 -0.2(4) . . . . ?
C101_1 C102_1 C107_1 C106_1 176.2(2) . . . . ?
C104_1 C105_1 C108_1 C109_1 0.3 . . . . ?
C106_1 C105_1 C108_1 C109_1 179.1 . . . . ?
C104_1 C105_1 C108_1 C113_1 -171.8 . . . . ?
C106_1 C105_1 C108_1 C113_1 7.0 . . . . ?
C113_1 C108_1 C109_1 C110_1 0.0 . . . . ?
C105_1 C108_1 C109_1 C110_1 -172.2 . . . . ?
C108_1 C109_1 C110_1 C111_1 0.0 . . . . ?
C109_1 C110_1 C111_1 C112_1 0.0 . . . . ?
C109_1 C110_1 C111_1 C114_1 178.5 . . . . ?
C110_1 C111_1 C112_1 C113_1 0.0 . . . . ?
C114_1 C111_1 C112_1 C113_1 -178.6 . . . . ?
C111_1 C112_1 C113_1 C108_1 0.0 . . . . ?
C109_1 C108_1 C113_1 C112_1 0.0 . . . . ?
C105_1 C108_1 C113_1 C112_1 171.9 . . . . ?
C112_1 C111_1 C114_1 C115_1 177.1 . . . . ?
C110_1 C111_1 C114_1 C115_1 -1.5 . . . . ?
C112_1 C111_1 C114_1 C119_1 -1.9 . . . . ?
C110_1 C111_1 C114_1 C119_1 179.5 . . . . ?
C119_1 C114_1 C115_1 C116_1 0.0 . . . . ?
C111_1 C114_1 C115_1 C116_1 -179.0 . . . . ?
C114_1 C115_1 C116_1 C117_1 0.0 . . . . ?
C115_1 C116_1 C117_1 C118_1 0.0 . . . . ?
C115_1 C116_1 C117_1 C120_1 175.92(18) . . . . ?
C116_1 C117_1 C118_1 C119_1 0.0 . . . . ?
C120_1 C117_1 C118_1 C119_1 -175.94(17) . . . . ?
C117_1 C118_1 C119_1 C114_1 0.0 . . . . ?
C115_1 C114_1 C119_1 C118_1 0.0 . . . . ?
C111_1 C114_1 C119_1 C118_1 179.0 . . . . ?
Fe21_1 O38_1 C120_1 O37_1 -0.9(6) . . . . ?
Fe21_1 O38_1 C120_1 C117_1 -179.09(17) . . . . ?
Fe23_1 O37_1 C120_1 O38_1 2.1(6) . . . . ?
Fe23_1 O37_1 C120_1 C117_1 -179.71(17) . . . . ?
C118_1 C117_1 C120_1 O38_1 176.7(2) . . . . ?
C116_1 C117_1 C120_1 O38_1 0.8(4) . . . . ?
C118_1 C117_1 C120_1 O37_1 -1.7(4) . . . . ?
C116_1 C117_1 C120_1 O37_1 -177.6(2) . . . . ?
O1_1 Fe11_1 N1_1 C125_1 -91(2) . . . . ?
O9_1 Fe11_1 N1_1 C125_1 133.35(19) . . . . ?
O10_1 Fe11_1 N1_1 C125_1 44.03(18) . . . . ?
O17_1 Fe11_1 N1_1 C125_1 -134.25(19) . . . . ?
O18_1 Fe11_1 N1_1 C125_1 -48.39(18) . . . . ?
Fe13_1 Fe11_1 N1_1 C125_1 -176.51(7) . . . . ?
Fe12_1 Fe11_1 N1_1 C125_1 -9.9(3) . . . . ?
O1_1 Fe11_1 N1_1 C121_1 88(2) . . . . ?
O9_1 Fe11_1 N1_1 C121_1 -48.15(18) . . . . ?
O10_1 Fe11_1 N1_1 C121_1 -137.46(19) . . . . ?
O17_1 Fe11_1 N1_1 C121_1 44.26(18) . . . . ?
O18_1 Fe11_1 N1_1 C121_1 130.12(19) . . . . ?
Fe13_1 Fe11_1 N1_1 C121_1 2.0(3) . . . . ?
Fe12_1 Fe11_1 N1_1 C121_1 168.64(7) . . . . ?
C125_1 N1_1 C121_1 C122_1 -0.8(3) . . . . ?
Fe11_1 N1_1 C121_1 C122_1 -179.29(8) . . . . ?
N1_1 C121_1 C122_1 C123_1 0.40(13) . . . . ?
C121_1 C122_1 C123_1 C124_1 0.0 . . . . ?
C122_1 C123_1 C124_1 C125_1 0.0 . . . . ?
C121_1 N1_1 C125_1 C124_1 0.8(3) . . . . ?
Fe11_1 N1_1 C125_1 C124_1 179.28(8) . . . . ?
C123_1 C124_1 C125_1 N1_1 -0.40(13) . . . . ?
O1_1 Fe12_1 N2_1 C130_1 -63.1(19) . . . . ?
O13_1 Fe12_1 N2_1 C130_1 130.79(7) . . . . ?
O2_1 Fe12_1 N2_1 C130_1 41.79(7) . . . . ?
O19_1 Fe12_1 N2_1 C130_1 -138.08(7) . . . . ?
O14_1 Fe12_1 N2_1 C130_1 -51.38(7) . . . . ?
Fe11_1 Fe12_1 N2_1 C130_1 179.60(4) . . . . ?
Fe13_1 Fe12_1 N2_1 C130_1 -10.12(6) . . . . ?
O1_1 Fe12_1 N2_1 C126_1 118.1(18) . . . . ?
O13_1 Fe12_1 N2_1 C126_1 -48.04(7) . . . . ?
O2_1 Fe12_1 N2_1 C126_1 -137.05(7) . . . . ?
O19_1 Fe12_1 N2_1 C126_1 43.08(7) . . . . ?
O14_1 Fe12_1 N2_1 C126_1 129.78(7) . . . . ?
Fe11_1 Fe12_1 N2_1 C126_1 0.76(6) . . . . ?
Fe13_1 Fe12_1 N2_1 C126_1 171.04(4) . . . . ?
C130_1 N2_1 C126_1 C127_1 0.0 . . . . ?
Fe12_1 N2_1 C126_1 C127_1 178.8 . . . . ?
N2_1 C126_1 C127_1 C128_1 0.0 . . . . ?
C126_1 C127_1 C128_1 C129_1 0.0 . . . . ?
C127_1 C128_1 C129_1 C130_1 0.0 . . . . ?
C126_1 N2_1 C130_1 C129_1 0.0 . . . . ?
Fe12_1 N2_1 C130_1 C129_1 -178.8 . . . . ?
C128_1 C129_1 C130_1 N2_1 0.0 . . . . ?
O1_1 Fe13_1 N3_1 C131_1 73.0(11) . . . . ?
O6_1 Fe13_1 N3_1 C131_1 -134.03(7) . . . . ?
O5_1 Fe13_1 N3_1 C131_1 -44.79(7) . . . . ?
O15_1 Fe13_1 N3_1 C131_1 47.59(7) . . . . ?
O16_1 Fe13_1 N3_1 C131_1 133.99(7) . . . . ?
Fe11_1 Fe13_1 N3_1 C131_1 172.56(4) . . . . ?
Fe12_1 Fe13_1 N3_1 C131_1 6.90(6) . . . . ?
O1_1 Fe13_1 N3_1 C135_1 -105.7(11) . . . . ?
O6_1 Fe13_1 N3_1 C135_1 47.20(7) . . . . ?
O5_1 Fe13_1 N3_1 C135_1 136.44(7) . . . . ?
O15_1 Fe13_1 N3_1 C135_1 -131.18(7) . . . . ?
O16_1 Fe13_1 N3_1 C135_1 -44.78(7) . . . . ?
Fe11_1 Fe13_1 N3_1 C135_1 -6.21(6) . . . . ?
Fe12_1 Fe13_1 N3_1 C135_1 -171.87(4) . . . . ?
C135_1 N3_1 C131_1 C132_1 0.0 . . . . ?
Fe13_1 N3_1 C131_1 C132_1 -178.8 . . . . ?
N3_1 C131_1 C132_1 C133_1 0.0 . . . . ?
C131_1 C132_1 C133_1 C134_1 0.0 . . . . ?
C132_1 C133_1 C134_1 C135_1 0.0 . . . . ?
C133_1 C134_1 C135_1 N3_1 0.0 . . . . ?
C131_1 N3_1 C135_1 C134_1 0.0 . . . . ?
Fe13_1 N3_1 C135_1 C134_1 178.8 . . . . ?
O20_1 Fe21_1 N4_1 C136_1 87(2) . . . . ?
O21_1 Fe21_1 N4_1 C136_1 -131.56(7) . . . . ?
O32_1 Fe21_1 N4_1 C136_1 -43.03(7) . . . . ?
O33_1 Fe21_1 N4_1 C136_1 135.59(8) . . . . ?
O38_1 Fe21_1 N4_1 C136_1 49.13(7) . . . . ?
Fe22_1 Fe21_1 N4_1 C136_1 -179.57(4) . . . . ?
Fe23_1 Fe21_1 N4_1 C136_1 9.07(6) . . . . ?
O20_1 Fe21_1 N4_1 C140_1 -95(2) . . . . ?
O21_1 Fe21_1 N4_1 C140_1 47.13(7) . . . . ?
O32_1 Fe21_1 N4_1 C140_1 135.66(7) . . . . ?
O33_1 Fe21_1 N4_1 C140_1 -45.72(8) . . . . ?
O38_1 Fe21_1 N4_1 C140_1 -132.18(7) . . . . ?
Fe22_1 Fe21_1 N4_1 C140_1 -0.88(6) . . . . ?
Fe23_1 Fe21_1 N4_1 C140_1 -172.24(4) . . . . ?
C140_1 N4_1 C136_1 C137_1 0.0 . . . . ?
Fe21_1 N4_1 C136_1 C137_1 178.7 . . . . ?
N4_1 C136_1 C137_1 C138_1 0.0 . . . . ?
C136_1 C137_1 C138_1 C139_1 0.0 . . . . ?
C137_1 C138_1 C139_1 C140_1 0.0 . . . . ?
C138_1 C139_1 C140_1 N4_1 0.0 . . . . ?
C136_1 N4_1 C140_1 C139_1 0.0 . . . . ?
Fe21_1 N4_1 C140_1 C139_1 -178.7 . . . . ?
O20_1 Fe22_1 N5_1 C141_1 66.7(13) . . . . ?
O25_1 Fe22_1 N5_1 C141_1 -137.58(7) . . . . ?
O24_1 Fe22_1 N5_1 C141_1 -48.06(7) . . . . ?
O34_1 Fe22_1 N5_1 C141_1 44.48(8) . . . . ?
O35_1 Fe22_1 N5_1 C141_1 130.46(7) . . . . ?
Fe21_1 Fe22_1 N5_1 C141_1 3.08(6) . . . . ?
Fe23_1 Fe22_1 N5_1 C141_1 170.38(4) . . . . ?
O20_1 Fe22_1 N5_1 C145_1 -114.0(13) . . . . ?
O25_1 Fe22_1 N5_1 C145_1 41.73(7) . . . . ?
O24_1 Fe22_1 N5_1 C145_1 131.25(7) . . . . ?
O34_1 Fe22_1 N5_1 C145_1 -136.21(7) . . . . ?
O35_1 Fe22_1 N5_1 C145_1 -50.23(7) . . . . ?
Fe21_1 Fe22_1 N5_1 C145_1 -177.61(4) . . . . ?
Fe23_1 Fe22_1 N5_1 C145_1 -10.31(6) . . . . ?
C145_1 N5_1 C141_1 C142_1 0.0 . . . . ?
Fe22_1 N5_1 C141_1 C142_1 179.3 . . . . ?
N5_1 C141_1 C142_1 C143_1 0.0 . . . . ?
C141_1 C142_1 C143_1 C144_1 0.0 . . . . ?
C142_1 C143_1 C144_1 C145_1 0.0 . . . . ?
C143_1 C144_1 C145_1 N5_1 0.0 . . . . ?
C141_1 N5_1 C145_1 C144_1 0.0 . . . . ?
Fe22_1 N5_1 C145_1 C144_1 -179.3 . . . . ?
O20_1 Fe23_1 N6_1 C146_1 86.6(16) . . . . ?
O28_1 Fe23_1 N6_1 C146_1 -47.51(7) . . . . ?
O29_1 Fe23_1 N6_1 C146_1 -136.58(7) . . . . ?
O36_1 Fe23_1 N6_1 C146_1 44.93(8) . . . . ?
O37_1 Fe23_1 N6_1 C146_1 131.74(8) . . . . ?
Fe22_1 Fe23_1 N6_1 C146_1 2.46(6) . . . . ?
Fe21_1 Fe23_1 N6_1 C146_1 170.88(4) . . . . ?
O20_1 Fe23_1 N6_1 C150_1 -92.7(16) . . . . ?
O28_1 Fe23_1 N6_1 C150_1 133.20(7) . . . . ?
O29_1 Fe23_1 N6_1 C150_1 44.12(8) . . . . ?
O36_1 Fe23_1 N6_1 C150_1 -134.36(8) . . . . ?
O37_1 Fe23_1 N6_1 C150_1 -47.55(8) . . . . ?
Fe22_1 Fe23_1 N6_1 C150_1 -176.83(4) . . . . ?
Fe21_1 Fe23_1 N6_1 C150_1 -8.41(6) . . . . ?
C150_1 N6_1 C146_1 C147_1 0.0 . . . . ?
Fe23_1 N6_1 C146_1 C147_1 -179.3 . . . . ?
N6_1 C146_1 C147_1 C148_1 0.0 . . . . ?
C146_1 C147_1 C148_1 C149_1 0.0 . . . . ?
C147_1 C148_1 C149_1 C150_1 0.0 . . . . ?
C148_1 C149_1 C150_1 N6_1 0.0 . . . . ?
C146_1 N6_1 C150_1 C149_1 0.0 . . . . ?
Fe23_1 N6_1 C150_1 C149_1 179.3 . . . . ?
O39_1 Fe31_1 N7_1 C151_1 88.9(17) . . . . ?
O51_1 Fe31_1 N7_1 C151_1 -43.88(10) . . . . ?
O40_1 Fe31_1 N7_1 C151_1 -133.92(10) . . . . ?
O57_1 Fe31_1 N7_1 C151_1 48.74(8) . . . . ?
O52_1 Fe31_1 N7_1 C151_1 134.40(8) . . . . ?
Fe33_1 Fe31_1 N7_1 C151_1 7.36(7) . . . . ?
Fe32_1 Fe31_1 N7_1 C151_1 175.23(4) . . . . ?
O39_1 Fe31_1 N7_1 C155_1 -93.0(17) . . . . ?
O51_1 Fe31_1 N7_1 C155_1 134.21(9) . . . . ?
O40_1 Fe31_1 N7_1 C155_1 44.17(10) . . . . ?
O57_1 Fe31_1 N7_1 C155_1 -133.17(8) . . . . ?
O52_1 Fe31_1 N7_1 C155_1 -47.51(8) . . . . ?
Fe33_1 Fe31_1 N7_1 C155_1 -174.54(4) . . . . ?
Fe32_1 Fe31_1 N7_1 C155_1 -6.68(7) . . . . ?
C155_1 N7_1 C151_1 C152_1 0.0 . . . . ?
Fe31_1 N7_1 C151_1 C152_1 178.1 . . . . ?
N7_1 C151_1 C152_1 C153_1 0.0 . . . . ?
C151_1 C152_1 C153_1 C154_1 0.0 . . . . ?
C152_1 C153_1 C154_1 C155_1 0.0 . . . . ?
C153_1 C154_1 C155_1 N7_1 0.0 . . . . ?
C151_1 N7_1 C155_1 C154_1 0.0 . . . . ?
Fe31_1 N7_1 C155_1 C154_1 -178.1 . . . . ?
O39_1 Fe32_1 N8_1 C160_1 -93.8(12) . . . . ?
O44_1 Fe32_1 N8_1 C160_1 47.68(8) . . . . ?
O43_1 Fe32_1 N8_1 C160_1 137.06(8) . . . . ?
O54_1 Fe32_1 N8_1 C160_1 -44.20(8) . . . . ?
O53_1 Fe32_1 N8_1 C160_1 -130.52(8) . . . . ?
Fe33_1 Fe32_1 N8_1 C160_1 -4.23(6) . . . . ?
Fe31_1 Fe32_1 N8_1 C160_1 -170.12(4) . . . . ?
O39_1 Fe32_1 N8_1 C156_1 82.9(12) . . . . ?
O44_1 Fe32_1 N8_1 C156_1 -135.71(7) . . . . ?
O43_1 Fe32_1 N8_1 C156_1 -46.33(8) . . . . ?
O54_1 Fe32_1 N8_1 C156_1 132.41(7) . . . . ?
O53_1 Fe32_1 N8_1 C156_1 46.09(8) . . . . ?
Fe33_1 Fe32_1 N8_1 C156_1 172.38(4) . . . . ?
Fe31_1 Fe32_1 N8_1 C156_1 6.49(6) . . . . ?
C160_1 N8_1 C156_1 C157_1 0.0 . . . . ?
Fe32_1 N8_1 C156_1 C157_1 -176.6 . . . . ?
N8_1 C156_1 C157_1 C158_1 0.0 . . . . ?
C156_1 C157_1 C158_1 C159_1 0.0 . . . . ?
C157_1 C158_1 C159_1 C160_1 0.0 . . . . ?
C156_1 N8_1 C160_1 C159_1 0.0 . . . . ?
Fe32_1 N8_1 C160_1 C159_1 176.6 . . . . ?
C158_1 C159_1 C160_1 N8_1 0.0 . . . . ?
O39_1 Fe33_1 N9_1 C161_1 96.0(14) . . . . ?
O48_1 Fe33_1 N9_1 C161_1 -137.33(7) . . . . ?
O47_1 Fe33_1 N9_1 C161_1 -47.33(7) . . . . ?
O56_1 Fe33_1 N9_1 C161_1 130.17(8) . . . . ?
O55_1 Fe33_1 N9_1 C161_1 43.92(7) . . . . ?
Fe32_1 Fe33_1 N9_1 C161_1 3.18(6) . . . . ?
Fe31_1 Fe33_1 N9_1 C161_1 170.12(4) . . . . ?
O39_1 Fe33_1 N9_1 C165_1 -81.8(14) . . . . ?
O48_1 Fe33_1 N9_1 C165_1 44.90(8) . . . . ?
O47_1 Fe33_1 N9_1 C165_1 134.90(7) . . . . ?
O56_1 Fe33_1 N9_1 C165_1 -47.60(8) . . . . ?
O55_1 Fe33_1 N9_1 C165_1 -133.85(7) . . . . ?
Fe32_1 Fe33_1 N9_1 C165_1 -174.59(4) . . . . ?
Fe31_1 Fe33_1 N9_1 C165_1 -7.65(6) . . . . ?
C165_1 N9_1 C161_1 C162_1 0.0 . . . . ?
Fe33_1 N9_1 C161_1 C162_1 -177.8 . . . . ?
N9_1 C161_1 C162_1 C163_1 0.0 . . . . ?
C161_1 C162_1 C163_1 C164_1 0.0 . . . . ?
C162_1 C163_1 C164_1 C165_1 0.0 . . . . ?
C163_1 C164_1 C165_1 N9_1 0.0 . . . . ?
C161_1 N9_1 C165_1 C164_1 0.0 . . . . ?
Fe33_1 N9_1 C165_1 C164_1 177.8 . . . . ?
O58_1 Fe41_1 N10_1 C170_1 -108.9(14) . . . . ?
O67_1 Fe41_1 N10_1 C170_1 47.07(8) . . . . ?
O66_1 Fe41_1 N10_1 C170_1 136.94(7) . . . . ?
O74_1 Fe41_1 N10_1 C170_1 -131.07(8) . . . . ?
O75_1 Fe41_1 N10_1 C170_1 -45.15(8) . . . . ?
Fe42_1 Fe41_1 N10_1 C170_1 -3.93(6) . . . . ?
Fe43_1 Fe41_1 N10_1 C170_1 -172.39(4) . . . . ?
O58_1 Fe41_1 N10_1 C166_1 67.3(14) . . . . ?
O67_1 Fe41_1 N10_1 C166_1 -136.67(7) . . . . ?
O66_1 Fe41_1 N10_1 C166_1 -46.80(7) . . . . ?
O74_1 Fe41_1 N10_1 C166_1 45.19(8) . . . . ?
O75_1 Fe41_1 N10_1 C166_1 131.11(8) . . . . ?
Fe42_1 Fe41_1 N10_1 C166_1 172.33(4) . . . . ?
Fe43_1 Fe41_1 N10_1 C166_1 3.87(6) . . . . ?
C170_1 N10_1 C166_1 C167_1 0.0 . . . . ?
Fe41_1 N10_1 C166_1 C167_1 -176.3 . . . . ?
N10_1 C166_1 C167_1 C168_1 0.0 . . . . ?
C166_1 C167_1 C168_1 C169_1 0.0 . . . . ?
C167_1 C168_1 C169_1 C170_1 0.0 . . . . ?
C168_1 C169_1 C170_1 N10_1 0.0 . . . . ?
C166_1 N10_1 C170_1 C169_1 0.0 . . . . ?
Fe41_1 N10_1 C170_1 C169_1 176.3 . . . . ?
O58_1 Fe42_1 N11_1 C171_1 65(2) . . . . ?
O70_1 Fe42_1 N11_1 C171_1 -42.30(8) . . . . ?
O59_1 Fe42_1 N11_1 C171_1 -130.61(8) . . . . ?
O76_1 Fe42_1 N11_1 C171_1 51.14(8) . . . . ?
O71_1 Fe42_1 N11_1 C171_1 137.76(7) . . . . ?
Fe43_1 Fe42_1 N11_1 C171_1 -179.41(4) . . . . ?
Fe41_1 Fe42_1 N11_1 C171_1 8.72(6) . . . . ?
O58_1 Fe42_1 N11_1 C175_1 -116(2) . . . . ?
O70_1 Fe42_1 N11_1 C175_1 136.54(7) . . . . ?
O59_1 Fe42_1 N11_1 C175_1 48.24(8) . . . . ?
O76_1 Fe42_1 N11_1 C175_1 -130.01(8) . . . . ?
O71_1 Fe42_1 N11_1 C175_1 -43.39(8) . . . . ?
Fe43_1 Fe42_1 N11_1 C175_1 -0.57(6) . . . . ?
Fe41_1 Fe42_1 N11_1 C175_1 -172.44(4) . . . . ?
C175_1 N11_1 C171_1 C172_1 0.0 . . . . ?
Fe42_1 N11_1 C171_1 C172_1 178.9 . . . . ?
N11_1 C171_1 C172_1 C173_1 0.0 . . . . ?
C171_1 C172_1 C173_1 C174_1 0.0 . . . . ?
C172_1 C173_1 C174_1 C175_1 0.0 . . . . ?
C173_1 C174_1 C175_1 N11_1 0.0 . . . . ?
C171_1 N11_1 C175_1 C174_1 0.0 . . . . ?
Fe42_1 N11_1 C175_1 C174_1 -178.8 . . . . ?
O58_1 Fe43_1 N12_1 C180_1 -76(2) . . . . ?
O63_1 Fe43_1 N12_1 C180_1 47.60(8) . . . . ?
O62_1 Fe43_1 N12_1 C180_1 136.26(7) . . . . ?
O72_1 Fe43_1 N12_1 C180_1 -131.78(8) . . . . ?
O73_1 Fe43_1 N12_1 C180_1 -45.69(8) . . . . ?
Fe42_1 Fe43_1 N12_1 C180_1 -171.54(4) . . . . ?
Fe41_1 Fe43_1 N12_1 C180_1 -1.73(6) . . . . ?
O58_1 Fe43_1 N12_1 C176_1 104(2) . . . . ?
O63_1 Fe43_1 N12_1 C176_1 -133.07(8) . . . . ?
O62_1 Fe43_1 N12_1 C176_1 -44.42(8) . . . . ?
O72_1 Fe43_1 N12_1 C176_1 47.54(8) . . . . ?
O73_1 Fe43_1 N12_1 C176_1 133.63(8) . . . . ?
Fe42_1 Fe43_1 N12_1 C176_1 7.78(6) . . . . ?
Fe41_1 Fe43_1 N12_1 C176_1 177.59(4) . . . . ?
C180_1 N12_1 C176_1 C177_1 0.0 . . . . ?
Fe43_1 N12_1 C176_1 C177_1 -179.3 . . . . ?
N12_1 C176_1 C177_1 C178_1 0.0 . . . . ?
C176_1 C177_1 C178_1 C179_1 0.0 . . . . ?
C177_1 C178_1 C179_1 C180_1 0.0 . . . . ?
C176_1 N12_1 C180_1 C179_1 0.0 . . . . ?
Fe43_1 N12_1 C180_1 C179_1 179.3 . . . . ?
C178_1 C179_1 C180_1 N12_1 0.0 . . . . ?

_diffrn_measured_fraction_theta_max 0.995
_diffrn_reflns_theta_full        25.10
_diffrn_measured_fraction_theta_full 0.995
_refine_diff_density_max         0.502
_refine_diff_density_min         -0.539
_refine_diff_density_rms         0.083
####################################################################### 
# 
# This file contains crystal structure data downloaded from the 
# Cambridge Structural Database (CSD) hosted by the Cambridge 
# Crystallographic Data Centre (CCDC).
# 
# Full information about CCDC data access policies and citation 
# guidelines are available at http://www.ccdc.cam.ac.uk/access/V1 
# 
# Audit and citation data items may have been added by the CCDC. 
# Please retain this information to preserve the provenance of 
# this file and to allow appropriate attribution of the data. 
# 
#######################################################################

data_sqzdIRMOP-52
_audit_block_doi                 10.5517/cc95qgm
_database_code_depnum_ccdc_archive 'CCDC 273620'
loop_
_citation_id
_citation_doi
_citation_year
1 10.1021/ja042802q 2005
_audit_update_record             
;
2005-06-01 deposited with the CCDC.	2019-02-14 downloaded from the CCDC.
;

_audit_creation_method           SHELXL-97
_chemical_name_systematic        
;
?
;
_chemical_name_common            IRMOP-52
_chemical_melting_point          ?
_chemical_formula_moiety         'C168 H132 Fe12 N12 O76 S12'
_chemical_formula_sum            'C168 H132 Fe12 N12 O76 S12'
_chemical_formula_weight         4589.78

loop_
_atom_type_symbol
_atom_type_description
_atom_type_scat_dispersion_real
_atom_type_scat_dispersion_imag
_atom_type_scat_source
C C 0.0033 0.0016 'International Tables Vol C Tables 4.2.6.8 and 6.1.1.4'
H H 0.0000 0.0000 'International Tables Vol C Tables 4.2.6.8 and 6.1.1.4'
N N 0.0061 0.0033 'International Tables Vol C Tables 4.2.6.8 and 6.1.1.4'
O O 0.0106 0.0060 'International Tables Vol C Tables 4.2.6.8 and 6.1.1.4'
S S 0.1246 0.1234 'International Tables Vol C Tables 4.2.6.8 and 6.1.1.4'
Fe Fe 0.3463 0.8444 'International Tables Vol C Tables 4.2.6.8 and 6.1.1.4'

_symmetry_cell_setting           Monoclinic
_symmetry_space_group_name_H-M   C2/c
_symmetry_space_group_name_Hall  -C2yc

loop_
_symmetry_equiv_pos_as_xyz
'x, y, z'
'-x, y, -z+1/2'
'x+1/2, y+1/2, z'
'-x+1/2, y+1/2, -z+1/2'
'-x, -y, -z'
'x, -y, z-1/2'
'-x+1/2, -y+1/2, -z'
'x+1/2, -y+1/2, z-1/2'

_cell_length_a                   43.730(4)
_cell_length_b                   22.671(2)
_cell_length_c                   41.328(4)
_cell_angle_alpha                90.00
_cell_angle_beta                 120.182(2)
_cell_angle_gamma                90.00
_cell_volume                     35418(6)
_cell_formula_units_Z            4
_cell_measurement_temperature    258(2)
_cell_measurement_reflns_used    1677
_cell_measurement_theta_min      2.22
_cell_measurement_theta_max      14.5

_exptl_crystal_description       block
_exptl_crystal_colour            orange
_exptl_crystal_size_max          0.22
_exptl_crystal_size_mid          0.15
_exptl_crystal_size_min          0.04
_exptl_crystal_density_meas      ?
_exptl_crystal_density_diffrn    0.861
_exptl_crystal_density_method    'not measured'
_exptl_crystal_F_000             9344
_exptl_absorpt_coefficient_mu    0.598
_exptl_absorpt_correction_type   multi-scan
_exptl_absorpt_correction_T_min  0.880
_exptl_absorpt_correction_T_max  0.977
_exptl_absorpt_process_details   'Blessing, Acta Cryst. (1995) A51 33-58'
_exptl_special_details           
;
The only optimal crystals suitable for analysis were small and weakly
diffracting. Optimization of synthetic conditions could yield larger
crystals, however these specimens had only a very low degree of
crystallinity and presented little coherent scattering compared to
that of smaller crystals. Owing to these challenges observed strong
(high intensity) scattering was limited to 1.0 angstrom, with higher
resolution data present but weak (low intensity). Increasing the exposure
time of the crystal to X-rays did not ameliorate the quality of the data
as this woulThe only optimal crystals suitable for analysis were small
and weakly diffracting. Optimization of synthetic conditions could yield larger
crystals, however these specimens had only a very low degree of
crystallinity and presented little coherent scattering compared to
that of smaller crystals. Additionally, diffuse scattering from the highly
disordered solvent in the large void spaces within the crystal and from
the capillary used mount the crystal contributes to the background
noise and the 'washing out' of high angle data.

This model has been treated with the SQUEEZE subroutine of PLATON.
;

_diffrn_ambient_temperature      258(2)
_diffrn_radiation_wavelength     0.71073
_diffrn_radiation_type           MoK\a
_diffrn_radiation_source         'fine-focus sealed tube'
_diffrn_radiation_monochromator  graphite
_diffrn_measurement_device_type  'CCD area detector'
_diffrn_measurement_method       'phi and omega scans'
_diffrn_detector_area_resol_mean ?
_diffrn_standards_number         ?
_diffrn_standards_interval_count ?
_diffrn_standards_interval_time  ?
_diffrn_standards_decay_%        ?
_diffrn_reflns_number            85543
_diffrn_reflns_av_R_equivalents  0.1664
_diffrn_reflns_av_sigmaI/netI    0.3732
_diffrn_reflns_limit_h_min       -51
_diffrn_reflns_limit_h_max       48
_diffrn_reflns_limit_k_min       -26
_diffrn_reflns_limit_k_max       26
_diffrn_reflns_limit_l_min       -40
_diffrn_reflns_limit_l_max       48
_diffrn_reflns_theta_min         1.05
_diffrn_reflns_theta_max         24.71
_reflns_number_total             29968
_reflns_number_gt                6839
_reflns_threshold_expression     >2sigma(I)

_computing_data_collection       'Bruker SMART'
_computing_cell_refinement       'Bruker SMART'
_computing_data_reduction        'Bruker SAINT'
_computing_structure_solution    'SHELXS-97 (Sheldrick, 1990)'
_computing_structure_refinement  'SHELXL-97 (Sheldrick, 1997)'
_computing_molecular_graphics    'Bruker SHELXTL'
_computing_publication_material  'Bruker SHELXTL'

_refine_special_details          
;
Refinement of F^2^ against ALL reflections. The weighted R-factor wR and
goodness of fit S are based on F^2^, conventional R-factors R are based
on F, with F set to zero for negative F^2^. The threshold expression of
F^2^ > 2sigma(F^2^) is used only for calculating R-factors(gt) etc. and is
not relevant to the choice of reflections for refinement. R-factors based
on F^2^ are statistically about twice as large as those based on F, and R-
factors based on ALL data will be even larger.

Due to the large void space in the structure, solvent in the structure
is highly disordered. Complete assignment of scattering factors to all residual
electron density was therfore not possible.
Assigment of the largest peaks in the Fourier difference map to carbon
and nitrogen was made; these were refined anisotropically if possible.
All other electron density in the void space was treated as separated
oxygen atoms with large thermal parameters. Cations in the structure could
not be resolved as they are components of the highly disordered
portion of the structure.

Fourier difference maps revealed the presence of disordered solvent
molecules within the lattice which were ulitmately modeled through the
use of the PLATON software suite: Spek, A.L. (1990), Acta Crystallogr.
A46, C-34. A sum total of 5964 electrons were accounted for in void
space 20548.7 A^3.
;

_refine_ls_structure_factor_coef Fsqd
_refine_ls_matrix_type           full
_refine_ls_weighting_scheme      calc
_refine_ls_weighting_details     
'calc w=1/[\s^2^(Fo^2^)+(0.0185P)^2^+0.0000P] where P=(Fo^2^+2Fc^2^)/3'
_atom_sites_solution_primary     direct
_atom_sites_solution_secondary   difmap
_atom_sites_solution_hydrogens   geom
_refine_ls_hydrogen_treatment    constr
_refine_ls_extinction_method     SHELXL
_refine_ls_extinction_coef       0.00007(3)
_refine_ls_extinction_expression Fc^*^=kFc[1+0.001xFc^2^\l^3^/sin(2\q)]^-1/4^
_refine_ls_number_reflns         29968
_refine_ls_number_parameters     1180
_refine_ls_number_restraints     6
_refine_ls_R_factor_all          0.2271
_refine_ls_R_factor_gt           0.0736
_refine_ls_wR_factor_ref         0.1612
_refine_ls_wR_factor_gt          0.1451
_refine_ls_goodness_of_fit_ref   0.853
_refine_ls_restrained_S_all      0.853
_refine_ls_shift/su_max          0.002
_refine_ls_shift/su_mean         0.000

loop_
_atom_site_label
_atom_site_type_symbol
_atom_site_fract_x
_atom_site_fract_y
_atom_site_fract_z
_atom_site_U_iso_or_equiv
_atom_site_adp_type
_atom_site_occupancy
_atom_site_symmetry_multiplicity
_atom_site_calc_flag
_atom_site_refinement_flags
_atom_site_disorder_assembly
_atom_site_disorder_group
Fe1 Fe 0.31476(3) -0.10900(5) 0.07938(3) 0.0551(4) Uani 1 1 d . . .
Fe2 Fe 0.36410(3) -0.10902(5) 0.03856(3) 0.0564(4) Uani 1 1 d . . .
Fe3 Fe 0.30636(3) -0.00174(5) 0.02060(3) 0.0561(4) Uani 1 1 d . . .
Fe4 Fe 0.34684(3) 0.46330(5) 0.29204(3) 0.0559(4) Uani 1 1 d . . .
Fe5 Fe 0.35559(3) 0.36132(5) 0.35471(3) 0.0584(4) Uani 1 1 d . . .
Fe6 Fe 0.41860(3) 0.46041(6) 0.37639(3) 0.0654(4) Uani 1 1 d . . .
O1C O 0.32733(11) -0.07495(19) 0.04464(12) 0.0476(14) Uani 1 1 d . . .
O2C O 0.37284(12) 0.4295(2) 0.34113(12) 0.0524(15) Uani 1 1 d . . .
S1 S 0.33898(8) -0.22952(12) 0.05869(9) 0.0679(8) Uani 1 1 d . . .
S2 S 0.31269(8) -0.06288(14) -0.04584(8) 0.0782(8) Uani 1 1 d . . .
S3 S 0.23853(7) -0.06040(13) 0.01786(8) 0.0721(8) Uani 1 1 d . . .
S4 S 0.38441(9) 0.58319(15) 0.33526(10) 0.0990(10) Uani 1 1 d . . .
S5 S 0.39708(9) 0.41689(17) 0.43620(9) 0.0917(10) Uani 1 1 d . . .
S6 S 0.28060(8) 0.42323(14) 0.30042(9) 0.0777(8) Uani 1 1 d . . .
O1 O 0.31281(13) -0.1928(2) 0.06375(14) 0.0585(16) Uani 1 1 d . . .
O2 O 0.35004(14) -0.1927(2) 0.03564(15) 0.0667(17) Uani 1 1 d . . .
O3 O 0.36973(16) -0.2463(2) 0.09466(17) 0.092(2) Uani 1 1 d . . .
O4 O 0.31915(15) -0.2792(2) 0.03505(17) 0.085(2) Uani 1 1 d . . .
O5 O 0.33611(14) -0.1070(2) -0.01699(15) 0.0665(17) Uani 1 1 d . . .
O6 O 0.30222(17) -0.0187(2) -0.02754(15) 0.100(2) Uani 1 1 d . . .
O7 O 0.3289(2) -0.0385(4) -0.0647(3) 0.211(5) Uani 1 1 d . . .
O8 O 0.28023(19) -0.0918(3) -0.07327(17) 0.144(3) Uani 1 1 d . . .
O9 O 0.25704(14) -0.0283(2) 0.00107(15) 0.0741(18) Uani 1 1 d . . .
O10 O 0.26342(13) -0.1043(2) 0.04502(15) 0.0669(17) Uani 1 1 d . . .
O11 O 0.22835(16) -0.0194(3) 0.03668(19) 0.108(2) Uani 1 1 d . . .
O12 O 0.20809(15) -0.0902(3) -0.01290(17) 0.109(2) Uani 1 1 d . . .
O13 O 0.35364(15) 0.5462(2) 0.30683(15) 0.0793(19) Uani 1 1 d . . .
O14 O 0.40568(15) 0.5455(3) 0.36934(16) 0.0854(19) Uani 1 1 d . . .
O15 O 0.4074(2) 0.6016(3) 0.3197(2) 0.154(3) Uani 1 1 d . . .
O16 O 0.3705(2) 0.6331(3) 0.34526(19) 0.176(4) Uani 1 1 d . . .
O17 O 0.41304(15) 0.4602(3) 0.42141(15) 0.0819(19) Uani 1 1 d . . .
O18 O 0.36552(14) 0.3883(2) 0.40368(14) 0.0719(18) Uani 1 1 d . . .
O19 O 0.42202(19) 0.3704(3) 0.45814(18) 0.131(3) Uani 1 1 d . . .
O20 O 0.38406(17) 0.4485(3) 0.45702(17) 0.133(3) Uani 1 1 d . . .
O21 O 0.30727(14) 0.3920(2) 0.33579(15) 0.0709(17) Uani 1 1 d . . .
O22 O 0.30109(14) 0.4667(2) 0.29060(15) 0.0731(17) Uani 1 1 d . . .
O23 O 0.26280(16) 0.3801(3) 0.27057(19) 0.107(2) Uani 1 1 d . . .
O24 O 0.25790(16) 0.4598(3) 0.30852(18) 0.125(3) Uani 1 1 d . . .
O25 O 0.30796(18) 0.0374(3) 0.06408(18) 0.085(2) Uani 1 1 d . . .
O26 O 0.31433(16) -0.0339(3) 0.10564(16) 0.079(2) Uani 1 1 d . . .
O27 O 0.34106(15) 0.3180(2) 0.30661(16) 0.0674(19) Uani 1 1 d . . .
O28 O 0.33494(15) 0.3858(3) 0.26482(14) 0.0656(18) Uani 1 1 d . . .
O29 O 0.36646(15) -0.1174(2) 0.12039(13) 0.0644(17) Uani 1 1 d . . .
O30 O 0.3994(2) -0.1157(4) 0.09246(19) 0.091(3) Uani 1 1 d . . .
O31 O 0.38975(19) -0.0351(3) 0.0426(2) 0.086(3) Uani 1 1 d . . .
O32 O 0.35400(16) 0.0375(2) 0.03742(16) 0.078(2) Uani 1 1 d . . .
O33 O 0.38739(16) 0.4669(3) 0.28247(16) 0.0714(19) Uani 1 1 d . . .
O34 O 0.43467(15) 0.4642(3) 0.33895(16) 0.071(2) Uani 1 1 d . . .
O35 O 0.44213(14) 0.3803(3) 0.38965(16) 0.0696(19) Uani 1 1 d . . .
O36 O 0.40008(16) 0.3136(3) 0.37652(18) 0.077(2) Uani 1 1 d . . .
C1 C 0.3153(4) 0.0525(4) 0.1529(4) 0.156(6) Uani 1 1 d . . .
H1A H 0.3178 0.0130 0.1597 0.187 Uiso 1 1 calc R . .
C2 C 0.3103(3) 0.0686(5) 0.1198(3) 0.083(4) Uani 1 1 d . . .
C3 C 0.3031(4) 0.1229(6) 0.1093(4) 0.207(9) Uani 1 1 d . . .
H3A H 0.2941 0.1329 0.0843 0.249 Uiso 1 1 calc R . .
C4 C 0.2982(7) 0.2272(8) 0.1221(5) 0.433(19) Uani 1 1 d . . .
H4A H 0.3098 0.2376 0.1082 0.520 Uiso 1 1 calc R . .
H4B H 0.2730 0.2265 0.1043 0.520 Uiso 1 1 calc R . .
C5 C 0.3042(5) 0.2704(5) 0.1462(4) 0.275(11) Uani 1 1 d . . .
H5A H 0.2829 0.2941 0.1357 0.330 Uiso 1 1 calc R . .
H5B H 0.3225 0.2952 0.1466 0.330 Uiso 1 1 calc R . .
C6 C 0.3190(3) 0.3021(5) 0.2111(3) 0.155(6) Uani 1 1 d . . .
H6A H 0.3158 0.3415 0.2039 0.186 Uiso 1 1 calc R . .
C7 C 0.3278(3) 0.2858(4) 0.2466(3) 0.078(3) Uani 1 1 d . . .
C8 C 0.3302(4) 0.2279(5) 0.2593(3) 0.176(7) Uani 1 1 d . . .
H8A H 0.3323 0.2178 0.2822 0.211 Uiso 1 1 calc R . .
C9 C 0.3337(7) 0.1236(7) 0.2456(4) 0.394(17) Uani 1 1 d . . .
H9A H 0.3583 0.1129 0.2559 0.473 Uiso 1 1 calc R . .
H9B H 0.3276 0.1173 0.2649 0.473 Uiso 1 1 calc R . .
C10 C 0.3117(8) 0.0847(7) 0.2137(6) 0.54(3) Uani 1 1 d . . .
H10A H 0.2871 0.0902 0.2063 0.647 Uiso 1 1 calc R . .
H10B H 0.3179 0.0440 0.2214 0.647 Uiso 1 1 calc R . .
C11 C 0.3168(4) 0.0979(6) 0.1779(3) 0.188(7) Uani 1 1 d . . .
C12 C 0.3133(3) 0.1545(5) 0.1691(4) 0.103(4) Uani 1 1 d . . .
C13 C 0.3088(5) 0.1672(6) 0.1358(4) 0.243(10) Uani 1 1 d . . .
C14 C 0.3150(3) 0.2586(6) 0.1865(3) 0.140(5) Uani 1 1 d . . .
C15 C 0.3186(3) 0.2009(6) 0.1964(4) 0.119(5) Uani 1 1 d . . .
C16 C 0.3290(4) 0.1895(6) 0.2350(5) 0.188(7) Uani 1 1 d . . .
C17 C 0.3094(3) 0.0204(5) 0.0941(3) 0.092(4) Uani 1 1 d . . .
C18 C 0.3345(3) 0.3315(5) 0.2744(3) 0.067(3) Uani 1 1 d . . .
C19 C 0.3974(3) -0.1214(4) 0.1190(4) 0.088(5) Uani 1 1 d . . .
C20 C 0.4260(3) -0.1290(4) 0.1602(3) 0.078(3) Uani 1 1 d . . .
C21 C 0.4221(3) -0.1314(5) 0.1904(3) 0.128(5) Uani 1 1 d . . .
H21A H 0.3996 -0.1309 0.1875 0.154 Uiso 1 1 calc R . .
C22 C 0.4507(4) -0.1345(5) 0.2248(3) 0.118(4) Uani 1 1 d . . .
C23 C 0.4834(3) -0.1374(4) 0.2291(3) 0.085(3) Uani 1 1 d . . .
C24 C 0.4875(3) -0.1377(5) 0.1988(4) 0.110(4) Uani 1 1 d . . .
C25 C 0.4581(3) -0.1334(5) 0.1636(3) 0.108(4) Uani 1 1 d . . .
H25A H 0.4604 -0.1337 0.1424 0.129 Uiso 1 1 calc R . .
C26 C 0.4480(3) -0.1281(9) 0.2611(4) 0.296(12) Uani 1 1 d . . .
H26A H 0.4383 -0.0892 0.2601 0.356 Uiso 1 1 calc R . .
H26B H 0.4303 -0.1562 0.2588 0.356 Uiso 1 1 calc R . .
C27 C 0.4745(3) -0.1341(10) 0.2942(3) 0.353(15) Uani 1 1 d . . .
H27A H 0.4704 -0.1697 0.3046 0.423 Uiso 1 1 calc R . .
H27B H 0.4738 -0.1014 0.3090 0.423 Uiso 1 1 calc R . .
C28 C 0.3837(3) 0.0134(6) 0.0417(3) 0.076(4) Uani 1 1 d . . .
C29 C 0.4096(3) 0.0624(5) 0.0498(3) 0.078(3) Uani 1 1 d . . .
C30 C 0.4006(3) 0.1252(6) 0.0470(3) 0.115(4) Uani 1 1 d . . .
H30A H 0.3777 0.1382 0.0393 0.138 Uiso 1 1 calc R . .
C31 C 0.4285(5) 0.1640(5) 0.0567(4) 0.138(5) Uani 1 1 d . . .
C32 C 0.4629(3) 0.1442(8) 0.0670(3) 0.110(5) Uani 1 1 d . . .
C33 C 0.4702(4) 0.0871(6) 0.0694(4) 0.109(5) Uani 1 1 d . . .
C34 C 0.4429(3) 0.0470(5) 0.0612(3) 0.117(5) Uani 1 1 d . . .
H34A H 0.4484 0.0070 0.0639 0.140 Uiso 1 1 calc R . .
C35 C 0.5071(3) 0.0746(6) 0.0813(5) 0.213(9) Uani 1 1 d . . .
H35A H 0.5186 0.0631 0.1074 0.256 Uiso 1 1 calc R . .
H35B H 0.5073 0.0401 0.0675 0.256 Uiso 1 1 calc R . .
C36 C 0.4145(3) 0.2257(8) 0.0528(6) 0.292(12) Uani 1 1 d . . .
H36A H 0.4001 0.2357 0.0265 0.350 Uiso 1 1 calc R . .
H36B H 0.3999 0.2284 0.0643 0.350 Uiso 1 1 calc R . .
C37 C 0.4425(5) 0.2642(5) 0.0700(7) 0.361(15) Uani 1 1 d . . .
H37A H 0.4447 0.2746 0.0938 0.433 Uiso 1 1 calc R . .
H37B H 0.4355 0.2998 0.0550 0.433 Uiso 1 1 calc R . .
C38 C 0.4205(3) 0.4696(4) 0.3050(3) 0.065(3) Uani 1 1 d . . .
C39 C 0.4421(3) 0.4741(4) 0.2855(4) 0.091(4) Uani 1 1 d . . .
C40 C 0.4777(4) 0.4781(5) 0.3079(3) 0.147(5) Uani 1 1 d . . .
H40A H 0.4877 0.4789 0.3338 0.176 Uiso 1 1 calc R . .
C41 C 0.5006(4) 0.4811(7) 0.2915(6) 0.178(7) Uani 1 1 d . . .
C42 C 0.4886(3) 0.4757(5) 0.2558(3) 0.094(5) Uani 1 1 d . . .
C43 C 0.4528(4) 0.4739(6) 0.2341(4) 0.139(6) Uani 1 1 d . . .
C44 C 0.4294(3) 0.4740(6) 0.2472(3) 0.141(6) Uani 1 1 d . . .
H44A H 0.4052 0.4739 0.2304 0.169 Uiso 1 1 calc R . .
C45 C 0.4407(3) 0.4540(11) 0.1947(4) 0.366(17) Uani 1 1 d . . .
H45A H 0.4423 0.4115 0.1937 0.439 Uiso 1 1 calc R . .
H45B H 0.4163 0.4656 0.1781 0.439 Uiso 1 1 calc R . .
C46 C 0.4626(4) 0.4808(13) 0.1836(4) 0.46(2) Uani 1 1 d . . .
H46A H 0.4550 0.5215 0.1774 0.557 Uiso 1 1 calc R . .
H46B H 0.4584 0.4618 0.1607 0.557 Uiso 1 1 calc R . .
C47 C 0.4308(3) 0.3265(5) 0.3881(3) 0.076(4) Uani 1 1 d . . .
C48 C 0.4586(3) 0.2783(6) 0.4013(3) 0.074(3) Uani 1 1 d . . .
C49 C 0.4519(3) 0.2224(6) 0.4046(3) 0.092(4) Uani 1 1 d . . .
H49A H 0.4297 0.2125 0.4008 0.110 Uiso 1 1 calc R . .
C50 C 0.4767(3) 0.1784(8) 0.4135(4) 0.126(6) Uani 1 1 d . . .
C51 C 0.5071(4) 0.1932(5) 0.4210(3) 0.108(5) Uani 1 1 d . . .
C52 C 0.5176(3) 0.2483(8) 0.4214(4) 0.155(6) Uani 1 1 d . . .
C53 C 0.4925(3) 0.2970(5) 0.4102(4) 0.157(6) Uani 1 1 d . . .
H53A H 0.4984 0.3361 0.4092 0.189 Uiso 1 1 calc R . .
C54 C 0.4720(4) 0.1149(5) 0.4216(5) 0.208(8) Uani 1 1 d . . .
H54A H 0.4758 0.1130 0.4468 0.250 Uiso 1 1 calc R . .
H54B H 0.4476 0.1037 0.4046 0.250 Uiso 1 1 calc R . .
N1 N 0.3020(2) -0.1444(4) 0.11992(16) 0.070(3) Uani 1 1 d G . .
C55 C 0.32230(16) -0.1916(4) 0.1415(3) 0.137(6) Uani 1 1 d G . .
H55A H 0.3404 -0.2064 0.1382 0.165 Uiso 1 1 calc R . .
C56 C 0.3156(2) -0.2167(3) 0.1680(2) 0.154(6) Uani 1 1 d G . .
H56A H 0.3292 -0.2482 0.1824 0.184 Uiso 1 1 calc R . .
C57 C 0.2886(3) -0.1946(4) 0.17295(19) 0.147(6) Uani 1 1 d G . .
H57A H 0.2841 -0.2113 0.1907 0.176 Uiso 1 1 calc R . .
C58 C 0.26827(19) -0.1474(5) 0.1514(3) 0.161(6) Uani 1 1 d G . .
H58A H 0.2502 -0.1326 0.1547 0.193 Uiso 1 1 calc R . .
C59 C 0.2750(2) -0.1223(3) 0.1249(2) 0.103(4) Uani 1 1 d G . .
H59A H 0.2614 -0.0907 0.1104 0.123 Uiso 1 1 calc R . .
N2 N 0.40511(17) -0.1436(4) 0.0299(2) 0.103(3) Uani 1 1 d GD . .
C60 C 0.4102(2) -0.1176(3) 0.0025(3) 0.265(6) Uani 1 1 d GD . .
H60A H 0.3984 -0.0828 -0.0089 0.318 Uiso 1 1 calc R . .
C61 C 0.4328(3) -0.1436(5) -0.0078(3) 0.265(6) Uani 1 1 d GD . .
H61A H 0.4362 -0.1262 -0.0261 0.318 Uiso 1 1 calc R . .
C62 C 0.4503(3) -0.1956(5) 0.0093(4) 0.385(11) Uani 1 1 d GD . .
H62A H 0.4654 -0.2130 0.0023 0.462 Uiso 1 1 calc R . .
C63 C 0.4453(3) -0.2217(4) 0.0367(4) 0.385(11) Uani 1 1 d GD . .
H63A H 0.4570 -0.2565 0.0481 0.462 Uiso 1 1 calc R . .
C64 C 0.4226(3) -0.1957(4) 0.0470(3) 0.287(11) Uani 1 1 d GD . .
H64A H 0.4193 -0.2131 0.0653 0.344 Uiso 1 1 calc R . .
N3 N 0.2831(2) 0.0826(2) -0.00499(18) 0.086(3) Uani 1 1 d GD . .
C65 C 0.2561(2) 0.1074(4) -0.00110(19) 0.134(5) Uani 1 1 d GD . .
H65A H 0.2471 0.0873 0.0120 0.161 Uiso 1 1 calc R . .
C66 C 0.2424(2) 0.1622(4) -0.0167(3) 0.219(9) Uani 1 1 d GD . .
H66A H 0.2243 0.1789 -0.0141 0.262 Uiso 1 1 calc R . .
C67 C 0.2558(3) 0.1922(3) -0.0363(2) 0.245(11) Uani 1 1 d GD . .
H67A H 0.2467 0.2289 -0.0468 0.294 Uiso 1 1 calc R . .
C68 C 0.2828(3) 0.1674(4) -0.0402(2) 0.213(8) Uani 1 1 d GD . .
H68A H 0.2918 0.1875 -0.0533 0.256 Uiso 1 1 calc R . .
C69 C 0.29650(19) 0.1126(5) -0.0245(2) 0.167(7) Uani 1 1 d GD . .
H69A H 0.3146 0.0959 -0.0271 0.201 Uiso 1 1 calc R . .
N4 N 0.3161(2) 0.5028(3) 0.23430(14) 0.069(2) Uani 1 1 d G . .
C70 C 0.2821(2) 0.4825(3) 0.2099(3) 0.118(4) Uani 1 1 d G . .
H70A H 0.2730 0.4510 0.2169 0.142 Uiso 1 1 calc R . .
C71 C 0.26174(15) 0.5092(5) 0.1753(2) 0.149(5) Uani 1 1 d G . .
H71A H 0.2390 0.4956 0.1590 0.179 Uiso 1 1 calc R . .
C72 C 0.2754(3) 0.5562(4) 0.16492(16) 0.172(7) Uani 1 1 d G . .
H72A H 0.2618 0.5741 0.1417 0.207 Uiso 1 1 calc R . .
C73 C 0.3094(3) 0.5765(3) 0.1893(3) 0.148(6) Uani 1 1 d G . .
H73A H 0.3185 0.6080 0.1824 0.178 Uiso 1 1 calc R . .
C74 C 0.32977(16) 0.5498(4) 0.2240(2) 0.131(5) Uani 1 1 d G . .
H74A H 0.3525 0.5634 0.2402 0.157 Uiso 1 1 calc R . .
N5 N 0.3358(3) 0.2820(2) 0.3691(3) 0.075(3) Uani 1 1 d G . .
C75 C 0.35590(17) 0.2568(4) 0.4043(2) 0.130(5) Uani 1 1 d G . .
H75A H 0.3779 0.2725 0.4212 0.156 Uiso 1 1 calc R . .
C76 C 0.3431(3) 0.2082(4) 0.4143(2) 0.181(8) Uani 1 1 d G . .
H76A H 0.3565 0.1913 0.4379 0.217 Uiso 1 1 calc R . .
C77 C 0.3102(3) 0.1848(3) 0.3891(4) 0.183(8) Uani 1 1 d G . .
H77A H 0.3016 0.1523 0.3958 0.220 Uiso 1 1 calc R . .
C78 C 0.29005(19) 0.2100(4) 0.3539(3) 0.198(8) Uani 1 1 d G . .
H78A H 0.2680 0.1944 0.3370 0.238 Uiso 1 1 calc R . .
C79 C 0.3029(2) 0.2586(4) 0.34389(18) 0.128(5) Uani 1 1 d G . .
H79A H 0.2894 0.2755 0.3203 0.154 Uiso 1 1 calc R . .
N6 N 0.47131(13) 0.4951(4) 0.4137(2) 0.084(3) Uani 1 1 d G . .
C80 C 0.4854(3) 0.5403(4) 0.40253(18) 0.148(5) Uani 1 1 d G . .
H80A H 0.4720 0.5572 0.3790 0.177 Uiso 1 1 calc R . .
C81 C 0.5196(3) 0.5602(3) 0.4266(3) 0.223(9) Uani 1 1 d G . .
H81A H 0.5291 0.5905 0.4191 0.268 Uiso 1 1 calc R . .
C82 C 0.53966(15) 0.5350(5) 0.4618(3) 0.202(8) Uani 1 1 d G . .
H82A H 0.5625 0.5484 0.4779 0.242 Uiso 1 1 calc R . .
C83 C 0.5255(2) 0.4899(4) 0.47299(16) 0.157(6) Uani 1 1 d G . .
H83A H 0.5390 0.4730 0.4966 0.188 Uiso 1 1 calc R . .
C84 C 0.4914(3) 0.4699(3) 0.4490(3) 0.124(4) Uani 1 1 d G . .
H84A H 0.4819 0.4397 0.4565 0.149 Uiso 1 1 calc R . .

loop_
_atom_site_aniso_label
_atom_site_aniso_U_11
_atom_site_aniso_U_22
_atom_site_aniso_U_33
_atom_site_aniso_U_23
_atom_site_aniso_U_13
_atom_site_aniso_U_12
Fe1 0.0535(9) 0.0504(8) 0.0547(9) -0.0091(7) 0.0223(8) -0.0069(7)
Fe2 0.0475(9) 0.0636(9) 0.0554(10) -0.0130(8) 0.0238(8) -0.0113(7)
Fe3 0.0573(9) 0.0546(9) 0.0518(9) -0.0125(8) 0.0239(8) -0.0099(8)
Fe4 0.0589(9) 0.0557(9) 0.0543(9) -0.0006(8) 0.0293(8) 0.0083(8)
Fe5 0.0661(10) 0.0610(9) 0.0556(9) 0.0006(7) 0.0363(8) 0.0152(8)
Fe6 0.0616(10) 0.0726(10) 0.0580(10) -0.0101(8) 0.0269(9) 0.0094(8)
O1C 0.049(4) 0.049(3) 0.043(3) 0.001(3) 0.022(3) 0.005(3)
O2C 0.061(4) 0.067(4) 0.041(4) 0.000(3) 0.034(3) 0.013(3)
S1 0.069(2) 0.0545(19) 0.083(2) -0.0133(18) 0.040(2) -0.0049(18)
S2 0.080(2) 0.097(3) 0.059(2) -0.003(2) 0.036(2) 0.008(2)
S3 0.056(2) 0.069(2) 0.083(2) -0.0056(19) 0.029(2) -0.0012(17)
S4 0.097(3) 0.073(2) 0.103(3) -0.007(2) 0.032(2) 0.011(2)
S5 0.090(3) 0.133(3) 0.058(2) -0.001(2) 0.042(2) 0.030(2)
S6 0.062(2) 0.098(2) 0.078(2) 0.016(2) 0.039(2) 0.018(2)
O1 0.066(4) 0.046(4) 0.075(4) -0.019(3) 0.044(4) -0.006(3)
O2 0.086(5) 0.053(4) 0.085(5) -0.010(3) 0.061(4) -0.005(3)
O3 0.066(5) 0.086(5) 0.081(5) 0.011(4) 0.006(4) 0.015(4)
O4 0.099(5) 0.057(4) 0.117(6) -0.015(4) 0.068(5) -0.020(4)
O5 0.066(4) 0.078(4) 0.058(4) -0.007(4) 0.033(4) 0.005(4)
O6 0.167(7) 0.073(5) 0.053(4) 0.002(4) 0.051(5) 0.046(4)
O7 0.267(11) 0.194(8) 0.327(12) 0.143(9) 0.265(11) 0.104(8)
O8 0.111(6) 0.144(7) 0.070(5) -0.042(5) -0.034(5) -0.001(5)
O9 0.061(4) 0.077(4) 0.080(5) 0.024(4) 0.032(4) -0.007(3)
O10 0.034(4) 0.075(4) 0.076(4) 0.010(4) 0.016(3) 0.002(3)
O11 0.114(6) 0.083(5) 0.145(7) 0.015(5) 0.078(5) 0.025(4)
O12 0.056(5) 0.117(6) 0.093(5) -0.007(4) -0.006(4) -0.020(4)
O13 0.087(5) 0.043(4) 0.080(5) -0.008(4) 0.021(4) 0.003(4)
O14 0.079(5) 0.067(5) 0.071(5) -0.016(4) 0.009(4) -0.005(4)
O15 0.178(8) 0.123(7) 0.179(8) 0.024(6) 0.103(7) -0.032(6)
O16 0.221(9) 0.073(5) 0.121(7) -0.041(5) 0.004(6) 0.050(6)
O17 0.089(5) 0.096(5) 0.057(4) -0.013(4) 0.034(4) 0.022(4)
O18 0.070(4) 0.118(5) 0.028(4) -0.024(4) 0.026(4) -0.007(4)
O19 0.122(7) 0.164(7) 0.082(6) 0.022(5) 0.032(5) 0.021(6)
O20 0.125(6) 0.188(7) 0.089(6) -0.053(5) 0.055(5) 0.000(5)
O21 0.058(4) 0.095(5) 0.076(5) 0.022(4) 0.046(4) 0.026(4)
O22 0.065(4) 0.075(4) 0.087(5) 0.017(4) 0.044(4) 0.022(4)
O23 0.075(5) 0.136(6) 0.095(6) 0.001(5) 0.032(4) -0.020(5)
O24 0.104(6) 0.171(7) 0.131(6) 0.061(5) 0.081(5) 0.087(5)
O25 0.118(6) 0.065(5) 0.060(5) -0.020(4) 0.037(5) 0.003(4)
O26 0.114(5) 0.052(4) 0.076(5) -0.024(4) 0.052(4) 0.003(4)
O27 0.094(5) 0.066(4) 0.047(4) -0.018(4) 0.039(4) -0.005(3)
O28 0.099(5) 0.051(4) 0.054(4) -0.010(4) 0.044(4) 0.006(4)
O29 0.050(4) 0.065(4) 0.036(4) -0.004(3) -0.010(3) -0.009(3)
O30 0.082(6) 0.127(6) 0.049(5) -0.004(5) 0.021(5) -0.011(4)
O31 0.097(6) 0.050(4) 0.104(6) -0.009(5) 0.045(5) -0.026(5)
O32 0.054(5) 0.064(4) 0.101(5) -0.009(4) 0.027(4) -0.038(4)
O33 0.049(4) 0.104(5) 0.078(5) -0.001(4) 0.045(4) 0.008(4)
O34 0.074(5) 0.115(5) 0.037(4) -0.007(4) 0.037(4) -0.006(4)
O35 0.049(4) 0.071(5) 0.083(5) -0.003(4) 0.030(4) 0.033(4)
O36 0.050(4) 0.097(5) 0.084(5) 0.012(4) 0.034(5) 0.034(4)
C1 0.340(19) 0.032(8) 0.162(13) -0.019(9) 0.176(14) -0.016(9)
C2 0.139(10) 0.083(10) 0.038(7) -0.028(7) 0.052(8) -0.025(8)
C3 0.46(2) 0.062(10) 0.118(12) 0.070(9) 0.157(14) 0.119(13)
C4 1.02(6) 0.21(2) 0.25(2) 0.008(17) 0.45(3) 0.23(3)
C5 0.63(3) 0.098(11) 0.117(13) 0.060(10) 0.204(18) 0.167(16)
C6 0.337(18) 0.076(9) 0.049(8) -0.021(7) 0.095(11) 0.048(10)
C7 0.156(10) 0.044(7) 0.065(8) -0.032(6) 0.077(8) 0.007(7)
C8 0.39(2) 0.051(9) 0.086(10) -0.058(8) 0.119(12) -0.026(11)
C9 1.00(5) 0.130(16) 0.224(19) -0.043(14) 0.44(3) 0.02(2)
C10 1.44(8) 0.144(17) 0.41(3) 0.096(18) 0.75(5) 0.15(3)
C11 0.43(2) 0.052(9) 0.117(12) -0.026(9) 0.167(14) 0.004(12)
C12 0.200(12) 0.046(9) 0.074(10) 0.015(8) 0.077(9) 0.028(8)
C13 0.59(3) 0.035(9) 0.115(13) -0.001(9) 0.185(18) 0.092(13)
C14 0.221(14) 0.070(10) 0.053(10) -0.008(8) 0.013(9) 0.035(10)
C15 0.203(13) 0.057(9) 0.078(10) -0.019(9) 0.057(10) 0.040(9)
C16 0.40(2) 0.048(10) 0.114(13) 0.044(10) 0.125(15) 0.039(12)
C17 0.097(9) 0.078(10) 0.076(10) -0.040(9) 0.025(9) 0.001(8)
C18 0.087(8) 0.061(8) 0.065(9) -0.009(8) 0.047(8) 0.014(7)
C19 0.014(6) 0.045(7) 0.143(14) -0.009(9) -0.007(10) -0.005(5)
C20 0.039(8) 0.101(8) 0.062(9) -0.004(7) 0.002(8) -0.016(6)
C21 0.077(10) 0.247(15) 0.024(7) 0.010(9) -0.002(8) 0.028(9)
C22 0.073(10) 0.235(14) 0.047(9) 0.003(9) 0.029(9) -0.021(10)
C23 0.047(9) 0.116(8) 0.087(11) 0.014(7) 0.030(7) 0.004(6)
C24 0.042(8) 0.236(13) 0.067(9) 0.008(9) 0.037(8) 0.018(8)
C25 0.043(7) 0.207(13) 0.061(9) 0.004(8) 0.016(7) -0.001(8)
C26 0.053(10) 0.74(4) 0.067(11) 0.032(18) 0.007(9) 0.034(16)
C27 0.049(10) 0.90(5) 0.057(10) -0.138(19) -0.011(9) -0.021(18)
C28 0.023(7) 0.134(12) 0.058(7) 0.005(9) 0.012(6) -0.058(9)
C29 0.062(9) 0.076(9) 0.083(8) -0.023(7) 0.027(7) -0.023(8)
C30 0.047(7) 0.115(11) 0.163(12) 0.003(9) 0.038(8) -0.041(8)
C31 0.174(17) 0.024(8) 0.219(15) 0.004(8) 0.100(14) -0.033(10)
C32 0.046(8) 0.135(14) 0.146(11) 0.025(11) 0.047(9) -0.022(10)
C33 0.145(15) 0.045(8) 0.151(12) 0.000(8) 0.085(11) 0.004(10)
C34 0.064(9) 0.081(9) 0.168(12) -0.011(8) 0.031(9) -0.058(8)
C35 0.082(11) 0.115(13) 0.43(3) -0.024(14) 0.119(14) -0.029(10)
C36 0.069(11) 0.142(17) 0.52(3) 0.040(18) 0.046(15) -0.050(12)
C37 0.21(2) 0.053(11) 0.80(5) -0.071(17) 0.24(3) 0.023(11)
C38 0.064(8) 0.078(7) 0.082(10) -0.011(7) 0.058(9) -0.011(7)
C39 0.012(6) 0.124(9) 0.107(11) 0.000(8) 0.007(7) -0.016(6)
C40 0.146(13) 0.257(15) 0.041(8) -0.040(8) 0.050(10) -0.063(12)
C41 0.085(12) 0.320(19) 0.201(18) 0.019(16) 0.127(14) -0.016(12)
C42 0.082(14) 0.172(10) 0.036(8) -0.009(8) 0.037(8) -0.021(8)
C43 0.071(10) 0.258(15) 0.114(13) -0.043(11) 0.066(11) -0.056(10)
C44 0.042(8) 0.300(17) 0.042(8) 0.028(10) -0.007(7) 0.004(9)
C45 0.056(11) 0.97(5) 0.043(10) -0.047(18) 0.005(9) 0.036(19)
C46 0.066(12) 1.22(7) 0.169(17) 0.01(3) 0.109(13) 0.01(2)
C47 0.106(11) 0.062(8) 0.067(9) 0.021(7) 0.049(9) 0.040(10)
C48 0.046(8) 0.107(10) 0.084(8) -0.001(8) 0.044(7) 0.027(8)
C49 0.085(10) 0.083(9) 0.129(10) 0.021(8) 0.070(9) 0.015(9)
C50 0.037(8) 0.163(17) 0.195(14) 0.015(11) 0.070(10) 0.020(10)
C51 0.130(14) 0.026(7) 0.159(12) 0.035(8) 0.066(12) 0.029(9)
C52 0.043(9) 0.167(15) 0.274(17) 0.019(14) 0.092(10) 0.022(10)
C53 0.077(10) 0.077(9) 0.297(18) 0.050(9) 0.078(11) 0.050(8)
C54 0.232(18) 0.045(9) 0.45(3) 0.030(12) 0.246(19) 0.041(10)
N1 0.085(7) 0.080(6) 0.053(6) -0.007(5) 0.041(6) -0.032(5)
C55 0.183(14) 0.198(15) 0.069(10) -0.005(9) 0.091(10) -0.081(12)
C56 0.130(13) 0.194(14) 0.167(16) -0.005(12) 0.097(11) 0.027(10)
C57 0.194(17) 0.188(16) 0.083(10) 0.033(10) 0.088(12) -0.008(11)
C58 0.160(13) 0.238(18) 0.121(13) 0.024(11) 0.098(12) 0.011(13)
C59 0.146(12) 0.110(9) 0.104(10) -0.015(7) 0.102(9) 0.003(8)
N2 0.081(7) 0.110(7) 0.147(9) 0.016(6) 0.080(7) 0.009(6)
C60 0.168(13) 0.383(18) 0.330(16) 0.061(13) 0.188(11) 0.103(11)
C61 0.168(13) 0.383(18) 0.330(16) 0.061(13) 0.188(11) 0.103(11)
C62 0.381(18) 0.47(2) 0.53(3) 0.270(18) 0.398(19) 0.287(17)
C63 0.381(18) 0.47(2) 0.53(3) 0.270(18) 0.398(19) 0.287(17)
C64 0.123(13) 0.30(2) 0.52(3) 0.16(2) 0.223(18) 0.122(14)
N3 0.103(8) 0.041(5) 0.096(7) -0.012(5) 0.037(6) -0.001(5)
C65 0.183(14) 0.088(10) 0.140(11) 0.039(9) 0.088(11) 0.032(9)
C66 0.32(2) 0.114(13) 0.199(17) 0.043(11) 0.116(15) 0.168(14)
C67 0.56(3) 0.088(11) 0.230(18) 0.066(11) 0.30(2) 0.030(15)
C68 0.38(3) 0.175(18) 0.166(15) 0.012(13) 0.194(17) 0.058(15)
C69 0.180(14) 0.071(10) 0.217(15) 0.084(10) 0.075(12) 0.002(9)
N4 0.065(6) 0.082(6) 0.049(5) 0.017(5) 0.020(5) 0.038(5)
C70 0.080(10) 0.184(12) 0.087(10) 0.026(10) 0.039(8) -0.027(10)
C71 0.120(11) 0.231(17) 0.041(9) 0.012(9) -0.001(9) -0.017(11)
C72 0.182(17) 0.197(17) 0.126(13) 0.029(12) 0.070(13) -0.037(12)
C73 0.208(17) 0.127(11) 0.086(11) 0.067(10) 0.057(11) 0.010(11)
C74 0.134(11) 0.101(10) 0.153(14) 0.039(9) 0.069(11) -0.038(9)
N5 0.094(7) 0.074(6) 0.084(7) 0.026(6) 0.065(6) 0.039(6)
C75 0.190(14) 0.101(11) 0.105(12) 0.045(8) 0.078(11) 0.059(10)
C76 0.28(2) 0.097(12) 0.169(15) 0.056(12) 0.117(16) 0.010(12)
C77 0.24(2) 0.140(13) 0.22(2) 0.069(14) 0.152(17) 0.026(14)
C78 0.167(15) 0.140(14) 0.31(2) 0.108(14) 0.135(16) 0.001(12)
C79 0.110(12) 0.116(12) 0.152(13) 0.042(10) 0.061(11) 0.006(9)
N6 0.070(6) 0.114(8) 0.056(7) -0.002(6) 0.022(6) 0.018(6)
C80 0.163(15) 0.189(14) 0.089(11) -0.027(10) 0.062(12) -0.061(11)
C81 0.147(15) 0.38(2) 0.069(11) -0.055(14) 0.001(10) -0.094(16)
C82 0.140(13) 0.36(2) 0.110(14) -0.072(14) 0.066(12) -0.153(15)
C83 0.072(10) 0.280(19) 0.061(9) -0.020(11) -0.010(9) -0.018(11)
C84 0.081(10) 0.184(12) 0.098(11) -0.002(11) 0.038(8) -0.008(10)

_geom_special_details            
;
All esds (except the esd in the dihedral angle between two l.s. planes)
are estimated using the full covariance matrix. The cell esds are taken
into account individually in the estimation of esds in distances, angles
and torsion angles; correlations between esds in cell parameters are only
used when they are defined by crystal symmetry. An approximate (isotropic)
treatment of cell esds is used for estimating esds involving l.s. planes.
;

loop_
_geom_bond_atom_site_label_1
_geom_bond_atom_site_label_2
_geom_bond_distance
_geom_bond_site_symmetry_2
_geom_bond_publ_flag
Fe1 O1C 1.937(5) . ?
Fe1 O10 1.965(5) . ?
Fe1 O1 1.995(5) . ?
Fe1 O26 2.025(6) . ?
Fe1 O29 2.041(5) . ?
Fe1 N1 2.169(5) . ?
Fe2 O1C 1.911(4) . ?
Fe2 O31 1.976(6) . ?
Fe2 O2 1.979(5) . ?
Fe2 O5 1.986(5) . ?
Fe2 O30 1.978(7) . ?
Fe2 N2 2.145(5) . ?
Fe3 O1C 1.915(4) . ?
Fe3 O6 1.943(6) . ?
Fe3 O9 1.979(5) . ?
Fe3 O25 1.974(6) . ?
Fe3 O32 2.039(6) . ?
Fe3 N3 2.173(5) . ?
Fe4 O2C 1.918(5) . ?
Fe4 O13 1.953(5) . ?
Fe4 O22 1.973(5) . ?
Fe4 O33 2.003(5) . ?
Fe4 O28 2.009(6) . ?
Fe4 N4 2.253(5) . ?
Fe5 O2C 1.922(5) . ?
Fe5 O18 1.943(5) . ?
Fe5 O21 1.975(5) . ?
Fe5 O36 2.001(6) . ?
Fe5 O27 2.012(6) . ?
Fe5 N5 2.203(5) . ?
Fe6 O2C 1.920(5) . ?
Fe6 O14 1.989(6) . ?
Fe6 O34 1.997(6) . ?
Fe6 O17 1.994(6) . ?
Fe6 O35 2.024(6) . ?
Fe6 N6 2.177(5) . ?
S1 O4 1.457(5) . ?
S1 O3 1.468(5) . ?
S1 O1 1.512(5) . ?
S1 O2 1.517(5) . ?
S2 O7 1.403(7) . ?
S2 O8 1.453(6) . ?
S2 O6 1.461(5) . ?
S2 O5 1.498(5) . ?
S3 O11 1.420(6) . ?
S3 O12 1.464(6) . ?
S3 O10 1.486(5) . ?
S3 O9 1.494(5) . ?
S4 O16 1.442(7) . ?
S4 O15 1.500(7) . ?
S4 O14 1.504(6) . ?
S4 O13 1.518(5) . ?
S5 O20 1.439(6) . ?
S5 O19 1.459(7) . ?
S5 O17 1.501(6) . ?
S5 O18 1.505(5) . ?
S6 O23 1.456(6) . ?
S6 O24 1.455(6) . ?
S6 O21 1.511(5) . ?
S6 O22 1.517(5) . ?
O25 C17 1.268(11) . ?
O26 C17 1.299(11) . ?
O27 C18 1.249(9) . ?
O28 C18 1.295(9) . ?
O29 C19 1.385(12) . ?
O30 C19 1.152(14) . ?
O31 C28 1.127(12) . ?
O32 C28 1.336(11) . ?
O33 C38 1.269(10) . ?
O34 C38 1.221(10) . ?
O35 C47 1.305(10) . ?
O36 C47 1.213(11) . ?
C1 C2 1.322(11) . ?
C1 C11 1.436(12) . ?
C1 H1A 0.9300 . ?
C2 C3 1.290(11) . ?
C2 C17 1.511(13) . ?
C3 C13 1.410(14) . ?
C3 H3A 0.9300 . ?
C4 C5 1.328(15) . ?
C4 C13 1.456(16) . ?
C4 H4A 0.9700 . ?
C4 H4B 0.9700 . ?
C5 C14 1.508(13) . ?
C5 H5A 0.9700 . ?
C5 H5B 0.9700 . ?
C6 C7 1.370(11) . ?
C6 C14 1.362(12) . ?
C6 H6A 0.9300 . ?
C7 C8 1.397(12) . ?
C7 C18 1.464(11) . ?
C8 C16 1.311(14) . ?
C8 H8A 0.9300 . ?
C9 C10 1.47(3) . ?
C9 C16 1.543(16) . ?
C9 H9A 0.9700 . ?
C9 H9B 0.9700 . ?
C10 C11 1.633(16) . ?
C10 H10A 0.9700 . ?
C10 H10B 0.9700 . ?
C11 C12 1.322(12) . ?
C12 C13 1.321(13) . ?
C12 C15 1.474(12) . ?
C14 C15 1.357(12) . ?
C15 C16 1.442(14) . ?
C19 C20 1.534(14) . ?
C20 C21 1.342(11) . ?
C20 C25 1.339(11) . ?
C21 C22 1.341(12) . ?
C21 H21A 0.9300 . ?
C22 C23 1.351(12) . ?
C22 C26 1.573(14) . ?
C23 C24 1.350(12) . ?
C23 C23 1.606(18) 2_655 ?
C24 C25 1.378(11) . ?
C24 C27 1.539(14) 2_655 ?
C25 H25A 0.9300 . ?
C26 C27 1.280(13) . ?
C26 H26A 0.9700 . ?
C26 H26B 0.9700 . ?
C27 C24 1.539(14) 2_655 ?
C27 H27A 0.9700 . ?
C27 H27B 0.9700 . ?
C28 C29 1.501(12) . ?
C29 C34 1.333(11) . ?
C29 C30 1.467(12) . ?
C30 C31 1.392(13) . ?
C30 H30A 0.9300 . ?
C31 C32 1.414(15) . ?
C31 C36 1.502(16) . ?
C32 C33 1.325(13) . ?
C32 C51 1.597(15) 2_655 ?
C33 C34 1.397(13) . ?
C33 C35 1.461(14) . ?
C34 H34A 0.9300 . ?
C35 C54 1.339(13) 2_655 ?
C35 H35A 0.9700 . ?
C35 H35B 0.9700 . ?
C36 C37 1.376(16) . ?
C36 H36A 0.9700 . ?
C36 H36B 0.9700 . ?
C37 C52 1.635(16) 2_655 ?
C37 H37A 0.9700 . ?
C37 H37B 0.9700 . ?
C38 C39 1.524(13) . ?
C39 C40 1.358(12) . ?
C39 C44 1.391(12) . ?
C40 C41 1.469(13) . ?
C40 H40A 0.9300 . ?
C41 C42 1.296(17) . ?
C41 C46 1.407(17) 2_655 ?
C42 C42 1.308(19) 2_655 ?
C42 C43 1.358(15) . ?
C43 C44 1.378(12) . ?
C43 C45 1.506(15) . ?
C44 H44A 0.9300 . ?
C45 C46 1.39(2) . ?
C45 H45A 0.9700 . ?
C45 H45B 0.9700 . ?
C46 C41 1.407(17) 2_655 ?
C46 H46A 0.9700 . ?
C46 H46B 0.9700 . ?
C47 C48 1.517(13) . ?
C48 C49 1.322(11) . ?
C48 C53 1.402(12) . ?
C49 C50 1.380(13) . ?
C49 H49A 0.9300 . ?
C50 C51 1.252(14) . ?
C50 C54 1.515(15) . ?
C51 C52 1.326(14) . ?
C51 C32 1.597(15) 2_655 ?
C52 C53 1.457(14) . ?
C52 C37 1.636(16) 2_655 ?
C53 H53A 0.9300 . ?
C54 C35 1.338(13) 2_655 ?
C54 H54A 0.9700 . ?
C54 H54B 0.9700 . ?
N1 C55 1.3900 . ?
N1 C59 1.3900 . ?
C55 C56 1.3900 . ?
C55 H55A 0.9300 . ?
C56 C57 1.3900 . ?
C56 H56A 0.9300 . ?
C57 C58 1.3900 . ?
C57 H57A 0.9300 . ?
C58 C59 1.3900 . ?
C58 H58A 0.9300 . ?
C59 H59A 0.9300 . ?
N2 C60 1.3900 . ?
N2 C64 1.3900 . ?
C60 C61 1.3900 . ?
C60 H60A 0.9300 . ?
C61 C62 1.3900 . ?
C61 H61A 0.9300 . ?
C62 C63 1.3900 . ?
C62 H62A 0.9300 . ?
C63 C64 1.3900 . ?
C63 H63A 0.9300 . ?
C64 H64A 0.9300 . ?
N3 C65 1.3900 . ?
N3 C69 1.3900 . ?
C65 C66 1.3900 . ?
C65 H65A 0.9300 . ?
C66 C67 1.3900 . ?
C66 H66A 0.9300 . ?
C67 C68 1.3900 . ?
C67 H67A 0.9300 . ?
C68 C69 1.3900 . ?
C68 H68A 0.9300 . ?
C69 H69A 0.9300 . ?
N4 C70 1.3900 . ?
N4 C74 1.3900 . ?
C70 C71 1.3900 . ?
C70 H70A 0.9300 . ?
C71 C72 1.3900 . ?
C71 H71A 0.9300 . ?
C72 C73 1.3900 . ?
C72 H72A 0.9300 . ?
C73 C74 1.3900 . ?
C73 H73A 0.9300 . ?
C74 H74A 0.9300 . ?
N5 C75 1.3900 . ?
N5 C79 1.3900 . ?
C75 C76 1.3900 . ?
C75 H75A 0.9300 . ?
C76 C77 1.3900 . ?
C76 H76A 0.9300 . ?
C77 C78 1.3900 . ?
C77 H77A 0.9300 . ?
C78 C79 1.3900 . ?
C78 H78A 0.9300 . ?
C79 H79A 0.9300 . ?
N6 C80 1.3900 . ?
N6 C84 1.3900 . ?
C80 C81 1.3900 . ?
C80 H80A 0.9300 . ?
C81 C82 1.3900 . ?
C81 H81A 0.9300 . ?
C82 C83 1.3900 . ?
C82 H82A 0.9300 . ?
C83 C84 1.3900 . ?
C83 H83A 0.9300 . ?
C84 H84A 0.9300 . ?

loop_
_geom_angle_atom_site_label_1
_geom_angle_atom_site_label_2
_geom_angle_atom_site_label_3
_geom_angle
_geom_angle_site_symmetry_1
_geom_angle_site_symmetry_3
_geom_angle_publ_flag
O1C Fe1 O10 95.2(2) . . ?
O1C Fe1 O1 97.0(2) . . ?
O10 Fe1 O1 88.3(2) . . ?
O1C Fe1 O26 98.3(2) . . ?
O10 Fe1 O26 91.5(2) . . ?
O1 Fe1 O26 164.7(2) . . ?
O1C Fe1 O29 92.5(2) . . ?
O10 Fe1 O29 172.3(2) . . ?
O1 Fe1 O29 91.7(2) . . ?
O26 Fe1 O29 86.4(2) . . ?
O1C Fe1 N1 177.7(2) . . ?
O10 Fe1 N1 86.2(3) . . ?
O1 Fe1 N1 84.9(3) . . ?
O26 Fe1 N1 79.7(3) . . ?
O29 Fe1 N1 86.1(3) . . ?
O1C Fe2 O31 97.2(3) . . ?
O1C Fe2 O2 98.0(2) . . ?
O31 Fe2 O2 164.5(3) . . ?
O1C Fe2 O5 94.2(2) . . ?
O31 Fe2 O5 94.1(3) . . ?
O2 Fe2 O5 87.7(2) . . ?
O1C Fe2 O30 96.6(3) . . ?
O31 Fe2 O30 83.2(3) . . ?
O2 Fe2 O30 92.2(3) . . ?
O5 Fe2 O30 169.2(3) . . ?
O1C Fe2 N2 177.1(3) . . ?
O31 Fe2 N2 80.6(3) . . ?
O2 Fe2 N2 84.2(3) . . ?
O5 Fe2 N2 84.1(3) . . ?
O30 Fe2 N2 85.1(3) . . ?
O1C Fe3 O6 97.7(2) . . ?
O1C Fe3 O9 95.0(2) . . ?
O6 Fe3 O9 90.1(3) . . ?
O1C Fe3 O25 97.4(2) . . ?
O6 Fe3 O25 164.4(3) . . ?
O9 Fe3 O25 92.3(3) . . ?
O1C Fe3 O32 93.5(2) . . ?
O6 Fe3 O32 89.3(3) . . ?
O9 Fe3 O32 171.5(2) . . ?
O25 Fe3 O32 86.1(3) . . ?
O1C Fe3 N3 178.2(2) . . ?
O6 Fe3 N3 84.0(3) . . ?
O9 Fe3 N3 85.5(3) . . ?
O25 Fe3 N3 80.9(3) . . ?
O32 Fe3 N3 86.0(3) . . ?
O2C Fe4 O13 97.9(2) . . ?
O2C Fe4 O22 95.8(2) . . ?
O13 Fe4 O22 88.0(2) . . ?
O2C Fe4 O33 96.5(2) . . ?
O13 Fe4 O33 90.7(2) . . ?
O22 Fe4 O33 167.8(2) . . ?
O2C Fe4 O28 95.2(2) . . ?
O13 Fe4 O28 166.7(2) . . ?
O22 Fe4 O28 92.5(2) . . ?
O33 Fe4 O28 86.0(2) . . ?
O2C Fe4 N4 179.8(3) . . ?
O13 Fe4 N4 82.2(3) . . ?
O22 Fe4 N4 84.1(3) . . ?
O33 Fe4 N4 83.7(3) . . ?
O28 Fe4 N4 84.6(3) . . ?
O2C Fe5 O18 97.8(2) . . ?
O2C Fe5 O21 95.7(2) . . ?
O18 Fe5 O21 86.3(2) . . ?
O2C Fe5 O36 97.5(2) . . ?
O18 Fe5 O36 92.5(2) . . ?
O21 Fe5 O36 166.7(3) . . ?
O2C Fe5 O27 94.5(2) . . ?
O18 Fe5 O27 167.6(2) . . ?
O21 Fe5 O27 92.1(2) . . ?
O36 Fe5 O27 86.2(3) . . ?
O2C Fe5 N5 178.6(2) . . ?
O18 Fe5 N5 83.5(3) . . ?
O21 Fe5 N5 84.6(3) . . ?
O36 Fe5 N5 82.1(3) . . ?
O27 Fe5 N5 84.1(3) . . ?
O2C Fe6 O14 97.6(2) . . ?
O2C Fe6 O34 93.8(2) . . ?
O14 Fe6 O34 91.7(3) . . ?
O2C Fe6 O17 97.9(2) . . ?
O14 Fe6 O17 88.9(2) . . ?
O34 Fe6 O17 168.1(3) . . ?
O2C Fe6 O35 94.1(2) . . ?
O14 Fe6 O35 168.1(2) . . ?
O34 Fe6 O35 85.4(2) . . ?
O17 Fe6 O35 91.6(2) . . ?
O2C Fe6 N6 176.5(3) . . ?
O14 Fe6 N6 82.8(3) . . ?
O34 Fe6 N6 82.8(3) . . ?
O17 Fe6 N6 85.5(3) . . ?
O35 Fe6 N6 85.4(3) . . ?
Fe3 O1C Fe2 119.8(2) . . ?
Fe3 O1C Fe1 119.3(2) . . ?
Fe2 O1C Fe1 120.5(2) . . ?
Fe4 O2C Fe5 121.3(3) . . ?
Fe4 O2C Fe6 119.6(2) . . ?
Fe5 O2C Fe6 118.9(2) . . ?
O4 S1 O3 114.3(4) . . ?
O4 S1 O1 106.3(3) . . ?
O3 S1 O1 112.0(4) . . ?
O4 S1 O2 105.9(3) . . ?
O3 S1 O2 111.1(4) . . ?
O1 S1 O2 106.7(3) . . ?
O7 S2 O8 108.2(6) . . ?
O7 S2 O6 113.2(5) . . ?
O8 S2 O6 106.0(4) . . ?
O7 S2 O5 111.7(4) . . ?
O8 S2 O5 109.2(4) . . ?
O6 S2 O5 108.3(3) . . ?
O11 S3 O12 112.3(4) . . ?
O11 S3 O10 109.7(4) . . ?
O12 S3 O10 110.3(4) . . ?
O11 S3 O9 109.1(4) . . ?
O12 S3 O9 106.9(4) . . ?
O10 S3 O9 108.4(3) . . ?
O16 S4 O15 112.1(5) . . ?
O16 S4 O14 109.3(5) . . ?
O15 S4 O14 109.0(4) . . ?
O16 S4 O13 108.5(4) . . ?
O15 S4 O13 110.3(5) . . ?
O14 S4 O13 107.5(4) . . ?
O20 S5 O19 112.7(5) . . ?
O20 S5 O17 108.8(5) . . ?
O19 S5 O17 111.7(4) . . ?
O20 S5 O18 106.7(4) . . ?
O19 S5 O18 107.9(4) . . ?
O17 S5 O18 108.8(4) . . ?
O23 S6 O24 116.2(4) . . ?
O23 S6 O21 109.2(4) . . ?
O24 S6 O21 109.1(4) . . ?
O23 S6 O22 110.2(4) . . ?
O24 S6 O22 104.8(4) . . ?
O21 S6 O22 106.9(3) . . ?
S1 O1 Fe1 131.0(3) . . ?
S1 O2 Fe2 132.6(3) . . ?
S2 O5 Fe2 135.5(3) . . ?
S2 O6 Fe3 140.6(4) . . ?
S3 O9 Fe3 133.9(3) . . ?
S3 O10 Fe1 135.9(3) . . ?
S4 O13 Fe4 135.2(4) . . ?
S4 O14 Fe6 133.2(3) . . ?
S5 O17 Fe6 133.0(4) . . ?
S5 O18 Fe5 133.6(3) . . ?
S6 O21 Fe5 134.4(3) . . ?
S6 O22 Fe4 133.8(3) . . ?
C17 O25 Fe3 135.6(8) . . ?
C17 O26 Fe1 130.1(7) . . ?
C18 O27 Fe5 136.2(7) . . ?
C18 O28 Fe4 134.3(6) . . ?
C19 O29 Fe1 132.0(7) . . ?
C19 O30 Fe2 133.8(10) . . ?
C28 O31 Fe2 135.2(9) . . ?
C28 O32 Fe3 128.7(6) . . ?
C38 O33 Fe4 130.7(6) . . ?
C38 O34 Fe6 136.0(7) . . ?
C47 O35 Fe6 134.2(7) . . ?
C47 O36 Fe5 132.9(8) . . ?
C2 C1 C11 118.0(10) . . ?
C2 C1 H1A 121.0 . . ?
C11 C1 H1A 121.0 . . ?
C3 C2 C1 119.7(11) . . ?
C3 C2 C17 122.6(12) . . ?
C1 C2 C17 117.4(12) . . ?
C2 C3 C13 120.1(12) . . ?
C2 C3 H3A 119.9 . . ?
C13 C3 H3A 119.9 . . ?
C5 C4 C13 119.6(14) . . ?
C5 C4 H4A 107.4 . . ?
C13 C4 H4A 107.4 . . ?
C5 C4 H4B 107.4 . . ?
C13 C4 H4B 107.4 . . ?
H4A C4 H4B 107.0 . . ?
C4 C5 C14 122.2(12) . . ?
C4 C5 H5A 106.8 . . ?
C14 C5 H5A 106.8 . . ?
C4 C5 H5B 106.8 . . ?
C14 C5 H5B 106.8 . . ?
H5A C5 H5B 106.6 . . ?
C7 C6 C14 117.8(11) . . ?
C7 C6 H6A 121.1 . . ?
C14 C6 H6A 121.1 . . ?
C6 C7 C8 125.7(9) . . ?
C6 C7 C18 119.3(10) . . ?
C8 C7 C18 115.1(10) . . ?
C16 C8 C7 111.6(11) . . ?
C16 C8 H8A 124.2 . . ?
C7 C8 H8A 124.2 . . ?
C10 C9 C16 113.1(17) . . ?
C10 C9 H9A 109.0 . . ?
C16 C9 H9A 109.0 . . ?
C10 C9 H9B 109.0 . . ?
C16 C9 H9B 109.0 . . ?
H9A C9 H9B 107.8 . . ?
C9 C10 C11 112.2(18) . . ?
C9 C10 H10A 109.2 . . ?
C11 C10 H10A 109.2 . . ?
C9 C10 H10B 109.2 . . ?
C11 C10 H10B 109.2 . . ?
H10A C10 H10B 107.9 . . ?
C12 C11 C1 122.7(12) . . ?
C12 C11 C10 112.2(11) . . ?
C1 C11 C10 123.0(13) . . ?
C13 C12 C11 115.7(12) . . ?
C13 C12 C15 121.8(12) . . ?
C11 C12 C15 122.0(12) . . ?
C12 C13 C3 121.9(13) . . ?
C12 C13 C4 117.4(12) . . ?
C3 C13 C4 117.8(14) . . ?
C15 C14 C6 121.4(12) . . ?
C15 C14 C5 115.4(12) . . ?
C6 C14 C5 123.1(12) . . ?
C14 C15 C16 115.5(11) . . ?
C14 C15 C12 120.4(13) . . ?
C16 C15 C12 124.1(13) . . ?
C8 C16 C15 126.7(11) . . ?
C8 C16 C9 118.4(13) . . ?
C15 C16 C9 114.2(13) . . ?
O25 C17 O26 124.4(11) . . ?
O25 C17 C2 116.0(11) . . ?
O26 C17 C2 119.0(11) . . ?
O27 C18 O28 121.9(9) . . ?
O27 C18 C7 120.7(10) . . ?
O28 C18 C7 117.3(10) . . ?
O30 C19 O29 125.0(12) . . ?
O30 C19 C20 131.3(12) . . ?
O29 C19 C20 103.4(11) . . ?
C21 C20 C25 121.1(11) . . ?
C21 C20 C19 128.4(12) . . ?
C25 C20 C19 110.6(12) . . ?
C22 C21 C20 120.0(12) . . ?
C22 C21 H21A 120.0 . . ?
C20 C21 H21A 120.0 . . ?
C21 C22 C23 120.2(11) . . ?
C21 C22 C26 121.9(13) . . ?
C23 C22 C26 117.5(12) . . ?
C22 C23 C24 120.2(10) . . ?
C22 C23 C23 117.7(15) . 2_655 ?
C24 C23 C23 121.9(14) . 2_655 ?
C23 C24 C25 119.2(10) . . ?
C23 C24 C27 117.4(11) . 2_655 ?
C25 C24 C27 122.9(11) . 2_655 ?
C20 C25 C24 119.2(10) . . ?
C20 C25 H25A 120.4 . . ?
C24 C25 H25A 120.4 . . ?
C27 C26 C22 123.2(12) . . ?
C27 C26 H26A 106.5 . . ?
C22 C26 H26A 106.5 . . ?
C27 C26 H26B 106.5 . . ?
C22 C26 H26B 106.5 . . ?
H26A C26 H26B 106.5 . . ?
C26 C27 C24 121.3(13) . 2_655 ?
C26 C27 H27A 107.0 . . ?
C24 C27 H27A 107.0 2_655 . ?
C26 C27 H27B 107.0 . . ?
C24 C27 H27B 107.0 2_655 . ?
H27A C27 H27B 106.7 . . ?
O31 C28 O32 126.8(10) . . ?
O31 C28 C29 125.2(12) . . ?
O32 C28 C29 107.6(11) . . ?
C34 C29 C30 119.1(10) . . ?
C34 C29 C28 117.0(11) . . ?
C30 C29 C28 123.9(11) . . ?
C31 C30 C29 115.3(11) . . ?
C31 C30 H30A 122.4 . . ?
C29 C30 H30A 122.4 . . ?
C30 C31 C32 122.2(12) . . ?
C30 C31 C36 107.8(16) . . ?
C32 C31 C36 130.0(14) . . ?
C33 C32 C31 120.8(13) . . ?
C33 C32 C51 121.9(13) . 2_655 ?
C31 C32 C51 117.1(15) . 2_655 ?
C32 C33 C34 118.3(13) . . ?
C32 C33 C35 113.4(13) . . ?
C34 C33 C35 128.3(12) . . ?
C29 C34 C33 124.3(12) . . ?
C29 C34 H34A 117.9 . . ?
C33 C34 H34A 117.9 . . ?
C54 C35 C33 121.8(14) 2_655 . ?
C54 C35 H35A 106.9 2_655 . ?
C33 C35 H35A 106.9 . . ?
C54 C35 H35B 106.9 2_655 . ?
C33 C35 H35B 106.9 . . ?
H35A C35 H35B 106.7 . . ?
C37 C36 C31 109.0(13) . . ?
C37 C36 H36A 109.9 . . ?
C31 C36 H36A 109.9 . . ?
C37 C36 H36B 109.9 . . ?
C31 C36 H36B 109.9 . . ?
H36A C36 H36B 108.3 . . ?
C36 C37 C52 123.3(13) . 2_655 ?
C36 C37 H37A 106.5 . . ?
C52 C37 H37A 106.5 2_655 . ?
C36 C37 H37B 106.5 . . ?
C52 C37 H37B 106.5 2_655 . ?
H37A C37 H37B 106.5 . . ?
O34 C38 O33 125.0(10) . . ?
O34 C38 C39 121.5(11) . . ?
O33 C38 C39 113.3(10) . . ?
C40 C39 C44 116.2(11) . . ?
C40 C39 C38 116.6(12) . . ?
C44 C39 C38 127.2(11) . . ?
C39 C40 C41 120.2(12) . . ?
C39 C40 H40A 119.9 . . ?
C41 C40 H40A 119.9 . . ?
C42 C41 C46 119.5(14) . 2_655 ?
C42 C41 C40 122.7(14) . . ?
C46 C41 C40 117.1(17) 2_655 . ?
C41 C42 C42 118.0(17) . 2_655 ?
C41 C42 C43 115.5(12) . . ?
C42 C42 C43 126.4(16) 2_655 . ?
C42 C43 C44 125.2(13) . . ?
C42 C43 C45 112.9(12) . . ?
C44 C43 C45 119.8(14) . . ?
C43 C44 C39 119.8(11) . . ?
C43 C44 H44A 120.1 . . ?
C39 C44 H44A 120.1 . . ?
C46 C45 C43 107.3(16) . . ?
C46 C45 H45A 110.3 . . ?
C43 C45 H45A 110.3 . . ?
C46 C45 H45B 110.3 . . ?
C43 C45 H45B 110.3 . . ?
H45A C45 H45B 108.5 . . ?
C45 C46 C41 119.0(17) . 2_655 ?
C45 C46 H46A 107.6 . . ?
C41 C46 H46A 107.6 2_655 . ?
C45 C46 H46B 107.6 . . ?
C41 C46 H46B 107.6 2_655 . ?
H46A C46 H46B 107.0 . . ?
O36 C47 O35 124.1(11) . . ?
O36 C47 C48 119.8(11) . . ?
O35 C47 C48 116.0(11) . . ?
C49 C48 C53 121.5(10) . . ?
C49 C48 C47 123.2(12) . . ?
C53 C48 C47 115.3(12) . . ?
C48 C49 C50 122.5(12) . . ?
C48 C49 H49A 118.8 . . ?
C50 C49 H49A 118.8 . . ?
C51 C50 C49 117.7(15) . . ?
C51 C50 C54 116.5(13) . . ?
C49 C50 C54 124.9(12) . . ?
C50 C51 C52 125.0(14) . . ?
C50 C51 C32 119.6(13) . 2_655 ?
C52 C51 C32 115.3(16) . 2_655 ?
C51 C52 C53 120.6(11) . . ?
C51 C52 C37 122.2(15) . 2_655 ?
C53 C52 C37 116.8(15) . 2_655 ?
C48 C53 C52 112.4(11) . . ?
C48 C53 H53A 123.8 . . ?
C52 C53 H53A 123.8 . . ?
C35 C54 C50 117.0(13) 2_655 . ?
C35 C54 H54A 108.0 2_655 . ?
C50 C54 H54A 108.0 . . ?
C35 C54 H54B 108.0 2_655 . ?
C50 C54 H54B 108.0 . . ?
H54A C54 H54B 107.3 . . ?
C55 N1 C59 120.0 . . ?
C55 N1 Fe1 116.7(7) . . ?
C59 N1 Fe1 123.3(7) . . ?
N1 C55 C56 120.0 . . ?
N1 C55 H55A 120.0 . . ?
C56 C55 H55A 120.0 . . ?
C57 C56 C55 120.0 . . ?
C57 C56 H56A 120.0 . . ?
C55 C56 H56A 120.0 . . ?
C56 C57 C58 120.0 . . ?
C56 C57 H57A 120.0 . . ?
C58 C57 H57A 120.0 . . ?
C57 C58 C59 120.0 . . ?
C57 C58 H58A 120.0 . . ?
C59 C58 H58A 120.0 . . ?
C58 C59 N1 120.0 . . ?
C58 C59 H59A 120.0 . . ?
N1 C59 H59A 120.0 . . ?
C60 N2 C64 120.0 . . ?
C60 N2 Fe2 118.0(6) . . ?
C64 N2 Fe2 121.3(6) . . ?
C61 C60 N2 120.0 . . ?
C61 C60 H60A 120.0 . . ?
N2 C60 H60A 120.0 . . ?
C60 C61 C62 120.0 . . ?
C60 C61 H61A 120.0 . . ?
C62 C61 H61A 120.0 . . ?
C61 C62 C63 120.0 . . ?
C61 C62 H62A 120.0 . . ?
C63 C62 H62A 120.0 . . ?
C64 C63 C62 120.0 . . ?
C64 C63 H63A 120.0 . . ?
C62 C63 H63A 120.0 . . ?
C63 C64 N2 120.0 . . ?
C63 C64 H64A 120.0 . . ?
N2 C64 H64A 120.0 . . ?
C65 N3 C69 120.0 . . ?
C65 N3 Fe3 121.1(7) . . ?
C69 N3 Fe3 118.9(7) . . ?
C66 C65 N3 120.0 . . ?
C66 C65 H65A 120.0 . . ?
N3 C65 H65A 120.0 . . ?
C67 C66 C65 120.0 . . ?
C67 C66 H66A 120.0 . . ?
C65 C66 H66A 120.0 . . ?
C66 C67 C68 120.0 . . ?
C66 C67 H67A 120.0 . . ?
C68 C67 H67A 120.0 . . ?
C69 C68 C67 120.0 . . ?
C69 C68 H68A 120.0 . . ?
C67 C68 H68A 120.0 . . ?
C68 C69 N3 120.0 . . ?
C68 C69 H69A 120.0 . . ?
N3 C69 H69A 120.0 . . ?
C70 N4 C74 120.0 . . ?
C70 N4 Fe4 119.1(7) . . ?
C74 N4 Fe4 120.7(7) . . ?
N4 C70 C71 120.0 . . ?
N4 C70 H70A 120.0 . . ?
C71 C70 H70A 120.0 . . ?
C72 C71 C70 120.0 . . ?
C72 C71 H71A 120.0 . . ?
C70 C71 H71A 120.0 . . ?
C71 C72 C73 120.0 . . ?
C71 C72 H72A 120.0 . . ?
C73 C72 H72A 120.0 . . ?
C72 C73 C74 120.0 . . ?
C72 C73 H73A 120.0 . . ?
C74 C73 H73A 120.0 . . ?
C73 C74 N4 120.0 . . ?
C73 C74 H74A 120.0 . . ?
N4 C74 H74A 120.0 . . ?
C75 N5 C79 120.0 . . ?
C75 N5 Fe5 119.4(8) . . ?
C79 N5 Fe5 120.6(8) . . ?
C76 C75 N5 120.0 . . ?
C76 C75 H75A 120.0 . . ?
N5 C75 H75A 120.0 . . ?
C75 C76 C77 120.0 . . ?
C75 C76 H76A 120.0 . . ?
C77 C76 H76A 120.0 . . ?
C78 C77 C76 120.0 . . ?
C78 C77 H77A 120.0 . . ?
C76 C77 H77A 120.0 . . ?
C77 C78 C79 120.0 . . ?
C77 C78 H78A 120.0 . . ?
C79 C78 H78A 120.0 . . ?
C78 C79 N5 120.0 . . ?
C78 C79 H79A 120.0 . . ?
N5 C79 H79A 120.0 . . ?
C80 N6 C84 120.0 . . ?
C80 N6 Fe6 121.3(7) . . ?
C84 N6 Fe6 118.7(7) . . ?
N6 C80 C81 120.0 . . ?
N6 C80 H80A 120.0 . . ?
C81 C80 H80A 120.0 . . ?
C82 C81 C80 120.0 . . ?
C82 C81 H81A 120.0 . . ?
C80 C81 H81A 120.0 . . ?
C81 C82 C83 120.0 . . ?
C81 C82 H82A 120.0 . . ?
C83 C82 H82A 120.0 . . ?
C84 C83 C82 120.0 . . ?
C84 C83 H83A 120.0 . . ?
C82 C83 H83A 120.0 . . ?
C83 C84 N6 120.0 . . ?
C83 C84 H84A 120.0 . . ?
N6 C84 H84A 120.0 . . ?

loop_
_geom_torsion_atom_site_label_1
_geom_torsion_atom_site_label_2
_geom_torsion_atom_site_label_3
_geom_torsion_atom_site_label_4
_geom_torsion
_geom_torsion_site_symmetry_1
_geom_torsion_site_symmetry_2
_geom_torsion_site_symmetry_3
_geom_torsion_site_symmetry_4
_geom_torsion_publ_flag
O6 Fe3 O1C Fe2 42.9(3) . . . . ?
O9 Fe3 O1C Fe2 133.7(3) . . . . ?
O25 Fe3 O1C Fe2 -133.3(3) . . . . ?
O32 Fe3 O1C Fe2 -46.9(3) . . . . ?
O6 Fe3 O1C Fe1 -144.0(3) . . . . ?
O9 Fe3 O1C Fe1 -53.3(3) . . . . ?
O25 Fe3 O1C Fe1 39.7(3) . . . . ?
O32 Fe3 O1C Fe1 126.2(3) . . . . ?
O31 Fe2 O1C Fe3 41.0(3) . . . . ?
O2 Fe2 O1C Fe3 -142.0(3) . . . . ?
O5 Fe2 O1C Fe3 -53.7(3) . . . . ?
O30 Fe2 O1C Fe3 124.9(3) . . . . ?
O31 Fe2 O1C Fe1 -132.0(3) . . . . ?
O2 Fe2 O1C Fe1 45.1(3) . . . . ?
O5 Fe2 O1C Fe1 133.3(3) . . . . ?
O30 Fe2 O1C Fe1 -48.1(3) . . . . ?
O10 Fe1 O1C Fe3 51.5(3) . . . . ?
O1 Fe1 O1C Fe3 140.4(3) . . . . ?
O26 Fe1 O1C Fe3 -40.8(3) . . . . ?
O29 Fe1 O1C Fe3 -127.6(3) . . . . ?
O10 Fe1 O1C Fe2 -135.5(3) . . . . ?
O1 Fe1 O1C Fe2 -46.6(3) . . . . ?
O26 Fe1 O1C Fe2 132.2(3) . . . . ?
O29 Fe1 O1C Fe2 45.4(3) . . . . ?
O13 Fe4 O2C Fe5 138.2(3) . . . . ?
O22 Fe4 O2C Fe5 49.5(3) . . . . ?
O33 Fe4 O2C Fe5 -130.2(3) . . . . ?
O28 Fe4 O2C Fe5 -43.6(3) . . . . ?
O13 Fe4 O2C Fe6 -46.4(3) . . . . ?
O22 Fe4 O2C Fe6 -135.1(3) . . . . ?
O33 Fe4 O2C Fe6 45.2(3) . . . . ?
O28 Fe4 O2C Fe6 131.8(3) . . . . ?
O18 Fe5 O2C Fe4 -136.0(3) . . . . ?
O21 Fe5 O2C Fe4 -48.9(3) . . . . ?
O36 Fe5 O2C Fe4 130.5(3) . . . . ?
O27 Fe5 O2C Fe4 43.7(3) . . . . ?
O18 Fe5 O2C Fe6 48.6(3) . . . . ?
O21 Fe5 O2C Fe6 135.7(3) . . . . ?
O36 Fe5 O2C Fe6 -45.0(3) . . . . ?
O27 Fe5 O2C Fe6 -131.7(3) . . . . ?
O14 Fe6 O2C Fe4 47.6(3) . . . . ?
O34 Fe6 O2C Fe4 -44.7(3) . . . . ?
O17 Fe6 O2C Fe4 137.5(3) . . . . ?
O35 Fe6 O2C Fe4 -130.3(3) . . . . ?
O14 Fe6 O2C Fe5 -136.9(3) . . . . ?
O34 Fe6 O2C Fe5 130.9(3) . . . . ?
O17 Fe6 O2C Fe5 -47.0(3) . . . . ?
O35 Fe6 O2C Fe5 45.2(3) . . . . ?
O4 S1 O1 Fe1 -160.6(4) . . . . ?
O3 S1 O1 Fe1 73.8(5) . . . . ?
O2 S1 O1 Fe1 -47.9(5) . . . . ?
O1C Fe1 O1 S1 50.1(4) . . . . ?
O10 Fe1 O1 S1 145.1(4) . . . . ?
O26 Fe1 O1 S1 -125.3(8) . . . . ?
O29 Fe1 O1 S1 -42.6(4) . . . . ?
N1 Fe1 O1 S1 -128.6(5) . . . . ?
O4 S1 O2 Fe2 158.3(4) . . . . ?
O3 S1 O2 Fe2 -77.0(5) . . . . ?
O1 S1 O2 Fe2 45.3(5) . . . . ?
O1C Fe2 O2 S1 -45.7(5) . . . . ?
O31 Fe2 O2 S1 123.4(10) . . . . ?
O5 Fe2 O2 S1 -139.6(5) . . . . ?
O30 Fe2 O2 S1 51.3(5) . . . . ?
N2 Fe2 O2 S1 136.1(5) . . . . ?
O7 S2 O5 Fe2 107.6(6) . . . . ?
O8 S2 O5 Fe2 -132.7(5) . . . . ?
O6 S2 O5 Fe2 -17.7(6) . . . . ?
O1C Fe2 O5 S2 44.3(5) . . . . ?
O31 Fe2 O5 S2 -53.3(5) . . . . ?
O2 Fe2 O5 S2 142.1(5) . . . . ?
O30 Fe2 O5 S2 -128.3(15) . . . . ?
N2 Fe2 O5 S2 -133.5(5) . . . . ?
O7 S2 O6 Fe3 -129.7(7) . . . . ?
O8 S2 O6 Fe3 111.7(7) . . . . ?
O5 S2 O6 Fe3 -5.3(8) . . . . ?
O1C Fe3 O6 S2 -7.7(7) . . . . ?
O9 Fe3 O6 S2 -102.8(7) . . . . ?
O25 Fe3 O6 S2 158.3(8) . . . . ?
O32 Fe3 O6 S2 85.7(7) . . . . ?
N3 Fe3 O6 S2 171.7(7) . . . . ?
O11 S3 O9 Fe3 83.9(6) . . . . ?
O12 S3 O9 Fe3 -154.4(4) . . . . ?
O10 S3 O9 Fe3 -35.5(6) . . . . ?
O1C Fe3 O9 S3 46.6(5) . . . . ?
O6 Fe3 O9 S3 144.3(5) . . . . ?
O25 Fe3 O9 S3 -51.1(5) . . . . ?
N3 Fe3 O9 S3 -131.7(5) . . . . ?
O11 S3 O10 Fe1 -86.1(6) . . . . ?
O12 S3 O10 Fe1 149.6(5) . . . . ?
O9 S3 O10 Fe1 32.9(6) . . . . ?
O1C Fe1 O10 S3 -41.5(5) . . . . ?
O1 Fe1 O10 S3 -138.4(5) . . . . ?
O26 Fe1 O10 S3 57.0(5) . . . . ?
N1 Fe1 O10 S3 136.6(5) . . . . ?
O16 S4 O13 Fe4 -154.1(5) . . . . ?
O15 S4 O13 Fe4 82.8(6) . . . . ?
O14 S4 O13 Fe4 -36.0(7) . . . . ?
O2C Fe4 O13 S4 41.8(6) . . . . ?
O22 Fe4 O13 S4 137.4(5) . . . . ?
O33 Fe4 O13 S4 -54.8(5) . . . . ?
O28 Fe4 O13 S4 -130.3(9) . . . . ?
N4 Fe4 O13 S4 -138.3(6) . . . . ?
O16 S4 O14 Fe6 155.0(5) . . . . ?
O15 S4 O14 Fe6 -82.2(6) . . . . ?
O13 S4 O14 Fe6 37.4(6) . . . . ?
O2C Fe6 O14 S4 -45.0(5) . . . . ?
O34 Fe6 O14 S4 49.1(5) . . . . ?
O17 Fe6 O14 S4 -142.8(5) . . . . ?
O35 Fe6 O14 S4 124.5(11) . . . . ?
N6 Fe6 O14 S4 131.6(6) . . . . ?
O20 S5 O17 Fe6 -151.2(5) . . . . ?
O19 S5 O17 Fe6 83.8(6) . . . . ?
O18 S5 O17 Fe6 -35.3(6) . . . . ?
O2C Fe6 O17 S5 41.3(5) . . . . ?
O14 Fe6 O17 S5 138.8(5) . . . . ?
O34 Fe6 O17 S5 -128.3(12) . . . . ?
O35 Fe6 O17 S5 -53.1(5) . . . . ?
N6 Fe6 O17 S5 -138.3(5) . . . . ?
O20 S5 O18 Fe5 155.9(5) . . . . ?
O19 S5 O18 Fe5 -82.8(6) . . . . ?
O17 S5 O18 Fe5 38.6(6) . . . . ?
O2C Fe5 O18 S5 -46.1(5) . . . . ?
O21 Fe5 O18 S5 -141.4(5) . . . . ?
O36 Fe5 O18 S5 51.8(5) . . . . ?
O27 Fe5 O18 S5 135.5(10) . . . . ?
N5 Fe5 O18 S5 133.6(6) . . . . ?
O23 S6 O21 Fe5 79.7(6) . . . . ?
O24 S6 O21 Fe5 -152.4(5) . . . . ?
O22 S6 O21 Fe5 -39.6(6) . . . . ?
O2C Fe5 O21 S6 44.9(5) . . . . ?
O18 Fe5 O21 S6 142.4(5) . . . . ?
O36 Fe5 O21 S6 -132.5(10) . . . . ?
O27 Fe5 O21 S6 -49.9(5) . . . . ?
N5 Fe5 O21 S6 -133.8(5) . . . . ?
O23 S6 O22 Fe4 -78.2(6) . . . . ?
O24 S6 O22 Fe4 156.1(5) . . . . ?
O21 S6 O22 Fe4 40.3(6) . . . . ?
O2C Fe4 O22 S6 -46.2(5) . . . . ?
O13 Fe4 O22 S6 -144.0(5) . . . . ?
O33 Fe4 O22 S6 132.1(10) . . . . ?
O28 Fe4 O22 S6 49.3(5) . . . . ?
N4 Fe4 O22 S6 133.6(5) . . . . ?
O1C Fe3 O25 C17 -23.1(11) . . . . ?
O6 Fe3 O25 C17 170.8(10) . . . . ?
O9 Fe3 O25 C17 72.2(11) . . . . ?
O32 Fe3 O25 C17 -116.1(11) . . . . ?
N3 Fe3 O25 C17 157.3(11) . . . . ?
O1C Fe1 O26 C17 24.6(9) . . . . ?
O10 Fe1 O26 C17 -70.8(9) . . . . ?
O1 Fe1 O26 C17 -159.9(9) . . . . ?
O29 Fe1 O26 C17 116.7(9) . . . . ?
N1 Fe1 O26 C17 -156.6(10) . . . . ?
O2C Fe5 O27 C18 -19.6(9) . . . . ?
O18 Fe5 O27 C18 158.8(10) . . . . ?
O21 Fe5 O27 C18 76.4(9) . . . . ?
O36 Fe5 O27 C18 -116.8(10) . . . . ?
N5 Fe5 O27 C18 160.7(10) . . . . ?
O2C Fe4 O28 C18 18.7(8) . . . . ?
O13 Fe4 O28 C18 -169.1(10) . . . . ?
O22 Fe4 O28 C18 -77.3(8) . . . . ?
O33 Fe4 O28 C18 114.8(9) . . . . ?
N4 Fe4 O28 C18 -161.2(9) . . . . ?
O1C Fe1 O29 C19 -23.7(7) . . . . ?
O1 Fe1 O29 C19 73.4(7) . . . . ?
O26 Fe1 O29 C19 -121.8(7) . . . . ?
N1 Fe1 O29 C19 158.2(8) . . . . ?
O1C Fe2 O30 C19 28.4(14) . . . . ?
O31 Fe2 O30 C19 124.9(14) . . . . ?
O2 Fe2 O30 C19 -70.0(13) . . . . ?
O5 Fe2 O30 C19 -159.1(11) . . . . ?
N2 Fe2 O30 C19 -154.0(14) . . . . ?
O1C Fe2 O31 C28 -13.6(13) . . . . ?
O2 Fe2 O31 C28 177.3(10) . . . . ?
O5 Fe2 O31 C28 81.1(13) . . . . ?
O30 Fe2 O31 C28 -109.4(13) . . . . ?
N2 Fe2 O31 C28 164.4(14) . . . . ?
O1C Fe3 O32 C28 34.6(8) . . . . ?
O6 Fe3 O32 C28 -63.1(8) . . . . ?
O25 Fe3 O32 C28 131.8(8) . . . . ?
N3 Fe3 O32 C28 -147.1(8) . . . . ?
O2C Fe4 O33 C38 -25.1(8) . . . . ?
O13 Fe4 O33 C38 73.0(8) . . . . ?
O22 Fe4 O33 C38 156.5(10) . . . . ?
O28 Fe4 O33 C38 -119.9(8) . . . . ?
N4 Fe4 O33 C38 155.1(8) . . . . ?
O2C Fe6 O34 C38 27.1(10) . . . . ?
O14 Fe6 O34 C38 -70.7(10) . . . . ?
O17 Fe6 O34 C38 -163.3(11) . . . . ?
O35 Fe6 O34 C38 120.9(10) . . . . ?
N6 Fe6 O34 C38 -153.2(10) . . . . ?
O2C Fe6 O35 C47 -24.0(9) . . . . ?
O14 Fe6 O35 C47 166.4(11) . . . . ?
O34 Fe6 O35 C47 -117.5(9) . . . . ?
O17 Fe6 O35 C47 74.1(9) . . . . ?
N6 Fe6 O35 C47 159.4(9) . . . . ?
O2C Fe5 O36 C47 19.1(11) . . . . ?
O18 Fe5 O36 C47 -79.1(10) . . . . ?
O21 Fe5 O36 C47 -163.6(10) . . . . ?
O27 Fe5 O36 C47 113.2(11) . . . . ?
N5 Fe5 O36 C47 -162.3(11) . . . . ?
C11 C1 C2 C3 -8(2) . . . . ?
C11 C1 C2 C17 179.0(12) . . . . ?
C1 C2 C3 C13 15(2) . . . . ?
C17 C2 C3 C13 -171.6(15) . . . . ?
C13 C4 C5 C14 -12(4) . . . . ?
C14 C6 C7 C8 -6(2) . . . . ?
C14 C6 C7 C18 176.3(11) . . . . ?
C6 C7 C8 C16 11(2) . . . . ?
C18 C7 C8 C16 -170.9(13) . . . . ?
C16 C9 C10 C11 52(3) . . . . ?
C2 C1 C11 C12 0(2) . . . . ?
C2 C1 C11 C10 162.3(18) . . . . ?
C9 C10 C11 C12 -51(3) . . . . ?
C9 C10 C11 C1 145.7(18) . . . . ?
C1 C11 C12 C13 -1(2) . . . . ?
C10 C11 C12 C13 -164.7(19) . . . . ?
C1 C11 C12 C15 -173.6(13) . . . . ?
C10 C11 C12 C15 23(2) . . . . ?
C11 C12 C13 C3 9(3) . . . . ?
C15 C12 C13 C3 -178.7(15) . . . . ?
C11 C12 C13 C4 168.6(19) . . . . ?
C15 C12 C13 C4 -19(3) . . . . ?
C2 C3 C13 C12 -17(3) . . . . ?
C2 C3 C13 C4 -176.4(18) . . . . ?
C5 C4 C13 C12 21(4) . . . . ?
C5 C4 C13 C3 -178(2) . . . . ?
C7 C6 C14 C15 2(2) . . . . ?
C7 C6 C14 C5 178.0(14) . . . . ?
C4 C5 C14 C15 1(3) . . . . ?
C4 C5 C14 C6 -175(2) . . . . ?
C6 C14 C15 C16 -4(2) . . . . ?
C5 C14 C15 C16 179.8(14) . . . . ?
C6 C14 C15 C12 178.5(13) . . . . ?
C5 C14 C15 C12 2(2) . . . . ?
C13 C12 C15 C14 7(2) . . . . ?
C11 C12 C15 C14 179.6(14) . . . . ?
C13 C12 C15 C16 -170.0(17) . . . . ?
C11 C12 C15 C16 2(2) . . . . ?
C7 C8 C16 C15 -14(3) . . . . ?
C7 C8 C16 C9 176.2(16) . . . . ?
C14 C15 C16 C8 11(3) . . . . ?
C12 C15 C16 C8 -171.6(16) . . . . ?
C14 C15 C16 C9 -178.7(16) . . . . ?
C12 C15 C16 C9 -1(2) . . . . ?
C10 C9 C16 C8 144(2) . . . . ?
C10 C9 C16 C15 -27(3) . . . . ?
Fe3 O25 C17 O26 8.1(19) . . . . ?
Fe3 O25 C17 C2 179.7(6) . . . . ?
Fe1 O26 C17 O25 -8.9(17) . . . . ?
Fe1 O26 C17 C2 179.7(6) . . . . ?
C3 C2 C17 O25 13.3(18) . . . . ?
C1 C2 C17 O25 -173.6(12) . . . . ?
C3 C2 C17 O26 -174.6(13) . . . . ?
C1 C2 C17 O26 -1.6(17) . . . . ?
Fe5 O27 C18 O28 -2.7(16) . . . . ?
Fe5 O27 C18 C7 173.7(6) . . . . ?
Fe4 O28 C18 O27 3.3(15) . . . . ?
Fe4 O28 C18 C7 -173.2(6) . . . . ?
C6 C7 C18 O27 176.9(11) . . . . ?
C8 C7 C18 O27 -1.1(16) . . . . ?
C6 C7 C18 O28 -6.6(15) . . . . ?
C8 C7 C18 O28 175.5(10) . . . . ?
Fe2 O30 C19 O29 -9(2) . . . . ?
Fe2 O30 C19 C20 177.0(6) . . . . ?
Fe1 O29 C19 O30 6.9(17) . . . . ?
Fe1 O29 C19 C20 -178.1(5) . . . . ?
O30 C19 C20 C21 174.8(14) . . . . ?
O29 C19 C20 C21 0.3(15) . . . . ?
O30 C19 C20 C25 -5.3(18) . . . . ?
O29 C19 C20 C25 -179.9(8) . . . . ?
C25 C20 C21 C22 4.3(19) . . . . ?
C19 C20 C21 C22 -175.8(11) . . . . ?
C20 C21 C22 C23 -2(2) . . . . ?
C20 C21 C22 C26 170.9(13) . . . . ?
C21 C22 C23 C24 -0.5(19) . . . . ?
C26 C22 C23 C24 -174.2(13) . . . . ?
C21 C22 C23 C23 176.7(9) . . . 2_655 ?
C26 C22 C23 C23 3.0(15) . . . 2_655 ?
C22 C23 C24 C25 1.6(19) . . . . ?
C23 C23 C24 C25 -175.4(8) 2_655 . . . ?
C22 C23 C24 C27 173.3(14) . . . 2_655 ?
C23 C23 C24 C27 -3.7(16) 2_655 . . 2_655 ?
C21 C20 C25 C24 -3.2(18) . . . . ?
C19 C20 C25 C24 177.0(10) . . . . ?
C23 C24 C25 C20 0.2(18) . . . . ?
C27 C24 C25 C20 -171.0(14) 2_655 . . . ?
C21 C22 C26 C27 176(2) . . . . ?
C23 C22 C26 C27 -10(3) . . . . ?
C22 C26 C27 C24 11(4) . . . 2_655 ?
Fe2 O31 C28 O32 0(2) . . . . ?
Fe2 O31 C28 C29 172.9(6) . . . . ?
Fe3 O32 C28 O31 -13.7(18) . . . . ?
Fe3 O32 C28 C29 172.8(5) . . . . ?
O31 C28 C29 C34 -4.7(18) . . . . ?
O32 C28 C29 C34 169.0(10) . . . . ?
O31 C28 C29 C30 177.6(12) . . . . ?
O32 C28 C29 C30 -8.7(14) . . . . ?
C34 C29 C30 C31 0.4(17) . . . . ?
C28 C29 C30 C31 178.1(10) . . . . ?
C29 C30 C31 C32 2.3(19) . . . . ?
C29 C30 C31 C36 -179.2(12) . . . . ?
C30 C31 C32 C33 -3(2) . . . . ?
C36 C31 C32 C33 179.0(16) . . . . ?
C30 C31 C32 C51 -177.7(11) . . . 2_655 ?
C36 C31 C32 C51 4(2) . . . 2_655 ?
C31 C32 C33 C34 0(2) . . . . ?
C51 C32 C33 C34 175.0(11) 2_655 . . . ?
C31 C32 C33 C35 -178.6(13) . . . . ?
C51 C32 C33 C35 -4.1(19) 2_655 . . . ?
C30 C29 C34 C33 -2.9(18) . . . . ?
C28 C29 C34 C33 179.3(10) . . . . ?
C32 C33 C34 C29 2(2) . . . . ?
C35 C33 C34 C29 -178.6(14) . . . . ?
C32 C33 C35 C54 -20(2) . . . 2_655 ?
C34 C33 C35 C54 161.2(15) . . . 2_655 ?
C30 C31 C36 C37 166.5(17) . . . . ?
C32 C31 C36 C37 -15(3) . . . . ?
C31 C36 C37 C52 21(3) . . . 2_655 ?
Fe6 O34 C38 O33 -9.9(17) . . . . ?
Fe6 O34 C38 C39 176.5(6) . . . . ?
Fe4 O33 C38 O34 8.3(15) . . . . ?
Fe4 O33 C38 C39 -177.7(5) . . . . ?
O34 C38 C39 C40 -6.6(15) . . . . ?
O33 C38 C39 C40 179.1(10) . . . . ?
O34 C38 C39 C44 172.5(11) . . . . ?
O33 C38 C39 C44 -1.8(16) . . . . ?
C44 C39 C40 C41 -0.8(19) . . . . ?
C38 C39 C40 C41 178.4(11) . . . . ?
C39 C40 C41 C42 -5(2) . . . . ?
C39 C40 C41 C46 -175.6(18) . . . 2_655 ?
C46 C41 C42 C42 -6(2) 2_655 . . 2_655 ?
C40 C41 C42 C42 -176.2(10) . . . 2_655 ?
C46 C41 C42 C43 177.3(18) 2_655 . . . ?
C40 C41 C42 C43 7(2) . . . . ?
C41 C42 C43 C44 -4(2) . . . . ?
C42 C42 C43 C44 -180.0(10) 2_655 . . . ?
C41 C42 C43 C45 -167.0(16) . . . . ?
C42 C42 C43 C45 16.9(18) 2_655 . . . ?
C42 C43 C44 C39 -2(2) . . . . ?
C45 C43 C44 C39 160.1(15) . . . . ?
C40 C39 C44 C43 4.1(19) . . . . ?
C38 C39 C44 C43 -175.0(11) . . . . ?
C42 C43 C45 C46 -41(2) . . . . ?
C44 C43 C45 C46 155.0(17) . . . . ?
C43 C45 C46 C41 45(3) . . . 2_655 ?
Fe5 O36 C47 O35 2.4(18) . . . . ?
Fe5 O36 C47 C48 -176.8(6) . . . . ?
Fe6 O35 C47 O36 0.8(17) . . . . ?
Fe6 O35 C47 C48 179.9(5) . . . . ?
O36 C47 C48 C49 -7.1(17) . . . . ?
O35 C47 C48 C49 173.7(10) . . . . ?
O36 C47 C48 C53 173.4(11) . . . . ?
O35 C47 C48 C53 -5.8(14) . . . . ?
C53 C48 C49 C50 -6.3(19) . . . . ?
C47 C48 C49 C50 174.2(11) . . . . ?
C48 C49 C50 C51 5(2) . . . . ?
C48 C49 C50 C54 173.4(13) . . . . ?
C49 C50 C51 C52 1(2) . . . . ?
C54 C50 C51 C52 -168.9(14) . . . . ?
C49 C50 C51 C32 177.7(10) . . . 2_655 ?
C54 C50 C51 C32 8(2) . . . 2_655 ?
C50 C51 C52 C53 -4(2) . . . . ?
C32 C51 C52 C53 178.7(11) 2_655 . . . ?
C50 C51 C52 C37 -177.9(17) . . . 2_655 ?
C32 C51 C52 C37 5(2) 2_655 . . 2_655 ?
C49 C48 C53 C52 2.6(18) . . . . ?
C47 C48 C53 C52 -177.8(10) . . . . ?
C51 C52 C53 C48 2(2) . . . . ?
C37 C52 C53 C48 176.4(13) 2_655 . . . ?
C51 C50 C54 C35 -31(2) . . . 2_655 ?
C49 C50 C54 C35 160.5(16) . . . 2_655 ?
O10 Fe1 N1 C55 138.2(3) . . . . ?
O1 Fe1 N1 C55 49.6(3) . . . . ?
O26 Fe1 N1 C55 -129.5(4) . . . . ?
O29 Fe1 N1 C55 -42.4(3) . . . . ?
O10 Fe1 N1 C59 -41.7(4) . . . . ?
O1 Fe1 N1 C59 -130.3(4) . . . . ?
O26 Fe1 N1 C59 50.6(4) . . . . ?
O29 Fe1 N1 C59 137.7(4) . . . . ?
C59 N1 C55 C56 0.0 . . . . ?
Fe1 N1 C55 C56 -179.9(4) . . . . ?
N1 C55 C56 C57 0.0 . . . . ?
C55 C56 C57 C58 0.0 . . . . ?
C56 C57 C58 C59 0.0 . . . . ?
C57 C58 C59 N1 0.0 . . . . ?
C55 N1 C59 C58 0.0 . . . . ?
Fe1 N1 C59 C58 179.9(4) . . . . ?
O31 Fe2 N2 C60 -52.5(5) . . . . ?
O2 Fe2 N2 C60 131.0(5) . . . . ?
O5 Fe2 N2 C60 42.7(5) . . . . ?
O30 Fe2 N2 C60 -136.3(5) . . . . ?
O31 Fe2 N2 C64 136.9(6) . . . . ?
O2 Fe2 N2 C64 -39.6(6) . . . . ?
O5 Fe2 N2 C64 -127.9(6) . . . . ?
O30 Fe2 N2 C64 53.1(6) . . . . ?
C64 N2 C60 C61 0.0 . . . . ?
Fe2 N2 C60 C61 -170.7(5) . . . . ?
N2 C60 C61 C62 0.0 . . . . ?
C60 C61 C62 C63 0.0 . . . . ?
C61 C62 C63 C64 0.0 . . . . ?
C62 C63 C64 N2 0.0 . . . . ?
C60 N2 C64 C63 0.0 . . . . ?
Fe2 N2 C64 C63 170.4(6) . . . . ?
O6 Fe3 N3 C65 135.3(4) . . . . ?
O9 Fe3 N3 C65 44.8(4) . . . . ?
O25 Fe3 N3 C65 -48.3(4) . . . . ?
O32 Fe3 N3 C65 -134.9(4) . . . . ?
O6 Fe3 N3 C69 -46.6(4) . . . . ?
O9 Fe3 N3 C69 -137.2(4) . . . . ?
O25 Fe3 N3 C69 129.7(4) . . . . ?
O32 Fe3 N3 C69 43.1(4) . . . . ?
C69 N3 C65 C66 0.0 . . . . ?
Fe3 N3 C65 C66 178.0(4) . . . . ?
N3 C65 C66 C67 0.0 . . . . ?
C65 C66 C67 C68 0.0 . . . . ?
C66 C67 C68 C69 0.0 . . . . ?
C67 C68 C69 N3 0.0 . . . . ?
C65 N3 C69 C68 0.0 . . . . ?
Fe3 N3 C69 C68 -178.0(4) . . . . ?
O13 Fe4 N4 C70 -129.4(4) . . . . ?
O22 Fe4 N4 C70 -40.7(4) . . . . ?
O33 Fe4 N4 C70 139.0(4) . . . . ?
O28 Fe4 N4 C70 52.4(4) . . . . ?
O13 Fe4 N4 C74 45.7(4) . . . . ?
O22 Fe4 N4 C74 134.5(4) . . . . ?
O33 Fe4 N4 C74 -45.8(4) . . . . ?
O28 Fe4 N4 C74 -132.4(4) . . . . ?
C74 N4 C70 C71 0.0 . . . . ?
Fe4 N4 C70 C71 175.2(4) . . . . ?
N4 C70 C71 C72 0.0 . . . . ?
C70 C71 C72 C73 0.0 . . . . ?
C71 C72 C73 C74 0.0 . . . . ?
C72 C73 C74 N4 0.0 . . . . ?
C70 N4 C74 C73 0.0 . . . . ?
Fe4 N4 C74 C73 -175.1(4) . . . . ?
O18 Fe5 N5 C75 -46.3(4) . . . . ?
O21 Fe5 N5 C75 -133.1(4) . . . . ?
O36 Fe5 N5 C75 47.2(4) . . . . ?
O27 Fe5 N5 C75 134.2(4) . . . . ?
O18 Fe5 N5 C79 131.2(4) . . . . ?
O21 Fe5 N5 C79 44.3(4) . . . . ?
O36 Fe5 N5 C79 -135.4(4) . . . . ?
O27 Fe5 N5 C79 -48.4(4) . . . . ?
C79 N5 C75 C76 0.0 . . . . ?
Fe5 N5 C75 C76 177.4(4) . . . . ?
N5 C75 C76 C77 0.0 . . . . ?
C75 C76 C77 C78 0.0 . . . . ?
C76 C77 C78 C79 0.0 . . . . ?
C77 C78 C79 N5 0.0 . . . . ?
C75 N5 C79 C78 0.0 . . . . ?
Fe5 N5 C79 C78 -177.4(4) . . . . ?
O14 Fe6 N6 C80 -48.9(4) . . . . ?
O34 Fe6 N6 C80 43.7(4) . . . . ?
O17 Fe6 N6 C80 -138.4(4) . . . . ?
O35 Fe6 N6 C80 129.6(4) . . . . ?
O14 Fe6 N6 C84 133.1(4) . . . . ?
O34 Fe6 N6 C84 -134.2(4) . . . . ?
O17 Fe6 N6 C84 43.7(4) . . . . ?
O35 Fe6 N6 C84 -48.3(4) . . . . ?
C84 N6 C80 C81 0.0 . . . . ?
Fe6 N6 C80 C81 -177.9(4) . . . . ?
N6 C80 C81 C82 0.0 . . . . ?
C80 C81 C82 C83 0.0 . . . . ?
C81 C82 C83 C84 0.0 . . . . ?
C82 C83 C84 N6 0.0 . . . . ?
C80 N6 C84 C83 0.0 . . . . ?
Fe6 N6 C84 C83 178.0(4) . . . . ?

_diffrn_measured_fraction_theta_max 0.993
_diffrn_reflns_theta_full        24.71
_diffrn_measured_fraction_theta_full 0.993
_refine_diff_density_max         0.398
_refine_diff_density_min         -0.442
_refine_diff_density_rms         0.075
