####################################################################### 
# 
# This file contains crystal structure data downloaded from the 
# Cambridge Structural Database (CSD) hosted by the Cambridge 
# Crystallographic Data Centre (CCDC).
# 
# Full information about CCDC data access policies and citation 
# guidelines are available at http://www.ccdc.cam.ac.uk/access/V1 
# 
# Audit and citation data items may have been added by the CCDC. 
# Please retain this information to preserve the provenance of 
# this file and to allow appropriate attribution of the data. 
# 
#######################################################################

data_PCN-88'
_audit_block_doi                 10.5517/ccy428d
_database_code_depnum_ccdc_archive 'CCDC 867853'
loop_
_citation_id
_citation_doi
_citation_year
1 10.1038/ncomms2552 2013
_audit_update_record             
;
2012-02-20 deposited with the CCDC.	2019-02-14 downloaded from the CCDC.
;
#TrackingRef '5-PCN-88.cif'


_audit_creation_method           SHELXL-97
_chemical_name_systematic        
;
?
;
_chemical_name_common            ?
_chemical_melting_point          ?
_chemical_formula_moiety         'C80 H38 Cu6 N O29'
_chemical_formula_sum            'C80 H38 Cu6 N O29'
_chemical_formula_weight         1858.35

loop_
_atom_type_symbol
_atom_type_description
_atom_type_scat_dispersion_real
_atom_type_scat_dispersion_imag
_atom_type_scat_source
C C 0.0033 0.0016 'International Tables Vol C Tables 4.2.6.8 and 6.1.1.4'
H H 0.0000 0.0000 'International Tables Vol C Tables 4.2.6.8 and 6.1.1.4'
Cu Cu 0.3201 1.2651 'International Tables Vol C Tables 4.2.6.8 and 6.1.1.4'
N N 0.0061 0.0033 'International Tables Vol C Tables 4.2.6.8 and 6.1.1.4'
O O 0.0106 0.0060 'International Tables Vol C Tables 4.2.6.8 and 6.1.1.4'

_symmetry_cell_setting           Orthorhombic
_symmetry_space_group_name_H-M   Imm2
_symmetry_Hall_group_name_H-M    'I 2 -2'

loop_
_symmetry_equiv_pos_as_xyz
'x, y, z'
'-x, -y, z'
'-x, y, z'
'x, -y, z'
'x+1/2, y+1/2, z+1/2'
'-x+1/2, -y+1/2, z+1/2'
'-x+1/2, y+1/2, z+1/2'
'x+1/2, -y+1/2, z+1/2'

_cell_length_a                   27.50(3)
_cell_length_b                   36.65(4)
_cell_length_c                   18.50(2)
_cell_angle_alpha                90.00
_cell_angle_beta                 90.00
_cell_angle_gamma                90.00
_cell_volume                     18646(35)
_cell_formula_units_Z            4
_cell_measurement_temperature    110(2)
_cell_measurement_reflns_used    4664
_cell_measurement_theta_min      2.223
_cell_measurement_theta_max      20.389

_exptl_crystal_description       Plate
_exptl_crystal_colour            Blue
_exptl_crystal_size_max          0.42
_exptl_crystal_size_mid          0.38
_exptl_crystal_size_min          0.06
_exptl_crystal_density_meas      ?
_exptl_crystal_density_diffrn    0.662
_exptl_crystal_density_method    'not measured'
_exptl_crystal_F_000             3724
_exptl_absorpt_coefficient_mu    0.708
_exptl_absorpt_correction_type   Multi-Scan
_exptl_absorpt_correction_T_min  0.7554
_exptl_absorpt_correction_T_max  0.9588
_exptl_absorpt_process_details   SADABS

_exptl_special_details           
;
?
;

_diffrn_ambient_temperature      110(2)
_diffrn_radiation_wavelength     0.71073
_diffrn_radiation_type           MoK\a
_diffrn_radiation_source         'fine-focus sealed tube'
_diffrn_radiation_monochromator  graphite
_diffrn_measurement_device_type  'BRUKER APEX-II CCD'
_diffrn_measurement_method       'phi and omega scans'
_diffrn_detector_area_resol_mean ?
_diffrn_reflns_number            85054
_diffrn_reflns_av_R_equivalents  0.1980
_diffrn_reflns_av_sigmaI/netI    0.2000
_diffrn_reflns_limit_h_min       -33
_diffrn_reflns_limit_h_max       32
_diffrn_reflns_limit_k_min       -43
_diffrn_reflns_limit_k_max       43
_diffrn_reflns_limit_l_min       -21
_diffrn_reflns_limit_l_max       22
_diffrn_reflns_theta_min         1.73
_diffrn_reflns_theta_max         25.35
_reflns_number_total             17354
_reflns_number_gt                6477
_reflns_threshold_expression     I>2sigma(I)

_computing_data_collection       'Bruker APEX-II'
_computing_cell_refinement       'Bruker SAINT'
_computing_data_reduction        'Bruker SAINT'
_computing_structure_solution    'SHELXS-97 (Sheldrick, 2008)'
_computing_structure_refinement  'SHELXL-97 (Sheldrick, 2008)'
_computing_molecular_graphics    'Bruker SHELXTL'
_computing_publication_material  'Bruker SHELXTL'

_refine_special_details          
;
Refinement of F^2^ against ALL reflections. The weighted R-factor wR and
goodness of fit S are based on F^2^, conventional R-factors R are based
on F, with F set to zero for negative F^2^. The threshold expression of
F^2^ > 2sigma(F^2^) is used only for calculating R-factors(gt) etc. and is
not relevant to the choice of reflections for refinement. R-factors based
on F^2^ are statistically about twice as large as those based on F, and R-
factors based on ALL data will be even larger.
;

_refine_ls_structure_factor_coef Fsqd
_refine_ls_matrix_type           full
_refine_ls_weighting_scheme      calc
_refine_ls_weighting_details     
'calc w=1/[\s^2^(Fo^2^)+(0.1034P)^2^+0.0000P] where P=(Fo^2^+2Fc^2^)/3'
_atom_sites_solution_primary     direct
_atom_sites_solution_secondary   difmap
_atom_sites_solution_hydrogens   geom
_refine_ls_hydrogen_treatment    constr
_refine_ls_extinction_method     none
_refine_ls_extinction_coef       ?
_refine_ls_abs_structure_details 'Flack H D (1983), Acta Cryst. A39, 876-881'
_refine_ls_abs_structure_Flack   0.467(10)
_refine_ls_number_reflns         17354
_refine_ls_number_parameters     472
_refine_ls_number_restraints     82
_refine_ls_R_factor_all          0.1544
_refine_ls_R_factor_gt           0.0816
_refine_ls_wR_factor_ref         0.2165
_refine_ls_wR_factor_gt          0.1897
_refine_ls_goodness_of_fit_ref   0.811
_refine_ls_restrained_S_all      0.814
_refine_ls_shift/su_max          0.080
_refine_ls_shift/su_mean         0.005

loop_
_atom_site_label
_atom_site_type_symbol
_atom_site_fract_x
_atom_site_fract_y
_atom_site_fract_z
_atom_site_U_iso_or_equiv
_atom_site_adp_type
_atom_site_occupancy
_atom_site_symmetry_multiplicity
_atom_site_calc_flag
_atom_site_refinement_flags
_atom_site_disorder_assembly
_atom_site_disorder_group
Cu1 Cu 0.0000 0.170572(15) 0.89128(5) 0.0617(2) Uani 1 2 d S . .
Cu2 Cu 0.0000 0.098254(14) 0.88896(4) 0.04209(16) Uani 1 2 d S . .
Cu3 Cu 0.211830(17) 0.267443(14) 1.12196(3) 0.09187(19) Uani 1 1 d . . .
Cu4 Cu 0.273642(17) 0.225969(15) 1.19724(3) 0.08630(18) Uani 1 1 d . . .
O1 O 0.24024(10) 0.19441(8) 0.6318(2) 0.1298(13) Uani 1 1 d . . .
O2 O 0.18555(8) 0.23015(7) 0.69804(17) 0.0900(10) Uani 1 1 d . . .
O3 O 0.05028(8) 0.10342(7) 0.81603(12) 0.0609(9) Uani 1 1 d D . .
O4 O 0.04971(8) 0.16455(6) 0.81756(12) 0.0553(8) Uani 1 1 d D . .
O5 O 0.04984(8) 0.10451(6) 0.96629(14) 0.0624(9) Uani 1 1 d D . .
O6 O 0.05026(9) 0.16528(6) 0.96680(16) 0.0774(10) Uani 1 1 d D . .
O7 O 0.22137(9) 0.19132(8) 1.18537(17) 0.1143(11) Uani 1 1 d D . .
O8 O 0.16984(8) 0.22392(7) 1.1226(2) 0.1077(11) Uani 1 1 d D . .
O9 O 0.19029(10) 0.28119(7) 1.21578(17) 0.1037(11) Uani 1 1 d D . .
O10 O 0.24125(9) 0.24484(9) 1.28237(16) 0.0988(11) Uani 1 1 d D . .
O11 O 0.20383(9) 0.28412(9) 1.61249(16) 0.1270(12) Uani 1 1 d D . .
O12 O 0.25401(10) 0.25395(8) 1.53886(16) 0.0990(11) Uani 1 1 d D . .
O13 O 0.0000 0.22867(10) 0.8948(4) 0.134(2) Uani 1 2 d S . .
O14 O 0.16314(10) 0.30264(9) 1.0660(2) 0.1235(14) Uani 1 1 d . . .
O15 O 0.32191(11) 0.18762(9) 1.2495(2) 0.1419(16) Uani 1 1 d . . .
N1 N 0.0000 0.03829(7) 0.89203(16) 0.0271(7) Uiso 1 2 d SD . .
C1 C 0.06622(8) 0.13520(9) 0.79735(14) 0.0446(11) Uani 1 1 d D . .
C2 C 0.10494(7) 0.13464(9) 0.74157(12) 0.0759(14) Uani 1 1 d D . .
C3 C 0.13179(10) 0.16495(11) 0.72753(17) 0.0907(17) Uani 1 1 d D . .
H3 H 0.1242 0.1863 0.7542 0.109 Uiso 1 1 calc R . .
C4 C 0.16933(13) 0.16741(11) 0.6777(2) 0.0750(13) Uiso 1 1 d D . .
C5 C 0.17621(18) 0.13506(12) 0.6365(3) 0.1256(19) Uiso 1 1 d D . .
H5 H 0.1985 0.1356 0.5972 0.151 Uiso 1 1 calc R . .
C6 C 0.15162(15) 0.10246(12) 0.6514(3) 0.160(2) Uani 1 1 d D . .
C7 C 0.11632(15) 0.10398(13) 0.7014(2) 0.1026(16) Uiso 1 1 d D . .
H7 H 0.0978 0.0825 0.7097 0.123 Uiso 1 1 calc R . .
C8 C 0.19996(19) 0.19911(16) 0.6638(3) 0.131(2) Uiso 1 1 d D . .
C9 C 0.16763(10) 0.06907(13) 0.6175(2) 0.132(2) Uani 1 1 d D . .
C10 C 0.15944(9) 0.03510(13) 0.6458(2) 0.178(2) Uani 1 1 d D . .
H10 H 0.1450 0.0350 0.6924 0.213 Uiso 1 1 calc R . .
C11 C 0.16898(14) 0.0000 0.6166(3) 0.184(5) Uani 1 2 d SD . .
C12 C 0.1912(2) 0.0000 0.5461(3) 0.112(3) Uani 1 2 d SD . .
C13 C 0.20112(16) 0.03386(12) 0.5128(2) 0.128(2) Uani 1 1 d D . .
H13 H 0.2166 0.0350 0.4670 0.153 Uiso 1 1 calc R . .
C14 C 0.1878(3) 0.06490(18) 0.5485(3) 0.399(4) Uani 1 1 d D . .
H14 H 0.1929 0.0870 0.5226 0.479 Uiso 1 1 calc R . .
C15 C 0.06115(9) 0.13538(10) 0.99139(14) 0.0632(12) Uiso 1 1 d D . .
C16 C 0.09634(6) 0.13429(9) 1.05316(11) 0.0854(15) Uiso 1 1 d D . .
C17 C 0.10219(12) 0.10149(11) 1.09196(16) 0.1049(16) Uani 1 1 d D . .
H17 H 0.0843 0.0805 1.0778 0.126 Uiso 1 1 calc R . .
C18 C 0.13325(17) 0.09939(13) 1.1499(2) 0.1202(19) Uiso 1 1 d D . .
C19 C 0.16137(18) 0.13171(15) 1.1666(3) 0.248(3) Uani 1 1 d D . .
H19 H 0.1854 0.1308 1.2034 0.298 Uiso 1 1 calc R . .
C20 C 0.15336(16) 0.16408(12) 1.1289(3) 0.155(2) Uani 1 1 d D . .
C21 C 0.12035(11) 0.16555(10) 1.0712(2) 0.0789(14) Uani 1 1 d D . .
H21 H 0.1149 0.1876 1.0455 0.095 Uiso 1 1 calc R . .
C22 C 0.18522(14) 0.19575(11) 1.1489(3) 0.125(2) Uani 1 1 d D . .
C23 C 0.13423(10) 0.06567(13) 1.1975(2) 0.1157(18) Uiso 1 1 d D . .
C24 C 0.13877(9) 0.06388(18) 1.2730(3) 0.326(5) Uani 1 1 d D . .
H24 H 0.1400 0.0863 1.2986 0.392 Uiso 1 1 calc R . .
C25 C 0.14156(14) 0.03256(18) 1.3125(3) 0.452(10) Uani 1 1 d D . .
H25 H 0.1448 0.0329 1.3637 0.543 Uiso 1 1 calc R . .
C26 C 0.1394(3) 0.0000 1.2734(4) 0.167(4) Uiso 1 2 d SD . .
C27 C 0.1352(2) 0.0000 1.1973(4) 0.141(3) Uiso 1 2 d SD . .
C28 C 0.13292(19) 0.03236(11) 1.1569(3) 0.216(2) Uani 1 1 d D . .
H28 H 0.1307 0.0322 1.1057 0.259 Uiso 1 1 calc R . .
C29 C 0.21030(9) 0.26989(6) 1.27432(18) 0.0509(10) Uiso 1 1 d D . .
C30 C 0.19376(7) 0.28239(5) 1.3464(3) 0.124(2) Uiso 1 1 d D . .
C31 C 0.15333(12) 0.30619(9) 1.3504(3) 0.128(2) Uani 1 1 d D . .
H31 H 0.1379 0.3132 1.3066 0.154 Uiso 1 1 calc R . .
C32 C 0.13426(11) 0.32032(10) 1.4174(2) 0.0752(15) Uani 1 1 d D . .
C33 C 0.15590(12) 0.31049(11) 1.4818(2) 0.0730(16) Uani 1 1 d D . .
H33 H 0.1447 0.3196 1.5268 0.088 Uiso 1 1 calc R . .
C34 C 0.19521(12) 0.28640(11) 1.4773(2) 0.0781(15) Uani 1 1 d D . .
C35 C 0.21261(14) 0.27412(9) 1.4126(2) 0.0729(13) Uani 1 1 d D . .
H35 H 0.2402 0.2585 1.4137 0.088 Uiso 1 1 calc R . .
C36 C 0.21639(15) 0.27665(12) 1.5503(2) 0.0844(14) Uiso 1 1 d D . .
C37 C 0.08846(14) 0.34261(10) 1.41945(18) 0.193(4) Uani 1 1 d D . .
C38 C 0.04560(11) 0.32850(8) 1.39875(14) 0.0871(15) Uani 1 1 d D . .
H38 H 0.0451 0.3061 1.3731 0.105 Uiso 1 1 calc R . .
C39 C 0.0000 0.34671(12) 1.4146(2) 0.083(2) Uani 1 2 d SD . .
C40 C 0.0000 0.38145(16) 1.4540(3) 0.113(3) Uani 1 2 d SD . .
C41 C 0.04401(14) 0.39605(12) 1.4765(3) 0.135(2) Uani 1 1 d D . .
H41 H 0.0456 0.4181 1.5036 0.162 Uiso 1 1 calc R . .
C42 C 0.08461(16) 0.37724(12) 1.4579(3) 0.115(2) Uani 1 1 d D . .
H42 H 0.1146 0.3881 1.4718 0.138 Uiso 1 1 calc R . .
C43 C 0.0000 0.0209(2) 0.8261(3) 0.222(6) Uiso 1 2 d SD . .
H43 H 0.0000 0.0344 0.7822 0.266 Uiso 1 2 calc SR . .
C44 C 0.0000 0.01805(16) 0.9556(3) 0.130(3) Uiso 1 2 d SD . .
H44 H 0.0000 0.0306 1.0006 0.156 Uiso 1 2 calc SR . .

loop_
_atom_site_aniso_label
_atom_site_aniso_U_11
_atom_site_aniso_U_22
_atom_site_aniso_U_33
_atom_site_aniso_U_23
_atom_site_aniso_U_13
_atom_site_aniso_U_12
Cu1 0.0305(3) 0.0444(4) 0.1102(5) 0.0043(5) 0.000 0.000
Cu2 0.0274(2) 0.0428(3) 0.0560(4) 0.0034(4) 0.000 0.000
Cu3 0.0636(2) 0.0719(3) 0.1401(4) -0.0469(3) -0.0570(3) 0.0156(3)
Cu4 0.0672(3) 0.0687(4) 0.1230(4) -0.0385(3) -0.0516(3) 0.0145(3)
O1 0.0937(17) 0.090(2) 0.206(3) 0.015(2) 0.1053(19) 0.0159(17)
O2 0.0741(14) 0.0615(17) 0.134(2) 0.0309(17) 0.0473(17) -0.0352(13)
O3 0.0371(12) 0.0783(19) 0.0673(16) 0.0373(14) 0.0067(12) -0.0029(13)
O4 0.0434(12) 0.0611(18) 0.0613(16) 0.0090(14) 0.0162(12) 0.0036(12)
O5 0.0527(14) 0.0303(15) 0.104(2) 0.0007(15) -0.0295(14) -0.0222(12)
O6 0.0506(14) 0.0311(16) 0.151(3) -0.0250(17) -0.0193(17) 0.0111(12)
O7 0.0760(16) 0.085(2) 0.181(3) -0.0784(19) -0.0842(17) 0.0155(15)
O8 0.0617(13) 0.0503(18) 0.211(3) -0.020(2) -0.0853(18) 0.0035(13)
O9 0.1005(18) 0.0797(19) 0.131(2) -0.0697(18) -0.0384(18) 0.0454(16)
O10 0.0600(15) 0.123(2) 0.113(2) -0.0577(19) -0.0369(16) 0.0431(16)
O11 0.0562(15) 0.217(3) 0.107(2) -0.114(2) 0.0422(15) -0.0476(18)
O12 0.1024(19) 0.082(2) 0.112(2) 0.0349(18) 0.0652(17) 0.0408(17)
O13 0.151(4) 0.042(2) 0.210(5) -0.025(4) 0.000 0.000
O14 0.0789(19) 0.103(3) 0.188(3) 0.014(2) -0.061(2) 0.0143(18)
O15 0.093(2) 0.097(3) 0.236(4) -0.030(3) -0.079(2) 0.0265(19)
C1 0.0117(13) 0.059(2) 0.063(2) 0.035(2) 0.0143(14) -0.0037(15)
C2 0.0387(18) 0.083(3) 0.106(3) 0.069(2) 0.0355(19) 0.0026(19)
C3 0.064(2) 0.107(4) 0.101(3) 0.016(3) 0.051(2) 0.034(2)
C6 0.163(3) 0.100(4) 0.215(4) -0.060(3) 0.160(3) -0.063(3)
C9 0.116(3) 0.188(5) 0.093(3) 0.050(3) 0.066(3) -0.048(3)
C10 0.248(5) 0.133(5) 0.153(4) 0.059(4) 0.166(3) 0.040(4)
C11 0.113(6) 0.380(15) 0.059(5) 0.000 0.040(5) 0.000
C12 0.125(5) 0.148(7) 0.063(4) 0.000 0.031(4) 0.000
C13 0.092(3) 0.189(5) 0.102(3) 0.107(3) 0.029(3) 0.006(3)
C14 0.793(11) 0.126(7) 0.277(5) -0.034(5) 0.425(5) -0.083(7)
C17 0.160(3) 0.088(3) 0.066(2) -0.055(2) -0.087(2) 0.075(3)
C19 0.189(4) 0.380(8) 0.175(5) -0.109(5) -0.086(4) -0.156(4)
C20 0.101(3) 0.171(4) 0.193(4) -0.162(3) -0.030(3) -0.002(3)
C21 0.039(2) 0.061(2) 0.137(3) -0.076(2) -0.023(2) 0.0060(18)
C22 0.101(3) 0.057(3) 0.216(5) -0.062(3) -0.094(3) -0.006(2)
C24 0.656(14) 0.203(8) 0.121(4) -0.079(4) -0.207(6) -0.035(9)
C25 1.01(3) 0.259(11) 0.086(5) 0.025(6) -0.172(10) -0.067(15)
C28 0.421(5) 0.062(3) 0.165(3) 0.027(3) -0.238(3) -0.099(4)
C31 0.079(3) 0.069(3) 0.237(5) -0.081(3) -0.069(3) 0.011(2)
C32 0.045(2) 0.065(3) 0.116(4) -0.022(3) 0.025(2) -0.0336(18)
C33 0.049(2) 0.080(3) 0.089(3) 0.003(3) 0.010(2) -0.003(2)
C34 0.047(2) 0.072(3) 0.115(3) -0.019(3) 0.027(2) -0.022(2)
C35 0.109(3) 0.048(2) 0.061(2) -0.002(2) -0.027(2) -0.045(2)
C37 0.053(3) 0.062(3) 0.465(11) -0.059(6) 0.003(5) 0.007(2)
C38 0.0478(19) 0.086(3) 0.128(3) -0.020(4) 0.017(3) -0.014(2)
C39 0.046(3) 0.066(4) 0.135(6) -0.022(4) 0.000 0.000
C40 0.146(6) 0.100(5) 0.093(5) -0.070(4) 0.000 0.000
C41 0.085(3) 0.059(3) 0.260(6) -0.063(3) -0.084(3) -0.012(3)
C42 0.066(3) 0.087(4) 0.193(5) 0.047(4) -0.015(3) 0.011(3)

_geom_special_details            
;
All esds (except the esd in the dihedral angle between two l.s. planes)
are estimated using the full covariance matrix. The cell esds are taken
into account individually in the estimation of esds in distances, angles
and torsion angles; correlations between esds in cell parameters are only
used when they are defined by crystal symmetry. An approximate (isotropic)
treatment of cell esds is used for estimating esds involving l.s. planes.
;

loop_
_geom_bond_atom_site_label_1
_geom_bond_atom_site_label_2
_geom_bond_distance
_geom_bond_site_symmetry_2
_geom_bond_publ_flag
Cu1 O4 1.944(3) 3 ?
Cu1 O4 1.944(3) . ?
Cu1 O6 1.975(3) 3 ?
Cu1 O6 1.975(3) . ?
Cu1 O13 2.130(4) . ?
Cu1 Cu2 2.651(3) . ?
Cu2 O3 1.941(3) 3 ?
Cu2 O3 1.941(3) . ?
Cu2 O5 1.994(3) 3 ?
Cu2 O5 1.994(3) . ?
Cu2 N1 2.199(4) . ?
Cu3 O9 1.902(4) . ?
Cu3 O1 1.930(3) 6 ?
Cu3 O12 1.965(3) 6_554 ?
Cu3 O8 1.969(3) . ?
Cu3 O14 2.128(3) . ?
Cu3 Cu4 2.6720(18) . ?
Cu4 O11 1.726(3) 6_554 ?
Cu4 O7 1.931(3) . ?
Cu4 O10 1.937(3) . ?
Cu4 O2 1.961(3) 6 ?
Cu4 O15 2.161(4) . ?
O1 C8 1.268(6) . ?
O1 Cu3 1.930(3) 6_554 ?
O2 C8 1.361(6) . ?
O2 Cu4 1.961(3) 6_554 ?
O3 C1 1.292(4) . ?
O4 C1 1.226(4) . ?
O5 C15 1.262(4) . ?
O6 C15 1.224(4) . ?
O7 C22 1.213(5) . ?
O8 C22 1.217(5) . ?
O9 C29 1.283(4) . ?
O10 C29 1.261(4) . ?
O11 C36 1.232(5) . ?
O11 Cu4 1.726(3) 6 ?
O12 C36 1.344(5) . ?
O12 Cu3 1.965(3) 6 ?
N1 C43 1.375(6) . ?
N1 C44 1.390(5) . ?
C1 C2 1.483(3) . ?
C2 C3 1.359(5) . ?
C2 C7 1.384(5) . ?
C3 C4 1.387(5) . ?
C3 H3 0.9500 . ?
C4 C5 1.422(6) . ?
C4 C8 1.458(6) . ?
C5 C6 1.400(6) . ?
C5 H5 0.9500 . ?
C6 C7 1.341(6) . ?
C6 C9 1.444(6) . ?
C7 H7 0.9500 . ?
C9 C10 1.369(6) . ?
C9 C14 1.401(7) . ?
C10 C11 1.419(5) . ?
C10 H10 0.9500 . ?
C11 C10 1.419(5) 4 ?
C11 C12 1.441(7) . ?
C12 C13 1.412(5) 4 ?
C12 C13 1.412(5) . ?
C13 C14 1.366(7) . ?
C13 H13 0.9500 . ?
C14 H14 0.9500 . ?
C15 C16 1.498(3) . ?
C16 C21 1.364(4) . ?
C16 C17 1.409(5) . ?
C17 C18 1.372(5) . ?
C17 H17 0.9500 . ?
C18 C19 1.448(7) . ?
C18 C23 1.518(6) . ?
C19 C20 1.393(7) . ?
C19 H19 0.9500 . ?
C20 C21 1.402(6) . ?
C20 C22 1.500(6) . ?
C21 H21 0.9500 . ?
C23 C24 1.403(6) . ?
C23 C28 1.433(6) . ?
C24 C25 1.364(8) . ?
C24 H24 0.9500 . ?
C25 C26 1.397(7) . ?
C25 H25 0.9500 . ?
C26 C25 1.397(7) 4 ?
C26 C27 1.412(9) . ?
C27 C28 1.404(6) 4 ?
C27 C28 1.404(6) . ?
C28 H28 0.9500 . ?
C29 C30 1.482(5) . ?
C30 C35 1.363(6) . ?
C30 C31 1.415(4) . ?
C31 C32 1.443(6) . ?
C31 H31 0.9500 . ?
C32 C33 1.378(5) . ?
C32 C37 1.501(5) . ?
C33 C34 1.398(5) . ?
C33 H33 0.9500 . ?
C34 C35 1.366(5) . ?
C34 C36 1.514(6) . ?
C35 H35 0.9500 . ?
C37 C38 1.343(5) . ?
C37 C42 1.459(6) . ?
C38 C39 1.450(4) . ?
C38 H38 0.9500 . ?
C39 C38 1.450(4) 3 ?
C39 C40 1.467(7) . ?
C40 C41 1.387(5) 3 ?
C40 C41 1.387(5) . ?
C41 C42 1.357(6) . ?
C41 H41 0.9500 . ?
C42 H42 0.9500 . ?
C43 C43 1.535(16) 2 ?
C43 H43 0.9500 . ?
C44 C44 1.323(12) 2 ?
C44 H44 0.9500 . ?

loop_
_geom_angle_atom_site_label_1
_geom_angle_atom_site_label_2
_geom_angle_atom_site_label_3
_geom_angle
_geom_angle_site_symmetry_1
_geom_angle_site_symmetry_3
_geom_angle_publ_flag
O4 Cu1 O4 89.39(16) 3 . ?
O4 Cu1 O6 89.60(13) 3 3 ?
O4 Cu1 O6 167.84(10) . 3 ?
O4 Cu1 O6 167.84(10) 3 . ?
O4 Cu1 O6 89.60(13) . . ?
O6 Cu1 O6 88.84(18) 3 . ?
O4 Cu1 O13 97.76(16) 3 . ?
O4 Cu1 O13 97.77(16) . . ?
O6 Cu1 O13 94.38(16) 3 . ?
O6 Cu1 O13 94.39(16) . . ?
O4 Cu1 Cu2 82.83(7) 3 . ?
O4 Cu1 Cu2 82.82(7) . . ?
O6 Cu1 Cu2 85.02(7) 3 . ?
O6 Cu1 Cu2 85.02(7) . . ?
O13 Cu1 Cu2 179.2(2) . . ?
O3 Cu2 O3 90.84(16) 3 . ?
O3 Cu2 O5 89.87(13) 3 3 ?
O3 Cu2 O5 167.65(10) . 3 ?
O3 Cu2 O5 167.65(10) 3 . ?
O3 Cu2 O5 89.88(13) . . ?
O5 Cu2 O5 86.82(17) 3 . ?
O3 Cu2 N1 96.63(9) 3 . ?
O3 Cu2 N1 96.63(9) . . ?
O5 Cu2 N1 95.53(9) 3 . ?
O5 Cu2 N1 95.53(9) . . ?
O3 Cu2 Cu1 85.05(8) 3 . ?
O3 Cu2 Cu1 85.05(8) . . ?
O5 Cu2 Cu1 82.73(7) 3 . ?
O5 Cu2 Cu1 82.73(7) . . ?
N1 Cu2 Cu1 177.59(8) . . ?
O9 Cu3 O1 86.28(14) . 6 ?
O9 Cu3 O12 165.62(12) . 6_554 ?
O1 Cu3 O12 92.07(15) 6 6_554 ?
O9 Cu3 O8 91.51(14) . . ?
O1 Cu3 O8 170.63(13) 6 . ?
O12 Cu3 O8 87.81(14) 6_554 . ?
O9 Cu3 O14 95.00(14) . . ?
O1 Cu3 O14 92.08(15) 6 . ?
O12 Cu3 O14 99.34(15) 6_554 . ?
O8 Cu3 O14 97.18(14) . . ?
O9 Cu3 Cu4 82.71(11) . . ?
O1 Cu3 Cu4 85.91(12) 6 . ?
O12 Cu3 Cu4 82.92(11) 6_554 . ?
O8 Cu3 Cu4 84.78(11) . . ?
O14 Cu3 Cu4 177.04(10) . . ?
O11 Cu4 O7 91.32(14) 6_554 . ?
O11 Cu4 O10 168.56(14) 6_554 . ?
O7 Cu4 O10 89.14(13) . . ?
O11 Cu4 O2 88.69(14) 6_554 6 ?
O7 Cu4 O2 165.09(12) . 6 ?
O10 Cu4 O2 87.95(13) . 6 ?
O11 Cu4 O15 92.67(16) 6_554 . ?
O7 Cu4 O15 94.62(15) . . ?
O10 Cu4 O15 98.69(15) . . ?
O2 Cu4 O15 100.27(14) 6 . ?
O11 Cu4 Cu3 82.92(12) 6_554 . ?
O7 Cu4 Cu3 80.86(11) . . ?
O10 Cu4 Cu3 85.88(11) . . ?
O2 Cu4 Cu3 84.35(11) 6 . ?
O15 Cu4 Cu3 173.57(10) . . ?
C8 O1 Cu3 122.8(3) . 6_554 ?
C8 O2 Cu4 121.0(3) . 6_554 ?
C1 O3 Cu2 121.0(2) . . ?
C1 O4 Cu1 125.0(2) . . ?
C15 O5 Cu2 122.4(2) . . ?
C15 O6 Cu1 121.5(2) . . ?
C22 O7 Cu4 125.9(3) . . ?
C22 O8 Cu3 119.1(3) . . ?
C29 O9 Cu3 123.4(2) . . ?
C29 O10 Cu4 118.3(2) . . ?
C36 O11 Cu4 134.5(3) . 6 ?
C36 O12 Cu3 119.5(3) . 6 ?
C43 N1 C44 120.2(4) . . ?
C43 N1 Cu2 116.1(4) . . ?
C44 N1 Cu2 123.7(3) . . ?
O4 C1 O3 125.7(3) . . ?
O4 C1 C2 119.3(3) . . ?
O3 C1 C2 114.7(3) . . ?
C3 C2 C7 116.0(3) . . ?
C3 C2 C1 120.8(3) . . ?
C7 C2 C1 123.2(3) . . ?
C2 C3 C4 125.8(3) . . ?
C2 C3 H3 117.1 . . ?
C4 C3 H3 117.1 . . ?
C3 C4 C5 113.6(4) . . ?
C3 C4 C8 126.8(4) . . ?
C5 C4 C8 119.6(4) . . ?
C6 C5 C4 122.8(4) . . ?
C6 C5 H5 118.6 . . ?
C4 C5 H5 118.6 . . ?
C7 C6 C5 116.7(4) . . ?
C7 C6 C9 123.7(4) . . ?
C5 C6 C9 119.4(4) . . ?
C6 C7 C2 124.6(4) . . ?
C6 C7 H7 117.7 . . ?
C2 C7 H7 117.7 . . ?
O1 C8 O2 125.8(5) . . ?
O1 C8 C4 118.6(5) . . ?
O2 C8 C4 114.6(4) . . ?
C10 C9 C14 108.3(4) . . ?
C10 C9 C6 123.7(4) . . ?
C14 C9 C6 127.5(5) . . ?
C9 C10 C11 130.5(4) . . ?
C9 C10 H10 114.8 . . ?
C11 C10 H10 114.8 . . ?
C10 C11 C10 130.0(5) 4 . ?
C10 C11 C12 115.0(2) 4 . ?
C10 C11 C12 115.0(2) . . ?
C13 C12 C13 123.1(6) 4 . ?
C13 C12 C11 118.5(3) 4 . ?
C13 C12 C11 118.5(3) . . ?
C14 C13 C12 118.0(5) . . ?
C14 C13 H13 121.0 . . ?
C12 C13 H13 121.0 . . ?
C13 C14 C9 129.6(6) . . ?
C13 C14 H14 115.2 . . ?
C9 C14 H14 115.2 . . ?
O6 C15 O5 127.3(3) . . ?
O6 C15 C16 117.8(3) . . ?
O5 C15 C16 114.6(3) . . ?
C21 C16 C17 122.5(3) . . ?
C21 C16 C15 118.5(3) . . ?
C17 C16 C15 119.0(3) . . ?
C18 C17 C16 121.1(4) . . ?
C18 C17 H17 119.4 . . ?
C16 C17 H17 119.4 . . ?
C17 C18 C19 116.9(4) . . ?
C17 C18 C23 120.7(4) . . ?
C19 C18 C23 122.2(4) . . ?
C20 C19 C18 120.3(5) . . ?
C20 C19 H19 119.8 . . ?
C18 C19 H19 119.8 . . ?
C19 C20 C21 121.1(4) . . ?
C19 C20 C22 116.3(4) . . ?
C21 C20 C22 122.4(4) . . ?
C16 C21 C20 117.9(3) . . ?
C16 C21 H21 121.1 . . ?
C20 C21 H21 121.1 . . ?
O7 C22 O8 128.4(4) . . ?
O7 C22 C20 120.8(4) . . ?
O8 C22 C20 110.8(4) . . ?
C24 C23 C28 118.9(5) . . ?
C24 C23 C18 128.1(5) . . ?
C28 C23 C18 112.9(4) . . ?
C25 C24 C23 125.3(6) . . ?
C25 C24 H24 117.3 . . ?
C23 C24 H24 117.3 . . ?
C24 C25 C26 116.0(6) . . ?
C24 C25 H25 122.0 . . ?
C26 C25 H25 122.0 . . ?
C25 C26 C25 117.3(7) 4 . ?
C25 C26 C27 121.3(4) 4 . ?
C25 C26 C27 121.3(4) . . ?
C28 C27 C28 115.4(6) 4 . ?
C28 C27 C26 122.3(3) 4 . ?
C28 C27 C26 122.3(3) . . ?
C27 C28 C23 116.1(4) . . ?
C27 C28 H28 122.0 . . ?
C23 C28 H28 122.0 . . ?
O10 C29 O9 128.6(3) . . ?
O10 C29 C30 109.0(3) . . ?
O9 C29 C30 121.9(3) . . ?
C35 C30 C31 112.9(4) . . ?
C35 C30 C29 128.5(2) . . ?
C31 C30 C29 118.6(4) . . ?
C30 C31 C32 123.5(4) . . ?
C30 C31 H31 118.3 . . ?
C32 C31 H31 118.3 . . ?
C33 C32 C31 119.4(3) . . ?
C33 C32 C37 118.9(3) . . ?
C31 C32 C37 121.4(3) . . ?
C32 C33 C34 116.6(4) . . ?
C32 C33 H33 121.7 . . ?
C34 C33 H33 121.7 . . ?
C35 C34 C33 122.1(4) . . ?
C35 C34 C36 124.7(4) . . ?
C33 C34 C36 113.2(4) . . ?
C30 C35 C34 125.5(4) . . ?
C30 C35 H35 117.2 . . ?
C34 C35 H35 117.3 . . ?
O11 C36 O12 120.0(4) . . ?
O11 C36 C34 132.3(4) . . ?
O12 C36 C34 107.6(3) . . ?
C38 C37 C42 114.2(3) . . ?
C38 C37 C32 121.3(3) . . ?
C42 C37 C32 123.1(3) . . ?
C37 C38 C39 121.6(3) . . ?
C37 C38 H38 119.2 . . ?
C39 C38 H38 119.2 . . ?
C38 C39 C38 119.7(4) . 3 ?
C38 C39 C40 120.0(2) . . ?
C38 C39 C40 120.0(2) 3 . ?
C41 C40 C41 121.5(6) 3 . ?
C41 C40 C39 118.9(3) 3 . ?
C41 C40 C39 118.9(3) . . ?
C42 C41 C40 116.5(4) . . ?
C42 C41 H41 121.8 . . ?
C40 C41 H41 121.8 . . ?
C41 C42 C37 128.7(4) . . ?
C41 C42 H42 115.6 . . ?
C37 C42 H42 115.6 . . ?
N1 C43 C43 117.6(3) . 2 ?
N1 C43 H43 121.2 . . ?
C43 C43 H43 121.2 2 . ?
C44 C44 N1 122.2(3) 2 . ?
C44 C44 H44 118.9 2 . ?
N1 C44 H44 118.9 . . ?

loop_
_geom_torsion_atom_site_label_1
_geom_torsion_atom_site_label_2
_geom_torsion_atom_site_label_3
_geom_torsion_atom_site_label_4
_geom_torsion
_geom_torsion_site_symmetry_1
_geom_torsion_site_symmetry_2
_geom_torsion_site_symmetry_3
_geom_torsion_site_symmetry_4
_geom_torsion_publ_flag
O4 Cu1 Cu2 O3 -0.50(9) 3 . . 3 ?
O4 Cu1 Cu2 O3 -90.78(13) . . . 3 ?
O6 Cu1 Cu2 O3 89.72(14) 3 . . 3 ?
O6 Cu1 Cu2 O3 178.99(11) . . . 3 ?
O13 Cu1 Cu2 O3 134.36(8) . . . 3 ?
O4 Cu1 Cu2 O3 90.78(13) 3 . . . ?
O4 Cu1 Cu2 O3 0.49(9) . . . . ?
O6 Cu1 Cu2 O3 -179.00(11) 3 . . . ?
O6 Cu1 Cu2 O3 -89.73(14) . . . . ?
O13 Cu1 Cu2 O3 -134.36(8) . . . . ?
O4 Cu1 Cu2 O5 -91.00(13) 3 . . 3 ?
O4 Cu1 Cu2 O5 178.71(10) . . . 3 ?
O6 Cu1 Cu2 O5 -0.78(11) 3 . . 3 ?
O6 Cu1 Cu2 O5 88.49(14) . . . 3 ?
O13 Cu1 Cu2 O5 43.85(8) . . . 3 ?
O4 Cu1 Cu2 O5 -178.71(10) 3 . . . ?
O4 Cu1 Cu2 O5 91.00(13) . . . . ?
O6 Cu1 Cu2 O5 -88.49(14) 3 . . . ?
O6 Cu1 Cu2 O5 0.78(11) . . . . ?
O13 Cu1 Cu2 O5 -43.85(9) . . . . ?
O4 Cu1 Cu2 N1 -134.86(8) 3 . . . ?
O4 Cu1 Cu2 N1 134.86(8) . . . . ?
O6 Cu1 Cu2 N1 -44.63(9) 3 . . . ?
O6 Cu1 Cu2 N1 44.63(9) . . . . ?
O13 Cu1 Cu2 N1 0.000(14) . . . . ?
O9 Cu3 Cu4 O11 -175.99(14) . . . 6_554 ?
O1 Cu3 Cu4 O11 -89.22(16) 6 . . 6_554 ?
O12 Cu3 Cu4 O11 3.38(13) 6_554 . . 6_554 ?
O8 Cu3 Cu4 O11 91.81(15) . . . 6_554 ?
O14 Cu3 Cu4 O11 -136.5(19) . . . 6_554 ?
O9 Cu3 Cu4 O7 91.52(13) . . . . ?
O1 Cu3 Cu4 O7 178.29(15) 6 . . . ?
O12 Cu3 Cu4 O7 -89.11(13) 6_554 . . . ?
O8 Cu3 Cu4 O7 -0.68(14) . . . . ?
O14 Cu3 Cu4 O7 131.0(18) . . . . ?
O9 Cu3 Cu4 O10 1.73(12) . . . . ?
O1 Cu3 Cu4 O10 88.50(15) 6 . . . ?
O12 Cu3 Cu4 O10 -178.90(12) 6_554 . . . ?
O8 Cu3 Cu4 O10 -90.47(14) . . . . ?
O14 Cu3 Cu4 O10 41.2(19) . . . . ?
O9 Cu3 Cu4 O2 -86.61(13) . . . 6 ?
O1 Cu3 Cu4 O2 0.15(14) 6 . . 6 ?
O12 Cu3 Cu4 O2 92.76(13) 6_554 . . 6 ?
O8 Cu3 Cu4 O2 -178.81(14) . . . 6 ?
O14 Cu3 Cu4 O2 -47.1(19) . . . 6 ?
O9 Cu3 Cu4 O15 137.2(9) . . . . ?
O1 Cu3 Cu4 O15 -136.1(9) 6 . . . ?
O12 Cu3 Cu4 O15 -43.5(9) 6_554 . . . ?
O8 Cu3 Cu4 O15 45.0(9) . . . . ?
O14 Cu3 Cu4 O15 177(25) . . . . ?
O3 Cu2 O3 C1 87.3(2) 3 . . . ?
O5 Cu2 O3 C1 -5.9(6) 3 . . . ?
O5 Cu2 O3 C1 -80.3(2) . . . . ?
N1 Cu2 O3 C1 -175.9(2) . . . . ?
Cu1 Cu2 O3 C1 2.4(2) . . . . ?
O4 Cu1 O4 C1 -86.7(2) 3 . . . ?
O6 Cu1 O4 C1 -1.5(7) 3 . . . ?
O6 Cu1 O4 C1 81.2(2) . . . . ?
O13 Cu1 O4 C1 175.5(3) . . . . ?
Cu2 Cu1 O4 C1 -3.9(2) . . . . ?
O3 Cu2 O5 C15 -3.8(6) 3 . . . ?
O3 Cu2 O5 C15 89.6(2) . . . . ?
O5 Cu2 O5 C15 -78.5(2) 3 . . . ?
N1 Cu2 O5 C15 -173.8(2) . . . . ?
Cu1 Cu2 O5 C15 4.6(2) . . . . ?
O4 Cu1 O6 C15 -4.2(7) 3 . . . ?
O4 Cu1 O6 C15 -89.4(3) . . . . ?
O6 Cu1 O6 C15 78.5(3) 3 . . . ?
O13 Cu1 O6 C15 172.9(3) . . . . ?
Cu2 Cu1 O6 C15 -6.6(2) . . . . ?
O11 Cu4 O7 C22 -76.0(4) 6_554 . . . ?
O10 Cu4 O7 C22 92.6(4) . . . . ?
O2 Cu4 O7 C22 13.9(7) 6 . . . ?
O15 Cu4 O7 C22 -168.8(4) . . . . ?
Cu3 Cu4 O7 C22 6.6(4) . . . . ?
O9 Cu3 O8 C22 -87.1(4) . . . . ?
O1 Cu3 O8 C22 -10.9(11) 6 . . . ?
O12 Cu3 O8 C22 78.5(4) 6_554 . . . ?
O14 Cu3 O8 C22 177.7(4) . . . . ?
Cu4 Cu3 O8 C22 -4.6(4) . . . . ?
O1 Cu3 O9 C29 -82.9(3) 6 . . . ?
O12 Cu3 O9 C29 0.9(7) 6_554 . . . ?
O8 Cu3 O9 C29 88.0(3) . . . . ?
O14 Cu3 O9 C29 -174.7(2) . . . . ?
Cu4 Cu3 O9 C29 3.4(2) . . . . ?
O11 Cu4 O10 C29 4.3(8) 6_554 . . . ?
O7 Cu4 O10 C29 -88.0(3) . . . . ?
O2 Cu4 O10 C29 77.3(2) 6 . . . ?
O15 Cu4 O10 C29 177.4(2) . . . . ?
Cu3 Cu4 O10 C29 -7.1(2) . . . . ?
O3 Cu2 N1 C43 45.82(8) 3 . . . ?
O3 Cu2 N1 C43 -45.81(8) . . . . ?
O5 Cu2 N1 C43 136.33(8) 3 . . . ?
O5 Cu2 N1 C43 -136.33(8) . . . . ?
Cu1 Cu2 N1 C43 180.000(7) . . . . ?
O3 Cu2 N1 C44 -134.18(8) 3 . . . ?
O3 Cu2 N1 C44 134.19(8) . . . . ?
O5 Cu2 N1 C44 -43.67(8) 3 . . . ?
O5 Cu2 N1 C44 43.67(8) . . . . ?
Cu1 Cu2 N1 C44 0.000(7) . . . . ?
Cu1 O4 C1 O3 7.3(4) . . . . ?
Cu1 O4 C1 C2 -178.68(15) . . . . ?
Cu2 O3 C1 O4 -6.3(4) . . . . ?
Cu2 O3 C1 C2 179.41(14) . . . . ?
O4 C1 C2 C3 18.8(3) . . . . ?
O3 C1 C2 C3 -166.5(2) . . . . ?
O4 C1 C2 C7 -161.6(3) . . . . ?
O3 C1 C2 C7 13.1(3) . . . . ?
C7 C2 C3 C4 -0.8(4) . . . . ?
C1 C2 C3 C4 178.8(3) . . . . ?
C2 C3 C4 C5 4.1(5) . . . . ?
C2 C3 C4 C8 -177.2(3) . . . . ?
C3 C4 C5 C6 -7.7(6) . . . . ?
C8 C4 C5 C6 173.5(4) . . . . ?
C4 C5 C6 C7 7.9(7) . . . . ?
C4 C5 C6 C9 -167.2(4) . . . . ?
C5 C6 C7 C2 -4.2(7) . . . . ?
C9 C6 C7 C2 170.7(4) . . . . ?
C3 C2 C7 C6 0.7(5) . . . . ?
C1 C2 C7 C6 -178.9(4) . . . . ?
Cu3 O1 C8 O2 -3.1(7) 6_554 . . . ?
Cu3 O1 C8 C4 -171.2(3) 6_554 . . . ?
Cu4 O2 C8 O1 3.2(7) 6_554 . . . ?
Cu4 O2 C8 C4 171.7(3) 6_554 . . . ?
C3 C4 C8 O1 161.1(4) . . . . ?
C5 C4 C8 O1 -20.3(7) . . . . ?
C3 C4 C8 O2 -8.3(6) . . . . ?
C5 C4 C8 O2 170.4(4) . . . . ?
C7 C6 C9 C10 -19.5(6) . . . . ?
C5 C6 C9 C10 155.3(4) . . . . ?
C7 C6 C9 C14 151.7(5) . . . . ?
C5 C6 C9 C14 -33.6(7) . . . . ?
C14 C9 C10 C11 1.3(4) . . . . ?
C6 C9 C10 C11 174.0(4) . . . . ?
C9 C10 C11 C10 -178.6(3) . . . 4 ?
C9 C10 C11 C12 0.5(4) . . . . ?
C10 C11 C12 C13 0.2(6) 4 . . 4 ?
C10 C11 C12 C13 -179.0(4) . . . 4 ?
C10 C11 C12 C13 179.0(4) 4 . . . ?
C10 C11 C12 C13 -0.2(6) . . . . ?
C13 C12 C13 C14 176.8(5) 4 . . . ?
C11 C12 C13 C14 -1.9(8) . . . . ?
C12 C13 C14 C9 4.6(10) . . . . ?
C10 C9 C14 C13 -4.0(8) . . . . ?
C6 C9 C14 C13 -176.3(6) . . . . ?
Cu1 O6 C15 O5 13.0(4) . . . . ?
Cu1 O6 C15 C16 -174.54(15) . . . . ?
Cu2 O5 C15 O6 -12.0(4) . . . . ?
Cu2 O5 C15 C16 175.35(14) . . . . ?
O6 C15 C16 C21 -10.4(3) . . . . ?
O5 C15 C16 C21 163.0(3) . . . . ?
O6 C15 C16 C17 167.4(3) . . . . ?
O5 C15 C16 C17 -19.2(3) . . . . ?
C21 C16 C17 C18 -0.9(4) . . . . ?
C15 C16 C17 C18 -178.6(3) . . . . ?
C16 C17 C18 C19 -3.1(5) . . . . ?
C16 C17 C18 C23 171.6(3) . . . . ?
C17 C18 C19 C20 5.6(7) . . . . ?
C23 C18 C19 C20 -169.1(4) . . . . ?
C18 C19 C20 C21 -4.1(7) . . . . ?
C18 C19 C20 C22 -178.4(4) . . . . ?
C17 C16 C21 C20 2.6(4) . . . . ?
C15 C16 C21 C20 -179.7(3) . . . . ?
C19 C20 C21 C16 0.0(6) . . . . ?
C22 C20 C21 C16 174.0(3) . . . . ?
Cu4 O7 C22 O8 -13.7(7) . . . . ?
Cu4 O7 C22 C20 164.8(3) . . . . ?
Cu3 O8 C22 O7 11.9(7) . . . . ?
Cu3 O8 C22 C20 -166.7(3) . . . . ?
C19 C20 C22 O7 13.4(7) . . . . ?
C21 C20 C22 O7 -160.9(4) . . . . ?
C19 C20 C22 O8 -168.0(4) . . . . ?
C21 C20 C22 O8 17.8(6) . . . . ?
C17 C18 C23 C24 -140.2(3) . . . . ?
C19 C18 C23 C24 34.3(6) . . . . ?
C17 C18 C23 C28 43.5(5) . . . . ?
C19 C18 C23 C28 -142.0(5) . . . . ?
C28 C23 C24 C25 -0.8(4) . . . . ?
C18 C23 C24 C25 -176.9(4) . . . . ?
C23 C24 C25 C26 -0.3(5) . . . . ?
C24 C25 C26 C25 -179.2(4) . . . 4 ?
C24 C25 C26 C27 0.7(8) . . . . ?
C25 C26 C27 C28 0.0(10) 4 . . 4 ?
C25 C26 C27 C28 -180.0(5) . . . 4 ?
C25 C26 C27 C28 179.9(5) 4 . . . ?
C25 C26 C27 C28 0.0(10) . . . . ?
C28 C27 C28 C23 178.8(3) 4 . . . ?
C26 C27 C28 C23 -1.1(9) . . . . ?
C24 C23 C28 C27 1.5(6) . . . . ?
C18 C23 C28 C27 178.2(5) . . . . ?
Cu4 O10 C29 O9 13.1(4) . . . . ?
Cu4 O10 C29 C30 -174.74(15) . . . . ?
Cu3 O9 C29 O10 -11.3(4) . . . . ?
Cu3 O9 C29 C30 177.45(15) . . . . ?
O10 C29 C30 C35 10.4(3) . . . . ?
O9 C29 C30 C35 -176.9(3) . . . . ?
O10 C29 C30 C31 -169.9(2) . . . . ?
O9 C29 C30 C31 2.9(3) . . . . ?
C35 C30 C31 C32 0.3(4) . . . . ?
C29 C30 C31 C32 -179.5(3) . . . . ?
C30 C31 C32 C33 -0.1(5) . . . . ?
C30 C31 C32 C37 -174.1(3) . . . . ?
C31 C32 C33 C34 -1.1(5) . . . . ?
C37 C32 C33 C34 173.0(3) . . . . ?
C32 C33 C34 C35 2.3(5) . . . . ?
C32 C33 C34 C36 -179.3(3) . . . . ?
C31 C30 C35 C34 0.9(4) . . . . ?
C29 C30 C35 C34 -179.4(3) . . . . ?
C33 C34 C35 C30 -2.3(6) . . . . ?
C36 C34 C35 C30 179.5(3) . . . . ?
Cu4 O11 C36 O12 4.9(7) 6 . . . ?
Cu4 O11 C36 C34 -179.8(3) 6 . . . ?
Cu3 O12 C36 O11 0.6(5) 6 . . . ?
Cu3 O12 C36 C34 -175.8(2) 6 . . . ?
C35 C34 C36 O11 -176.5(4) . . . . ?
C33 C34 C36 O11 5.1(7) . . . . ?
C35 C34 C36 O12 -0.7(5) . . . . ?
C33 C34 C36 O12 -179.2(3) . . . . ?
C33 C32 C37 C38 -111.5(4) . . . . ?
C31 C32 C37 C38 62.6(4) . . . . ?
C33 C32 C37 C42 54.5(5) . . . . ?
C31 C32 C37 C42 -131.5(4) . . . . ?
C42 C37 C38 C39 -0.4(4) . . . . ?
C32 C37 C38 C39 166.7(3) . . . . ?
C37 C38 C39 C38 -172.8(3) . . . 3 ?
C37 C38 C39 C40 0.2(4) . . . . ?
C38 C39 C40 C41 -171.9(4) . . . 3 ?
C38 C39 C40 C41 1.0(6) 3 . . 3 ?
C38 C39 C40 C41 -1.0(6) . . . . ?
C38 C39 C40 C41 171.9(4) 3 . . . ?
C41 C40 C41 C42 172.8(4) 3 . . . ?
C39 C40 C41 C42 2.1(7) . . . . ?
C40 C41 C42 C37 -2.7(8) . . . . ?
C38 C37 C42 C41 1.8(6) . . . . ?
C32 C37 C42 C41 -165.0(5) . . . . ?
C44 N1 C43 C43 0.000(1) . . . 2 ?
Cu2 N1 C43 C43 180.0 . . . 2 ?
C43 N1 C44 C44 0.000(2) . . . 2 ?
Cu2 N1 C44 C44 180.000(1) . . . 2 ?

_diffrn_measured_fraction_theta_max 0.988
_diffrn_reflns_theta_full        25.35
_diffrn_measured_fraction_theta_full 0.988
_refine_diff_density_max         0.986
_refine_diff_density_min         -1.044
_refine_diff_density_rms         0.076


# start Validation Reply Form

_vrf_PLAT213_I                   
;
PROBLEM: Atom C14 has ADP max/min Ratio ..... 5.4 prola
RESPONSE: ...
;
_vrf_PLAT241_I                   
;
PROBLEM: Check High Ueq as Compared to Neighbors for C14
RESPONSE: Probably dure to its disorder.
;
_vrf_PLAT602_I                   
;
PROBLEM: VERY LARGE Solvent Accessible VOID(S) in Structure !
RESPONSE: Diffraction peaks from guest molecules in the pores of the structure have been
removed by SQUEEZE function of PLATON.
;
# end Validation Reply Form


####################################################################### 
# 
# This file contains crystal structure data downloaded from the 
# Cambridge Structural Database (CSD) hosted by the Cambridge 
# Crystallographic Data Centre (CCDC).
# 
# Full information about CCDC data access policies and citation 
# guidelines are available at http://www.ccdc.cam.ac.uk/access/V1 
# 
# Audit and citation data items may have been added by the CCDC. 
# Please retain this information to preserve the provenance of 
# this file and to allow appropriate attribution of the data. 
# 
#######################################################################

data_SMT-1
_audit_block_doi                 10.5517/ccy4248
_database_code_depnum_ccdc_archive 'CCDC 867849'
loop_
_citation_id
_citation_doi
_citation_year
1 10.1038/ncomms2552 2013
_audit_update_record             
;
2012-02-20 deposited with the CCDC.	2019-02-14 downloaded from the CCDC.
;
#TrackingRef '1-SMT-1.cif'


_audit_creation_method           SHELXL-97
_chemical_name_systematic        
;
?
;
_chemical_name_common            ?
_chemical_melting_point          ?
_chemical_formula_moiety         'C112 H92 Cu4 N4 O20'
_chemical_formula_sum            'C112 H92 Cu4 N4 O20'
_chemical_formula_weight         2068.06

loop_
_atom_type_symbol
_atom_type_description
_atom_type_scat_dispersion_real
_atom_type_scat_dispersion_imag
_atom_type_scat_source
C C 0.0033 0.0016 'International Tables Vol C Tables 4.2.6.8 and 6.1.1.4'
H H 0.0000 0.0000 'International Tables Vol C Tables 4.2.6.8 and 6.1.1.4'
Cu Cu 0.3201 1.2651 'International Tables Vol C Tables 4.2.6.8 and 6.1.1.4'
N N 0.0061 0.0033 'International Tables Vol C Tables 4.2.6.8 and 6.1.1.4'
O O 0.0106 0.0060 'International Tables Vol C Tables 4.2.6.8 and 6.1.1.4'

_symmetry_cell_setting           Monoclinic
_symmetry_space_group_name_H-M   C2/c
_symmetry_Hall_group_name_H-M    '-C 2yc'

loop_
_symmetry_equiv_pos_as_xyz
'x, y, z'
'-x, y, -z+1/2'
'x+1/2, y+1/2, z'
'-x+1/2, y+1/2, -z+1/2'
'-x, -y, -z'
'x, -y, z-1/2'
'-x+1/2, -y+1/2, -z'
'x+1/2, -y+1/2, z-1/2'

_cell_length_a                   22.203(2)
_cell_length_b                   20.1224(19)
_cell_length_c                   30.441(2)
_cell_angle_alpha                90.00
_cell_angle_beta                 116.012(5)
_cell_angle_gamma                90.00
_cell_volume                     12222.7(18)
_cell_formula_units_Z            4
_cell_measurement_temperature    110(2)
_cell_measurement_reflns_used    9938
_cell_measurement_theta_min      2.248
_cell_measurement_theta_max      23.586

_exptl_crystal_description       Block
_exptl_crystal_colour            'Blue green'
_exptl_crystal_size_max          0.32
_exptl_crystal_size_mid          0.24
_exptl_crystal_size_min          0.22
_exptl_crystal_density_meas      ?
_exptl_crystal_density_diffrn    1.124
_exptl_crystal_density_method    'not measured'
_exptl_crystal_F_000             4272
_exptl_absorpt_coefficient_mu    0.746
_exptl_absorpt_correction_type   Multi-scan
_exptl_absorpt_correction_T_min  0.7963
_exptl_absorpt_correction_T_max  0.8531
_exptl_absorpt_process_details   SADABS

_exptl_special_details           
;
?
;

_diffrn_ambient_temperature      110(2)
_diffrn_radiation_wavelength     0.71073
_diffrn_radiation_type           MoK\a
_diffrn_radiation_source         'fine-focus sealed tube'
_diffrn_radiation_monochromator  graphite
_diffrn_measurement_device_type  'BRUKER APEX-II CCD'
_diffrn_measurement_method       'phi and omega scans'
_diffrn_detector_area_resol_mean ?
_diffrn_reflns_number            60530
_diffrn_reflns_av_R_equivalents  0.0582
_diffrn_reflns_av_sigmaI/netI    0.0491
_diffrn_reflns_limit_h_min       -26
_diffrn_reflns_limit_h_max       26
_diffrn_reflns_limit_k_min       -24
_diffrn_reflns_limit_k_max       24
_diffrn_reflns_limit_l_min       -36
_diffrn_reflns_limit_l_max       36
_diffrn_reflns_theta_min         1.72
_diffrn_reflns_theta_max         25.50
_reflns_number_total             11375
_reflns_number_gt                8160
_reflns_threshold_expression     I>2sigma(I)

_computing_data_collection       'Bruker APEX-II'
_computing_cell_refinement       'Bruker SAINT'
_computing_data_reduction        'Bruker SAINT'
_computing_structure_solution    'SHELXS-97 (Sheldrick, 2008)'
_computing_structure_refinement  'SHELXL-97 (Sheldrick, 2008)'
_computing_molecular_graphics    'Bruker SHELXTL'
_computing_publication_material  'Bruker SHELXTL'

_refine_special_details          
;
Refinement of F^2^ against ALL reflections. The weighted R-factor wR and
goodness of fit S are based on F^2^, conventional R-factors R are based
on F, with F set to zero for negative F^2^. The threshold expression of
F^2^ > 2sigma(F^2^) is used only for calculating R-factors(gt) etc. and is
not relevant to the choice of reflections for refinement. R-factors based
on F^2^ are statistically about twice as large as those based on F, and R-
factors based on ALL data will be even larger.
;

_refine_ls_structure_factor_coef Fsqd
_refine_ls_matrix_type           full
_refine_ls_weighting_scheme      calc
_refine_ls_weighting_details     
'calc w=1/[\s^2^(Fo^2^)+(0.1159P)^2^+28.6255P] where P=(Fo^2^+2Fc^2^)/3'
_atom_sites_solution_primary     direct
_atom_sites_solution_secondary   difmap
_atom_sites_solution_hydrogens   geom
_refine_ls_hydrogen_treatment    constr
_refine_ls_extinction_method     none
_refine_ls_extinction_coef       ?
_refine_ls_number_reflns         11375
_refine_ls_number_parameters     652
_refine_ls_number_restraints     1
_refine_ls_R_factor_all          0.0912
_refine_ls_R_factor_gt           0.0704
_refine_ls_wR_factor_ref         0.2097
_refine_ls_wR_factor_gt          0.1988
_refine_ls_goodness_of_fit_ref   1.075
_refine_ls_restrained_S_all      1.076
_refine_ls_shift/su_max          0.000
_refine_ls_shift/su_mean         0.000

loop_
_atom_site_label
_atom_site_type_symbol
_atom_site_fract_x
_atom_site_fract_y
_atom_site_fract_z
_atom_site_U_iso_or_equiv
_atom_site_adp_type
_atom_site_occupancy
_atom_site_symmetry_multiplicity
_atom_site_calc_flag
_atom_site_refinement_flags
_atom_site_disorder_assembly
_atom_site_disorder_group
Cu1 Cu 0.05433(3) 0.20869(2) 0.086233(19) 0.03277(17) Uani 1 1 d . . .
Cu2 Cu 0.03122(3) 0.33063(2) 0.054065(19) 0.03126(17) Uani 1 1 d . . .
O1 O 0.02129(15) 0.19080(14) 0.01551(11) 0.0370(7) Uani 1 1 d . . .
O2 O -0.01556(15) 0.29354(15) -0.01238(11) 0.0376(7) Uani 1 1 d . . .
O3 O -0.08527(15) 0.75319(14) -0.15199(11) 0.0371(7) Uani 1 1 d . . .
O4 O -0.08160(15) 0.64953(14) -0.12348(11) 0.0352(7) Uani 1 1 d . . .
O5 O 0.03874(14) 0.79059(14) -0.07685(11) 0.0363(7) Uani 1 1 d . . .
O6 O 0.05023(14) 0.68104(14) -0.06226(11) 0.0348(7) Uani 1 1 d . . .
O7 O 0.14471(15) 0.22458(15) 0.09158(12) 0.0404(8) Uani 1 1 d . . .
O8 O 0.11655(16) 0.32033(15) 0.04955(12) 0.0408(8) Uani 1 1 d . . .
O9 O 0.06698(15) 0.10654(14) 0.11058(11) 0.0343(7) Uani 1 1 d . . .
O10 O 0.0224(3) 0.4334(2) 0.0375(2) 0.0902(17) Uani 1 1 d . . .
N2 N 0.0975(3) 0.5261(4) 0.0494(3) 0.103(2) Uani 1 1 d . . .
C1 C -0.0087(2) 0.2325(2) -0.01855(15) 0.0314(9) Uani 1 1 d . . .
C2 C -0.0363(2) 0.2074(2) -0.07007(16) 0.0323(9) Uani 1 1 d . . .
C3 C -0.0261(2) 0.1425(2) -0.07988(18) 0.0404(11) Uani 1 1 d . . .
H3 H -0.0013 0.1133 -0.0537 0.049 Uiso 1 1 calc R . .
C4 C -0.0515(3) 0.1200(3) -0.12708(19) 0.0497(13) Uani 1 1 d . . .
H4 H -0.0433 0.0754 -0.1333 0.060 Uiso 1 1 calc R . .
C5 C -0.0889(2) 0.1613(2) -0.16555(19) 0.0457(12) Uani 1 1 d . . .
H5 H -0.1072 0.1446 -0.1980 0.055 Uiso 1 1 calc R . .
C6 C -0.1003(2) 0.2277(2) -0.15741(16) 0.0364(10) Uani 1 1 d . . .
C7 C -0.0732(2) 0.2495(2) -0.10943(16) 0.0343(10) Uani 1 1 d . . .
H7 H -0.0798 0.2944 -0.1030 0.041 Uiso 1 1 calc R . .
C8 C -0.1394(2) 0.2728(2) -0.19857(17) 0.0430(12) Uani 1 1 d . . .
C9 C -0.1947(3) 0.2480(3) -0.24129(18) 0.0516(13) Uani 1 1 d . . .
H9 H -0.2044 0.2017 -0.2439 0.062 Uiso 1 1 calc R . .
C10 C -0.2340(3) 0.2897(3) -0.27851(18) 0.0528(14) Uani 1 1 d . . .
H10 H -0.2700 0.2717 -0.3067 0.063 Uiso 1 1 calc R . .
C11 C -0.2219(3) 0.3585(3) -0.27568(18) 0.0474(12) Uani 1 1 d . . .
C12 C -0.2637(3) 0.4041(3) -0.31255(19) 0.0591(15) Uani 1 1 d . . .
H12 H -0.3004 0.3878 -0.3409 0.071 Uiso 1 1 calc R . .
C13 C -0.2514(3) 0.4706(3) -0.3074(2) 0.0692(18) Uani 1 1 d . . .
H13 H -0.2813 0.5003 -0.3312 0.083 Uiso 1 1 calc R . .
C14 C -0.1931(3) 0.4965(3) -0.26606(18) 0.0559(15) Uani 1 1 d . . .
C15 C -0.1531(3) 0.4533(3) -0.23126(17) 0.0505(14) Uani 1 1 d . . .
H15 H -0.1152 0.4703 -0.2039 0.061 Uiso 1 1 calc R . .
C16 C -0.1653(2) 0.3836(2) -0.23381(16) 0.0425(11) Uani 1 1 d . . .
C17 C -0.1255(2) 0.3397(2) -0.19650(17) 0.0408(11) Uani 1 1 d . . .
H17 H -0.0878 0.3567 -0.1690 0.049 Uiso 1 1 calc R . .
C18 C -0.1793(3) 0.5690(3) -0.26074(19) 0.0601(16) Uani 1 1 d . . .
C19 C -0.1983(4) 0.6114(3) -0.3019(2) 0.083(2) Uani 1 1 d . . .
H19 H -0.2213 0.5936 -0.3339 0.099 Uiso 1 1 calc R . .
C20 C -0.1834(4) 0.6793(3) -0.2956(2) 0.081(2) Uani 1 1 d . . .
H20 H -0.1955 0.7072 -0.3234 0.097 Uiso 1 1 calc R . .
C21 C -0.1508(3) 0.7065(3) -0.2487(2) 0.0565(15) Uani 1 1 d . . .
H21 H -0.1420 0.7529 -0.2443 0.068 Uiso 1 1 calc R . .
C22 C -0.1316(2) 0.6651(2) -0.20888(17) 0.0426(12) Uani 1 1 d . . .
C23 C -0.1471(2) 0.5975(2) -0.21547(18) 0.0473(13) Uani 1 1 d . . .
H23 H -0.1348 0.5702 -0.1874 0.057 Uiso 1 1 calc R . .
C24 C -0.0966(2) 0.6921(2) -0.15732(17) 0.0357(10) Uani 1 1 d . . .
C25 C 0.0714(2) 0.7371(2) -0.06842(14) 0.0320(10) Uani 1 1 d . . .
C26 C 0.1403(2) 0.7388(2) -0.06595(15) 0.0329(10) Uani 1 1 d . . .
C27 C 0.1680(2) 0.7981(2) -0.07290(16) 0.0390(11) Uani 1 1 d . . .
H27 H 0.1431 0.8383 -0.0794 0.047 Uiso 1 1 calc R . .
C28 C 0.2315(2) 0.7979(2) -0.07032(18) 0.0419(11) Uani 1 1 d . . .
H28 H 0.2509 0.8383 -0.0742 0.050 Uiso 1 1 calc R . .
C29 C 0.2675(2) 0.7387(2) -0.06201(17) 0.0392(11) Uani 1 1 d . . .
H29 H 0.3109 0.7389 -0.0610 0.047 Uiso 1 1 calc R . .
C30 C 0.2406(2) 0.6792(2) -0.05522(15) 0.0321(9) Uani 1 1 d . . .
C31 C 0.1766(2) 0.6808(2) -0.05768(15) 0.0331(10) Uani 1 1 d . . .
H31 H 0.1573 0.6405 -0.0535 0.040 Uiso 1 1 calc R . .
C32 C 0.2763(2) 0.6151(2) -0.04731(15) 0.0299(9) Uani 1 1 d . . .
C33 C 0.3175(2) 0.6001(2) -0.07113(16) 0.0336(10) Uani 1 1 d . . .
H33 H 0.3258 0.6337 -0.0898 0.040 Uiso 1 1 calc R . .
C34 C 0.3449(2) 0.5398(2) -0.06786(16) 0.0367(10) Uani 1 1 d . . .
H34 H 0.3723 0.5317 -0.0841 0.044 Uiso 1 1 calc R . .
C35 C 0.3339(2) 0.4878(2) -0.04083(15) 0.0315(9) Uani 1 1 d . . .
C36 C 0.3612(2) 0.4243(2) -0.03698(18) 0.0411(11) Uani 1 1 d . . .
H36 H 0.3879 0.4145 -0.0535 0.049 Uiso 1 1 calc R . .
C37 C 0.3500(2) 0.3758(2) -0.00968(18) 0.0411(11) Uani 1 1 d . . .
H37 H 0.3691 0.3330 -0.0076 0.049 Uiso 1 1 calc R . .
C38 C 0.3111(2) 0.3882(2) 0.01506(17) 0.0358(10) Uani 1 1 d . . .
C39 C 0.2841(2) 0.4504(2) 0.01222(16) 0.0327(10) Uani 1 1 d . . .
H39 H 0.2581 0.4590 0.0294 0.039 Uiso 1 1 calc R . .
C40 C 0.2941(2) 0.5022(2) -0.01546(16) 0.0312(9) Uani 1 1 d . . .
C41 C 0.2674(2) 0.5655(2) -0.01929(16) 0.0326(10) Uani 1 1 d . . .
H41 H 0.2418 0.5752 -0.0019 0.039 Uiso 1 1 calc R . .
C42 C 0.2980(2) 0.3330(2) 0.04277(18) 0.0389(11) Uani 1 1 d . . .
C43 C 0.3457(3) 0.2841(2) 0.0664(2) 0.0535(14) Uani 1 1 d . . .
H43 H 0.3883 0.2867 0.0661 0.064 Uiso 1 1 calc R . .
C44 C 0.3323(3) 0.2314(3) 0.0906(2) 0.0572(15) Uani 1 1 d . . .
H44 H 0.3652 0.1981 0.1059 0.069 Uiso 1 1 calc R . .
C45 C 0.2712(3) 0.2275(2) 0.0922(2) 0.0505(13) Uani 1 1 d . . .
H45 H 0.2623 0.1916 0.1088 0.061 Uiso 1 1 calc R . .
C46 C 0.2228(2) 0.2762(2) 0.06958(18) 0.0391(11) Uani 1 1 d . . .
C47 C 0.2368(2) 0.3287(2) 0.04536(18) 0.0402(11) Uani 1 1 d . . .
H47 H 0.2039 0.3622 0.0303 0.048 Uiso 1 1 calc R . .
C48 C 0.1559(2) 0.2737(2) 0.07040(17) 0.0388(11) Uani 1 1 d . . .
C49 C -0.0379(3) 0.0523(3) 0.0524(2) 0.075(2) Uani 1 1 d . . .
H49A H -0.0798 0.0294 0.0356 0.113 Uiso 1 1 d R . .
H49B H -0.0424 0.0970 0.0404 0.113 Uiso 1 1 d R . .
H49C H -0.0039 0.0298 0.0467 0.113 Uiso 1 1 d R . .
C51 C -0.0643(4) 0.0220(4) 0.1294(4) 0.115(3) Uani 1 1 d . . .
H51A H -0.0873 0.0092 0.0956 0.173 Uiso 1 1 d R . .
H51B H -0.0565 -0.0166 0.1497 0.173 Uiso 1 1 d R . .
H51C H -0.0911 0.0533 0.1368 0.173 Uiso 1 1 d R . .
C52 C 0.0533(6) 0.0793(6) 0.1871(3) 0.146(5) Uani 1 1 d . . .
H52A H 0.0901 0.0962 0.1819 0.218 Uiso 1 1 d R . .
H52B H 0.0344 0.1145 0.1983 0.218 Uiso 1 1 d R . .
H52C H 0.0690 0.0446 0.2112 0.218 Uiso 1 1 d R . .
C53 C 0.0696(7) 0.4502(7) -0.0230(5) 0.193(7) Uani 1 1 d D . .
H53A H 0.0588 0.4031 -0.0308 0.289 Uiso 1 1 calc R . .
H53B H 0.1142 0.4594 -0.0209 0.289 Uiso 1 1 calc R . .
H53C H 0.0362 0.4777 -0.0488 0.289 Uiso 1 1 calc R . .
C54 C 0.0691(4) 0.4662(4) 0.0254(3) 0.098(3) Uani 1 1 d D . .
C55 C 0.0957(5) 0.5403(5) 0.0939(3) 0.119(3) Uani 1 1 d . . .
H55A H 0.0682 0.5070 0.1002 0.178 Uiso 1 1 calc R . .
H55B H 0.0763 0.5845 0.0922 0.178 Uiso 1 1 calc R . .
H55C H 0.1413 0.5393 0.1204 0.178 Uiso 1 1 calc R . .
C56 C 0.1241(4) 0.5663(5) 0.0231(4) 0.124(4) Uani 1 1 d . . .
H56A H 0.1731 0.5662 0.0403 0.185 Uiso 1 1 calc R . .
H56B H 0.1076 0.6119 0.0209 0.185 Uiso 1 1 calc R . .
H56C H 0.1096 0.5482 -0.0099 0.185 Uiso 1 1 calc R . .
N1A N -0.0012(8) 0.0521(7) 0.1384(4) 0.046(3) Uani 0.50 1 d P . .
C50A C 0.0115(6) 0.0731(5) 0.1004(4) 0.026(2) Uani 0.50 1 d P . .
N1B N -0.0157(7) 0.0540(8) 0.1105(7) 0.073(5) Uani 0.50 1 d P . .
C50B C 0.0383(8) 0.0837(6) 0.1317(7) 0.061(3) Uani 0.50 1 d P . .

loop_
_atom_site_aniso_label
_atom_site_aniso_U_11
_atom_site_aniso_U_22
_atom_site_aniso_U_33
_atom_site_aniso_U_23
_atom_site_aniso_U_13
_atom_site_aniso_U_12
Cu1 0.0284(3) 0.0250(3) 0.0383(3) 0.0033(2) 0.0085(2) 0.0008(2)
Cu2 0.0298(3) 0.0244(3) 0.0333(3) 0.0029(2) 0.0081(2) 0.0003(2)
O1 0.0338(16) 0.0282(15) 0.0436(18) 0.0017(13) 0.0121(14) 0.0049(13)
O2 0.0368(17) 0.0328(17) 0.0376(17) 0.0066(13) 0.0113(14) 0.0042(14)
O3 0.0370(17) 0.0255(16) 0.0409(17) 0.0037(13) 0.0098(14) -0.0021(13)
O4 0.0353(16) 0.0293(15) 0.0329(16) 0.0022(13) 0.0075(13) -0.0048(13)
O5 0.0295(15) 0.0285(16) 0.0442(18) 0.0027(13) 0.0100(14) 0.0049(13)
O6 0.0306(16) 0.0293(16) 0.0380(17) 0.0027(13) 0.0089(13) 0.0037(13)
O7 0.0355(17) 0.0302(17) 0.053(2) 0.0045(14) 0.0172(15) -0.0014(13)
O8 0.0377(17) 0.0341(17) 0.0496(19) 0.0049(15) 0.0182(15) -0.0018(14)
O9 0.0281(16) 0.0270(15) 0.0410(18) 0.0048(13) 0.0088(14) 0.0030(13)
O10 0.172(5) 0.036(2) 0.112(4) 0.012(2) 0.107(4) 0.008(3)
N2 0.082(4) 0.110(5) 0.085(5) 0.015(4) 0.008(3) -0.042(4)
C1 0.026(2) 0.028(2) 0.036(2) 0.0053(18) 0.0098(18) 0.0024(17)
C2 0.026(2) 0.030(2) 0.038(2) 0.0020(18) 0.0117(18) -0.0009(17)
C3 0.031(2) 0.035(2) 0.052(3) 0.000(2) 0.015(2) 0.001(2)
C4 0.050(3) 0.037(3) 0.054(3) -0.011(2) 0.016(3) 0.001(2)
C5 0.042(3) 0.041(3) 0.046(3) -0.008(2) 0.012(2) -0.003(2)
C6 0.023(2) 0.035(2) 0.040(2) -0.006(2) 0.0037(19) -0.0044(18)
C7 0.026(2) 0.028(2) 0.045(3) -0.0024(19) 0.0113(19) -0.0018(17)
C8 0.045(3) 0.036(3) 0.037(3) -0.005(2) 0.008(2) -0.009(2)
C9 0.047(3) 0.042(3) 0.046(3) -0.011(2) 0.002(2) -0.007(2)
C10 0.043(3) 0.049(3) 0.041(3) -0.010(2) -0.005(2) -0.014(2)
C11 0.042(3) 0.047(3) 0.037(3) -0.005(2) 0.002(2) -0.009(2)
C12 0.051(3) 0.063(4) 0.036(3) -0.005(2) -0.006(2) -0.020(3)
C13 0.063(4) 0.066(4) 0.036(3) 0.002(3) -0.017(3) -0.006(3)
C14 0.064(4) 0.047(3) 0.029(2) -0.002(2) -0.005(2) -0.017(3)
C15 0.046(3) 0.049(3) 0.032(3) -0.002(2) -0.005(2) -0.015(2)
C16 0.041(3) 0.043(3) 0.029(2) -0.004(2) 0.003(2) -0.009(2)
C17 0.035(2) 0.042(3) 0.031(2) -0.007(2) 0.001(2) -0.011(2)
C18 0.058(3) 0.050(3) 0.041(3) 0.007(2) -0.007(2) -0.009(3)
C19 0.095(5) 0.065(4) 0.040(3) 0.011(3) -0.014(3) -0.018(4)
C20 0.088(5) 0.063(4) 0.046(3) 0.021(3) -0.012(3) -0.019(3)
C21 0.055(3) 0.043(3) 0.051(3) 0.011(2) 0.004(3) -0.003(3)
C22 0.035(2) 0.035(2) 0.040(3) 0.004(2) -0.001(2) 0.000(2)
C23 0.044(3) 0.037(3) 0.039(3) 0.010(2) -0.002(2) -0.002(2)
C24 0.023(2) 0.033(2) 0.041(3) 0.004(2) 0.0040(19) 0.0013(18)
C25 0.031(2) 0.031(2) 0.024(2) 0.0014(17) 0.0029(18) 0.0030(19)
C26 0.030(2) 0.030(2) 0.031(2) -0.0021(18) 0.0066(18) 0.0001(18)
C27 0.035(2) 0.035(2) 0.037(2) 0.0027(19) 0.006(2) 0.010(2)
C28 0.039(3) 0.033(2) 0.045(3) 0.001(2) 0.010(2) -0.004(2)
C29 0.027(2) 0.042(3) 0.040(3) 0.001(2) 0.0076(19) -0.002(2)
C30 0.026(2) 0.033(2) 0.031(2) 0.0054(18) 0.0077(18) 0.0034(18)
C31 0.031(2) 0.031(2) 0.028(2) 0.0029(17) 0.0041(18) 0.0013(18)
C32 0.022(2) 0.032(2) 0.027(2) -0.0002(17) 0.0032(17) -0.0024(17)
C33 0.023(2) 0.037(2) 0.034(2) 0.0005(19) 0.0061(18) -0.0036(18)
C34 0.025(2) 0.044(3) 0.036(2) -0.005(2) 0.0089(19) -0.0067(19)
C35 0.020(2) 0.035(2) 0.033(2) -0.0051(18) 0.0058(17) -0.0024(17)
C36 0.028(2) 0.041(3) 0.055(3) -0.011(2) 0.018(2) -0.004(2)
C37 0.031(2) 0.029(2) 0.059(3) -0.003(2) 0.016(2) 0.0010(19)
C38 0.023(2) 0.034(2) 0.044(3) -0.003(2) 0.0096(19) -0.0035(18)
C39 0.023(2) 0.032(2) 0.038(2) -0.0025(18) 0.0083(18) -0.0031(17)
C40 0.021(2) 0.031(2) 0.038(2) -0.0026(18) 0.0104(18) -0.0032(17)
C41 0.024(2) 0.035(2) 0.036(2) -0.0006(19) 0.0103(18) 0.0023(18)
C42 0.030(2) 0.028(2) 0.054(3) -0.002(2) 0.014(2) -0.0029(18)
C43 0.035(3) 0.039(3) 0.083(4) 0.007(3) 0.024(3) -0.003(2)
C44 0.043(3) 0.036(3) 0.088(4) 0.013(3) 0.024(3) 0.006(2)
C45 0.046(3) 0.029(2) 0.078(4) 0.008(2) 0.028(3) -0.003(2)
C46 0.032(2) 0.029(2) 0.051(3) -0.004(2) 0.013(2) -0.0052(19)
C47 0.035(2) 0.029(2) 0.050(3) 0.000(2) 0.013(2) -0.0013(19)
C48 0.038(3) 0.028(2) 0.047(3) -0.007(2) 0.015(2) -0.005(2)
C49 0.051(3) 0.053(4) 0.080(5) -0.020(3) -0.010(3) 0.005(3)
C51 0.095(6) 0.107(7) 0.175(9) 0.054(6) 0.088(7) 0.018(5)
C52 0.191(11) 0.169(10) 0.061(5) 0.029(6) 0.042(6) 0.074(9)
C53 0.207(13) 0.223(14) 0.246(15) -0.146(12) 0.189(13) -0.126(11)
C54 0.075(5) 0.091(6) 0.103(6) 0.029(5) 0.015(4) -0.009(4)
C55 0.148(9) 0.129(8) 0.060(5) -0.013(5) 0.028(5) -0.017(7)
C56 0.078(6) 0.150(9) 0.138(8) 0.041(7) 0.043(6) -0.025(6)
N1A 0.042(7) 0.050(6) 0.039(6) 0.017(6) 0.010(6) 0.004(5)
C50A 0.009(5) 0.019(4) 0.035(6) -0.006(4) -0.004(5) -0.009(3)
N1B 0.026(7) 0.053(7) 0.116(15) 0.005(10) 0.010(10) -0.007(5)
C50B 0.055(8) 0.039(7) 0.094(13) 0.006(8) 0.037(10) 0.010(6)

_geom_special_details            
;
All esds (except the esd in the dihedral angle between two l.s. planes)
are estimated using the full covariance matrix. The cell esds are taken
into account individually in the estimation of esds in distances, angles
and torsion angles; correlations between esds in cell parameters are only
used when they are defined by crystal symmetry. An approximate (isotropic)
treatment of cell esds is used for estimating esds involving l.s. planes.
;

loop_
_geom_bond_atom_site_label_1
_geom_bond_atom_site_label_2
_geom_bond_distance
_geom_bond_site_symmetry_2
_geom_bond_publ_flag
Cu1 O5 1.958(3) 5_565 ?
Cu1 O3 1.965(3) 5_565 ?
Cu1 O7 1.967(3) . ?
Cu1 O1 1.979(3) . ?
Cu1 O9 2.161(3) . ?
Cu1 Cu2 2.6081(7) . ?
Cu2 O6 1.945(3) 5_565 ?
Cu2 O4 1.950(3) 5_565 ?
Cu2 O8 1.970(3) . ?
Cu2 O2 1.971(3) . ?
Cu2 O10 2.118(4) . ?
O1 C1 1.272(5) . ?
O2 C1 1.261(5) . ?
O3 C24 1.252(5) . ?
O3 Cu1 1.965(3) 5_565 ?
O4 C24 1.266(5) . ?
O4 Cu2 1.950(3) 5_565 ?
O5 C25 1.259(5) . ?
O5 Cu1 1.958(3) 5_565 ?
O6 C25 1.269(5) . ?
O6 Cu2 1.945(3) 5_565 ?
O7 C48 1.262(5) . ?
O8 C48 1.249(5) . ?
O9 C50B 1.179(16) . ?
O9 C50A 1.317(13) . ?
O10 C54 1.406(9) . ?
N2 C55 1.400(10) . ?
N2 C54 1.407(10) . ?
N2 C56 1.435(10) . ?
C1 C2 1.500(6) . ?
C2 C3 1.378(6) . ?
C2 C7 1.401(6) . ?
C3 C4 1.371(7) . ?
C3 H3 0.9500 . ?
C4 C5 1.378(7) . ?
C4 H4 0.9500 . ?
C5 C6 1.402(7) . ?
C5 H5 0.9500 . ?
C6 C7 1.384(6) . ?
C6 C8 1.481(6) . ?
C7 H7 0.9500 . ?
C8 C17 1.377(7) . ?
C8 C9 1.431(6) . ?
C9 C10 1.372(7) . ?
C9 H9 0.9500 . ?
C10 C11 1.406(7) . ?
C10 H10 0.9500 . ?
C11 C12 1.432(7) . ?
C11 C16 1.433(6) . ?
C12 C13 1.360(8) . ?
C12 H12 0.9500 . ?
C13 C14 1.450(7) . ?
C13 H13 0.9500 . ?
C14 C15 1.357(7) . ?
C14 C18 1.486(8) . ?
C15 C16 1.425(7) . ?
C15 H15 0.9500 . ?
C16 C17 1.404(7) . ?
C17 H17 0.9500 . ?
C18 C23 1.369(7) . ?
C18 C19 1.418(8) . ?
C19 C20 1.400(9) . ?
C19 H19 0.9500 . ?
C20 C21 1.399(8) . ?
C20 H20 0.9500 . ?
C21 C22 1.375(7) . ?
C21 H21 0.9500 . ?
C22 C23 1.395(7) . ?
C22 C24 1.514(6) . ?
C23 H23 0.9500 . ?
C25 C26 1.498(6) . ?
C26 C31 1.379(6) . ?
C26 C27 1.400(6) . ?
C27 C28 1.378(7) . ?
C27 H27 0.9500 . ?
C28 C29 1.394(7) . ?
C28 H28 0.9500 . ?
C29 C30 1.393(6) . ?
C29 H29 0.9500 . ?
C30 C31 1.388(6) . ?
C30 C32 1.478(6) . ?
C31 H31 0.9500 . ?
C32 C41 1.382(6) . ?
C32 C33 1.428(6) . ?
C33 C34 1.341(6) . ?
C33 H33 0.9500 . ?
C34 C35 1.416(6) . ?
C34 H34 0.9500 . ?
C35 C36 1.398(6) . ?
C35 C40 1.436(6) . ?
C36 C37 1.373(7) . ?
C36 H36 0.9500 . ?
C37 C38 1.395(7) . ?
C37 H37 0.9500 . ?
C38 C39 1.374(6) . ?
C38 C42 1.498(6) . ?
C39 C40 1.416(6) . ?
C39 H39 0.9500 . ?
C40 C41 1.390(6) . ?
C41 H41 0.9500 . ?
C42 C43 1.392(7) . ?
C42 C47 1.399(7) . ?
C43 C44 1.395(7) . ?
C43 H43 0.9500 . ?
C44 C45 1.380(7) . ?
C44 H44 0.9500 . ?
C45 C46 1.394(7) . ?
C45 H45 0.9500 . ?
C46 C47 1.399(6) . ?
C46 C48 1.497(6) . ?
C47 H47 0.9500 . ?
C49 C50A 1.452(13) . ?
C49 N1B 1.61(2) . ?
C49 H49A 0.9598 . ?
C49 H49B 0.9600 . ?
C49 H49C 0.9601 . ?
C51 N1A 1.438(18) . ?
C51 N1B 1.57(2) . ?
C51 H51A 0.9600 . ?
C51 H51B 0.9602 . ?
C51 H51C 0.9601 . ?
C52 N1A 1.545(16) . ?
C52 C50B 1.57(2) . ?
C52 H52A 0.9596 . ?
C52 H52B 0.9601 . ?
C52 H52C 0.9599 . ?
C53 C54 1.515(8) . ?
C53 H53A 0.9800 . ?
C53 H53B 0.9800 . ?
C53 H53C 0.9800 . ?
C55 H55A 0.9800 . ?
C55 H55B 0.9800 . ?
C55 H55C 0.9800 . ?
C56 H56A 0.9800 . ?
C56 H56B 0.9800 . ?
C56 H56C 0.9800 . ?
N1A N1B 0.767(18) . ?
N1A C50B 1.172(18) . ?
N1A C50A 1.37(2) . ?
C50A N1B 0.875(17) . ?
C50A C50B 0.901(17) . ?
N1B C50B 1.24(2) . ?
C50B H52A 1.4752 . ?

loop_
_geom_angle_atom_site_label_1
_geom_angle_atom_site_label_2
_geom_angle_atom_site_label_3
_geom_angle
_geom_angle_site_symmetry_1
_geom_angle_site_symmetry_3
_geom_angle_publ_flag
O5 Cu1 O3 91.19(13) 5_565 5_565 ?
O5 Cu1 O7 169.72(13) 5_565 . ?
O3 Cu1 O7 87.95(13) 5_565 . ?
O5 Cu1 O1 88.77(13) 5_565 . ?
O3 Cu1 O1 167.50(12) 5_565 . ?
O7 Cu1 O1 89.86(13) . . ?
O5 Cu1 O9 91.55(12) 5_565 . ?
O3 Cu1 O9 95.00(12) 5_565 . ?
O7 Cu1 O9 98.73(12) . . ?
O1 Cu1 O9 97.49(12) . . ?
O5 Cu1 Cu2 85.24(9) 5_565 . ?
O3 Cu1 Cu2 86.48(9) 5_565 . ?
O7 Cu1 Cu2 84.48(9) . . ?
O1 Cu1 Cu2 81.07(9) . . ?
O9 Cu1 Cu2 176.50(8) . . ?
O6 Cu2 O4 90.55(13) 5_565 5_565 ?
O6 Cu2 O8 166.66(13) 5_565 . ?
O4 Cu2 O8 89.13(13) 5_565 . ?
O6 Cu2 O2 89.13(13) 5_565 . ?
O4 Cu2 O2 169.51(12) 5_565 . ?
O8 Cu2 O2 88.77(13) . . ?
O6 Cu2 O10 98.91(17) 5_565 . ?
O4 Cu2 O10 90.41(17) 5_565 . ?
O8 Cu2 O10 94.42(17) . . ?
O2 Cu2 O10 100.00(17) . . ?
O6 Cu2 Cu1 83.06(9) 5_565 . ?
O4 Cu2 Cu1 82.00(9) 5_565 . ?
O8 Cu2 Cu1 83.70(9) . . ?
O2 Cu2 Cu1 87.56(9) . . ?
O10 Cu2 Cu1 172.19(17) . . ?
C1 O1 Cu1 125.3(3) . . ?
C1 O2 Cu2 118.5(3) . . ?
C24 O3 Cu1 118.4(3) . 5_565 ?
C24 O4 Cu2 124.4(3) . 5_565 ?
C25 O5 Cu1 120.9(3) . 5_565 ?
C25 O6 Cu2 123.6(3) . 5_565 ?
C48 O7 Cu1 120.4(3) . . ?
C48 O8 Cu2 121.5(3) . . ?
C50B O9 C50A 41.9(9) . . ?
C50B O9 Cu1 122.5(6) . . ?
C50A O9 Cu1 116.0(4) . . ?
C54 O10 Cu2 121.3(5) . . ?
C55 N2 C54 118.7(7) . . ?
C55 N2 C56 128.2(8) . . ?
C54 N2 C56 113.1(8) . . ?
O2 C1 O1 125.1(4) . . ?
O2 C1 C2 117.6(4) . . ?
O1 C1 C2 117.2(4) . . ?
C3 C2 C7 118.5(4) . . ?
C3 C2 C1 121.0(4) . . ?
C7 C2 C1 120.5(4) . . ?
C4 C3 C2 120.6(5) . . ?
C4 C3 H3 119.7 . . ?
C2 C3 H3 119.7 . . ?
C3 C4 C5 120.6(5) . . ?
C3 C4 H4 119.7 . . ?
C5 C4 H4 119.7 . . ?
C4 C5 C6 120.8(5) . . ?
C4 C5 H5 119.6 . . ?
C6 C5 H5 119.6 . . ?
C7 C6 C5 117.4(4) . . ?
C7 C6 C8 121.4(4) . . ?
C5 C6 C8 121.2(4) . . ?
C6 C7 C2 122.0(4) . . ?
C6 C7 H7 119.0 . . ?
C2 C7 H7 119.0 . . ?
C17 C8 C9 118.0(4) . . ?
C17 C8 C6 121.6(4) . . ?
C9 C8 C6 120.4(4) . . ?
C10 C9 C8 121.3(5) . . ?
C10 C9 H9 119.4 . . ?
C8 C9 H9 119.4 . . ?
C9 C10 C11 121.1(4) . . ?
C9 C10 H10 119.5 . . ?
C11 C10 H10 119.5 . . ?
C10 C11 C12 122.9(4) . . ?
C10 C11 C16 118.1(4) . . ?
C12 C11 C16 119.0(5) . . ?
C13 C12 C11 120.8(5) . . ?
C13 C12 H12 119.6 . . ?
C11 C12 H12 119.6 . . ?
C12 C13 C14 120.7(5) . . ?
C12 C13 H13 119.6 . . ?
C14 C13 H13 119.6 . . ?
C15 C14 C13 118.5(5) . . ?
C15 C14 C18 120.7(4) . . ?
C13 C14 C18 120.7(5) . . ?
C14 C15 C16 123.0(4) . . ?
C14 C15 H15 118.5 . . ?
C16 C15 H15 118.5 . . ?
C17 C16 C15 122.6(4) . . ?
C17 C16 C11 119.5(4) . . ?
C15 C16 C11 117.9(4) . . ?
C8 C17 C16 122.0(4) . . ?
C8 C17 H17 119.0 . . ?
C16 C17 H17 119.0 . . ?
C23 C18 C19 117.4(5) . . ?
C23 C18 C14 120.8(5) . . ?
C19 C18 C14 121.8(5) . . ?
C20 C19 C18 120.3(6) . . ?
C20 C19 H19 119.9 . . ?
C18 C19 H19 119.9 . . ?
C21 C20 C19 120.5(5) . . ?
C21 C20 H20 119.8 . . ?
C19 C20 H20 119.8 . . ?
C22 C21 C20 118.9(5) . . ?
C22 C21 H21 120.5 . . ?
C20 C21 H21 120.5 . . ?
C21 C22 C23 120.2(5) . . ?
C21 C22 C24 121.0(4) . . ?
C23 C22 C24 118.7(4) . . ?
C18 C23 C22 122.7(5) . . ?
C18 C23 H23 118.7 . . ?
C22 C23 H23 118.7 . . ?
O3 C24 O4 126.3(4) . . ?
O3 C24 C22 118.0(4) . . ?
O4 C24 C22 115.6(4) . . ?
O5 C25 O6 124.9(4) . . ?
O5 C25 C26 118.4(4) . . ?
O6 C25 C26 116.7(4) . . ?
C31 C26 C27 119.3(4) . . ?
C31 C26 C25 119.5(4) . . ?
C27 C26 C25 121.2(4) . . ?
C28 C27 C26 119.7(4) . . ?
C28 C27 H27 120.1 . . ?
C26 C27 H27 120.1 . . ?
C27 C28 C29 120.2(4) . . ?
C27 C28 H28 119.9 . . ?
C29 C28 H28 119.9 . . ?
C30 C29 C28 120.8(4) . . ?
C30 C29 H29 119.6 . . ?
C28 C29 H29 119.6 . . ?
C31 C30 C29 117.9(4) . . ?
C31 C30 C32 119.4(4) . . ?
C29 C30 C32 122.6(4) . . ?
C26 C31 C30 122.1(4) . . ?
C26 C31 H31 119.0 . . ?
C30 C31 H31 119.0 . . ?
C41 C32 C33 117.3(4) . . ?
C41 C32 C30 121.2(4) . . ?
C33 C32 C30 121.3(4) . . ?
C34 C33 C32 121.6(4) . . ?
C34 C33 H33 119.2 . . ?
C32 C33 H33 119.2 . . ?
C33 C34 C35 121.6(4) . . ?
C33 C34 H34 119.2 . . ?
C35 C34 H34 119.2 . . ?
C36 C35 C34 123.1(4) . . ?
C36 C35 C40 119.1(4) . . ?
C34 C35 C40 117.9(4) . . ?
C37 C36 C35 120.9(4) . . ?
C37 C36 H36 119.6 . . ?
C35 C36 H36 119.6 . . ?
C36 C37 C38 121.3(4) . . ?
C36 C37 H37 119.4 . . ?
C38 C37 H37 119.4 . . ?
C39 C38 C37 119.0(4) . . ?
C39 C38 C42 121.7(4) . . ?
C37 C38 C42 119.3(4) . . ?
C38 C39 C40 122.0(4) . . ?
C38 C39 H39 119.0 . . ?
C40 C39 H39 119.0 . . ?
C41 C40 C39 123.6(4) . . ?
C41 C40 C35 118.7(4) . . ?
C39 C40 C35 117.8(4) . . ?
C32 C41 C40 122.9(4) . . ?
C32 C41 H41 118.6 . . ?
C40 C41 H41 118.6 . . ?
C43 C42 C47 117.7(4) . . ?
C43 C42 C38 121.6(4) . . ?
C47 C42 C38 120.7(4) . . ?
C42 C43 C44 121.3(5) . . ?
C42 C43 H43 119.4 . . ?
C44 C43 H43 119.4 . . ?
C45 C44 C43 120.2(5) . . ?
C45 C44 H44 119.9 . . ?
C43 C44 H44 119.9 . . ?
C44 C45 C46 119.9(5) . . ?
C44 C45 H45 120.0 . . ?
C46 C45 H45 120.0 . . ?
C45 C46 C47 119.3(4) . . ?
C45 C46 C48 121.7(4) . . ?
C47 C46 C48 119.0(4) . . ?
C46 C47 C42 121.5(4) . . ?
C46 C47 H47 119.2 . . ?
C42 C47 H47 119.2 . . ?
O8 C48 O7 126.7(4) . . ?
O8 C48 C46 116.3(4) . . ?
O7 C48 C46 116.9(4) . . ?
C50A C49 N1B 32.6(5) . . ?
C50A C49 H49A 143.3 . . ?
N1B C49 H49A 110.6 . . ?
C50A C49 H49B 91.1 . . ?
N1B C49 H49B 109.0 . . ?
H49A C49 H49B 109.5 . . ?
C50A C49 H49C 90.6 . . ?
N1B C49 H49C 108.7 . . ?
H49A C49 H49C 109.5 . . ?
H49B C49 H49C 109.5 . . ?
N1A C51 N1B 29.2(6) . . ?
N1A C51 H51A 109.6 . . ?
N1B C51 H51A 81.2 . . ?
N1A C51 H51B 109.4 . . ?
N1B C51 H51B 127.7 . . ?
H51A C51 H51B 109.5 . . ?
N1A C51 H51C 109.4 . . ?
N1B C51 H51C 114.6 . . ?
H51A C51 H51C 109.5 . . ?
H51B C51 H51C 109.4 . . ?
N1A C52 C50B 44.2(8) . . ?
N1A C52 H52A 109.4 . . ?
C50B C52 H52A 66.3 . . ?
N1A C52 H52B 108.9 . . ?
C50B C52 H52B 114.9 . . ?
H52A C52 H52B 109.5 . . ?
N1A C52 H52C 110.1 . . ?
C50B C52 H52C 134.1 . . ?
H52A C52 H52C 109.5 . . ?
H52B C52 H52C 109.4 . . ?
C54 C53 H53A 109.5 . . ?
C54 C53 H53B 109.5 . . ?
H53A C53 H53B 109.5 . . ?
C54 C53 H53C 109.5 . . ?
H53A C53 H53C 109.5 . . ?
H53B C53 H53C 109.5 . . ?
O10 C54 N2 118.7(8) . . ?
O10 C54 C53 118.5(7) . . ?
N2 C54 C53 119.6(8) . . ?
N2 C55 H55A 109.5 . . ?
N2 C55 H55B 109.5 . . ?
H55A C55 H55B 109.5 . . ?
N2 C55 H55C 109.5 . . ?
H55A C55 H55C 109.5 . . ?
H55B C55 H55C 109.5 . . ?
N2 C56 H56A 109.5 . . ?
N2 C56 H56B 109.5 . . ?
H56A C56 H56B 109.5 . . ?
N2 C56 H56C 109.5 . . ?
H56A C56 H56C 109.5 . . ?
H56B C56 H56C 109.5 . . ?
N1B N1A C50B 76(2) . . ?
N1B N1A C50A 36.0(18) . . ?
C50B N1A C50A 40.6(8) . . ?
N1B N1A C51 85(2) . . ?
C50B N1A C51 159.5(15) . . ?
C50A N1A C51 120.7(12) . . ?
N1B N1A C52 145(3) . . ?
C50B N1A C52 69.1(15) . . ?
C50A N1A C52 109.7(14) . . ?
C51 N1A C52 128.3(11) . . ?
N1B C50A C50B 88(2) . . ?
N1B C50A O9 149(2) . . ?
C50B C50A O9 60.8(13) . . ?
N1B C50A N1A 31.0(14) . . ?
C50B C50A N1A 57.7(13) . . ?
O9 C50A N1A 118.4(11) . . ?
N1B C50A C49 83.9(18) . . ?
C50B C50A C49 172.3(19) . . ?
O9 C50A C49 126.9(10) . . ?
N1A C50A C49 114.7(13) . . ?
N1A N1B C50A 113(3) . . ?
N1A N1B C50B 66.8(19) . . ?
C50A N1B C50B 46.7(14) . . ?
N1A N1B C51 66(3) . . ?
C50A N1B C51 178(2) . . ?
C50B N1B C51 132(2) . . ?
N1A N1B C49 172(2) . . ?
C50A N1B C49 63.4(18) . . ?
C50B N1B C49 110(2) . . ?
C51 N1B C49 117.7(10) . . ?
C50A C50B N1A 81.7(15) . . ?
C50A C50B O9 77.3(19) . . ?
N1A C50B O9 159(2) . . ?
C50A C50B N1B 44.9(14) . . ?
N1A C50B N1B 37.0(9) . . ?
O9 C50B N1B 122(2) . . ?
C50A C50B C52 148.4(19) . . ?
N1A C50B C52 66.7(13) . . ?
O9 C50B C52 134.2(15) . . ?
N1B C50B C52 103.5(18) . . ?
C50A C50B H52A 171.7 . . ?
N1A C50B H52A 102.4 . . ?
O9 C50B H52A 97.9 . . ?
N1B C50B H52A 139.4 . . ?
C52 C50B H52A 36.6 . . ?

loop_
_geom_torsion_atom_site_label_1
_geom_torsion_atom_site_label_2
_geom_torsion_atom_site_label_3
_geom_torsion_atom_site_label_4
_geom_torsion
_geom_torsion_site_symmetry_1
_geom_torsion_site_symmetry_2
_geom_torsion_site_symmetry_3
_geom_torsion_site_symmetry_4
_geom_torsion_publ_flag
O5 Cu1 Cu2 O6 10.89(13) 5_565 . . 5_565 ?
O3 Cu1 Cu2 O6 -80.61(13) 5_565 . . 5_565 ?
O7 Cu1 Cu2 O6 -168.88(13) . . . 5_565 ?
O1 Cu1 Cu2 O6 100.39(13) . . . 5_565 ?
O9 Cu1 Cu2 O6 34.5(15) . . . 5_565 ?
O5 Cu1 Cu2 O4 102.42(13) 5_565 . . 5_565 ?
O3 Cu1 Cu2 O4 10.93(13) 5_565 . . 5_565 ?
O7 Cu1 Cu2 O4 -77.35(14) . . . 5_565 ?
O1 Cu1 Cu2 O4 -168.07(13) . . . 5_565 ?
O9 Cu1 Cu2 O4 126.1(15) . . . 5_565 ?
O5 Cu1 Cu2 O8 -167.57(13) 5_565 . . . ?
O3 Cu1 Cu2 O8 100.94(13) 5_565 . . . ?
O7 Cu1 Cu2 O8 12.66(14) . . . . ?
O1 Cu1 Cu2 O8 -78.06(13) . . . . ?
O9 Cu1 Cu2 O8 -143.9(15) . . . . ?
O5 Cu1 Cu2 O2 -78.54(13) 5_565 . . . ?
O3 Cu1 Cu2 O2 -170.03(13) 5_565 . . . ?
O7 Cu1 Cu2 O2 101.69(13) . . . . ?
O1 Cu1 Cu2 O2 10.97(12) . . . . ?
O9 Cu1 Cu2 O2 -54.9(15) . . . . ?
O5 Cu1 Cu2 O10 116.0(10) 5_565 . . . ?
O3 Cu1 Cu2 O10 24.5(10) 5_565 . . . ?
O7 Cu1 Cu2 O10 -63.8(10) . . . . ?
O1 Cu1 Cu2 O10 -154.5(10) . . . . ?
O9 Cu1 Cu2 O10 139.6(18) . . . . ?
O5 Cu1 O1 C1 71.9(3) 5_565 . . . ?
O3 Cu1 O1 C1 -18.1(8) 5_565 . . . ?
O7 Cu1 O1 C1 -97.9(3) . . . . ?
O9 Cu1 O1 C1 163.3(3) . . . . ?
Cu2 Cu1 O1 C1 -13.5(3) . . . . ?
O6 Cu2 O2 C1 -95.8(3) 5_565 . . . ?
O4 Cu2 O2 C1 -7.4(9) 5_565 . . . ?
O8 Cu2 O2 C1 71.1(3) . . . . ?
O10 Cu2 O2 C1 165.4(3) . . . . ?
Cu1 Cu2 O2 C1 -12.7(3) . . . . ?
O5 Cu1 O7 C48 -16.3(9) 5_565 . . . ?
O3 Cu1 O7 C48 -101.6(3) 5_565 . . . ?
O1 Cu1 O7 C48 66.1(3) . . . . ?
O9 Cu1 O7 C48 163.6(3) . . . . ?
Cu2 Cu1 O7 C48 -15.0(3) . . . . ?
O6 Cu2 O8 C48 -21.5(8) 5_565 . . . ?
O4 Cu2 O8 C48 67.2(4) 5_565 . . . ?
O2 Cu2 O8 C48 -102.5(4) . . . . ?
O10 Cu2 O8 C48 157.6(4) . . . . ?
Cu1 Cu2 O8 C48 -14.8(3) . . . . ?
O5 Cu1 O9 C50B -31.3(12) 5_565 . . . ?
O3 Cu1 O9 C50B 60.0(12) 5_565 . . . ?
O7 Cu1 O9 C50B 148.7(12) . . . . ?
O1 Cu1 O9 C50B -120.3(12) . . . . ?
Cu2 Cu1 O9 C50B -55(2) . . . . ?
O5 Cu1 O9 C50A 16.5(6) 5_565 . . . ?
O3 Cu1 O9 C50A 107.8(6) 5_565 . . . ?
O7 Cu1 O9 C50A -163.5(6) . . . . ?
O1 Cu1 O9 C50A -72.5(6) . . . . ?
Cu2 Cu1 O9 C50A -7.1(18) . . . . ?
O6 Cu2 O10 C54 -176.3(5) 5_565 . . . ?
O4 Cu2 O10 C54 93.1(5) 5_565 . . . ?
O8 Cu2 O10 C54 3.9(5) . . . . ?
O2 Cu2 O10 C54 -85.6(5) . . . . ?
Cu1 Cu2 O10 C54 79.6(11) . . . . ?
Cu2 O2 C1 O1 6.8(6) . . . . ?
Cu2 O2 C1 C2 -171.3(3) . . . . ?
Cu1 O1 C1 O2 8.2(6) . . . . ?
Cu1 O1 C1 C2 -173.7(3) . . . . ?
O2 C1 C2 C3 174.7(4) . . . . ?
O1 C1 C2 C3 -3.5(6) . . . . ?
O2 C1 C2 C7 -5.2(6) . . . . ?
O1 C1 C2 C7 176.5(4) . . . . ?
C7 C2 C3 C4 0.0(7) . . . . ?
C1 C2 C3 C4 -180.0(4) . . . . ?
C2 C3 C4 C5 -1.3(8) . . . . ?
C3 C4 C5 C6 1.7(8) . . . . ?
C4 C5 C6 C7 -0.7(7) . . . . ?
C4 C5 C6 C8 179.0(5) . . . . ?
C5 C6 C7 C2 -0.6(7) . . . . ?
C8 C6 C7 C2 179.7(4) . . . . ?
C3 C2 C7 C6 1.0(6) . . . . ?
C1 C2 C7 C6 -179.0(4) . . . . ?
C7 C6 C8 C17 32.2(7) . . . . ?
C5 C6 C8 C17 -147.5(5) . . . . ?
C7 C6 C8 C9 -145.7(5) . . . . ?
C5 C6 C8 C9 34.6(7) . . . . ?
C17 C8 C9 C10 -1.9(8) . . . . ?
C6 C8 C9 C10 176.0(5) . . . . ?
C8 C9 C10 C11 -0.9(9) . . . . ?
C9 C10 C11 C12 -176.8(6) . . . . ?
C9 C10 C11 C16 2.9(9) . . . . ?
C10 C11 C12 C13 177.7(6) . . . . ?
C16 C11 C12 C13 -2.0(9) . . . . ?
C11 C12 C13 C14 4.1(10) . . . . ?
C12 C13 C14 C15 -3.5(10) . . . . ?
C12 C13 C14 C18 179.4(6) . . . . ?
C13 C14 C15 C16 0.8(10) . . . . ?
C18 C14 C15 C16 177.9(6) . . . . ?
C14 C15 C16 C17 -176.9(5) . . . . ?
C14 C15 C16 C11 1.2(9) . . . . ?
C10 C11 C16 C17 -2.2(8) . . . . ?
C12 C11 C16 C17 177.6(5) . . . . ?
C10 C11 C16 C15 179.7(5) . . . . ?
C12 C11 C16 C15 -0.6(8) . . . . ?
C9 C8 C17 C16 2.6(8) . . . . ?
C6 C8 C17 C16 -175.3(5) . . . . ?
C15 C16 C17 C8 177.5(5) . . . . ?
C11 C16 C17 C8 -0.6(8) . . . . ?
C15 C14 C18 C23 -27.6(10) . . . . ?
C13 C14 C18 C23 149.5(6) . . . . ?
C15 C14 C18 C19 152.0(7) . . . . ?
C13 C14 C18 C19 -30.9(10) . . . . ?
C23 C18 C19 C20 0.8(11) . . . . ?
C14 C18 C19 C20 -178.7(7) . . . . ?
C18 C19 C20 C21 -1.3(12) . . . . ?
C19 C20 C21 C22 2.2(11) . . . . ?
C20 C21 C22 C23 -2.6(9) . . . . ?
C20 C21 C22 C24 -179.6(6) . . . . ?
C19 C18 C23 C22 -1.3(9) . . . . ?
C14 C18 C23 C22 178.2(6) . . . . ?
C21 C22 C23 C18 2.3(9) . . . . ?
C24 C22 C23 C18 179.3(5) . . . . ?
Cu1 O3 C24 O4 -10.3(6) 5_565 . . . ?
Cu1 O3 C24 C22 169.6(3) 5_565 . . . ?
Cu2 O4 C24 O3 -4.3(6) 5_565 . . . ?
Cu2 O4 C24 C22 175.7(3) 5_565 . . . ?
C21 C22 C24 O3 -0.4(7) . . . . ?
C23 C22 C24 O3 -177.4(4) . . . . ?
C21 C22 C24 O4 179.5(5) . . . . ?
C23 C22 C24 O4 2.6(7) . . . . ?
Cu1 O5 C25 O6 -4.5(6) 5_565 . . . ?
Cu1 O5 C25 C26 174.7(3) 5_565 . . . ?
Cu2 O6 C25 O5 -10.5(6) 5_565 . . . ?
Cu2 O6 C25 C26 170.3(3) 5_565 . . . ?
O5 C25 C26 C31 -178.8(4) . . . . ?
O6 C25 C26 C31 0.5(6) . . . . ?
O5 C25 C26 C27 -0.1(6) . . . . ?
O6 C25 C26 C27 179.1(4) . . . . ?
C31 C26 C27 C28 -1.4(7) . . . . ?
C25 C26 C27 C28 179.9(4) . . . . ?
C26 C27 C28 C29 1.6(7) . . . . ?
C27 C28 C29 C30 -1.3(7) . . . . ?
C28 C29 C30 C31 0.9(7) . . . . ?
C28 C29 C30 C32 178.7(4) . . . . ?
C27 C26 C31 C30 1.1(6) . . . . ?
C25 C26 C31 C30 179.7(4) . . . . ?
C29 C30 C31 C26 -0.8(6) . . . . ?
C32 C30 C31 C26 -178.7(4) . . . . ?
C31 C30 C32 C41 -32.9(6) . . . . ?
C29 C30 C32 C41 149.3(4) . . . . ?
C31 C30 C32 C33 142.5(4) . . . . ?
C29 C30 C32 C33 -35.3(6) . . . . ?
C41 C32 C33 C34 2.1(6) . . . . ?
C30 C32 C33 C34 -173.5(4) . . . . ?
C32 C33 C34 C35 0.4(6) . . . . ?
C33 C34 C35 C36 179.5(4) . . . . ?
C33 C34 C35 C40 -2.0(6) . . . . ?
C34 C35 C36 C37 179.0(4) . . . . ?
C40 C35 C36 C37 0.4(7) . . . . ?
C35 C36 C37 C38 0.0(7) . . . . ?
C36 C37 C38 C39 -0.6(7) . . . . ?
C36 C37 C38 C42 177.6(4) . . . . ?
C37 C38 C39 C40 0.7(6) . . . . ?
C42 C38 C39 C40 -177.5(4) . . . . ?
C38 C39 C40 C41 179.7(4) . . . . ?
C38 C39 C40 C35 -0.2(6) . . . . ?
C36 C35 C40 C41 179.7(4) . . . . ?
C34 C35 C40 C41 1.1(6) . . . . ?
C36 C35 C40 C39 -0.3(6) . . . . ?
C34 C35 C40 C39 -178.9(4) . . . . ?
C33 C32 C41 C40 -2.9(6) . . . . ?
C30 C32 C41 C40 172.6(4) . . . . ?
C39 C40 C41 C32 -178.6(4) . . . . ?
C35 C40 C41 C32 1.4(6) . . . . ?
C39 C38 C42 C43 -147.7(5) . . . . ?
C37 C38 C42 C43 34.2(7) . . . . ?
C39 C38 C42 C47 32.8(7) . . . . ?
C37 C38 C42 C47 -145.3(5) . . . . ?
C47 C42 C43 C44 2.0(8) . . . . ?
C38 C42 C43 C44 -177.5(5) . . . . ?
C42 C43 C44 C45 -1.2(9) . . . . ?
C43 C44 C45 C46 0.2(9) . . . . ?
C44 C45 C46 C47 0.0(8) . . . . ?
C44 C45 C46 C48 179.9(5) . . . . ?
C45 C46 C47 C42 0.9(7) . . . . ?
C48 C46 C47 C42 -179.0(4) . . . . ?
C43 C42 C47 C46 -1.8(7) . . . . ?
C38 C42 C47 C46 177.7(4) . . . . ?
Cu2 O8 C48 O7 8.3(7) . . . . ?
Cu2 O8 C48 C46 -172.4(3) . . . . ?
Cu1 O7 C48 O8 8.8(6) . . . . ?
Cu1 O7 C48 C46 -170.5(3) . . . . ?
C45 C46 C48 O8 179.0(5) . . . . ?
C47 C46 C48 O8 -1.1(6) . . . . ?
C45 C46 C48 O7 -1.6(7) . . . . ?
C47 C46 C48 O7 178.2(4) . . . . ?
Cu2 O10 C54 N2 -130.8(6) . . . . ?
Cu2 O10 C54 C53 69.6(10) . . . . ?
C55 N2 C54 O10 19.9(11) . . . . ?
C56 N2 C54 O10 -158.8(7) . . . . ?
C55 N2 C54 C53 179.2(10) . . . . ?
C56 N2 C54 C53 0.5(13) . . . . ?
N1B C51 N1A C50B 22(3) . . . . ?
N1B C51 N1A C50A 1.2(12) . . . . ?
N1B C51 N1A C52 167(3) . . . . ?
C50B C52 N1A N1B -11(4) . . . . ?
C50B C52 N1A C50A -0.5(8) . . . . ?
C50B C52 N1A C51 -167.4(17) . . . . ?
C50B O9 C50A N1B 1(2) . . . . ?
Cu1 O9 C50A N1B -110(3) . . . . ?
Cu1 O9 C50A C50B -110.6(10) . . . . ?
C50B O9 C50A N1A -4.1(10) . . . . ?
Cu1 O9 C50A N1A -114.7(8) . . . . ?
C50B O9 C50A C49 179.3(15) . . . . ?
Cu1 O9 C50A C49 68.7(9) . . . . ?
C50B N1A C50A N1B -171(3) . . . . ?
C51 N1A C50A N1B -2(2) . . . . ?
C52 N1A C50A N1B -170(3) . . . . ?
N1B N1A C50A C50B 171(3) . . . . ?
C51 N1A C50A C50B 168.7(16) . . . . ?
C52 N1A C50A C50B 0.7(12) . . . . ?
N1B N1A C50A O9 175(3) . . . . ?
C50B N1A C50A O9 4.2(11) . . . . ?
C51 N1A C50A O9 173.0(9) . . . . ?
C52 N1A C50A O9 4.9(13) . . . . ?
N1B N1A C50A C49 -8(3) . . . . ?
C50B N1A C50A C49 -178.7(14) . . . . ?
C51 N1A C50A C49 -10.0(15) . . . . ?
C52 N1A C50A C49 -178.0(8) . . . . ?
N1B C49 C50A C50B -4(9) . . . . ?
N1B C49 C50A O9 -179.1(17) . . . . ?
N1B C49 C50A N1A 4.2(13) . . . . ?
C50B N1A N1B C50A 6(2) . . . . ?
C51 N1A N1B C50A 178.3(18) . . . . ?
C52 N1A N1B C50A 17(5) . . . . ?
C50A N1A N1B C50B -6(2) . . . . ?
C51 N1A N1B C50B 172.1(10) . . . . ?
C52 N1A N1B C50B 10(3) . . . . ?
C50B N1A N1B C51 -172.1(10) . . . . ?
C50A N1A N1B C51 -178.3(18) . . . . ?
C52 N1A N1B C51 -162(4) . . . . ?
C50B N1A N1B C49 67(23) . . . . ?
C50A N1A N1B C49 61(22) . . . . ?
C51 N1A N1B C49 -121(23) . . . . ?
C52 N1A N1B C49 77(23) . . . . ?
C50B C50A N1B N1A -8(3) . . . . ?
O9 C50A N1B N1A -9(4) . . . . ?
C49 C50A N1B N1A 173(2) . . . . ?
O9 C50A N1B C50B -1(2) . . . . ?
N1A C50A N1B C50B 8(3) . . . . ?
C49 C50A N1B C50B -179.5(12) . . . . ?
C50B C50A N1B C51 51(75) . . . . ?
O9 C50A N1B C51 50(76) . . . . ?
N1A C50A N1B C51 59(75) . . . . ?
C49 C50A N1B C51 -128(75) . . . . ?
C50B C50A N1B C49 179.5(12) . . . . ?
O9 C50A N1B C49 179(3) . . . . ?
N1A C50A N1B C49 -173(2) . . . . ?
N1A C51 N1B C50A -60(75) . . . . ?
N1A C51 N1B C50B -9.8(13) . . . . ?
N1A C51 N1B C49 173(2) . . . . ?
C50A C49 N1B N1A -64(22) . . . . ?
C50A C49 N1B C50B 0.4(9) . . . . ?
C50A C49 N1B C51 178.4(18) . . . . ?
N1B C50A C50B N1A 4.8(16) . . . . ?
O9 C50A C50B N1A -175.7(11) . . . . ?
C49 C50A C50B N1A 9(10) . . . . ?
N1B C50A C50B O9 -179.5(12) . . . . ?
N1A C50A C50B O9 175.7(11) . . . . ?
C49 C50A C50B O9 -176(9) . . . . ?
O9 C50A C50B N1B 179.5(12) . . . . ?
N1A C50A C50B N1B -4.8(16) . . . . ?
C49 C50A C50B N1B 4(9) . . . . ?
N1B C50A C50B C52 3(3) . . . . ?
O9 C50A C50B C52 -177(3) . . . . ?
N1A C50A C50B C52 -1(2) . . . . ?
C49 C50A C50B C52 7(12) . . . . ?
N1B N1A C50B C50A -5.6(19) . . . . ?
C51 N1A C50B C50A -29(4) . . . . ?
C52 N1A C50B C50A -179.3(12) . . . . ?
N1B N1A C50B O9 -17(4) . . . . ?
C50A N1A C50B O9 -11(3) . . . . ?
C51 N1A C50B O9 -40(6) . . . . ?
C52 N1A C50B O9 169(4) . . . . ?
C50A N1A C50B N1B 5.6(19) . . . . ?
C51 N1A C50B N1B -23(3) . . . . ?
C52 N1A C50B N1B -174(2) . . . . ?
N1B N1A C50B C52 174(2) . . . . ?
C50A N1A C50B C52 179.3(12) . . . . ?
C51 N1A C50B C52 151(4) . . . . ?
Cu1 O9 C50B C50A 93.9(11) . . . . ?
C50A O9 C50B N1A 12(3) . . . . ?
Cu1 O9 C50B N1A 105(3) . . . . ?
C50A O9 C50B N1B -0.4(10) . . . . ?
Cu1 O9 C50B N1B 93.5(13) . . . . ?
C50A O9 C50B C52 178(2) . . . . ?
Cu1 O9 C50B C52 -88.3(14) . . . . ?
N1A N1B C50B C50A 172(3) . . . . ?
C51 N1B C50B C50A -178(2) . . . . ?
C49 N1B C50B C50A -0.5(11) . . . . ?
C50A N1B C50B N1A -172(3) . . . . ?
C51 N1B C50B N1A 9.8(13) . . . . ?
C49 N1B C50B N1A -173(2) . . . . ?
N1A N1B C50B O9 172.7(19) . . . . ?
C50A N1B C50B O9 0.6(14) . . . . ?
C51 N1B C50B O9 -177.5(11) . . . . ?
C49 N1B C50B O9 0.1(17) . . . . ?
N1A N1B C50B C52 -6.0(19) . . . . ?
C50A N1B C50B C52 -178.1(16) . . . . ?
C51 N1B C50B C52 3.8(18) . . . . ?
C49 N1B C50B C52 -178.6(8) . . . . ?
N1A C52 C50B C50A 1(2) . . . . ?
N1A C52 C50B O9 -174.6(18) . . . . ?
N1A C52 C50B N1B 3.9(12) . . . . ?

_diffrn_measured_fraction_theta_max 0.999
_diffrn_reflns_theta_full        25.50
_diffrn_measured_fraction_theta_full 0.999
_refine_diff_density_max         1.232
_refine_diff_density_min         -0.810
_refine_diff_density_rms         0.097


# start Validation Reply Form

_vrf_PLAT241_I                   
;
PROBLEM: Check High Ueq as Compared to Neighbors for C51
RESPONSE: the coordinated solvent molecule is disordered.
;
_vrf_PLAT601_I                   
;
PROBLEM: Structure Contains Solvent Accessible VOIDS of . 912 A**3
RESPONSE: Diffraction peaks from uncoordinated solvent molecules have been removed
by SQUEEZE function of PLATON.
;
_vrf_PLAT770_I                   
;
PROBLEM: Suspect C-H Bond in CIF: C50B -- H52A .. 1.48 Ang.
RESPONSE: due to the disorder of the coordinated solvent molecule.
;
####################################################################### 
# 
# This file contains crystal structure data downloaded from the 
# Cambridge Structural Database (CSD) hosted by the Cambridge 
# Crystallographic Data Centre (CCDC).
# 
# Full information about CCDC data access policies and citation 
# guidelines are available at http://www.ccdc.cam.ac.uk/access/V1 
# 
# Audit and citation data items may have been added by the CCDC. 
# Please retain this information to preserve the provenance of 
# this file and to allow appropriate attribution of the data. 
# 
#######################################################################

data_PCN-88
_audit_block_doi                 10.5517/ccy427c
_database_code_depnum_ccdc_archive 'CCDC 867852'
loop_
_citation_id
_citation_doi
_citation_year
1 10.1038/ncomms2552 2013
_audit_update_record             
;
2012-02-20 deposited with the CCDC.	2019-02-14 downloaded from the CCDC.
;
#TrackingRef '4-PCN-88.cif'


_audit_creation_method           SHELXL-97
_chemical_name_systematic        
;
?
;
_chemical_name_common            ?
_chemical_melting_point          ?
_chemical_formula_moiety         'C78 H36 Cu6 N0 O30'
_chemical_formula_sum            'C78 H36 Cu6 N0 O30'
_chemical_formula_weight         1834.3

loop_
_atom_type_symbol
_atom_type_description
_atom_type_scat_dispersion_real
_atom_type_scat_dispersion_imag
_atom_type_scat_source
C C 0.0033 0.0016 'International Tables Vol C Tables 4.2.6.8 and 6.1.1.4'
H H 0.0000 0.0000 'International Tables Vol C Tables 4.2.6.8 and 6.1.1.4'
Cu Cu 0.3201 1.2651 'International Tables Vol C Tables 4.2.6.8 and 6.1.1.4'
N N 0.0061 0.0033 'International Tables Vol C Tables 4.2.6.8 and 6.1.1.4'
O O 0.0106 0.0060 'International Tables Vol C Tables 4.2.6.8 and 6.1.1.4'

_symmetry_cell_setting           Orthorhombic
_symmetry_space_group_name_H-M   Imm2
_symmetry_Hall_group_name_H-M    'I 2 -2'


loop_
_symmetry_equiv_pos_as_xyz
'x, y, z'
'-x, -y, z'
'-x, y, z'
'x, -y, z'
'x+1/2, y+1/2, z+1/2'
'-x+1/2, -y+1/2, z+1/2'
'-x+1/2, y+1/2, z+1/2'
'x+1/2, -y+1/2, z+1/2'

_cell_length_a                   27.547(4)
_cell_length_b                   36.559(5)
_cell_length_c                   18.413(2)
_cell_angle_alpha                90.00
_cell_angle_beta                 90.00
_cell_angle_gamma                90.00
_cell_volume                     18544(4)
_cell_formula_units_Z            4
_cell_measurement_temperature    110(2)
_cell_measurement_reflns_used    9959
_cell_measurement_theta_min      2.21
_cell_measurement_theta_max      21.29

_exptl_crystal_description       Plate
_exptl_crystal_colour            Blue
_exptl_crystal_size_max          0.34
_exptl_crystal_size_mid          0.20
_exptl_crystal_size_min          0.18
_exptl_crystal_density_meas      ?
_exptl_crystal_density_diffrn    0.657
_exptl_crystal_density_method    'not measured'
_exptl_crystal_F_000             3672
_exptl_absorpt_coefficient_mu    0.711
_exptl_absorpt_correction_type   Multi-Scan
_exptl_absorpt_correction_T_min  0.7940
_exptl_absorpt_correction_T_max  0.8826
_exptl_absorpt_process_details   SADABS

_exptl_special_details           
;
?
;

_diffrn_ambient_temperature      110(2)
_diffrn_radiation_wavelength     0.71073
_diffrn_radiation_type           MoK\a
_diffrn_radiation_source         'fine-focus sealed tube'
_diffrn_radiation_monochromator  graphite
_diffrn_measurement_device_type  'BRUKER APEX-II CCD'
_diffrn_measurement_method       'phi and omega scans'
_diffrn_detector_area_resol_mean ?
_diffrn_reflns_number            99582
_diffrn_reflns_av_R_equivalents  0.0803
_diffrn_reflns_av_sigmaI/netI    0.0783
_diffrn_reflns_limit_h_min       -35
_diffrn_reflns_limit_h_max       35
_diffrn_reflns_limit_k_min       -46
_diffrn_reflns_limit_k_max       46
_diffrn_reflns_limit_l_min       -23
_diffrn_reflns_limit_l_max       23
_diffrn_reflns_theta_min         1.74
_diffrn_reflns_theta_max         27.23
_reflns_number_total             21359
_reflns_number_gt                14841
_reflns_threshold_expression     I>2sigma(I)

_computing_data_collection       'Bruker APEX-II'
_computing_cell_refinement       'Bruker SAINT'
_computing_data_reduction        'Bruker SAINT'
_computing_structure_solution    'SHELXS-97 (Sheldrick, 2008)'
_computing_structure_refinement  'SHELXL-97 (Sheldrick, 2008)'
_computing_molecular_graphics    'Bruker SHELXTL'
_computing_publication_material  'Bruker SHELXTL'

_refine_special_details          
;
Refinement of F^2^ against ALL reflections. The weighted R-factor wR and
goodness of fit S are based on F^2^, conventional R-factors R are based
on F, with F set to zero for negative F^2^. The threshold expression of
F^2^ > 2sigma(F^2^) is used only for calculating R-factors(gt) etc. and is
not relevant to the choice of reflections for refinement. R-factors based
on F^2^ are statistically about twice as large as those based on F, and R-
factors based on ALL data will be even larger.
;

_refine_ls_structure_factor_coef Fsqd
_refine_ls_matrix_type           full
_refine_ls_weighting_scheme      calc
_refine_ls_weighting_details     
'calc w=1/[\s^2^(Fo^2^)+(0.0422P)^2^+0.0000P] where P=(Fo^2^+2Fc^2^)/3'
_atom_sites_solution_primary     direct
_atom_sites_solution_secondary   difmap
_atom_sites_solution_hydrogens   geom
_refine_ls_hydrogen_treatment    constr
_refine_ls_extinction_method     none
_refine_ls_extinction_coef       ?

_refine_ls_number_reflns         21359
_refine_ls_number_parameters     529
_refine_ls_number_restraints     1
_refine_ls_R_factor_all          0.0662
_refine_ls_R_factor_gt           0.0436
_refine_ls_wR_factor_ref         0.0921
_refine_ls_wR_factor_gt          0.0866
_refine_ls_goodness_of_fit_ref   0.886
_refine_ls_restrained_S_all      0.886
_refine_ls_shift/su_max          0.001
_refine_ls_shift/su_mean         0.000

loop_
_atom_site_label
_atom_site_type_symbol
_atom_site_fract_x
_atom_site_fract_y
_atom_site_fract_z
_atom_site_U_iso_or_equiv
_atom_site_adp_type
_atom_site_occupancy
_atom_site_symmetry_multiplicity
_atom_site_calc_flag
_atom_site_refinement_flags
_atom_site_disorder_assembly
_atom_site_disorder_group
Cu1 Cu 0.0000 0.100735(10) 0.19256(3) 0.02787(10) Uani 1 2 d S . .
Cu2 Cu 0.0000 0.173286(11) 0.19163(3) 0.03203(11) Uani 1 2 d S . .
Cu3 Cu 0.229477(13) 0.273309(9) 0.377001(19) 0.03635(9) Uani 1 1 d . . .
Cu4 Cu 0.290773(13) 0.231443(9) 0.45306(2) 0.03688(9) Uani 1 1 d . . .
O1 O 0.21732(8) 0.19082(6) -0.11413(13) 0.0520(6) Uani 1 1 d . . .
O2 O 0.16708(7) 0.22625(5) -0.05042(14) 0.0516(5) Uani 1 1 d . . .
O3 O 0.04978(8) 0.10725(5) 0.11581(12) 0.0463(6) Uani 1 1 d . . .
O4 O 0.04926(8) 0.16792(6) 0.11284(12) 0.0490(6) Uani 1 1 d . . .
O5 O 0.04945(8) 0.10516(5) 0.26612(11) 0.0447(5) Uani 1 1 d . . .
O6 O 0.05024(7) 0.16699(5) 0.26420(11) 0.0396(5) Uani 1 1 d . . .
O7 O 0.24057(8) 0.19424(6) 0.44934(15) 0.0564(6) Uani 1 1 d . . .
O8 O 0.18998(7) 0.22798(6) 0.38234(14) 0.0542(6) Uani 1 1 d . . .
O9 O 0.20423(8) 0.28920(6) 0.46997(12) 0.0553(6) Uani 1 1 d . . .
O10 O 0.25618(8) 0.25470(7) 0.53346(11) 0.0517(6) Uani 1 1 d . . .
O11 O 0.18785(8) 0.28345(6) 0.85393(11) 0.0525(6) Uani 1 1 d . . .
O12 O 0.23933(8) 0.24698(6) 0.79184(11) 0.0514(6) Uani 1 1 d . . .
O13 O 0.0000 0.04343(8) 0.1834(3) 0.1051(15) Uani 1 2 d S . .
O14 O 0.0000 0.23178(7) 0.2011(2) 0.0662(10) Uani 1 2 d S . .
O15 O 0.17728(10) 0.30549(8) 0.32189(17) 0.0914(10) Uani 1 1 d . . .
O16 O 0.34111(9) 0.19697(9) 0.50525(16) 0.0886(9) Uani 1 1 d . . .
C1 C 0.06089(11) 0.13673(9) 0.08875(17) 0.0376(7) Uani 1 1 d . . .
C2 C 0.09233(12) 0.13572(8) 0.02343(17) 0.0445(8) Uani 1 1 d . . .
C3 C 0.09533(11) 0.10376(9) -0.01627(18) 0.0475(8) Uani 1 1 d . . .
H3 H 0.0775 0.0829 -0.0012 0.057 Uiso 1 1 calc R . .
C4 C 0.12380(11) 0.10181(9) -0.07727(17) 0.0461(8) Uani 1 1 d . . .
C5 C 0.15159(12) 0.13266(9) -0.09851(18) 0.0507(9) Uani 1 1 d . . .
H5 H 0.1728 0.1311 -0.1391 0.061 Uiso 1 1 calc R . .
C6 C 0.14784(11) 0.16459(8) -0.06048(17) 0.0453(8) Uani 1 1 d . . .
C7 C 0.11707(11) 0.16598(9) -0.00035(18) 0.0466(8) Uani 1 1 d . . .
H7 H 0.1131 0.1885 0.0248 0.056 Uiso 1 1 calc R . .
C8 C 0.18043(12) 0.19612(9) -0.07764(17) 0.0429(8) Uani 1 1 d . . .
C9 C 0.12864(12) 0.06656(8) -0.1206(2) 0.0552(9) Uani 1 1 d . . .
C10 C 0.12703(11) 0.03329(8) -0.08413(17) 0.0470(8) Uani 1 1 d . . .
H10 H 0.1240 0.0334 -0.0327 0.056 Uiso 1 1 calc R . .
C11 C 0.12960(16) 0.0000 -0.1198(3) 0.0482(11) Uani 1 2 d S . .
C12 C 0.13144(18) 0.0000 -0.1977(2) 0.0557(13) Uani 1 2 d S . .
C13 C 0.13554(14) 0.03434(9) -0.23285(19) 0.0645(10) Uani 1 1 d . . .
H13 H 0.1405 0.0352 -0.2839 0.077 Uiso 1 1 calc R . .
C14 C 0.13245(13) 0.06610(9) -0.19464(19) 0.0589(10) Uani 1 1 d . . .
H14 H 0.1329 0.0887 -0.2202 0.071 Uiso 1 1 calc R . .
C15 C 0.06525(11) 0.13639(8) 0.28568(17) 0.0361(7) Uani 1 1 d . . .
C16 C 0.10547(11) 0.13582(8) 0.34219(16) 0.0395(7) Uani 1 1 d . . .
C17 C 0.11754(10) 0.10346(8) 0.37811(18) 0.0422(7) Uani 1 1 d . . .
H17 H 0.0991 0.0820 0.3686 0.051 Uiso 1 1 calc R . .
C18 C 0.15565(12) 0.10166(8) 0.42739(17) 0.0445(8) Uani 1 1 d . . .
C19 C 0.18145(12) 0.13324(9) 0.43926(19) 0.0549(9) Uani 1 1 d . . .
H19 H 0.2077 0.1327 0.4727 0.066 Uiso 1 1 calc R . .
C20 C 0.17085(10) 0.16560(8) 0.40472(16) 0.0399(7) Uani 1 1 d . . .
C21 C 0.13211(11) 0.16684(8) 0.35579(16) 0.0439(8) Uani 1 1 d . . .
H21 H 0.1242 0.1891 0.3320 0.053 Uiso 1 1 calc R . .
C22 C 0.20280(12) 0.19907(9) 0.41299(18) 0.0434(8) Uani 1 1 d . . .
C23 C 0.16817(11) 0.06627(9) 0.46469(18) 0.0477(8) Uani 1 1 d . . .
C24 C 0.18714(12) 0.06535(9) 0.53555(18) 0.0546(9) Uani 1 1 d . . .
H24 H 0.1933 0.0878 0.5597 0.066 Uiso 1 1 calc R . .
C25 C 0.19699(13) 0.03340(9) 0.57093(18) 0.0560(9) Uani 1 1 d . . .
H25 H 0.2101 0.0340 0.6186 0.067 Uiso 1 1 calc R . .
C26 C 0.18797(16) 0.0000 0.5375(3) 0.0472(11) Uani 1 2 d S . .
C27 C 0.16859(16) 0.0000 0.4651(2) 0.0467(11) Uani 1 2 d S . .
C28 C 0.16049(12) 0.03401(8) 0.43126(17) 0.0463(8) Uani 1 1 d . . .
H28 H 0.1491 0.0342 0.3826 0.056 Uiso 1 1 calc R . .
C29 C 0.22164(13) 0.27744(9) 0.52723(18) 0.0433(8) Uani 1 1 d . . .
C30 C 0.19724(12) 0.28999(9) 0.59601(16) 0.0429(8) Uani 1 1 d . . .
C31 C 0.15896(12) 0.31404(9) 0.59258(16) 0.0449(8) Uani 1 1 d . . .
H31 H 0.1500 0.3243 0.5471 0.054 Uiso 1 1 calc R . .
C32 C 0.13311(12) 0.32369(8) 0.65473(17) 0.0446(8) Uani 1 1 d . . .
C33 C 0.14899(11) 0.30924(9) 0.72163(17) 0.0467(8) Uani 1 1 d . . .
H33 H 0.1320 0.3157 0.7647 0.056 Uiso 1 1 calc R . .
C34 C 0.18920(11) 0.28547(8) 0.72691(17) 0.0418(8) Uani 1 1 d . . .
C35 C 0.21320(12) 0.27617(7) 0.66345(19) 0.0411(7) Uani 1 1 d . . .
H35 H 0.2406 0.2604 0.6653 0.049 Uiso 1 1 calc R . .
C36 C 0.20655(12) 0.27119(8) 0.79584(18) 0.0399(8) Uani 1 1 d . . .
C37 C 0.08807(12) 0.34496(9) 0.64944(18) 0.0463(8) Uani 1 1 d . . .
C38 C 0.04514(13) 0.33078(9) 0.66883(19) 0.0546(9) Uani 1 1 d . . .
H38 H 0.0450 0.3077 0.6924 0.066 Uiso 1 1 calc R . .
C39 C 0.0000 0.34821(13) 0.6562(2) 0.0459(11) Uani 1 2 d S . .
C40 C 0.0000 0.38122(14) 0.6207(3) 0.0654(15) Uani 1 2 d S . .
C41 C 0.04544(16) 0.39596(11) 0.6014(2) 0.0811(13) Uani 1 1 d . . .
H41 H 0.0461 0.4191 0.5779 0.097 Uiso 1 1 calc R . .
C42 C 0.08692(15) 0.37958(10) 0.6143(2) 0.0693(11) Uani 1 1 d . . .
H42 H 0.1164 0.3909 0.6000 0.083 Uiso 1 1 calc R . .

loop_
_atom_site_aniso_label
_atom_site_aniso_U_11
_atom_site_aniso_U_22
_atom_site_aniso_U_33
_atom_site_aniso_U_23
_atom_site_aniso_U_13
_atom_site_aniso_U_12
Cu1 0.0258(2) 0.0178(2) 0.0400(3) -0.0001(2) 0.000 0.000
Cu2 0.0325(3) 0.0188(2) 0.0447(3) 0.0005(2) 0.000 0.000
Cu3 0.03639(19) 0.03630(18) 0.03636(19) -0.00282(17) -0.00993(18) -0.00161(16)
Cu4 0.0364(2) 0.03736(19) 0.03692(19) -0.00030(18) -0.00954(19) -0.00203(16)
O1 0.0515(14) 0.0488(13) 0.0557(15) -0.0030(11) 0.0215(13) -0.0077(10)
O2 0.0489(13) 0.0350(12) 0.0710(15) 0.0045(13) 0.0180(13) -0.0089(10)
O3 0.0506(14) 0.0280(12) 0.0604(15) 0.0002(10) 0.0211(12) -0.0005(10)
O4 0.0489(14) 0.0432(14) 0.0550(14) -0.0005(11) 0.0097(11) -0.0056(11)
O5 0.0431(13) 0.0321(12) 0.0589(15) -0.0036(10) -0.0081(11) -0.0017(10)
O6 0.0443(13) 0.0244(11) 0.0500(13) 0.0005(9) -0.0032(10) 0.0010(9)
O7 0.0440(13) 0.0494(13) 0.0759(16) 0.0065(13) -0.0135(14) -0.0106(10)
O8 0.0427(12) 0.0510(14) 0.0689(16) 0.0003(13) -0.0104(13) -0.0091(11)
O9 0.0691(16) 0.0562(14) 0.0406(15) -0.0019(11) -0.0004(12) 0.0003(12)
O10 0.0414(13) 0.0694(16) 0.0444(14) -0.0019(11) -0.0052(11) 0.0141(12)
O11 0.0631(15) 0.0495(13) 0.0448(15) 0.0070(10) 0.0088(11) 0.0120(12)
O12 0.0529(14) 0.0601(14) 0.0413(13) 0.0005(11) 0.0134(11) 0.0137(12)
O13 0.077(3) 0.0255(16) 0.213(5) -0.014(3) 0.000 0.000
O14 0.081(2) 0.0227(15) 0.095(3) -0.0056(18) 0.000 0.000
O15 0.087(2) 0.084(2) 0.104(2) 0.0052(17) -0.0440(18) 0.0278(17)
O16 0.0522(16) 0.115(2) 0.099(2) 0.0361(18) -0.0095(15) 0.0235(16)
C1 0.0296(17) 0.041(2) 0.0427(19) -0.0056(15) 0.0011(14) -0.0049(14)
C2 0.049(2) 0.0412(19) 0.0431(19) 0.0060(15) 0.0072(16) -0.0115(16)
C3 0.0442(19) 0.0424(19) 0.056(2) 0.0019(15) 0.0143(17) -0.0059(15)
C4 0.0439(19) 0.0463(19) 0.048(2) 0.0023(15) 0.0107(16) -0.0114(16)
C5 0.056(2) 0.044(2) 0.052(2) 0.0022(15) 0.0124(17) 0.0007(16)
C6 0.0430(19) 0.0472(19) 0.046(2) -0.0005(16) 0.0022(16) -0.0092(15)
C7 0.045(2) 0.0415(19) 0.054(2) -0.0026(16) 0.0056(17) 0.0039(15)
C8 0.042(2) 0.050(2) 0.0368(18) 0.0121(15) -0.0013(15) -0.0075(16)
C9 0.068(2) 0.0418(18) 0.056(2) -0.0079(18) 0.027(2) -0.0074(16)
C10 0.060(2) 0.0436(19) 0.0372(18) -0.0006(14) 0.0115(16) -0.0093(16)
C11 0.052(3) 0.055(3) 0.038(2) 0.000 0.005(2) 0.000
C12 0.070(3) 0.057(3) 0.041(3) 0.000 0.024(3) 0.000
C13 0.098(3) 0.048(2) 0.048(2) -0.0009(18) 0.019(2) -0.001(2)
C14 0.074(3) 0.048(2) 0.055(2) 0.0091(17) 0.022(2) 0.0051(19)
C15 0.0295(16) 0.0333(18) 0.0454(19) 0.0064(15) 0.0091(14) -0.0069(14)
C16 0.0311(17) 0.0430(18) 0.0443(18) 0.0001(14) -0.0056(14) -0.0064(14)
C17 0.0351(17) 0.0354(16) 0.056(2) -0.0054(16) -0.0147(17) -0.0077(13)
C18 0.051(2) 0.0360(17) 0.0467(19) 0.0011(14) -0.0104(15) -0.0098(15)
C19 0.045(2) 0.061(2) 0.058(2) -0.0089(18) -0.0202(18) -0.0045(16)
C20 0.0329(16) 0.0337(17) 0.053(2) -0.0074(14) -0.0113(15) -0.0019(13)
C21 0.0451(19) 0.0383(18) 0.048(2) -0.0046(14) -0.0056(16) -0.0006(15)
C22 0.042(2) 0.0380(18) 0.051(2) -0.0073(15) -0.0145(16) -0.0067(15)
C23 0.0419(18) 0.051(2) 0.050(2) -0.0044(16) -0.0096(16) -0.0006(15)
C24 0.067(2) 0.049(2) 0.049(2) -0.0065(16) -0.0236(18) -0.0081(18)
C25 0.069(2) 0.059(2) 0.0396(19) -0.0142(17) -0.0210(17) 0.0062(19)
C26 0.035(3) 0.057(3) 0.050(3) 0.000 -0.010(2) 0.000
C27 0.049(3) 0.045(3) 0.047(3) 0.000 -0.016(2) 0.000
C28 0.054(2) 0.0409(18) 0.0435(19) 0.0008(15) -0.0164(15) 0.0010(15)
C29 0.049(2) 0.0477(19) 0.0335(19) -0.0032(15) -0.0039(16) -0.0208(17)
C30 0.047(2) 0.0451(19) 0.0368(18) 0.0025(14) -0.0036(15) -0.0076(16)
C31 0.055(2) 0.050(2) 0.0296(17) 0.0064(14) -0.0046(16) -0.0059(17)
C32 0.043(2) 0.0463(19) 0.044(2) 0.0036(15) -0.0044(15) -0.0120(16)
C33 0.045(2) 0.055(2) 0.0405(18) -0.0010(15) 0.0126(16) -0.0031(16)
C34 0.0403(18) 0.0446(19) 0.0406(18) 0.0050(14) 0.0033(15) -0.0098(15)
C35 0.039(2) 0.0368(16) 0.0473(17) -0.0038(14) 0.0076(14) -0.0026(15)
C36 0.0366(19) 0.0406(18) 0.043(2) -0.0019(15) 0.0050(16) -0.0095(16)
C37 0.036(2) 0.0474(19) 0.056(2) 0.0045(16) 0.0006(16) -0.0006(16)
C38 0.052(2) 0.0477(19) 0.064(2) 0.0108(17) -0.0001(17) -0.0004(18)
C39 0.038(3) 0.064(3) 0.036(3) 0.012(2) 0.000 0.000
C40 0.070(4) 0.043(3) 0.084(4) 0.010(3) 0.000 0.000
C41 0.068(3) 0.061(3) 0.114(4) 0.023(2) 0.003(3) -0.018(2)
C42 0.059(3) 0.053(2) 0.096(3) 0.020(2) 0.018(2) -0.004(2)

_geom_special_details            
;
All esds (except the esd in the dihedral angle between two l.s. planes)
are estimated using the full covariance matrix. The cell esds are taken
into account individually in the estimation of esds in distances, angles
and torsion angles; correlations between esds in cell parameters are only
used when they are defined by crystal symmetry. An approximate (isotropic)
treatment of cell esds is used for estimating esds involving l.s. planes.
;

loop_
_geom_bond_atom_site_label_1
_geom_bond_atom_site_label_2
_geom_bond_distance
_geom_bond_site_symmetry_2
_geom_bond_publ_flag
Cu1 O5 1.928(2) . ?
Cu1 O5 1.928(2) 3 ?
Cu1 O3 1.983(2) . ?
Cu1 O3 1.983(2) 3 ?
Cu1 O13 2.102(3) . ?
Cu1 Cu2 2.6524(6) . ?
Cu2 O6 1.937(2) 3 ?
Cu2 O6 1.937(2) . ?
Cu2 O4 1.996(2) . ?
Cu2 O4 1.996(2) 3 ?
Cu2 O14 2.146(3) . ?
Cu3 O12 1.936(2) 6_554 ?
Cu3 O9 1.937(2) . ?
Cu3 O1 1.973(2) 6 ?
Cu3 O8 1.985(2) . ?
Cu3 O15 2.117(2) . ?
Cu3 Cu4 2.6749(5) . ?
Cu4 O2 1.9349(19) 6 ?
Cu4 O7 1.941(2) . ?
Cu4 O10 1.955(2) . ?
Cu4 O11 1.994(2) 6_554 ?
Cu4 O16 2.106(2) . ?
O1 C8 1.234(3) . ?
O1 Cu3 1.973(2) 6_554 ?
O2 C8 1.265(4) . ?
O2 Cu4 1.9349(19) 6_554 ?
O3 C1 1.226(3) . ?
O4 C1 1.265(3) . ?
O5 C15 1.274(3) . ?
O6 C15 1.256(3) . ?
O7 C22 1.250(4) . ?
O8 C22 1.249(4) . ?
O9 C29 1.235(4) . ?
O10 C29 1.269(4) . ?
O11 C36 1.269(4) . ?
O11 Cu4 1.994(2) 6 ?
O12 C36 1.266(4) . ?
O12 Cu3 1.936(2) 6 ?
C1 C2 1.483(4) . ?
C2 C7 1.371(4) . ?
C2 C3 1.381(4) . ?
C3 C4 1.372(4) . ?
C3 H3 0.9500 . ?
C4 C5 1.418(4) . ?
C4 C9 1.521(4) . ?
C5 C6 1.365(4) . ?
C5 H5 0.9500 . ?
C6 C7 1.395(4) . ?
C6 C8 1.495(4) . ?
C7 H7 0.9500 . ?
C9 C14 1.368(4) . ?
C9 C10 1.390(4) . ?
C10 C11 1.385(4) . ?
C10 H10 0.9500 . ?
C11 C10 1.384(4) 4 ?
C11 C12 1.435(6) . ?
C12 C13 1.417(4) . ?
C12 C13 1.417(4) 4 ?
C13 C14 1.360(4) . ?
C13 H13 0.9500 . ?
C14 H14 0.9500 . ?
C15 C16 1.520(4) . ?
C16 C21 1.374(4) . ?
C16 C17 1.396(4) . ?
C17 C18 1.389(4) . ?
C17 H17 0.9500 . ?
C18 C19 1.374(4) . ?
C18 C23 1.505(4) . ?
C19 C20 1.375(4) . ?
C19 H19 0.9500 . ?
C20 C21 1.397(4) . ?
C20 C22 1.515(4) . ?
C21 H21 0.9500 . ?
C23 C28 1.347(4) . ?
C23 C24 1.406(4) . ?
C24 C25 1.365(4) . ?
C24 H24 0.9500 . ?
C25 C26 1.389(4) . ?
C25 H25 0.9500 . ?
C26 C25 1.390(4) 4 ?
C26 C27 1.437(6) . ?
C27 C28 1.408(4) . ?
C27 C28 1.408(4) 4 ?
C28 H28 0.9500 . ?
C29 C30 1.505(5) . ?
C30 C31 1.375(4) . ?
C30 C35 1.411(4) . ?
C31 C32 1.393(4) . ?
C31 H31 0.9500 . ?
C32 C33 1.410(4) . ?
C32 C37 1.467(4) . ?
C33 C34 1.411(4) . ?
C33 H33 0.9500 . ?
C34 C35 1.385(4) . ?
C34 C36 1.453(4) . ?
C35 H35 0.9500 . ?
C37 C38 1.340(4) . ?
C37 C42 1.422(5) . ?
C38 C39 1.416(4) . ?
C38 H38 0.9500 . ?
C39 C40 1.373(6) . ?
C39 C38 1.416(4) 3 ?
C40 C41 1.408(4) 3 ?
C40 C41 1.408(4) . ?
C41 C42 1.312(5) . ?
C41 H41 0.9500 . ?
C42 H42 0.9500 . ?

loop_
_geom_angle_atom_site_label_1
_geom_angle_atom_site_label_2
_geom_angle_atom_site_label_3
_geom_angle
_geom_angle_site_symmetry_1
_geom_angle_site_symmetry_3
_geom_angle_publ_flag
O5 Cu1 O5 89.92(13) . 3 ?
O5 Cu1 O3 90.12(9) . . ?
O5 Cu1 O3 168.24(8) 3 . ?
O5 Cu1 O3 168.24(8) . 3 ?
O5 Cu1 O3 90.11(9) 3 3 ?
O3 Cu1 O3 87.47(13) . 3 ?
O5 Cu1 O13 98.05(13) . . ?
O5 Cu1 O13 98.05(13) 3 . ?
O3 Cu1 O13 93.58(13) . . ?
O3 Cu1 O13 93.59(13) 3 . ?
O5 Cu1 Cu2 85.45(6) . . ?
O5 Cu1 Cu2 85.44(6) 3 . ?
O3 Cu1 Cu2 82.84(6) . . ?
O3 Cu1 Cu2 82.84(6) 3 . ?
O13 Cu1 Cu2 175.03(16) . . ?
O6 Cu2 O6 91.17(12) 3 . ?
O6 Cu2 O4 167.21(8) 3 . ?
O6 Cu2 O4 90.23(8) . . ?
O6 Cu2 O4 90.23(8) 3 3 ?
O6 Cu2 O4 167.21(8) . 3 ?
O4 Cu2 O4 85.66(13) . 3 ?
O6 Cu2 O14 93.59(9) 3 . ?
O6 Cu2 O14 93.59(9) . . ?
O4 Cu2 O14 99.01(9) . . ?
O4 Cu2 O14 99.01(9) 3 . ?
O6 Cu2 Cu1 82.92(6) 3 . ?
O6 Cu2 Cu1 82.92(6) . . ?
O4 Cu2 Cu1 84.64(6) . . ?
O4 Cu2 Cu1 84.64(6) 3 . ?
O14 Cu2 Cu1 174.99(10) . . ?
O12 Cu3 O9 171.98(10) 6_554 . ?
O12 Cu3 O1 89.54(10) 6_554 6 ?
O9 Cu3 O1 89.66(10) . 6 ?
O12 Cu3 O8 87.92(10) 6_554 . ?
O9 Cu3 O8 90.56(10) . . ?
O1 Cu3 O8 163.31(9) 6 . ?
O12 Cu3 O15 97.25(11) 6_554 . ?
O9 Cu3 O15 90.75(12) . . ?
O1 Cu3 O15 100.06(11) 6 . ?
O8 Cu3 O15 96.63(11) . . ?
O12 Cu3 Cu4 85.68(6) 6_554 . ?
O9 Cu3 Cu4 86.30(7) . . ?
O1 Cu3 Cu4 82.42(6) 6 . ?
O8 Cu3 Cu4 80.93(7) . . ?
O15 Cu3 Cu4 176.15(9) . . ?
O2 Cu4 O7 170.56(9) 6 . ?
O2 Cu4 O10 88.27(10) 6 . ?
O7 Cu4 O10 89.10(10) . . ?
O2 Cu4 O11 90.62(10) 6 6_554 ?
O7 Cu4 O11 89.24(10) . 6_554 ?
O10 Cu4 O11 162.93(9) . 6_554 ?
O2 Cu4 O16 95.65(11) 6 . ?
O7 Cu4 O16 93.78(11) . . ?
O10 Cu4 O16 103.63(11) . . ?
O11 Cu4 O16 93.43(11) 6_554 . ?
O2 Cu4 Cu3 84.49(7) 6 . ?
O7 Cu4 Cu3 86.14(7) . . ?
O10 Cu4 Cu3 80.79(7) . . ?
O11 Cu4 Cu3 82.15(6) 6_554 . ?
O16 Cu4 Cu3 175.58(9) . . ?
C8 O1 Cu3 123.5(2) . 6_554 ?
C8 O2 Cu4 122.3(2) . 6_554 ?
C1 O3 Cu1 124.6(2) . . ?
C1 O4 Cu2 121.0(2) . . ?
C15 O5 Cu1 121.01(19) . . ?
C15 O6 Cu2 123.91(19) . . ?
C22 O7 Cu4 120.9(2) . . ?
C22 O8 Cu3 125.0(2) . . ?
C29 O9 Cu3 120.7(2) . . ?
C29 O10 Cu4 125.6(2) . . ?
C36 O11 Cu4 123.7(2) . 6 ?
C36 O12 Cu3 122.5(2) . 6 ?
O3 C1 O4 125.9(3) . . ?
O3 C1 C2 117.0(3) . . ?
O4 C1 C2 117.1(3) . . ?
C7 C2 C3 118.9(3) . . ?
C7 C2 C1 122.0(3) . . ?
C3 C2 C1 119.0(3) . . ?
C4 C3 C2 120.8(3) . . ?
C4 C3 H3 119.6 . . ?
C2 C3 H3 119.6 . . ?
C3 C4 C5 119.5(3) . . ?
C3 C4 C9 121.5(3) . . ?
C5 C4 C9 118.8(3) . . ?
C6 C5 C4 119.9(3) . . ?
C6 C5 H5 120.1 . . ?
C4 C5 H5 120.1 . . ?
C5 C6 C7 119.0(3) . . ?
C5 C6 C8 120.4(3) . . ?
C7 C6 C8 120.3(3) . . ?
C2 C7 C6 121.7(3) . . ?
C2 C7 H7 119.1 . . ?
C6 C7 H7 119.1 . . ?
O1 C8 O2 126.3(3) . . ?
O1 C8 C6 119.3(3) . . ?
O2 C8 C6 114.4(3) . . ?
C14 C9 C10 118.2(3) . . ?
C14 C9 C4 122.7(3) . . ?
C10 C9 C4 119.1(3) . . ?
C11 C10 C9 122.6(3) . . ?
C11 C10 H10 118.7 . . ?
C9 C10 H10 118.7 . . ?
C10 C11 C10 123.0(4) 4 . ?
C10 C11 C12 118.4(2) 4 . ?
C10 C11 C12 118.4(2) . . ?
C13 C12 C13 124.7(4) . 4 ?
C13 C12 C11 117.4(2) . . ?
C13 C12 C11 117.4(2) 4 . ?
C14 C13 C12 121.0(3) . . ?
C14 C13 H13 119.5 . . ?
C12 C13 H13 119.5 . . ?
C13 C14 C9 122.1(3) . . ?
C13 C14 H14 119.0 . . ?
C9 C14 H14 119.0 . . ?
O6 C15 O5 126.6(3) . . ?
O6 C15 C16 117.9(3) . . ?
O5 C15 C16 115.5(3) . . ?
C21 C16 C17 119.1(3) . . ?
C21 C16 C15 120.2(3) . . ?
C17 C16 C15 120.6(3) . . ?
C18 C17 C16 122.0(3) . . ?
C18 C17 H17 119.0 . . ?
C16 C17 H17 119.0 . . ?
C19 C18 C17 117.1(3) . . ?
C19 C18 C23 122.1(3) . . ?
C17 C18 C23 120.8(3) . . ?
C18 C19 C20 122.7(3) . . ?
C18 C19 H19 118.7 . . ?
C20 C19 H19 118.7 . . ?
C19 C20 C21 119.2(3) . . ?
C19 C20 C22 121.7(3) . . ?
C21 C20 C22 118.8(3) . . ?
C16 C21 C20 119.9(3) . . ?
C16 C21 H21 120.0 . . ?
C20 C21 H21 120.0 . . ?
O8 C22 O7 126.7(3) . . ?
O8 C22 C20 118.3(3) . . ?
O7 C22 C20 115.1(3) . . ?
C28 C23 C24 117.5(3) . . ?
C28 C23 C18 120.5(3) . . ?
C24 C23 C18 122.0(3) . . ?
C25 C24 C23 122.5(3) . . ?
C25 C24 H24 118.7 . . ?
C23 C24 H24 118.7 . . ?
C24 C25 C26 120.4(3) . . ?
C24 C25 H25 119.8 . . ?
C26 C25 H25 119.8 . . ?
C25 C26 C25 123.0(4) . 4 ?
C25 C26 C27 118.5(2) . . ?
C25 C26 C27 118.5(2) 4 . ?
C28 C27 C28 124.0(4) . 4 ?
C28 C27 C26 118.0(2) . . ?
C28 C27 C26 118.0(2) 4 . ?
C23 C28 C27 123.1(3) . . ?
C23 C28 H28 118.5 . . ?
C27 C28 H28 118.5 . . ?
O9 C29 O10 126.6(3) . . ?
O9 C29 C30 116.0(3) . . ?
O10 C29 C30 117.3(3) . . ?
C31 C30 C35 120.6(3) . . ?
C31 C30 C29 119.9(3) . . ?
C35 C30 C29 119.5(3) . . ?
C30 C31 C32 121.1(3) . . ?
C30 C31 H31 119.5 . . ?
C32 C31 H31 119.5 . . ?
C31 C32 C33 117.6(3) . . ?
C31 C32 C37 120.8(3) . . ?
C33 C32 C37 121.3(3) . . ?
C32 C33 C34 122.3(3) . . ?
C32 C33 H33 118.8 . . ?
C34 C33 H33 118.8 . . ?
C35 C34 C33 117.9(3) . . ?
C35 C34 C36 119.4(3) . . ?
C33 C34 C36 122.6(3) . . ?
C34 C35 C30 120.4(3) . . ?
C34 C35 H35 119.8 . . ?
C30 C35 H35 119.8 . . ?
O12 C36 O11 125.8(3) . . ?
O12 C36 C34 115.8(3) . . ?
O11 C36 C34 118.4(3) . . ?
C38 C37 C42 116.5(3) . . ?
C38 C37 C32 121.6(3) . . ?
C42 C37 C32 121.4(3) . . ?
C37 C38 C39 123.9(3) . . ?
C37 C38 H38 118.1 . . ?
C39 C38 H38 118.1 . . ?
C40 C39 C38 118.3(2) . . ?
C40 C39 C38 118.3(2) . 3 ?
C38 C39 C38 122.8(4) . 3 ?
C39 C40 C41 117.1(3) . 3 ?
C39 C40 C41 117.1(3) . . ?
C41 C40 C41 125.5(5) 3 . ?
C42 C41 C40 123.7(4) . . ?
C42 C41 H41 118.2 . . ?
C40 C41 H41 118.2 . . ?
C41 C42 C37 120.5(4) . . ?
C41 C42 H42 119.7 . . ?
C37 C42 H42 119.7 . . ?

loop_
_geom_torsion_atom_site_label_1
_geom_torsion_atom_site_label_2
_geom_torsion_atom_site_label_3
_geom_torsion_atom_site_label_4
_geom_torsion
_geom_torsion_site_symmetry_1
_geom_torsion_site_symmetry_2
_geom_torsion_site_symmetry_3
_geom_torsion_site_symmetry_4
_geom_torsion_publ_flag
O5 Cu1 Cu2 O6 -91.18(9) . . . 3 ?
O5 Cu1 Cu2 O6 -0.89(9) 3 . . 3 ?
O3 Cu1 Cu2 O6 178.13(10) . . . 3 ?
O3 Cu1 Cu2 O6 89.79(9) 3 . . 3 ?
O13 Cu1 Cu2 O6 133.96(6) . . . 3 ?
O5 Cu1 Cu2 O6 0.89(9) . . . . ?
O5 Cu1 Cu2 O6 91.18(9) 3 . . . ?
O3 Cu1 Cu2 O6 -89.80(9) . . . . ?
O3 Cu1 Cu2 O6 -178.14(10) 3 . . . ?
O13 Cu1 Cu2 O6 -133.96(6) . . . . ?
O5 Cu1 Cu2 O4 91.80(9) . . . . ?
O5 Cu1 Cu2 O4 -177.92(10) 3 . . . ?
O3 Cu1 Cu2 O4 1.11(9) . . . . ?
O3 Cu1 Cu2 O4 -87.23(10) 3 . . . ?
O13 Cu1 Cu2 O4 -43.06(7) . . . . ?
O5 Cu1 Cu2 O4 177.92(10) . . . 3 ?
O5 Cu1 Cu2 O4 -91.79(9) 3 . . 3 ?
O3 Cu1 Cu2 O4 87.23(10) . . . 3 ?
O3 Cu1 Cu2 O4 -1.11(9) 3 . . 3 ?
O13 Cu1 Cu2 O4 43.06(7) . . . 3 ?
O5 Cu1 Cu2 O14 -45.14(6) . . . . ?
O5 Cu1 Cu2 O14 45.14(7) 3 . . . ?
O3 Cu1 Cu2 O14 -135.83(7) . . . . ?
O3 Cu1 Cu2 O14 135.83(7) 3 . . . ?
O13 Cu1 Cu2 O14 180.000(3) . . . . ?
O12 Cu3 Cu4 O2 90.34(10) 6_554 . . 6 ?
O9 Cu3 Cu4 O2 -89.92(10) . . . 6 ?
O1 Cu3 Cu4 O2 0.23(10) 6 . . 6 ?
O8 Cu3 Cu4 O2 178.91(11) . . . 6 ?
O15 Cu3 Cu4 O2 -130.1(13) . . . 6 ?
O12 Cu3 Cu4 O7 -90.81(10) 6_554 . . . ?
O9 Cu3 Cu4 O7 88.92(10) . . . . ?
O1 Cu3 Cu4 O7 179.07(11) 6 . . . ?
O8 Cu3 Cu4 O7 -2.24(11) . . . . ?
O15 Cu3 Cu4 O7 48.7(13) . . . . ?
O12 Cu3 Cu4 O10 179.48(10) 6_554 . . . ?
O9 Cu3 Cu4 O10 -0.79(10) . . . . ?
O1 Cu3 Cu4 O10 89.36(10) 6 . . . ?
O8 Cu3 Cu4 O10 -91.95(10) . . . . ?
O15 Cu3 Cu4 O10 -41.0(13) . . . . ?
O12 Cu3 Cu4 O11 -1.05(9) 6_554 . . 6_554 ?
O9 Cu3 Cu4 O11 178.68(10) . . . 6_554 ?
O1 Cu3 Cu4 O11 -91.16(10) 6 . . 6_554 ?
O8 Cu3 Cu4 O11 87.52(10) . . . 6_554 ?
O15 Cu3 Cu4 O11 138.5(13) . . . 6_554 ?
O12 Cu3 Cu4 O16 -1.7(11) 6_554 . . . ?
O9 Cu3 Cu4 O16 178(100) . . . . ?
O1 Cu3 Cu4 O16 -91.8(11) 6 . . . ?
O8 Cu3 Cu4 O16 86.9(11) . . . . ?
O15 Cu3 Cu4 O16 137.9(18) . . . . ?
O5 Cu1 O3 C1 -92.4(3) . . . . ?
O5 Cu1 O3 C1 -2.2(7) 3 . . . ?
O3 Cu1 O3 C1 76.1(3) 3 . . . ?
O13 Cu1 O3 C1 169.5(3) . . . . ?
Cu2 Cu1 O3 C1 -7.0(2) . . . . ?
O6 Cu2 O4 C1 -9.5(6) 3 . . . ?
O6 Cu2 O4 C1 86.8(2) . . . . ?
O4 Cu2 O4 C1 -81.1(2) 3 . . . ?
O14 Cu2 O4 C1 -179.6(2) . . . . ?
Cu1 Cu2 O4 C1 3.9(2) . . . . ?
O5 Cu1 O5 C15 -87.9(2) 3 . . . ?
O3 Cu1 O5 C15 80.4(2) . . . . ?
O3 Cu1 O5 C15 2.3(6) 3 . . . ?
O13 Cu1 O5 C15 174.0(2) . . . . ?
Cu2 Cu1 O5 C15 -2.4(2) . . . . ?
O6 Cu2 O6 C15 83.1(2) 3 . . . ?
O4 Cu2 O6 C15 -84.1(2) . . . . ?
O4 Cu2 O6 C15 -13.1(6) 3 . . . ?
O14 Cu2 O6 C15 176.8(2) . . . . ?
Cu1 Cu2 O6 C15 0.4(2) . . . . ?
O2 Cu4 O7 C22 12.6(8) 6 . . . ?
O10 Cu4 O7 C22 86.4(3) . . . . ?
O11 Cu4 O7 C22 -76.6(3) 6_554 . . . ?
O16 Cu4 O7 C22 -170.0(3) . . . . ?
Cu3 Cu4 O7 C22 5.6(3) . . . . ?
O12 Cu3 O8 C22 85.6(3) 6_554 . . . ?
O9 Cu3 O8 C22 -86.5(3) . . . . ?
O1 Cu3 O8 C22 4.2(5) 6 . . . ?
O15 Cu3 O8 C22 -177.4(3) . . . . ?
Cu4 Cu3 O8 C22 -0.4(3) . . . . ?
O12 Cu3 O9 C29 2.6(8) 6_554 . . . ?
O1 Cu3 O9 C29 -81.7(2) 6 . . . ?
O8 Cu3 O9 C29 81.6(2) . . . . ?
O15 Cu3 O9 C29 178.3(2) . . . . ?
Cu4 Cu3 O9 C29 0.8(2) . . . . ?
O2 Cu4 O10 C29 85.8(3) 6 . . . ?
O7 Cu4 O10 C29 -85.1(3) . . . . ?
O11 Cu4 O10 C29 -0.7(5) 6_554 . . . ?
O16 Cu4 O10 C29 -178.8(3) . . . . ?
Cu3 Cu4 O10 C29 1.1(2) . . . . ?
Cu1 O3 C1 O4 12.9(5) . . . . ?
Cu1 O3 C1 C2 -169.5(2) . . . . ?
Cu2 O4 C1 O3 -10.9(4) . . . . ?
Cu2 O4 C1 C2 171.5(2) . . . . ?
O3 C1 C2 C7 -163.0(3) . . . . ?
O4 C1 C2 C7 14.8(5) . . . . ?
O3 C1 C2 C3 19.6(5) . . . . ?
O4 C1 C2 C3 -162.6(3) . . . . ?
C7 C2 C3 C4 2.1(5) . . . . ?
C1 C2 C3 C4 179.6(3) . . . . ?
C2 C3 C4 C5 1.9(5) . . . . ?
C2 C3 C4 C9 178.3(3) . . . . ?
C3 C4 C5 C6 -3.5(5) . . . . ?
C9 C4 C5 C6 180.0(3) . . . . ?
C4 C5 C6 C7 1.0(5) . . . . ?
C4 C5 C6 C8 174.0(3) . . . . ?
C3 C2 C7 C6 -4.7(5) . . . . ?
C1 C2 C7 C6 177.9(3) . . . . ?
C5 C6 C7 C2 3.1(5) . . . . ?
C8 C6 C7 C2 -169.8(3) . . . . ?
Cu3 O1 C8 O2 11.9(5) 6_554 . . . ?
Cu3 O1 C8 C6 -166.1(2) 6_554 . . . ?
Cu4 O2 C8 O1 -11.4(5) 6_554 . . . ?
Cu4 O2 C8 C6 166.7(2) 6_554 . . . ?
C5 C6 C8 O1 -16.2(5) . . . . ?
C7 C6 C8 O1 156.7(3) . . . . ?
C5 C6 C8 O2 165.6(3) . . . . ?
C7 C6 C8 O2 -21.5(4) . . . . ?
C3 C4 C9 C14 143.7(3) . . . . ?
C5 C4 C9 C14 -39.8(5) . . . . ?
C3 C4 C9 C10 -33.4(5) . . . . ?
C5 C4 C9 C10 143.1(3) . . . . ?
C14 C9 C10 C11 0.6(6) . . . . ?
C4 C9 C10 C11 177.9(3) . . . . ?
C9 C10 C11 C10 -178.6(3) . . . 4 ?
C9 C10 C11 C12 -3.4(6) . . . . ?
C10 C11 C12 C13 -178.1(4) 4 . . . ?
C10 C11 C12 C13 6.4(7) . . . . ?
C10 C11 C12 C13 -6.4(7) 4 . . 4 ?
C10 C11 C12 C13 178.1(4) . . . 4 ?
C13 C12 C13 C14 -178.2(3) 4 . . . ?
C11 C12 C13 C14 -7.1(7) . . . . ?
C12 C13 C14 C9 4.6(6) . . . . ?
C10 C9 C14 C13 -1.2(6) . . . . ?
C4 C9 C14 C13 -178.3(3) . . . . ?
Cu2 O6 C15 O5 -2.6(4) . . . . ?
Cu2 O6 C15 C16 179.08(18) . . . . ?
Cu1 O5 C15 O6 3.8(4) . . . . ?
Cu1 O5 C15 C16 -177.89(18) . . . . ?
O6 C15 C16 C21 -15.3(4) . . . . ?
O5 C15 C16 C21 166.2(3) . . . . ?
O6 C15 C16 C17 168.0(3) . . . . ?
O5 C15 C16 C17 -10.5(4) . . . . ?
C21 C16 C17 C18 0.1(5) . . . . ?
C15 C16 C17 C18 176.8(3) . . . . ?
C16 C17 C18 C19 -0.3(5) . . . . ?
C16 C17 C18 C23 -179.3(3) . . . . ?
C17 C18 C19 C20 0.0(5) . . . . ?
C23 C18 C19 C20 179.0(3) . . . . ?
C18 C19 C20 C21 0.5(5) . . . . ?
C18 C19 C20 C22 -173.8(3) . . . . ?
C17 C16 C21 C20 0.4(5) . . . . ?
C15 C16 C21 C20 -176.3(3) . . . . ?
C19 C20 C21 C16 -0.7(5) . . . . ?
C22 C20 C21 C16 173.8(3) . . . . ?
Cu3 O8 C22 O7 5.1(5) . . . . ?
Cu3 O8 C22 C20 -173.1(2) . . . . ?
Cu4 O7 C22 O8 -8.1(5) . . . . ?
Cu4 O7 C22 C20 170.2(2) . . . . ?
C19 C20 C22 O8 -177.2(3) . . . . ?
C21 C20 C22 O8 8.4(4) . . . . ?
C19 C20 C22 O7 4.4(5) . . . . ?
C21 C20 C22 O7 -170.0(3) . . . . ?
C19 C18 C23 C28 -148.2(3) . . . . ?
C17 C18 C23 C28 30.7(5) . . . . ?
C19 C18 C23 C24 33.2(5) . . . . ?
C17 C18 C23 C24 -147.9(3) . . . . ?
C28 C23 C24 C25 -1.1(5) . . . . ?
C18 C23 C24 C25 177.6(3) . . . . ?
C23 C24 C25 C26 -0.6(6) . . . . ?
C24 C25 C26 C25 -179.6(3) . . . 4 ?
C24 C25 C26 C27 0.6(6) . . . . ?
C25 C26 C27 C28 1.0(6) . . . . ?
C25 C26 C27 C28 -178.8(4) 4 . . . ?
C25 C26 C27 C28 178.8(4) . . . 4 ?
C25 C26 C27 C28 -1.0(6) 4 . . 4 ?
C24 C23 C28 C27 2.8(5) . . . . ?
C18 C23 C28 C27 -175.9(3) . . . . ?
C28 C27 C28 C23 179.6(3) 4 . . . ?
C26 C27 C28 C23 -2.8(6) . . . . ?
Cu3 O9 C29 O10 -0.2(4) . . . . ?
Cu3 O9 C29 C30 -176.54(19) . . . . ?
Cu4 O10 C29 O9 -1.0(5) . . . . ?
Cu4 O10 C29 C30 175.37(19) . . . . ?
O9 C29 C30 C31 -2.0(4) . . . . ?
O10 C29 C30 C31 -178.7(3) . . . . ?
O9 C29 C30 C35 176.4(3) . . . . ?
O10 C29 C30 C35 -0.3(4) . . . . ?
C35 C30 C31 C32 -3.9(5) . . . . ?
C29 C30 C31 C32 174.5(3) . . . . ?
C30 C31 C32 C33 2.9(5) . . . . ?
C30 C31 C32 C37 -170.9(3) . . . . ?
C31 C32 C33 C34 -0.7(5) . . . . ?
C37 C32 C33 C34 173.0(3) . . . . ?
C32 C33 C34 C35 -0.4(5) . . . . ?
C32 C33 C34 C36 178.4(3) . . . . ?
C33 C34 C35 C30 -0.6(4) . . . . ?
C36 C34 C35 C30 -179.4(3) . . . . ?
C31 C30 C35 C34 2.7(4) . . . . ?
C29 C30 C35 C34 -175.7(3) . . . . ?
Cu3 O12 C36 O11 -4.8(4) 6 . . . ?
Cu3 O12 C36 C34 175.80(19) 6 . . . ?
Cu4 O11 C36 O12 3.3(4) 6 . . . ?
Cu4 O11 C36 C34 -177.25(19) 6 . . . ?
C35 C34 C36 O12 -8.9(4) . . . . ?
C33 C34 C36 O12 172.3(3) . . . . ?
C35 C34 C36 O11 171.6(3) . . . . ?
C33 C34 C36 O11 -7.2(4) . . . . ?
C31 C32 C37 C38 114.6(4) . . . . ?
C33 C32 C37 C38 -58.9(5) . . . . ?
C31 C32 C37 C42 -56.6(5) . . . . ?
C33 C32 C37 C42 129.9(4) . . . . ?
C42 C37 C38 C39 0.0(5) . . . . ?
C32 C37 C38 C39 -171.5(4) . . . . ?
C37 C38 C39 C40 1.4(6) . . . . ?
C37 C38 C39 C38 171.8(3) . . . 3 ?
C38 C39 C40 C41 172.9(4) . . . 3 ?
C38 C39 C40 C41 2.1(7) 3 . . 3 ?
C38 C39 C40 C41 -2.1(7) . . . . ?
C38 C39 C40 C41 -172.9(4) 3 . . . ?
C39 C40 C41 C42 1.5(8) . . . . ?
C41 C40 C41 C42 -173.1(4) 3 . . . ?
C40 C41 C42 C37 0.0(7) . . . . ?
C38 C37 C42 C41 -0.7(6) . . . . ?
C32 C37 C42 C41 170.8(4) . . . . ?

_diffrn_measured_fraction_theta_max 0.995
_diffrn_reflns_theta_full        27.23
_diffrn_measured_fraction_theta_full 0.995
_refine_diff_density_max         0.385
_refine_diff_density_min         -0.448
_refine_diff_density_rms         0.045



# start Validation Reply Form

_vrf_PLAT602_I                   
;
PROBLEM: VERY LARGE Solvent Accessible VOID(S) in Structure !
RESPONSE: Diffraction peaks from guest molecules in the pores of the structure have been
removed by SQUEEZE function of PLATON.
;
####################################################################### 
# 
# This file contains crystal structure data downloaded from the 
# Cambridge Structural Database (CSD) hosted by the Cambridge 
# Crystallographic Data Centre (CCDC).
# 
# Full information about CCDC data access policies and citation 
# guidelines are available at http://www.ccdc.cam.ac.uk/access/V1 
# 
# Audit and citation data items may have been added by the CCDC. 
# Please retain this information to preserve the provenance of 
# this file and to allow appropriate attribution of the data. 
# 
#######################################################################

data_SMT-3
_audit_block_doi                 10.5517/ccy426b
_database_code_depnum_ccdc_archive 'CCDC 867851'
loop_
_citation_id
_citation_doi
_citation_year
1 10.1038/ncomms2552 2013
_audit_update_record             
;
2012-02-20 deposited with the CCDC.	2019-02-14 downloaded from the CCDC.
;
#TrackingRef '3-SMT-3.cif'


_audit_creation_method           SHELXL-97
_chemical_name_systematic        
;
?
;
_chemical_name_common            ?
_chemical_melting_point          ?
_chemical_formula_moiety         'C96 H66 Mo4 N10 O18, 2(C4 H9 N O)'
_chemical_formula_sum            'C104 H84 Mo4 N12 O20'
_chemical_formula_weight         2205.59

loop_
_atom_type_symbol
_atom_type_description
_atom_type_scat_dispersion_real
_atom_type_scat_dispersion_imag
_atom_type_scat_source
C C 0.0033 0.0016 'International Tables Vol C Tables 4.2.6.8 and 6.1.1.4'
H H 0.0000 0.0000 'International Tables Vol C Tables 4.2.6.8 and 6.1.1.4'
N N 0.0061 0.0033 'International Tables Vol C Tables 4.2.6.8 and 6.1.1.4'
O O 0.0106 0.0060 'International Tables Vol C Tables 4.2.6.8 and 6.1.1.4'
Mo Mo -1.6832 0.6857 'International Tables Vol C Tables 4.2.6.8 and 6.1.1.4'

_symmetry_cell_setting           Triclinic
_symmetry_space_group_name_H-M   'P -1'
_symmetry_Hall_group_name_H-M    '-P 1'

loop_
_symmetry_equiv_pos_as_xyz
'x, y, z'
'-x, -y, -z'

_cell_length_a                   12.522(3)
_cell_length_b                   15.062(4)
_cell_length_c                   24.647(7)
_cell_angle_alpha                85.358(3)
_cell_angle_beta                 83.045(3)
_cell_angle_gamma                89.313(3)
_cell_volume                     4599(2)
_cell_formula_units_Z            2
_cell_measurement_temperature    110(2)
_cell_measurement_reflns_used    4818
_cell_measurement_theta_min      2.194
_cell_measurement_theta_max      25.478

_exptl_crystal_description       Block
_exptl_crystal_colour            Red
_exptl_crystal_size_max          0.18
_exptl_crystal_size_mid          0.08
_exptl_crystal_size_min          0.02
_exptl_crystal_density_meas      ?
_exptl_crystal_density_diffrn    1.593
_exptl_crystal_density_method    'not measured'
_exptl_crystal_F_000             2240
_exptl_absorpt_coefficient_mu    0.615
_exptl_absorpt_correction_type   Multi-scan
_exptl_absorpt_correction_T_min  0.8974
_exptl_absorpt_correction_T_max  0.9878
_exptl_absorpt_process_details   SADABS

_exptl_special_details           
;
?
;

_diffrn_ambient_temperature      110(2)
_diffrn_radiation_wavelength     0.71073
_diffrn_radiation_type           MoK\a
_diffrn_radiation_source         'fine-focus sealed tube'
_diffrn_radiation_monochromator  graphite
_diffrn_measurement_device_type  'BRUKER APEX-II CCD'
_diffrn_measurement_method       'phi and omega scans'
_diffrn_detector_area_resol_mean ?
_diffrn_reflns_number            44973
_diffrn_reflns_av_R_equivalents  0.0810
_diffrn_reflns_av_sigmaI/netI    0.1132
_diffrn_reflns_limit_h_min       -15
_diffrn_reflns_limit_h_max       15
_diffrn_reflns_limit_k_min       -18
_diffrn_reflns_limit_k_max       18
_diffrn_reflns_limit_l_min       -29
_diffrn_reflns_limit_l_max       29
_diffrn_reflns_theta_min         1.67
_diffrn_reflns_theta_max         25.50
_reflns_number_total             16935
_reflns_number_gt                9130
_reflns_threshold_expression     I>2sigma(I)

_computing_data_collection       'Bruker APEX-II'
_computing_cell_refinement       'Bruker SAINT'
_computing_data_reduction        'Bruker SAINT'
_computing_structure_solution    'SHELXS-97 (Sheldrick, 2008)'
_computing_structure_refinement  'SHELXL-97 (Sheldrick, 2008)'
_computing_molecular_graphics    'Bruker SHELXTL'
_computing_publication_material  'Bruker SHELXTL'

_refine_special_details          
;
Refinement of F^2^ against ALL reflections. The weighted R-factor wR and
goodness of fit S are based on F^2^, conventional R-factors R are based
on F, with F set to zero for negative F^2^. The threshold expression of
F^2^ > 2sigma(F^2^) is used only for calculating R-factors(gt) etc. and is
not relevant to the choice of reflections for refinement. R-factors based
on F^2^ are statistically about twice as large as those based on F, and R-
factors based on ALL data will be even larger.
;

_refine_ls_structure_factor_coef Fsqd
_refine_ls_matrix_type           full
_refine_ls_weighting_scheme      calc
_refine_ls_weighting_details     
'calc w=1/[\s^2^(Fo^2^)+(0.0929P)^2^+0.0000P] where P=(Fo^2^+2Fc^2^)/3'
_atom_sites_solution_primary     direct
_atom_sites_solution_secondary   difmap
_atom_sites_solution_hydrogens   geom
_refine_ls_hydrogen_treatment    constr
_refine_ls_extinction_method     none
_refine_ls_extinction_coef       ?
_refine_ls_number_reflns         16935
_refine_ls_number_parameters     1253
_refine_ls_number_restraints     0
_refine_ls_R_factor_all          0.1495
_refine_ls_R_factor_gt           0.0760
_refine_ls_wR_factor_ref         0.1932
_refine_ls_wR_factor_gt          0.1727
_refine_ls_goodness_of_fit_ref   1.027
_refine_ls_restrained_S_all      1.027
_refine_ls_shift/su_max          0.072
_refine_ls_shift/su_mean         0.001

loop_
_atom_site_label
_atom_site_type_symbol
_atom_site_fract_x
_atom_site_fract_y
_atom_site_fract_z
_atom_site_U_iso_or_equiv
_atom_site_adp_type
_atom_site_occupancy
_atom_site_symmetry_multiplicity
_atom_site_calc_flag
_atom_site_refinement_flags
_atom_site_disorder_assembly
_atom_site_disorder_group
Mo1 Mo 0.53290(3) 0.120658(19) 0.283423(12) 0.02311(9) Uani 1 1 d . . .
Mo2 Mo 0.54120(3) -0.014236(19) 0.265871(12) 0.02198(9) Uani 1 1 d . . .
Mo3 Mo 0.53246(3) -0.488331(19) 0.229236(11) 0.01965(9) Uani 1 1 d . . .
Mo4 Mo 0.54165(3) -0.62274(2) 0.210241(12) 0.02332(9) Uani 1 1 d . . .
O1 O 0.5707(2) 0.08850(14) 0.36346(9) 0.0253(7) Uani 1 1 d . . .
O2 O 0.5795(2) -0.05518(14) 0.34575(9) 0.0249(7) Uani 1 1 d . . .
O3 O 0.5868(2) -0.66739(14) 0.28768(9) 0.0256(7) Uani 1 1 d . . .
O4 O 0.5747(2) -0.52440(14) 0.30820(9) 0.0229(7) Uani 1 1 d . . .
O5 O 0.70369(19) -0.61125(14) 0.18257(9) 0.0245(7) Uani 1 1 d . . .
O6 O 0.69813(19) -0.46971(14) 0.20348(9) 0.0217(7) Uani 1 1 d . . .
O7 O 0.69629(19) 0.14239(14) 0.25474(9) 0.0246(7) Uani 1 1 d . . .
O8 O 0.70513(19) -0.00041(14) 0.23716(9) 0.0232(7) Uani 1 1 d . . .
O9 O 0.4879(2) 0.16319(14) 0.20622(9) 0.0229(7) Uani 1 1 d . . .
O10 O 0.4952(2) 0.02030(14) 0.18729(9) 0.0246(7) Uani 1 1 d . . .
O11 O 0.4967(2) -0.58932(14) 0.13192(9) 0.0238(7) Uani 1 1 d . . .
O12 O 0.48935(19) -0.44600(14) 0.15111(9) 0.0205(7) Uani 1 1 d . . .
O13 O 0.37359(19) -0.64506(15) 0.23631(9) 0.0235(6) Uiso 1 1 d . . .
O14 O 0.36403(18) -0.50319(15) 0.25666(9) 0.0207(6) Uiso 1 1 d . . .
O15 O 0.36279(19) 0.10932(15) 0.31146(9) 0.0245(6) Uiso 1 1 d . . .
O16 O 0.37350(18) -0.03432(15) 0.29391(9) 0.0211(6) Uiso 1 1 d . . .
O17 O 0.5803(2) -0.15740(16) 0.23168(11) 0.0467(10) Uani 1 1 d . . .
O18 O 0.4928(2) -0.34860(15) 0.26833(9) 0.0270(7) Uani 1 1 d . . .
O19 O -0.0769(6) -0.2677(4) -0.0343(3) 0.270(3) Uani 1 1 d . . .
O20 O 0.8628(3) -0.7825(2) 0.55507(12) 0.0614(11) Uani 1 1 d . . .
N1 N 0.6324(2) -0.28560(17) 0.50130(11) 0.0205(8) Uani 1 1 d . . .
N2 N 0.6411(2) -0.43637(17) 0.48719(11) 0.0192(8) Uani 1 1 d . . .
N3 N 1.0497(3) -0.1423(2) 0.18224(12) 0.0343(10) Uani 1 1 d . . .
N4 N 1.0474(3) -0.2920(2) 0.17171(13) 0.0376(11) Uani 1 1 d . . .
N5 N 0.3543(3) -0.0729(2) 0.02298(11) 0.0312(9) Uani 1 1 d . . .
N6 N 0.3562(3) -0.22325(19) 0.00933(12) 0.0320(10) Uani 1 1 d . . .
N7 N 0.0242(2) -0.20917(19) 0.32790(12) 0.0273(9) Uani 1 1 d . . .
N8 N 0.0249(2) -0.36062(19) 0.31608(12) 0.0276(9) Uani 1 1 d . . .
N9 N 0.6646(4) -0.2207(2) 0.15688(17) 0.0658(15) Uani 1 1 d . . .
N10 N 0.4035(3) -0.2810(2) 0.33790(13) 0.0467(12) Uani 1 1 d . . .
N11 N 0.0177(4) -0.1776(4) 0.0033(2) 0.122(2) Uani 1 1 d . . .
N12 N 0.9970(3) -0.7124(3) 0.49900(18) 0.0752(16) Uani 1 1 d . . .
C1 C 0.5877(3) 0.0062(2) 0.37863(14) 0.0285(11) Uani 1 1 d . . .
C2 C 0.6133(3) -0.0166(2) 0.43443(14) 0.0235(10) Uani 1 1 d . . .
C3 C 0.6437(3) 0.0491(2) 0.46493(15) 0.0326(12) Uani 1 1 d . . .
H3 H 0.6424 0.1095 0.4505 0.039 Uiso 1 1 calc R . .
C4 C 0.6765(3) 0.0288(2) 0.51664(15) 0.0330(12) Uani 1 1 d . . .
H4 H 0.7013 0.0744 0.5364 0.040 Uiso 1 1 calc R . .
C5 C 0.6723(3) -0.0580(2) 0.53865(14) 0.0288(11) Uani 1 1 d . . .
H5 H 0.6926 -0.0717 0.5743 0.035 Uiso 1 1 calc R . .
C6 C 0.6390(3) -0.1264(2) 0.50991(13) 0.0221(10) Uani 1 1 d . . .
C7 C 0.6092(3) -0.1058(2) 0.45784(13) 0.0228(10) Uani 1 1 d . . .
H7 H 0.5860 -0.1518 0.4378 0.027 Uiso 1 1 calc R . .
C8 C 0.6335(3) -0.2210(2) 0.53503(13) 0.0209(10) Uani 1 1 d . . .
C9 C 0.6303(3) -0.2379(2) 0.59284(13) 0.0249(10) Uani 1 1 d . . .
H9 H 0.6237 -0.1900 0.6158 0.030 Uiso 1 1 calc R . .
C10 C 0.6366(3) -0.3231(2) 0.61502(14) 0.0282(11) Uani 1 1 d . . .
H10 H 0.6376 -0.3351 0.6534 0.034 Uiso 1 1 calc R . .
C11 C 0.6418(3) -0.3934(2) 0.58060(14) 0.0231(10) Uani 1 1 d . . .
C12 C 0.6374(3) -0.3723(2) 0.52375(13) 0.0217(10) Uani 1 1 d . . .
C13 C 0.6526(3) -0.4846(2) 0.59885(14) 0.0283(11) Uani 1 1 d . . .
H13 H 0.6546 -0.5016 0.6367 0.034 Uiso 1 1 calc R . .
C14 C 0.6601(3) -0.5472(2) 0.56204(14) 0.0293(11) Uani 1 1 d . . .
H14 H 0.6676 -0.6085 0.5736 0.035 Uiso 1 1 calc R . .
C15 C 0.6567(3) -0.5192(2) 0.50508(14) 0.0234(10) Uani 1 1 d . . .
C16 C 0.6661(3) -0.5862(2) 0.46296(13) 0.0196(10) Uani 1 1 d . . .
C17 C 0.7216(3) -0.6667(2) 0.47170(15) 0.0294(11) Uani 1 1 d . . .
H17 H 0.7477 -0.6812 0.5060 0.035 Uiso 1 1 calc R . .
C18 C 0.7388(3) -0.7254(2) 0.43076(16) 0.0388(13) Uani 1 1 d . . .
H18 H 0.7797 -0.7780 0.4370 0.047 Uiso 1 1 calc R . .
C19 C 0.6985(3) -0.7093(2) 0.38200(15) 0.0265(11) Uani 1 1 d . . .
H19 H 0.7093 -0.7508 0.3548 0.032 Uiso 1 1 calc R . .
C20 C 0.6401(3) -0.6293(2) 0.37270(13) 0.0213(10) Uani 1 1 d . . .
C21 C 0.6290(3) -0.5675(2) 0.41242(13) 0.0221(10) Uani 1 1 d . . .
H21 H 0.5954 -0.5118 0.4047 0.027 Uiso 1 1 calc R . .
C22 C 0.5987(3) -0.6055(2) 0.32002(13) 0.0203(10) Uani 1 1 d . . .
C23 C 0.7526(3) -0.5368(2) 0.18384(13) 0.0240(10) Uani 1 1 d . . .
C24 C 0.8704(3) -0.5258(2) 0.16355(14) 0.0314(12) Uani 1 1 d . . .
C25 C 0.9187(3) -0.5915(3) 0.13279(15) 0.0376(13) Uani 1 1 d . . .
H25 H 0.8780 -0.6408 0.1251 0.045 Uiso 1 1 calc R . .
C26 C 1.0257(4) -0.5847(3) 0.11347(17) 0.0471(14) Uani 1 1 d . . .
H26 H 1.0594 -0.6287 0.0916 0.057 Uiso 1 1 calc R . .
C27 C 1.0846(4) -0.5137(3) 0.12594(17) 0.0484(15) Uani 1 1 d . . .
H27 H 1.1594 -0.5104 0.1133 0.058 Uiso 1 1 calc R . .
C28 C 1.0373(4) -0.4473(3) 0.15635(16) 0.0406(13) Uani 1 1 d . . .
C29 C 0.9278(3) -0.4537(2) 0.17482(15) 0.0286(11) Uani 1 1 d . . .
H29 H 0.8929 -0.4083 0.1951 0.034 Uiso 1 1 calc R . .
C30 C 1.1005(4) -0.3686(3) 0.16754(16) 0.0406(13) Uani 1 1 d . . .
C31 C 1.2123(4) -0.3792(3) 0.17013(18) 0.0462(15) Uani 1 1 d . . .
H31 H 1.2459 -0.4357 0.1670 0.055 Uiso 1 1 calc R . .
C32 C 1.2703(4) -0.3062(3) 0.17726(19) 0.0553(16) Uani 1 1 d . . .
H32 H 1.3451 -0.3117 0.1801 0.066 Uiso 1 1 calc R . .
C33 C 1.2193(3) -0.2217(3) 0.18047(18) 0.0415(13) Uani 1 1 d . . .
C34 C 1.1074(3) -0.2183(3) 0.17859(16) 0.0373(13) Uani 1 1 d . . .
C35 C 1.2724(4) -0.1417(3) 0.18706(19) 0.0542(16) Uani 1 1 d . . .
H35 H 1.3474 -0.1416 0.1899 0.065 Uiso 1 1 calc R . .
C36 C 1.2145(4) -0.0650(3) 0.18927(17) 0.0460(14) Uani 1 1 d . . .
H36 H 1.2488 -0.0102 0.1927 0.055 Uiso 1 1 calc R . .
C37 C 1.1040(4) -0.0676(3) 0.18636(16) 0.0397(13) Uani 1 1 d . . .
C38 C 1.0390(3) 0.0145(2) 0.18947(15) 0.0344(12) Uani 1 1 d . . .
C39 C 1.0836(4) 0.1002(3) 0.17425(17) 0.0433(14) Uani 1 1 d . . .
H39 H 1.1581 0.1064 0.1615 0.052 Uiso 1 1 calc R . .
C40 C 1.0185(4) 0.1750(3) 0.17799(17) 0.0451(14) Uani 1 1 d . . .
H40 H 1.0490 0.2316 0.1654 0.054 Uiso 1 1 calc R . .
C41 C 0.9109(3) 0.1710(2) 0.19927(16) 0.0359(13) Uani 1 1 d . . .
H41 H 0.8683 0.2232 0.2034 0.043 Uiso 1 1 calc R . .
C42 C 0.8680(3) 0.0850(2) 0.21456(14) 0.0288(11) Uani 1 1 d . . .
C43 C 0.9292(3) 0.0094(2) 0.20926(15) 0.0293(11) Uani 1 1 d . . .
H43 H 0.8968 -0.0473 0.2191 0.035 Uiso 1 1 calc R . .
C44 C 0.7505(3) 0.0756(2) 0.23628(14) 0.0268(11) Uani 1 1 d . . .
C45 C 0.4692(3) 0.1022(2) 0.17584(14) 0.0290(11) Uani 1 1 d . . .
C46 C 0.4118(3) 0.1227(2) 0.12752(14) 0.0285(11) Uani 1 1 d . . .
C47 C 0.3590(4) 0.2057(3) 0.12232(16) 0.0427(13) Uani 1 1 d . . .
H47 H 0.3660 0.2494 0.1473 0.051 Uiso 1 1 calc R . .
C48 C 0.2964(4) 0.2217(3) 0.07961(16) 0.0417(13) Uani 1 1 d . . .
H48 H 0.2570 0.2758 0.0769 0.050 Uiso 1 1 calc R . .
C49 C 0.2901(3) 0.1604(2) 0.04061(16) 0.0358(12) Uani 1 1 d . . .
H49 H 0.2490 0.1738 0.0110 0.043 Uiso 1 1 calc R . .
C50 C 0.3454(3) 0.0781(2) 0.04547(15) 0.0320(11) Uani 1 1 d . . .
C51 C 0.4041(3) 0.0614(2) 0.08975(14) 0.0310(12) Uani 1 1 d . . .
H51 H 0.4400 0.0058 0.0940 0.037 Uiso 1 1 calc R . .
C52 C 0.3356(3) 0.0105(2) 0.00602(14) 0.0327(12) Uani 1 1 d . . .
C53 C 0.3076(3) 0.0361(3) -0.04755(15) 0.0394(13) Uani 1 1 d . . .
H53 H 0.2957 0.0971 -0.0584 0.047 Uiso 1 1 calc R . .
C54 C 0.2980(4) -0.0271(3) -0.08287(16) 0.0441(14) Uani 1 1 d . . .
H54 H 0.2810 -0.0106 -0.1189 0.053 Uiso 1 1 calc R . .
C55 C 0.3134(3) -0.1177(3) -0.06578(14) 0.0324(12) Uani 1 1 d . . .
C56 C 0.3433(3) -0.1378(3) -0.01225(14) 0.0322(12) Uani 1 1 d . . .
C57 C 0.3048(3) -0.1882(3) -0.09811(15) 0.0395(13) Uani 1 1 d . . .
H57 H 0.2904 -0.1770 -0.1350 0.047 Uiso 1 1 calc R . .
C58 C 0.3170(3) -0.2730(3) -0.07665(15) 0.0409(13) Uani 1 1 d . . .
H58 H 0.3091 -0.3218 -0.0979 0.049 Uiso 1 1 calc R . .
C59 C 0.3416(3) -0.2875(2) -0.02237(14) 0.0330(12) Uani 1 1 d . . .
C60 C 0.3508(3) -0.3809(2) 0.00208(14) 0.0295(11) Uani 1 1 d . . .
C61 C 0.3083(3) -0.4535(2) -0.02089(15) 0.0349(12) Uani 1 1 d . . .
H61 H 0.2697 -0.4427 -0.0517 0.042 Uiso 1 1 calc R . .
C62 C 0.3213(3) -0.5396(3) 0.00031(16) 0.0354(12) Uani 1 1 d . . .
H62 H 0.2907 -0.5878 -0.0150 0.042 Uiso 1 1 calc R . .
C63 C 0.3797(3) -0.5551(2) 0.04443(15) 0.0319(12) Uani 1 1 d . . .
H63 H 0.3938 -0.6147 0.0574 0.038 Uiso 1 1 calc R . .
C64 C 0.4177(3) -0.4861(2) 0.06972(14) 0.0246(10) Uani 1 1 d . . .
C65 C 0.4038(3) -0.3981(2) 0.04817(14) 0.0254(10) Uani 1 1 d . . .
H65 H 0.4308 -0.3500 0.0652 0.030 Uiso 1 1 calc R . .
C66 C 0.4734(3) -0.5069(2) 0.12006(14) 0.0240(10) Uani 1 1 d . . .
C67 C 0.3220(3) -0.5780(2) 0.25163(13) 0.0199(10) Uani 1 1 d . . .
C68 C 0.2075(3) -0.5851(2) 0.26598(14) 0.0258(11) Uani 1 1 d . . .
C69 C 0.1503(3) -0.6607(2) 0.25818(15) 0.0347(12) Uani 1 1 d . . .
H69 H 0.1878 -0.7104 0.2437 0.042 Uiso 1 1 calc R . .
C70 C 0.0408(4) -0.6647(3) 0.27106(17) 0.0435(14) Uani 1 1 d . . .
H70 H 0.0040 -0.7169 0.2648 0.052 Uiso 1 1 calc R . .
C71 C -0.0179(3) -0.5946(2) 0.29302(16) 0.0337(12) Uani 1 1 d . . .
H71 H -0.0937 -0.5990 0.3020 0.040 Uiso 1 1 calc R . .
C72 C 0.0373(3) -0.5165(2) 0.30189(14) 0.0252(11) Uani 1 1 d . . .
C73 C 0.1473(3) -0.5136(2) 0.28785(14) 0.0261(11) Uani 1 1 d . . .
H73 H 0.1844 -0.4610 0.2932 0.031 Uiso 1 1 calc R . .
C74 C -0.0217(3) -0.4404(2) 0.32511(15) 0.0257(11) Uani 1 1 d . . .
C75 C -0.1231(3) -0.4540(3) 0.35881(16) 0.0345(12) Uani 1 1 d . . .
H75 H -0.1542 -0.5117 0.3645 0.041 Uiso 1 1 calc R . .
C76 C -0.1743(3) -0.3848(3) 0.38245(16) 0.0354(12) Uani 1 1 d . . .
H76 H -0.2399 -0.3939 0.4059 0.042 Uiso 1 1 calc R . .
C77 C -0.1295(3) -0.2996(2) 0.37200(15) 0.0285(11) Uani 1 1 d . . .
C78 C -0.0277(3) -0.2895(2) 0.33873(15) 0.0277(11) Uani 1 1 d . . .
C79 C -0.1758(3) -0.2232(2) 0.39404(15) 0.0320(12) Uani 1 1 d . . .
H79 H -0.2431 -0.2271 0.4165 0.038 Uiso 1 1 calc R . .
C80 C -0.1245(3) -0.1433(3) 0.38327(15) 0.0354(12) Uani 1 1 d . . .
H80 H -0.1559 -0.0913 0.3979 0.043 Uiso 1 1 calc R . .
C81 C -0.0227(3) -0.1383(3) 0.34966(15) 0.0314(12) Uani 1 1 d . . .
C82 C 0.0373(3) -0.0528(2) 0.34006(14) 0.0266(11) Uani 1 1 d . . .
C83 C -0.0217(3) 0.0284(3) 0.34480(16) 0.0344(12) Uani 1 1 d . . .
H83 H -0.0979 0.0277 0.3522 0.041 Uiso 1 1 calc R . .
C84 C 0.0342(3) 0.1084(3) 0.33849(16) 0.0397(13) Uani 1 1 d . . .
H84 H -0.0048 0.1627 0.3411 0.048 Uiso 1 1 calc R . .
C85 C 0.1454(3) 0.1109(2) 0.32849(15) 0.0325(12) Uani 1 1 d . . .
H85 H 0.1819 0.1663 0.3259 0.039 Uiso 1 1 calc R . .
C86 C 0.2047(3) 0.0312(2) 0.32213(14) 0.0272(11) Uani 1 1 d . . .
C87 C 0.1488(3) -0.0497(2) 0.32834(14) 0.0261(11) Uani 1 1 d . . .
H87 H 0.1879 -0.1037 0.3244 0.031 Uiso 1 1 calc R . .
C88 C 0.3220(3) 0.0338(2) 0.30785(13) 0.0235(10) Uani 1 1 d . . .
C89 C 0.7653(4) -0.2130(3) 0.2334(2) 0.0629(18) Uani 1 1 d . . .
H89A H 0.7632 -0.1780 0.2653 0.094 Uiso 1 1 calc R . .
H89B H 0.8284 -0.1959 0.2073 0.094 Uiso 1 1 calc R . .
H89C H 0.7697 -0.2765 0.2452 0.094 Uiso 1 1 calc R . .
C90 C 0.6620(5) -0.1950(3) 0.20550(18) 0.0650(18) Uani 1 1 d . . .
C91 C 0.7500(5) -0.2718(3) 0.1285(2) 0.092(2) Uani 1 1 d . . .
H91A H 0.8191 -0.2567 0.1403 0.138 Uiso 1 1 calc R . .
H91B H 0.7526 -0.2575 0.0888 0.138 Uiso 1 1 calc R . .
H91C H 0.7361 -0.3356 0.1371 0.138 Uiso 1 1 calc R . .
C92 C 0.5600(4) -0.2100(3) 0.1352(2) 0.0677(19) Uani 1 1 d . . .
H92A H 0.5085 -0.2530 0.1552 0.102 Uiso 1 1 calc R . .
H92B H 0.5691 -0.2204 0.0962 0.102 Uiso 1 1 calc R . .
H92C H 0.5329 -0.1494 0.1398 0.102 Uiso 1 1 calc R . .
C93 C 0.5855(4) -0.3102(3) 0.34394(17) 0.0486(15) Uani 1 1 d . . .
H93A H 0.6423 -0.3488 0.3278 0.073 Uiso 1 1 calc R . .
H93B H 0.5652 -0.3307 0.3825 0.073 Uiso 1 1 calc R . .
H93C H 0.6120 -0.2488 0.3414 0.073 Uiso 1 1 calc R . .
C94 C 0.4865(4) -0.3136(2) 0.31253(17) 0.0461(15) Uani 1 1 d . . .
C95 C 0.3975(4) -0.2256(2) 0.38429(15) 0.0377(13) Uani 1 1 d . . .
H95A H 0.4407 -0.2526 0.4119 0.057 Uiso 1 1 calc R . .
H95B H 0.3224 -0.2210 0.4006 0.057 Uiso 1 1 calc R . .
H95C H 0.4251 -0.1660 0.3715 0.057 Uiso 1 1 calc R . .
C96 C 0.3029(4) -0.2809(3) 0.3101(2) 0.0559(16) Uani 1 1 d . . .
H96A H 0.2967 -0.2239 0.2885 0.084 Uiso 1 1 calc R . .
H96B H 0.2401 -0.2891 0.3378 0.084 Uiso 1 1 calc R . .
H96C H 0.3064 -0.3296 0.2859 0.084 Uiso 1 1 calc R . .
C97 C 0.0263(7) -0.3268(5) 0.0328(2) 0.150(4) Uani 1 1 d . . .
H97A H 0.1011 -0.3327 0.0165 0.224 Uiso 1 1 calc R . .
H97B H -0.0123 -0.3824 0.0305 0.224 Uiso 1 1 calc R . .
H97C H 0.0247 -0.3146 0.0714 0.224 Uiso 1 1 calc R . .
C98 C -0.0210(7) -0.2597(5) 0.0057(3) 0.148(3) Uani 1 1 d . . .
C99 C -0.0124(7) -0.0963(5) -0.0364(3) 0.168(4) Uani 1 1 d . . .
H99A H -0.0510 -0.1179 -0.0650 0.251 Uiso 1 1 calc R . .
H99B H 0.0535 -0.0658 -0.0534 0.251 Uiso 1 1 calc R . .
H99C H -0.0582 -0.0546 -0.0156 0.251 Uiso 1 1 calc R . .
C100 C 0.0697(7) -0.1481(5) 0.0470(2) 0.150(4) Uani 1 1 d . . .
H10A H 0.1095 -0.1979 0.0633 0.225 Uiso 1 1 calc R . .
H10B H 0.0156 -0.1265 0.0751 0.225 Uiso 1 1 calc R . .
H10C H 0.1196 -0.0998 0.0328 0.225 Uiso 1 1 calc R . .
C101 C 0.9815(5) -0.8745(4) 0.5013(2) 0.093(2) Uani 1 1 d . . .
H10D H 0.9536 -0.9221 0.5286 0.140 Uiso 1 1 calc R . .
H10E H 1.0603 -0.8767 0.4964 0.140 Uiso 1 1 calc R . .
H10F H 0.9546 -0.8824 0.4663 0.140 Uiso 1 1 calc R . .
C102 C 0.9442(4) -0.7841(3) 0.52101(18) 0.0570(16) Uani 1 1 d . . .
C103 C 1.0837(5) -0.7128(6) 0.4553(3) 0.146(4) Uani 1 1 d . . .
H10G H 1.1275 -0.7665 0.4604 0.219 Uiso 1 1 calc R . .
H10H H 1.1285 -0.6599 0.4554 0.219 Uiso 1 1 calc R . .
H10I H 1.0544 -0.7122 0.4201 0.219 Uiso 1 1 calc R . .
C104 C 0.9684(4) -0.6273(4) 0.5194(2) 0.102(2) Uani 1 1 d . . .
H10J H 0.9178 -0.6360 0.5530 0.153 Uiso 1 1 calc R . .
H10K H 0.9346 -0.5902 0.4916 0.153 Uiso 1 1 calc R . .
H10L H 1.0333 -0.5976 0.5274 0.153 Uiso 1 1 calc R . .

loop_
_atom_site_aniso_label
_atom_site_aniso_U_11
_atom_site_aniso_U_22
_atom_site_aniso_U_33
_atom_site_aniso_U_23
_atom_site_aniso_U_13
_atom_site_aniso_U_12
Mo1 0.0395(2) 0.00997(15) 0.02052(15) 0.00072(13) -0.00728(15) -0.00428(14)
Mo2 0.0378(2) 0.01040(15) 0.01827(15) 0.00097(12) -0.00652(14) -0.00438(14)
Mo3 0.03450(19) 0.00989(14) 0.01500(14) 0.00008(12) -0.00550(14) 0.00044(14)
Mo4 0.0417(2) 0.01183(15) 0.01724(15) -0.00168(13) -0.00686(15) 0.00176(15)
O1 0.0408(16) 0.0107(11) 0.0244(12) -0.0007(10) -0.0032(12) -0.0082(11)
O2 0.0434(15) 0.0096(11) 0.0241(12) -0.0041(10) -0.0123(12) -0.0009(11)
O3 0.0474(16) 0.0109(12) 0.0200(12) -0.0023(10) -0.0091(12) 0.0020(12)
O4 0.0402(15) 0.0110(11) 0.0197(12) -0.0039(10) -0.0101(11) -0.0006(11)
O5 0.0346(14) 0.0137(12) 0.0277(12) -0.0060(10) -0.0123(11) 0.0121(11)
O6 0.0264(14) 0.0171(12) 0.0232(12) -0.0079(10) -0.0067(11) 0.0093(11)
O7 0.0345(14) 0.0082(11) 0.0342(13) -0.0030(10) -0.0166(11) 0.0046(11)
O8 0.0286(14) 0.0083(11) 0.0342(13) -0.0045(10) -0.0088(11) 0.0010(11)
O9 0.0353(15) 0.0124(12) 0.0210(12) -0.0009(10) -0.0031(11) -0.0062(11)
O10 0.0359(15) 0.0144(12) 0.0244(12) -0.0015(10) -0.0070(11) -0.0019(12)
O11 0.0393(15) 0.0145(12) 0.0182(12) -0.0027(10) -0.0055(11) 0.0064(12)
O12 0.0266(14) 0.0172(12) 0.0186(11) -0.0017(10) -0.0062(10) 0.0049(11)
O17 0.070(2) 0.0153(13) 0.0532(17) -0.0090(13) 0.0029(16) -0.0114(14)
O18 0.0438(16) 0.0130(12) 0.0276(12) -0.0032(10) -0.0175(12) 0.0005(12)
O19 0.410(7) 0.161(5) 0.306(5) -0.099(4) -0.279(4) 0.120(5)
O20 0.063(2) 0.064(2) 0.0532(19) 0.0081(17) -0.0020(17) 0.0231(18)
N1 0.0340(17) 0.0104(14) 0.0186(14) -0.0014(12) -0.0088(13) 0.0038(13)
N2 0.0222(16) 0.0147(14) 0.0215(14) 0.0024(12) -0.0078(13) -0.0036(13)
N3 0.042(2) 0.0282(18) 0.0308(17) 0.0011(15) 0.0010(16) 0.0043(16)
N4 0.045(2) 0.0310(18) 0.0347(18) 0.0037(16) -0.0004(17) 0.0084(17)
N5 0.050(2) 0.0262(17) 0.0196(15) -0.0004(13) -0.0144(15) -0.0023(16)
N6 0.051(2) 0.0215(16) 0.0257(16) -0.0042(13) -0.0116(15) 0.0061(16)
N7 0.0272(18) 0.0229(16) 0.0337(17) -0.0080(14) -0.0076(14) -0.0016(14)
N8 0.0257(17) 0.0243(16) 0.0324(17) -0.0014(14) -0.0015(15) -0.0048(15)
N9 0.081(3) 0.036(2) 0.075(3) 0.006(2) 0.003(3) -0.004(2)
N10 0.079(3) 0.0254(18) 0.0329(19) -0.0079(15) 0.0076(19) -0.0052(19)
N11 0.102(4) 0.159(5) 0.115(4) -0.014(4) -0.047(3) 0.019(4)
N12 0.046(3) 0.091(3) 0.090(3) 0.008(3) -0.022(2) -0.010(2)
C1 0.042(2) 0.0167(18) 0.0269(19) -0.0043(16) -0.0035(18) 0.0034(18)
C2 0.035(2) 0.0137(17) 0.0225(18) -0.0018(15) -0.0059(17) 0.0017(17)
C3 0.050(3) 0.0153(19) 0.032(2) 0.0007(17) -0.005(2) 0.0076(19)
C4 0.050(3) 0.0200(19) 0.034(2) -0.0109(16) -0.0188(19) -0.0016(19)
C5 0.049(2) 0.0204(19) 0.0205(17) -0.0084(15) -0.0147(17) 0.0008(18)
C6 0.031(2) 0.0180(18) 0.0182(17) -0.0060(15) -0.0026(16) 0.0006(17)
C7 0.036(2) 0.0134(17) 0.0215(17) -0.0017(14) -0.0113(16) -0.0023(16)
C8 0.027(2) 0.0222(18) 0.0134(16) -0.0030(15) -0.0034(15) 0.0035(17)
C9 0.036(2) 0.0211(19) 0.0181(17) -0.0015(15) -0.0051(16) -0.0072(17)
C10 0.042(2) 0.032(2) 0.0100(16) 0.0028(16) -0.0022(17) -0.0050(19)
C11 0.026(2) 0.0210(19) 0.0217(18) 0.0015(15) -0.0034(16) -0.0034(17)
C12 0.026(2) 0.0238(19) 0.0146(16) -0.0017(15) -0.0010(15) 0.0017(17)
C13 0.043(2) 0.0237(19) 0.0164(18) 0.0084(16) -0.0021(17) -0.0153(18)
C14 0.047(2) 0.0192(19) 0.0228(18) 0.0064(16) -0.0114(18) -0.0076(18)
C15 0.031(2) 0.0188(18) 0.0209(18) 0.0026(15) -0.0069(16) -0.0071(17)
C16 0.024(2) 0.0103(16) 0.0230(18) 0.0084(14) -0.0033(16) -0.0068(15)
C17 0.038(2) 0.0175(19) 0.035(2) 0.0048(16) -0.0177(18) -0.0073(18)
C18 0.060(3) 0.0104(18) 0.050(2) 0.0009(18) -0.024(2) -0.0004(19)
C19 0.035(2) 0.0091(17) 0.037(2) -0.0003(16) -0.0094(18) 0.0036(17)
C20 0.032(2) 0.0117(17) 0.0203(17) 0.0028(14) -0.0050(16) -0.0017(16)
C21 0.036(2) 0.0128(17) 0.0158(17) 0.0078(14) -0.0022(16) -0.0034(17)
C22 0.0190(19) 0.0185(18) 0.0232(18) 0.0030(15) -0.0058(15) 0.0017(16)
C23 0.033(2) 0.0221(19) 0.0195(17) -0.0001(15) -0.0154(16) 0.0066(17)
C24 0.054(3) 0.0142(18) 0.0249(19) 0.0044(16) -0.0033(19) 0.0062(19)
C25 0.057(3) 0.027(2) 0.030(2) -0.0061(18) -0.010(2) 0.007(2)
C26 0.058(3) 0.036(2) 0.045(3) -0.011(2) 0.008(2) 0.018(2)
C27 0.041(3) 0.052(3) 0.050(3) -0.008(2) 0.006(2) 0.018(2)
C28 0.055(3) 0.024(2) 0.038(2) 0.0014(19) 0.007(2) 0.010(2)
C29 0.035(2) 0.0190(19) 0.031(2) 0.0034(17) -0.0038(18) 0.0007(18)
C30 0.050(3) 0.027(2) 0.038(2) 0.0117(19) 0.014(2) -0.004(2)
C31 0.043(3) 0.028(2) 0.064(3) 0.001(2) 0.005(2) 0.002(2)
C32 0.035(3) 0.045(3) 0.078(3) 0.004(3) 0.014(3) 0.016(2)
C33 0.037(3) 0.026(2) 0.061(3) 0.001(2) -0.007(2) 0.008(2)
C34 0.045(3) 0.028(2) 0.038(2) 0.0082(19) -0.006(2) -0.001(2)
C35 0.049(3) 0.041(3) 0.071(3) -0.010(2) 0.000(3) 0.000(2)
C36 0.053(3) 0.028(2) 0.056(3) -0.003(2) -0.002(2) -0.009(2)
C37 0.053(3) 0.033(2) 0.033(2) 0.0018(19) -0.009(2) 0.003(2)
C38 0.050(3) 0.026(2) 0.027(2) -0.0031(17) -0.0056(19) -0.002(2)
C39 0.048(3) 0.033(2) 0.048(3) -0.004(2) -0.001(2) -0.006(2)
C40 0.058(3) 0.027(2) 0.046(3) 0.004(2) 0.007(2) 0.002(2)
C41 0.043(3) 0.018(2) 0.046(2) -0.0004(18) -0.001(2) 0.0032(19)
C42 0.034(2) 0.029(2) 0.0222(19) 0.0027(17) 0.0010(17) -0.0058(19)
C43 0.032(2) 0.0202(19) 0.035(2) 0.0023(17) -0.0042(18) -0.0015(18)
C44 0.047(2) 0.0090(17) 0.0263(18) -0.0003(15) -0.0124(18) 0.0106(17)
C45 0.048(3) 0.0160(18) 0.0221(18) 0.0016(16) -0.0030(18) -0.0109(18)
C46 0.046(2) 0.0152(18) 0.0270(19) 0.0027(16) -0.0166(18) -0.0083(18)
C47 0.074(3) 0.025(2) 0.033(2) -0.0007(18) -0.021(2) -0.017(2)
C48 0.066(3) 0.022(2) 0.042(2) 0.0018(18) -0.028(2) 0.003(2)
C49 0.048(3) 0.027(2) 0.032(2) 0.0043(18) -0.010(2) -0.013(2)
C50 0.047(2) 0.021(2) 0.031(2) 0.0012(17) -0.0192(18) -0.0117(19)
C51 0.051(3) 0.0185(19) 0.0223(19) 0.0069(16) -0.0031(19) -0.0049(19)
C52 0.047(3) 0.028(2) 0.0231(19) 0.0053(17) -0.0078(18) -0.011(2)
C53 0.057(3) 0.031(2) 0.033(2) 0.0005(18) -0.020(2) -0.002(2)
C54 0.072(3) 0.038(2) 0.027(2) -0.0005(19) -0.027(2) 0.006(2)
C55 0.047(3) 0.031(2) 0.0213(18) -0.0022(17) -0.0126(18) 0.007(2)
C56 0.044(2) 0.034(2) 0.0212(18) -0.0031(17) -0.0128(18) 0.004(2)
C57 0.062(3) 0.038(2) 0.0211(19) -0.0038(18) -0.0136(19) 0.011(2)
C58 0.064(3) 0.035(2) 0.030(2) -0.0118(18) -0.025(2) 0.006(2)
C59 0.055(3) 0.023(2) 0.0257(18) -0.0067(16) -0.0214(18) 0.0086(19)
C60 0.039(2) 0.025(2) 0.0260(19) -0.0125(16) -0.0043(18) 0.0054(19)
C61 0.051(2) 0.0198(19) 0.041(2) -0.0070(17) -0.0310(18) 0.0022(19)
C62 0.037(2) 0.030(2) 0.043(2) -0.0067(19) -0.0187(19) -0.001(2)
C63 0.043(2) 0.0162(19) 0.038(2) 0.0001(17) -0.0133(19) 0.0021(18)
C64 0.035(2) 0.0191(18) 0.0214(18) -0.0048(15) -0.0063(17) 0.0013(17)
C65 0.032(2) 0.0162(18) 0.0309(19) -0.0069(15) -0.0142(17) 0.0018(17)
C66 0.035(2) 0.0161(18) 0.0207(18) -0.0015(15) -0.0043(17) 0.0040(17)
C67 0.0237(19) 0.0191(18) 0.0166(17) 0.0055(15) -0.0046(15) -0.0108(16)
C68 0.042(2) 0.0138(18) 0.0232(18) -0.0029(15) -0.0094(17) 0.0002(18)
C69 0.048(3) 0.0146(19) 0.042(2) -0.0066(17) -0.004(2) 0.0035(19)
C70 0.055(3) 0.025(2) 0.050(3) -0.004(2) 0.000(2) -0.019(2)
C71 0.020(2) 0.028(2) 0.053(2) -0.0033(19) -0.0017(19) -0.0136(18)
C72 0.022(2) 0.0218(19) 0.030(2) 0.0039(16) -0.0011(17) -0.0092(17)
C73 0.036(2) 0.0162(18) 0.0264(19) 0.0029(16) -0.0078(17) -0.0066(17)
C74 0.0169(19) 0.027(2) 0.033(2) 0.0031(17) -0.0068(16) -0.0108(17)
C75 0.033(2) 0.025(2) 0.045(2) 0.0030(19) -0.005(2) -0.0107(19)
C76 0.025(2) 0.042(2) 0.038(2) 0.004(2) -0.0048(19) -0.006(2)
C77 0.027(2) 0.029(2) 0.030(2) 0.0000(17) -0.0088(17) 0.0043(18)
C78 0.024(2) 0.025(2) 0.034(2) 0.0007(17) -0.0055(17) -0.0056(17)
C79 0.022(2) 0.037(2) 0.034(2) 0.0003(19) 0.0055(18) -0.0077(19)
C80 0.045(3) 0.036(2) 0.028(2) -0.0091(18) -0.0076(19) 0.002(2)
C81 0.033(2) 0.037(2) 0.0256(19) 0.0024(18) -0.0110(18) -0.002(2)
C82 0.033(2) 0.026(2) 0.0215(18) 0.0031(16) -0.0104(17) -0.0034(18)
C83 0.025(2) 0.034(2) 0.045(2) 0.0031(19) -0.0118(19) -0.0046(19)
C84 0.042(3) 0.028(2) 0.050(3) 0.002(2) -0.008(2) -0.002(2)
C85 0.040(2) 0.0109(18) 0.046(2) 0.0011(17) -0.008(2) -0.0025(18)
C86 0.034(2) 0.0211(19) 0.0274(19) 0.0006(16) -0.0075(17) 0.0057(18)
C87 0.036(2) 0.0186(19) 0.0253(18) -0.0023(16) -0.0098(17) 0.0006(18)
C88 0.045(2) 0.0064(16) 0.0182(17) 0.0049(14) -0.0033(17) -0.0047(17)
C89 0.074(4) 0.036(3) 0.071(3) 0.004(3) 0.015(3) 0.013(3)
C90 0.136(5) 0.018(2) 0.039(3) 0.006(2) -0.007(3) -0.034(3)
C91 0.136(5) 0.050(3) 0.071(3) 0.015(3) 0.049(3) 0.060(3)
C92 0.070(4) 0.047(3) 0.080(4) 0.005(3) 0.009(3) -0.008(3)
C93 0.067(3) 0.025(2) 0.056(3) 0.009(2) -0.024(2) 0.005(2)
C94 0.086(4) 0.0081(18) 0.039(2) -0.0019(18) 0.017(2) -0.011(2)
C95 0.054(3) 0.0174(19) 0.038(2) -0.0038(18) 0.009(2) -0.009(2)
C96 0.047(3) 0.040(3) 0.085(3) -0.011(3) -0.022(3) -0.001(2)
C97 0.238(9) 0.146(6) 0.064(4) 0.018(4) -0.038(5) 0.066(6)
C98 0.191(7) 0.089(5) 0.194(6) -0.059(5) -0.116(5) 0.042(5)
C99 0.165(8) 0.206(9) 0.132(7) -0.006(7) -0.027(6) 0.033(7)
C100 0.197(8) 0.201(8) 0.052(4) 0.022(5) -0.036(5) -0.007(7)
C101 0.097(4) 0.125(5) 0.066(3) -0.034(3) -0.030(3) 0.045(4)
C102 0.048(3) 0.083(3) 0.046(2) -0.013(2) -0.031(2) 0.030(3)
C103 0.037(4) 0.250(9) 0.140(6) 0.027(6) 0.009(4) -0.031(5)
C104 0.101(4) 0.071(4) 0.151(5) 0.004(4) -0.097(3) -0.010(3)

_geom_special_details            
;
All esds (except the esd in the dihedral angle between two l.s. planes)
are estimated using the full covariance matrix. The cell esds are taken
into account individually in the estimation of esds in distances, angles
and torsion angles; correlations between esds in cell parameters are only
used when they are defined by crystal symmetry. An approximate (isotropic)
treatment of cell esds is used for estimating esds involving l.s. planes.
;

loop_
_geom_bond_atom_site_label_1
_geom_bond_atom_site_label_2
_geom_bond_distance
_geom_bond_site_symmetry_2
_geom_bond_publ_flag
Mo1 O9 2.098(2) . ?
Mo1 O1 2.102(2) . ?
Mo1 O7 2.103(2) . ?
Mo1 Mo2 2.1101(7) . ?
Mo1 O15 2.163(2) . ?
Mo2 O8 2.096(2) . ?
Mo2 O10 2.110(2) . ?
Mo2 O2 2.124(2) . ?
Mo2 O16 2.147(2) . ?
Mo2 O17 2.402(3) . ?
Mo3 O4 2.106(2) . ?
Mo3 O12 2.110(2) . ?
Mo3 O6 2.110(2) . ?
Mo3 Mo4 2.1132(7) . ?
Mo3 O14 2.144(2) . ?
Mo3 O18 2.407(2) . ?
Mo4 O5 2.066(2) . ?
Mo4 O11 2.097(2) . ?
Mo4 O3 2.111(2) . ?
Mo4 O13 2.147(2) . ?
O1 C1 1.288(4) . ?
O2 C1 1.291(4) . ?
O3 C22 1.295(4) . ?
O4 C22 1.274(4) . ?
O5 C23 1.288(4) . ?
O6 C23 1.305(4) . ?
O7 C44 1.290(4) . ?
O8 C44 1.281(4) . ?
O9 C45 1.272(4) . ?
O10 C45 1.290(4) . ?
O11 C66 1.291(4) . ?
O12 C66 1.273(4) . ?
O13 C67 1.251(4) . ?
O14 C67 1.271(4) . ?
O15 C88 1.267(4) . ?
O16 C88 1.254(4) . ?
O17 C90 1.292(6) . ?
O18 C94 1.242(5) . ?
O19 C98 1.292(10) . ?
O20 C102 1.240(5) . ?
N1 C8 1.331(4) . ?
N1 C12 1.380(4) . ?
N2 C15 1.310(4) . ?
N2 C12 1.369(4) . ?
N3 C37 1.339(5) . ?
N3 C34 1.350(5) . ?
N4 C30 1.330(5) . ?
N4 C34 1.380(5) . ?
N5 C52 1.319(5) . ?
N5 C56 1.377(5) . ?
N6 C59 1.319(5) . ?
N6 C56 1.368(5) . ?
N7 C81 1.331(5) . ?
N7 C78 1.371(5) . ?
N8 C74 1.333(4) . ?
N8 C78 1.373(5) . ?
N9 C90 1.286(6) . ?
N9 C91 1.454(6) . ?
N9 C92 1.476(7) . ?
N10 C94 1.262(6) . ?
N10 C95 1.464(5) . ?
N10 C96 1.506(6) . ?
N11 C98 1.328(9) . ?
N11 C100 1.427(9) . ?
N11 C99 1.577(10) . ?
N12 C102 1.316(6) . ?
N12 C103 1.435(7) . ?
N12 C104 1.440(7) . ?
C1 C2 1.463(5) . ?
C2 C3 1.374(5) . ?
C2 C7 1.418(5) . ?
C3 C4 1.395(5) . ?
C4 C5 1.373(5) . ?
C5 C6 1.392(5) . ?
C6 C7 1.390(5) . ?
C6 C8 1.506(5) . ?
C8 C9 1.423(5) . ?
C9 C10 1.359(5) . ?
C10 C11 1.405(5) . ?
C11 C12 1.419(5) . ?
C11 C13 1.421(5) . ?
C13 C14 1.356(5) . ?
C14 C15 1.438(5) . ?
C15 C16 1.499(5) . ?
C16 C21 1.389(5) . ?
C16 C17 1.404(5) . ?
C17 C18 1.391(5) . ?
C18 C19 1.362(5) . ?
C19 C20 1.420(5) . ?
C20 C21 1.398(5) . ?
C20 C22 1.472(5) . ?
C23 C24 1.506(5) . ?
C24 C29 1.375(5) . ?
C24 C25 1.384(5) . ?
C25 C26 1.369(6) . ?
C26 C27 1.383(6) . ?
C27 C28 1.383(6) . ?
C28 C29 1.393(6) . ?
C28 C30 1.495(6) . ?
C30 C31 1.415(6) . ?
C31 C32 1.359(6) . ?
C32 C33 1.420(6) . ?
C33 C34 1.409(6) . ?
C33 C35 1.414(6) . ?
C35 C36 1.359(6) . ?
C36 C37 1.395(6) . ?
C37 C38 1.473(6) . ?
C38 C43 1.403(6) . ?
C38 C39 1.417(5) . ?
C39 C40 1.386(6) . ?
C40 C41 1.386(6) . ?
C41 C42 1.413(5) . ?
C42 C43 1.372(5) . ?
C42 C44 1.507(5) . ?
C45 C46 1.474(5) . ?
C46 C51 1.376(5) . ?
C46 C47 1.410(5) . ?
C47 C48 1.391(6) . ?
C48 C49 1.395(5) . ?
C49 C50 1.416(5) . ?
C50 C51 1.393(5) . ?
C50 C52 1.480(5) . ?
C52 C53 1.429(5) . ?
C53 C54 1.357(6) . ?
C54 C55 1.413(5) . ?
C55 C57 1.391(5) . ?
C55 C56 1.423(5) . ?
C57 C58 1.357(5) . ?
C58 C59 1.408(5) . ?
C59 C60 1.494(5) . ?
C60 C65 1.389(5) . ?
C60 C61 1.410(5) . ?
C61 C62 1.374(5) . ?
C62 C63 1.385(5) . ?
C63 C64 1.373(5) . ?
C64 C65 1.405(5) . ?
C64 C66 1.505(5) . ?
C67 C68 1.439(5) . ?
C68 C69 1.391(5) . ?
C68 C73 1.412(5) . ?
C69 C70 1.370(6) . ?
C70 C71 1.387(5) . ?
C71 C72 1.417(5) . ?
C72 C73 1.378(5) . ?
C72 C74 1.473(5) . ?
C74 C75 1.438(5) . ?
C75 C76 1.352(5) . ?
C76 C77 1.397(5) . ?
C77 C79 1.402(5) . ?
C77 C78 1.433(5) . ?
C79 C80 1.363(5) . ?
C80 C81 1.433(5) . ?
C81 C82 1.487(5) . ?
C82 C87 1.392(5) . ?
C82 C83 1.426(5) . ?
C83 C84 1.389(5) . ?
C84 C85 1.385(6) . ?
C85 C86 1.414(5) . ?
C86 C87 1.400(5) . ?
C86 C88 1.468(5) . ?
C89 C90 1.548(8) . ?
C93 C94 1.543(7) . ?
C97 C98 1.338(10) . ?
C101 C102 1.532(7) . ?

loop_
_geom_angle_atom_site_label_1
_geom_angle_atom_site_label_2
_geom_angle_atom_site_label_3
_geom_angle
_geom_angle_site_symmetry_1
_geom_angle_site_symmetry_3
_geom_angle_publ_flag
O9 Mo1 O1 174.73(9) . . ?
O9 Mo1 O7 91.24(9) . . ?
O1 Mo1 O7 90.85(9) . . ?
O9 Mo1 Mo2 92.93(6) . . ?
O1 Mo1 Mo2 91.81(6) . . ?
O7 Mo1 Mo2 92.68(6) . . ?
O9 Mo1 O15 86.62(9) . . ?
O1 Mo1 O15 90.95(9) . . ?
O7 Mo1 O15 175.52(8) . . ?
Mo2 Mo1 O15 91.37(6) . . ?
O8 Mo2 Mo1 90.51(6) . . ?
O8 Mo2 O10 92.42(9) . . ?
Mo1 Mo2 O10 90.54(6) . . ?
O8 Mo2 O2 90.45(9) . . ?
Mo1 Mo2 O2 91.74(6) . . ?
O10 Mo2 O2 176.32(9) . . ?
O8 Mo2 O16 177.39(9) . . ?
Mo1 Mo2 O16 92.07(6) . . ?
O10 Mo2 O16 87.16(9) . . ?
O2 Mo2 O16 89.86(9) . . ?
O8 Mo2 O17 79.03(9) . . ?
Mo1 Mo2 O17 168.14(7) . . ?
O10 Mo2 O17 84.42(9) . . ?
O2 Mo2 O17 93.88(9) . . ?
O16 Mo2 O17 98.37(9) . . ?
O4 Mo3 O12 177.33(8) . . ?
O4 Mo3 O6 87.19(9) . . ?
O12 Mo3 O6 92.88(9) . . ?
O4 Mo3 Mo4 90.84(6) . . ?
O12 Mo3 Mo4 91.83(6) . . ?
O6 Mo3 Mo4 91.48(6) . . ?
O4 Mo3 O14 92.34(9) . . ?
O12 Mo3 O14 87.50(9) . . ?
O6 Mo3 O14 178.11(9) . . ?
Mo4 Mo3 O14 90.36(6) . . ?
O4 Mo3 O18 81.83(8) . . ?
O12 Mo3 O18 95.52(8) . . ?
O6 Mo3 O18 99.14(8) . . ?
Mo4 Mo3 O18 166.74(6) . . ?
O14 Mo3 O18 78.99(8) . . ?
O5 Mo4 O11 92.79(9) . . ?
O5 Mo4 O3 87.38(9) . . ?
O11 Mo4 O3 175.32(9) . . ?
O5 Mo4 Mo3 91.76(6) . . ?
O11 Mo4 Mo3 91.77(6) . . ?
O3 Mo4 Mo3 92.90(6) . . ?
O5 Mo4 O13 175.34(9) . . ?
O11 Mo4 O13 86.28(9) . . ?
O3 Mo4 O13 93.17(9) . . ?
Mo3 Mo4 O13 92.83(6) . . ?
C1 O1 Mo1 118.5(2) . . ?
C1 O2 Mo2 117.3(2) . . ?
C22 O3 Mo4 115.4(2) . . ?
C22 O4 Mo3 118.1(2) . . ?
C23 O5 Mo4 120.2(2) . . ?
C23 O6 Mo3 117.7(2) . . ?
C44 O7 Mo1 117.1(2) . . ?
C44 O8 Mo2 119.7(2) . . ?
C45 O9 Mo1 116.3(2) . . ?
C45 O10 Mo2 117.5(2) . . ?
C66 O11 Mo4 116.9(2) . . ?
C66 O12 Mo3 116.6(2) . . ?
C67 O13 Mo4 115.0(2) . . ?
C67 O14 Mo3 117.0(2) . . ?
C88 O15 Mo1 115.3(2) . . ?
C88 O16 Mo2 115.7(2) . . ?
C90 O17 Mo2 136.3(3) . . ?
C94 O18 Mo3 141.7(2) . . ?
C8 N1 C12 117.4(3) . . ?
C15 N2 C12 118.3(3) . . ?
C37 N3 C34 117.1(4) . . ?
C30 N4 C34 116.5(4) . . ?
C52 N5 C56 118.1(3) . . ?
C59 N6 C56 116.8(3) . . ?
C81 N7 C78 118.0(3) . . ?
C74 N8 C78 118.4(3) . . ?
C90 N9 C91 126.2(5) . . ?
C90 N9 C92 112.7(4) . . ?
C91 N9 C92 120.0(4) . . ?
C94 N10 C95 127.8(4) . . ?
C94 N10 C96 116.2(4) . . ?
C95 N10 C96 114.5(3) . . ?
C98 N11 C100 121.1(6) . . ?
C98 N11 C99 126.1(6) . . ?
C100 N11 C99 111.0(6) . . ?
C102 N12 C103 124.1(5) . . ?
C102 N12 C104 119.4(4) . . ?
C103 N12 C104 116.5(5) . . ?
O1 C1 O2 120.7(3) . . ?
O1 C1 C2 118.7(3) . . ?
O2 C1 C2 120.6(3) . . ?
C3 C2 C7 118.7(3) . . ?
C3 C2 C1 119.8(3) . . ?
C7 C2 C1 121.5(3) . . ?
C2 C3 C4 121.2(3) . . ?
C5 C4 C3 119.2(3) . . ?
C4 C5 C6 121.5(3) . . ?
C7 C6 C5 118.9(3) . . ?
C7 C6 C8 120.4(3) . . ?
C5 C6 C8 120.7(3) . . ?
C6 C7 C2 120.4(3) . . ?
N1 C8 C9 122.9(3) . . ?
N1 C8 C6 117.5(3) . . ?
C9 C8 C6 119.5(3) . . ?
C10 C9 C8 119.6(3) . . ?
C9 C10 C11 119.3(3) . . ?
C10 C11 C12 118.2(3) . . ?
C10 C11 C13 124.3(3) . . ?
C12 C11 C13 117.5(3) . . ?
N2 C12 N1 115.4(3) . . ?
N2 C12 C11 122.3(3) . . ?
N1 C12 C11 122.2(3) . . ?
C14 C13 C11 119.7(3) . . ?
C13 C14 C15 118.7(3) . . ?
N2 C15 C14 123.2(3) . . ?
N2 C15 C16 116.3(3) . . ?
C14 C15 C16 120.4(3) . . ?
C21 C16 C17 118.0(3) . . ?
C21 C16 C15 121.2(3) . . ?
C17 C16 C15 120.6(3) . . ?
C18 C17 C16 120.7(3) . . ?
C19 C18 C17 121.6(4) . . ?
C18 C19 C20 118.6(3) . . ?
C21 C20 C19 119.8(3) . . ?
C21 C20 C22 118.5(3) . . ?
C19 C20 C22 121.6(3) . . ?
C16 C21 C20 121.1(3) . . ?
O4 C22 O3 122.4(3) . . ?
O4 C22 C20 118.4(3) . . ?
O3 C22 C20 119.3(3) . . ?
O5 C23 O6 118.8(3) . . ?
O5 C23 C24 121.6(3) . . ?
O6 C23 C24 119.6(3) . . ?
C29 C24 C25 121.2(4) . . ?
C29 C24 C23 121.7(3) . . ?
C25 C24 C23 117.1(3) . . ?
C26 C25 C24 119.4(4) . . ?
C25 C26 C27 119.7(4) . . ?
C26 C27 C28 121.5(4) . . ?
C27 C28 C29 118.4(4) . . ?
C27 C28 C30 121.1(4) . . ?
C29 C28 C30 120.5(4) . . ?
C24 C29 C28 119.8(4) . . ?
N4 C30 C31 124.7(4) . . ?
N4 C30 C28 116.7(4) . . ?
C31 C30 C28 118.6(4) . . ?
C32 C31 C30 118.2(4) . . ?
C31 C32 C33 120.1(4) . . ?
C34 C33 C35 117.9(4) . . ?
C34 C33 C32 117.4(4) . . ?
C35 C33 C32 124.6(4) . . ?
N3 C34 N4 114.1(4) . . ?
N3 C34 C33 122.9(4) . . ?
N4 C34 C33 123.0(4) . . ?
C36 C35 C33 118.9(4) . . ?
C35 C36 C37 119.2(4) . . ?
N3 C37 C36 123.9(4) . . ?
N3 C37 C38 115.8(4) . . ?
C36 C37 C38 120.4(4) . . ?
C43 C38 C39 117.7(4) . . ?
C43 C38 C37 119.9(3) . . ?
C39 C38 C37 122.5(4) . . ?
C40 C39 C38 119.9(4) . . ?
C39 C40 C41 122.8(4) . . ?
C40 C41 C42 116.4(4) . . ?
C43 C42 C41 122.2(4) . . ?
C43 C42 C44 118.7(3) . . ?
C41 C42 C44 119.1(3) . . ?
C42 C43 C38 121.0(3) . . ?
O8 C44 O7 120.0(3) . . ?
O8 C44 C42 119.2(3) . . ?
O7 C44 C42 120.8(3) . . ?
O9 C45 O10 121.7(3) . . ?
O9 C45 C46 120.5(3) . . ?
O10 C45 C46 117.8(3) . . ?
C51 C46 C47 120.1(4) . . ?
C51 C46 C45 121.5(3) . . ?
C47 C46 C45 118.2(3) . . ?
C48 C47 C46 118.2(4) . . ?
C47 C48 C49 121.7(4) . . ?
C48 C49 C50 119.5(4) . . ?
C51 C50 C49 118.1(3) . . ?
C51 C50 C52 121.5(3) . . ?
C49 C50 C52 120.3(4) . . ?
C46 C51 C50 122.2(3) . . ?
N5 C52 C53 122.8(3) . . ?
N5 C52 C50 116.6(3) . . ?
C53 C52 C50 120.6(3) . . ?
C54 C53 C52 119.6(4) . . ?
C53 C54 C55 119.6(4) . . ?
C57 C55 C54 124.7(3) . . ?
C57 C55 C56 117.8(3) . . ?
C54 C55 C56 117.5(3) . . ?
N6 C56 N5 115.0(3) . . ?
N6 C56 C55 122.5(3) . . ?
N5 C56 C55 122.4(3) . . ?
C58 C57 C55 119.6(4) . . ?
C57 C58 C59 119.0(4) . . ?
N6 C59 C58 124.1(3) . . ?
N6 C59 C60 116.8(3) . . ?
C58 C59 C60 119.1(3) . . ?
C65 C60 C61 118.3(3) . . ?
C65 C60 C59 120.0(3) . . ?
C61 C60 C59 121.7(3) . . ?
C62 C61 C60 121.4(4) . . ?
C61 C62 C63 119.0(4) . . ?
C64 C63 C62 121.3(3) . . ?
C63 C64 C65 119.5(3) . . ?
C63 C64 C66 118.9(3) . . ?
C65 C64 C66 121.6(3) . . ?
C60 C65 C64 120.3(3) . . ?
O12 C66 O11 122.3(3) . . ?
O12 C66 C64 120.6(3) . . ?
O11 C66 C64 116.9(3) . . ?
O13 C67 O14 124.6(3) . . ?
O13 C67 C68 118.9(3) . . ?
O14 C67 C68 116.6(3) . . ?
C69 C68 C73 116.8(4) . . ?
C69 C68 C67 122.4(3) . . ?
C73 C68 C67 120.8(3) . . ?
C70 C69 C68 121.1(4) . . ?
C69 C70 C71 122.0(4) . . ?
C70 C71 C72 118.8(4) . . ?
C73 C72 C71 118.1(3) . . ?
C73 C72 C74 121.2(3) . . ?
C71 C72 C74 120.7(3) . . ?
C72 C73 C68 123.3(3) . . ?
N8 C74 C75 121.9(3) . . ?
N8 C74 C72 117.6(3) . . ?
C75 C74 C72 120.3(3) . . ?
C76 C75 C74 120.2(4) . . ?
C75 C76 C77 119.2(4) . . ?
C76 C77 C79 124.0(3) . . ?
C76 C77 C78 118.6(3) . . ?
C79 C77 C78 117.3(3) . . ?
N7 C78 N8 115.6(3) . . ?
N7 C78 C77 122.7(3) . . ?
N8 C78 C77 121.6(3) . . ?
C80 C79 C77 120.1(3) . . ?
C79 C80 C81 119.5(4) . . ?
N7 C81 C80 122.4(3) . . ?
N7 C81 C82 117.3(3) . . ?
C80 C81 C82 120.2(3) . . ?
C87 C82 C83 119.2(3) . . ?
C87 C82 C81 122.2(3) . . ?
C83 C82 C81 118.5(3) . . ?
C84 C83 C82 119.0(4) . . ?
C85 C84 C83 121.5(4) . . ?
C84 C85 C86 120.2(3) . . ?
C87 C86 C85 118.5(3) . . ?
C87 C86 C88 121.0(3) . . ?
C85 C86 C88 120.5(3) . . ?
C82 C87 C86 121.6(3) . . ?
O16 C88 O15 125.3(3) . . ?
O16 C88 C86 121.0(3) . . ?
O15 C88 C86 113.6(3) . . ?
N9 C90 O17 124.7(5) . . ?
N9 C90 C89 115.7(5) . . ?
O17 C90 C89 119.6(4) . . ?
O18 C94 N10 126.9(5) . . ?
O18 C94 C93 120.6(4) . . ?
N10 C94 C93 112.4(4) . . ?
O19 C98 N11 110.2(7) . . ?
O19 C98 C97 125.3(7) . . ?
N11 C98 C97 120.2(8) . . ?
O20 C102 N12 123.9(5) . . ?
O20 C102 C101 117.8(4) . . ?
N12 C102 C101 118.3(4) . . ?

loop_
_geom_torsion_atom_site_label_1
_geom_torsion_atom_site_label_2
_geom_torsion_atom_site_label_3
_geom_torsion_atom_site_label_4
_geom_torsion
_geom_torsion_site_symmetry_1
_geom_torsion_site_symmetry_2
_geom_torsion_site_symmetry_3
_geom_torsion_site_symmetry_4
_geom_torsion_publ_flag
O9 Mo1 Mo2 O8 92.02(9) . . . . ?
O1 Mo1 Mo2 O8 -90.30(9) . . . . ?
O7 Mo1 Mo2 O8 0.64(9) . . . . ?
O15 Mo1 Mo2 O8 178.71(9) . . . . ?
O9 Mo1 Mo2 O10 -0.41(9) . . . . ?
O1 Mo1 Mo2 O10 177.27(9) . . . . ?
O7 Mo1 Mo2 O10 -91.79(9) . . . . ?
O15 Mo1 Mo2 O10 86.28(9) . . . . ?
O9 Mo1 Mo2 O2 -177.51(9) . . . . ?
O1 Mo1 Mo2 O2 0.17(9) . . . . ?
O7 Mo1 Mo2 O2 91.10(9) . . . . ?
O15 Mo1 Mo2 O2 -90.83(9) . . . . ?
O9 Mo1 Mo2 O16 -87.59(9) . . . . ?
O1 Mo1 Mo2 O16 90.09(9) . . . . ?
O7 Mo1 Mo2 O16 -178.97(9) . . . . ?
O15 Mo1 Mo2 O16 -0.90(8) . . . . ?
O9 Mo1 Mo2 O17 64.2(4) . . . . ?
O1 Mo1 Mo2 O17 -118.1(4) . . . . ?
O7 Mo1 Mo2 O17 -27.2(4) . . . . ?
O15 Mo1 Mo2 O17 150.9(4) . . . . ?
O4 Mo3 Mo4 O5 -88.24(9) . . . . ?
O12 Mo3 Mo4 O5 91.89(9) . . . . ?
O6 Mo3 Mo4 O5 -1.03(9) . . . . ?
O14 Mo3 Mo4 O5 179.41(9) . . . . ?
O18 Mo3 Mo4 O5 -144.4(3) . . . . ?
O4 Mo3 Mo4 O11 178.91(9) . . . . ?
O12 Mo3 Mo4 O11 -0.95(9) . . . . ?
O6 Mo3 Mo4 O11 -93.88(9) . . . . ?
O14 Mo3 Mo4 O11 86.56(9) . . . . ?
O18 Mo3 Mo4 O11 122.8(3) . . . . ?
O4 Mo3 Mo4 O3 -0.77(9) . . . . ?
O12 Mo3 Mo4 O3 179.36(9) . . . . ?
O6 Mo3 Mo4 O3 86.44(9) . . . . ?
O14 Mo3 Mo4 O3 -93.12(9) . . . . ?
O18 Mo3 Mo4 O3 -56.9(3) . . . . ?
O4 Mo3 Mo4 O13 92.55(9) . . . . ?
O12 Mo3 Mo4 O13 -87.32(9) . . . . ?
O6 Mo3 Mo4 O13 179.76(9) . . . . ?
O14 Mo3 Mo4 O13 0.20(8) . . . . ?
O18 Mo3 Mo4 O13 36.4(3) . . . . ?
O9 Mo1 O1 C1 154.5(9) . . . . ?
O7 Mo1 O1 C1 -92.2(3) . . . . ?
Mo2 Mo1 O1 C1 0.5(3) . . . . ?
O15 Mo1 O1 C1 91.9(3) . . . . ?
O8 Mo2 O2 C1 89.6(3) . . . . ?
Mo1 Mo2 O2 C1 -0.9(3) . . . . ?
O10 Mo2 O2 C1 -129.1(13) . . . . ?
O16 Mo2 O2 C1 -93.0(3) . . . . ?
O17 Mo2 O2 C1 168.6(3) . . . . ?
O5 Mo4 O3 C22 89.2(2) . . . . ?
O11 Mo4 O3 C22 -179(41) . . . . ?
Mo3 Mo4 O3 C22 -2.4(2) . . . . ?
O13 Mo4 O3 C22 -95.4(2) . . . . ?
O12 Mo3 O4 C22 -179(100) . . . . ?
O6 Mo3 O4 C22 -87.0(2) . . . . ?
Mo4 Mo3 O4 C22 4.4(2) . . . . ?
O14 Mo3 O4 C22 94.8(2) . . . . ?
O18 Mo3 O4 C22 173.3(2) . . . . ?
O11 Mo4 O5 C23 92.4(2) . . . . ?
O3 Mo4 O5 C23 -92.3(2) . . . . ?
Mo3 Mo4 O5 C23 0.5(2) . . . . ?
O13 Mo4 O5 C23 170.8(10) . . . . ?
O4 Mo3 O6 C23 92.7(2) . . . . ?
O12 Mo3 O6 C23 -90.0(2) . . . . ?
Mo4 Mo3 O6 C23 1.9(2) . . . . ?
O14 Mo3 O6 C23 168(3) . . . . ?
O18 Mo3 O6 C23 174.0(2) . . . . ?
O9 Mo1 O7 C44 -92.8(2) . . . . ?
O1 Mo1 O7 C44 92.1(2) . . . . ?
Mo2 Mo1 O7 C44 0.2(2) . . . . ?
O15 Mo1 O7 C44 -154.3(11) . . . . ?
Mo1 Mo2 O8 C44 -1.8(2) . . . . ?
O10 Mo2 O8 C44 88.8(2) . . . . ?
O2 Mo2 O8 C44 -93.5(2) . . . . ?
O16 Mo2 O8 C44 169.6(18) . . . . ?
O17 Mo2 O8 C44 172.6(3) . . . . ?
O1 Mo1 O9 C45 -147.5(9) . . . . ?
O7 Mo1 O9 C45 99.1(3) . . . . ?
Mo2 Mo1 O9 C45 6.4(3) . . . . ?
O15 Mo1 O9 C45 -84.8(3) . . . . ?
O8 Mo2 O10 C45 -95.9(3) . . . . ?
Mo1 Mo2 O10 C45 -5.4(2) . . . . ?
O2 Mo2 O10 C45 122.8(14) . . . . ?
O16 Mo2 O10 C45 86.6(3) . . . . ?
O17 Mo2 O10 C45 -174.7(3) . . . . ?
O5 Mo4 O11 C66 -95.0(2) . . . . ?
O3 Mo4 O11 C66 172.9(11) . . . . ?
Mo3 Mo4 O11 C66 -3.2(2) . . . . ?
O13 Mo4 O11 C66 89.5(2) . . . . ?
O4 Mo3 O12 C66 -171.5(19) . . . . ?
O6 Mo3 O12 C66 97.1(2) . . . . ?
Mo4 Mo3 O12 C66 5.5(2) . . . . ?
O14 Mo3 O12 C66 -84.8(2) . . . . ?
O18 Mo3 O12 C66 -163.5(2) . . . . ?
O5 Mo4 O13 C67 -167.6(10) . . . . ?
O11 Mo4 O13 C67 -89.0(2) . . . . ?
O3 Mo4 O13 C67 95.7(2) . . . . ?
Mo3 Mo4 O13 C67 2.6(2) . . . . ?
O4 Mo3 O14 C67 -94.0(2) . . . . ?
O12 Mo3 O14 C67 88.7(2) . . . . ?
O6 Mo3 O14 C67 -170(3) . . . . ?
Mo4 Mo3 O14 C67 -3.1(2) . . . . ?
O18 Mo3 O14 C67 -175.2(2) . . . . ?
O9 Mo1 O15 C88 91.0(2) . . . . ?
O1 Mo1 O15 C88 -93.7(2) . . . . ?
O7 Mo1 O15 C88 152.6(11) . . . . ?
Mo2 Mo1 O15 C88 -1.9(2) . . . . ?
O8 Mo2 O16 C88 -167.3(19) . . . . ?
Mo1 Mo2 O16 C88 4.1(2) . . . . ?
O10 Mo2 O16 C88 -86.3(2) . . . . ?
O2 Mo2 O16 C88 95.8(2) . . . . ?
O17 Mo2 O16 C88 -170.3(2) . . . . ?
O8 Mo2 O17 C90 -5.1(4) . . . . ?
Mo1 Mo2 O17 C90 23.3(7) . . . . ?
O10 Mo2 O17 C90 88.5(4) . . . . ?
O2 Mo2 O17 C90 -94.8(4) . . . . ?
O16 Mo2 O17 C90 174.8(4) . . . . ?
O4 Mo3 O18 C94 -7.4(5) . . . . ?
O12 Mo3 O18 C94 173.0(5) . . . . ?
O6 Mo3 O18 C94 -93.2(5) . . . . ?
Mo4 Mo3 O18 C94 49.6(6) . . . . ?
O14 Mo3 O18 C94 86.6(5) . . . . ?
Mo1 O1 C1 O2 -1.4(5) . . . . ?
Mo1 O1 C1 C2 -179.5(3) . . . . ?
Mo2 O2 C1 O1 1.6(5) . . . . ?
Mo2 O2 C1 C2 179.7(3) . . . . ?
O1 C1 C2 C3 -15.4(5) . . . . ?
O2 C1 C2 C3 166.5(4) . . . . ?
O1 C1 C2 C7 165.7(3) . . . . ?
O2 C1 C2 C7 -12.4(6) . . . . ?
C7 C2 C3 C4 3.9(6) . . . . ?
C1 C2 C3 C4 -175.1(4) . . . . ?
C2 C3 C4 C5 -3.7(6) . . . . ?
C3 C4 C5 C6 1.8(6) . . . . ?
C4 C5 C6 C7 -0.1(6) . . . . ?
C4 C5 C6 C8 -179.2(3) . . . . ?
C5 C6 C7 C2 0.3(5) . . . . ?
C8 C6 C7 C2 179.3(3) . . . . ?
C3 C2 C7 C6 -2.1(5) . . . . ?
C1 C2 C7 C6 176.8(3) . . . . ?
C12 N1 C8 C9 -5.5(5) . . . . ?
C12 N1 C8 C6 174.2(3) . . . . ?
C7 C6 C8 N1 20.3(5) . . . . ?
C5 C6 C8 N1 -160.7(3) . . . . ?
C7 C6 C8 C9 -160.0(3) . . . . ?
C5 C6 C8 C9 19.1(5) . . . . ?
N1 C8 C9 C10 6.6(6) . . . . ?
C6 C8 C9 C10 -173.2(3) . . . . ?
C8 C9 C10 C11 -2.7(6) . . . . ?
C9 C10 C11 C12 -1.6(5) . . . . ?
C9 C10 C11 C13 177.6(4) . . . . ?
C15 N2 C12 N1 173.3(3) . . . . ?
C15 N2 C12 C11 -4.7(5) . . . . ?
C8 N1 C12 N2 -177.1(3) . . . . ?
C8 N1 C12 C11 1.0(5) . . . . ?
C10 C11 C12 N2 -179.5(3) . . . . ?
C13 C11 C12 N2 1.3(5) . . . . ?
C10 C11 C12 N1 2.5(5) . . . . ?
C13 C11 C12 N1 -176.6(3) . . . . ?
C10 C11 C13 C14 -178.0(4) . . . . ?
C12 C11 C13 C14 1.1(5) . . . . ?
C11 C13 C14 C15 -0.1(6) . . . . ?
C12 N2 C15 C14 5.9(5) . . . . ?
C12 N2 C15 C16 -176.8(3) . . . . ?
C13 C14 C15 N2 -3.6(6) . . . . ?
C13 C14 C15 C16 179.2(3) . . . . ?
N2 C15 C16 C21 -18.7(5) . . . . ?
C14 C15 C16 C21 158.7(3) . . . . ?
N2 C15 C16 C17 155.5(3) . . . . ?
C14 C15 C16 C17 -27.1(5) . . . . ?
C21 C16 C17 C18 0.2(5) . . . . ?
C15 C16 C17 C18 -174.2(3) . . . . ?
C16 C17 C18 C19 -3.1(6) . . . . ?
C17 C18 C19 C20 1.7(6) . . . . ?
C18 C19 C20 C21 2.6(5) . . . . ?
C18 C19 C20 C22 177.1(3) . . . . ?
C17 C16 C21 C20 4.1(5) . . . . ?
C15 C16 C21 C20 178.5(3) . . . . ?
C19 C20 C21 C16 -5.5(5) . . . . ?
C22 C20 C21 C16 179.7(3) . . . . ?
Mo3 O4 C22 O3 -7.6(4) . . . . ?
Mo3 O4 C22 C20 173.1(2) . . . . ?
Mo4 O3 C22 O4 6.6(4) . . . . ?
Mo4 O3 C22 C20 -174.1(2) . . . . ?
C21 C20 C22 O4 14.2(5) . . . . ?
C19 C20 C22 O4 -160.4(3) . . . . ?
C21 C20 C22 O3 -165.1(3) . . . . ?
C19 C20 C22 O3 20.2(5) . . . . ?
Mo4 O5 C23 O6 0.8(4) . . . . ?
Mo4 O5 C23 C24 -179.4(2) . . . . ?
Mo3 O6 C23 O5 -1.9(4) . . . . ?
Mo3 O6 C23 C24 178.4(2) . . . . ?
O5 C23 C24 C29 -166.5(3) . . . . ?
O6 C23 C24 C29 13.2(5) . . . . ?
O5 C23 C24 C25 13.7(5) . . . . ?
O6 C23 C24 C25 -166.6(3) . . . . ?
C29 C24 C25 C26 0.4(6) . . . . ?
C23 C24 C25 C26 -179.9(3) . . . . ?
C24 C25 C26 C27 1.5(6) . . . . ?
C25 C26 C27 C28 -1.9(6) . . . . ?
C26 C27 C28 C29 0.5(6) . . . . ?
C26 C27 C28 C30 -177.3(4) . . . . ?
C25 C24 C29 C28 -1.8(6) . . . . ?
C23 C24 C29 C28 178.4(3) . . . . ?
C27 C28 C29 C24 1.3(6) . . . . ?
C30 C28 C29 C24 179.1(4) . . . . ?
C34 N4 C30 C31 0.6(6) . . . . ?
C34 N4 C30 C28 -176.1(3) . . . . ?
C27 C28 C30 N4 148.0(4) . . . . ?
C29 C28 C30 N4 -29.7(5) . . . . ?
C27 C28 C30 C31 -28.8(6) . . . . ?
C29 C28 C30 C31 153.5(4) . . . . ?
N4 C30 C31 C32 -0.2(6) . . . . ?
C28 C30 C31 C32 176.4(4) . . . . ?
C30 C31 C32 C33 -1.7(7) . . . . ?
C31 C32 C33 C34 2.9(6) . . . . ?
C31 C32 C33 C35 -179.1(4) . . . . ?
C37 N3 C34 N4 -176.9(3) . . . . ?
C37 N3 C34 C33 1.8(6) . . . . ?
C30 N4 C34 N3 179.6(3) . . . . ?
C30 N4 C34 C33 0.9(6) . . . . ?
C35 C33 C34 N3 0.7(6) . . . . ?
C32 C33 C34 N3 178.8(4) . . . . ?
C35 C33 C34 N4 179.3(4) . . . . ?
C32 C33 C34 N4 -2.6(6) . . . . ?
C34 C33 C35 C36 -2.4(6) . . . . ?
C32 C33 C35 C36 179.7(4) . . . . ?
C33 C35 C36 C37 1.6(6) . . . . ?
C34 N3 C37 C36 -2.7(6) . . . . ?
C34 N3 C37 C38 179.2(3) . . . . ?
C35 C36 C37 N3 1.0(6) . . . . ?
C35 C36 C37 C38 179.1(4) . . . . ?
N3 C37 C38 C43 24.9(5) . . . . ?
C36 C37 C38 C43 -153.3(4) . . . . ?
N3 C37 C38 C39 -156.5(4) . . . . ?
C36 C37 C38 C39 25.2(6) . . . . ?
C43 C38 C39 C40 -1.5(6) . . . . ?
C37 C38 C39 C40 179.9(4) . . . . ?
C38 C39 C40 C41 3.9(7) . . . . ?
C39 C40 C41 C42 -3.4(6) . . . . ?
C40 C41 C42 C43 0.6(6) . . . . ?
C40 C41 C42 C44 -178.0(4) . . . . ?
C41 C42 C43 C38 1.6(6) . . . . ?
C44 C42 C43 C38 -179.7(3) . . . . ?
C39 C38 C43 C42 -1.2(6) . . . . ?
C37 C38 C43 C42 177.4(4) . . . . ?
Mo2 O8 C44 O7 2.4(4) . . . . ?
Mo2 O8 C44 C42 -178.9(2) . . . . ?
Mo1 O7 C44 O8 -1.6(4) . . . . ?
Mo1 O7 C44 C42 179.6(2) . . . . ?
C43 C42 C44 O8 -16.1(5) . . . . ?
C41 C42 C44 O8 162.6(3) . . . . ?
C43 C42 C44 O7 162.7(3) . . . . ?
C41 C42 C44 O7 -18.6(5) . . . . ?
Mo1 O9 C45 O10 -12.3(5) . . . . ?
Mo1 O9 C45 C46 164.7(3) . . . . ?
Mo2 O10 C45 O9 12.0(5) . . . . ?
Mo2 O10 C45 C46 -165.1(2) . . . . ?
O9 C45 C46 C51 170.6(3) . . . . ?
O10 C45 C46 C51 -12.3(5) . . . . ?
O9 C45 C46 C47 -13.1(5) . . . . ?
O10 C45 C46 C47 164.0(3) . . . . ?
C51 C46 C47 C48 2.4(6) . . . . ?
C45 C46 C47 C48 -174.0(4) . . . . ?
C46 C47 C48 C49 -3.8(6) . . . . ?
C47 C48 C49 C50 2.4(6) . . . . ?
C48 C49 C50 C51 0.4(6) . . . . ?
C48 C49 C50 C52 177.1(4) . . . . ?
C47 C46 C51 C50 0.3(6) . . . . ?
C45 C46 C51 C50 176.6(3) . . . . ?
C49 C50 C51 C46 -1.7(6) . . . . ?
C52 C50 C51 C46 -178.4(4) . . . . ?
C56 N5 C52 C53 -1.8(6) . . . . ?
C56 N5 C52 C50 178.5(3) . . . . ?
C51 C50 C52 N5 20.6(6) . . . . ?
C49 C50 C52 N5 -156.1(4) . . . . ?
C51 C50 C52 C53 -159.2(4) . . . . ?
C49 C50 C52 C53 24.2(6) . . . . ?
N5 C52 C53 C54 0.9(6) . . . . ?
C50 C52 C53 C54 -179.4(4) . . . . ?
C52 C53 C54 C55 1.5(6) . . . . ?
C53 C54 C55 C57 179.4(4) . . . . ?
C53 C54 C55 C56 -2.7(6) . . . . ?
C59 N6 C56 N5 177.1(3) . . . . ?
C59 N6 C56 C55 1.3(6) . . . . ?
C52 N5 C56 N6 -175.4(3) . . . . ?
C52 N5 C56 C55 0.4(6) . . . . ?
C57 C55 C56 N6 -4.6(6) . . . . ?
C54 C55 C56 N6 177.3(4) . . . . ?
C57 C55 C56 N5 179.9(4) . . . . ?
C54 C55 C56 N5 1.9(6) . . . . ?
C54 C55 C57 C58 -177.3(4) . . . . ?
C56 C55 C57 C58 4.8(6) . . . . ?
C55 C57 C58 C59 -1.9(6) . . . . ?
C56 N6 C59 C58 1.8(6) . . . . ?
C56 N6 C59 C60 -177.4(3) . . . . ?
C57 C58 C59 N6 -1.6(7) . . . . ?
C57 C58 C59 C60 177.6(4) . . . . ?
N6 C59 C60 C65 -19.1(5) . . . . ?
C58 C59 C60 C65 161.6(4) . . . . ?
N6 C59 C60 C61 161.8(4) . . . . ?
C58 C59 C60 C61 -17.5(6) . . . . ?
C65 C60 C61 C62 -2.1(6) . . . . ?
C59 C60 C61 C62 177.0(4) . . . . ?
C60 C61 C62 C63 -1.5(6) . . . . ?
C61 C62 C63 C64 4.9(6) . . . . ?
C62 C63 C64 C65 -4.6(6) . . . . ?
C62 C63 C64 C66 175.4(3) . . . . ?
C61 C60 C65 C64 2.4(5) . . . . ?
C59 C60 C65 C64 -176.7(3) . . . . ?
C63 C64 C65 C60 0.8(5) . . . . ?
C66 C64 C65 C60 -179.2(3) . . . . ?
Mo3 O12 C66 O11 -9.5(4) . . . . ?
Mo3 O12 C66 C64 165.4(2) . . . . ?
Mo4 O11 C66 O12 8.5(4) . . . . ?
Mo4 O11 C66 C64 -166.6(2) . . . . ?
C63 C64 C66 O12 -165.1(3) . . . . ?
C65 C64 C66 O12 14.9(5) . . . . ?
C63 C64 C66 O11 10.1(5) . . . . ?
C65 C64 C66 O11 -169.9(3) . . . . ?
Mo4 O13 C67 O14 -6.0(4) . . . . ?
Mo4 O13 C67 C68 175.5(2) . . . . ?
Mo3 O14 C67 O13 6.3(4) . . . . ?
Mo3 O14 C67 C68 -175.1(2) . . . . ?
O13 C67 C68 C69 -6.7(5) . . . . ?
O14 C67 C68 C69 174.7(3) . . . . ?
O13 C67 C68 C73 174.6(3) . . . . ?
O14 C67 C68 C73 -4.0(5) . . . . ?
C73 C68 C69 C70 0.3(5) . . . . ?
C67 C68 C69 C70 -178.5(4) . . . . ?
C68 C69 C70 C71 -0.9(6) . . . . ?
C69 C70 C71 C72 0.5(6) . . . . ?
C70 C71 C72 C73 0.4(5) . . . . ?
C70 C71 C72 C74 180.0(4) . . . . ?
C71 C72 C73 C68 -1.1(5) . . . . ?
C74 C72 C73 C68 179.4(3) . . . . ?
C69 C68 C73 C72 0.7(5) . . . . ?
C67 C68 C73 C72 179.5(3) . . . . ?
C78 N8 C74 C75 -1.7(5) . . . . ?
C78 N8 C74 C72 -178.2(3) . . . . ?
C73 C72 C74 N8 21.3(5) . . . . ?
C71 C72 C74 N8 -158.3(3) . . . . ?
C73 C72 C74 C75 -155.3(4) . . . . ?
C71 C72 C74 C75 25.1(5) . . . . ?
N8 C74 C75 C76 0.0(6) . . . . ?
C72 C74 C75 C76 176.5(4) . . . . ?
C74 C75 C76 C77 2.4(6) . . . . ?
C75 C76 C77 C79 179.7(4) . . . . ?
C75 C76 C77 C78 -3.2(6) . . . . ?
C81 N7 C78 N8 -178.9(3) . . . . ?
C81 N7 C78 C77 0.3(5) . . . . ?
C74 N8 C78 N7 -179.9(3) . . . . ?
C74 N8 C78 C77 0.9(5) . . . . ?
C76 C77 C78 N7 -177.6(4) . . . . ?
C79 C77 C78 N7 -0.3(6) . . . . ?
C76 C77 C78 N8 1.5(6) . . . . ?
C79 C77 C78 N8 178.9(3) . . . . ?
C76 C77 C79 C80 177.6(4) . . . . ?
C78 C77 C79 C80 0.3(6) . . . . ?
C77 C79 C80 C81 -0.4(6) . . . . ?
C78 N7 C81 C80 -0.4(5) . . . . ?
C78 N7 C81 C82 176.7(3) . . . . ?
C79 C80 C81 N7 0.4(6) . . . . ?
C79 C80 C81 C82 -176.6(4) . . . . ?
N7 C81 C82 C87 -24.1(5) . . . . ?
C80 C81 C82 C87 153.1(4) . . . . ?
N7 C81 C82 C83 157.9(3) . . . . ?
C80 C81 C82 C83 -24.9(5) . . . . ?
C87 C82 C83 C84 -1.1(5) . . . . ?
C81 C82 C83 C84 177.0(3) . . . . ?
C82 C83 C84 C85 -0.9(6) . . . . ?
C83 C84 C85 C86 2.7(6) . . . . ?
C84 C85 C86 C87 -2.5(5) . . . . ?
C84 C85 C86 C88 175.9(3) . . . . ?
C83 C82 C87 C86 1.3(5) . . . . ?
C81 C82 C87 C86 -176.7(3) . . . . ?
C85 C86 C87 C82 0.5(5) . . . . ?
C88 C86 C87 C82 -177.8(3) . . . . ?
Mo2 O16 C88 O15 -7.0(4) . . . . ?
Mo2 O16 C88 C86 173.4(2) . . . . ?
Mo1 O15 C88 O16 6.1(4) . . . . ?
Mo1 O15 C88 C86 -174.3(2) . . . . ?
C87 C86 C88 O16 9.3(5) . . . . ?
C85 C86 C88 O16 -169.0(3) . . . . ?
C87 C86 C88 O15 -170.3(3) . . . . ?
C85 C86 C88 O15 11.4(5) . . . . ?
C91 N9 C90 O17 -172.8(4) . . . . ?
C92 N9 C90 O17 -5.0(6) . . . . ?
C91 N9 C90 C89 6.2(6) . . . . ?
C92 N9 C90 C89 174.1(4) . . . . ?
Mo2 O17 C90 N9 -115.3(5) . . . . ?
Mo2 O17 C90 C89 65.7(5) . . . . ?
Mo3 O18 C94 N10 -116.7(4) . . . . ?
Mo3 O18 C94 C93 60.4(6) . . . . ?
C95 N10 C94 O18 -168.0(3) . . . . ?
C96 N10 C94 O18 -3.1(6) . . . . ?
C95 N10 C94 C93 14.8(5) . . . . ?
C96 N10 C94 C93 179.6(3) . . . . ?
C100 N11 C98 O19 171.3(7) . . . . ?
C99 N11 C98 O19 8.4(11) . . . . ?
C100 N11 C98 C97 -30.9(11) . . . . ?
C99 N11 C98 C97 166.2(7) . . . . ?
C103 N12 C102 O20 -172.8(5) . . . . ?
C104 N12 C102 O20 7.6(8) . . . . ?
C103 N12 C102 C101 3.8(8) . . . . ?
C104 N12 C102 C101 -175.8(5) . . . . ?

_diffrn_measured_fraction_theta_max 0.989
_diffrn_reflns_theta_full        25.50
_diffrn_measured_fraction_theta_full 0.989
_refine_diff_density_max         3.338
_refine_diff_density_min         -2.152
_refine_diff_density_rms         0.139
####################################################################### 
# 
# This file contains crystal structure data downloaded from the 
# Cambridge Structural Database (CSD) hosted by the Cambridge 
# Crystallographic Data Centre (CCDC).
# 
# Full information about CCDC data access policies and citation 
# guidelines are available at http://www.ccdc.cam.ac.uk/access/V1 
# 
# Audit and citation data items may have been added by the CCDC. 
# Please retain this information to preserve the provenance of 
# this file and to allow appropriate attribution of the data. 
# 
#######################################################################

data_SMT-2
_audit_block_doi                 10.5517/ccy4259
_database_code_depnum_ccdc_archive 'CCDC 867850'
loop_
_citation_id
_citation_doi
_citation_year
1 10.1038/ncomms2552 2013
_audit_update_record             
;
2012-02-20 deposited with the CCDC.	2019-02-14 downloaded from the CCDC.
;
#TrackingRef '2-SMT-2.cif'


_audit_creation_method           SHELXL-97
_chemical_name_systematic        
;
?
;
_chemical_name_common            ?
_chemical_melting_point          ?
_chemical_formula_moiety         'C104 H84 Cu4 N12 O20'
_chemical_formula_sum            'C104 H84 Cu4 N12 O20'
_chemical_formula_weight         2075.99

loop_
_atom_type_symbol
_atom_type_description
_atom_type_scat_dispersion_real
_atom_type_scat_dispersion_imag
_atom_type_scat_source
C C 0.0033 0.0016 'International Tables Vol C Tables 4.2.6.8 and 6.1.1.4'
H H 0.0000 0.0000 'International Tables Vol C Tables 4.2.6.8 and 6.1.1.4'
Cu Cu 0.3201 1.2651 'International Tables Vol C Tables 4.2.6.8 and 6.1.1.4'
N N 0.0061 0.0033 'International Tables Vol C Tables 4.2.6.8 and 6.1.1.4'
O O 0.0106 0.0060 'International Tables Vol C Tables 4.2.6.8 and 6.1.1.4'

_symmetry_cell_setting           Triclinic
_symmetry_space_group_name_H-M   'P -1'
_symmetry_Hall_group_name_H-M    '-P 1'


loop_
_symmetry_equiv_pos_as_xyz
'x, y, z'
'-x, -y, -z'

_cell_length_a                   14.002(7)
_cell_length_b                   15.539(8)
_cell_length_c                   15.764(8)
_cell_angle_alpha                96.616(7)
_cell_angle_beta                 110.783(7)
_cell_angle_gamma                105.072(7)
_cell_volume                     3014(3)
_cell_formula_units_Z            1
_cell_measurement_temperature    110(2)
_cell_measurement_reflns_used    2154
_cell_measurement_theta_min      2.207
_cell_measurement_theta_max      19.141

_exptl_crystal_description       Block
_exptl_crystal_colour            blue
_exptl_crystal_size_max          0.34
_exptl_crystal_size_mid          0.32
_exptl_crystal_size_min          0.28
_exptl_crystal_density_meas      ?
_exptl_crystal_density_diffrn    1.144
_exptl_crystal_density_method    'not measured'
_exptl_crystal_F_000             1068
_exptl_absorpt_coefficient_mu    0.758
_exptl_absorpt_correction_type   Multi-scan
_exptl_absorpt_correction_T_min  0.7825
_exptl_absorpt_correction_T_max  0.8157
_exptl_absorpt_process_details   SADABS

_exptl_special_details           
;
?
;

_diffrn_ambient_temperature      110(2)
_diffrn_radiation_wavelength     0.71073
_diffrn_radiation_type           MoK\a
_diffrn_radiation_source         'fine-focus sealed tube'
_diffrn_radiation_monochromator  graphite
_diffrn_measurement_device_type  'BRUKER APEX-II CCD'
_diffrn_measurement_method       'phi and omega scans'
_diffrn_detector_area_resol_mean ?
_diffrn_reflns_number            30278
_diffrn_reflns_av_R_equivalents  0.0811
_diffrn_reflns_av_sigmaI/netI    0.1190
_diffrn_reflns_limit_h_min       -16
_diffrn_reflns_limit_h_max       16
_diffrn_reflns_limit_k_min       -18
_diffrn_reflns_limit_k_max       18
_diffrn_reflns_limit_l_min       -19
_diffrn_reflns_limit_l_max       18
_diffrn_reflns_theta_min         2.05
_diffrn_reflns_theta_max         25.60
_reflns_number_total             11233
_reflns_number_gt                6387
_reflns_threshold_expression     I>2sigma(I)

_computing_data_collection       'Bruker APEX-II'
_computing_cell_refinement       'Bruker SAINT'
_computing_data_reduction        'Bruker SAINT'
_computing_structure_solution    'SHELXS-97 (Sheldrick, 2008)'
_computing_structure_refinement  'SHELXL-97 (Sheldrick, 2008)'
_computing_molecular_graphics    'Bruker SHELXTL'
_computing_publication_material  'Bruker SHELXTL'

_refine_special_details          
;
Refinement of F^2^ against ALL reflections. The weighted R-factor wR and
goodness of fit S are based on F^2^, conventional R-factors R are based
on F, with F set to zero for negative F^2^. The threshold expression of
F^2^ > 2sigma(F^2^) is used only for calculating R-factors(gt) etc. and is
not relevant to the choice of reflections for refinement. R-factors based
on F^2^ are statistically about twice as large as those based on F, and R-
factors based on ALL data will be even larger.
;

_refine_ls_structure_factor_coef Fsqd
_refine_ls_matrix_type           full
_refine_ls_weighting_scheme      calc
_refine_ls_weighting_details     
'calc w=1/[\s^2^(Fo^2^)+(0.0607P)^2^+0.0000P] where P=(Fo^2^+2Fc^2^)/3'
_atom_sites_solution_primary     direct
_atom_sites_solution_secondary   difmap
_atom_sites_solution_hydrogens   geom
_refine_ls_hydrogen_treatment    constr
_refine_ls_extinction_method     none
_refine_ls_extinction_coef       ?
_refine_ls_number_reflns         11233
_refine_ls_number_parameters     661
_refine_ls_number_restraints     10
_refine_ls_R_factor_all          0.0951
_refine_ls_R_factor_gt           0.0578
_refine_ls_wR_factor_ref         0.1499
_refine_ls_wR_factor_gt          0.1366
_refine_ls_goodness_of_fit_ref   0.903
_refine_ls_restrained_S_all      0.905
_refine_ls_shift/su_max          0.047
_refine_ls_shift/su_mean         0.001

loop_
_atom_site_label
_atom_site_type_symbol
_atom_site_fract_x
_atom_site_fract_y
_atom_site_fract_z
_atom_site_U_iso_or_equiv
_atom_site_adp_type
_atom_site_occupancy
_atom_site_symmetry_multiplicity
_atom_site_calc_flag
_atom_site_refinement_flags
_atom_site_disorder_assembly
_atom_site_disorder_group
Cu1 Cu 0.219454(16) 0.332056(15) 0.302232(15) 0.02958(7) Uani 1 1 d . . .
Cu2 Cu 0.126859(15) 0.401868(15) 0.164333(14) 0.02557(7) Uani 1 1 d . . .
O1 O 0.21276(9) 0.23593(8) 0.20564(8) 0.0334(4) Uani 1 1 d . . .
O2 O 0.10470(9) 0.28260(8) 0.08961(8) 0.0302(4) Uani 1 1 d . . .
O3 O -0.21239(9) 0.55966(9) -0.37452(8) 0.0338(4) Uani 1 1 d . . .
O4 O -0.16170(9) 0.48824(8) -0.25837(8) 0.0282(4) Uani 1 1 d . . .
O5 O -0.06967(9) 0.73564(8) -0.27906(8) 0.0308(4) Uani 1 1 d . . .
O6 O 0.00682(8) 0.65542(8) -0.18063(8) 0.0286(4) Uani 1 1 d . . .
O7 O 0.35606(9) 0.40669(9) 0.30364(8) 0.0361(4) Uani 1 1 d . . .
O8 O 0.27501(8) 0.44706(8) 0.17089(8) 0.0312(4) Uani 1 1 d . . .
O9 O 0.28959(9) 0.28178(9) 0.42217(8) 0.0369(4) Uani 1 1 d . . .
O10 O 0.06892(9) 0.45075(8) 0.04626(7) 0.0284(4) Uani 1 1 d D . .
N1 N -0.05465(12) 0.10947(11) -0.23062(11) 0.0387(5) Uani 1 1 d . . .
N2 N -0.14525(11) 0.17389(11) -0.34584(11) 0.0365(5) Uani 1 1 d . . .
N3 N 0.40285(11) 0.71021(10) -0.07440(10) 0.0274(5) Uani 1 1 d . . .
N4 N 0.48699(10) 0.63777(10) 0.03421(9) 0.0271(5) Uani 1 1 d . . .
N5 N 0.41395(13) 0.25944(14) 0.54344(12) 0.0579(7) Uani 1 1 d . . .
C1 C 0.15111(13) 0.22649(12) 0.12088(12) 0.0296(6) Uani 1 1 d . . .
C2 C 0.13370(13) 0.14470(13) 0.05332(13) 0.0315(6) Uani 1 1 d . . .
C3 C 0.18262(15) 0.07929(13) 0.08050(15) 0.0439(7) Uani 1 1 d . . .
H3 H 0.2282 0.0871 0.1440 0.053 Uiso 1 1 calc R . .
C4 C 0.16488(16) 0.00274(14) 0.01498(14) 0.0504(7) Uani 1 1 d . . .
H4 H 0.2004 -0.0406 0.0333 0.060 Uiso 1 1 calc R . .
C5 C 0.09771(15) -0.01017(13) -0.07410(14) 0.0414(6) Uani 1 1 d . . .
H5 H 0.0853 -0.0638 -0.1176 0.050 Uiso 1 1 calc R . .
C6 C 0.04496(13) 0.05270(13) -0.10544(13) 0.0335(6) Uani 1 1 d . . .
C7 C 0.06617(13) 0.13071(13) -0.04094(12) 0.0312(6) Uani 1 1 d . . .
H7 H 0.0344 0.1759 -0.0608 0.037 Uiso 1 1 calc R . .
C8 C -0.03190(14) 0.03650(13) -0.20352(14) 0.0389(6) Uani 1 1 d . . .
C9 C -0.07985(15) -0.05151(14) -0.26213(14) 0.0438(7) Uani 1 1 d . . .
H9 H -0.0626 -0.1020 -0.2396 0.053 Uiso 1 1 calc R . .
C10 C -0.14958(15) -0.06397(14) -0.34940(15) 0.0485(7) Uani 1 1 d . . .
H10 H -0.1820 -0.1236 -0.3891 0.058 Uiso 1 1 calc R . .
C11 C -0.17574(15) 0.01067(14) -0.38342(15) 0.0450(7) Uani 1 1 d . . .
C12 C -0.12452(14) 0.09786(13) -0.31997(13) 0.0374(6) Uani 1 1 d . . .
C13 C -0.24750(16) 0.00657(16) -0.47333(15) 0.0546(8) Uani 1 1 d . . .
H13 H -0.2828 -0.0503 -0.5180 0.066 Uiso 1 1 calc R . .
C14 C -0.26663(15) 0.08305(14) -0.49672(15) 0.0462(7) Uani 1 1 d . . .
H14 H -0.3166 0.0800 -0.5573 0.055 Uiso 1 1 calc R . .
C15 C -0.21245(14) 0.16736(14) -0.43106(13) 0.0359(6) Uani 1 1 d . . .
C16 C -0.22767(14) 0.25233(14) -0.45724(14) 0.0376(7) Uani 1 1 d . . .
C17 C -0.26493(15) 0.25740(15) -0.54973(14) 0.0450(7) Uani 1 1 d . . .
H17 H -0.2814 0.2050 -0.5965 0.054 Uiso 1 1 calc R . .
C18 C -0.27883(15) 0.33657(15) -0.57608(14) 0.0469(7) Uani 1 1 d . . .
H18 H -0.3027 0.3393 -0.6398 0.056 Uiso 1 1 calc R . .
C19 C -0.25735(14) 0.41136(14) -0.50816(13) 0.0376(6) Uani 1 1 d . . .
H19 H -0.2697 0.4653 -0.5256 0.045 Uiso 1 1 calc R . .
C20 C -0.21779(13) 0.40920(13) -0.41446(12) 0.0292(6) Uani 1 1 d . . .
C21 C -0.20163(14) 0.33039(13) -0.38816(13) 0.0339(6) Uani 1 1 d . . .
H21 H -0.1732 0.3291 -0.3241 0.041 Uiso 1 1 calc R . .
C22 C -0.19518(12) 0.49147(12) -0.34271(12) 0.0271(6) Uani 1 1 d . . .
C23 C 0.01039(13) 0.71493(12) -0.22799(12) 0.0274(6) Uani 1 1 d . . .
C24 C 0.11739(13) 0.76574(12) -0.22580(12) 0.0244(5) Uani 1 1 d . . .
C25 C 0.12931(13) 0.83898(12) -0.26946(11) 0.0261(5) Uani 1 1 d . . .
H25 H 0.0681 0.8563 -0.3012 0.031 Uiso 1 1 calc R . .
C26 C 0.22718(13) 0.88570(12) -0.26709(12) 0.0295(6) Uani 1 1 d . . .
H26 H 0.2342 0.9368 -0.2949 0.035 Uiso 1 1 calc R . .
C27 C 0.31627(14) 0.85985(12) -0.22488(12) 0.0316(6) Uani 1 1 d . . .
H27 H 0.3842 0.8931 -0.2237 0.038 Uiso 1 1 calc R . .
C28 C 0.30731(13) 0.78540(12) -0.18401(12) 0.0245(5) Uani 1 1 d . . .
C29 C 0.20830(13) 0.74045(12) -0.18221(12) 0.0263(5) Uani 1 1 d . . .
H29 H 0.2025 0.6919 -0.1509 0.032 Uiso 1 1 calc R . .
C30 C 0.40209(13) 0.75475(12) -0.14147(12) 0.0274(6) Uani 1 1 d . . .
C31 C 0.48401(13) 0.77025(13) -0.17508(13) 0.0312(6) Uani 1 1 d . . .
H31 H 0.4787 0.8007 -0.2247 0.037 Uiso 1 1 calc R . .
C32 C 0.57004(13) 0.74229(13) -0.13750(12) 0.0324(6) Uani 1 1 d . . .
H32 H 0.6250 0.7518 -0.1608 0.039 Uiso 1 1 calc R . .
C33 C 0.57698(13) 0.69882(13) -0.06310(12) 0.0280(6) Uani 1 1 d . . .
C34 C 0.48977(13) 0.68259(12) -0.03501(13) 0.0276(6) Uani 1 1 d . . .
C35 C 0.66252(13) 0.66738(12) -0.01762(12) 0.0292(6) Uani 1 1 d . . .
H35 H 0.7221 0.6766 -0.0351 0.035 Uiso 1 1 calc R . .
C36 C 0.65952(13) 0.62376(13) 0.05136(13) 0.0331(6) Uani 1 1 d . . .
H36 H 0.7170 0.6019 0.0823 0.040 Uiso 1 1 calc R . .
C37 C 0.57050(13) 0.61074(12) 0.07747(12) 0.0260(5) Uani 1 1 d . . .
C38 C 0.56657(13) 0.56476(12) 0.15329(12) 0.0252(5) Uani 1 1 d . . .
C39 C 0.65692(14) 0.55284(14) 0.21692(13) 0.0419(7) Uani 1 1 d . . .
H39 H 0.7243 0.5751 0.2121 0.050 Uiso 1 1 calc R . .
C40 C 0.65143(15) 0.50964(15) 0.28667(14) 0.0479(7) Uani 1 1 d . . .
H40 H 0.7153 0.5035 0.3300 0.058 Uiso 1 1 calc R . .
C41 C 0.55622(14) 0.47524(14) 0.29528(13) 0.0405(7) Uani 1 1 d . . .
H41 H 0.5530 0.4441 0.3432 0.049 Uiso 1 1 calc R . .
C42 C 0.46405(12) 0.48660(12) 0.23270(12) 0.0259(5) Uani 1 1 d . . .
C43 C 0.46999(13) 0.53131(12) 0.16338(12) 0.0292(6) Uani 1 1 d . . .
H43 H 0.4066 0.5395 0.1215 0.035 Uiso 1 1 calc R . .
C44 C 0.35708(13) 0.44511(12) 0.23711(12) 0.0269(6) Uani 1 1 d . . .
C45 C 0.43488(17) 0.25023(18) 0.39508(16) 0.0758(9) Uani 1 1 d . . .
H45A H 0.3924 0.2504 0.3306 0.114 Uiso 1 1 calc R . .
H45B H 0.4459 0.1907 0.3974 0.114 Uiso 1 1 calc R . .
H45C H 0.5051 0.2985 0.4183 0.114 Uiso 1 1 calc R . .
C46 C 0.37433(16) 0.26760(15) 0.45589(15) 0.0488(7) Uani 1 1 d . . .
C47 C 0.5164(2) 0.2466(2) 0.5894(2) 0.1260(14) Uani 1 1 d . . .
H47A H 0.5362 0.2169 0.5429 0.189 Uiso 1 1 calc R . .
H47B H 0.5110 0.2078 0.6335 0.189 Uiso 1 1 calc R . .
H47C H 0.5716 0.3061 0.6231 0.189 Uiso 1 1 calc R . .
C48 C 0.35885(15) 0.27243(14) 0.60148(13) 0.0679(10) Uani 1 1 d . . .
H48A H 0.3223 0.3174 0.5834 0.102 Uiso 1 1 d R . .
H48B H 0.4108 0.2948 0.6666 0.102 Uiso 1 1 d R . .
H48C H 0.3054 0.2141 0.5945 0.102 Uiso 1 1 d R . .
C50B C -0.01904(15) 0.34648(14) -0.11359(13) 0.0336(10) Uiso 0.50 1 d PRD A 2
H50A H -0.0345 0.3458 -0.0577 0.050 Uiso 0.50 1 calc PR B 2
H50B H 0.0000 0.2920 -0.1286 0.050 Uiso 0.50 1 calc PR C 2
H50C H -0.0830 0.3466 -0.1660 0.050 Uiso 0.50 1 calc PR D 2
N6B N 0.0756(2) 0.43266(18) -0.09568(17) 0.0363(11) Uani 0.50 1 d PD A 2
C49B C 0.1070(2) 0.4779(2) -0.0096(2) 0.0334(13) Uani 0.50 1 d PD A 2
C51 C 0.10063(15) 0.47238(15) -0.16789(12) 0.0469(7) Uani 1 1 d D A 2
H51A H 0.0493 0.5041 -0.1955 0.070 Uiso 1 1 calc R A 2
H51B H 0.0952 0.4236 -0.2164 0.070 Uiso 1 1 calc R A 2
H51C H 0.1742 0.5161 -0.1403 0.070 Uiso 1 1 calc R A 2
N6A N 0.12316(19) 0.48675(17) -0.06753(16) 0.0226(9) Uani 0.50 1 d PD A 1
C49A C 0.0604(2) 0.4321(2) -0.03464(18) 0.0195(8) Uiso 0.50 1 d PD A 1
C50A C -0.0190(6) 0.3463(4) -0.1116(5) 0.199(6) Uani 0.50 1 d PD A 1
H50D H -0.0221 0.2919 -0.0854 0.299 Uiso 0.50 1 calc PR A 1
H50E H 0.0058 0.3398 -0.1621 0.299 Uiso 0.50 1 calc PR A 1
H50F H -0.0910 0.3527 -0.1361 0.299 Uiso 0.50 1 calc PR A 1
C52A C 0.2013(3) 0.5741(2) 0.0020(3) 0.0492(17) Uani 0.50 1 d PD A 1
H52A H 0.1634 0.6184 0.0052 0.074 Uiso 0.50 1 calc PR A 1
H52B H 0.2597 0.5996 -0.0176 0.074 Uiso 0.50 1 calc PR A 1
H52C H 0.2317 0.5611 0.0635 0.074 Uiso 0.50 1 calc PR A 1
C52B C 0.1928(3) 0.5719(3) 0.0208(5) 0.110(3) Uani 0.50 1 d PD A 2
H52D H 0.1645 0.6123 -0.0174 0.165 Uiso 0.50 1 calc PR A 2
H52E H 0.2571 0.5657 0.0126 0.165 Uiso 0.50 1 calc PR A 2
H52F H 0.2120 0.5980 0.0865 0.165 Uiso 0.50 1 calc PR A 2

loop_
_atom_site_aniso_label
_atom_site_aniso_U_11
_atom_site_aniso_U_22
_atom_site_aniso_U_33
_atom_site_aniso_U_23
_atom_site_aniso_U_13
_atom_site_aniso_U_12
Cu1 0.02739(10) 0.03676(12) 0.03402(11) 0.01870(9) 0.01551(8) 0.01640(9)
Cu2 0.02451(9) 0.02949(11) 0.02976(11) 0.01271(9) 0.01364(8) 0.01360(8)
O1 0.0348(5) 0.0402(7) 0.0387(6) 0.0182(5) 0.0195(5) 0.0230(5)
O2 0.0331(6) 0.0294(6) 0.0325(6) 0.0096(5) 0.0126(5) 0.0168(5)
O3 0.0337(6) 0.0439(7) 0.0287(6) 0.0139(6) 0.0134(5) 0.0169(5)
O4 0.0320(5) 0.0316(6) 0.0259(6) 0.0092(5) 0.0129(5) 0.0153(5)
O5 0.0273(5) 0.0326(6) 0.0399(6) 0.0176(5) 0.0151(5) 0.0155(5)
O6 0.0254(5) 0.0334(6) 0.0360(6) 0.0183(5) 0.0149(5) 0.0159(5)
O7 0.0307(6) 0.0511(7) 0.0379(6) 0.0273(6) 0.0162(5) 0.0204(5)
O8 0.0250(5) 0.0471(7) 0.0296(6) 0.0181(5) 0.0125(5) 0.0185(5)
O9 0.0313(6) 0.0477(7) 0.0378(7) 0.0225(6) 0.0143(5) 0.0162(6)
O10 0.0357(5) 0.0300(6) 0.0305(6) 0.0165(5) 0.0188(4) 0.0165(5)
N1 0.0418(8) 0.0296(8) 0.0489(9) 0.0044(7) 0.0227(7) 0.0141(7)
N2 0.0355(7) 0.0346(9) 0.0404(9) 0.0016(7) 0.0146(6) 0.0170(6)
N3 0.0244(6) 0.0257(8) 0.0323(7) 0.0071(6) 0.0119(6) 0.0078(6)
N4 0.0287(6) 0.0319(8) 0.0291(7) 0.0140(6) 0.0159(5) 0.0140(6)
N5 0.0388(9) 0.0890(13) 0.0489(10) 0.0342(9) 0.0117(8) 0.0261(9)
C1 0.0275(7) 0.0349(10) 0.0407(9) 0.0172(8) 0.0251(6) 0.0131(7)
C2 0.0323(8) 0.0300(10) 0.0446(10) 0.0117(8) 0.0254(7) 0.0143(7)
C3 0.0503(10) 0.0392(11) 0.0577(12) 0.0208(9) 0.0298(9) 0.0238(8)
C4 0.0705(11) 0.0458(10) 0.0707(12) 0.0384(9) 0.0462(9) 0.0400(9)
C5 0.0591(10) 0.0243(10) 0.0574(11) 0.0103(9) 0.0378(8) 0.0192(8)
C6 0.0376(8) 0.0305(10) 0.0435(10) 0.0095(8) 0.0247(7) 0.0165(8)
C7 0.0348(8) 0.0243(9) 0.0442(10) 0.0131(8) 0.0233(7) 0.0125(7)
C8 0.0405(9) 0.0250(10) 0.0615(12) 0.0076(9) 0.0301(8) 0.0144(8)
C9 0.0462(10) 0.0271(10) 0.0622(12) 0.0044(10) 0.0281(9) 0.0119(8)
C10 0.0494(10) 0.0249(11) 0.0691(13) -0.0026(10) 0.0288(9) 0.0075(9)
C11 0.0352(9) 0.0408(12) 0.0497(12) -0.0111(10) 0.0137(9) 0.0114(9)
C12 0.0351(9) 0.0307(11) 0.0428(11) -0.0064(9) 0.0189(8) 0.0066(8)
C13 0.0534(11) 0.0468(13) 0.0543(13) -0.0144(11) 0.0252(10) 0.0075(11)
C14 0.0407(10) 0.0452(12) 0.0472(12) -0.0021(10) 0.0161(9) 0.0127(9)
C15 0.0317(9) 0.0404(11) 0.0324(10) -0.0002(9) 0.0118(8) 0.0120(8)
C16 0.0273(8) 0.0439(12) 0.0386(10) 0.0028(9) 0.0128(8) 0.0104(8)
C17 0.0395(10) 0.0567(13) 0.0292(11) -0.0082(10) 0.0057(8) 0.0196(9)
C18 0.0424(10) 0.0679(14) 0.0306(11) 0.0136(10) 0.0091(9) 0.0249(10)
C19 0.0354(9) 0.0446(11) 0.0366(10) 0.0107(9) 0.0167(8) 0.0155(8)
C20 0.0220(8) 0.0400(11) 0.0246(9) 0.0079(8) 0.0106(7) 0.0067(8)
C21 0.0373(9) 0.0369(11) 0.0276(9) 0.0032(8) 0.0138(7) 0.0130(8)
C22 0.0156(7) 0.0365(10) 0.0343(9) 0.0151(8) 0.0130(6) 0.0095(7)
C23 0.0287(8) 0.0304(9) 0.0303(9) 0.0103(8) 0.0161(7) 0.0133(7)
C24 0.0254(8) 0.0232(9) 0.0223(8) 0.0037(7) 0.0086(7) 0.0062(7)
C25 0.0305(8) 0.0276(9) 0.0245(9) 0.0077(7) 0.0116(7) 0.0146(7)
C26 0.0353(8) 0.0224(9) 0.0379(9) 0.0157(8) 0.0169(7) 0.0139(7)
C27 0.0304(8) 0.0322(10) 0.0363(9) 0.0107(8) 0.0170(7) 0.0108(8)
C28 0.0231(8) 0.0280(9) 0.0249(8) 0.0102(7) 0.0098(6) 0.0103(7)
C29 0.0329(8) 0.0247(9) 0.0266(9) 0.0111(7) 0.0139(7) 0.0130(7)
C30 0.0263(8) 0.0271(10) 0.0280(9) 0.0037(8) 0.0139(7) 0.0044(7)
C31 0.0302(8) 0.0353(10) 0.0309(9) 0.0126(8) 0.0131(7) 0.0118(8)
C32 0.0274(8) 0.0468(11) 0.0328(9) 0.0157(8) 0.0151(7) 0.0204(8)
C33 0.0233(7) 0.0372(10) 0.0294(9) 0.0092(8) 0.0142(7) 0.0134(7)
C34 0.0240(8) 0.0245(9) 0.0335(10) 0.0069(8) 0.0073(7) 0.0123(7)
C35 0.0268(8) 0.0344(10) 0.0327(9) 0.0076(8) 0.0184(7) 0.0108(7)
C36 0.0257(8) 0.0354(10) 0.0404(10) 0.0081(9) 0.0144(7) 0.0120(8)
C37 0.0242(7) 0.0266(9) 0.0292(9) 0.0045(8) 0.0126(7) 0.0096(7)
C38 0.0207(8) 0.0274(9) 0.0263(9) 0.0072(7) 0.0079(7) 0.0072(7)
C39 0.0230(8) 0.0618(13) 0.0500(11) 0.0248(10) 0.0205(7) 0.0148(9)
C40 0.0277(9) 0.0855(14) 0.0442(10) 0.0375(10) 0.0171(8) 0.0267(9)
C41 0.0309(9) 0.0616(12) 0.0391(10) 0.0315(9) 0.0151(8) 0.0208(9)
C42 0.0237(7) 0.0306(9) 0.0315(9) 0.0140(7) 0.0167(6) 0.0109(7)
C43 0.0305(8) 0.0322(10) 0.0295(9) 0.0103(8) 0.0129(7) 0.0149(7)
C44 0.0270(8) 0.0258(9) 0.0303(9) 0.0069(8) 0.0128(7) 0.0104(7)
C45 0.0757(12) 0.1116(17) 0.0882(14) 0.0573(13) 0.0563(10) 0.0595(12)
C46 0.0436(10) 0.0638(13) 0.0535(11) 0.0319(10) 0.0257(9) 0.0242(10)
C47 0.0542(14) 0.232(3) 0.123(2) 0.1184(19) 0.0306(14) 0.0697(16)
C48 0.0632(13) 0.1016(19) 0.0369(12) 0.0197(13) 0.0146(11) 0.0298(13)
N6B 0.0345(15) 0.0309(16) 0.0365(18) 0.0067(14) 0.0035(14) 0.0150(13)
C49B 0.0247(18) 0.0245(18) 0.039(2) 0.0116(17) -0.0027(17) 0.0090(15)
C51 0.0523(10) 0.0704(13) 0.0411(10) 0.0264(10) 0.0281(8) 0.0380(9)
N6A 0.0241(12) 0.0281(15) 0.0232(14) 0.0151(12) 0.0122(11) 0.0130(11)
C50A 0.146(8) 0.050(4) 0.268(12) 0.027(6) -0.030(8) -0.017(5)
C52A 0.036(2) 0.022(2) 0.050(3) 0.001(2) -0.013(2) -0.006(2)
C52B 0.0351(18) 0.092(3) 0.250(6) 0.079(4) 0.075(3) 0.052(2)

_geom_special_details            
;
All esds (except the esd in the dihedral angle between two l.s. planes)
are estimated using the full covariance matrix. The cell esds are taken
into account individually in the estimation of esds in distances, angles
and torsion angles; correlations between esds in cell parameters are only
used when they are defined by crystal symmetry. An approximate (isotropic)
treatment of cell esds is used for estimating esds involving l.s. planes.
;

loop_
_geom_bond_atom_site_label_1
_geom_bond_atom_site_label_2
_geom_bond_distance
_geom_bond_site_symmetry_2
_geom_bond_publ_flag
Cu1 O7 1.9531(15) . ?
Cu1 O5 1.9643(15) 2_565 ?
Cu1 O1 1.9647(15) . ?
Cu1 O3 1.9659(16) 2_565 ?
Cu1 O9 2.1380(15) . ?
Cu1 Cu2 2.6188(10) . ?
Cu2 O4 1.9549(14) 2_565 ?
Cu2 O2 1.9640(15) . ?
Cu2 O8 1.9699(15) . ?
Cu2 O6 1.9722(15) 2_565 ?
Cu2 O10 2.0674(14) . ?
O1 C1 1.274(2) . ?
O2 C1 1.262(2) . ?
O3 C22 1.266(2) . ?
O3 Cu1 1.9658(16) 2_565 ?
O4 C22 1.255(2) . ?
O4 Cu2 1.9550(14) 2_565 ?
O5 C23 1.271(2) . ?
O5 Cu1 1.9644(15) 2_565 ?
O6 C23 1.256(2) . ?
O6 Cu2 1.9722(15) 2_565 ?
O7 C44 1.268(2) . ?
O8 C44 1.259(2) . ?
O9 C46 1.206(3) . ?
O10 C49A 1.230(3) . ?
O10 C49B 1.240(4) . ?
N1 C8 1.331(3) . ?
N1 C12 1.358(2) . ?
N2 C15 1.312(2) . ?
N2 C12 1.361(3) . ?
N3 C30 1.327(3) . ?
N3 C34 1.359(2) . ?
N4 C37 1.328(2) . ?
N4 C34 1.367(3) . ?
N5 C46 1.328(3) . ?
N5 C48 1.418(3) . ?
N5 C47 1.438(3) . ?
C1 C2 1.467(3) . ?
C2 C3 1.393(3) . ?
C2 C7 1.404(2) . ?
C3 C4 1.387(3) . ?
C3 H3 0.9500 . ?
C4 C5 1.340(3) . ?
C4 H4 0.9500 . ?
C5 C6 1.404(3) . ?
C5 H5 0.9500 . ?
C6 C7 1.381(3) . ?
C6 C8 1.484(3) . ?
C7 H7 0.9500 . ?
C8 C9 1.402(3) . ?
C9 C10 1.331(3) . ?
C9 H9 0.9500 . ?
C10 C11 1.411(3) . ?
C10 H10 0.9500 . ?
C11 C13 1.399(3) . ?
C11 C12 1.423(3) . ?
C13 C14 1.348(3) . ?
C13 H13 0.9500 . ?
C14 C15 1.406(3) . ?
C14 H14 0.9500 . ?
C15 C16 1.473(3) . ?
C16 C17 1.383(3) . ?
C16 C21 1.405(3) . ?
C17 C18 1.381(3) . ?
C17 H17 0.9500 . ?
C18 C19 1.375(3) . ?
C18 H18 0.9500 . ?
C19 C20 1.389(3) . ?
C19 H19 0.9500 . ?
C20 C21 1.385(3) . ?
C20 C22 1.489(3) . ?
C21 H21 0.9500 . ?
C23 C24 1.487(3) . ?
C24 C29 1.396(3) . ?
C24 C25 1.400(3) . ?
C25 C26 1.359(3) . ?
C25 H25 0.9500 . ?
C26 C27 1.376(3) . ?
C26 H26 0.9500 . ?
C27 C28 1.387(3) . ?
C27 H27 0.9500 . ?
C28 C29 1.393(3) . ?
C28 C30 1.486(3) . ?
C29 H29 0.9500 . ?
C30 C31 1.404(3) . ?
C31 C32 1.347(3) . ?
C31 H31 0.9500 . ?
C32 C33 1.406(3) . ?
C32 H32 0.9500 . ?
C33 C35 1.401(3) . ?
C33 C34 1.414(3) . ?
C35 C36 1.353(3) . ?
C35 H35 0.9500 . ?
C36 C37 1.420(3) . ?
C36 H36 0.9500 . ?
C37 C38 1.471(3) . ?
C38 C39 1.380(3) . ?
C38 C43 1.389(3) . ?
C39 C40 1.367(3) . ?
C39 H39 0.9500 . ?
C40 C41 1.362(3) . ?
C40 H40 0.9500 . ?
C41 C42 1.388(3) . ?
C41 H41 0.9500 . ?
C42 C43 1.376(3) . ?
C42 C44 1.499(3) . ?
C43 H43 0.9500 . ?
C45 C46 1.532(4) . ?
C45 H45A 0.9800 . ?
C45 H45B 0.9800 . ?
C45 H45C 0.9800 . ?
C47 H47A 0.9800 . ?
C47 H47B 0.9800 . ?
C47 H47C 0.9800 . ?
C48 H48A 0.9800 . ?
C48 H48B 0.9801 . ?
C48 H48C 0.9800 . ?
C50B N6B 1.534(3) . ?
C50B H50A 0.9800 . ?
C50B H50B 0.9800 . ?
C50B H50C 0.9800 . ?
N6B C49B 1.314(4) . ?
N6B C51 1.460(3) . ?
C49B C52B 1.525(5) . ?
C51 H51A 0.9800 . ?
C51 H51B 0.9800 . ?
C51 H51C 0.9800 . ?
N6A C49A 1.341(4) . ?
N6A C52A 1.508(4) . ?
C49A C50A 1.545(5) . ?
C50A H50D 0.9800 . ?
C50A H50E 0.9800 . ?
C50A H50F 0.9800 . ?
C52A H52A 0.9800 . ?
C52A H52B 0.9800 . ?
C52A H52C 0.9800 . ?
C52B H52D 0.9800 . ?
C52B H52E 0.9800 . ?
C52B H52F 0.9800 . ?

loop_
_geom_angle_atom_site_label_1
_geom_angle_atom_site_label_2
_geom_angle_atom_site_label_3
_geom_angle
_geom_angle_site_symmetry_1
_geom_angle_site_symmetry_3
_geom_angle_publ_flag
O7 Cu1 O5 169.15(5) . 2_565 ?
O7 Cu1 O1 89.00(6) . . ?
O5 Cu1 O1 88.65(6) 2_565 . ?
O7 Cu1 O3 89.23(6) . 2_565 ?
O5 Cu1 O3 90.65(6) 2_565 2_565 ?
O1 Cu1 O3 166.84(5) . 2_565 ?
O7 Cu1 O9 95.98(6) . . ?
O5 Cu1 O9 94.85(5) 2_565 . ?
O1 Cu1 O9 99.04(7) . . ?
O3 Cu1 O9 94.11(6) 2_565 . ?
O7 Cu1 Cu2 86.02(5) . . ?
O5 Cu1 Cu2 83.24(4) 2_565 . ?
O1 Cu1 Cu2 85.79(5) . . ?
O3 Cu1 Cu2 81.08(5) 2_565 . ?
O9 Cu1 Cu2 174.79(4) . . ?
O4 Cu2 O2 169.42(5) 2_565 . ?
O4 Cu2 O8 88.44(5) 2_565 . ?
O2 Cu2 O8 90.22(5) . . ?
O4 Cu2 O6 90.99(6) 2_565 2_565 ?
O2 Cu2 O6 88.02(6) . 2_565 ?
O8 Cu2 O6 167.31(5) . 2_565 ?
O4 Cu2 O10 98.66(6) 2_565 . ?
O2 Cu2 O10 91.86(6) . . ?
O8 Cu2 O10 90.87(5) . . ?
O6 Cu2 O10 101.74(5) 2_565 . ?
O4 Cu2 Cu1 87.05(5) 2_565 . ?
O2 Cu2 Cu1 82.37(5) . . ?
O8 Cu2 Cu1 82.31(4) . . ?
O6 Cu2 Cu1 85.00(5) 2_565 . ?
O10 Cu2 Cu1 171.02(4) . . ?
C1 O1 Cu1 119.43(13) . . ?
C1 O2 Cu2 124.10(11) . . ?
C22 O3 Cu1 124.40(13) . 2_565 ?
C22 O4 Cu2 118.80(13) . 2_565 ?
C23 O5 Cu1 122.66(12) . 2_565 ?
C23 O6 Cu2 120.35(11) . 2_565 ?
C44 O7 Cu1 120.20(10) . . ?
C44 O8 Cu2 123.87(13) . . ?
C46 O9 Cu1 132.87(15) . . ?
C49A O10 C49B 36.51(17) . . ?
C49A O10 Cu2 135.58(19) . . ?
C49B O10 Cu2 133.84(18) . . ?
C8 N1 C12 118.03(16) . . ?
C15 N2 C12 119.75(16) . . ?
C30 N3 C34 117.38(17) . . ?
C37 N4 C34 118.37(17) . . ?
C46 N5 C48 119.7(2) . . ?
C46 N5 C47 125.0(2) . . ?
C48 N5 C47 115.0(2) . . ?
O2 C1 O1 125.33(17) . . ?
O2 C1 C2 116.91(15) . . ?
O1 C1 C2 117.75(17) . . ?
C3 C2 C7 118.50(18) . . ?
C3 C2 C1 121.40(17) . . ?
C7 C2 C1 120.11(18) . . ?
C4 C3 C2 120.10(19) . . ?
C4 C3 H3 120.0 . . ?
C2 C3 H3 120.0 . . ?
C5 C4 C3 120.2(2) . . ?
C5 C4 H4 119.9 . . ?
C3 C4 H4 119.9 . . ?
C4 C5 C6 122.33(19) . . ?
C4 C5 H5 118.8 . . ?
C6 C5 H5 118.8 . . ?
C7 C6 C5 117.43(17) . . ?
C7 C6 C8 120.57(18) . . ?
C5 C6 C8 122.00(17) . . ?
C6 C7 C2 121.39(19) . . ?
C6 C7 H7 119.3 . . ?
C2 C7 H7 119.3 . . ?
N1 C8 C9 122.76(18) . . ?
N1 C8 C6 116.01(16) . . ?
C9 C8 C6 121.19(19) . . ?
C10 C9 C8 119.7(2) . . ?
C10 C9 H9 120.1 . . ?
C8 C9 H9 120.1 . . ?
C9 C10 C11 120.53(19) . . ?
C9 C10 H10 119.7 . . ?
C11 C10 H10 119.7 . . ?
C13 C11 C10 126.01(19) . . ?
C13 C11 C12 117.3(2) . . ?
C10 C11 C12 116.69(18) . . ?
N1 C12 N2 116.64(16) . . ?
N1 C12 C11 122.2(2) . . ?
N2 C12 C11 121.13(17) . . ?
C14 C13 C11 120.15(19) . . ?
C14 C13 H13 119.9 . . ?
C11 C13 H13 119.9 . . ?
C13 C14 C15 119.76(19) . . ?
C13 C14 H14 120.1 . . ?
C15 C14 H14 120.1 . . ?
N2 C15 C14 121.9(2) . . ?
N2 C15 C16 117.71(16) . . ?
C14 C15 C16 120.39(17) . . ?
C17 C16 C21 119.0(2) . . ?
C17 C16 C15 120.69(19) . . ?
C21 C16 C15 120.31(18) . . ?
C18 C17 C16 121.8(2) . . ?
C18 C17 H17 119.1 . . ?
C16 C17 H17 119.1 . . ?
C19 C18 C17 118.7(2) . . ?
C19 C18 H18 120.7 . . ?
C17 C18 H18 120.7 . . ?
C18 C19 C20 121.0(2) . . ?
C18 C19 H19 119.5 . . ?
C20 C19 H19 119.5 . . ?
C21 C20 C19 120.18(18) . . ?
C21 C20 C22 120.25(17) . . ?
C19 C20 C22 119.56(19) . . ?
C20 C21 C16 119.30(18) . . ?
C20 C21 H21 120.3 . . ?
C16 C21 H21 120.3 . . ?
O4 C22 O3 125.99(17) . . ?
O4 C22 C20 119.13(18) . . ?
O3 C22 C20 114.88(16) . . ?
O6 C23 O5 126.03(16) . . ?
O6 C23 C24 117.74(16) . . ?
O5 C23 C24 116.22(17) . . ?
C29 C24 C25 118.03(17) . . ?
C29 C24 C23 121.05(17) . . ?
C25 C24 C23 120.90(16) . . ?
C26 C25 C24 120.91(17) . . ?
C26 C25 H25 119.5 . . ?
C24 C25 H25 119.5 . . ?
C25 C26 C27 120.76(18) . . ?
C25 C26 H26 119.6 . . ?
C27 C26 H26 119.6 . . ?
C26 C27 C28 120.28(17) . . ?
C26 C27 H27 119.9 . . ?
C28 C27 H27 119.9 . . ?
C27 C28 C29 118.93(17) . . ?
C27 C28 C30 120.68(16) . . ?
C29 C28 C30 120.38(17) . . ?
C28 C29 C24 120.94(18) . . ?
C28 C29 H29 119.5 . . ?
C24 C29 H29 119.5 . . ?
N3 C30 C31 122.78(18) . . ?
N3 C30 C28 117.28(17) . . ?
C31 C30 C28 119.90(18) . . ?
C32 C31 C30 120.48(19) . . ?
C32 C31 H31 119.8 . . ?
C30 C31 H31 119.8 . . ?
C31 C32 C33 118.74(19) . . ?
C31 C32 H32 120.6 . . ?
C33 C32 H32 120.6 . . ?
C35 C33 C32 124.25(19) . . ?
C35 C33 C34 118.00(18) . . ?
C32 C33 C34 117.70(17) . . ?
N3 C34 N4 115.03(18) . . ?
N3 C34 C33 122.80(18) . . ?
N4 C34 C33 122.16(17) . . ?
C36 C35 C33 119.44(19) . . ?
C36 C35 H35 120.3 . . ?
C33 C35 H35 120.3 . . ?
C35 C36 C37 119.97(18) . . ?
C35 C36 H36 120.0 . . ?
C37 C36 H36 120.0 . . ?
N4 C37 C36 122.02(18) . . ?
N4 C37 C38 117.20(17) . . ?
C36 C37 C38 120.78(17) . . ?
C39 C38 C43 117.17(19) . . ?
C39 C38 C37 122.29(17) . . ?
C43 C38 C37 120.54(15) . . ?
C40 C39 C38 121.36(19) . . ?
C40 C39 H39 119.3 . . ?
C38 C39 H39 119.3 . . ?
C41 C40 C39 121.36(19) . . ?
C41 C40 H40 119.3 . . ?
C39 C40 H40 119.3 . . ?
C40 C41 C42 118.6(2) . . ?
C40 C41 H41 120.7 . . ?
C42 C41 H41 120.7 . . ?
C43 C42 C41 119.93(18) . . ?
C43 C42 C44 120.08(15) . . ?
C41 C42 C44 119.88(18) . . ?
C42 C43 C38 121.52(16) . . ?
C42 C43 H43 119.2 . . ?
C38 C43 H43 119.2 . . ?
O8 C44 O7 125.54(17) . . ?
O8 C44 C42 116.57(17) . . ?
O7 C44 C42 117.76(15) . . ?
C46 C45 H45A 109.5 . . ?
C46 C45 H45B 109.5 . . ?
H45A C45 H45B 109.5 . . ?
C46 C45 H45C 109.5 . . ?
H45A C45 H45C 109.5 . . ?
H45B C45 H45C 109.5 . . ?
O9 C46 N5 122.0(2) . . ?
O9 C46 C45 120.0(2) . . ?
N5 C46 C45 117.8(2) . . ?
N5 C47 H47A 109.5 . . ?
N5 C47 H47B 109.5 . . ?
H47A C47 H47B 109.5 . . ?
N5 C47 H47C 109.5 . . ?
H47A C47 H47C 109.5 . . ?
H47B C47 H47C 109.5 . . ?
N5 C48 H48A 109.5 . . ?
N5 C48 H48B 109.5 . . ?
H48A C48 H48B 109.5 . . ?
N5 C48 H48C 109.4 . . ?
H48A C48 H48C 109.4 . . ?
H48B C48 H48C 109.5 . . ?
N6B C50B H50A 109.5 . . ?
N6B C50B H50B 109.5 . . ?
H50A C50B H50B 109.5 . . ?
N6B C50B H50C 109.5 . . ?
H50A C50B H50C 109.5 . . ?
H50B C50B H50C 109.5 . . ?
C49B N6B C51 124.5(2) . . ?
C49B N6B C50B 107.2(3) . . ?
C51 N6B C50B 125.18(18) . . ?
O10 C49B N6B 124.5(3) . . ?
O10 C49B C52B 118.8(4) . . ?
N6B C49B C52B 116.6(4) . . ?
N6B C51 H51A 109.5 . . ?
N6B C51 H51B 109.5 . . ?
H51A C51 H51B 109.5 . . ?
N6B C51 H51C 109.5 . . ?
H51A C51 H51C 109.5 . . ?
H51B C51 H51C 109.5 . . ?
C49A N6A C52A 114.2(3) . . ?
O10 C49A N6A 122.5(2) . . ?
O10 C49A C50A 127.3(4) . . ?
N6A C49A C50A 110.2(4) . . ?
C49B C52B H52D 109.5 . . ?
C49B C52B H52E 109.5 . . ?
H52D C52B H52E 109.5 . . ?
C49B C52B H52F 109.5 . . ?
H52D C52B H52F 109.5 . . ?
H52E C52B H52F 109.5 . . ?

loop_
_geom_torsion_atom_site_label_1
_geom_torsion_atom_site_label_2
_geom_torsion_atom_site_label_3
_geom_torsion_atom_site_label_4
_geom_torsion
_geom_torsion_site_symmetry_1
_geom_torsion_site_symmetry_2
_geom_torsion_site_symmetry_3
_geom_torsion_site_symmetry_4
_geom_torsion_publ_flag
O7 Cu1 Cu2 O4 -78.61(6) . . . 2_565 ?
O5 Cu1 Cu2 O4 102.97(6) 2_565 . . 2_565 ?
O1 Cu1 Cu2 O4 -167.89(5) . . . 2_565 ?
O3 Cu1 Cu2 O4 11.24(5) 2_565 . . 2_565 ?
O9 Cu1 Cu2 O4 34.2(3) . . . 2_565 ?
O7 Cu1 Cu2 O2 101.47(6) . . . . ?
O5 Cu1 Cu2 O2 -76.95(6) 2_565 . . . ?
O1 Cu1 Cu2 O2 12.19(5) . . . . ?
O3 Cu1 Cu2 O2 -168.68(5) 2_565 . . . ?
O9 Cu1 Cu2 O2 -145.8(3) . . . . ?
O7 Cu1 Cu2 O8 10.22(5) . . . . ?
O5 Cu1 Cu2 O8 -168.20(5) 2_565 . . . ?
O1 Cu1 Cu2 O8 -79.07(5) . . . . ?
O3 Cu1 Cu2 O8 100.06(6) 2_565 . . . ?
O9 Cu1 Cu2 O8 123.0(3) . . . . ?
O7 Cu1 Cu2 O6 -169.86(5) . . . 2_565 ?
O5 Cu1 Cu2 O6 11.72(5) 2_565 . . 2_565 ?
O1 Cu1 Cu2 O6 100.85(5) . . . 2_565 ?
O3 Cu1 Cu2 O6 -80.02(5) 2_565 . . 2_565 ?
O9 Cu1 Cu2 O6 -57.1(3) . . . 2_565 ?
O7 Cu1 Cu2 O10 51.14(19) . . . . ?
O5 Cu1 Cu2 O10 -127.28(19) 2_565 . . . ?
O1 Cu1 Cu2 O10 -38.15(19) . . . . ?
O3 Cu1 Cu2 O10 140.98(19) 2_565 . . . ?
O9 Cu1 Cu2 O10 163.9(4) . . . . ?
O7 Cu1 O1 C1 -101.89(14) . . . . ?
O5 Cu1 O1 C1 67.52(13) 2_565 . . . ?
O3 Cu1 O1 C1 -19.6(3) 2_565 . . . ?
O9 Cu1 O1 C1 162.22(13) . . . . ?
Cu2 Cu1 O1 C1 -15.80(12) . . . . ?
O4 Cu2 O2 C1 -13.3(4) 2_565 . . . ?
O8 Cu2 O2 C1 69.30(15) . . . . ?
O6 Cu2 O2 C1 -98.13(15) 2_565 . . . ?
O10 Cu2 O2 C1 160.18(15) . . . . ?
Cu1 Cu2 O2 C1 -12.91(14) . . . . ?
O5 Cu1 O7 C44 -3.7(4) 2_565 . . . ?
O1 Cu1 O7 C44 73.83(15) . . . . ?
O3 Cu1 O7 C44 -93.13(15) 2_565 . . . ?
O9 Cu1 O7 C44 172.81(14) . . . . ?
Cu2 Cu1 O7 C44 -12.02(14) . . . . ?
O4 Cu2 O8 C44 75.05(15) 2_565 . . . ?
O2 Cu2 O8 C44 -94.45(15) . . . . ?
O6 Cu2 O8 C44 -12.5(3) 2_565 . . . ?
O10 Cu2 O8 C44 173.69(14) . . . . ?
Cu1 Cu2 O8 C44 -12.18(13) . . . . ?
O7 Cu1 O9 C46 -28.83(18) . . . . ?
O5 Cu1 O9 C46 150.50(18) 2_565 . . . ?
O1 Cu1 O9 C46 61.10(18) . . . . ?
O3 Cu1 O9 C46 -118.49(18) 2_565 . . . ?
Cu2 Cu1 O9 C46 -141.2(3) . . . . ?
O4 Cu2 O10 C49A 155.2(2) 2_565 . . . ?
O2 Cu2 O10 C49A -23.6(2) . . . . ?
O8 Cu2 O10 C49A 66.7(2) . . . . ?
O6 Cu2 O10 C49A -111.9(2) 2_565 . . . ?
Cu1 Cu2 O10 C49A 26.2(3) . . . . ?
O4 Cu2 O10 C49B 103.0(2) 2_565 . . . ?
O2 Cu2 O10 C49B -75.8(2) . . . . ?
O8 Cu2 O10 C49B 14.4(2) . . . . ?
O6 Cu2 O10 C49B -164.2(2) 2_565 . . . ?
Cu1 Cu2 O10 C49B -26.0(3) . . . . ?
Cu2 O2 C1 O1 4.9(3) . . . . ?
Cu2 O2 C1 C2 -174.01(12) . . . . ?
Cu1 O1 C1 O2 11.6(2) . . . . ?
Cu1 O1 C1 C2 -169.53(12) . . . . ?
O2 C1 C2 C3 179.00(18) . . . . ?
O1 C1 C2 C3 0.0(3) . . . . ?
O2 C1 C2 C7 -1.3(3) . . . . ?
O1 C1 C2 C7 179.75(17) . . . . ?
C7 C2 C3 C4 0.5(3) . . . . ?
C1 C2 C3 C4 -179.82(19) . . . . ?
C2 C3 C4 C5 -2.3(3) . . . . ?
C3 C4 C5 C6 1.5(3) . . . . ?
C4 C5 C6 C7 1.2(3) . . . . ?
C4 C5 C6 C8 -178.0(2) . . . . ?
C5 C6 C7 C2 -3.0(3) . . . . ?
C8 C6 C7 C2 176.20(18) . . . . ?
C3 C2 C7 C6 2.2(3) . . . . ?
C1 C2 C7 C6 -177.47(18) . . . . ?
C12 N1 C8 C9 -2.3(3) . . . . ?
C12 N1 C8 C6 179.87(18) . . . . ?
C7 C6 C8 N1 17.7(3) . . . . ?
C5 C6 C8 N1 -163.1(2) . . . . ?
C7 C6 C8 C9 -160.1(2) . . . . ?
C5 C6 C8 C9 19.1(3) . . . . ?
N1 C8 C9 C10 1.4(4) . . . . ?
C6 C8 C9 C10 179.1(2) . . . . ?
C8 C9 C10 C11 -0.1(4) . . . . ?
C9 C10 C11 C13 -180.0(2) . . . . ?
C9 C10 C11 C12 -0.3(3) . . . . ?
C8 N1 C12 N2 -179.33(19) . . . . ?
C8 N1 C12 C11 2.0(3) . . . . ?
C15 N2 C12 N1 -179.65(19) . . . . ?
C15 N2 C12 C11 -0.9(3) . . . . ?
C13 C11 C12 N1 179.0(2) . . . . ?
C10 C11 C12 N1 -0.7(3) . . . . ?
C13 C11 C12 N2 0.4(3) . . . . ?
C10 C11 C12 N2 -179.3(2) . . . . ?
C10 C11 C13 C14 179.1(2) . . . . ?
C12 C11 C13 C14 -0.6(4) . . . . ?
C11 C13 C14 C15 1.4(4) . . . . ?
C12 N2 C15 C14 1.7(3) . . . . ?
C12 N2 C15 C16 -176.71(19) . . . . ?
C13 C14 C15 N2 -2.0(4) . . . . ?
C13 C14 C15 C16 176.4(2) . . . . ?
N2 C15 C16 C17 157.5(2) . . . . ?
C14 C15 C16 C17 -21.0(3) . . . . ?
N2 C15 C16 C21 -20.8(3) . . . . ?
C14 C15 C16 C21 160.8(2) . . . . ?
C21 C16 C17 C18 -1.0(3) . . . . ?
C15 C16 C17 C18 -179.31(19) . . . . ?
C16 C17 C18 C19 -1.6(3) . . . . ?
C17 C18 C19 C20 2.9(3) . . . . ?
C18 C19 C20 C21 -1.5(3) . . . . ?
C18 C19 C20 C22 179.87(18) . . . . ?
C19 C20 C21 C16 -1.3(3) . . . . ?
C22 C20 C21 C16 177.40(17) . . . . ?
C17 C16 C21 C20 2.5(3) . . . . ?
C15 C16 C21 C20 -179.25(18) . . . . ?
Cu2 O4 C22 O3 -2.3(2) 2_565 . . . ?
Cu2 O4 C22 C20 177.63(12) 2_565 . . . ?
Cu1 O3 C22 O4 -13.3(2) 2_565 . . . ?
Cu1 O3 C22 C20 166.74(11) 2_565 . . . ?
C21 C20 C22 O4 -0.2(3) . . . . ?
C19 C20 C22 O4 178.45(16) . . . . ?
C21 C20 C22 O3 179.75(16) . . . . ?
C19 C20 C22 O3 -1.6(2) . . . . ?
Cu2 O6 C23 O5 -10.0(2) 2_565 . . . ?
Cu2 O6 C23 C24 170.80(12) 2_565 . . . ?
Cu1 O5 C23 O6 -5.9(3) 2_565 . . . ?
Cu1 O5 C23 C24 173.32(11) 2_565 . . . ?
O6 C23 C24 C29 7.8(3) . . . . ?
O5 C23 C24 C29 -171.46(16) . . . . ?
O6 C23 C24 C25 -173.78(16) . . . . ?
O5 C23 C24 C25 6.9(3) . . . . ?
C29 C24 C25 C26 -1.9(3) . . . . ?
C23 C24 C25 C26 179.69(17) . . . . ?
C24 C25 C26 C27 2.6(3) . . . . ?
C25 C26 C27 C28 0.0(3) . . . . ?
C26 C27 C28 C29 -3.3(3) . . . . ?
C26 C27 C28 C30 177.63(17) . . . . ?
C27 C28 C29 C24 4.0(3) . . . . ?
C30 C28 C29 C24 -176.90(16) . . . . ?
C25 C24 C29 C28 -1.5(3) . . . . ?
C23 C24 C29 C28 176.97(16) . . . . ?
C34 N3 C30 C31 2.9(2) . . . . ?
C34 N3 C30 C28 -179.61(14) . . . . ?
C27 C28 C30 N3 154.31(16) . . . . ?
C29 C28 C30 N3 -24.8(2) . . . . ?
C27 C28 C30 C31 -28.1(2) . . . . ?
C29 C28 C30 C31 152.83(17) . . . . ?
N3 C30 C31 C32 -2.1(3) . . . . ?
C28 C30 C31 C32 -179.59(15) . . . . ?
C30 C31 C32 C33 -1.1(2) . . . . ?
C31 C32 C33 C35 -179.43(16) . . . . ?
C31 C32 C33 C34 3.2(2) . . . . ?
C30 N3 C34 N4 179.45(14) . . . . ?
C30 N3 C34 C33 -0.5(2) . . . . ?
C37 N4 C34 N3 -178.38(14) . . . . ?
C37 N4 C34 C33 1.6(2) . . . . ?
C35 C33 C34 N3 179.95(15) . . . . ?
C32 C33 C34 N3 -2.5(2) . . . . ?
C35 C33 C34 N4 0.0(2) . . . . ?
C32 C33 C34 N4 177.51(15) . . . . ?
C32 C33 C35 C36 -177.89(16) . . . . ?
C34 C33 C35 C36 -0.6(2) . . . . ?
C33 C35 C36 C37 -0.4(2) . . . . ?
C34 N4 C37 C36 -2.6(2) . . . . ?
C34 N4 C37 C38 178.48(14) . . . . ?
C35 C36 C37 N4 2.1(3) . . . . ?
C35 C36 C37 C38 -179.04(15) . . . . ?
N4 C37 C38 C39 -164.56(17) . . . . ?
C36 C37 C38 C39 16.5(3) . . . . ?
N4 C37 C38 C43 15.4(2) . . . . ?
C36 C37 C38 C43 -163.53(17) . . . . ?
C43 C38 C39 C40 0.2(3) . . . . ?
C37 C38 C39 C40 -179.77(19) . . . . ?
C38 C39 C40 C41 1.1(3) . . . . ?
C39 C40 C41 C42 -1.4(3) . . . . ?
C40 C41 C42 C43 0.4(3) . . . . ?
C40 C41 C42 C44 176.66(19) . . . . ?
C41 C42 C43 C38 0.9(3) . . . . ?
C44 C42 C43 C38 -175.31(17) . . . . ?
C39 C38 C43 C42 -1.2(3) . . . . ?
C37 C38 C43 C42 178.78(17) . . . . ?
Cu2 O8 C44 O7 7.1(3) . . . . ?
Cu2 O8 C44 C42 -177.14(12) . . . . ?
Cu1 O7 C44 O8 6.9(3) . . . . ?
Cu1 O7 C44 C42 -168.82(12) . . . . ?
C43 C42 C44 O8 5.7(3) . . . . ?
C41 C42 C44 O8 -170.53(18) . . . . ?
C43 C42 C44 O7 -178.21(17) . . . . ?
C41 C42 C44 O7 5.6(3) . . . . ?
Cu1 O9 C46 N5 161.63(15) . . . . ?
Cu1 O9 C46 C45 -23.7(3) . . . . ?
C48 N5 C46 O9 -3.4(3) . . . . ?
C47 N5 C46 O9 -177.1(2) . . . . ?
C48 N5 C46 C45 -178.27(19) . . . . ?
C47 N5 C46 C45 8.0(3) . . . . ?
C49A O10 C49B N6B -3.2(3) . . . . ?
Cu2 O10 C49B N6B 108.4(3) . . . . ?
C49A O10 C49B C52B 174.0(6) . . . . ?
Cu2 O10 C49B C52B -74.4(4) . . . . ?
C51 N6B C49B O10 164.8(3) . . . . ?
C50B N6B C49B O10 3.7(5) . . . . ?
C51 N6B C49B C52B -12.5(5) . . . . ?
C50B N6B C49B C52B -173.6(3) . . . . ?
C49B O10 C49A N6A -1.2(3) . . . . ?
Cu2 O10 C49A N6A -107.7(3) . . . . ?
C49B O10 C49A C50A 178.2(7) . . . . ?
Cu2 O10 C49A C50A 71.7(5) . . . . ?
C52A N6A C49A O10 -2.3(5) . . . . ?
C52A N6A C49A C50A 178.2(4) . . . . ?

_diffrn_measured_fraction_theta_max 0.991
_diffrn_reflns_theta_full        25.60
_diffrn_measured_fraction_theta_full 0.991
_refine_diff_density_max         0.473
_refine_diff_density_min         -0.345
_refine_diff_density_rms         0.082


# start Validation Reply Form
_vrf_PLAT215_I                   
;
PROBLEM: Disordered C52B has ADP max/min Ratio ..... 18.1
RESPONSE: disordered
;
_vrf_PLAT602_I                   
;
PROBLEM: VERY LARGE Solvent Accessible VOID(S) in Structure !
RESPONSE: Diffraction peaks from disordered uncoordinated solvent molecules have been
removed by SQUEEZE function of platon.
;
