# generated using pymatgen
data_H1000Pd48C936N272.84O454.52
_symmetry_space_group_name_H-M   'P 1'
_cell_length_a   27.66200000
_cell_length_b   28.24510028
_cell_length_c   62.96778113
_cell_angle_alpha   83.82539411
_cell_angle_beta   77.31140502
_cell_angle_gamma   60.68059016
_symmetry_Int_Tables_number   1
_chemical_formula_structural   H1000Pd48C936N272.84O454.52
_chemical_formula_sum   'H1000 Pd48 C936 N272.84 O454.52'
_cell_volume   41848.08630582
_cell_formula_units_Z   1
loop_
 _symmetry_equiv_pos_site_id
 _symmetry_equiv_pos_as_xyz
  1  'x, y, z'
loop_
 _atom_site_type_symbol
 _atom_site_label
 _atom_site_symmetry_multiplicity
 _atom_site_fract_x
 _atom_site_fract_y
 _atom_site_fract_z
 _atom_site_occupancy
  C  C1  1  0.848100  0.291200  0.070600  1.0
  C  C2  1  0.209900  0.708800  0.929400  1.0
  C  C3  1  0.668700  0.791200  0.429400  1.0
  C  C4  1  0.889300  0.208800  0.570600  1.0
  C  C5  1  0.852500  0.342000  0.063200  1.0
  C  C6  1  0.257700  0.658000  0.936800  1.0
  C  C7  1  0.665700  0.842000  0.436800  1.0
  C  C8  1  0.944500  0.158000  0.563200  1.0
  C  C9  1  0.370400  0.852000  0.128200  1.0
  C  C10  1  0.350600  0.148000  0.871800  1.0
  C  C11  1  0.248600  0.352000  0.371800  1.0
  C  C12  1  0.972400  0.648000  0.628200  1.0
  C  C13  1  0.421500  0.843800  0.136000  1.0
  C  C14  1  0.401300  0.156200  0.864000  1.0
  C  C15  1  0.307500  0.343800  0.364000  1.0
  C  C16  1  0.015300  0.656200  0.636000  1.0
  C  C17  1  0.449100  0.204000  0.158200  1.0
  C  C18  1  0.811300  0.796000  0.841800  1.0
  C  C19  1  0.357300  0.704000  0.341800  1.0
  C  C20  1  0.403100  0.296000  0.658200  1.0
  C  C21  1  0.508600  0.195600  0.150000  1.0
  C  C22  1  0.854200  0.804400  0.850000  1.0
  C  C23  1  0.408600  0.695600  0.350000  1.0
  C  C24  1  0.454200  0.304400  0.650000  1.0
  C  C25  1  0.451600  0.862400  0.995600  1.0
  C  C26  1  0.309600  0.137600  0.004400  1.0
  C  C27  1  0.197200  0.362400  0.504400  1.0
  C  C28  1  0.064000  0.637600  0.495600  1.0
  C  C29  1  0.517300  0.844400  0.003000  1.0
  C  C30  1  0.364700  0.155600  0.997000  1.0
  C  C31  1  0.270300  0.344400  0.497000  1.0
  C  C32  1  0.111700  0.655600  0.503000  1.0
  C  C33  1  0.502000  0.166800  0.019400  1.0
  C  C34  1  0.688200  0.833200  0.980600  1.0
  C  C35  1  0.271400  0.666800  0.480600  1.0
  C  C36  1  0.418800  0.333200  0.519400  1.0
  C  C37  1  0.565500  0.142400  0.010800  1.0
  C  C38  1  0.718700  0.857600  0.989200  1.0
  C  C39  1  0.326300  0.642400  0.489200  1.0
  C  C40  1  0.457900  0.357600  0.510800  1.0
  C  C41  1  0.109800  0.680600  0.059800  1.0
  C  C42  1  0.850200  0.319400  0.940200  1.0
  C  C43  1  0.919600  0.180600  0.440200  1.0
  C  C44  1  0.540400  0.819400  0.559800  1.0
  C  C45  1  0.126300  0.718800  0.053200  1.0
  C  C46  1  0.898300  0.281200  0.946800  1.0
  C  C47  1  0.929500  0.218800  0.446800  1.0
  C  C48  1  0.595100  0.781200  0.553200  1.0
  C  C49  1  0.279300  0.622600  0.714600  1.0
  C  C50  1  0.616500  0.377400  0.285400  1.0
  C  C51  1  0.743900  0.122600  0.785400  1.0
  C  C52  1  0.651900  0.877400  0.214600  1.0
  C  C53  1  0.305100  0.552600  0.709200  1.0
  C  C54  1  0.566900  0.447400  0.290800  1.0
  C  C55  1  0.764300  0.052600  0.790800  1.0
  C  C56  1  0.607700  0.947400  0.209200  1.0
  C  C57  1  0.774500  0.126600  0.672800  1.0
  C  C58  1  0.573900  0.873400  0.327200  1.0
  C  C59  1  0.197300  0.626600  0.827200  1.0
  C  C60  1  0.651100  0.373400  0.172800  1.0
  C  C61  1  0.721800  0.156200  0.662800  1.0
  C  C62  1  0.540800  0.843800  0.337200  1.0
  C  C63  1  0.134600  0.656200  0.837200  1.0
  C  C64  1  0.628000  0.343800  0.162800  1.0
  C  C65  1  0.059100  0.352600  0.725600  1.0
  C  C66  1  0.137300  0.647400  0.274400  1.0
  C  C67  1  0.534700  0.852600  0.774400  1.0
  C  C68  1  0.161700  0.147400  0.225600  1.0
  C  C69  1  0.030100  0.424600  0.723600  1.0
  C  C70  1  0.178300  0.575400  0.276400  1.0
  C  C71  1  0.503700  0.924600  0.776400  1.0
  C  C72  1  0.204700  0.075400  0.223600  1.0
  C  C73  1  0.411900  0.527200  0.598400  1.0
  C  C74  1  0.537500  0.472800  0.401600  1.0
  C  C75  1  0.760300  0.027200  0.901600  1.0
  C  C76  1  0.689100  0.972800  0.098400  1.0
  C  C77  1  0.386500  0.584600  0.590000  1.0
  C  C78  1  0.561100  0.415400  0.410000  1.0
  C  C79  1  0.726500  0.084600  0.910000  1.0
  C  C80  1  0.721100  0.915400  0.090000  1.0
  C  C81  1  0.642000  0.823400  0.659200  1.0
  C  C82  1  0.124600  0.176600  0.340800  1.0
  C  C83  1  0.051200  0.323400  0.840800  1.0
  C  C84  1  0.215400  0.676600  0.159200  1.0
  C  C85  1  0.704700  0.785000  0.651000  1.0
  C  C86  1  0.140700  0.215000  0.349000  1.0
  C  C87  1  0.105700  0.285000  0.849000  1.0
  C  C88  1  0.239700  0.715000  0.151000  1.0
  C  C89  1  0.107900  0.370000  0.606200  1.0
  C  C90  1  0.084100  0.630000  0.393800  1.0
  C  C91  1  0.464100  0.870000  0.893800  1.0
  C  C92  1  0.227900  0.130000  0.106200  1.0
  C  C93  1  0.079800  0.427800  0.600600  1.0
  C  C94  1  0.108200  0.572200  0.399400  1.0
  C  C95  1  0.430400  0.927800  0.899400  1.0
  C  C96  1  0.257600  0.072200  0.100600  1.0
  C  C97  1  0.402150  0.652400  0.144300  1.0
  C  C98  1  0.198850  0.347600  0.855700  1.0
  C  C99  1  0.296450  0.152400  0.355700  1.0
  C  C100  1  0.804550  0.847600  0.644300  1.0
  C  C101  1  0.382240  0.616800  0.142120  1.0
  C  C102  1  0.141160  0.383200  0.857880  1.0
  C  C103  1  0.274360  0.116800  0.357880  1.0
  C  C104  1  0.749040  0.883200  0.642120  1.0
  C  C105  1  0.366400  0.615400  0.122800  1.0
  C  C106  1  0.104600  0.384600  0.877200  1.0
  C  C107  1  0.239200  0.115400  0.377200  1.0
  C  C108  1  0.731800  0.884600  0.622800  1.0
  C  C109  1  0.370450  0.649600  0.105700  1.0
  C  C110  1  0.125750  0.350400  0.894300  1.0
  C  C111  1  0.226150  0.149600  0.394300  1.0
  C  C112  1  0.770050  0.850400  0.605700  1.0
  C  C113  1  0.390460  0.685000  0.107880  1.0
  C  C114  1  0.183340  0.315000  0.892120  1.0
  C  C115  1  0.248340  0.185000  0.392120  1.0
  C  C116  1  0.825460  0.815000  0.607880  1.0
  C  C117  1  0.357650  0.647400  0.082500  1.0
  C  C118  1  0.087550  0.352600  0.917500  1.0
  C  C119  1  0.190150  0.147400  0.417500  1.0
  C  C120  1  0.755050  0.852600  0.582500  1.0
  C  C121  1  0.312190  0.639000  0.082420  1.0
  C  C122  1  0.033610  0.361000  0.917580  1.0
  C  C123  1  0.144610  0.139000  0.417580  1.0
  C  C124  1  0.701190  0.861000  0.582420  1.0
  C  C125  1  0.333580  0.636600  0.043240  1.0
  C  C126  1  0.013420  0.363400  0.956760  1.0
  C  C127  1  0.126820  0.136600  0.456760  1.0
  C  C128  1  0.720180  0.863400  0.543240  1.0
  C  C129  1  0.379040  0.645000  0.043320  1.0
  C  C130  1  0.067360  0.355000  0.956680  1.0
  C  C131  1  0.172360  0.145000  0.456680  1.0
  C  C132  1  0.774040  0.855000  0.543320  1.0
  C  C133  1  0.391120  0.650400  0.062960  1.0
  C  C134  1  0.104480  0.349600  0.937040  1.0
  C  C135  1  0.204080  0.150400  0.437040  1.0
  C  C136  1  0.791520  0.849600  0.562960  1.0
  C  C137  1  0.413000  0.656000  0.020600  1.0
  C  C138  1  0.089600  0.344000  0.979400  1.0
  C  C139  1  0.183600  0.156000  0.479400  1.0
  C  C140  1  0.819000  0.844000  0.520600  1.0
  C  C141  1  0.438800  0.690400  0.019800  1.0
  C  C142  1  0.149000  0.309600  0.980200  1.0
  C  C143  1  0.208600  0.190400  0.480200  1.0
  C  C144  1  0.879200  0.809600  0.519800  1.0
  C  C145  1  0.475200  0.672600  0.983200  1.0
  C  C146  1  0.131000  0.327400  0.016800  1.0
  C  C147  1  0.208400  0.172600  0.516800  1.0
  C  C148  1  0.897800  0.827400  0.483200  1.0
  C  C149  1  0.446800  0.645400  0.981000  1.0
  C  C150  1  0.073200  0.354600  0.019000  1.0
  C  C151  1  0.177800  0.145400  0.519000  1.0
  C  C152  1  0.842200  0.854600  0.481000  1.0
  C  C153  1  0.413200  0.637800  0.000000  1.0
  C  C154  1  0.051000  0.362200  0.000000  1.0
  C  C155  1  0.163200  0.137800  0.500000  1.0
  C  C156  1  0.801000  0.862200  0.500000  1.0
  C  C157  1  0.445100  0.621200  0.958400  1.0
  C  C158  1  0.024700  0.378800  0.041600  1.0
  C  C159  1  0.153500  0.121200  0.541600  1.0
  C  C160  1  0.816300  0.878800  0.458400  1.0
  C  C161  1  0.466090  0.642400  0.919420  1.0
  C  C162  1  0.027910  0.357600  0.080580  1.0
  C  C163  1  0.135510  0.142400  0.580580  1.0
  C  C164  1  0.858490  0.857600  0.419420  1.0
  C  C165  1  0.481400  0.675200  0.904600  1.0
  C  C166  1  0.061200  0.324800  0.095400  1.0
  C  C167  1  0.136000  0.175200  0.595400  1.0
  C  C168  1  0.906600  0.824800  0.404600  1.0
  C  C169  1  0.479810  0.674600  0.882780  1.0
  C  C170  1  0.037190  0.325400  0.117220  1.0
  C  C171  1  0.112590  0.174600  0.617220  1.0
  C  C172  1  0.904410  0.825400  0.382780  1.0
  C  C173  1  0.462970  0.641000  0.875660  1.0
  C  C174  1  0.979630  0.359000  0.124340  1.0
  C  C175  1  0.088630  0.141000  0.624340  1.0
  C  C176  1  0.853970  0.859000  0.375660  1.0
  C  C177  1  0.447790  0.608000  0.890420  1.0
  C  C178  1  0.946210  0.392000  0.109580  1.0
  C  C179  1  0.088210  0.108000  0.609580  1.0
  C  C180  1  0.805790  0.892000  0.390420  1.0
  C  C181  1  0.449250  0.608800  0.912300  1.0
  C  C182  1  0.970350  0.391200  0.087700  1.0
  C  C183  1  0.111550  0.108800  0.587700  1.0
  C  C184  1  0.808050  0.891200  0.412300  1.0
  C  C185  1  0.458280  0.643600  0.849440  1.0
  C  C186  1  0.951320  0.356400  0.150560  1.0
  C  C187  1  0.057720  0.143600  0.650560  1.0
  C  C188  1  0.851880  0.856400  0.349440  1.0
  C  C189  1  0.491630  0.658000  0.833140  1.0
  C  C190  1  0.982770  0.342000  0.166860  1.0
  C  C191  1  0.074770  0.158000  0.666860  1.0
  C  C192  1  0.899630  0.842000  0.333140  1.0
  C  C193  1  0.484750  0.662000  0.811700  1.0
  C  C194  1  0.958450  0.338000  0.188300  1.0
  C  C195  1  0.046450  0.162000  0.688300  1.0
  C  C196  1  0.896750  0.838000  0.311700  1.0
  C  C197  1  0.444520  0.651600  0.806560  1.0
  C  C198  1  0.902680  0.348400  0.193440  1.0
  C  C199  1  0.001080  0.151600  0.693440  1.0
  C  C200  1  0.846120  0.848400  0.306560  1.0
  C  C201  1  0.411070  0.637200  0.822860  1.0
  C  C202  1  0.871130  0.362800  0.177140  1.0
  C  C203  1  0.983930  0.137200  0.677140  1.0
  C  C204  1  0.798270  0.862800  0.322860  1.0
  C  C205  1  0.418050  0.633200  0.844300  1.0
  C  C206  1  0.895550  0.366800  0.155700  1.0
  C  C207  1  0.012350  0.133200  0.655700  1.0
  C  C208  1  0.801250  0.866800  0.344300  1.0
  C  C209  1  0.472060  0.668200  0.766880  1.0
  C  C210  1  0.907140  0.331800  0.233120  1.0
  C  C211  1  0.988940  0.168200  0.733120  1.0
  C  C212  1  0.890260  0.831800  0.266880  1.0
  C  C213  1  0.466750  0.658400  0.745100  1.0
  C  C214  1  0.870250  0.341600  0.254900  1.0
  C  C215  1  0.961850  0.158400  0.754900  1.0
  C  C216  1  0.875150  0.841600  0.245100  1.0
  C  C217  1  0.431700  0.631800  0.745400  1.0
  C  C218  1  0.808900  0.368200  0.254600  1.0
  C  C219  1  0.927100  0.131800  0.754600  1.0
  C  C220  1  0.813500  0.868200  0.245400  1.0
  C  C221  1  0.459700  0.627600  0.705000  1.0
  C  C222  1  0.792300  0.372400  0.295000  1.0
  C  C223  1  0.914700  0.127600  0.795000  1.0
  C  C224  1  0.837300  0.872400  0.205000  1.0
  C  C225  1  0.491300  0.660600  0.705000  1.0
  C  C226  1  0.856900  0.339400  0.295000  1.0
  C  C227  1  0.946300  0.160600  0.795000  1.0
  C  C228  1  0.901900  0.839400  0.205000  1.0
  C  C229  1  0.487120  0.680200  0.725360  1.0
  C  C230  1  0.892680  0.319800  0.274640  1.0
  C  C231  1  0.962480  0.180200  0.774640  1.0
  C  C232  1  0.917320  0.819800  0.225360  1.0
  C  C233  1  0.520370  0.674800  0.682660  1.0
  C  C234  1  0.877830  0.325200  0.317340  1.0
  C  C235  1  0.953030  0.174800  0.817340  1.0
  C  C236  1  0.945170  0.825200  0.182660  1.0
  C  C237  1  0.562280  0.688600  0.682640  1.0
  C  C238  1  0.933520  0.311400  0.317360  1.0
  C  C239  1  0.994920  0.188600  0.817360  1.0
  C  C240  1  0.000880  0.811400  0.182640  1.0
  C  C241  1  0.579260  0.692000  0.643480  1.0
  C  C242  1  0.914740  0.308000  0.356520  1.0
  C  C243  1  0.972740  0.192000  0.856520  1.0
  C  C244  1  0.021260  0.808000  0.143480  1.0
  C  C245  1  0.537250  0.678400  0.643500  1.0
  C  C246  1  0.859150  0.321600  0.356500  1.0
  C  C247  1  0.930750  0.178400  0.856500  1.0
  C  C248  1  0.965650  0.821600  0.143500  1.0
  C  C249  1  0.507950  0.669600  0.663100  1.0
  C  C250  1  0.840650  0.330400  0.336900  1.0
  C  C251  1  0.921050  0.169600  0.836900  1.0
  C  C252  1  0.927550  0.830400  0.163100  1.0
  C  C253  1  0.526820  0.671000  0.619160  1.0
  C  C254  1  0.816980  0.329000  0.380840  1.0
  C  C255  1  0.895980  0.171000  0.880840  1.0
  C  C256  1  0.947820  0.829000  0.119160  1.0
  C  C257  1  0.515070  0.629400  0.617060  1.0
  C  C258  1  0.761530  0.370600  0.382940  1.0
  C  C259  1  0.882130  0.129400  0.882940  1.0
  C  C260  1  0.894470  0.870600  0.117060  1.0
  C  C261  1  0.511130  0.652600  0.579340  1.0
  C  C262  1  0.743070  0.347400  0.420660  1.0
  C  C263  1  0.840470  0.152600  0.920660  1.0
  C  C264  1  0.913730  0.847400  0.079340  1.0
  C  C265  1  0.522890  0.694200  0.581420  1.0
  C  C266  1  0.798510  0.305800  0.418580  1.0
  C  C267  1  0.854310  0.194200  0.918580  1.0
  C  C268  1  0.967090  0.805800  0.081420  1.0
  C  C269  1  0.530700  0.703400  0.601400  1.0
  C  C270  1  0.835500  0.296600  0.398600  1.0
  C  C271  1  0.882100  0.203400  0.898600  1.0
  C  C272  1  0.984100  0.796600  0.101400  1.0
  C  C273  1  0.544880  0.655000  0.147640  1.0
  C  C274  1  0.347520  0.345000  0.852360  1.0
  C  C275  1  0.442520  0.155000  0.352360  1.0
  C  C276  1  0.949880  0.845000  0.647640  1.0
  C  C277  1  0.598390  0.610200  0.146220  1.0
  C  C278  1  0.354810  0.389800  0.853780  1.0
  C  C279  1  0.494610  0.110200  0.353780  1.0
  C  C280  1  0.958590  0.889800  0.646220  1.0
  C  C281  1  0.627370  0.583400  0.126460  1.0
  C  C282  1  0.337230  0.416600  0.873540  1.0
  C  C283  1  0.503830  0.083400  0.373540  1.0
  C  C284  1  0.960770  0.916600  0.626460  1.0
  C  C285  1  0.602840  0.601400  0.108120  1.0
  C  C286  1  0.312360  0.398600  0.891880  1.0
  C  C287  1  0.460960  0.101400  0.391880  1.0
  C  C288  1  0.954240  0.898600  0.608120  1.0
  C  C289  1  0.549330  0.646400  0.109540  1.0
  C  C290  1  0.305270  0.353600  0.890460  1.0
  C  C291  1  0.408870  0.146400  0.390460  1.0
  C  C292  1  0.945730  0.853600  0.609540  1.0
  C  C293  1  0.635020  0.562600  0.086360  1.0
  C  C294  1  0.283980  0.437400  0.913640  1.0
  C  C295  1  0.471380  0.062600  0.413640  1.0
  C  C296  1  0.947620  0.937400  0.586360  1.0
  C  C297  1  0.662720  0.506200  0.086760  1.0
  C  C298  1  0.255680  0.493800  0.913240  1.0
  C  C299  1  0.499480  0.006200  0.413240  1.0
  C  C300  1  0.918920  0.993800  0.586760  1.0
  C  C301  1  0.683310  0.504400  0.047580  1.0
  C  C302  1  0.235290  0.495600  0.952420  1.0
  C  C303  1  0.480890  0.004400  0.452420  1.0
  C  C304  1  0.937710  0.995600  0.547580  1.0
  C  C305  1  0.655710  0.560800  0.047180  1.0
  C  C306  1  0.263690  0.439200  0.952820  1.0
  C  C307  1  0.452890  0.060800  0.452820  1.0
  C  C308  1  0.966510  0.939200  0.547180  1.0
  C  C309  1  0.631620  0.589800  0.066560  1.0
  C  C310  1  0.287980  0.410200  0.933440  1.0
  C  C311  1  0.448180  0.089800  0.433440  1.0
  C  C312  1  0.971420  0.910200  0.566560  1.0
  C  C313  1  0.640860  0.593400  0.022080  1.0
  C  C314  1  0.256340  0.406600  0.977920  1.0
  C  C315  1  0.412940  0.093400  0.477920  1.0
  C  C316  1  0.984260  0.906600  0.522080  1.0
  C  C317  1  0.595670  0.645400  0.021660  1.0
  C  C318  1  0.262730  0.354600  0.978340  1.0
  C  C319  1  0.367330  0.145400  0.478340  1.0
  C  C320  1  0.991070  0.854600  0.521660  1.0
  C  C321  1  0.618260  0.644600  0.982480  1.0
  C  C322  1  0.245340  0.355400  0.017520  1.0
  C  C323  1  0.350740  0.144600  0.517520  1.0
  C  C324  1  0.012860  0.855400  0.482480  1.0
  C  C325  1  0.663540  0.592600  0.982920  1.0
  C  C326  1  0.239060  0.407400  0.017080  1.0
  C  C327  1  0.396460  0.092600  0.517080  1.0
  C  C328  1  0.006140  0.907400  0.482920  1.0
  C  C329  1  0.674840  0.567000  0.002720  1.0
  C  C330  1  0.244560  0.433000  0.997280  1.0
  C  C331  1  0.427560  0.067000  0.497280  1.0
  C  C332  1  0.991840  0.933000  0.502720  1.0
  C  C333  1  0.696700  0.563800  0.959400  1.0
  C  C334  1  0.219900  0.436200  0.040600  1.0
  C  C335  1  0.406100  0.063800  0.540600  1.0
  C  C336  1  0.010500  0.936200  0.459400  1.0
  C  C337  1  0.667350  0.546200  0.926500  1.0
  C  C338  1  0.140050  0.453800  0.073500  1.0
  C  C339  1  0.343850  0.046200  0.573500  1.0
  C  C340  1  0.963550  0.953800  0.426500  1.0
  C  C341  1  0.721200  0.515800  0.914400  1.0
  C  C342  1  0.151400  0.484200  0.085600  1.0
  C  C343  1  0.385600  0.015800  0.585600  1.0
  C  C344  1  0.987000  0.984200  0.414400  1.0
  C  C345  1  0.728200  0.504400  0.892600  1.0
  C  C346  1  0.125200  0.495600  0.107400  1.0
  C  C347  1  0.370800  0.004400  0.607400  1.0
  C  C348  1  0.982600  0.995600  0.392600  1.0
  C  C349  1  0.681180  0.523400  0.883040  1.0
  C  C350  1  0.087620  0.476600  0.116960  1.0
  C  C351  1  0.314220  0.023400  0.616960  1.0
  C  C352  1  0.954580  0.976600  0.383040  1.0
  C  C353  1  0.627300  0.553800  0.895200  1.0
  C  C354  1  0.076300  0.446200  0.104800  1.0
  C  C355  1  0.272500  0.053800  0.604800  1.0
  C  C356  1  0.931100  0.946200  0.395200  1.0
  C  C357  1  0.620400  0.565200  0.917000  1.0
  C  C358  1  0.102600  0.434800  0.083000  1.0
  C  C359  1  0.287400  0.065200  0.583000  1.0
  C  C360  1  0.935600  0.934800  0.417000  1.0
  C  C361  1  0.690900  0.515600  0.857000  1.0
  C  C362  1  0.063500  0.484400  0.143000  1.0
  C  C363  1  0.297900  0.015600  0.643000  1.0
  C  C364  1  0.956500  0.984400  0.357000  1.0
  C  C365  1  0.731800  0.466000  0.847400  1.0
  C  C366  1  0.045200  0.534000  0.152600  1.0
  C  C367  1  0.329200  0.966000  0.652600  1.0
  C  C368  1  0.947800  0.034000  0.347400  1.0
  C  C369  1  0.741800  0.459400  0.825000  1.0
  C  C370  1  0.026200  0.540600  0.175000  1.0
  C  C371  1  0.316800  0.959400  0.675000  1.0
  C  C372  1  0.951200  0.040600  0.325000  1.0
  C  C373  1  0.710890  0.502400  0.812220  1.0
  C  C374  1  0.025510  0.497600  0.187780  1.0
  C  C375  1  0.273110  0.002400  0.687780  1.0
  C  C376  1  0.963290  0.997600  0.312220  1.0
  C  C377  1  0.670000  0.552000  0.821800  1.0
  C  C378  1  0.043800  0.448000  0.178200  1.0
  C  C379  1  0.241800  0.052000  0.678200  1.0
  C  C380  1  0.972000  0.948000  0.321800  1.0
  C  C381  1  0.660000  0.558600  0.844200  1.0
  C  C382  1  0.062800  0.441400  0.155800  1.0
  C  C383  1  0.254200  0.058600  0.655800  1.0
  C  C384  1  0.968600  0.941400  0.344200  1.0
  C  C385  1  0.714280  0.534400  0.772240  1.0
  C  C386  1  0.020920  0.465600  0.227760  1.0
  C  C387  1  0.236520  0.034400  0.727760  1.0
  C  C388  1  0.998680  0.965600  0.272240  1.0
  C  C389  1  0.756040  0.519400  0.750520  1.0
  C  C390  1  0.025960  0.480600  0.249480  1.0
  C  C391  1  0.256560  0.019400  0.749480  1.0
  C  C392  1  0.025440  0.980600  0.250520  1.0
  C  C393  1  0.811220  0.479200  0.750760  1.0
  C  C394  1  0.041180  0.520800  0.249240  1.0
  C  C395  1  0.311980  0.979200  0.749240  1.0
  C  C396  1  0.040420  0.020800  0.250760  1.0
  C  C397  1  0.835800  0.488800  0.712000  1.0
  C  C398  1  0.036600  0.511200  0.288000  1.0
  C  C399  1  0.297800  0.988800  0.788000  1.0
  C  C400  1  0.074600  0.011200  0.212000  1.0
  C  C401  1  0.780510  0.529000  0.711780  1.0
  C  C402  1  0.021290  0.471000  0.288220  1.0
  C  C403  1  0.242290  0.029000  0.788220  1.0
  C  C404  1  0.059510  0.971000  0.211780  1.0
  C  C405  1  0.740680  0.544200  0.731040  1.0
  C  C406  1  0.015920  0.455800  0.268960  1.0
  C  C407  1  0.221720  0.044200  0.768960  1.0
  C  C408  1  0.034880  0.955800  0.231040  1.0
  C  C409  1  0.766920  0.553000  0.687760  1.0
  C  C410  1  0.007680  0.447000  0.312240  1.0
  C  C411  1  0.204680  0.053000  0.812240  1.0
  C  C412  1  0.069920  0.947000  0.187760  1.0
  C  C413  1  0.725210  0.606800  0.686780  1.0
  C  C414  1  0.018790  0.393200  0.313220  1.0
  C  C415  1  0.161990  0.106800  0.813220  1.0
  C  C416  1  0.082010  0.893200  0.186780  1.0
  C  C417  1  0.743440  0.600800  0.647720  1.0
  C  C418  1  0.991960  0.399200  0.352280  1.0
  C  C419  1  0.141160  0.100800  0.852280  1.0
  C  C420  1  0.094240  0.899200  0.147720  1.0
  C  C421  1  0.785060  0.547200  0.648680  1.0
  C  C422  1  0.980940  0.452800  0.351320  1.0
  C  C423  1  0.183740  0.047200  0.851320  1.0
  C  C424  1  0.082260  0.952800  0.148680  1.0
  C  C425  1  0.796840  0.523200  0.668720  1.0
  C  C426  1  0.988760  0.476800  0.331280  1.0
  C  C427  1  0.215560  0.023200  0.831280  1.0
  C  C428  1  0.070040  0.976800  0.168720  1.0
  C  C429  1  0.828570  0.511400  0.625860  1.0
  C  C430  1  0.965830  0.488600  0.374140  1.0
  C  C431  1  0.204430  0.011400  0.874140  1.0
  C  C432  1  0.089970  0.988600  0.125860  1.0
  C  C433  1  0.885500  0.473200  0.623000  1.0
  C  C434  1  0.981700  0.526800  0.377000  1.0
  C  C435  1  0.258500  0.973200  0.877000  1.0
  C  C436  1  0.108700  0.026800  0.123000  1.0
  C  C437  1  0.885000  0.458000  0.586200  1.0
  C  C438  1  0.929200  0.542000  0.413800  1.0
  C  C439  1  0.221200  0.958000  0.913800  1.0
  C  C440  1  0.093000  0.042000  0.086200  1.0
  C  C441  1  0.827980  0.496200  0.589040  1.0
  C  C442  1  0.913220  0.503800  0.410960  1.0
  C  C443  1  0.167020  0.996200  0.910960  1.0
  C  C444  1  0.074180  0.003800  0.089040  1.0
  C  C445  1  0.799800  0.523000  0.608800  1.0
  C  C446  1  0.931600  0.477000  0.391200  1.0
  C  C447  1  0.158600  0.023000  0.891200  1.0
  C  C448  1  0.072800  0.977000  0.108800  1.0
  C  C449  1  0.457550  0.401400  0.150900  1.0
  C  C450  1  0.009850  0.598600  0.849100  1.0
  C  C451  1  0.358450  0.901400  0.349100  1.0
  C  C452  1  0.608950  0.098600  0.650900  1.0
  C  C453  1  0.481920  0.435200  0.146360  1.0
  C  C454  1  0.063480  0.564800  0.853640  1.0
  C  C455  1  0.378280  0.935200  0.353640  1.0
  C  C456  1  0.667120  0.064800  0.646360  1.0
  C  C457  1  0.521400  0.428000  0.127200  1.0
  C  C458  1  0.076600  0.572000  0.872800  1.0
  C  C459  1  0.398600  0.928000  0.372800  1.0
  C  C460  1  0.699400  0.072000  0.627200  1.0
  C  C461  1  0.536310  0.387200  0.112780  1.0
  C  C462  1  0.036290  0.612800  0.887220  1.0
  C  C463  1  0.399090  0.887200  0.387220  1.0
  C  C464  1  0.673510  0.112800  0.612780  1.0
  C  C465  1  0.511940  0.353400  0.117320  1.0
  C  C466  1  0.982660  0.646600  0.882680  1.0
  C  C467  1  0.379260  0.853400  0.382680  1.0
  C  C468  1  0.615340  0.146600  0.617320  1.0
  C  C469  1  0.582440  0.373800  0.088920  1.0
  C  C470  1  0.045160  0.626200  0.911080  1.0
  C  C471  1  0.421360  0.873800  0.411080  1.0
  C  C472  1  0.706240  0.126200  0.588920  1.0
  C  C473  1  0.624730  0.387200  0.088540  1.0
  C  C474  1  0.100470  0.612800  0.911460  1.0
  C  C475  1  0.463270  0.887200  0.411460  1.0
  C  C476  1  0.761930  0.112800  0.588540  1.0
  C  C477  1  0.654250  0.371000  0.049900  1.0
  C  C478  1  0.075150  0.629000  0.950100  1.0
  C  C479  1  0.454150  0.871000  0.450100  1.0
  C  C480  1  0.775250  0.129000  0.549900  1.0
  C  C481  1  0.611960  0.357600  0.050280  1.0
  C  C482  1  0.019840  0.642400  0.949720  1.0
  C  C483  1  0.412240  0.857600  0.449720  1.0
  C  C484  1  0.719560  0.142400  0.550280  1.0
  C  C485  1  0.576010  0.359000  0.069780  1.0
  C  C486  1  0.004790  0.641000  0.930220  1.0
  C  C487  1  0.395790  0.859000  0.430220  1.0
  C  C488  1  0.685010  0.141000  0.569780  1.0
  C  C489  1  0.607390  0.339600  0.027420  1.0
  C  C490  1  0.974410  0.660400  0.972580  1.0
  C  C491  1  0.384810  0.839600  0.472580  1.0
  C  C492  1  0.696990  0.160400  0.527420  1.0
  C  C493  1  0.574730  0.314200  0.028740  1.0
  C  C494  1  0.917670  0.685800  0.971260  1.0
  C  C495  1  0.353470  0.814200  0.471260  1.0
  C  C496  1  0.638930  0.185800  0.528740  1.0
  C  C497  1  0.599200  0.303000  0.989800  1.0
  C  C498  1  0.892000  0.697000  0.010200  1.0
  C  C499  1  0.339000  0.803000  0.510200  1.0
  C  C500  1  0.652200  0.197000  0.489800  1.0
  C  C501  1  0.631850  0.328400  0.988500  1.0
  C  C502  1  0.948750  0.671600  0.011500  1.0
  C  C503  1  0.370350  0.828400  0.511500  1.0
  C  C504  1  0.710250  0.171600  0.488500  1.0
  C  C505  1  0.635850  0.346800  0.007300  1.0
  C  C506  1  0.989950  0.653200  0.992700  1.0
  C  C507  1  0.393150  0.846800  0.492700  1.0
  C  C508  1  0.732650  0.153200  0.507300  1.0
  C  C509  1  0.669640  0.327400  0.968520  1.0
  C  C510  1  0.965560  0.672600  0.031480  1.0
  C  C511  1  0.388160  0.827400  0.531480  1.0
  C  C512  1  0.747040  0.172600  0.468520  1.0
  C  C513  1  0.696300  0.300400  0.927400  1.0
  C  C514  1  0.924100  0.699600  0.072600  1.0
  C  C515  1  0.373700  0.800400  0.572600  1.0
  C  C516  1  0.746700  0.199600  0.427400  1.0
  C  C517  1  0.701800  0.262600  0.913400  1.0
  C  C518  1  0.877800  0.737400  0.086600  1.0
  C  C519  1  0.365200  0.762600  0.586600  1.0
  C  C520  1  0.714400  0.237400  0.413400  1.0
  C  C521  1  0.729380  0.259800  0.891840  1.0
  C  C522  1  0.881020  0.740200  0.108160  1.0
  C  C523  1  0.371220  0.759800  0.608160  1.0
  C  C524  1  0.739180  0.240200  0.391840  1.0
  C  C525  1  0.751500  0.294600  0.884400  1.0
  C  C526  1  0.930500  0.705400  0.115600  1.0
  C  C527  1  0.385900  0.794600  0.615600  1.0
  C  C528  1  0.796100  0.205400  0.384400  1.0
  C  C529  1  0.745970  0.332600  0.898460  1.0
  C  C530  1  0.977030  0.667400  0.101540  1.0
  C  C531  1  0.394430  0.832600  0.601540  1.0
  C  C532  1  0.828570  0.167400  0.398460  1.0
  C  C533  1  0.718320  0.335400  0.919960  1.0
  C  C534  1  0.973680  0.664600  0.080040  1.0
  C  C535  1  0.388280  0.835400  0.580040  1.0
  C  C536  1  0.803720  0.164600  0.419960  1.0
  C  C537  1  0.778240  0.295400  0.859120  1.0
  C  C538  1  0.932760  0.704600  0.140880  1.0
  C  C539  1  0.387360  0.795400  0.640880  1.0
  C  C540  1  0.823640  0.204600  0.359120  1.0
  C  C541  1  0.760520  0.276400  0.844560  1.0
  C  C542  1  0.881480  0.723600  0.155440  1.0
  C  C543  1  0.355080  0.776400  0.655440  1.0
  C  C544  1  0.786920  0.223600  0.344560  1.0
  C  C545  1  0.783570  0.273600  0.822460  1.0
  C  C546  1  0.879630  0.726400  0.177540  1.0
  C  C547  1  0.356030  0.773600  0.677540  1.0
  C  C548  1  0.807170  0.226400  0.322460  1.0
  C  C549  1  0.824230  0.290000  0.814940  1.0
  C  C550  1  0.929170  0.710000  0.185060  1.0
  C  C551  1  0.389170  0.790000  0.685060  1.0
  C  C552  1  0.864230  0.210000  0.314940  1.0
  C  C553  1  0.842040  0.308800  0.829520  1.0
  C  C554  1  0.980360  0.691200  0.170480  1.0
  C  C555  1  0.421560  0.808800  0.670480  1.0
  C  C556  1  0.900840  0.191200  0.329520  1.0
  C  C557  1  0.819000  0.311600  0.851600  1.0
  C  C558  1  0.982200  0.688400  0.148400  1.0
  C  C559  1  0.420600  0.811600  0.648400  1.0
  C  C560  1  0.880600  0.188400  0.351600  1.0
  C  C561  1  0.829270  0.285600  0.774060  1.0
  C  C562  1  0.888930  0.714400  0.225940  1.0
  C  C563  1  0.353330  0.785600  0.725940  1.0
  C  C564  1  0.864870  0.214400  0.274060  1.0
  C  C565  1  0.853540  0.298400  0.751120  1.0
  C  C566  1  0.903060  0.701600  0.248880  1.0
  C  C567  1  0.354660  0.798400  0.748880  1.0
  C  C568  1  0.901940  0.201600  0.251120  1.0
  C  C569  1  0.879120  0.330600  0.750160  1.0
  C  C570  1  0.959880  0.669400  0.249840  1.0
  C  C571  1  0.379280  0.830600  0.749840  1.0
  C  C572  1  0.959720  0.169400  0.250160  1.0
  C  C573  1  0.895890  0.329000  0.711020  1.0
  C  C574  1  0.935910  0.671000  0.288980  1.0
  C  C575  1  0.356910  0.829000  0.788980  1.0
  C  C576  1  0.974890  0.171000  0.211020  1.0
  C  C577  1  0.870310  0.296800  0.711980  1.0
  C  C578  1  0.879090  0.703200  0.288020  1.0
  C  C579  1  0.332290  0.796800  0.788020  1.0
  C  C580  1  0.917110  0.203200  0.211980  1.0
  C  C581  1  0.849180  0.281400  0.732040  1.0
  C  C582  1  0.862620  0.718600  0.267960  1.0
  C  C583  1  0.331220  0.781400  0.767960  1.0
  C  C584  1  0.880580  0.218600  0.232040  1.0
  C  C585  1  0.867670  0.275000  0.689460  1.0
  C  C586  1  0.832130  0.725000  0.310540  1.0
  C  C587  1  0.307130  0.775000  0.810540  1.0
  C  C588  1  0.892670  0.225000  0.189460  1.0
  C  C589  1  0.824270  0.264400  0.688260  1.0
  C  C590  1  0.776930  0.735600  0.311740  1.0
  C  C591  1  0.262530  0.764400  0.811740  1.0
  C  C592  1  0.838670  0.235600  0.188260  1.0
  C  C593  1  0.852580  0.258400  0.649240  1.0
  C  C594  1  0.760220  0.741600  0.350760  1.0
  C  C595  1  0.251820  0.758400  0.850760  1.0
  C  C596  1  0.860980  0.241600  0.149240  1.0
  C  C597  1  0.895880  0.269000  0.650440  1.0
  C  C598  1  0.815320  0.731000  0.349560  1.0
  C  C599  1  0.296320  0.769000  0.849560  1.0
  C  C600  1  0.914880  0.231000  0.150440  1.0
  C  C601  1  0.903520  0.277200  0.670560  1.0
  C  C602  1  0.851280  0.722800  0.329440  1.0
  C  C603  1  0.324080  0.777200  0.829440  1.0
  C  C604  1  0.930720  0.222800  0.170560  1.0
  C  C605  1  0.935910  0.274000  0.627780  1.0
  C  C606  1  0.837690  0.726000  0.372220  1.0
  C  C607  1  0.313690  0.774000  0.872220  1.0
  C  C608  1  0.959910  0.226000  0.127780  1.0
  C  C609  1  0.949400  0.315800  0.626000  1.0
  C  C610  1  0.891200  0.684200  0.374000  1.0
  C  C611  1  0.325400  0.815800  0.874000  1.0
  C  C612  1  0.015200  0.184200  0.126000  1.0
  C  C613  1  0.001430  0.286400  0.589540  1.0
  C  C614  1  0.877370  0.713600  0.410460  1.0
  C  C615  1  0.340970  0.786400  0.910460  1.0
  C  C616  1  0.037830  0.213600  0.089540  1.0
  C  C617  1  0.987900  0.244600  0.591400  1.0
  C  C618  1  0.823900  0.755400  0.408600  1.0
  C  C619  1  0.329300  0.744600  0.908600  1.0
  C  C620  1  0.982500  0.255400  0.091400  1.0
  C  C621  1  0.955100  0.238400  0.610600  1.0
  C  C622  1  0.804100  0.761600  0.389400  1.0
  C  C623  1  0.315700  0.738400  0.889400  1.0
  C  C624  1  0.943500  0.261600  0.110600  1.0
  C  C625  1  0.312150  0.389600  0.151300  1.0
  C  C626  1  0.853050  0.610400  0.848700  1.0
  C  C627  1  0.213450  0.889600  0.348700  1.0
  C  C628  1  0.451750  0.110400  0.651300  1.0
  C  C629  1  0.261950  0.433000  0.147100  1.0
  C  C630  1  0.842050  0.567000  0.852900  1.0
  C  C631  1  0.159050  0.933000  0.352900  1.0
  C  C632  1  0.444950  0.067000  0.647100  1.0
  C  C633  1  0.258800  0.454600  0.126200  1.0
  C  C634  1  0.839600  0.545400  0.873800  1.0
  C  C635  1  0.135000  0.954600  0.373800  1.0
  C  C636  1  0.463400  0.045400  0.626200  1.0
  C  C637  1  0.305820  0.432600  0.109560  1.0
  C  C638  1  0.847980  0.567400  0.890440  1.0
  C  C639  1  0.165380  0.932600  0.390440  1.0
  C  C640  1  0.488420  0.067400  0.609560  1.0
  C  C641  1  0.356120  0.389000  0.113760  1.0
  C  C642  1  0.858880  0.611000  0.886240  1.0
  C  C643  1  0.219880  0.889000  0.386240  1.0
  C  C644  1  0.495120  0.111000  0.613760  1.0
  C  C645  1  0.305290  0.462000  0.086020  1.0
  C  C646  1  0.853310  0.538000  0.913980  1.0
  C  C647  1  0.141310  0.962000  0.413980  1.0
  C  C648  1  0.517290  0.038000  0.586020  1.0
  C  C649  1  0.275110  0.518000  0.083980  1.0
  C  C650  1  0.877090  0.482000  0.916020  1.0
  C  C651  1  0.109090  0.018000  0.416020  1.0
  C  C652  1  0.543110  0.982000  0.583980  1.0
  C  C653  1  0.306460  0.509800  0.045080  1.0
  C  C654  1  0.861340  0.490200  0.954920  1.0
  C  C655  1  0.101540  0.009800  0.454920  1.0
  C  C656  1  0.566260  0.990200  0.545080  1.0
  C  C657  1  0.336830  0.453600  0.047140  1.0
  C  C658  1  0.837570  0.546400  0.952860  1.0
  C  C659  1  0.133970  0.953600  0.452860  1.0
  C  C660  1  0.540430  0.046400  0.547140  1.0
  C  C661  1  0.336100  0.429800  0.067600  1.0
  C  C662  1  0.833500  0.570200  0.932400  1.0
  C  C663  1  0.153700  0.929800  0.432400  1.0
  C  C664  1  0.515900  0.070200  0.567600  1.0
  C  C665  1  0.371090  0.418600  0.024620  1.0
  C  C666  1  0.814310  0.581400  0.975380  1.0
  C  C667  1  0.145710  0.918600  0.475380  1.0
  C  C668  1  0.539690  0.081400  0.524620  1.0
  C  C669  1  0.416300  0.367800  0.027200  1.0
  C  C670  1  0.811300  0.632200  0.972800  1.0
  C  C671  1  0.193500  0.867800  0.472800  1.0
  C  C672  1  0.534100  0.132200  0.527200  1.0
  C  C673  1  0.440520  0.354600  0.988360  1.0
  C  C674  1  0.783480  0.645400  0.011640  1.0
  C  C675  1  0.178880  0.854600  0.511640  1.0
  C  C676  1  0.545120  0.145400  0.488360  1.0
  C  C677  1  0.395400  0.405400  0.985800  1.0
  C  C678  1  0.786600  0.594600  0.014200  1.0
  C  C679  1  0.131200  0.905400  0.514200  1.0
  C  C680  1  0.550800  0.094600  0.485800  1.0
  C  C681  1  0.360640  0.437400  0.003920  1.0
  C  C682  1  0.801960  0.562600  0.996080  1.0
  C  C683  1  0.114560  0.937400  0.496080  1.0
  C  C684  1  0.548040  0.062600  0.503920  1.0
  C  C685  1  0.390200  0.430400  0.963800  1.0
  C  C686  1  0.784400  0.569600  0.036200  1.0
  C  C687  1  0.104000  0.930400  0.536200  1.0
  C  C688  1  0.570600  0.069600  0.463800  1.0
  C  C689  1  0.423680  0.398000  0.923040  1.0
  C  C690  1  0.744720  0.602000  0.076960  1.0
  C  C691  1  0.096720  0.898000  0.576960  1.0
  C  C692  1  0.571680  0.102000  0.423040  1.0
  C  C693  1  0.414530  0.449400  0.915540  1.0
  C  C694  1  0.779470  0.550600  0.084460  1.0
  C  C695  1  0.080070  0.949400  0.584460  1.0
  C  C696  1  0.613930  0.050600  0.415540  1.0
  C  C697  1  0.430530  0.457600  0.893540  1.0
  C  C698  1  0.781670  0.542400  0.106460  1.0
  C  C699  1  0.074070  0.957600  0.606460  1.0
  C  C700  1  0.638130  0.042400  0.393540  1.0
  C  C701  1  0.455690  0.414400  0.879020  1.0
  C  C702  1  0.749110  0.585600  0.120980  1.0
  C  C703  1  0.084710  0.914400  0.620980  1.0
  C  C704  1  0.620090  0.085600  0.379020  1.0
  C  C705  1  0.464750  0.363200  0.886500  1.0
  C  C706  1  0.714450  0.636800  0.113500  1.0
  C  C707  1  0.101250  0.863200  0.613500  1.0
  C  C708  1  0.577950  0.136800  0.386500  1.0
  C  C709  1  0.448740  0.355000  0.908520  1.0
  C  C710  1  0.712260  0.645000  0.091480  1.0
  C  C711  1  0.107260  0.855000  0.591480  1.0
  C  C712  1  0.553740  0.145000  0.408520  1.0
  C  C713  1  0.473850  0.421200  0.852700  1.0
  C  C714  1  0.747750  0.578800  0.147300  1.0
  C  C715  1  0.076550  0.921200  0.647300  1.0
  C  C716  1  0.645050  0.078800  0.352700  1.0
  C  C717  1  0.457080  0.472600  0.843640  1.0
  C  C718  1  0.773320  0.527400  0.156360  1.0
  C  C719  1  0.050720  0.972600  0.656360  1.0
  C  C720  1  0.679680  0.027400  0.343640  1.0
  C  C721  1  0.467700  0.478600  0.821200  1.0
  C  C722  1  0.767500  0.521400  0.178800  1.0
  C  C723  1  0.038900  0.978600  0.678800  1.0
  C  C724  1  0.696300  0.021400  0.321200  1.0
  C  C725  1  0.495120  0.433200  0.807760  1.0
  C  C726  1  0.736080  0.566800  0.192240  1.0
  C  C727  1  0.052880  0.933200  0.692240  1.0
  C  C728  1  0.678320  0.066800  0.307760  1.0
  C  C729  1  0.511890  0.381800  0.816820  1.0
  C  C730  1  0.710510  0.618200  0.183180  1.0
  C  C731  1  0.078710  0.881800  0.683180  1.0
  C  C732  1  0.643690  0.118200  0.316820  1.0
  C  C733  1  0.501260  0.375800  0.839280  1.0
  C  C734  1  0.716340  0.624200  0.160720  1.0
  C  C735  1  0.090540  0.875800  0.660720  1.0
  C  C736  1  0.627060  0.124200  0.339280  1.0
  C  C737  1  0.538000  0.406000  0.769000  1.0
  C  C738  1  0.713000  0.594000  0.231000  1.0
  C  C739  1  0.057000  0.906000  0.731000  1.0
  C  C740  1  0.694000  0.094000  0.269000  1.0
  C  C741  1  0.538250  0.429800  0.746100  1.0
  C  C742  1  0.714150  0.570200  0.253900  1.0
  C  C743  1  0.034350  0.929800  0.753900  1.0
  C  C744  1  0.718050  0.070200  0.246100  1.0
  C  C745  1  0.486090  0.474600  0.744620  1.0
  C  C746  1  0.705310  0.525400  0.255380  1.0
  C  C747  1  0.980710  0.974600  0.755380  1.0
  C  C748  1  0.710690  0.025400  0.244620  1.0
  C  C749  1  0.514970  0.474800  0.705660  1.0
  C  C750  1  0.695430  0.525200  0.294340  1.0
  C  C751  1  0.970630  0.974800  0.794340  1.0
  C  C752  1  0.739770  0.025200  0.205660  1.0
  C  C753  1  0.567130  0.430000  0.707140  1.0
  C  C754  1  0.704270  0.570000  0.292860  1.0
  C  C755  1  0.024270  0.930000  0.792860  1.0
  C  C756  1  0.747130  0.070000  0.207140  1.0
  C  C757  1  0.578600  0.407600  0.727400  1.0
  C  C758  1  0.713600  0.592400  0.272600  1.0
  C  C759  1  0.056000  0.907600  0.772600  1.0
  C  C760  1  0.736200  0.092400  0.227400  1.0
  C  C761  1  0.611300  0.402600  0.684400  1.0
  C  C762  1  0.698300  0.597400  0.315600  1.0
  C  C763  1  0.045700  0.902600  0.815600  1.0
  C  C764  1  0.763900  0.097400  0.184400  1.0
  C  C765  1  0.654560  0.349800  0.685880  1.0
  C  C766  1  0.690240  0.650200  0.314120  1.0
  C  C767  1  0.090440  0.849800  0.814120  1.0
  C  C768  1  0.754360  0.150200  0.185880  1.0
  C  C769  1  0.686580  0.347800  0.647040  1.0
  C  C770  1  0.681420  0.652200  0.352960  1.0
  C  C771  1  0.083620  0.847800  0.852960  1.0
  C  C772  1  0.784380  0.152200  0.147040  1.0
  C  C773  1  0.643420  0.400600  0.645560  1.0
  C  C774  1  0.689580  0.599400  0.354440  1.0
  C  C775  1  0.038980  0.900600  0.854440  1.0
  C  C776  1  0.794020  0.099400  0.145560  1.0
  C  C777  1  0.605780  0.428000  0.664240  1.0
  C  C778  1  0.698020  0.572000  0.335760  1.0
  C  C779  1  0.020020  0.928000  0.835760  1.0
  C  C780  1  0.783780  0.072000  0.164240  1.0
  C  C781  1  0.639790  0.436600  0.622820  1.0
  C  C782  1  0.699210  0.563400  0.377180  1.0
  C  C783  1  0.012610  0.936600  0.877180  1.0
  C  C784  1  0.826390  0.063400  0.122820  1.0
  C  C785  1  0.586910  0.471600  0.617980  1.0
  C  C786  1  0.676490  0.528400  0.382020  1.0
  C  C787  1  0.954890  0.971600  0.882020  1.0
  C  C788  1  0.808510  0.028400  0.117980  1.0
  C  C789  1  0.630720  0.491800  0.583360  1.0
  C  C790  1  0.705880  0.508200  0.416640  1.0
  C  C791  1  0.964080  0.991800  0.916640  1.0
  C  C792  1  0.872520  0.008200  0.083360  1.0
  C  C793  1  0.683800  0.456600  0.588200  1.0
  C  C794  1  0.728600  0.543400  0.411800  1.0
  C  C795  1  0.022000  0.956600  0.911800  1.0
  C  C796  1  0.890400  0.043400  0.088200  1.0
  C  C797  1  0.688300  0.429000  0.608000  1.0
  C  C798  1  0.725300  0.571000  0.392000  1.0
  C  C799  1  0.046300  0.929000  0.892000  1.0
  C  C800  1  0.867300  0.071000  0.108000  1.0
  C  C801  1  0.533800  0.457000  0.966600  1.0
  C  C802  1  0.957400  0.543000  0.033400  1.0
  C  C803  1  0.250400  0.957000  0.533400  1.0
  C  C804  1  0.740800  0.043000  0.466600  1.0
  C  C805  1  0.511200  0.460800  0.986000  1.0
  C  C806  1  0.958000  0.539200  0.014000  1.0
  C  C807  1  0.247200  0.960800  0.514000  1.0
  C  C808  1  0.722000  0.039200  0.486000  1.0
  C  C809  1  0.502900  0.475600  0.007800  1.0
  C  C810  1  0.986300  0.524400  0.992200  1.0
  C  C811  1  0.260700  0.975600  0.492200  1.0
  C  C812  1  0.728500  0.024400  0.507800  1.0
  C  C813  1  0.472300  0.476600  0.028000  1.0
  C  C814  1  0.976900  0.523400  0.972000  1.0
  C  C815  1  0.250300  0.976600  0.472000  1.0
  C  C816  1  0.698900  0.023400  0.528000  1.0
  C  C817  1  0.472500  0.493600  0.047000  1.0
  C  C818  1  0.013100  0.506400  0.953000  1.0
  C  C819  1  0.269500  0.993600  0.453000  1.0
  C  C820  1  0.716100  0.006400  0.547000  1.0
  C  C821  1  0.441000  0.491200  0.070400  1.0
  C  C822  1  0.002600  0.508800  0.929600  1.0
  C  C823  1  0.261400  0.991200  0.429600  1.0
  C  C824  1  0.682200  0.008800  0.570400  1.0
  C  C825  1  0.450400  0.504000  0.089200  1.0
  C  C826  1  0.043600  0.496000  0.910800  1.0
  C  C827  1  0.289600  0.004000  0.410800  1.0
  C  C828  1  0.704400  0.996000  0.589200  1.0
  C  C829  1  0.484200  0.528200  0.086800  1.0
  C  C830  1  0.099200  0.471800  0.913200  1.0
  C  C831  1  0.321000  0.028200  0.413200  1.0
  C  C832  1  0.762400  0.971800  0.586800  1.0
  C  C833  1  0.516600  0.534400  0.065800  1.0
  C  C834  1  0.116800  0.465600  0.934200  1.0
  C  C835  1  0.332400  0.034400  0.434200  1.0
  C  C836  1  0.801000  0.965600  0.565800  1.0
  C  C837  1  0.509800  0.514800  0.046800  1.0
  C  C838  1  0.071400  0.485200  0.953200  1.0
  C  C839  1  0.306600  0.014800  0.453200  1.0
  C  C840  1  0.774600  0.985200  0.546800  1.0
  C  C841  1  0.549400  0.519800  0.025600  1.0
  C  C842  1  0.094800  0.480200  0.974400  1.0
  C  C843  1  0.325000  0.019800  0.474400  1.0
  C  C844  1  0.819200  0.980200  0.525600  1.0
  C  C845  1  0.538300  0.501400  0.006200  1.0
  C  C846  1  0.045900  0.498600  0.993800  1.0
  C  C847  1  0.294500  0.001400  0.493800  1.0
  C  C848  1  0.789700  0.998600  0.506200  1.0
  C  C849  1  0.577600  0.502800  0.983000  1.0
  C  C850  1  0.063400  0.497200  0.017000  1.0
  C  C851  1  0.310600  0.002800  0.517000  1.0
  C  C852  1  0.830400  0.997200  0.483000  1.0
  C  C853  1  0.568000  0.487000  0.966800  1.0
  C  C854  1  0.021800  0.513000  0.033200  1.0
  C  C855  1  0.284800  0.987000  0.533200  1.0
  C  C856  1  0.805000  0.013000  0.466800  1.0
  C  C857  1  0.541200  0.430600  0.947800  1.0
  C  C858  1  0.919600  0.569400  0.052200  1.0
  C  C859  1  0.239000  0.930600  0.552200  1.0
  C  C860  1  0.721800  0.069400  0.447800  1.0
  C  C861  1  0.579100  0.419600  0.907200  1.0
  C  C862  1  0.905900  0.580400  0.092800  1.0
  C  C863  1  0.236300  0.919600  0.592800  1.0
  C  C864  1  0.748700  0.080400  0.407200  1.0
  C  C865  1  0.583800  0.446000  0.888600  1.0
  C  C866  1  0.918400  0.554000  0.111400  1.0
  C  C867  1  0.222400  0.946000  0.611400  1.0
  C  C868  1  0.779800  0.054000  0.388600  1.0
  C  C869  1  0.600900  0.454000  0.851000  1.0
  C  C870  1  0.905900  0.546000  0.149000  1.0
  C  C871  1  0.201900  0.954000  0.649000  1.0
  C  C872  1  0.804900  0.046000  0.351000  1.0
  C  C873  1  0.632600  0.417000  0.828600  1.0
  C  C874  1  0.878200  0.583000  0.171400  1.0
  C  C875  1  0.211200  0.917000  0.671400  1.0
  C  C876  1  0.799600  0.083000  0.328600  1.0
  C  C877  1  0.650700  0.416600  0.790600  1.0
  C  C878  1  0.857900  0.583400  0.209400  1.0
  C  C879  1  0.191300  0.916600  0.709400  1.0
  C  C880  1  0.817300  0.083400  0.290600  1.0
  C  C881  1  0.651300  0.441600  0.769600  1.0
  C  C882  1  0.862500  0.558400  0.230400  1.0
  C  C883  1  0.170900  0.941600  0.730400  1.0
  C  C884  1  0.842900  0.058400  0.269600  1.0
  C  C885  1  0.683400  0.422600  0.751600  1.0
  C  C886  1  0.857600  0.577400  0.248400  1.0
  C  C887  1  0.185000  0.922600  0.748400  1.0
  C  C888  1  0.856000  0.077400  0.251600  1.0
  C  C889  1  0.685700  0.441800  0.728200  1.0
  C  C890  1  0.855700  0.558200  0.271800  1.0
  C  C891  1  0.163900  0.941800  0.771800  1.0
  C  C892  1  0.877500  0.058200  0.228200  1.0
  C  C893  1  0.724000  0.417600  0.709200  1.0
  C  C894  1  0.850800  0.582400  0.290800  1.0
  C  C895  1  0.183200  0.917600  0.790800  1.0
  C  C896  1  0.891600  0.082400  0.209200  1.0
  C  C897  1  0.714300  0.451200  0.689800  1.0
  C  C898  1  0.855300  0.548800  0.310200  1.0
  C  C899  1  0.154100  0.951200  0.810200  1.0
  C  C900  1  0.915500  0.048800  0.189800  1.0
  C  C901  1  0.750300  0.422400  0.669600  1.0
  C  C902  1  0.842300  0.577600  0.330400  1.0
  C  C903  1  0.169900  0.922400  0.830400  1.0
  C  C904  1  0.922700  0.077600  0.169600  1.0
  C  C905  1  0.751100  0.444800  0.649400  1.0
  C  C906  1  0.845300  0.555200  0.350600  1.0
  C  C907  1  0.150500  0.944800  0.850600  1.0
  C  C908  1  0.945900  0.055200  0.149400  1.0
  C  C909  1  0.694100  0.501000  0.647400  1.0
  C  C910  1  0.842500  0.499000  0.352600  1.0
  C  C911  1  0.091500  0.001000  0.852600  1.0
  C  C912  1  0.945100  0.999000  0.147400  1.0
  C  C913  1  0.654600  0.531000  0.666600  1.0
  C  C914  1  0.852200  0.469000  0.333400  1.0
  C  C915  1  0.071200  0.031000  0.833400  1.0
  C  C916  1  0.935600  0.969000  0.166600  1.0
  C  C917  1  0.669800  0.501000  0.688200  1.0
  C  C918  1  0.859000  0.499000  0.311800  1.0
  C  C919  1  0.108000  0.001000  0.811800  1.0
  C  C920  1  0.920800  0.999000  0.188200  1.0
  C  C921  1  0.629200  0.523000  0.709200  1.0
  C  C922  1  0.861400  0.477000  0.290800  1.0
  C  C923  1  0.088400  0.023000  0.790800  1.0
  C  C924  1  0.902200  0.977000  0.209200  1.0
  C  C925  1  0.632700  0.501000  0.729000  1.0
  C  C926  1  0.862700  0.499000  0.271000  1.0
  C  C927  1  0.111700  0.001000  0.771000  1.0
  C  C928  1  0.883700  0.999000  0.229000  1.0
  C  C929  1  0.596800  0.523400  0.751400  1.0
  C  C930  1  0.871600  0.476600  0.248600  1.0
  C  C931  1  0.098200  0.023400  0.748600  1.0
  C  C932  1  0.870200  0.976600  0.251400  1.0
  C  C933  1  0.602700  0.495400  0.770000  1.0
  C  C934  1  0.868100  0.504600  0.230000  1.0
  C  C935  1  0.122700  0.995400  0.730000  1.0
  C  C936  1  0.848100  0.004600  0.270000  1.0
  H  H937  1  0.768300  0.295200  0.075000  1.0
  H  H938  1  0.138500  0.704800  0.925000  1.0
  H  H939  1  0.593300  0.795200  0.425000  1.0
  H  H940  1  0.813500  0.204800  0.575000  1.0
  H  H941  1  0.790200  0.299800  0.051600  1.0
  H  H942  1  0.141600  0.700200  0.948400  1.0
  H  H943  1  0.591800  0.799800  0.448400  1.0
  H  H944  1  0.840000  0.200200  0.551600  1.0
  H  H945  1  0.848700  0.284000  0.086400  1.0
  H  H946  1  0.219100  0.716000  0.913600  1.0
  H  H947  1  0.685100  0.784000  0.413600  1.0
  H  H948  1  0.882700  0.216000  0.586400  1.0
  H  H949  1  0.877700  0.259000  0.062000  1.0
  H  H950  1  0.198700  0.741000  0.938000  1.0
  H  H951  1  0.689700  0.759000  0.438000  1.0
  H  H952  1  0.886700  0.241000  0.562000  1.0
  H  H953  1  0.880300  0.342200  0.070800  1.0
  H  H954  1  0.293300  0.657800  0.929200  1.0
  H  H955  1  0.701100  0.842200  0.429200  1.0
  H  H956  1  0.972500  0.157800  0.570800  1.0
  H  H957  1  0.869400  0.337200  0.047600  1.0
  H  H958  1  0.254200  0.662800  0.952400  1.0
  H  H959  1  0.667000  0.837200  0.452400  1.0
  H  H960  1  0.956600  0.162800  0.547600  1.0
  H  H961  1  0.807700  0.417800  0.054400  1.0
  H  H962  1  0.279900  0.582200  0.945600  1.0
  H  H963  1  0.612100  0.917800  0.445600  1.0
  H  H964  1  0.975500  0.082200  0.554400  1.0
  H  H965  1  0.801000  0.411400  0.078600  1.0
  H  H966  1  0.291000  0.588600  0.921400  1.0
  H  H967  1  0.629600  0.911400  0.421400  1.0
  H  H968  1  0.962400  0.088600  0.578600  1.0
  H  H969  1  0.342400  0.802400  0.123200  1.0
  H  H970  1  0.268000  0.197600  0.876800  1.0
  H  H971  1  0.215600  0.302400  0.376800  1.0
  H  H972  1  0.894800  0.697600  0.623200  1.0
  H  H973  1  0.340400  0.807400  0.146800  1.0
  H  H974  1  0.294600  0.192600  0.853200  1.0
  H  H975  1  0.237200  0.307400  0.353200  1.0
  H  H976  1  0.897800  0.692600  0.646800  1.0
  H  H977  1  0.336600  0.884600  0.135400  1.0
  H  H978  1  0.356600  0.115400  0.864600  1.0
  H  H979  1  0.222000  0.384600  0.364600  1.0
  H  H980  1  0.971200  0.615400  0.635400  1.0
  H  H981  1  0.375100  0.858800  0.112400  1.0
  H  H982  1  0.346300  0.141200  0.887600  1.0
  H  H983  1  0.237500  0.358800  0.387600  1.0
  H  H984  1  0.983900  0.641200  0.612400  1.0
  H  H985  1  0.431700  0.872000  0.129600  1.0
  H  H986  1  0.433300  0.128000  0.870400  1.0
  H  H987  1  0.311300  0.372000  0.370400  1.0
  H  H988  1  0.053700  0.628000  0.629600  1.0
  H  H989  1  0.412400  0.848200  0.152000  1.0
  H  H990  1  0.412600  0.151800  0.848000  1.0
  H  H991  1  0.314400  0.348200  0.348000  1.0
  H  H992  1  0.010600  0.651800  0.652000  1.0
  H  H993  1  0.491900  0.780600  0.140000  1.0
  H  H994  1  0.412500  0.219400  0.860000  1.0
  H  H995  1  0.381900  0.280600  0.360000  1.0
  H  H996  1  0.022500  0.719400  0.640000  1.0
  H  H997  1  0.487900  0.792600  0.116600  1.0
  H  H998  1  0.397100  0.207400  0.883400  1.0
  H  H999  1  0.354500  0.292600  0.383400  1.0
  H  H1000  1  0.030500  0.707400  0.616600  1.0
  H  H1001  1  0.372700  0.266000  0.157200  1.0
  H  H1002  1  0.795900  0.734000  0.842800  1.0
  H  H1003  1  0.279900  0.766000  0.342800  1.0
  H  H1004  1  0.388700  0.234000  0.657200  1.0
  H  H1005  1  0.403600  0.241600  0.135200  1.0
  H  H1006  1  0.780400  0.758400  0.864800  1.0
  H  H1007  1  0.288800  0.741600  0.364800  1.0
  H  H1008  1  0.395200  0.258400  0.635200  1.0
  H  H1009  1  0.447600  0.171200  0.155000  1.0
  H  H1010  1  0.773800  0.828800  0.845000  1.0
  H  H1011  1  0.352600  0.671200  0.345000  1.0
  H  H1012  1  0.368800  0.328800  0.655000  1.0
  H  H1013  1  0.439300  0.209000  0.174200  1.0
  H  H1014  1  0.822500  0.791000  0.825800  1.0
  H  H1015  1  0.363500  0.709000  0.325800  1.0
  H  H1016  1  0.398300  0.291000  0.674200  1.0
  H  H1017  1  0.523600  0.178400  0.135400  1.0
  H  H1018  1  0.837400  0.821600  0.864600  1.0
  H  H1019  1  0.409000  0.678400  0.364600  1.0
  H  H1020  1  0.452000  0.321600  0.635400  1.0
  H  H1021  1  0.533800  0.170800  0.159800  1.0
  H  H1022  1  0.864400  0.829200  0.840200  1.0
  H  H1023  1  0.443600  0.670800  0.340200  1.0
  H  H1024  1  0.454600  0.329200  0.659800  1.0
  H  H1025  1  0.537500  0.249200  0.138000  1.0
  H  H1026  1  0.924700  0.750800  0.862000  1.0
  H  H1027  1  0.425500  0.749200  0.362000  1.0
  H  H1028  1  0.536700  0.250800  0.638000  1.0
  H  H1029  1  0.512700  0.258000  0.161600  1.0
  H  H1030  1  0.932300  0.742000  0.838400  1.0
  H  H1031  1  0.424300  0.758000  0.338400  1.0
  H  H1032  1  0.520700  0.242000  0.661600  1.0
  H  H1033  1  0.432800  0.813400  0.983800  1.0
  H  H1034  1  0.230000  0.186600  0.016200  1.0
  H  H1035  1  0.166600  0.313400  0.516200  1.0
  H  H1036  1  0.996200  0.686600  0.483800  1.0
  H  H1037  1  0.413700  0.819600  0.007800  1.0
  H  H1038  1  0.241100  0.180400  0.992200  1.0
  H  H1039  1  0.171500  0.319600  0.492200  1.0
  H  H1040  1  0.983300  0.680400  0.507800  1.0
  H  H1041  1  0.420200  0.890600  0.005600  1.0
  H  H1042  1  0.316400  0.109400  0.994400  1.0
  H  H1043  1  0.175800  0.390600  0.494400  1.0
  H  H1044  1  0.060800  0.609400  0.505600  1.0
  H  H1045  1  0.451400  0.877400  0.980600  1.0
  H  H1046  1  0.309400  0.122600  0.019400  1.0
  H  H1047  1  0.182000  0.377400  0.519400  1.0
  H  H1048  1  0.078800  0.622600  0.480600  1.0
  H  H1049  1  0.533500  0.867000  0.995000  1.0
  H  H1050  1  0.395500  0.133000  0.005000  1.0
  H  H1051  1  0.278500  0.367000  0.505000  1.0
  H  H1052  1  0.150500  0.633000  0.495000  1.0
  H  H1053  1  0.511800  0.849400  0.018800  1.0
  H  H1054  1  0.380000  0.150600  0.981200  1.0
  H  H1055  1  0.280600  0.349400  0.481200  1.0
  H  H1056  1  0.111200  0.650600  0.518800  1.0
  H  H1057  1  0.582800  0.769000  0.005200  1.0
  H  H1058  1  0.357000  0.231000  0.994800  1.0
  H  H1059  1  0.338000  0.269000  0.494800  1.0
  H  H1060  1  0.101800  0.731000  0.505200  1.0
  H  H1061  1  0.573500  0.782200  0.982400  1.0
  H  H1062  1  0.338100  0.217800  0.017600  1.0
  H  H1063  1  0.305900  0.282200  0.517600  1.0
  H  H1064  1  0.105700  0.717800  0.482400  1.0
  H  H1065  1  0.438100  0.242200  0.019600  1.0
  H  H1066  1  0.699900  0.757800  0.980400  1.0
  H  H1067  1  0.207700  0.742200  0.480400  1.0
  H  H1068  1  0.430300  0.257800  0.519600  1.0
  H  H1069  1  0.467700  0.221800  0.997000  1.0
  H  H1070  1  0.686500  0.778200  0.003000  1.0
  H  H1071  1  0.214700  0.721800  0.503000  1.0
  H  H1072  1  0.439500  0.278200  0.497000  1.0
  H  H1073  1  0.488000  0.144200  0.014600  1.0
  H  H1074  1  0.646800  0.855800  0.985400  1.0
  H  H1075  1  0.252600  0.644200  0.485400  1.0
  H  H1076  1  0.382200  0.355800  0.514600  1.0
  H  H1077  1  0.494100  0.167400  0.035600  1.0
  H  H1078  1  0.697100  0.832600  0.964400  1.0
  H  H1079  1  0.279700  0.667400  0.464400  1.0
  H  H1080  1  0.411500  0.332600  0.535600  1.0
  H  H1081  1  0.574400  0.132800  0.995200  1.0
  H  H1082  1  0.702400  0.867200  0.004800  1.0
  H  H1083  1  0.319600  0.632800  0.504800  1.0
  H  H1084  1  0.457200  0.367200  0.495200  1.0
  H  H1085  1  0.585800  0.108800  0.019000  1.0
  H  H1086  1  0.713600  0.891200  0.981000  1.0
  H  H1087  1  0.354800  0.608800  0.481000  1.0
  H  H1088  1  0.444600  0.391200  0.519000  1.0
  H  H1089  1  0.616300  0.177800  0.003000  1.0
  H  H1090  1  0.797100  0.822200  0.997000  1.0
  H  H1091  1  0.369300  0.677800  0.497000  1.0
  H  H1092  1  0.544100  0.322200  0.503000  1.0
  H  H1093  1  0.594300  0.179600  0.027000  1.0
  H  H1094  1  0.800900  0.820400  0.973000  1.0
  H  H1095  1  0.371300  0.679600  0.473000  1.0
  H  H1096  1  0.523900  0.320400  0.527000  1.0
  H  H1097  1  0.169300  0.605800  0.049000  1.0
  H  H1098  1  0.824100  0.394200  0.951000  1.0
  H  H1099  1  0.968300  0.105800  0.451000  1.0
  H  H1100  1  0.525100  0.894200  0.549000  1.0
  H  H1101  1  0.155600  0.608400  0.073200  1.0
  H  H1102  1  0.837200  0.391600  0.926800  1.0
  H  H1103  1  0.978800  0.108400  0.426800  1.0
  H  H1104  1  0.514000  0.891600  0.573200  1.0
  H  H1105  1  0.088900  0.678400  0.049400  1.0
  H  H1106  1  0.816700  0.321600  0.950600  1.0
  H  H1107  1  0.888300  0.178400  0.450600  1.0
  H  H1108  1  0.517300  0.821600  0.549400  1.0
  H  H1109  1  0.084800  0.690000  0.074400  1.0
  H  H1110  1  0.849200  0.310000  0.925600  1.0
  H  H1111  1  0.909200  0.190000  0.425600  1.0
  H  H1112  1  0.524800  0.810000  0.574400  1.0
  H  H1113  1  0.095400  0.753400  0.060000  1.0
  H  H1114  1  0.908800  0.246600  0.940000  1.0
  H  H1115  1  0.905400  0.253400  0.440000  1.0
  H  H1116  1  0.598800  0.746600  0.560000  1.0
  H  H1117  1  0.127700  0.723000  0.037400  1.0
  H  H1118  1  0.888100  0.277000  0.962600  1.0
  H  H1119  1  0.915100  0.223000  0.462600  1.0
  H  H1120  1  0.600700  0.777000  0.537400  1.0
  H  H1121  1  0.181400  0.730600  0.070000  1.0
  H  H1122  1  0.982000  0.269400  0.930000  1.0
  H  H1123  1  0.001400  0.230600  0.430000  1.0
  H  H1124  1  0.662000  0.769400  0.570000  1.0
  H  H1125  1  0.204600  0.724800  0.045800  1.0
  H  H1126  1  0.975200  0.275200  0.954200  1.0
  H  H1127  1  0.000400  0.224800  0.454200  1.0
  H  H1128  1  0.679400  0.775200  0.545800  1.0
  H  H1129  1  0.309700  0.649400  0.732600  1.0
  H  H1130  1  0.691700  0.350600  0.267400  1.0
  H  H1131  1  0.792300  0.149400  0.767400  1.0
  H  H1132  1  0.709100  0.850600  0.232600  1.0
  H  H1133  1  0.328800  0.655000  0.709000  1.0
  H  H1134  1  0.692800  0.345000  0.291000  1.0
  H  H1135  1  0.787800  0.155000  0.791000  1.0
  H  H1136  1  0.733800  0.845000  0.209000  1.0
  H  H1137  1  0.265200  0.644600  0.701800  1.0
  H  H1138  1  0.611600  0.355400  0.298200  1.0
  H  H1139  1  0.717000  0.144600  0.798200  1.0
  H  H1140  1  0.659800  0.855400  0.201800  1.0
  H  H1141  1  0.247100  0.634800  0.727200  1.0
  H  H1142  1  0.609100  0.365200  0.272800  1.0
  H  H1143  1  0.724300  0.134800  0.772800  1.0
  H  H1144  1  0.631900  0.865200  0.227200  1.0
  H  H1145  1  0.276400  0.541600  0.715800  1.0
  H  H1146  1  0.533800  0.458400  0.284200  1.0
  H  H1147  1  0.742200  0.041600  0.784200  1.0
  H  H1148  1  0.568000  0.958400  0.215800  1.0
  H  H1149  1  0.314700  0.546000  0.693400  1.0
  H  H1150  1  0.554100  0.454000  0.306600  1.0
  H  H1151  1  0.758100  0.046000  0.806600  1.0
  H  H1152  1  0.610700  0.954000  0.193400  1.0
  H  H1153  1  0.382600  0.489800  0.711000  1.0
  H  H1154  1  0.583400  0.510200  0.289000  1.0
  H  H1155  1  0.843600  0.989800  0.789000  1.0
  H  H1156  1  0.622400  0.010200  0.211000  1.0
  H  H1157  1  0.347900  0.510000  0.733000  1.0
  H  H1158  1  0.590900  0.490000  0.267000  1.0
  H  H1159  1  0.830900  0.010000  0.767000  1.0
  H  H1160  1  0.607900  0.990000  0.233000  1.0
  H  H1161  1  0.830000  0.145400  0.653800  1.0
  H  H1162  1  0.629200  0.854600  0.346200  1.0
  H  H1163  1  0.233800  0.645400  0.846200  1.0
  H  H1164  1  0.725400  0.354600  0.153800  1.0
  H  H1165  1  0.829700  0.148000  0.677400  1.0
  H  H1166  1  0.655100  0.852000  0.322600  1.0
  H  H1167  1  0.257100  0.648000  0.822600  1.0
  H  H1168  1  0.727700  0.352000  0.177400  1.0
  H  H1169  1  0.763800  0.124400  0.688800  1.0
  H  H1170  1  0.577000  0.875600  0.311200  1.0
  H  H1171  1  0.202600  0.624400  0.811200  1.0
  H  H1172  1  0.638200  0.375600  0.188800  1.0
  H  H1173  1  0.797900  0.089000  0.667000  1.0
  H  H1174  1  0.553900  0.911000  0.333000  1.0
  H  H1175  1  0.214900  0.589000  0.833000  1.0
  H  H1176  1  0.636900  0.411000  0.167000  1.0
  H  H1177  1  0.695500  0.141600  0.669000  1.0
  H  H1178  1  0.506100  0.858400  0.331000  1.0
  H  H1179  1  0.114500  0.641600  0.831000  1.0
  H  H1180  1  0.587100  0.358400  0.169000  1.0
  H  H1181  1  0.732200  0.150600  0.646800  1.0
  H  H1182  1  0.529600  0.849400  0.353200  1.0
  H  H1183  1  0.129000  0.650600  0.853200  1.0
  H  H1184  1  0.632800  0.349400  0.146800  1.0
  H  H1185  1  0.668800  0.224600  0.681200  1.0
  H  H1186  1  0.574600  0.775400  0.318800  1.0
  H  H1187  1  0.100000  0.724600  0.818800  1.0
  H  H1188  1  0.643400  0.275400  0.181200  1.0
  H  H1189  1  0.670900  0.237000  0.657600  1.0
  H  H1190  1  0.565500  0.763000  0.342400  1.0
  H  H1191  1  0.078500  0.737000  0.842400  1.0
  H  H1192  1  0.657900  0.263000  0.157600  1.0
  H  H1193  1  0.020900  0.308800  0.732400  1.0
  H  H1194  1  0.062100  0.691200  0.267600  1.0
  H  H1195  1  0.503300  0.808800  0.767600  1.0
  H  H1196  1  0.079700  0.191200  0.232400  1.0
  H  H1197  1  0.025800  0.325400  0.709200  1.0
  H  H1198  1  0.060400  0.674600  0.290800  1.0
  H  H1199  1  0.485000  0.825400  0.790800  1.0
  H  H1200  1  0.101200  0.174600  0.209200  1.0
  H  H1201  1  0.093100  0.335000  0.714000  1.0
  H  H1202  1  0.142100  0.665000  0.286000  1.0
  H  H1203  1  0.557100  0.835000  0.786000  1.0
  H  H1204  1  0.178100  0.165000  0.214000  1.0
  H  H1205  1  0.070500  0.340000  0.739800  1.0
  H  H1206  1  0.150300  0.660000  0.260200  1.0
  H  H1207  1  0.560300  0.840000  0.760200  1.0
  H  H1208  1  0.160500  0.160000  0.239800  1.0
  H  H1209  1  0.043900  0.437600  0.733800  1.0
  H  H1210  1  0.215300  0.562400  0.266200  1.0
  H  H1211  1  0.527700  0.937600  0.766200  1.0
  H  H1212  1  0.231500  0.062400  0.233800  1.0
  H  H1213  1  0.041500  0.435200  0.708600  1.0
  H  H1214  1  0.185300  0.564800  0.291400  1.0
  H  H1215  1  0.500100  0.935200  0.791400  1.0
  H  H1216  1  0.226700  0.064800  0.208600  1.0
  H  H1217  1  0.950600  0.477600  0.720000  1.0
  H  H1218  1  0.148200  0.522400  0.280000  1.0
  H  H1219  1  0.420600  0.977600  0.780000  1.0
  H  H1220  1  0.178200  0.022400  0.220000  1.0
  H  H1221  1  0.954300  0.464600  0.743200  1.0
  H  H1222  1  0.162100  0.535400  0.256800  1.0
  H  H1223  1  0.447500  0.964600  0.756800  1.0
  H  H1224  1  0.168900  0.035400  0.243200  1.0
  H  H1225  1  0.479100  0.491600  0.574800  1.0
  H  H1226  1  0.545500  0.508400  0.425200  1.0
  H  H1227  1  0.803900  0.991600  0.925200  1.0
  H  H1228  1  0.720700  0.008400  0.074800  1.0
  H  H1229  1  0.491100  0.466800  0.596400  1.0
  H  H1230  1  0.554300  0.533200  0.403600  1.0
  H  H1231  1  0.837500  0.966800  0.903600  1.0
  H  H1232  1  0.707900  0.033200  0.096400  1.0
  H  H1233  1  0.405700  0.527400  0.614600  1.0
  H  H1234  1  0.547700  0.472600  0.385400  1.0
  H  H1235  1  0.770300  0.027400  0.885400  1.0
  H  H1236  1  0.683100  0.972600  0.114600  1.0
  H  H1237  1  0.393400  0.508200  0.594200  1.0
  H  H1238  1  0.495800  0.491800  0.405800  1.0
  H  H1239  1  0.737600  0.008200  0.905800  1.0
  H  H1240  1  0.651600  0.991800  0.094200  1.0
  H  H1241  1  0.381000  0.584600  0.575000  1.0
  H  H1242  1  0.540600  0.415400  0.425000  1.0
  H  H1243  1  0.706000  0.084600  0.925000  1.0
  H  H1244  1  0.715600  0.915400  0.075000  1.0
  H  H1245  1  0.349000  0.606600  0.599200  1.0
  H  H1246  1  0.554800  0.393400  0.400800  1.0
  H  H1247  1  0.698200  0.106600  0.900800  1.0
  H  H1248  1  0.705600  0.893400  0.099200  1.0
  H  H1249  1  0.405200  0.633400  0.601400  1.0
  H  H1250  1  0.640000  0.366600  0.398600  1.0
  H  H1251  1  0.756600  0.133400  0.898600  1.0
  H  H1252  1  0.788600  0.866600  0.101400  1.0
  H  H1253  1  0.422900  0.627200  0.577200  1.0
  H  H1254  1  0.627300  0.372800  0.422800  1.0
  H  H1255  1  0.750100  0.127200  0.922800  1.0
  H  H1256  1  0.800100  0.872800  0.077200  1.0
  H  H1257  1  0.602400  0.799000  0.644000  1.0
  H  H1258  1  0.045400  0.201000  0.356000  1.0
  H  H1259  1  0.996400  0.299000  0.856000  1.0
  H  H1260  1  0.151400  0.701000  0.144000  1.0
  H  H1261  1  0.575900  0.810400  0.667400  1.0
  H  H1262  1  0.053700  0.189600  0.332600  1.0
  H  H1263  1  0.993300  0.310400  0.832600  1.0
  H  H1264  1  0.136300  0.689600  0.167400  1.0
  H  H1265  1  0.635800  0.833800  0.674400  1.0
  H  H1266  1  0.144000  0.166200  0.325600  1.0
  H  H1267  1  0.060200  0.333800  0.825600  1.0
  H  H1268  1  0.219600  0.666200  0.174400  1.0
  H  H1269  1  0.629300  0.856800  0.650200  1.0
  H  H1270  1  0.136300  0.143200  0.349800  1.0
  H  H1271  1  0.029500  0.356800  0.849800  1.0
  H  H1272  1  0.236100  0.643200  0.150200  1.0
  H  H1273  1  0.728000  0.800400  0.653800  1.0
  H  H1274  1  0.182200  0.199600  0.346200  1.0
  H  H1275  1  0.131800  0.300400  0.846200  1.0
  H  H1276  1  0.278400  0.699600  0.153800  1.0
  H  H1277  1  0.712100  0.778800  0.635200  1.0
  H  H1278  1  0.126100  0.221200  0.364800  1.0
  H  H1279  1  0.097300  0.278800  0.864800  1.0
  H  H1280  1  0.240900  0.721200  0.135200  1.0
  H  H1281  1  0.723100  0.734400  0.677200  1.0
  H  H1282  1  0.134700  0.265600  0.322800  1.0
  H  H1283  1  0.150300  0.234400  0.822800  1.0
  H  H1284  1  0.207500  0.765600  0.177200  1.0
  H  H1285  1  0.752500  0.703600  0.656400  1.0
  H  H1286  1  0.112500  0.296400  0.343600  1.0
  H  H1287  1  0.158900  0.203600  0.843600  1.0
  H  H1288  1  0.206100  0.796400  0.156400  1.0
  H  H1289  1  0.087400  0.312000  0.607600  1.0
  H  H1290  1  0.007000  0.688000  0.392400  1.0
  H  H1291  1  0.445000  0.812000  0.892400  1.0
  H  H1292  1  0.149400  0.188000  0.107600  1.0
  H  H1293  1  0.090700  0.335600  0.585400  1.0
  H  H1294  1  0.011700  0.664400  0.414600  1.0
  H  H1295  1  0.426100  0.835600  0.914600  1.0
  H  H1296  1  0.176300  0.164400  0.085400  1.0
  H  H1297  1  0.148000  0.352600  0.598200  1.0
  H  H1298  1  0.098800  0.647400  0.401800  1.0
  H  H1299  1  0.496200  0.852600  0.901800  1.0
  H  H1300  1  0.250600  0.147400  0.098200  1.0
  H  H1301  1  0.108300  0.365600  0.622000  1.0
  H  H1302  1  0.095900  0.634400  0.378000  1.0
  H  H1303  1  0.480300  0.865600  0.878000  1.0
  H  H1304  1  0.223900  0.134400  0.122000  1.0
  H  H1305  1  0.087900  0.432600  0.584600  1.0
  H  H1306  1  0.105100  0.567400  0.415400  1.0
  H  H1307  1  0.422500  0.932600  0.915400  1.0
  H  H1308  1  0.270500  0.067400  0.084600  1.0
  H  H1309  1  0.092300  0.448000  0.607600  1.0
  H  H1310  1  0.147900  0.552000  0.392400  1.0
  H  H1311  1  0.449900  0.948000  0.892400  1.0
  H  H1312  1  0.290300  0.052000  0.107600  1.0
  H  H1313  1  0.996300  0.478600  0.600000  1.0
  H  H1314  1  0.074900  0.521400  0.400000  1.0
  H  H1315  1  0.346300  0.978600  0.900000  1.0
  H  H1316  1  0.224900  0.021400  0.100000  1.0
  H  H1317  1  0.005500  0.460800  0.622600  1.0
  H  H1318  1  0.088900  0.539200  0.377400  1.0
  H  H1319  1  0.378100  0.960800  0.877400  1.0
  H  H1320  1  0.216300  0.039200  0.122600  1.0
  H  H1321  1  0.412900  0.653400  0.157600  1.0
  H  H1322  1  0.223900  0.346600  0.842400  1.0
  H  H1323  1  0.320500  0.153400  0.342400  1.0
  H  H1324  1  0.816300  0.846600  0.657600  1.0
  H  H1325  1  0.379400  0.593600  0.153800  1.0
  H  H1326  1  0.126800  0.406400  0.846200  1.0
  H  H1327  1  0.283200  0.093600  0.346200  1.0
  H  H1328  1  0.723000  0.906400  0.653800  1.0
  H  H1329  1  0.352700  0.591200  0.121400  1.0
  H  H1330  1  0.065300  0.408800  0.878600  1.0
  H  H1331  1  0.224100  0.091200  0.378600  1.0
  H  H1332  1  0.693900  0.908800  0.621400  1.0
  H  H1333  1  0.393400  0.708200  0.096200  1.0
  H  H1334  1  0.197800  0.291800  0.903800  1.0
  H  H1335  1  0.239600  0.208200  0.403800  1.0
  H  H1336  1  0.851600  0.791800  0.596200  1.0
  H  H1337  1  0.289300  0.637000  0.095800  1.0
  H  H1338  1  0.022100  0.363000  0.904200  1.0
  H  H1339  1  0.135100  0.137000  0.404200  1.0
  H  H1340  1  0.676300  0.863000  0.595800  1.0
  H  H1341  1  0.325500  0.632800  0.029800  1.0
  H  H1342  1  0.988100  0.367200  0.970200  1.0
  H  H1343  1  0.105300  0.132800  0.470200  1.0
  H  H1344  1  0.708300  0.867200  0.529800  1.0
  H  H1345  1  0.422100  0.656200  0.063000  1.0
  H  H1346  1  0.141300  0.343800  0.937000  1.0
  H  H1347  1  0.235100  0.156200  0.437000  1.0
  H  H1348  1  0.828300  0.843800  0.563000  1.0
  H  H1349  1  0.435700  0.706000  0.033000  1.0
  H  H1350  1  0.174700  0.294000  0.967000  1.0
  H  H1351  1  0.218700  0.206000  0.467000  1.0
  H  H1352  1  0.891700  0.794000  0.533000  1.0
  H  H1353  1  0.503200  0.671400  0.971000  1.0
  H  H1354  1  0.145600  0.328600  0.029000  1.0
  H  H1355  1  0.224200  0.171400  0.529000  1.0
  H  H1356  1  0.924600  0.828600  0.471000  1.0
  H  H1357  1  0.391100  0.621000  0.999200  1.0
  H  H1358  1  0.011300  0.379000  0.000800  1.0
  H  H1359  1  0.140300  0.121000  0.500800  1.0
  H  H1360  1  0.762100  0.879000  0.499200  1.0
  H  H1361  1  0.465600  0.581000  0.958200  1.0
  H  H1362  1  0.004800  0.419000  0.041800  1.0
  H  H1363  1  0.173800  0.081000  0.541800  1.0
  H  H1364  1  0.796600  0.919000  0.458200  1.0
  H  H1365  1  0.405700  0.634200  0.956800  1.0
  H  H1366  1  0.996700  0.365800  0.043200  1.0
  H  H1367  1  0.112500  0.134200  0.543200  1.0
  H  H1368  1  0.789900  0.865800  0.456800  1.0
  H  H1369  1  0.492800  0.698200  0.909600  1.0
  H  H1370  1  0.100600  0.301800  0.090400  1.0
  H  H1371  1  0.152400  0.198200  0.590400  1.0
  H  H1372  1  0.941000  0.801800  0.409600  1.0
  H  H1373  1  0.490300  0.697000  0.872600  1.0
  H  H1374  1  0.059900  0.303000  0.127400  1.0
  H  H1375  1  0.112900  0.197000  0.627400  1.0
  H  H1376  1  0.937300  0.803000  0.372600  1.0
  H  H1377  1  0.436200  0.585200  0.885600  1.0
  H  H1378  1  0.907000  0.414800  0.114400  1.0
  H  H1379  1  0.071800  0.085200  0.614400  1.0
  H  H1380  1  0.771400  0.914800  0.385600  1.0
  H  H1381  1  0.438900  0.586200  0.922400  1.0
  H  H1382  1  0.947500  0.413800  0.077600  1.0
  H  H1383  1  0.111300  0.086200  0.577600  1.0
  H  H1384  1  0.775100  0.913800  0.422400  1.0
  H  H1385  1  0.519300  0.665000  0.836600  1.0
  H  H1386  1  0.020900  0.335000  0.163400  1.0
  H  H1387  1  0.105900  0.165000  0.663400  1.0
  H  H1388  1  0.934300  0.835000  0.336600  1.0
  H  H1389  1  0.507600  0.671800  0.800600  1.0
  H  H1390  1  0.980000  0.328200  0.199400  1.0
  H  H1391  1  0.058200  0.171800  0.699400  1.0
  H  H1392  1  0.929400  0.828200  0.300600  1.0
  H  H1393  1  0.383500  0.630200  0.819400  1.0
  H  H1394  1  0.833100  0.369800  0.180600  1.0
  H  H1395  1  0.952900  0.130200  0.680600  1.0
  H  H1396  1  0.763700  0.869800  0.319400  1.0
  H  H1397  1  0.395200  0.623400  0.855400  1.0
  H  H1398  1  0.874000  0.376600  0.144600  1.0
  H  H1399  1  0.000600  0.123400  0.644600  1.0
  H  H1400  1  0.768600  0.876600  0.355400  1.0
  H  H1401  1  0.511800  0.646000  0.768600  1.0
  H  H1402  1  0.926400  0.354000  0.231400  1.0
  H  H1403  1  0.030400  0.146000  0.731400  1.0
  H  H1404  1  0.907800  0.854000  0.268600  1.0
  H  H1405  1  0.461900  0.706800  0.768000  1.0
  H  H1406  1  0.936700  0.293200  0.232000  1.0
  H  H1407  1  0.979900  0.206800  0.732000  1.0
  H  H1408  1  0.918700  0.793200  0.268000  1.0
  H  H1409  1  0.410100  0.626400  0.758400  1.0
  H  H1410  1  0.794900  0.373600  0.241600  1.0
  H  H1411  1  0.918500  0.126400  0.741600  1.0
  H  H1412  1  0.786500  0.873600  0.258400  1.0
  H  H1413  1  0.459300  0.616400  0.691400  1.0
  H  H1414  1  0.767100  0.383600  0.308600  1.0
  H  H1415  1  0.900700  0.116400  0.808600  1.0
  H  H1416  1  0.825700  0.883600  0.191400  1.0
  H  H1417  1  0.497500  0.707400  0.726200  1.0
  H  H1418  1  0.931100  0.292600  0.273800  1.0
  H  H1419  1  0.973700  0.207400  0.773800  1.0
  H  H1420  1  0.954900  0.792600  0.226200  1.0
  H  H1421  1  0.570800  0.692000  0.696000  1.0
  H  H1422  1  0.958800  0.308000  0.304000  1.0
  H  H1423  1  0.016800  0.192000  0.804000  1.0
  H  H1424  1  0.012800  0.808000  0.196000  1.0
  H  H1425  1  0.599300  0.698000  0.630000  1.0
  H  H1426  1  0.927300  0.302000  0.370000  1.0
  H  H1427  1  0.979300  0.198000  0.870000  1.0
  H  H1428  1  0.047300  0.802000  0.130000  1.0
  H  H1429  1  0.479200  0.660400  0.663200  1.0
  H  H1430  1  0.802800  0.339600  0.336800  1.0
  H  H1431  1  0.892400  0.160400  0.836800  1.0
  H  H1432  1  0.889600  0.839600  0.163200  1.0
  H  H1433  1  0.512500  0.607200  0.629200  1.0
  H  H1434  1  0.748900  0.392800  0.370800  1.0
  H  H1435  1  0.891700  0.107200  0.870800  1.0
  H  H1436  1  0.869700  0.892800  0.129200  1.0
  H  H1437  1  0.505700  0.646400  0.565800  1.0
  H  H1438  1  0.717900  0.353600  0.434200  1.0
  H  H1439  1  0.821500  0.146400  0.934200  1.0
  H  H1440  1  0.902100  0.853600  0.065800  1.0
  H  H1441  1  0.525500  0.716400  0.569200  1.0
  H  H1442  1  0.811100  0.283600  0.430800  1.0
  H  H1443  1  0.844700  0.216400  0.930800  1.0
  H  H1444  1  0.991900  0.783600  0.069200  1.0
  H  H1445  1  0.538700  0.732000  0.602800  1.0
  H  H1446  1  0.873500  0.268000  0.397200  1.0
  H  H1447  1  0.891500  0.232000  0.897200  1.0
  H  H1448  1  0.020700  0.768000  0.102800  1.0
  H  H1449  1  0.525100  0.673200  0.161200  1.0
  H  H1450  1  0.359500  0.326800  0.838800  1.0
  H  H1451  1  0.436300  0.173200  0.338800  1.0
  H  H1452  1  0.948300  0.826800  0.661200  1.0
  H  H1453  1  0.615100  0.597800  0.158800  1.0
  H  H1454  1  0.371700  0.402200  0.841200  1.0
  H  H1455  1  0.523900  0.097800  0.341200  1.0
  H  H1456  1  0.962900  0.902200  0.658800  1.0
  H  H1457  1  0.663900  0.552800  0.125400  1.0
  H  H1458  1  0.342100  0.447200  0.874600  1.0
  H  H1459  1  0.539300  0.052800  0.374600  1.0
  H  H1460  1  0.966700  0.947200  0.625400  1.0
  H  H1461  1  0.532700  0.658600  0.097000  1.0
  H  H1462  1  0.288300  0.341400  0.903000  1.0
  H  H1463  1  0.379700  0.158600  0.403000  1.0
  H  H1464  1  0.941300  0.841400  0.597000  1.0
  H  H1465  1  0.665200  0.487400  0.100200  1.0
  H  H1466  1  0.252800  0.512600  0.899800  1.0
  H  H1467  1  0.515400  0.987400  0.399800  1.0
  H  H1468  1  0.902600  0.012600  0.600200  1.0
  H  H1469  1  0.699900  0.484400  0.034400  1.0
  H  H1470  1  0.218700  0.515600  0.965600  1.0
  H  H1471  1  0.484300  0.984400  0.465600  1.0
  H  H1472  1  0.934300  0.015600  0.534400  1.0
  H  H1473  1  0.612700  0.628400  0.066200  1.0
  H  H1474  1  0.307300  0.371600  0.933800  1.0
  H  H1475  1  0.428900  0.128400  0.433800  1.0
  H  H1476  1  0.991100  0.871600  0.566200  1.0
  H  H1477  1  0.572500  0.663400  0.034800  1.0
  H  H1478  1  0.270700  0.336600  0.965200  1.0
  H  H1479  1  0.357300  0.163400  0.465200  1.0
  H  H1480  1  0.985900  0.836600  0.534800  1.0
  H  H1481  1  0.610500  0.662200  0.969000  1.0
  H  H1482  1  0.241700  0.337800  0.031000  1.0
  H  H1483  1  0.329500  0.162200  0.531000  1.0
  H  H1484  1  0.022700  0.837800  0.469000  1.0
  H  H1485  1  0.705800  0.531400  0.003000  1.0
  H  H1486  1  0.240200  0.468600  0.997000  1.0
  H  H1487  1  0.458800  0.031400  0.497000  1.0
  H  H1488  1  0.987200  0.968600  0.503000  1.0
  H  H1489  1  0.711400  0.586000  0.950000  1.0
  H  H1490  1  0.247400  0.414000  0.050000  1.0
  H  H1491  1  0.411400  0.086000  0.550000  1.0
  H  H1492  1  0.047400  0.914000  0.450000  1.0
  H  H1493  1  0.728600  0.527400  0.961200  1.0
  H  H1494  1  0.217200  0.472600  0.038800  1.0
  H  H1495  1  0.439800  0.027400  0.538800  1.0
  H  H1496  1  0.006000  0.972600  0.461200  1.0
  H  H1497  1  0.753400  0.502800  0.920800  1.0
  H  H1498  1  0.177000  0.497200  0.079200  1.0
  H  H1499  1  0.424200  0.002800  0.579200  1.0
  H  H1500  1  0.006200  0.997200  0.420800  1.0
  H  H1501  1  0.764900  0.483600  0.884400  1.0
  H  H1502  1  0.132900  0.516400  0.115600  1.0
  H  H1503  1  0.399300  0.983600  0.615600  1.0
  H  H1504  1  0.998500  0.016400  0.384400  1.0
  H  H1505  1  0.595200  0.567000  0.888600  1.0
  H  H1506  1  0.050800  0.433000  0.111400  1.0
  H  H1507  1  0.233800  0.067000  0.611400  1.0
  H  H1508  1  0.912200  0.933000  0.388600  1.0
  H  H1509  1  0.583600  0.586000  0.925200  1.0
  H  H1510  1  0.094800  0.414000  0.074800  1.0
  H  H1511  1  0.258800  0.086000  0.574800  1.0
  H  H1512  1  0.919600  0.914000  0.425200  1.0
  H  H1513  1  0.752900  0.436600  0.856200  1.0
  H  H1514  1  0.045700  0.563400  0.143800  1.0
  H  H1515  1  0.359100  0.936600  0.643800  1.0
  H  H1516  1  0.939500  0.063400  0.356200  1.0
  H  H1517  1  0.769600  0.425600  0.818600  1.0
  H  H1518  1  0.013800  0.574400  0.181400  1.0
  H  H1519  1  0.338200  0.925600  0.681400  1.0
  H  H1520  1  0.945200  0.074400  0.318600  1.0
  H  H1521  1  0.648900  0.581400  0.813000  1.0
  H  H1522  1  0.043300  0.418600  0.187000  1.0
  H  H1523  1  0.211900  0.081400  0.687000  1.0
  H  H1524  1  0.980300  0.918600  0.313000  1.0
  H  H1525  1  0.632100  0.592400  0.850800  1.0
  H  H1526  1  0.075300  0.407600  0.149200  1.0
  H  H1527  1  0.232900  0.092400  0.649200  1.0
  H  H1528  1  0.974500  0.907600  0.350800  1.0
  H  H1529  1  0.713700  0.565200  0.778800  1.0
  H  H1530  1  0.057700  0.434800  0.221200  1.0
  H  H1531  1  0.242500  0.065200  0.721200  1.0
  H  H1532  1  0.028900  0.934800  0.278800  1.0
  H  H1533  1  0.675900  0.546800  0.769600  1.0
  H  H1534  1  0.992300  0.453200  0.230400  1.0
  H  H1535  1  0.195500  0.046800  0.730400  1.0
  H  H1536  1  0.972700  0.953200  0.269600  1.0
  H  H1537  1  0.821800  0.462200  0.764000  1.0
  H  H1538  1  0.048000  0.537800  0.236000  1.0
  H  H1539  1  0.335800  0.962200  0.736000  1.0
  H  H1540  1  0.034000  0.037800  0.264000  1.0
  H  H1541  1  0.863100  0.478400  0.698800  1.0
  H  H1542  1  0.040300  0.521600  0.301200  1.0
  H  H1543  1  0.311900  0.978400  0.801200  1.0
  H  H1544  1  0.091500  0.021600  0.198800  1.0
  H  H1545  1  0.702900  0.571800  0.730800  1.0
  H  H1546  1  0.005500  0.428200  0.269200  1.0
  H  H1547  1  0.183700  0.071800  0.769200  1.0
  H  H1548  1  0.024700  0.928200  0.230800  1.0
  H  H1549  1  0.704800  0.627200  0.699800  1.0
  H  H1550  1  0.031800  0.372800  0.300200  1.0
  H  H1551  1  0.154600  0.127200  0.800200  1.0
  H  H1552  1  0.082000  0.872800  0.199800  1.0
  H  H1553  1  0.735500  0.617200  0.634000  1.0
  H  H1554  1  0.986700  0.382800  0.366000  1.0
  H  H1555  1  0.119500  0.117200  0.866000  1.0
  H  H1556  1  0.102700  0.882800  0.134000  1.0
  H  H1557  1  0.825200  0.486600  0.669400  1.0
  H  H1558  1  0.981200  0.513400  0.330600  1.0
  H  H1559  1  0.244600  0.986600  0.830600  1.0
  H  H1560  1  0.061800  0.013400  0.169400  1.0
  H  H1561  1  0.905200  0.465400  0.634600  1.0
  H  H1562  1  0.005200  0.534600  0.365400  1.0
  H  H1563  1  0.289800  0.965400  0.865400  1.0
  H  H1564  1  0.120600  0.034600  0.134600  1.0
  H  H1565  1  0.904300  0.439800  0.572600  1.0
  H  H1566  1  0.916700  0.560200  0.427400  1.0
  H  H1567  1  0.226900  0.939800  0.927400  1.0
  H  H1568  1  0.094100  0.060200  0.072600  1.0
  H  H1569  1  0.808300  0.504200  0.577400  1.0
  H  H1570  1  0.889900  0.495800  0.422600  1.0
  H  H1571  1  0.135700  0.004200  0.922600  1.0
  H  H1572  1  0.062500  0.995800  0.077400  1.0
  H  H1573  1  0.760800  0.549200  0.610800  1.0
  H  H1574  1  0.920800  0.450800  0.389200  1.0
  H  H1575  1  0.121600  0.049200  0.889200  1.0
  H  H1576  1  0.060000  0.950800  0.110800  1.0
  H  H1577  1  0.430500  0.406400  0.164000  1.0
  H  H1578  1  0.000900  0.593600  0.836000  1.0
  H  H1579  1  0.344500  0.906400  0.336000  1.0
  H  H1580  1  0.586900  0.093600  0.664000  1.0
  H  H1581  1  0.471800  0.463000  0.156200  1.0
  H  H1582  1  0.091000  0.537000  0.843800  1.0
  H  H1583  1  0.378000  0.963000  0.343800  1.0
  H  H1584  1  0.684800  0.037000  0.656200  1.0
  H  H1585  1  0.538100  0.451000  0.124200  1.0
  H  H1586  1  0.113300  0.549000  0.875800  1.0
  H  H1587  1  0.412300  0.951000  0.375800  1.0
  H  H1588  1  0.739100  0.049000  0.624200  1.0
  H  H1589  1  0.522200  0.325400  0.107400  1.0
  H  H1590  1  0.955000  0.674600  0.892600  1.0
  H  H1591  1  0.379600  0.825400  0.392600  1.0
  H  H1592  1  0.597600  0.174600  0.607400  1.0
  H  H1593  1  0.629100  0.397200  0.101600  1.0
  H  H1594  1  0.127900  0.602800  0.898400  1.0
  H  H1595  1  0.480700  0.897200  0.398400  1.0
  H  H1596  1  0.776300  0.102800  0.601600  1.0
  H  H1597  1  0.678700  0.370000  0.036600  1.0
  H  H1598  1  0.085300  0.630000  0.963400  1.0
  H  H1599  1  0.465300  0.870000  0.463400  1.0
  H  H1600  1  0.798700  0.130000  0.536600  1.0
  H  H1601  1  0.547200  0.349800  0.070000  1.0
  H  H1602  1  0.967000  0.650200  0.930000  1.0
  H  H1603  1  0.367200  0.849800  0.430000  1.0
  H  H1604  1  0.647000  0.150200  0.570000  1.0
  H  H1605  1  0.555300  0.309200  0.042400  1.0
  H  H1606  1  0.906900  0.690800  0.957600  1.0
  H  H1607  1  0.347700  0.809200  0.457600  1.0
  H  H1608  1  0.614500  0.190800  0.542400  1.0
  H  H1609  1  0.596400  0.290400  0.977000  1.0
  H  H1610  1  0.863800  0.709600  0.023000  1.0
  H  H1611  1  0.323400  0.790400  0.523000  1.0
  H  H1612  1  0.636800  0.209600  0.477000  1.0
  H  H1613  1  0.658200  0.364200  0.006400  1.0
  H  H1614  1  0.028800  0.635800  0.993600  1.0
  H  H1615  1  0.414600  0.864200  0.493600  1.0
  H  H1616  1  0.772400  0.135800  0.506400  1.0
  H  H1617  1  0.708900  0.308600  0.971200  1.0
  H  H1618  1  0.988700  0.691400  0.028800  1.0
  H  H1619  1  0.430100  0.808600  0.528800  1.0
  H  H1620  1  0.767500  0.191400  0.471200  1.0
  H  H1621  1  0.660400  0.365200  0.964000  1.0
  H  H1622  1  0.989600  0.634800  0.036000  1.0
  H  H1623  1  0.374400  0.865200  0.536000  1.0
  H  H1624  1  0.775600  0.134800  0.464000  1.0
  H  H1625  1  0.686700  0.238800  0.918400  1.0
  H  H1626  1  0.843900  0.761200  0.081600  1.0
  H  H1627  1  0.355100  0.738800  0.581600  1.0
  H  H1628  1  0.675500  0.261200  0.418400  1.0
  H  H1629  1  0.733100  0.234000  0.882200  1.0
  H  H1630  1  0.849300  0.766000  0.117800  1.0
  H  H1631  1  0.365300  0.734000  0.617800  1.0
  H  H1632  1  0.717100  0.266000  0.382200  1.0
  H  H1633  1  0.761100  0.356400  0.893400  1.0
  H  H1634  1  0.010900  0.643600  0.106600  1.0
  H  H1635  1  0.404500  0.856400  0.606600  1.0
  H  H1636  1  0.867500  0.143600  0.393400  1.0
  H  H1637  1  0.714600  0.361200  0.929600  1.0
  H  H1638  1  0.005400  0.638800  0.070400  1.0
  H  H1639  1  0.394200  0.861200  0.570400  1.0
  H  H1640  1  0.825800  0.138800  0.429600  1.0
  H  H1641  1  0.732700  0.265200  0.849600  1.0
  H  H1642  1  0.847500  0.734800  0.150400  1.0
  H  H1643  1  0.332300  0.765200  0.650400  1.0
  H  H1644  1  0.747900  0.234800  0.349600  1.0
  H  H1645  1  0.771400  0.260600  0.812600  1.0
  H  H1646  1  0.844600  0.739400  0.187400  1.0
  H  H1647  1  0.334000  0.760600  0.687400  1.0
  H  H1648  1  0.782000  0.239400  0.312600  1.0
  H  H1649  1  0.869900  0.320000  0.824400  1.0
  H  H1650  1  0.014300  0.680000  0.175600  1.0
  H  H1651  1  0.444300  0.820000  0.675600  1.0
  H  H1652  1  0.939900  0.180000  0.324400  1.0
  H  H1653  1  0.831100  0.324600  0.861600  1.0
  H  H1654  1  0.017300  0.675400  0.138400  1.0
  H  H1655  1  0.442700  0.824600  0.638400  1.0
  H  H1656  1  0.905700  0.175400  0.361600  1.0
  H  H1657  1  0.787600  0.307600  0.776600  1.0
  H  H1658  1  0.871800  0.692400  0.223400  1.0
  H  H1659  1  0.314200  0.807600  0.723400  1.0
  H  H1660  1  0.845200  0.192400  0.276600  1.0
  H  H1661  1  0.838700  0.246800  0.774400  1.0
  H  H1662  1  0.859900  0.753200  0.225600  1.0
  H  H1663  1  0.363100  0.746800  0.725600  1.0
  H  H1664  1  0.835500  0.253200  0.274400  1.0
  H  H1665  1  0.882200  0.342000  0.763200  1.0
  H  H1666  1  0.987400  0.658000  0.236800  1.0
  H  H1667  1  0.395400  0.842000  0.736800  1.0
  H  H1668  1  0.974200  0.158000  0.263200  1.0
  H  H1669  1  0.910300  0.339600  0.697400  1.0
  H  H1670  1  0.947300  0.660400  0.302600  1.0
  H  H1671  1  0.357700  0.839600  0.802600  1.0
  H  H1672  1  0.999900  0.160400  0.197400  1.0
  H  H1673  1  0.831700  0.259400  0.732600  1.0
  H  H1674  1  0.823700  0.740600  0.267400  1.0
  H  H1675  1  0.314300  0.759400  0.767400  1.0
  H  H1676  1  0.841100  0.240600  0.232600  1.0
  H  H1677  1  0.799700  0.263000  0.701200  1.0
  H  H1678  1  0.763900  0.737000  0.298800  1.0
  H  H1679  1  0.250900  0.763000  0.798800  1.0
  H  H1680  1  0.812700  0.237000  0.201200  1.0
  H  H1681  1  0.847500  0.252600  0.635400  1.0
  H  H1682  1  0.735500  0.747400  0.364600  1.0
  H  H1683  1  0.232900  0.752600  0.864600  1.0
  H  H1684  1  0.850100  0.247400  0.135400  1.0
  H  H1685  1  0.933100  0.284600  0.671400  1.0
  H  H1686  1  0.889100  0.715400  0.328600  1.0
  H  H1687  1  0.354500  0.784600  0.828600  1.0
  H  H1688  1  0.967700  0.215400  0.171400  1.0
  H  H1689  1  0.936300  0.340000  0.637800  1.0
  H  H1690  1  0.914100  0.660000  0.362200  1.0
  H  H1691  1  0.324100  0.840000  0.862200  1.0
  H  H1692  1  0.026300  0.160000  0.137800  1.0
  H  H1693  1  0.023900  0.290600  0.576400  1.0
  H  H1694  1  0.890900  0.709400  0.423600  1.0
  H  H1695  1  0.350300  0.790600  0.923600  1.0
  H  H1696  1  0.064500  0.209400  0.076400  1.0
  H  H1697  1  0.001100  0.220200  0.579600  1.0
  H  H1698  1  0.800900  0.779800  0.420400  1.0
  H  H1699  1  0.330700  0.720200  0.920400  1.0
  H  H1700  1  0.971300  0.279800  0.079600  1.0
  H  H1701  1  0.945900  0.209800  0.611800  1.0
  H  H1702  1  0.767500  0.790200  0.388200  1.0
  H  H1703  1  0.307700  0.709800  0.888200  1.0
  H  H1704  1  0.905700  0.290200  0.111800  1.0
  H  H1705  1  0.314400  0.374800  0.165600  1.0
  H  H1706  1  0.854800  0.625200  0.834400  1.0
  H  H1707  1  0.230000  0.874800  0.334400  1.0
  H  H1708  1  0.439200  0.125200  0.665600  1.0
  H  H1709  1  0.229700  0.448200  0.158600  1.0
  H  H1710  1  0.836500  0.551800  0.841400  1.0
  H  H1711  1  0.138300  0.948200  0.341400  1.0
  H  H1712  1  0.427900  0.051800  0.658600  1.0
  H  H1713  1  0.224300  0.484400  0.123400  1.0
  H  H1714  1  0.832100  0.515600  0.876600  1.0
  H  H1715  1  0.097700  0.984400  0.376600  1.0
  H  H1716  1  0.458700  0.015600  0.623400  1.0
  H  H1717  1  0.388300  0.374000  0.102400  1.0
  H  H1718  1  0.864700  0.626000  0.897600  1.0
  H  H1719  1  0.240700  0.874000  0.397600  1.0
  H  H1720  1  0.512300  0.126000  0.602400  1.0
  H  H1721  1  0.254000  0.540000  0.096600  1.0
  H  H1722  1  0.890600  0.460000  0.903400  1.0
  H  H1723  1  0.100600  0.040000  0.403400  1.0
  H  H1724  1  0.544000  0.960000  0.596600  1.0
  H  H1725  1  0.306900  0.526200  0.031000  1.0
  H  H1726  1  0.864100  0.473800  0.969000  1.0
  H  H1727  1  0.087900  0.026200  0.469000  1.0
  H  H1728  1  0.583100  0.973800  0.531000  1.0
  H  H1729  1  0.356800  0.391400  0.069000  1.0
  H  H1730  1  0.817200  0.608600  0.931000  1.0
  H  H1731  1  0.175800  0.891400  0.431000  1.0
  H  H1732  1  0.498200  0.108600  0.569000  1.0
  H  H1733  1  0.423400  0.355000  0.041400  1.0
  H  H1734  1  0.819800  0.645000  0.958600  1.0
  H  H1735  1  0.214800  0.855000  0.458600  1.0
  H  H1736  1  0.528400  0.145000  0.541400  1.0
  H  H1737  1  0.464200  0.332800  0.976000  1.0
  H  H1738  1  0.773000  0.667200  0.024000  1.0
  H  H1739  1  0.190200  0.832800  0.524000  1.0
  H  H1740  1  0.547000  0.167200  0.476000  1.0
  H  H1741  1  0.329700  0.472200  0.002200  1.0
  H  H1742  1  0.804100  0.527800  0.997800  1.0
  H  H1743  1  0.081900  0.972200  0.497800  1.0
  H  H1744  1  0.551900  0.027800  0.502200  1.0
  H  H1745  1  0.415300  0.447000  0.959600  1.0
  H  H1746  1  0.821900  0.553000  0.040400  1.0
  H  H1747  1  0.124900  0.947000  0.540400  1.0
  H  H1748  1  0.612300  0.053000  0.459600  1.0
  H  H1749  1  0.350900  0.459200  0.963600  1.0
  H  H1750  1  0.773700  0.540800  0.036400  1.0
  H  H1751  1  0.064500  0.959200  0.536400  1.0
  H  H1752  1  0.560100  0.040800  0.463600  1.0
  H  H1753  1  0.397400  0.478800  0.925400  1.0
  H  H1754  1  0.801600  0.521200  0.074600  1.0
  H  H1755  1  0.072800  0.978800  0.574600  1.0
  H  H1756  1  0.626200  0.021200  0.425400  1.0
  H  H1757  1  0.424300  0.492600  0.888400  1.0
  H  H1758  1  0.805300  0.507400  0.111600  1.0
  H  H1759  1  0.062700  0.992600  0.611600  1.0
  H  H1760  1  0.666900  0.007400  0.388400  1.0
  H  H1761  1  0.481900  0.333800  0.876600  1.0
  H  H1762  1  0.692300  0.666200  0.123400  1.0
  H  H1763  1  0.108500  0.833800  0.623400  1.0
  H  H1764  1  0.565700  0.166200  0.376600  1.0
  H  H1765  1  0.455000  0.320000  0.913600  1.0
  H  H1766  1  0.688600  0.680000  0.086400  1.0
  H  H1767  1  0.118600  0.820000  0.586400  1.0
  H  H1768  1  0.525000  0.180000  0.413600  1.0
  H  H1769  1  0.438400  0.503600  0.852800  1.0
  H  H1770  1  0.794800  0.496400  0.147200  1.0
  H  H1771  1  0.041200  0.003600  0.647200  1.0
  H  H1772  1  0.692000  0.996400  0.352800  1.0
  H  H1773  1  0.456200  0.513800  0.815000  1.0
  H  H1774  1  0.785000  0.486200  0.185000  1.0
  H  H1775  1  0.021200  0.013800  0.685000  1.0
  H  H1776  1  0.720000  0.986200  0.315000  1.0
  H  H1777  1  0.530700  0.350800  0.807600  1.0
  H  H1778  1  0.689100  0.649200  0.192400  1.0
  H  H1779  1  0.088300  0.850800  0.692400  1.0
  H  H1780  1  0.631500  0.149200  0.307600  1.0
  H  H1781  1  0.512800  0.340600  0.845400  1.0
  H  H1782  1  0.698800  0.659400  0.154600  1.0
  H  H1783  1  0.108200  0.840600  0.654600  1.0
  H  H1784  1  0.603400  0.159400  0.345400  1.0
  H  H1785  1  0.518000  0.384400  0.770800  1.0
  H  H1786  1  0.673200  0.615600  0.229200  1.0
  H  H1787  1  0.038800  0.884400  0.729200  1.0
  H  H1788  1  0.652400  0.115600  0.270800  1.0
  H  H1789  1  0.577500  0.380800  0.770600  1.0
  H  H1790  1  0.728900  0.619200  0.229400  1.0
  H  H1791  1  0.098100  0.880800  0.729400  1.0
  H  H1792  1  0.708300  0.119200  0.270600  1.0
  H  H1793  1  0.458500  0.489800  0.757400  1.0
  H  H1794  1  0.705700  0.510200  0.242600  1.0
  H  H1795  1  0.965900  0.989800  0.742600  1.0
  H  H1796  1  0.698300  0.010200  0.257400  1.0
  H  H1797  1  0.507200  0.490000  0.691800  1.0
  H  H1798  1  0.689000  0.510000  0.308200  1.0
  H  H1799  1  0.949000  0.990000  0.808200  1.0
  H  H1800  1  0.747200  0.010000  0.191800  1.0
  H  H1801  1  0.614200  0.377000  0.728400  1.0
  H  H1802  1  0.719600  0.623000  0.271600  1.0
  H  H1803  1  0.092600  0.877000  0.771600  1.0
  H  H1804  1  0.741200  0.123000  0.228400  1.0
  H  H1805  1  0.658400  0.332400  0.699600  1.0
  H  H1806  1  0.690400  0.667600  0.300400  1.0
  H  H1807  1  0.108000  0.832400  0.800400  1.0
  H  H1808  1  0.740800  0.167600  0.199600  1.0
  H  H1809  1  0.712200  0.329200  0.634200  1.0
  H  H1810  1  0.675600  0.670800  0.365800  1.0
  H  H1811  1  0.096400  0.829200  0.865800  1.0
  H  H1812  1  0.791400  0.170800  0.134200  1.0
  H  H1813  1  0.576300  0.464000  0.663200  1.0
  H  H1814  1  0.703500  0.536000  0.336800  1.0
  H  H1815  1  0.989500  0.964000  0.836800  1.0
  H  H1816  1  0.790300  0.036000  0.163200  1.0
  H  H1817  1  0.553700  0.476800  0.628200  1.0
  H  H1818  1  0.658700  0.523200  0.371800  1.0
  H  H1819  1  0.931900  0.976800  0.871800  1.0
  H  H1820  1  0.780500  0.023200  0.128200  1.0
  H  H1821  1  0.627600  0.510800  0.569800  1.0
  H  H1822  1  0.708200  0.489200  0.430200  1.0
  H  H1823  1  0.947400  0.010800  0.930200  1.0
  H  H1824  1  0.888400  0.989200  0.069800  1.0
  H  H1825  1  0.716800  0.451600  0.578000  1.0
  H  H1826  1  0.746400  0.548400  0.422000  1.0
  H  H1827  1  0.044800  0.951600  0.922000  1.0
  H  H1828  1  0.918400  0.048400  0.078000  1.0
  H  H1829  1  0.724600  0.405000  0.611200  1.0
  H  H1830  1  0.740800  0.595000  0.388800  1.0
  H  H1831  1  0.085800  0.905000  0.888800  1.0
  H  H1832  1  0.879600  0.095000  0.111200  1.0
  H  H1833  1  0.486500  0.446000  0.986800  1.0
  H  H1834  1  0.919300  0.554000  0.013200  1.0
  H  H1835  1  0.223300  0.946000  0.513200  1.0
  H  H1836  1  0.682500  0.054000  0.486800  1.0
  H  H1837  1  0.446600  0.463200  0.028600  1.0
  H  H1838  1  0.938400  0.536800  0.971400  1.0
  H  H1839  1  0.225200  0.963200  0.471400  1.0
  H  H1840  1  0.659800  0.036800  0.528600  1.0
  H  H1841  1  0.413100  0.480200  0.071800  1.0
  H  H1842  1  0.965100  0.519800  0.928200  1.0
  H  H1843  1  0.234900  0.980200  0.428200  1.0
  H  H1844  1  0.643300  0.019800  0.571800  1.0
  H  H1845  1  0.434100  0.496400  0.103200  1.0
  H  H1846  1  0.033700  0.503600  0.896800  1.0
  H  H1847  1  0.287300  0.996400  0.396800  1.0
  H  H1848  1  0.680500  0.003600  0.603200  1.0
  H  H1849  1  0.486800  0.541400  0.099600  1.0
  H  H1850  1  0.127800  0.458600  0.900400  1.0
  H  H1851  1  0.336400  0.041400  0.400400  1.0
  H  H1852  1  0.778200  0.958600  0.599600  1.0
  H  H1853  1  0.540400  0.550400  0.064600  1.0
  H  H1854  1  0.155400  0.449600  0.935400  1.0
  H  H1855  1  0.355000  0.050400  0.435400  1.0
  H  H1856  1  0.840800  0.949600  0.564600  1.0
  H  H1857  1  0.576000  0.532200  0.025000  1.0
  H  H1858  1  0.133200  0.467800  0.975000  1.0
  H  H1859  1  0.351000  0.032200  0.475000  1.0
  H  H1860  1  0.858200  0.967800  0.525000  1.0
  H  H1861  1  0.605100  0.514400  0.981600  1.0
  H  H1862  1  0.101100  0.485600  0.018400  1.0
  H  H1863  1  0.336700  0.014400  0.518400  1.0
  H  H1864  1  0.869500  0.985600  0.481600  1.0
  H  H1865  1  0.584400  0.494600  0.952800  1.0
  H  H1866  1  0.031800  0.505400  0.047200  1.0
  H  H1867  1  0.287200  0.994600  0.547200  1.0
  H  H1868  1  0.829000  0.005400  0.452800  1.0
  H  H1869  1  0.614200  0.384200  0.906200  1.0
  H  H1870  1  0.904600  0.615800  0.093800  1.0
  H  H1871  1  0.270400  0.884200  0.593800  1.0
  H  H1872  1  0.748400  0.115800  0.406200  1.0
  H  H1873  1  0.547800  0.411600  0.907600  1.0
  H  H1874  1  0.867000  0.588400  0.092400  1.0
  H  H1875  1  0.205400  0.911600  0.592400  1.0
  H  H1876  1  0.709400  0.088400  0.407600  1.0
  H  H1877  1  0.613200  0.456200  0.888800  1.0
  H  H1878  1  0.958200  0.543800  0.111200  1.0
  H  H1879  1  0.252000  0.956200  0.611200  1.0
  H  H1880  1  0.819400  0.043800  0.388800  1.0
  H  H1881  1  0.547600  0.480200  0.889200  1.0
  H  H1882  1  0.917000  0.519800  0.110800  1.0
  H  H1883  1  0.186800  0.980200  0.610800  1.0
  H  H1884  1  0.777800  0.019800  0.389200  1.0
  H  H1885  1  0.622900  0.471400  0.853400  1.0
  H  H1886  1  0.947700  0.528600  0.146600  1.0
  H  H1887  1  0.226300  0.971400  0.646600  1.0
  H  H1888  1  0.844300  0.028600  0.353400  1.0
  H  H1889  1  0.562800  0.483000  0.849400  1.0
  H  H1890  1  0.895200  0.517000  0.150600  1.0
  H  H1891  1  0.162200  0.983000  0.650600  1.0
  H  H1892  1  0.795800  0.017000  0.349400  1.0
  H  H1893  1  0.673300  0.395600  0.829000  1.0
  H  H1894  1  0.897900  0.604400  0.171000  1.0
  H  H1895  1  0.252300  0.895600  0.671000  1.0
  H  H1896  1  0.818900  0.104400  0.329000  1.0
  H  H1897  1  0.618200  0.391000  0.829200  1.0
  H  H1898  1  0.838400  0.609000  0.170800  1.0
  H  H1899  1  0.197400  0.891000  0.670800  1.0
  H  H1900  1  0.759200  0.109000  0.329200  1.0
  H  H1901  1  0.713800  0.387400  0.753000  1.0
  H  H1902  1  0.854200  0.612600  0.247000  1.0
  H  H1903  1  0.216800  0.887400  0.747000  1.0
  H  H1904  1  0.851200  0.112600  0.253000  1.0
  H  H1905  1  0.754400  0.381600  0.708800  1.0
  H  H1906  1  0.844800  0.618400  0.291200  1.0
  H  H1907  1  0.213200  0.881600  0.791200  1.0
  H  H1908  1  0.886000  0.118400  0.208800  1.0
  H  H1909  1  0.775500  0.384600  0.670600  1.0
  H  H1910  1  0.830700  0.615400  0.329400  1.0
  H  H1911  1  0.196100  0.884600  0.829400  1.0
  H  H1912  1  0.910100  0.115400  0.170600  1.0
  H  H1913  1  0.782000  0.429200  0.637600  1.0
  H  H1914  1  0.848800  0.570800  0.362400  1.0
  H  H1915  1  0.169600  0.929200  0.862400  1.0
  H  H1916  1  0.961200  0.070800  0.137600  1.0
  H  H1917  1  0.686200  0.514800  0.633400  1.0
  H  H1918  1  0.834400  0.485200  0.366600  1.0
  H  H1919  1  0.069600  0.014800  0.866600  1.0
  H  H1920  1  0.951000  0.985200  0.133400  1.0
  H  H1921  1  0.622500  0.565800  0.666000  1.0
  H  H1922  1  0.854300  0.434200  0.334000  1.0
  H  H1923  1  0.038500  0.065800  0.834000  1.0
  H  H1924  1  0.938300  0.934200  0.166000  1.0
  H  H1925  1  0.596700  0.557200  0.708400  1.0
  H  H1926  1  0.862300  0.442800  0.291600  1.0
  H  H1927  1  0.055100  0.057200  0.791600  1.0
  H  H1928  1  0.903900  0.942800  0.208400  1.0
  H  H1929  1  0.568100  0.560200  0.752000  1.0
  H  H1930  1  0.880300  0.439800  0.248000  1.0
  H  H1931  1  0.070100  0.060200  0.748000  1.0
  H  H1932  1  0.878300  0.939800  0.252000  1.0
  H  H1933  1  0.575900  0.510200  0.783000  1.0
  H  H1934  1  0.869100  0.489800  0.217000  1.0
  H  H1935  1  0.108900  0.010200  0.717000  1.0
  H  H1936  1  0.836100  0.989800  0.283000  1.0
  N  N1937  1  0.785800  0.311400  0.065400  1.0
  N  N1938  1  0.162600  0.688600  0.934600  1.0
  N  N1939  1  0.601200  0.811400  0.434600  1.0
  N  N1940  1  0.847200  0.188600  0.565400  1.0
  N  N1941  1  0.803400  0.396200  0.065800  1.0
  N  N1942  1  0.265400  0.603800  0.934200  1.0
  N  N1943  1  0.619200  0.896200  0.434200  1.0
  N  N1944  1  0.949600  0.103800  0.565800  1.0
  N  N1945  1  0.361400  0.804800  0.133000  1.0
  N  N1946  1  0.299200  0.195200  0.867000  1.0
  N  N1947  1  0.244400  0.304800  0.367000  1.0
  N  N1948  1  0.916200  0.695200  0.633000  1.0
  N  N1949  1  0.468000  0.791600  0.130200  1.0
  N  N1950  1  0.389800  0.208400  0.869800  1.0
  N  N1951  1  0.348200  0.291600  0.369800  1.0
  N  N1952  1  0.009600  0.708400  0.630200  1.0
  N  N1953  1  0.407300  0.251800  0.148000  1.0
  N  N1954  1  0.807100  0.748200  0.852000  1.0
  N  N1955  1  0.305300  0.751800  0.352000  1.0
  N  N1956  1  0.409100  0.248200  0.648000  1.0
  N  N1957  1  0.508200  0.250400  0.148600  1.0
  N  N1958  1  0.907200  0.749600  0.851400  1.0
  N  N1959  1  0.406800  0.750400  0.351400  1.0
  N  N1960  1  0.508600  0.249600  0.648600  1.0
  N  N1961  1  0.443100  0.815000  0.996600  1.0
  N  N1962  1  0.254700  0.185000  0.003400  1.0
  N  N1963  1  0.189700  0.315000  0.503400  1.0
  N  N1964  1  0.008100  0.685000  0.496600  1.0
  N  N1965  1  0.555500  0.784600  0.996800  1.0
  N  N1966  1  0.336900  0.215400  0.003200  1.0
  N  N1967  1  0.302300  0.284600  0.503200  1.0
  N  N1968  1  0.090100  0.715400  0.496800  1.0
  N  N1969  1  0.473000  0.222800  0.010800  1.0
  N  N1970  1  0.706600  0.777200  0.989200  1.0
  N  N1971  1  0.233800  0.722800  0.489200  1.0
  N  N1972  1  0.445800  0.277200  0.510800  1.0
  N  N1973  1  0.584800  0.183600  0.013600  1.0
  N  N1974  1  0.782000  0.816400  0.986400  1.0
  N  N1975  1  0.348400  0.683600  0.486400  1.0
  N  N1976  1  0.518400  0.316400  0.513600  1.0
  N  N1977  1  0.163010  0.626200  0.060780  1.0
  N  N1978  1  0.849990  0.373800  0.939220  1.0
  N  N1979  1  0.973790  0.126200  0.439220  1.0
  N  N1980  1  0.539210  0.873800  0.560780  1.0
  N  N1981  1  0.186600  0.713000  0.057600  1.0
  N  N1982  1  0.957200  0.287000  0.942400  1.0
  N  N1983  1  0.994200  0.213000  0.442400  1.0
  N  N1984  1  0.649600  0.787000  0.557600  1.0
  N  N1985  1  0.322900  0.632000  0.719400  1.0
  N  N1986  1  0.674300  0.368000  0.280600  1.0
  N  N1987  1  0.792300  0.132000  0.780600  1.0
  N  N1988  1  0.704900  0.868000  0.219400  1.0
  N  N1989  1  0.357900  0.520600  0.719200  1.0
  N  N1990  1  0.597700  0.479400  0.280800  1.0
  N  N1991  1  0.827100  0.020600  0.780800  1.0
  N  N1992  1  0.628500  0.979400  0.219200  1.0
  N  N1993  1  0.807100  0.156000  0.667400  1.0
  N  N1994  1  0.630500  0.844000  0.332600  1.0
  N  N1995  1  0.224500  0.656000  0.832600  1.0
  N  N1996  1  0.713100  0.344000  0.167400  1.0
  N  N1997  1  0.692300  0.217400  0.667800  1.0
  N  N1998  1  0.577500  0.782600  0.332200  1.0
  N  N1999  1  0.110100  0.717400  0.832200  1.0
  N  N2000  1  0.659700  0.282600  0.167800  1.0
  N  N2001  1  0.017300  0.337600  0.723200  1.0
  N  N2002  1  0.078100  0.662400  0.276800  1.0
  N  N2003  1  0.490500  0.837600  0.776800  1.0
  N  N2004  1  0.104900  0.162400  0.223200  1.0
  N  N2005  1  0.966100  0.449800  0.729600  1.0
  N  N2006  1  0.145500  0.550200  0.270400  1.0
  N  N2007  1  0.445700  0.949800  0.770400  1.0
  N  N2008  1  0.165900  0.050200  0.229600  1.0
  N  N2009  1  0.472900  0.498800  0.589200  1.0
  N  N2010  1  0.560900  0.501200  0.410800  1.0
  N  N2011  1  0.812100  0.998800  0.910800  1.0
  N  N2012  1  0.721700  0.001200  0.089200  1.0
  N  N2013  1  0.421000  0.608800  0.590000  1.0
  N  N2014  1  0.619800  0.391200  0.410000  1.0
  N  N2015  1  0.761000  0.108800  0.910000  1.0
  N  N2016  1  0.779800  0.891200  0.090000  1.0
  N  N2017  1  0.609800  0.795200  0.657800  1.0
  N  N2018  1  0.062800  0.204800  0.342200  1.0
  N  N2019  1  0.017600  0.295200  0.842200  1.0
  N  N2020  1  0.155000  0.704800  0.157800  1.0
  N  N2021  1  0.719100  0.731200  0.663400  1.0
  N  N2022  1  0.113700  0.268800  0.336600  1.0
  N  N2023  1  0.132500  0.231200  0.836600  1.0
  N  N2024  1  0.200300  0.768800  0.163400  1.0
  N  N2025  1  0.078500  0.344000  0.600000  1.0
  N  N2026  1  0.022500  0.656000  0.400000  1.0
  N  N2027  1  0.428500  0.844000  0.900000  1.0
  N  N2028  1  0.172500  0.156000  0.100000  1.0
  N  N2029  1  0.016100  0.449400  0.608200  1.0
  N  N2030  1  0.073700  0.550600  0.391800  1.0
  N  N2031  1  0.374300  0.949400  0.891800  1.0
  N  N2032  1  0.215500  0.050600  0.108200  1.0
  N  N2033  1  0.406310  0.686400  0.127180  1.0
  N  N2034  1  0.219890  0.313600  0.872820  1.0
  N  N2035  1  0.283490  0.186400  0.372820  1.0
  N  N2036  1  0.842710  0.813600  0.627180  1.0
  N  N2037  1  0.300200  0.633600  0.062800  1.0
  N  N2038  1  0.996600  0.366400  0.937200  1.0
  N  N2039  1  0.113000  0.133600  0.437200  1.0
  N  N2040  1  0.683800  0.866400  0.562800  1.0
  N  N2041  1  0.467100  0.701800  0.001400  1.0
  N  N2042  1  0.170300  0.298200  0.998600  1.0
  N  N2043  1  0.218500  0.201800  0.498600  1.0
  N  N2044  1  0.918900  0.798200  0.501400  1.0
  N  N2045  1  0.432800  0.614000  0.723200  1.0
  N  N2046  1  0.770000  0.386000  0.276800  1.0
  N  N2047  1  0.906000  0.114000  0.776800  1.0
  N  N2048  1  0.796800  0.886000  0.223200  1.0
  N  N2049  1  0.591680  0.697200  0.663040  1.0
  N  N2050  1  0.951920  0.302800  0.336960  1.0
  N  N2051  1  0.004720  0.197200  0.836960  1.0
  N  N2052  1  0.038880  0.802800  0.163040  1.0
  N  N2053  1  0.507220  0.620200  0.597160  1.0
  N  N2054  1  0.724580  0.379800  0.402840  1.0
  N  N2055  1  0.854380  0.120200  0.902840  1.0
  N  N2056  1  0.877420  0.879800  0.097160  1.0
  N  N2057  1  0.520500  0.673000  0.129200  1.0
  N  N2058  1  0.322700  0.327000  0.870800  1.0
  N  N2059  1  0.399700  0.173000  0.370800  1.0
  N  N2060  1  0.943500  0.827000  0.629200  1.0
  N  N2061  1  0.686910  0.477000  0.067380  1.0
  N  N2062  1  0.231290  0.523000  0.932620  1.0
  N  N2063  1  0.504290  0.977000  0.432620  1.0
  N  N2064  1  0.913910  0.023000  0.567380  1.0
  N  N2065  1  0.584270  0.671000  0.001860  1.0
  N  N2066  1  0.257130  0.329000  0.998140  1.0
  N  N2067  1  0.336130  0.171000  0.498140  1.0
  N  N2068  1  0.005270  0.829000  0.501860  1.0
  N  N2069  1  0.851250  0.463800  0.731500  1.0
  N  N2070  1  0.046550  0.536200  0.268500  1.0
  N  N2071  1  0.332750  0.963800  0.768500  1.0
  N  N2072  1  0.065050  0.036200  0.231500  1.0
  N  N2073  1  0.713520  0.630600  0.666760  1.0
  N  N2074  1  0.010880  0.369400  0.333240  1.0
  N  N2075  1  0.130280  0.130600  0.833240  1.0
  N  N2076  1  0.094120  0.869400  0.166760  1.0
  N  N2077  1  0.913700  0.446600  0.603200  1.0
  N  N2078  1  0.963500  0.553400  0.396800  1.0
  N  N2079  1  0.266900  0.946600  0.896800  1.0
  N  N2080  1  0.110300  0.053400  0.103200  1.0
  N  N2081  1  0.472500  0.360600  0.136400  1.0
  N  N2082  1  0.969500  0.639400  0.863600  1.0
  N  N2083  1  0.358900  0.860600  0.363600  1.0
  N  N2084  1  0.583100  0.139400  0.636400  1.0
  N  N2085  1  0.660580  0.385800  0.069040  1.0
  N  N2086  1  0.115420  0.614200  0.930960  1.0
  N  N2087  1  0.479620  0.885800  0.430960  1.0
  N  N2088  1  0.796380  0.114200  0.569040  1.0
  N  N2089  1  0.570630  0.295800  0.009940  1.0
  N  N2090  1  0.876370  0.704200  0.990060  1.0
  N  N2091  1  0.330570  0.795800  0.490060  1.0
  N  N2092  1  0.616430  0.204200  0.509940  1.0
  N  N2093  1  0.900340  0.345800  0.730120  1.0
  N  N2094  1  0.976260  0.654200  0.269880  1.0
  N  N2095  1  0.380460  0.845800  0.769880  1.0
  N  N2096  1  0.996140  0.154200  0.230120  1.0
  N  N2097  1  0.816730  0.256000  0.668140  1.0
  N  N2098  1  0.740870  0.744000  0.331860  1.0
  N  N2099  1  0.234870  0.756000  0.831860  1.0
  N  N2100  1  0.822730  0.244000  0.168140  1.0
  N  N2101  1  0.982200  0.322000  0.606800  1.0
  N  N2102  1  0.911000  0.678000  0.393200  1.0
  N  N2103  1  0.339000  0.822000  0.893200  1.0
  N  N2104  1  0.054200  0.178000  0.106800  1.0
  N  N2105  1  0.359280  0.367600  0.134640  1.0
  N  N2106  1  0.861520  0.632400  0.865360  1.0
  N  N2107  1  0.243920  0.867600  0.365360  1.0
  N  N2108  1  0.476880  0.132400  0.634640  1.0
  N  N2109  1  0.275650  0.542000  0.063500  1.0
  N  N2110  1  0.881150  0.458000  0.936500  1.0
  N  N2111  1  0.089150  0.042000  0.436500  1.0
  N  N2112  1  0.567650  0.958000  0.563500  1.0
  N  N2113  1  0.450960  0.335800  0.009080  1.0
  N  N2114  1  0.795840  0.664200  0.990920  1.0
  N  N2115  1  0.210040  0.835800  0.490920  1.0
  N  N2116  1  0.536760  0.164200  0.509080  1.0
  N  N2117  1  0.474600  0.497000  0.724400  1.0
  N  N2118  1  0.696000  0.503000  0.275600  1.0
  N  N2119  1  0.949000  0.997000  0.775600  1.0
  N  N2120  1  0.721600  0.003000  0.224400  1.0
  N  N2121  1  0.692100  0.322400  0.667200  1.0
  N  N2122  1  0.681700  0.677600  0.332800  1.0
  N  N2123  1  0.109300  0.822400  0.832800  1.0
  N  N2124  1  0.764500  0.177600  0.167200  1.0
  N  N2125  1  0.582370  0.499200  0.598260  1.0
  N  N2126  1  0.679830  0.500800  0.401740  1.0
  N  N2127  1  0.930630  0.999200  0.901740  1.0
  N  N2128  1  0.831570  0.000800  0.098260  1.0
  N  N2129  1  0.222700  0.750000  0.756600  1.0
  N  N2130  1  0.729300  0.250000  0.243400  1.0
  N  N2131  1  0.729300  0.250000  0.743400  1.0
  N  N2132  1  0.722700  0.750000  0.256600  1.0
  N  N2133  1  0.301700  0.782000  0.426000  1.0
  N  N2134  1  0.509700  0.218000  0.574000  1.0
  N  N2135  1  0.477700  0.282000  0.074000  1.0
  N  N2136  1  0.833700  0.718000  0.926000  1.0
  N  N2137  1  0.124200  0.768400  0.545200  1.0
  N  N2138  1  0.437800  0.231600  0.454800  1.0
  N  N2139  1  0.419400  0.268400  0.954800  1.0
  N  N2140  1  0.642600  0.731600  0.045200  1.0
  N  N2141  1  0.651700  0.936000  0.478600  1.0
  N  N2142  1  0.066300  0.064000  0.521400  1.0
  N  N2143  1  0.880300  0.436000  0.021400  1.0
  N  N2144  1  0.337700  0.564000  0.978600  1.0
  N  N2145  1  0.903300  0.088400  0.488400  1.0
  N  N2146  1  0.480100  0.911600  0.511600  1.0
  N  N2147  1  0.141700  0.588400  0.011600  1.0
  N  N2148  1  0.741700  0.411600  0.988400  1.0
  N  N2149  1  0.011900  0.137200  0.383200  1.0
  N  N2150  1  0.532300  0.862800  0.616800  1.0
  N  N2151  1  0.145100  0.637200  0.116800  1.0
  N  N2152  1  0.899100  0.362800  0.883200  1.0
  N  N2153  1  0.844600  0.070400  0.843400  1.0
  N  N2154  1  0.758400  0.929600  0.156600  1.0
  N  N2155  1  0.438000  0.570400  0.656600  1.0
  N  N2156  1  0.665000  0.429600  0.343400  1.0
  N  N2157  1  0.750300  0.658600  0.416600  1.0
  N  N2158  1  0.825500  0.341400  0.583400  1.0
  N  N2159  1  0.916900  0.158600  0.083400  1.0
  N  N2160  1  0.158900  0.841400  0.916600  1.0
  N  N2161  1  0.639700  0.894200  0.376800  1.0
  N  N2162  1  0.910700  0.105800  0.623200  1.0
  N  N2163  1  0.766500  0.394200  0.123200  1.0
  N  N2164  1  0.283900  0.605800  0.876800  1.0
  N  N2165  1  0.574700  0.986400  0.650200  1.0
  N  N2166  1  0.211300  0.013600  0.349800  1.0
  N  N2167  1  0.974900  0.486400  0.849800  1.0
  N  N2168  1  0.311100  0.513600  0.150200  1.0
  N  N2169  1  0.082000  0.270000  0.482000  1.0
  N  N2170  1  0.834000  0.730000  0.518000  1.0
  N  N2171  1  0.314000  0.770000  0.018000  1.0
  N  N2172  1  0.102000  0.230000  0.982000  1.0
  N  N2173  1  0.107500  0.180400  0.752600  1.0
  N  N2174  1  0.040500  0.819600  0.247400  1.0
  N  N2175  1  0.610100  0.680400  0.747400  1.0
  N  N2176  1  0.037900  0.319600  0.252600  1.0
  N  N2177  1  0.223900  0.481800  0.853000  1.0
  N  N2178  1  0.558700  0.518200  0.147000  1.0
  N  N2179  1  0.826900  0.981800  0.647000  1.0
  N  N2180  1  0.455700  0.018200  0.353000  1.0
  N  N2181  1  0.051500  0.204600  0.900400  1.0
  N  N2182  1  0.156500  0.795400  0.099600  1.0
  N  N2183  1  0.701900  0.704600  0.599600  1.0
  N  N2184  1  0.006100  0.295400  0.400400  1.0
  N  N2185  1  0.001800  0.910000  0.058400  1.0
  N  N2186  1  0.970200  0.090000  0.941600  1.0
  N  N2187  1  0.810200  0.410000  0.441600  1.0
  N  N2188  1  0.661800  0.590000  0.558400  1.0
  N  N2189  1  0.616900  0.083000  0.775200  1.0
  N  N2190  1  0.475100  0.917000  0.224800  1.0
  N  N2191  1  0.142100  0.583000  0.724800  1.0
  N  N2192  1  0.449900  0.417000  0.275200  1.0
  N  N2193  1  0.261600  0.188000  0.620800  0.45
  N  N2194  1  0.070400  0.812000  0.379200  0.45
  N  N2195  1  0.632400  0.688000  0.879200  0.45
  N  N2196  1  0.199600  0.312000  0.120800  0.45
  N  N2197  1  0.067500  0.525000  0.476000  0.5
  N  N2198  1  0.068500  0.475000  0.524000  0.5
  N  N2199  1  0.293500  0.025000  0.024000  0.5
  N  N2200  1  0.342500  0.975000  0.976000  0.5
  N  N2201  1  0.255200  0.195200  0.690400  0.55
  N  N2202  1  0.140800  0.804800  0.309600  0.55
  N  N2203  1  0.695600  0.695200  0.809600  0.55
  N  N2204  1  0.200400  0.304800  0.190400  0.55
  N  N2205  1  0.396400  0.504600  0.534600  0.61
  N  N2206  1  0.435600  0.495400  0.465400  0.61
  N  N2207  1  0.681000  0.004600  0.965400  0.61
  N  N2208  1  0.651000  0.995400  0.034600  0.61
  N  N2209  1  0.201700  0.437400  0.557200  0.62
  N  N2210  1  0.196300  0.562600  0.442800  0.62
  N  N2211  1  0.508900  0.937400  0.942800  0.62
  N  N2212  1  0.389100  0.062600  0.057200  0.62
  N  N2213  1  0.055800  0.736000  0.892000  0.68
  N  N2214  1  0.683800  0.264000  0.108000  0.68
  N  N2215  1  0.697800  0.236000  0.608000  0.68
  N  N2216  1  0.541800  0.764000  0.392000  0.68
  N  N2217  1  0.972500  0.380200  0.670000  0.8
  N  N2218  1  0.022700  0.619800  0.330000  0.8
  N  N2219  1  0.392500  0.880200  0.830000  0.8
  N  N2220  1  0.102700  0.119800  0.170000  0.8
  O  O2221  1  0.474780  0.644200  0.940640  1.0
  O  O2222  1  0.059620  0.355800  0.059360  1.0
  O  O2223  1  0.165420  0.144200  0.559360  1.0
  O  O2224  1  0.868980  0.855800  0.440640  1.0
  O  O2225  1  0.437400  0.656000  0.784000  1.0
  O  O2226  1  0.877400  0.344000  0.216000  1.0
  O  O2227  1  0.971400  0.156000  0.716000  1.0
  O  O2228  1  0.843400  0.844000  0.284000  1.0
  O  O2229  1  0.652780  0.559400  0.949840  1.0
  O  O2230  1  0.162020  0.440600  0.050160  1.0
  O  O2231  1  0.352620  0.059400  0.550160  1.0
  O  O2232  1  0.962180  0.940600  0.449840  1.0
  O  O2233  1  0.727600  0.490000  0.787800  1.0
  O  O2234  1  0.005400  0.510000  0.212200  1.0
  O  O2235  1  0.265400  0.990000  0.712200  1.0
  O  O2236  1  0.967600  0.010000  0.287800  1.0
  O  O2237  1  0.666820  0.300200  0.950960  1.0
  O  O2238  1  0.917980  0.699800  0.049040  1.0
  O  O2239  1  0.367780  0.800200  0.549040  1.0
  O  O2240  1  0.717020  0.199800  0.450960  1.0
  O  O2241  1  0.848250  0.295000  0.791900  1.0
  O  O2242  1  0.935150  0.705000  0.208100  1.0
  O  O2243  1  0.390150  0.795000  0.708100  1.0
  O  O2244  1  0.893250  0.205000  0.291900  1.0
  O  O2245  1  0.407390  0.385000  0.947220  1.0
  O  O2246  1  0.739610  0.615000  0.052780  1.0
  O  O2247  1  0.104610  0.885000  0.552780  1.0
  O  O2248  1  0.542390  0.115000  0.447220  1.0
  O  O2249  1  0.511700  0.445800  0.786600  1.0
  O  O2250  1  0.744100  0.554200  0.213400  1.0
  O  O2251  1  0.048300  0.945800  0.713400  1.0
  O  O2252  1  0.707500  0.054200  0.286600  1.0
  O  O2253  1  0.522120  0.396800  0.948760  1.0
  O  O2254  1  0.867680  0.603200  0.051240  1.0
  O  O2255  1  0.220880  0.896800  0.551240  1.0
  O  O2256  1  0.668920  0.103200  0.448760  1.0
  O  O2257  1  0.569800  0.442200  0.927200  1.0
  O  O2258  1  0.939200  0.557800  0.072800  1.0
  O  O2259  1  0.247000  0.942200  0.572800  1.0
  O  O2260  1  0.762000  0.057800  0.427200  1.0
  O  O2261  1  0.596100  0.422400  0.869000  1.0
  O  O2262  1  0.887500  0.577600  0.131000  1.0
  O  O2263  1  0.215100  0.922400  0.631000  1.0
  O  O2264  1  0.768500  0.077600  0.369000  1.0
  O  O2265  1  0.628600  0.440200  0.809800  1.0
  O  O2266  1  0.878600  0.559800  0.190200  1.0
  O  O2267  1  0.188400  0.940200  0.690200  1.0
  O  O2268  1  0.818800  0.059800  0.309800  1.0
  O  O2269  1  0.679400  0.362200  0.791600  1.0
  O  O2270  1  0.833200  0.637800  0.208400  1.0
  O  O2271  1  0.221000  0.862200  0.708400  1.0
  O  O2272  1  0.791600  0.137800  0.291600  1.0
  O  O2273  1  0.191800  0.733200  0.748600  1.0
  O  O2274  1  0.673600  0.266800  0.251400  1.0
  O  O2275  1  0.690400  0.233200  0.751400  1.0
  O  O2276  1  0.675000  0.766800  0.248600  1.0
  O  O2277  1  0.272400  0.738000  0.744000  1.0
  O  O2278  1  0.754400  0.262000  0.256000  1.0
  O  O2279  1  0.766400  0.238000  0.756000  1.0
  O  O2280  1  0.760400  0.762000  0.244000  1.0
  O  O2281  1  0.194200  0.793400  0.767000  1.0
  O  O2282  1  0.754600  0.206600  0.233000  1.0
  O  O2283  1  0.711200  0.293400  0.733000  1.0
  O  O2284  1  0.737600  0.706600  0.267000  1.0
  O  O2285  1  0.324300  0.760400  0.406000  1.0
  O  O2286  1  0.490700  0.239600  0.594000  1.0
  O  O2287  1  0.480300  0.260400  0.094000  1.0
  O  O2288  1  0.834700  0.739600  0.906000  1.0
  O  O2289  1  0.291150  0.832200  0.426900  1.0
  O  O2290  1  0.550250  0.167800  0.573100  1.0
  O  O2291  1  0.468050  0.332200  0.073100  1.0
  O  O2292  1  0.873350  0.667800  0.926900  1.0
  O  O2293  1  0.309700  0.750400  0.442200  1.0
  O  O2294  1  0.502300  0.249600  0.557800  1.0
  O  O2295  1  0.501900  0.250400  0.057800  1.0
  O  O2296  1  0.810100  0.749600  0.942200  1.0
  O  O2297  1  0.079800  0.770000  0.559400  1.0
  O  O2298  1  0.409200  0.230000  0.440600  1.0
  O  O2299  1  0.389200  0.270000  0.940600  1.0
  O  O2300  1  0.599800  0.730000  0.059400  1.0
  O  O2301  1  0.115900  0.780600  0.525000  1.0
  O  O2302  1  0.421500  0.219400  0.475000  1.0
  O  O2303  1  0.390900  0.280600  0.975000  1.0
  O  O2304  1  0.646500  0.719400  0.025000  1.0
  O  O2305  1  0.173400  0.737800  0.548200  1.0
  O  O2306  1  0.459400  0.262200  0.451800  1.0
  O  O2307  1  0.471600  0.237800  0.951800  1.0
  O  O2308  1  0.661200  0.762200  0.048200  1.0
  O  O2309  1  0.666010  0.940400  0.496980  1.0
  O  O2310  1  0.103390  0.059600  0.503020  1.0
  O  O2311  1  0.912990  0.440400  0.003020  1.0
  O  O2312  1  0.356410  0.559600  0.996980  1.0
  O  O2313  1  0.681510  0.944600  0.460780  1.0
  O  O2314  1  0.086890  0.055400  0.539220  1.0
  O  O2315  1  0.892290  0.444600  0.039220  1.0
  O  O2316  1  0.376110  0.555400  0.960780  1.0
  O  O2317  1  0.604430  0.938800  0.479940  1.0
  O  O2318  1  0.023170  0.061200  0.520060  1.0
  O  O2319  1  0.834370  0.438800  0.020060  1.0
  O  O2320  1  0.293230  0.561200  0.979940  1.0
  O  O2321  1  0.876100  0.140800  0.482000  1.0
  O  O2322  1  0.498900  0.859200  0.518000  1.0
  O  O2323  1  0.108100  0.640800  0.018000  1.0
  O  O2324  1  0.766900  0.359200  0.982000  1.0
  O  O2325  1  0.877190  0.080400  0.507620  1.0
  O  O2326  1  0.465210  0.919600  0.492380  1.0
  O  O2327  1  0.134810  0.580400  0.992380  1.0
  O  O2328  1  0.707590  0.419600  0.007620  1.0
  O  O2329  1  0.956050  0.063000  0.482300  1.0
  O  O2330  1  0.501350  0.937000  0.517700  1.0
  O  O2331  1  0.188350  0.563000  0.017700  1.0
  O  O2332  1  0.769050  0.437000  0.982300  1.0
  O  O2333  1  0.067800  0.120800  0.378600  1.0
  O  O2334  1  0.567200  0.879200  0.621400  1.0
  O  O2335  1  0.196400  0.620800  0.121400  1.0
  O  O2336  1  0.938600  0.379200  0.878600  1.0
  O  O2337  1  0.977900  0.185800  0.377200  1.0
  O  O2338  1  0.540900  0.814200  0.622800  1.0
  O  O2339  1  0.105100  0.685800  0.122800  1.0
  O  O2340  1  0.913700  0.314200  0.877200  1.0
  O  O2341  1  0.995750  0.104000  0.391300  1.0
  O  O2342  1  0.491050  0.896000  0.608700  1.0
  O  O2343  1  0.137050  0.604000  0.108700  1.0
  O  O2344  1  0.849750  0.396000  0.891300  1.0
  O  O2345  1  0.821700  0.045000  0.858200  1.0
  O  O2346  1  0.724900  0.955000  0.141800  1.0
  O  O2347  1  0.429900  0.545000  0.641800  1.0
  O  O2348  1  0.616700  0.455000  0.358200  1.0
  O  O2349  1  0.810400  0.122600  0.840200  1.0
  O  O2350  1  0.773200  0.877400  0.159800  1.0
  O  O2351  1  0.400600  0.622600  0.659800  1.0
  O  O2352  1  0.683000  0.377400  0.340200  1.0
  O  O2353  1  0.896140  0.055000  0.840120  1.0
  O  O2354  1  0.791260  0.945000  0.159880  1.0
  O  O2355  1  0.486260  0.555000  0.659880  1.0
  O  O2356  1  0.701140  0.445000  0.340120  1.0
  O  O2357  1  0.784600  0.662200  0.427800  1.0
  O  O2358  1  0.874600  0.337800  0.572200  1.0
  O  O2359  1  0.962400  0.162200  0.072200  1.0
  O  O2360  1  0.196800  0.837800  0.927800  1.0
  O  O2361  1  0.717100  0.640000  0.427800  1.0
  O  O2362  1  0.784900  0.360000  0.572200  1.0
  O  O2363  1  0.894900  0.140000  0.072200  1.0
  O  O2364  1  0.107100  0.860000  0.927800  1.0
  O  O2365  1  0.741300  0.683000  0.399000  1.0
  O  O2366  1  0.823300  0.317000  0.601000  1.0
  O  O2367  1  0.890300  0.183000  0.101000  1.0
  O  O2368  1  0.174300  0.817000  0.899000  1.0
  O  O2369  1  0.682700  0.853200  0.364200  1.0
  O  O2370  1  0.900100  0.146800  0.635800  1.0
  O  O2371  1  0.796900  0.353200  0.135800  1.0
  O  O2372  1  0.285900  0.646800  0.864200  1.0
  O  O2373  1  0.656200  0.916000  0.389200  1.0
  O  O2374  1  0.961400  0.084000  0.610800  1.0
  O  O2375  1  0.795400  0.416000  0.110800  1.0
  O  O2376  1  0.322200  0.584000  0.889200  1.0
  O  O2377  1  0.593200  0.894800  0.380800  1.0
  O  O2378  1  0.868800  0.105200  0.619200  1.0
  O  O2379  1  0.724000  0.394800  0.119200  1.0
  O  O2380  1  0.238000  0.605200  0.880800  1.0
  O  O2381  1  0.561400  0.985000  0.672200  1.0
  O  O2382  1  0.218600  0.015000  0.327800  1.0
  O  O2383  1  0.983600  0.485000  0.827800  1.0
  O  O2384  1  0.296400  0.515000  0.172200  1.0
  O  O2385  1  0.581500  0.945600  0.639400  1.0
  O  O2386  1  0.166500  0.054400  0.360600  1.0
  O  O2387  1  0.970900  0.445600  0.860600  1.0
  O  O2388  1  0.277100  0.554400  0.139400  1.0
  O  O2389  1  0.599500  0.012400  0.642600  1.0
  O  O2390  1  0.254500  0.987600  0.357400  1.0
  O  O2391  1  0.992100  0.512400  0.857400  1.0
  O  O2392  1  0.361900  0.487600  0.142600  1.0
  O  O2393  1  0.072100  0.258000  0.463800  1.0
  O  O2394  1  0.793900  0.742000  0.536200  1.0
  O  O2395  1  0.285900  0.758000  0.036200  1.0
  O  O2396  1  0.080100  0.242000  0.963800  1.0
  O  O2397  1  0.098700  0.307000  0.479600  1.0
  O  O2398  1  0.885300  0.693000  0.520400  1.0
  O  O2399  1  0.328300  0.807000  0.020400  1.0
  O  O2400  1  0.155700  0.193000  0.979600  1.0
  O  O2401  1  0.067000  0.252000  0.500000  1.0
  O  O2402  1  0.819000  0.748000  0.500000  1.0
  O  O2403  1  0.317000  0.752000  0.000000  1.0
  O  O2404  1  0.069000  0.248000  0.000000  1.0
  O  O2405  1  0.070600  0.234400  0.750400  1.0
  O  O2406  1  0.055400  0.765600  0.249600  1.0
  O  O2407  1  0.571000  0.734400  0.749600  1.0
  O  O2408  1  0.055000  0.265600  0.250400  1.0
  O  O2409  1  0.088200  0.158200  0.769400  1.0
  O  O2410  1  0.015800  0.841800  0.230600  1.0
  O  O2411  1  0.607600  0.658200  0.730600  1.0
  O  O2412  1  0.996400  0.341800  0.269400  1.0
  O  O2413  1  0.125600  0.154000  0.734800  1.0
  O  O2414  1  0.014400  0.846000  0.265200  1.0
  O  O2415  1  0.610400  0.654000  0.765200  1.0
  O  O2416  1  0.029600  0.346000  0.234800  1.0
  O  O2417  1  0.241800  0.481400  0.831000  1.0
  O  O2418  1  0.554200  0.518600  0.169000  1.0
  O  O2419  1  0.822800  0.981400  0.669000  1.0
  O  O2420  1  0.473200  0.018600  0.331000  1.0
  O  O2421  1  0.199500  0.452000  0.859600  1.0
  O  O2422  1  0.511100  0.548000  0.140400  1.0
  O  O2423  1  0.809100  0.952000  0.640400  1.0
  O  O2424  1  0.401500  0.048000  0.359600  1.0
  O  O2425  1  0.216300  0.519600  0.864000  1.0
  O  O2426  1  0.599900  0.480400  0.136000  1.0
  O  O2427  1  0.830300  0.019600  0.636000  1.0
  O  O2428  1  0.485900  0.980400  0.364000  1.0
  O  O2429  1  0.023000  0.178000  0.910000  1.0
  O  O2430  1  0.111000  0.822000  0.090000  1.0
  O  O2431  1  0.683000  0.678000  0.590000  1.0
  O  O2432  1  0.951000  0.322000  0.410000  1.0
  O  O2433  1  0.091100  0.200000  0.909800  1.0
  O  O2434  1  0.200900  0.800000  0.090200  1.0
  O  O2435  1  0.750900  0.700000  0.590200  1.0
  O  O2436  1  0.041100  0.300000  0.409800  1.0
  O  O2437  1  0.025300  0.245800  0.889600  1.0
  O  O2438  1  0.160700  0.754200  0.110400  1.0
  O  O2439  1  0.664900  0.745800  0.610400  1.0
  O  O2440  1  0.021100  0.254200  0.389600  1.0
  O  O2441  1  0.997700  0.890600  0.040000  1.0
  O  O2442  1  0.928300  0.109400  0.960000  1.0
  O  O2443  1  0.787700  0.390600  0.460000  1.0
  O  O2444  1  0.638300  0.609400  0.540000  1.0
  O  O2445  1  0.112100  0.826000  0.999800  1.0
  O  O2446  1  0.937900  0.174000  0.000200  1.0
  O  O2447  1  0.861900  0.326000  0.500200  1.0
  O  O2448  1  0.688100  0.674000  0.499800  1.0
  O  O2449  1  0.027300  0.936200  0.055200  1.0
  O  O2450  1  0.018700  0.063800  0.944800  1.0
  O  O2451  1  0.832500  0.436200  0.444800  1.0
  O  O2452  1  0.713500  0.563800  0.555200  1.0
  O  O2453  1  0.607600  0.130000  0.764800  1.0
  O  O2454  1  0.502400  0.870000  0.235200  1.0
  O  O2455  1  0.122400  0.630000  0.735200  1.0
  O  O2456  1  0.487600  0.370000  0.264800  1.0
  O  O2457  1  0.626500  0.080000  0.795000  1.0
  O  O2458  1  0.501500  0.920000  0.205000  1.0
  O  O2459  1  0.171500  0.580000  0.705000  1.0
  O  O2460  1  0.456500  0.420000  0.295000  1.0
  O  O2461  1  0.625600  0.044000  0.764800  1.0
  O  O2462  1  0.434400  0.956000  0.235200  1.0
  O  O2463  1  0.140400  0.544000  0.735200  1.0
  O  O2464  1  0.419600  0.456000  0.264800  1.0
  O  O2465  1  0.492600  0.361000  0.581800  1.0
  O  O2466  1  0.435400  0.639000  0.418200  1.0
  O  O2467  1  0.824400  0.861000  0.918200  1.0
  O  O2468  1  0.603600  0.139000  0.081800  1.0
  O  O2469  1  0.477200  0.418800  0.678800  1.0
  O  O2470  1  0.574800  0.581200  0.321200  1.0
  O  O2471  1  0.906000  0.918800  0.821200  1.0
  O  O2472  1  0.646000  0.081200  0.178800  1.0
  O  O2473  1  0.601900  0.253400  0.784800  1.0
  O  O2474  1  0.640100  0.746600  0.215200  1.0
  O  O2475  1  0.136700  0.753400  0.715200  1.0
  O  O2476  1  0.605300  0.246600  0.284800  1.0
  O  O2477  1  0.842500  0.148000  0.717600  1.0
  O  O2478  1  0.708100  0.852000  0.282400  1.0
  O  O2479  1  0.310100  0.648000  0.782400  1.0
  O  O2480  1  0.740500  0.352000  0.217600  1.0
  O  O2481  1  0.788900  0.172000  0.996200  1.0
  O  O2482  1  0.957100  0.828000  0.003800  1.0
  O  O2483  1  0.535100  0.672000  0.503800  1.0
  O  O2484  1  0.710900  0.328000  0.496200  1.0
  O  O2485  1  0.921000  0.765800  0.926200  1.0
  O  O2486  1  0.613000  0.234200  0.073800  1.0
  O  O2487  1  0.597200  0.265800  0.573800  1.0
  O  O2488  1  0.436800  0.734200  0.426200  1.0
  O  O2489  1  0.630500  0.845000  0.505400  1.0
  O  O2490  1  0.980900  0.155000  0.494600  1.0
  O  O2491  1  0.885900  0.345000  0.994600  1.0
  O  O2492  1  0.225500  0.655000  0.005400  1.0
  O  O2493  1  0.816100  0.210600  0.515200  1.0
  O  O2494  1  0.541900  0.789400  0.484800  1.0
  O  O2495  1  0.081300  0.710600  0.984800  1.0
  O  O2496  1  0.776700  0.289400  0.015200  1.0
  O  O2497  1  0.558600  0.023000  0.749800  1.0
  O  O2498  1  0.331400  0.977000  0.250200  1.0
  O  O2499  1  0.058400  0.523000  0.750200  1.0
  O  O2500  1  0.331600  0.477000  0.249800  1.0
  O  O2501  1  0.426000  0.280200  0.397800  1.0
  O  O2502  1  0.104000  0.719800  0.602200  1.0
  O  O2503  1  0.573800  0.780200  0.102200  1.0
  O  O2504  1  0.456200  0.219800  0.897800  1.0
  O  O2505  1  0.618300  0.306000  0.864200  1.0
  O  O2506  1  0.788500  0.694000  0.135800  1.0
  O  O2507  1  0.232500  0.806000  0.635800  1.0
  O  O2508  1  0.674300  0.194000  0.364200  1.0
  O  O2509  1  0.882600  0.075400  0.725400  1.0
  O  O2510  1  0.683400  0.924600  0.274600  1.0
  O  O2511  1  0.358000  0.575400  0.774600  1.0
  O  O2512  1  0.708000  0.424600  0.225400  1.0
  O  O2513  1  0.613300  0.174000  0.943400  1.0
  O  O2514  1  0.730700  0.826000  0.056600  1.0
  O  O2515  1  0.306700  0.674000  0.556600  1.0
  O  O2516  1  0.537300  0.326000  0.443400  1.0
  O  O2517  1  0.302600  0.404000  0.284800  1.0
  O  O2518  1  0.991400  0.596000  0.715200  1.0
  O  O2519  1  0.337400  0.904000  0.215200  1.0
  O  O2520  1  0.456600  0.096000  0.784800  1.0
  O  O2521  1  0.582700  0.019400  0.293200  1.0
  O  O2522  1  0.895300  0.980600  0.706800  1.0
  O  O2523  1  0.625900  0.519400  0.206800  1.0
  O  O2524  1  0.352100  0.480600  0.793200  1.0
  O  O2525  1  0.869500  0.400600  0.410400  1.0
  O  O2526  1  0.680500  0.599400  0.589600  1.0
  O  O2527  1  0.029900  0.900600  0.089600  1.0
  O  O2528  1  0.020100  0.099400  0.910400  1.0
  O  O2529  1  0.195100  0.563600  0.624200  1.0
  O  O2530  1  0.382900  0.436400  0.375800  1.0
  O  O2531  1  0.569300  0.063600  0.875800  1.0
  O  O2532  1  0.508700  0.936400  0.124200  1.0
  O  O2533  1  0.072400  0.581800  0.575400  1.0
  O  O2534  1  0.229600  0.418200  0.424600  1.0
  O  O2535  1  0.397800  0.081800  0.924600  1.0
  O  O2536  1  0.404200  0.918200  0.075400  1.0
  O  O2537  1  0.386600  0.038000  0.810800  1.0
  O  O2538  1  0.235400  0.962000  0.189200  1.0
  O  O2539  1  0.947400  0.538000  0.689200  1.0
  O  O2540  1  0.174600  0.462000  0.310800  1.0
  O  O2541  1  0.266400  0.411400  0.643800  1.0
  O  O2542  1  0.321600  0.588600  0.356200  1.0
  O  O2543  1  0.660200  0.911400  0.856200  1.0
  O  O2544  1  0.427800  0.088600  0.143800  1.0
  O  O2545  1  0.407100  0.374600  0.791200  1.0
  O  O2546  1  0.572900  0.625400  0.208800  1.0
  O  O2547  1  0.948300  0.874600  0.708800  1.0
  O  O2548  1  0.531700  0.125400  0.291200  1.0
  O  O2549  1  0.971900  0.327000  0.789400  1.0
  O  O2550  1  0.088300  0.673000  0.210600  1.0
  O  O2551  1  0.511300  0.827000  0.710600  1.0
  O  O2552  1  0.048900  0.173000  0.289400  1.0
  O  O2553  1  0.253400  0.730400  0.604200  1.0
  O  O2554  1  0.588000  0.269600  0.395800  1.0
  O  O2555  1  0.607600  0.230400  0.895800  1.0
  O  O2556  1  0.733800  0.769600  0.104200  1.0
  O  O2557  1  0.819500  0.530000  0.799000  1.0
  O  O2558  1  0.148500  0.470000  0.201000  1.0
  O  O2559  1  0.368500  0.030000  0.701000  1.0
  O  O2560  1  0.099500  0.970000  0.299000  1.0
  O  O2561  1  0.245100  0.563200  0.600600  1.0
  O  O2562  1  0.408900  0.436800  0.399400  1.0
  O  O2563  1  0.595700  0.063200  0.899400  1.0
  O  O2564  1  0.558300  0.936800  0.100600  1.0
  O  O2565  1  0.767400  0.239600  0.963600  1.0
  O  O2566  1  0.970600  0.760400  0.036400  1.0
  O  O2567  1  0.481000  0.739600  0.536400  1.0
  O  O2568  1  0.757000  0.260400  0.463600  1.0
  O  O2569  1  0.244410  0.777400  0.560780  1.0
  O  O2570  1  0.582590  0.222600  0.439220  1.0
  O  O2571  1  0.555190  0.277400  0.939220  1.0
  O  O2572  1  0.771810  0.722600  0.060780  1.0
  O  O2573  1  0.692200  0.113200  0.734800  1.0
  O  O2574  1  0.540200  0.886800  0.265200  1.0
  O  O2575  1  0.177000  0.613200  0.765200  1.0
  O  O2576  1  0.555400  0.386800  0.234800  1.0
  O  O2577  1  0.627600  0.243600  0.717200  1.0
  O  O2578  1  0.588400  0.756400  0.282800  1.0
  O  O2579  1  0.094800  0.743600  0.782800  1.0
  O  O2580  1  0.621200  0.256400  0.217200  1.0
  O  O2581  1  0.312000  0.772800  0.178600  1.0
  O  O2582  1  0.263400  0.227200  0.821400  1.0
  O  O2583  1  0.240600  0.272800  0.321400  1.0
  O  O2584  1  0.834800  0.727200  0.678600  1.0
  O  O2585  1  0.669700  0.264000  0.808600  1.0
  O  O2586  1  0.742300  0.736000  0.191400  1.0
  O  O2587  1  0.228300  0.764000  0.691400  1.0
  O  O2588  1  0.683700  0.236000  0.308600  1.0
  O  O2589  1  0.132100  0.571800  0.602000  1.0
  O  O2590  1  0.305900  0.428200  0.398000  1.0
  O  O2591  1  0.484100  0.071800  0.898000  1.0
  O  O2592  1  0.453900  0.928200  0.102000  1.0
  O  O2593  1  0.318300  0.284000  0.611400  1.0
  O  O2594  1  0.213700  0.716000  0.388600  1.0
  O  O2595  1  0.679700  0.784000  0.888600  1.0
  O  O2596  1  0.352300  0.216000  0.111400  1.0
  O  O2597  1  0.241100  0.232600  0.559200  1.0
  O  O2598  1  0.032900  0.767400  0.440800  1.0
  O  O2599  1  0.550300  0.732600  0.940800  1.0
  O  O2600  1  0.223700  0.267400  0.059200  1.0
  O  O2601  1  0.321900  0.682400  0.535800  0.25
  O  O2602  1  0.540100  0.317600  0.464200  0.25
  O  O2603  1  0.607700  0.182400  0.964200  0.25
  O  O2604  1  0.754300  0.817600  0.035800  0.25
  O  O2605  1  0.151400  0.799600  0.461600  0.35
  O  O2606  1  0.412600  0.200400  0.538400  0.35
  O  O2607  1  0.363000  0.299600  0.038400  0.35
  O  O2608  1  0.701000  0.700400  0.961600  0.35
  O  O2609  1  0.293300  0.265600  0.419800  0.36
  O  O2610  1  0.978700  0.734400  0.580200  0.36
  O  O2611  1  0.463100  0.765600  0.080200  0.36
  O  O2612  1  0.308900  0.234400  0.919800  0.36
  O  O2613  1  0.046700  0.241800  0.536800  0.37
  O  O2614  1  0.825300  0.758200  0.463200  0.37
  O  O2615  1  0.333500  0.741800  0.963200  0.37
  O  O2616  1  0.038500  0.258200  0.036800  0.37
  O  O2617  1  0.925700  0.995600  0.033000  0.41
  O  O2618  1  0.954300  0.004400  0.967000  0.41
  O  O2619  1  0.708700  0.495600  0.467000  0.41
  O  O2620  1  0.671300  0.504400  0.533000  0.41
  O  O2621  1  0.237400  0.187400  0.641800  0.45
  O  O2622  1  0.066600  0.812600  0.358200  0.45
  O  O2623  1  0.629200  0.687400  0.858200  0.45
  O  O2624  1  0.174800  0.312600  0.141800  0.45
  O  O2625  1  0.311700  0.145600  0.615000  0.45
  O  O2626  1  0.072300  0.854400  0.385000  0.45
  O  O2627  1  0.676700  0.645600  0.885000  0.45
  O  O2628  1  0.207300  0.354400  0.115000  0.45
  O  O2629  1  0.230900  0.215000  0.607200  0.45
  O  O2630  1  0.053100  0.785000  0.392800  0.45
  O  O2631  1  0.588100  0.715000  0.892800  0.45
  O  O2632  1  0.195900  0.285000  0.107200  0.45
  O  O2633  1  0.016000  0.526000  0.482000  0.5
  O  O2634  1  0.024000  0.474000  0.518000  0.5
  O  O2635  1  0.248000  0.026000  0.018000  0.5
  O  O2636  1  0.292000  0.974000  0.982000  0.5
  O  O2637  1  0.080300  0.536000  0.455400  0.5
  O  O2638  1  0.071700  0.464000  0.544600  0.5
  O  O2639  1  0.285700  0.036000  0.044600  0.5
  O  O2640  1  0.366300  0.964000  0.955400  0.5
  O  O2641  1  0.103300  0.498000  0.487400  0.5
  O  O2642  1  0.088700  0.502000  0.512600  0.5
  O  O2643  1  0.340700  0.998000  0.012600  0.5
  O  O2644  1  0.351300  0.002000  0.987400  0.5
  O  O2645  1  0.852200  0.630000  0.653600  0.5
  O  O2646  1  0.135800  0.370000  0.346400  0.5
  O  O2647  1  0.255800  0.130000  0.846400  0.5
  O  O2648  1  0.232200  0.870000  0.153600  0.5
  O  O2649  1  0.898300  0.548600  0.654800  0.5
  O  O2650  1  0.101700  0.451400  0.345200  0.5
  O  O2651  1  0.303100  0.048600  0.845200  0.5
  O  O2652  1  0.196900  0.951400  0.154800  0.5
  O  O2653  1  0.290400  0.211200  0.696000  0.55
  O  O2654  1  0.197600  0.788800  0.304000  0.55
  O  O2655  1  0.736400  0.711200  0.804000  0.55
  O  O2656  1  0.251600  0.288800  0.196000  0.55
  O  O2657  1  0.205100  0.214800  0.703000  0.55
  O  O2658  1  0.122900  0.785200  0.297000  0.55
  O  O2659  1  0.658100  0.714800  0.797000  0.55
  O  O2660  1  0.169900  0.285200  0.203000  0.55
  O  O2661  1  0.279600  0.148600  0.682200  0.55
  O  O2662  1  0.110400  0.851400  0.317800  0.55
  O  O2663  1  0.711800  0.648600  0.817800  0.55
  O  O2664  1  0.178200  0.351400  0.182200  0.55
  O  O2665  1  0.943700  0.100000  0.034600  0.59
  O  O2666  1  0.078300  0.900000  0.965400  0.59
  O  O2667  1  0.728300  0.600000  0.465400  0.59
  O  O2668  1  0.793700  0.400000  0.534600  0.59
  O  O2669  1  0.346900  0.522000  0.528200  0.61
  O  O2670  1  0.397100  0.478000  0.471800  0.61
  O  O2671  1  0.625100  0.022000  0.971800  0.61
  O  O2672  1  0.618900  0.978000  0.028200  0.61
  O  O2673  1  0.395800  0.487400  0.555000  0.61
  O  O2674  1  0.438200  0.512600  0.445000  0.61
  O  O2675  1  0.700800  0.987400  0.945000  0.61
  O  O2676  1  0.633200  0.012600  0.055000  0.61
  O  O2677  1  0.428700  0.522000  0.524600  0.61
  O  O2678  1  0.475300  0.478000  0.475400  0.61
  O  O2679  1  0.703300  0.022000  0.975400  0.61
  O  O2680  1  0.700700  0.978000  0.024600  0.61
  O  O2681  1  0.169300  0.492000  0.555400  0.62
  O  O2682  1  0.216700  0.508000  0.444600  0.62
  O  O2683  1  0.474700  0.992000  0.944600  0.62
  O  O2684  1  0.411300  0.008000  0.055400  0.62
  O  O2685  1  0.226300  0.423000  0.574400  0.62
  O  O2686  1  0.223700  0.577000  0.425600  0.62
  O  O2687  1  0.550700  0.923000  0.925600  0.62
  O  O2688  1  0.399300  0.077000  0.074400  0.62
  O  O2689  1  0.184300  0.408400  0.551000  0.62
  O  O2690  1  0.143700  0.591600  0.449000  0.62
  O  O2691  1  0.485300  0.908400  0.949000  0.62
  O  O2692  1  0.342700  0.091600  0.051000  0.62
  O  O2693  1  0.045500  0.230200  0.518800  0.63
  O  O2694  1  0.794500  0.769800  0.481200  0.63
  O  O2695  1  0.314300  0.730200  0.981200  0.63
  O  O2696  1  0.025700  0.269800  0.018800  0.63
  O  O2697  1  0.305500  0.198200  0.435400  0.64
  O  O2698  1  0.939100  0.801800  0.564600  0.64
  O  O2699  1  0.490900  0.698200  0.064600  0.64
  O  O2700  1  0.253700  0.301800  0.935400  0.64
  O  O2701  1  0.184900  0.768000  0.442200  0.65
  O  O2702  1  0.395100  0.232000  0.557800  0.65
  O  O2703  1  0.377100  0.268000  0.057800  0.65
  O  O2704  1  0.702900  0.732000  0.942200  0.65
  O  O2705  1  0.112700  0.712600  0.885800  0.68
  O  O2706  1  0.711100  0.287400  0.114200  0.68
  O  O2707  1  0.748500  0.212600  0.614200  0.68
  O  O2708  1  0.575300  0.787400  0.385800  0.68
  O  O2709  1  0.036800  0.754400  0.912000  0.68
  O  O2710  1  0.703200  0.245600  0.088000  0.68
  O  O2711  1  0.698800  0.254400  0.588000  0.68
  O  O2712  1  0.541200  0.745600  0.412000  0.68
  O  O2713  1  0.025400  0.751000  0.878000  0.68
  O  O2714  1  0.654400  0.249000  0.122000  0.68
  O  O2715  1  0.653400  0.251000  0.622000  0.68
  O  O2716  1  0.526400  0.749000  0.378000  0.68
  O  O2717  1  0.446700  0.643800  0.538800  0.75
  O  O2718  1  0.629300  0.356200  0.461200  0.75
  O  O2719  1  0.735500  0.143800  0.961200  0.75
  O  O2720  1  0.840500  0.856200  0.038800  0.75
  O  O2721  1  0.918100  0.402200  0.668400  0.8
  O  O2722  1  0.988700  0.597800  0.331600  0.8
  O  O2723  1  0.336500  0.902200  0.831600  0.8
  O  O2724  1  0.070300  0.097800  0.168400  0.8
  O  O2725  1  0.003400  0.327200  0.668200  0.8
  O  O2726  1  0.998800  0.672800  0.331800  0.8
  O  O2727  1  0.421600  0.827200  0.831800  0.8
  O  O2728  1  0.080600  0.172800  0.168200  0.8
  O  O2729  1  0.993400  0.410400  0.670600  0.8
  O  O2730  1  0.074400  0.589600  0.329400  0.8
  O  O2731  1  0.414000  0.910400  0.829400  0.8
  O  O2732  1  0.153800  0.089600  0.170600  0.8
  Pd  Pd2733  1  0.734562  0.393560  0.067056  1.0
  Pd  Pd2734  1  0.195178  0.606440  0.932944  1.0
  Pd  Pd2735  1  0.551618  0.893560  0.432944  1.0
  Pd  Pd2736  1  0.878122  0.106440  0.567056  1.0
  Pd  Pd2737  1  0.438030  0.739620  0.130700  1.0
  Pd  Pd2738  1  0.308350  0.260380  0.869300  1.0
  Pd  Pd2739  1  0.318730  0.239620  0.369300  1.0
  Pd  Pd2740  1  0.927650  0.760380  0.630700  1.0
  Pd  Pd2741  1  0.433370  0.308120  0.141460  1.0
  Pd  Pd2742  1  0.882950  0.691880  0.858540  1.0
  Pd  Pd2743  1  0.324830  0.808120  0.358540  1.0
  Pd  Pd2744  1  0.491490  0.191880  0.641460  1.0
  Pd  Pd2745  1  0.511310  0.742760  0.000740  1.0
  Pd  Pd2746  1  0.254810  0.257240  0.999260  1.0
  Pd  Pd2747  1  0.262050  0.242760  0.499260  1.0
  Pd  Pd2748  1  0.004070  0.757240  0.500740  1.0
  Pd  Pd2749  1  0.520590  0.258640  0.010420  1.0
  Pd  Pd2750  1  0.789650  0.741360  0.989580  1.0
  Pd  Pd2751  1  0.281010  0.758640  0.489580  1.0
  Pd  Pd2752  1  0.529230  0.241360  0.510420  1.0
  Pd  Pd2753  1  0.229040  0.627440  0.060940  1.0
  Pd  Pd2754  1  0.917420  0.372560  0.939060  1.0
  Pd  Pd2755  1  0.039980  0.127440  0.439060  1.0
  Pd  Pd2756  1  0.606480  0.872560  0.560940  1.0
  Pd  Pd2757  1  0.398560  0.564800  0.720580  1.0
  Pd  Pd2758  1  0.683940  0.435200  0.279420  1.0
  Pd  Pd2759  1  0.869140  0.064800  0.779420  1.0
  Pd  Pd2760  1  0.713360  0.935200  0.220580  1.0
  Pd  Pd2761  1  0.753010  0.238060  0.667460  1.0
  Pd  Pd2762  1  0.658530  0.761940  0.332540  1.0
  Pd  Pd2763  1  0.170470  0.738060  0.832540  1.0
  Pd  Pd2764  1  0.741070  0.261940  0.167460  1.0
  Pd  Pd2765  1  0.935090  0.396880  0.729260  1.0
  Pd  Pd2766  1  0.061230  0.603120  0.270740  1.0
  Pd  Pd2767  1  0.414350  0.896880  0.770740  1.0
  Pd  Pd2768  1  0.081970  0.103120  0.229260  1.0
  Pd  Pd2769  1  0.499450  0.551460  0.593440  1.0
  Pd  Pd2770  1  0.644350  0.448540  0.406560  1.0
  Pd  Pd2771  1  0.842890  0.051460  0.906560  1.0
  Pd  Pd2772  1  0.800910  0.948540  0.093440  1.0
  Pd  Pd2773  1  0.655180  0.714780  0.664780  1.0
  Pd  Pd2774  1  0.034740  0.285220  0.335220  1.0
  Pd  Pd2775  1  0.069960  0.214780  0.835220  1.0
  Pd  Pd2776  1  0.119960  0.785220  0.164780  1.0
  Pd  Pd2777  1  0.998190  0.389240  0.605780  1.0
  Pd  Pd2778  1  0.993210  0.610760  0.394220  1.0
  Pd  Pd2779  1  0.353970  0.889240  0.894220  1.0
  Pd  Pd2780  1  0.137430  0.110760  0.105780  1.0
