
#######################################################################
#
#                 Cambridge Crystallographic Data Centre
#                                CCDC 
#
#######################################################################
#
# If this CIF has been generated from an entry in the Cambridge 
# Structural Database, then it will include bibliographic, chemical, 
# crystal, experimental, refinement or atomic coordinate data resulting 
# from the CCDC's data processing and validation procedures.
#
#######################################################################

data_ABIGEY
_chemical_formula_moiety         
'C200 H224 N48 O8 Pd12 24+,C34 H26 O5,24(N1 O3 1-),22.5(H2 O1)'
_chemical_name_systematic        
"tetrakis(\m~6~-4,4'-bis(5-(5-(Pyrid-3-yl)pyrid-3-yl)pyrid-3-ylmethoxy)biphenyl)-dodecakis(ethylenediamine-palladium) (diethylene glycol bis(2-anthracenecarboxylate)) clathrate tetracosanitrate hydrate"
_symmetry_cell_setting           orthorhombic
_symmetry_space_group_name_H-M   'F d d 2'
_symmetry_Int_Tables_number      43
_space_group_name_Hall           'F 2 -2d'
loop_
_symmetry_equiv_pos_site_id
_symmetry_equiv_pos_as_xyz
1 x,y,z
2 -x,-y,z
3 1/4+x,1/4-y,1/4+z
4 1/4-x,1/4+y,1/4+z
5 x,1/2+y,1/2+z
6 -x,1/2-y,1/2+z
7 1/4+x,3/4-y,3/4+z
8 1/4-x,3/4+y,3/4+z
9 1/2+x,y,1/2+z
10 1/2-x,-y,1/2+z
11 3/4+x,1/4-y,3/4+z
12 3/4-x,1/4+y,3/4+z
13 1/2+x,1/2+y,z
14 1/2-x,1/2-y,z
15 3/4+x,3/4-y,1/4+z
16 3/4-x,3/4+y,1/4+z
_cell_length_a                   49.2540(12)
_cell_length_b                   122.86(4)
_cell_length_c                   27.6620(5)
_cell_angle_alpha                90
_cell_angle_beta                 90
_cell_angle_gamma                90
_cell_volume                     167392
_exptl_crystal_colour            yellow
_exptl_crystal_description       block
_chemical_melting_point          '275 deg.C(dec.)'
_cell_formula_units_Z            16
loop_
_atom_site_label
_atom_site_type_symbol
_atom_site_fract_x
_atom_site_fract_y
_atom_site_fract_z
Pd1 Pd -0.69678(6) 1.033528(19) 0.53513(13)
N1 N -0.6557(7) 1.0327(3) 0.5258(13)
H1 H -0.6476 1.0375 0.5466
H2 H -0.6499 1.0258 0.5341
C1 C -0.6456(12) 1.0353(6) 0.471(3)
H3 H -0.6420 1.0432 0.4661
H4 H -0.6295 1.0310 0.4618
C2 C -0.6710(9) 1.0316(3) 0.4449(16)
H5 H -0.6711 1.0354 0.4132
H6 H -0.6686 1.0238 0.4382
N2 N -0.6981(7) 1.0329(2) 0.4656(12)
H7 H -0.7089 1.0272 0.4562
H8 H -0.7057 1.0393 0.4540
Pd2 Pd -0.86981(10) 1.06535(4) 0.62681(16)
N3 N -0.9024(6) 1.0665(3) 0.6697(11)
H9 H -0.9012 1.0616 0.6948
H10 H -0.9037 1.0734 0.6825
C3 C -0.9260(8) 1.0641(6) 0.6395(19)
H11 H -0.9423 1.0677 0.6534
H12 H -0.9294 1.0562 0.6393
C4 C -0.9219(10) 1.0680(6) 0.5886(18)
H13 H -0.9360 1.0648 0.5675
H14 H -0.9241 1.0760 0.5875
N4 N -0.8958(7) 1.0651(4) 0.5711(10)
H15 H -0.8903 1.0700 0.5478
H16 H -0.8963 1.0583 0.5575
Pd3 Pd -0.65406(8) 1.07073(3) 0.84184(17)
N5 N -0.6259(6) 1.0740(3) 0.8928(9)
H17 H -0.6330 1.0786 0.9157
H18 H -0.6208 1.0676 0.9080
C5 C -0.6020(10) 1.0791(6) 0.8698(18)
H19 H -0.5856 1.0775 0.8893
H20 H -0.6045 1.0871 0.8691
C6 C -0.5978(7) 1.0750(4) 0.8186(16)
H21 H -0.5892 1.0677 0.8195
H22 H -0.5854 1.0799 0.8009
N6 N -0.6252(6) 1.0743(3) 0.7923(10)
H23 H -0.6246 1.0690 0.7689
H24 H -0.6290 1.0808 0.7775
Pd4 Pd -0.87138(8) 1.00037(4) 0.61694(14)
N7 N -0.9075(6) 0.9983(3) 0.6511(11)
H25 H -0.9067 0.9919 0.6686
H26 H -0.9098 1.0039 0.6726
C7 C -0.9312(9) 0.9978(5) 0.6194(19)
H27 H -0.9453 1.0028 0.6317
H28 H -0.9387 0.9903 0.6196
C8 C -0.9222(10) 1.0015(6) 0.559(2)
H29 H -0.9335 0.9975 0.5355
H30 H -0.9247 1.0094 0.5541
N8 N -0.8923(8) 0.9984(4) 0.5538(11)
H31 H -0.8845 1.0026 0.5301
H32 H -0.8911 0.9912 0.5442
Pd5 Pd -0.62932(6) 1.00521(3) 0.84488(14)
N9 N -0.6114(5) 1.0054(2) 0.9102(7)
H33 H -0.6211 1.0098 0.9310
H34 H -0.6109 0.9985 0.9229
C9 C -0.5834(9) 1.0097(7) 0.9049(18)
H35 H -0.5721 1.0073 0.9326
H36 H -0.5837 1.0178 0.9044
C10 C -0.5712(7) 1.0054(7) 0.8579(19)
H37 H -0.5664 0.9976 0.8616
H38 H -0.5544 1.0095 0.8503
N10 N -0.5918(5) 1.0068(3) 0.8166(11)
H39 H -0.5889 1.0015 0.7933
H40 H -0.5898 1.0135 0.8024
Pd6 Pd -0.81372(5) 1.03047(2) 0.92677(12)
N11 N -0.8131(5) 1.03039(19) 0.9935(9)
H41 H -0.8029 1.0245 1.0033
H42 H -0.8042 1.0366 1.0036
C11 C -0.8403(9) 1.0299(3) 1.0200(16)
H43 H -0.8392 1.0247 1.0472
H44 H -0.8450 1.0372 1.0330
C12 C -0.8594(10) 1.0266(4) 0.9877(18)
H45 H -0.8767 1.0300 0.9979
H46 H -0.8615 1.0187 0.9921
N12 N -0.8565(6) 1.0288(2) 0.9281(11)
H47 H -0.8653 1.0350 0.9183
H48 H -0.8624 1.0229 0.9101
Pd7 Pd -0.78240(5) 0.86029(2) 0.95875(13)
N13 N -0.8160(6) 0.8597(3) 1.0014(12)
H49 H -0.8247 0.8663 0.9993
H50 H -0.8275 0.8545 0.9892
C13 C -0.8113(10) 0.8573(5) 1.0521(17)
H51 H -0.8223 0.8509 1.0616
H52 H -0.8174 0.8636 1.0719
C14 C -0.7763(13) 0.8546(7) 1.064(2)
H53 H -0.7708 0.8579 1.0949
H54 H -0.7730 0.8467 1.0656
N14 N -0.7603(6) 0.8596(3) 1.0222(11)
H55 H -0.7449 0.8555 1.0170
H56 H -0.7550 0.8665 1.0306
Pd8 Pd -0.61903(5) 0.83373(2) 0.79423(13)
N15 N -0.5780(4) 0.8337(2) 0.7812(10)
H57 H -0.5727 0.8269 0.7704
H58 H -0.5740 0.8387 0.7576
C15 C -0.5633(6) 0.8364(3) 0.8258(13)
H59 H -0.5622 0.8444 0.8296
H60 H -0.5445 0.8335 0.8241
C16 C -0.5781(7) 0.8314(4) 0.8687(14)
H61 H -0.5708 0.8345 0.8992
H62 H -0.5753 0.8234 0.8691
N16 N -0.6087(5) 0.8339(2) 0.8651(7)
H63 H -0.6123 0.8406 0.8783
H64 H -0.6185 0.8288 0.8818
Pd9 Pd -0.69844(7) 0.86463(3) 0.50184(15)
N17 N -0.6688(6) 0.8616(3) 0.4523(12)
H65 H -0.6544 0.8662 0.4585
H66 H -0.6627 0.8546 0.4569
C17 C -0.6763(11) 0.8628(5) 0.4018(17)
H67 H -0.6675 0.8570 0.3824
H68 H -0.6700 0.8699 0.3896
C18 C -0.7123(14) 0.8618(7) 0.3958(18)
H69 H -0.7188 0.8669 0.3704
H70 H -0.7176 0.8543 0.3866
N18 N -0.7249(7) 0.8648(4) 0.4442(12)
H71 H -0.7388 0.8600 0.4506
H72 H -0.7323 0.8716 0.4418
Pd10 Pd -0.77573(8) 0.79672(4) 0.9281(2)
N19 N -0.7494(9) 0.7946(3) 0.9831(16)
H73 H -0.7458 0.7874 0.9877
H74 H -0.7334 0.7982 0.9773
C19 C -0.7636(14) 0.7992(7) 1.0253(19)
H75 H -0.7637 0.8073 1.0233
H76 H -0.7541 0.7971 1.0554
C20 C -0.7923(14) 0.7950(8) 1.0262(16)
H77 H -0.7923 0.7875 1.0392
H78 H -0.8033 0.7996 1.0481
N20 N -0.8044(7) 0.7950(2) 0.9796(14)
H79 H -0.8167 0.8007 0.9774
H80 H -0.8136 0.7886 0.9749
Pd11 Pd -0.85739(6) 0.83239(2) 0.65504(14)
N21 N -0.8976(4) 0.8289(3) 0.6637(12)
H81 H -0.8995 0.8220 0.6761
H82 H -0.9052 0.8337 0.6852
C21 C -0.9117(7) 0.8296(5) 0.6167(17)
H83 H -0.9169 0.8372 0.6101
H84 H -0.9284 0.8251 0.6172
C22 C -0.8925(11) 0.8255(6) 0.5773(17)
H85 H -0.9002 0.8269 0.5449
H86 H -0.8894 0.8176 0.5809
N22 N -0.8656(7) 0.8317(3) 0.5836(7)
H87 H -0.8672 0.8386 0.5711
H88 H -0.8518 0.8282 0.5675
Pd12 Pd -0.69462(10) 0.80289(5) 0.5043(2)
N23 N -0.6720(7) 0.8000(4) 0.4495(15)
H89 H -0.6560 0.8038 0.4528
H90 H -0.6678 0.7927 0.4488
C23 C -0.6850(13) 0.8031(9) 0.404(2)
H91 H -0.6763 0.7991 0.3766
H92 H -0.6828 0.8110 0.3979
C24 C -0.7139(12) 0.8003(6) 0.406(2)
H93 H -0.7163 0.7923 0.4035
H94 H -0.7240 0.8038 0.3799
N24 N -0.7247(8) 0.8041(5) 0.4551(18)
H95 H -0.7393 0.8000 0.4644
H96 H -0.7304 0.8113 0.4528
N25 N -0.8432(4) 1.06359(18) 0.6869(7)
C25 C -0.8262(5) 1.07215(15) 0.6995(9)
H97 H -0.8267 1.0788 0.6816
C26 C -0.8084(5) 1.07106(17) 0.7383(10)
H98 H -0.7968 1.0769 0.7469
C27 C -0.8077(5) 1.0614(2) 0.7645(8)
H99 H -0.7956 1.0607 0.7910
C28 C -0.8248(5) 1.05285(15) 0.7519(9)
C29 C -0.8425(4) 1.05394(15) 0.7131(9)
H100 H -0.8541 1.0481 0.7044
C30 C -0.8237(5) 1.04125(14) 0.7774(8)
C31 C -0.8195(4) 1.04121(13) 0.8271(8)
H101 H -0.8185 1.0479 0.8443
N26 N -0.8168(4) 1.03140(17) 0.8516(6)
C32 C -0.8183(4) 1.02162(13) 0.8265(8)
H102 H -0.8164 1.0149 0.8432
C33 C -0.8225(5) 1.02166(14) 0.7768(8)
C34 C -0.8252(5) 1.03148(19) 0.7522(6)
H103 H -0.8281 1.0315 0.7183
C35 C -0.8280(7) 1.0103(3) 0.7487(14)
C36 C -0.8452(5) 1.0099(2) 0.7061(10)
H104 H -0.8530 1.0165 0.6948
N27 N -0.8509(6) 1.0007(2) 0.6813(11)
C37 C -0.8363(7) 0.9916(2) 0.6969(13)
H105 H -0.8357 0.9855 0.6756
C38 C -0.8227(7) 0.9905(3) 0.7400(15)
C39 C -0.8189(7) 1.0000(2) 0.7679(13)
H106 H -0.8105 0.9996 0.7988
C40 C -0.8106(7) 0.9792(2) 0.7651(13)
H107 H -0.7905 0.9791 0.7648
H108 H -0.8171 0.9784 0.7988
O1 O -0.8221(5) 0.97032(17) 0.7328(8)
C41 C -0.8212(5) 0.95971(14) 0.7530(9)
C42 C -0.8376(5) 0.9523(2) 0.7287(8)
H109 H -0.8491 0.9548 0.7033
C43 C -0.8373(5) 0.94139(18) 0.7415(9)
H110 H -0.8485 0.9363 0.7249
C44 C -0.8205(5) 0.93783(13) 0.7787(10)
C45 C -0.8040(4) 0.94521(17) 0.8030(8)
H111 H -0.7926 0.9428 0.8284
C46 C -0.8044(4) 0.95615(15) 0.7902(8)
H112 H -0.7931 0.9612 0.8068
C47 C -0.8218(5) 0.92472(13) 0.7952(9)
C48 C -0.8290(5) 0.91657(18) 0.7628(7)
H113 H -0.8325 0.9183 0.7299
C49 C -0.8310(5) 0.90585(15) 0.7784(8)
H114 H -0.8359 0.9003 0.7562
C50 C -0.8258(5) 0.90328(13) 0.8264(9)
C51 C -0.8186(5) 0.91143(19) 0.8589(7)
H115 H -0.8151 0.9097 0.8917
C52 C -0.8166(5) 0.92215(16) 0.8432(8)
H116 H -0.8117 0.9277 0.8654
O2 O -0.8280(4) 0.89200(14) 0.8426(7)
C53 C -0.8341(6) 0.88344(17) 0.8104(10)
H117 H -0.8230 0.8843 0.7809
H118 H -0.8534 0.8840 0.8007
C54 C -0.8292(6) 0.87255(19) 0.8315(11)
C55 C -0.8159(6) 0.8727(2) 0.8797(12)
H119 H -0.8132 0.8792 0.8975
N28 N -0.8070(5) 0.8616(2) 0.8986(10)
C56 C -0.8138(6) 0.8525(2) 0.8740(12)
H120 H -0.8082 0.8457 0.8868
C57 C -0.8303(6) 0.8525(2) 0.8259(11)
C58 C -0.8401(6) 0.86268(19) 0.8101(10)
H121 H -0.8537 0.8631 0.7857
C59 C -0.8374(4) 0.84133(12) 0.8009(7)
C60 C -0.8443(4) 0.84132(11) 0.7521(7)
H122 H -0.8460 0.8480 0.7352
N29 N -0.8486(4) 0.83152(14) 0.7282(5)
C61 C -0.8460(4) 0.82174(11) 0.7530(7)
H123 H -0.8490 0.8150 0.7367
C62 C -0.8392(4) 0.82175(12) 0.8018(7)
C63 C -0.8348(5) 0.83155(17) 0.8257(5)
H124 H -0.8302 0.8316 0.8590
C64 C -0.8355(5) 0.80958(15) 0.8281(8)
C65 C -0.8147(4) 0.80853(15) 0.8617(9)
H125 H -0.8036 0.8146 0.8693
N30 N -0.8101(4) 0.79858(19) 0.8841(8)
C66 C -0.8263(5) 0.78967(14) 0.8729(9)
H126 H -0.8232 0.7829 0.8882
C67 C -0.8471(5) 0.79071(16) 0.8393(10)
H127 H -0.8582 0.7846 0.8317
C68 C -0.8517(4) 0.8007(2) 0.8169(8)
H128 H -0.8660 0.8014 0.7939
N31 N -0.8365(4) 1.0646(2) 0.5784(9)
C69 C -0.8275(5) 1.07382(16) 0.5538(9)
H129 H -0.8366 1.0806 0.5577
C70 C -0.8051(5) 1.07311(15) 0.5234(8)
H130 H -0.7989 1.0794 0.5066
C71 C -0.7917(4) 1.06323(18) 0.5177(8)
H131 H -0.7764 1.0627 0.4970
C72 C -0.8007(5) 1.05406(14) 0.5424(9)
C73 C -0.8232(5) 1.05477(17) 0.5727(9)
H132 H -0.8293 1.0485 0.5895
C74 C -0.7813(4) 1.04318(13) 0.5405(8)
C75 C -0.7531(4) 1.04338(10) 0.5408(7)
H133 H -0.7437 1.0501 0.5410
N32 N -0.7385(3) 1.03369(13) 0.5409(7)
C76 C -0.7522(4) 1.02379(10) 0.5407(8)
H134 H -0.7422 1.0172 0.5407
C77 C -0.7804(4) 1.02359(13) 0.5403(9)
C78 C -0.7949(3) 1.03328(17) 0.5402(9)
H135 H -0.8142 1.0331 0.5400
C79 C -0.7967(5) 1.01104(14) 0.5514(9)
C80 C -0.8227(5) 1.01083(14) 0.5708(8)
H136 H -0.8317 1.0174 0.5784
N33 N -0.8355(4) 1.00093(18) 0.5793(8)
C81 C -0.8223(5) 0.99124(14) 0.5682(9)
H137 H -0.8311 0.9845 0.5739
C82 C -0.7963(5) 0.99146(15) 0.5487(9)
C83 C -0.7835(4) 1.00136(19) 0.5403(9)
H138 H -0.7657 1.0015 0.5270
C84 C -0.7819(9) 0.9797(3) 0.5417(17)
H139 H -0.7930 0.9750 0.5206
H140 H -0.7637 0.9806 0.5271
O3 O -0.7797(5) 0.97492(18) 0.5926(10)
C85 C -0.7731(7) 0.96325(18) 0.5963(13)
C86 C -0.7579(6) 0.9572(3) 0.5637(10)
H141 H -0.7514 0.9604 0.5348
C87 C -0.7522(7) 0.9463(3) 0.5733(12)
H142 H -0.7418 0.9422 0.5511
C88 C -0.7617(7) 0.94152(18) 0.6156(14)
C89 C -0.7769(6) 0.9476(3) 0.6482(10)
H143 H -0.7835 0.9443 0.6770
C90 C -0.7826(6) 0.9585(3) 0.6385(12)
H144 H -0.7930 0.9626 0.6608
C91 C -0.7578(7) 0.92850(16) 0.6228(11)
C92 C -0.7330(6) 0.9237(3) 0.6115(12)
H145 H -0.7183 0.9281 0.6007
C93 C -0.7297(5) 0.9125(3) 0.6160(12)
H146 H -0.7128 0.9093 0.6083
C94 C -0.7512(7) 0.90611(17) 0.6318(11)
C95 C -0.7760(5) 0.9109(2) 0.6431(10)
H147 H -0.7907 0.9065 0.6539
C96 C -0.7793(5) 0.9221(2) 0.6386(10)
H148 H -0.7962 0.9254 0.6463
O4 O -0.7450(6) 0.8939(2) 0.6335(11)
C97 C -0.7672(7) 0.88612(19) 0.6324(12)
H149 H -0.7826 0.8894 0.6143
H150 H -0.7734 0.8848 0.6659
C98 C -0.7597(4) 0.87526(13) 0.6090(8)
C99 C -0.7396(4) 0.87538(13) 0.5738(8)
H151 H -0.7311 0.8820 0.5651
N34 N -0.7319(4) 0.86575(17) 0.5511(7)
C100 C -0.7444(5) 0.85600(13) 0.5638(8)
H152 H -0.7392 0.8494 0.5483
C101 C -0.7645(4) 0.85589(13) 0.5991(8)
C102 C -0.7721(4) 0.86552(17) 0.6217(7)
H153 H -0.7859 0.8654 0.6458
C103 C -0.7765(4) 0.84388(14) 0.6127(8)
C104 C -0.8034(4) 0.84339(13) 0.6280(8)
H154 H -0.8136 0.8499 0.6317
N35 N -0.8153(3) 0.83338(16) 0.6378(7)
C105 C -0.8004(4) 0.82386(12) 0.6323(8)
H155 H -0.8086 0.8170 0.6389
C106 C -0.7736(4) 0.82434(14) 0.6170(9)
C107 C -0.7616(3) 0.83436(19) 0.6072(8)
H156 H -0.7433 0.8347 0.5968
C108 C -0.7557(6) 0.81293(17) 0.6028(11)
C109 C -0.7366(6) 0.8115(2) 0.5664(10)
H157 H -0.7327 0.8173 0.5448
N36 N -0.7233(6) 0.8016(3) 0.5614(11)
C110 C -0.7290(7) 0.7931(2) 0.5929(13)
H158 H -0.7199 0.7863 0.5895
C111 C -0.7481(6) 0.79452(19) 0.6294(11)
H159 H -0.7521 0.7887 0.6509
C112 C -0.7615(5) 0.8044(2) 0.6343(10)
H160 H -0.7746 0.8054 0.6592
N37 N -0.6803(5) 1.0682(2) 0.7790(8)
C113 C -0.7007(5) 1.07545(16) 0.7663(9)
H161 H -0.7032 1.0820 0.7843
C114 C -0.7176(5) 1.07318(19) 0.7273(10)
H162 H -0.7315 1.0781 0.7186
C115 C -0.7140(5) 1.0636(2) 0.7010(8)
H163 H -0.7255 1.0621 0.6743
C116 C -0.6936(6) 1.05639(17) 0.7137(10)
C117 C -0.6767(5) 1.05866(18) 0.7527(10)
H164 H -0.6627 1.0537 0.7614
C118 C -0.6869(5) 1.04446(14) 0.6862(8)
C119 C -0.6936(4) 1.04427(13) 0.6374(8)
H165 H -0.6986 1.0508 0.6215
N38 N -0.6929(4) 1.03452(17) 0.6120(6)
C120 C -0.6855(4) 1.02495(13) 0.6353(8)
H166 H -0.6850 1.0183 0.6180
C121 C -0.6788(4) 1.02514(14) 0.6841(8)
C122 C -0.6795(5) 1.03489(19) 0.7096(6)
H167 H -0.6749 1.0350 0.7429
C123 C -0.6698(4) 1.01371(10) 0.7091(8)
C124 C -0.6571(4) 1.01437(11) 0.7538(8)
H168 H -0.6546 1.0212 0.7689
N39 N -0.6479(5) 1.00497(14) 0.7765(6)
C125 C -0.6515(4) 0.99490(11) 0.7544(5)
H169 H -0.6452 0.9885 0.7699
C126 C -0.6642(2) 0.99425(10) 0.7097(5)
C127 C -0.6734(4) 1.00365(12) 0.6871(6)
H170 H -0.6821 1.0032 0.6565
C128 C -0.6637(4) 0.98426(11) 0.6824(6)
H171 H -0.6543 0.9856 0.6512
H172 H -0.6826 0.9820 0.6750
O5 O -0.6501(4) 0.97548(10) 0.7076(8)
C129 C -0.6502(6) 0.96370(14) 0.6898(9)
C130 C -0.6313(5) 0.9567(2) 0.7102(8)
H173 H -0.6194 0.9592 0.7347
C131 C -0.6299(4) 0.94592(18) 0.6948(9)
H174 H -0.6170 0.9411 0.7088
C132 C -0.6473(5) 0.94220(12) 0.6590(8)
C133 C -0.6663(4) 0.94923(16) 0.6385(7)
H175 H -0.6782 0.9467 0.6140
C134 C -0.6677(4) 0.95998(15) 0.6540(9)
H176 H -0.6806 0.9648 0.6400
C135 C -0.6477(5) 0.92956(12) 0.6445(9)
C136 C -0.6382(5) 0.92228(16) 0.6790(7)
H177 H -0.6326 0.9248 0.7099
C137 C -0.6368(4) 0.91123(15) 0.6684(7)
H178 H -0.6303 0.9063 0.6920
C138 C -0.6450(4) 0.90747(12) 0.6233(8)
C139 C -0.6544(4) 0.91476(17) 0.5888(7)
H179 H -0.6600 0.9122 0.5579
C140 C -0.6558(5) 0.92580(15) 0.5994(8)
H180 H -0.6623 0.9308 0.5758
O6 O -0.6475(4) 0.89595(15) 0.6083(7)
C141 C -0.6428(8) 0.88703(19) 0.6409(13)
H181 H -0.6538 0.8883 0.6703
H182 H -0.6234 0.8872 0.6507
C142 C -0.6492(4) 0.87556(13) 0.6217(8)
C143 C -0.6653(4) 0.87508(13) 0.5805(7)
H183 H -0.6710 0.8816 0.5652
N40 N -0.6729(4) 0.86506(17) 0.5617(7)
C144 C -0.6645(5) 0.85551(12) 0.5841(9)
H184 H -0.6698 0.8487 0.5712
C145 C -0.6484(5) 0.85599(13) 0.6253(8)
C146 C -0.6407(4) 0.86602(18) 0.6441(7)
H185 H -0.6297 0.8663 0.6723
C147 C -0.6375(4) 0.84473(12) 0.6501(7)
C148 C -0.6322(4) 0.84413(13) 0.6994(7)
H186 H -0.6315 0.8506 0.7182
N41 N -0.6280(4) 0.83407(17) 0.7212(6)
C149 C -0.6292(4) 0.82462(12) 0.6936(8)
H187 H -0.6263 0.8177 0.7085
C150 C -0.6345(4) 0.82522(12) 0.6444(7)
C151 C -0.6386(4) 0.83528(16) 0.6226(6)
H188 H -0.6423 0.8357 0.5889
C152 C -0.6370(5) 0.81389(15) 0.6132(9)
C153 C -0.6579(5) 0.8130(2) 0.5797(10)
H189 H -0.6700 0.8189 0.5748
N42 N -0.6610(5) 0.8034(2) 0.5534(9)
C154 C -0.6432(6) 0.79477(19) 0.5606(10)
H190 H -0.6453 0.7882 0.5426
C155 C -0.6223(5) 0.79570(17) 0.5941(11)
H191 H -0.6101 0.7898 0.5990
C156 C -0.6192(4) 0.8053(2) 0.6204(8)
H192 H -0.6049 0.8059 0.6433
N43 N -0.6838(4) 1.06732(17) 0.8896(8)
C157 C -0.6948(5) 1.07565(13) 0.9174(10)
H193 H -0.6874 1.0828 0.9154
C158 C -0.7165(6) 1.07355(19) 0.9480(9)
H194 H -0.7241 1.0793 0.9669
C159 C -0.7273(5) 1.0631(2) 0.9508(9)
H195 H -0.7422 1.0617 0.9718
C160 C -0.7163(5) 1.05478(16) 0.9231(9)
C161 C -0.6945(4) 1.05688(14) 0.8925(7)
H196 H -0.6870 1.0512 0.8735
C162 C -0.7310(4) 1.04301(11) 0.9207(7)
C163 C -0.7590(3) 1.04199(11) 0.9239(7)
H197 H -0.7700 1.0483 0.9277
N44 N -0.7710(3) 1.03175(13) 0.9216(7)
C164 C -0.7549(3) 1.02254(10) 0.9161(7)
H198 H -0.7631 1.0155 0.9145
C165 C -0.7268(3) 1.02357(12) 0.9128(7)
C166 C -0.7149(3) 1.03380(14) 0.9152(7)
H199 H -0.6957 1.0345 0.9130
C167 C -0.7093(4) 1.01231(12) 0.9073(7)
C168 C -0.6839(4) 1.01360(11) 0.8862(7)
H200 H -0.6775 1.0207 0.8784
N45 N -0.6679(3) 1.00454(15) 0.8766(7)
C169 C -0.6773(4) 0.99418(12) 0.8880(7)
H201 H -0.6664 0.9880 0.8814
C170 C -0.7027(4) 0.99290(11) 0.9090(7)
C171 C -0.7187(3) 1.00196(14) 0.9187(7)
H202 H -0.7361 1.0011 0.9331
C172 C -0.7152(7) 0.9819(2) 0.9127(13)
H203 H -0.7235 0.9798 0.8814
H204 H -0.7296 0.9818 0.9377
O7 O -0.6925(5) 0.97361(17) 0.9265(9)
C173 C -0.6990(5) 0.96152(12) 0.9158(8)
C174 C -0.7247(4) 0.95777(17) 0.9030(9)
H205 H -0.7394 0.9627 0.9005
C175 C -0.7288(4) 0.94677(19) 0.8939(9)
H206 H -0.7463 0.9442 0.8852
C176 C -0.7072(5) 0.93951(13) 0.8976(9)
C177 C -0.6816(4) 0.94325(16) 0.9104(9)
H207 H -0.6669 0.9383 0.9129
C178 C -0.6775(4) 0.95426(17) 0.9195(8)
H208 H -0.6600 0.9568 0.9282
C179 C -0.7106(5) 0.92635(13) 0.8892(8)
C180 C -0.7363(4) 0.92182(19) 0.8848(11)
H209 H -0.7518 0.9264 0.8834
C181 C -0.7393(4) 0.9106(2) 0.8824(11)
H210 H -0.7569 0.9075 0.8794
C182 C -0.7166(6) 0.90388(13) 0.8844(9)
C183 C -0.6909(5) 0.90841(17) 0.8888(9)
H211 H -0.6754 0.9038 0.8901
C184 C -0.6879(4) 0.91964(18) 0.8912(9)
H212 H -0.6703 0.9227 0.8942
O8 O -0.7229(6) 0.8933(2) 0.8721(11)
C185 C -0.7030(8) 0.8845(2) 0.8745(17)
H213 H -0.6922 0.8854 0.9044
H214 H -0.6904 0.8853 0.8468
C186 C -0.7149(5) 0.87305(14) 0.8738(9)
C187 C -0.7373(4) 0.87231(11) 0.9043(7)
H215 H -0.7449 0.8787 0.9179
N46 N -0.7485(3) 0.86220(13) 0.9147(6)
C188 C -0.7374(4) 0.85283(10) 0.8948(7)
H216 H -0.7450 0.8459 0.9019
C189 C -0.7150(4) 0.85357(15) 0.8643(8)
C190 C -0.7038(4) 0.8637(2) 0.8539(9)
H217 H -0.6885 0.8642 0.8331
C191 C -0.7013(4) 0.84220(13) 0.8452(8)
C192 C -0.6749(4) 0.84294(14) 0.8276(8)
H218 H -0.6662 0.8498 0.8256
N47 N -0.6612(4) 0.83360(19) 0.8131(9)
C193 C -0.6739(5) 0.82352(15) 0.8160(9)
H219 H -0.6646 0.8171 0.8061
C194 C -0.7003(5) 0.82278(12) 0.8335(8)
C195 C -0.7140(4) 0.83212(17) 0.8481(8)
H220 H -0.7320 0.8316 0.8601
C196 C -0.7183(5) 0.81141(19) 0.8305(11)
C197 C -0.7358(5) 0.80899(16) 0.8683(9)
H221 H -0.7384 0.8141 0.8938
N48 N -0.7496(5) 0.79913(18) 0.8689(9)
C198 C -0.7459(6) 0.79168(16) 0.8317(11)
H222 H -0.7554 0.7849 0.8321
C199 C -0.7283(7) 0.7941(2) 0.7938(9)
H223 H -0.7258 0.7890 0.7684
C200 C -0.7145(6) 0.8040(3) 0.7932(10)
H224 H -0.7025 0.8056 0.7673
O9 O -0.6984(5) 0.97438(16) 0.8051(9)
O10 O -0.7211(5) 0.9636(2) 0.7455(10)
O11 O -0.7112(5) 0.9345(2) 0.7582(10)
O12 O -0.7201(5) 0.9049(2) 0.7464(9)
O13 O -0.6811(7) 0.8958(2) 0.7437(11)
C201 C -0.7285(6) 0.9833(3) 0.7544(14)
C202 C -0.7304(5) 0.9930(3) 0.7654(14)
H225 H -0.7230 0.9934 0.7971
C203 C -0.7378(5) 1.0039(2) 0.7554(12)
C204 C -0.7383(6) 1.0140(2) 0.7754(11)
H226 H -0.7316 1.0143 0.8075
C205 C -0.7468(6) 1.0235(2) 0.7572(13)
C206 C -0.7456(8) 1.0352(3) 0.7782(17)
H227 H -0.7401 1.0359 0.8109
C207 C -0.7520(7) 1.0446(3) 0.7530(15)
H228 H -0.7482 1.0516 0.7661
C208 C -0.7641(9) 1.0434(4) 0.7083(19)
H229 H -0.7707 1.0498 0.6927
C209 C -0.7672(8) 1.0329(3) 0.6833(15)
H230 H -0.7752 1.0323 0.6521
C210 C -0.7574(7) 1.0234(3) 0.7094(14)
C211 C -0.7599(7) 1.0128(3) 0.6779(15)
H231 H -0.7661 1.0125 0.6454
C212 C -0.7507(7) 1.0031(3) 0.7079(14)
C213 C -0.7514(8) 0.9915(3) 0.6795(16)
H232 H -0.7572 0.9908 0.6469
C214 C -0.7435(7) 0.9834(3) 0.7051(14)
H233 H -0.7473 0.9764 0.6919
C215 C -0.7153(7) 0.9739(2) 0.7696(13)
C216 C -0.7098(9) 0.9536(3) 0.7575(16)
H234 H -0.6921 0.9531 0.7406
H235 H -0.7058 0.9538 0.7926
C217 C -0.7230(7) 0.9443(3) 0.7489(14)
H236 H -0.7281 0.9444 0.7143
H237 H -0.7401 0.9446 0.7677
C218 C -0.7270(9) 0.9255(3) 0.7466(16)
H238 H -0.7357 0.9267 0.7147
H239 H -0.7415 0.9247 0.7710
C219 C -0.7085(11) 0.9143(4) 0.7446(19)
H240 H -0.6978 0.9145 0.7144
H241 H -0.6955 0.9146 0.7717
C220 C -0.7083(9) 0.8953(3) 0.7457(14)
C221 C -0.7208(8) 0.8848(3) 0.7431(10)
C222 C -0.7113(8) 0.8758(3) 0.7295(11)
H242 H -0.6937 0.8765 0.7160
C223 C -0.7209(6) 0.8641(2) 0.7293(8)
C224 C -0.7088(6) 0.8546(2) 0.7126(10)
H243 H -0.6908 0.8544 0.7004
C225 C -0.7256(7) 0.8449(2) 0.7152(11)
C226 C -0.7112(7) 0.8348(3) 0.7037(12)
H244 H -0.6923 0.8353 0.6969
C227 C -0.7224(8) 0.8247(3) 0.7018(14)
H245 H -0.7146 0.8188 0.6846
C228 C -0.7505(9) 0.8237(4) 0.7317(16)
H246 H -0.7574 0.8167 0.7397
C229 C -0.7655(11) 0.8333(4) 0.7466(16)
H247 H -0.7829 0.8330 0.7616
C230 C -0.7505(7) 0.8441(2) 0.7356(12)
C231 C -0.7615(8) 0.8546(3) 0.7547(13)
H248 H -0.7786 0.8542 0.7705
C232 C -0.7505(6) 0.8645(2) 0.7523(11)
C233 C -0.7617(9) 0.8757(3) 0.7658(13)
H249 H -0.7801 0.8760 0.7758
C234 C -0.7477(8) 0.8850(3) 0.7646(13)
H250 H -0.7551 0.8915 0.7775
N49 N -0.3750(9) 0.8783(4) 1.5240(14)
O14 O -0.3666(10) 0.8743(4) 1.5673(15)
O15 O -0.3690(8) 0.8720(3) 1.4866(13)
O16 O -0.3967(6) 0.8835(2) 1.5256(10)
N50 N -0.3910(6) 0.7130(3) 1.5943(16)
O17 O -0.3802(7) 0.7030(3) 1.5925(17)
O18 O -0.4161(5) 0.71345(19) 1.5793(10)
O19 O -0.3752(7) 0.7211(3) 1.5940(18)
N51 N -0.3842(8) 0.7726(3) 1.7190(13)
O20 O -0.3850(8) 0.7797(2) 1.7555(12)
O21 O -0.3903(8) 0.7625(2) 1.7313(13)
O22 O -0.3689(8) 0.7741(3) 1.6836(12)
N52 N -0.4680(7) 0.7393(2) 1.1410(9)
O23 O -0.4702(6) 0.74849(19) 1.1153(9)
O24 O -0.4723(6) 0.73039(18) 1.1158(9)
O25 O -0.4694(5) 0.73997(15) 1.1862(8)
N53 N -0.5442(6) 0.7442(2) 1.8083(11)
O26 O -0.5704(6) 0.7410(3) 1.8125(16)
O27 O -0.5402(5) 0.75381(19) 1.8288(9)
O28 O -0.5315(4) 0.74115(15) 1.7713(8)
N54 N -0.5686(5) 0.6916(2) 1.7279(10)
O29 O -0.5604(6) 0.6893(2) 1.6825(9)
O30 O -0.5929(5) 0.6886(2) 1.7406(10)
O31 O -0.5520(5) 0.69565(18) 1.7566(8)
N55 N -0.5352(6) 0.9217(3) 1.6985(11)
O32 O -0.5225(7) 0.9291(3) 1.7267(12)
O33 O -0.5613(6) 0.9201(3) 1.7082(12)
O34 O -0.5275(5) 0.92006(18) 1.6563(9)
N56 N -0.2523(15) 0.7673(5) 1.584(2)
O35 O -0.261(2) 0.7641(7) 1.628(3)
O36 O -0.2437(19) 0.7775(5) 1.583(3)
O37 O -0.261(2) 0.7623(6) 1.548(3)
N57 N -0.3293(9) 0.7083(3) 1.2121(15)
O38 O -0.3311(15) 0.7139(5) 1.1704(19)
O39 O -0.320(2) 0.7139(6) 1.249(2)
O40 O -0.3415(10) 0.6995(3) 1.2177(16)
N58 N -0.4471(5) 0.6884(2) 1.2248(10)
O41 O -0.4266(9) 0.6821(4) 1.2086(15)
O42 O -0.4580(6) 0.6946(2) 1.1912(9)
O43 O -0.4474(7) 0.6904(2) 1.2690(10)
N59 N -0.4932(11) 0.8251(4) 0.107(2)
O44 O -0.4925(14) 0.8361(4) 0.110(3)
O45 O -0.4728(13) 0.8197(5) 0.126(2)
O46 O -0.5062(13) 0.8213(5) 0.073(2)
N60 N -0.3680(13) 0.9460(4) 1.6302(19)
O47 O -0.3563(12) 0.9429(4) 1.5881(18)
O48 O -0.3772(12) 0.9560(3) 1.630(2)
O49 O -0.3755(12) 0.9390(4) 1.6601(18)
N61 N -0.635(2) 0.7410(5) 1.542(3)
O50 O -0.629(2) 0.7319(6) 1.567(3)
O51 O -0.6535(18) 0.7398(7) 1.508(3)
O52 O -0.626(2) 0.7500(6) 1.557(4)
N62 N -0.5902(9) 0.8763(3) 1.4260(16)
O53 O -0.6172(8) 0.8752(4) 1.437(2)
O54 O -0.5791(10) 0.8847(3) 1.448(2)
O55 O -0.5770(10) 0.8674(3) 1.430(2)
N63 N -0.2187(12) 0.7786(5) 1.801(2)
O56 O -0.2460(12) 0.7777(6) 1.807(3)
O57 O -0.2115(15) 0.7872(6) 1.775(3)
O58 O -0.2042(14) 0.7755(6) 1.836(3)
N65 N -0.7409(7) 0.9265(2) 1.1087(13)
O62 O -0.7407(11) 0.9155(3) 1.102(2)
O63 O -0.7260(8) 0.9298(3) 1.1447(14)
O64 O -0.7598(7) 0.9320(2) 1.0919(12)
N66 N -0.6023(15) 0.9502(6) 1.396(3)
O65 O -0.589(2) 0.9550(9) 1.433(3)
O66 O -0.600(2) 0.9549(9) 1.354(3)
O67 O -0.6229(19) 0.9448(8) 1.407(4)
N67 N -0.5940(15) 0.8104(5) 1.334(3)
O68 O -0.5937(19) 0.8209(5) 1.348(3)
O69 O -0.5728(18) 0.8075(7) 1.308(3)
O70 O -0.6075(17) 0.8036(6) 1.358(3)
N68 N -0.5976(12) 0.8452(5) 0.302(2)
O71 O -0.6056(15) 0.8480(6) 0.256(2)
O72 O -0.6074(15) 0.8515(6) 0.336(2)
O73 O -0.5743(13) 0.8411(6) 0.305(3)
N69 N -0.6901(8) 0.8350(4) 0.5024(13)
O74 O -0.7011(6) 0.8342(2) 0.5466(12)
O75 O -0.6636(8) 0.8341(4) 0.4989(16)
O76 O -0.7052(12) 0.8353(8) 0.4661(16)
O78 O -0.413(2) 0.9999(7) 1.475(3)
N71 N -0.5415(17) 0.8876(7) 0.954(5)
O80 O -0.565(2) 0.8824(11) 0.945(6)
O81 O -0.540(3) 0.8975(7) 0.936(6)
O82 O -0.522(2) 0.8824(11) 0.970(6)
O83 O -0.6805(11) 0.7909(4) 1.036(2)
O84 O -0.815(2) 0.8268(8) 0.506(4)
O85 O -0.7743(17) 0.8274(6) 0.500(3)
O86 O -0.7094(17) 0.8394(6) 0.974(3)
O87 O -0.6267(12) 0.8924(4) 0.879(2)
O88 O -0.5740(7) 0.8588(2) 1.7247(12)
O89 O -0.586(2) 0.9981(9) 1.627(4)
O90 O -0.3829(15) 0.9631(6) 1.733(3)
O91 O -0.4225(7) 0.7527(3) 1.1943(13)
O92 O -0.1053(15) 0.7576(5) 1.321(3)
O93 O -0.5115(18) 0.8749(6) 0.055(3)
O96 O -0.6401(9) 0.6989(3) 1.2350(17)
O97 O -0.6530(6) 0.9321(2) 0.7966(12)
O99 O -0.384(2) 0.7211(10) 1.710(4)
O100 O -0.5377(12) 0.8627(4) 1.717(2)
O101 O -0.587(2) 0.9717(9) 0.828(4)
O102 O -0.702(2) 0.6424(8) 1.353(4)
O103 O -0.5097(13) 0.6466(4) 1.261(2)
O104 O -0.2003(13) 0.7052(5) 1.225(2)
O105 O -0.7818(16) 0.8121(7) 1.211(3)
O106 O -0.7909(15) 0.7877(6) 1.349(3)
O107 O -0.5190(14) 0.9054(5) 1.189(3)
O108 O -0.7057(18) 0.8219(7) 1.206(3)
O109 O -0.6873(11) 0.8956(4) 1.0100(19)
O110 O -0.6635(9) 0.8947(3) 1.4699(17)
O111 O -0.3652(9) 0.8021(3) 1.5793(16)
O112 O -0.765(3) 0.8995(10) 1.516(5)
O113 O -0.7816(14) 0.8003(5) 1.173(2)
O114 O -0.6198(18) 0.9818(7) 1.631(4)
O115 O -0.3887(6) 0.78039(19) 1.5865(10)
O116 O -0.5991(6) 0.7177(2) 1.3777(12)
O117 O -0.6328(14) 0.7099(5) 1.364(3)
O118 O -0.5566(10) 0.8674(4) -0.1162(18)
O119 O -0.6218(11) 0.8586(4) 0.892(2)
O120 O -0.8864(9) 1.0893(3) 0.7123(16)
O121 O -0.6320(12) 0.9043(4) 0.794(2)
O122 O -0.2859(17) 0.8010(6) 1.781(3)
O123 O -0.642(2) 0.8057(8) 1.234(4)
O124 O -0.6163(15) 0.7796(6) 1.363(3)
O125 O -0.3219(12) 0.7694(4) 1.462(2)
O127 O -1.050(2) 1.0173(9) 0.989(4)
O128 O -0.9978(17) 1.0165(6) 1.060(3)
loop_
_geom_bond_atom_site_label_1
_geom_bond_atom_site_label_2
_geom_bond_site_symmetry_1
_geom_bond_site_symmetry_2
Pd1 N1 1_555 1_555
N1 H1 1_555 1_555
H2 N1 1_555 1_555
C1 N1 1_555 1_555
H3 C1 1_555 1_555
H4 C1 1_555 1_555
C2 C1 1_555 1_555
H5 C2 1_555 1_555
H6 C2 1_555 1_555
N2 Pd1 1_555 1_555
H7 N2 1_555 1_555
H8 N2 1_555 1_555
Pd2 N3 1_555 1_555
N3 H9 1_555 1_555
H10 N3 1_555 1_555
C3 N3 1_555 1_555
H11 C3 1_555 1_555
H12 C3 1_555 1_555
C4 C3 1_555 1_555
H13 C4 1_555 1_555
H14 C4 1_555 1_555
N4 Pd2 1_555 1_555
H15 N4 1_555 1_555
H16 N4 1_555 1_555
Pd3 N5 1_555 1_555
N5 H17 1_555 1_555
H18 N5 1_555 1_555
C5 N5 1_555 1_555
H19 C5 1_555 1_555
H20 C5 1_555 1_555
C6 C5 1_555 1_555
H21 C6 1_555 1_555
H22 C6 1_555 1_555
N6 Pd3 1_555 1_555
H23 N6 1_555 1_555
H24 N6 1_555 1_555
Pd4 N7 1_555 1_555
N7 H25 1_555 1_555
H26 N7 1_555 1_555
C7 N7 1_555 1_555
H27 C7 1_555 1_555
H28 C7 1_555 1_555
C8 C7 1_555 1_555
H29 C8 1_555 1_555
H30 C8 1_555 1_555
N8 Pd4 1_555 1_555
H31 N8 1_555 1_555
H32 N8 1_555 1_555
Pd5 N9 1_555 1_555
N9 H33 1_555 1_555
H34 N9 1_555 1_555
C9 N9 1_555 1_555
H35 C9 1_555 1_555
H36 C9 1_555 1_555
C10 C9 1_555 1_555
H37 C10 1_555 1_555
H38 C10 1_555 1_555
N10 Pd5 1_555 1_555
H39 N10 1_555 1_555
H40 N10 1_555 1_555
Pd6 N11 1_555 1_555
N11 H41 1_555 1_555
H42 N11 1_555 1_555
C11 N11 1_555 1_555
H43 C11 1_555 1_555
H44 C11 1_555 1_555
C12 C11 1_555 1_555
H45 C12 1_555 1_555
H46 C12 1_555 1_555
N12 Pd6 1_555 1_555
H47 N12 1_555 1_555
H48 N12 1_555 1_555
Pd7 N13 1_555 1_555
N13 H49 1_555 1_555
H50 N13 1_555 1_555
C13 N13 1_555 1_555
H51 C13 1_555 1_555
H52 C13 1_555 1_555
C14 C13 1_555 1_555
H53 C14 1_555 1_555
H54 C14 1_555 1_555
N14 Pd7 1_555 1_555
H55 N14 1_555 1_555
H56 N14 1_555 1_555
Pd8 N15 1_555 1_555
N15 H57 1_555 1_555
H58 N15 1_555 1_555
C15 N15 1_555 1_555
H59 C15 1_555 1_555
H60 C15 1_555 1_555
C16 C15 1_555 1_555
H61 C16 1_555 1_555
H62 C16 1_555 1_555
N16 Pd8 1_555 1_555
H63 N16 1_555 1_555
H64 N16 1_555 1_555
Pd9 N17 1_555 1_555
N17 H65 1_555 1_555
H66 N17 1_555 1_555
C17 N17 1_555 1_555
H67 C17 1_555 1_555
H68 C17 1_555 1_555
C18 C17 1_555 1_555
H69 C18 1_555 1_555
H70 C18 1_555 1_555
N18 Pd9 1_555 1_555
H71 N18 1_555 1_555
H72 N18 1_555 1_555
Pd10 N19 1_555 1_555
N19 H73 1_555 1_555
H74 N19 1_555 1_555
C19 N19 1_555 1_555
H75 C19 1_555 1_555
H76 C19 1_555 1_555
C20 C19 1_555 1_555
H77 C20 1_555 1_555
H78 C20 1_555 1_555
N20 Pd10 1_555 1_555
H79 N20 1_555 1_555
H80 N20 1_555 1_555
Pd11 N21 1_555 1_555
N21 H81 1_555 1_555
H82 N21 1_555 1_555
C21 N21 1_555 1_555
H83 C21 1_555 1_555
H84 C21 1_555 1_555
C22 C21 1_555 1_555
H85 C22 1_555 1_555
H86 C22 1_555 1_555
N22 Pd11 1_555 1_555
H87 N22 1_555 1_555
H88 N22 1_555 1_555
Pd12 N23 1_555 1_555
N23 H89 1_555 1_555
H90 N23 1_555 1_555
C23 N23 1_555 1_555
H91 C23 1_555 1_555
H92 C23 1_555 1_555
C24 C23 1_555 1_555
H93 C24 1_555 1_555
H94 C24 1_555 1_555
N24 Pd12 1_555 1_555
H95 N24 1_555 1_555
H96 N24 1_555 1_555
N25 Pd2 1_555 1_555
C25 N25 1_555 1_555
H97 C25 1_555 1_555
C26 C25 1_555 1_555
H98 C26 1_555 1_555
C27 C26 1_555 1_555
H99 C27 1_555 1_555
C28 C27 1_555 1_555
C29 N25 1_555 1_555
H100 C29 1_555 1_555
C30 C28 1_555 1_555
C31 C30 1_555 1_555
H101 C31 1_555 1_555
N26 Pd6 1_555 1_555
C32 N26 1_555 1_555
H102 C32 1_555 1_555
C33 C32 1_555 1_555
C34 C30 1_555 1_555
H103 C34 1_555 1_555
C35 C33 1_555 1_555
C36 C35 1_555 1_555
H104 C36 1_555 1_555
N27 Pd4 1_555 1_555
C37 N27 1_555 1_555
H105 C37 1_555 1_555
C38 C37 1_555 1_555
C39 C35 1_555 1_555
H106 C39 1_555 1_555
C40 C38 1_555 1_555
H107 C40 1_555 1_555
H108 C40 1_555 1_555
O1 C40 1_555 1_555
C41 O1 1_555 1_555
C42 C41 1_555 1_555
H109 C42 1_555 1_555
C43 C42 1_555 1_555
H110 C43 1_555 1_555
C44 C43 1_555 1_555
C45 C44 1_555 1_555
H111 C45 1_555 1_555
C46 C41 1_555 1_555
H112 C46 1_555 1_555
C47 C44 1_555 1_555
C48 C47 1_555 1_555
H113 C48 1_555 1_555
C49 C48 1_555 1_555
H114 C49 1_555 1_555
C50 C49 1_555 1_555
C51 C50 1_555 1_555
H115 C51 1_555 1_555
C52 C47 1_555 1_555
H116 C52 1_555 1_555
O2 C50 1_555 1_555
C53 O2 1_555 1_555
H117 C53 1_555 1_555
H118 C53 1_555 1_555
C54 C53 1_555 1_555
C55 C54 1_555 1_555
H119 C55 1_555 1_555
N28 Pd7 1_555 1_555
C56 N28 1_555 1_555
H120 C56 1_555 1_555
C57 C56 1_555 1_555
C58 C54 1_555 1_555
H121 C58 1_555 1_555
C59 C57 1_555 1_555
C60 C59 1_555 1_555
H122 C60 1_555 1_555
N29 Pd11 1_555 1_555
C61 N29 1_555 1_555
H123 C61 1_555 1_555
C62 C61 1_555 1_555
C63 C59 1_555 1_555
H124 C63 1_555 1_555
C64 C62 1_555 1_555
C65 C64 1_555 1_555
H125 C65 1_555 1_555
N30 Pd10 1_555 1_555
C66 N30 1_555 1_555
H126 C66 1_555 1_555
C67 C66 1_555 1_555
H127 C67 1_555 1_555
C68 C64 1_555 1_555
H128 C68 1_555 1_555
N31 Pd2 1_555 1_555
C69 N31 1_555 1_555
H129 C69 1_555 1_555
C70 C69 1_555 1_555
H130 C70 1_555 1_555
C71 C70 1_555 1_555
H131 C71 1_555 1_555
C72 C71 1_555 1_555
C73 N31 1_555 1_555
H132 C73 1_555 1_555
C74 C72 1_555 1_555
C75 C74 1_555 1_555
H133 C75 1_555 1_555
N32 Pd1 1_555 1_555
C76 N32 1_555 1_555
H134 C76 1_555 1_555
C77 C76 1_555 1_555
C78 C74 1_555 1_555
H135 C78 1_555 1_555
C79 C77 1_555 1_555
C80 C79 1_555 1_555
H136 C80 1_555 1_555
N33 Pd4 1_555 1_555
C81 N33 1_555 1_555
H137 C81 1_555 1_555
C82 C81 1_555 1_555
C83 C79 1_555 1_555
H138 C83 1_555 1_555
C84 C82 1_555 1_555
H139 C84 1_555 1_555
H140 C84 1_555 1_555
O3 C84 1_555 1_555
C85 O3 1_555 1_555
C86 C85 1_555 1_555
H141 C86 1_555 1_555
C87 C86 1_555 1_555
H142 C87 1_555 1_555
C88 C87 1_555 1_555
C89 C88 1_555 1_555
H143 C89 1_555 1_555
C90 C85 1_555 1_555
H144 C90 1_555 1_555
C91 C88 1_555 1_555
C92 C91 1_555 1_555
H145 C92 1_555 1_555
C93 C92 1_555 1_555
H146 C93 1_555 1_555
C94 C93 1_555 1_555
C95 C94 1_555 1_555
H147 C95 1_555 1_555
C96 C91 1_555 1_555
H148 C96 1_555 1_555
O4 C94 1_555 1_555
C97 O4 1_555 1_555
H149 C97 1_555 1_555
H150 C97 1_555 1_555
C98 C97 1_555 1_555
C99 C98 1_555 1_555
H151 C99 1_555 1_555
N34 Pd9 1_555 1_555
C100 N34 1_555 1_555
H152 C100 1_555 1_555
C101 C100 1_555 1_555
C102 C98 1_555 1_555
H153 C102 1_555 1_555
C103 C101 1_555 1_555
C104 C103 1_555 1_555
H154 C104 1_555 1_555
N35 Pd11 1_555 1_555
C105 N35 1_555 1_555
H155 C105 1_555 1_555
C106 C105 1_555 1_555
C107 C103 1_555 1_555
H156 C107 1_555 1_555
C108 C106 1_555 1_555
C109 C108 1_555 1_555
H157 C109 1_555 1_555
N36 Pd12 1_555 1_555
C110 N36 1_555 1_555
H158 C110 1_555 1_555
C111 C110 1_555 1_555
H159 C111 1_555 1_555
C112 C108 1_555 1_555
H160 C112 1_555 1_555
N37 Pd3 1_555 1_555
C113 N37 1_555 1_555
H161 C113 1_555 1_555
C114 C113 1_555 1_555
H162 C114 1_555 1_555
C115 C114 1_555 1_555
H163 C115 1_555 1_555
C116 C115 1_555 1_555
C117 N37 1_555 1_555
H164 C117 1_555 1_555
C118 C116 1_555 1_555
C119 C118 1_555 1_555
H165 C119 1_555 1_555
N38 Pd1 1_555 1_555
C120 N38 1_555 1_555
H166 C120 1_555 1_555
C121 C120 1_555 1_555
C122 C118 1_555 1_555
H167 C122 1_555 1_555
C123 C121 1_555 1_555
C124 C123 1_555 1_555
H168 C124 1_555 1_555
N39 Pd5 1_555 1_555
C125 N39 1_555 1_555
H169 C125 1_555 1_555
C126 C125 1_555 1_555
C127 C123 1_555 1_555
H170 C127 1_555 1_555
C128 C126 1_555 1_555
H171 C128 1_555 1_555
H172 C128 1_555 1_555
O5 C128 1_555 1_555
C129 O5 1_555 1_555
C130 C129 1_555 1_555
H173 C130 1_555 1_555
C131 C130 1_555 1_555
H174 C131 1_555 1_555
C132 C131 1_555 1_555
C133 C132 1_555 1_555
H175 C133 1_555 1_555
C134 C129 1_555 1_555
H176 C134 1_555 1_555
C135 C132 1_555 1_555
C136 C135 1_555 1_555
H177 C136 1_555 1_555
C137 C136 1_555 1_555
H178 C137 1_555 1_555
C138 C137 1_555 1_555
C139 C138 1_555 1_555
H179 C139 1_555 1_555
C140 C135 1_555 1_555
H180 C140 1_555 1_555
O6 C138 1_555 1_555
C141 O6 1_555 1_555
H181 C141 1_555 1_555
H182 C141 1_555 1_555
C142 C141 1_555 1_555
C143 C142 1_555 1_555
H183 C143 1_555 1_555
N40 Pd9 1_555 1_555
C144 N40 1_555 1_555
H184 C144 1_555 1_555
C145 C144 1_555 1_555
C146 C142 1_555 1_555
H185 C146 1_555 1_555
C147 C145 1_555 1_555
C148 C147 1_555 1_555
H186 C148 1_555 1_555
N41 Pd8 1_555 1_555
C149 N41 1_555 1_555
H187 C149 1_555 1_555
C150 C149 1_555 1_555
C151 C147 1_555 1_555
H188 C151 1_555 1_555
C152 C150 1_555 1_555
C153 C152 1_555 1_555
H189 C153 1_555 1_555
N42 Pd12 1_555 1_555
C154 N42 1_555 1_555
H190 C154 1_555 1_555
C155 C154 1_555 1_555
H191 C155 1_555 1_555
C156 C152 1_555 1_555
H192 C156 1_555 1_555
N43 Pd3 1_555 1_555
C157 N43 1_555 1_555
H193 C157 1_555 1_555
C158 C157 1_555 1_555
H194 C158 1_555 1_555
C159 C158 1_555 1_555
H195 C159 1_555 1_555
C160 C159 1_555 1_555
C161 N43 1_555 1_555
H196 C161 1_555 1_555
C162 C160 1_555 1_555
C163 C162 1_555 1_555
H197 C163 1_555 1_555
N44 Pd6 1_555 1_555
C164 N44 1_555 1_555
H198 C164 1_555 1_555
C165 C164 1_555 1_555
C166 C162 1_555 1_555
H199 C166 1_555 1_555
C167 C165 1_555 1_555
C168 C167 1_555 1_555
H200 C168 1_555 1_555
N45 Pd5 1_555 1_555
C169 N45 1_555 1_555
H201 C169 1_555 1_555
C170 C169 1_555 1_555
C171 C167 1_555 1_555
H202 C171 1_555 1_555
C172 C170 1_555 1_555
H203 C172 1_555 1_555
H204 C172 1_555 1_555
O7 C172 1_555 1_555
C173 O7 1_555 1_555
C174 C173 1_555 1_555
H205 C174 1_555 1_555
C175 C174 1_555 1_555
H206 C175 1_555 1_555
C176 C175 1_555 1_555
C177 C176 1_555 1_555
H207 C177 1_555 1_555
C178 C173 1_555 1_555
H208 C178 1_555 1_555
C179 C176 1_555 1_555
C180 C179 1_555 1_555
H209 C180 1_555 1_555
C181 C180 1_555 1_555
H210 C181 1_555 1_555
C182 C181 1_555 1_555
C183 C182 1_555 1_555
H211 C183 1_555 1_555
C184 C179 1_555 1_555
H212 C184 1_555 1_555
O8 C182 1_555 1_555
C185 O8 1_555 1_555
H213 C185 1_555 1_555
H214 C185 1_555 1_555
C186 C185 1_555 1_555
C187 C186 1_555 1_555
H215 C187 1_555 1_555
N46 Pd7 1_555 1_555
C188 N46 1_555 1_555
H216 C188 1_555 1_555
C189 C188 1_555 1_555
C190 C186 1_555 1_555
H217 C190 1_555 1_555
C191 C189 1_555 1_555
C192 C191 1_555 1_555
H218 C192 1_555 1_555
N47 Pd8 1_555 1_555
C193 N47 1_555 1_555
H219 C193 1_555 1_555
C194 C193 1_555 1_555
C195 C191 1_555 1_555
H220 C195 1_555 1_555
C196 C194 1_555 1_555
C197 C196 1_555 1_555
H221 C197 1_555 1_555
N48 Pd10 1_555 1_555
C198 N48 1_555 1_555
H222 C198 1_555 1_555
C199 C198 1_555 1_555
H223 C199 1_555 1_555
C200 C196 1_555 1_555
H224 C200 1_555 1_555
O9 C215 1_555 1_555
O10 C215 1_555 1_555
O11 C217 1_555 1_555
O12 C219 1_555 1_555
O13 C220 1_555 1_555
C201 C202 1_555 1_555
C202 H225 1_555 1_555
C203 C202 1_555 1_555
C204 C203 1_555 1_555
H226 C204 1_555 1_555
C205 C204 1_555 1_555
C206 C205 1_555 1_555
H227 C206 1_555 1_555
C207 C206 1_555 1_555
H228 C207 1_555 1_555
C208 C207 1_555 1_555
H229 C208 1_555 1_555
C209 C208 1_555 1_555
H230 C209 1_555 1_555
C210 C205 1_555 1_555
C211 C210 1_555 1_555
H231 C211 1_555 1_555
C212 C203 1_555 1_555
C213 C212 1_555 1_555
H232 C213 1_555 1_555
C214 C201 1_555 1_555
H233 C214 1_555 1_555
C215 C201 1_555 1_555
C216 O10 1_555 1_555
H234 C216 1_555 1_555
H235 C216 1_555 1_555
C217 C216 1_555 1_555
H236 C217 1_555 1_555
H237 C217 1_555 1_555
C218 O11 1_555 1_555
H238 C218 1_555 1_555
H239 C218 1_555 1_555
C219 C218 1_555 1_555
H240 C219 1_555 1_555
H241 C219 1_555 1_555
C220 O12 1_555 1_555
C221 C220 1_555 1_555
C222 C221 1_555 1_555
H242 C222 1_555 1_555
C223 C222 1_555 1_555
C224 C223 1_555 1_555
H243 C224 1_555 1_555
C225 C224 1_555 1_555
C226 C225 1_555 1_555
H244 C226 1_555 1_555
C227 C226 1_555 1_555
H245 C227 1_555 1_555
C228 C227 1_555 1_555
H246 C228 1_555 1_555
C229 C228 1_555 1_555
H247 C229 1_555 1_555
C230 C225 1_555 1_555
C231 C230 1_555 1_555
H248 C231 1_555 1_555
C232 C223 1_555 1_555
C233 C232 1_555 1_555
H249 C233 1_555 1_555
C234 C221 1_555 1_555
H250 C234 1_555 1_555
N49 O14 1_555 1_555
O15 N49 1_555 1_555
O16 N49 1_555 1_555
N50 O17 1_555 1_555
O18 N50 1_555 1_555
O19 N50 1_555 1_555
N51 O20 1_555 1_555
O21 N51 1_555 1_555
O22 N51 1_555 1_555
N52 O23 1_555 1_555
O24 N52 1_555 1_555
O25 N52 1_555 1_555
N53 O26 1_555 1_555
O27 N53 1_555 1_555
O28 N53 1_555 1_555
N54 O29 1_555 1_555
O30 N54 1_555 1_555
O31 N54 1_555 1_555
N55 O32 1_555 1_555
O33 N55 1_555 1_555
O34 N55 1_555 1_555
N56 O35 1_555 1_555
O36 N56 1_555 1_555
O37 N56 1_555 1_555
N57 O38 1_555 1_555
O39 N57 1_555 1_555
O40 N57 1_555 1_555
N58 O41 1_555 1_555
O42 N58 1_555 1_555
O43 N58 1_555 1_555
N59 O44 1_555 1_555
O45 N59 1_555 1_555
O46 N59 1_555 1_555
N60 O47 1_555 1_555
O48 N60 1_555 1_555
O49 N60 1_555 1_555
N61 O50 1_555 1_555
O51 N61 1_555 1_555
O52 N61 1_555 1_555
N62 O53 1_555 1_555
O54 N62 1_555 1_555
O55 N62 1_555 1_555
N63 O56 1_555 1_555
O57 N63 1_555 1_555
O58 N63 1_555 1_555
N65 O62 1_555 1_555
O63 N65 1_555 1_555
O64 N65 1_555 1_555
N66 O65 1_555 1_555
O66 N66 1_555 1_555
O67 N66 1_555 1_555
N67 O68 1_555 1_555
O69 N67 1_555 1_555
O70 N67 1_555 1_555
N68 O71 1_555 1_555
O72 N68 1_555 1_555
O73 N68 1_555 1_555
N69 O74 1_555 1_555
O75 N69 1_555 1_555
O76 N69 1_555 1_555
N71 O80 1_555 1_555
O81 N71 1_555 1_555
O82 N71 1_555 1_555
C2 N2 1_555 1_555
C4 N4 1_555 1_555
C6 N6 1_555 1_555
C8 N8 1_555 1_555
C10 N10 1_555 1_555
C12 N12 1_555 1_555
C14 N14 1_555 1_555
C16 N16 1_555 1_555
C18 N18 1_555 1_555
C20 N20 1_555 1_555
C22 N22 1_555 1_555
C24 N24 1_555 1_555
C28 C29 1_555 1_555
C31 N26 1_555 1_555
C33 C34 1_555 1_555
C36 N27 1_555 1_555
C38 C39 1_555 1_555
C45 C46 1_555 1_555
C51 C52 1_555 1_555
C55 N28 1_555 1_555
C57 C58 1_555 1_555
C60 N29 1_555 1_555
C62 C63 1_555 1_555
C65 N30 1_555 1_555
C67 C68 1_555 1_555
C72 C73 1_555 1_555
C75 N32 1_555 1_555
C77 C78 1_555 1_555
C80 N33 1_555 1_555
C82 C83 1_555 1_555
C89 C90 1_555 1_555
C95 C96 1_555 1_555
C99 N34 1_555 1_555
C101 C102 1_555 1_555
C104 N35 1_555 1_555
C106 C107 1_555 1_555
C109 N36 1_555 1_555
C111 C112 1_555 1_555
C116 C117 1_555 1_555
C119 N38 1_555 1_555
C121 C122 1_555 1_555
C124 N39 1_555 1_555
C126 C127 1_555 1_555
C133 C134 1_555 1_555
C139 C140 1_555 1_555
C143 N40 1_555 1_555
C145 C146 1_555 1_555
C148 N41 1_555 1_555
C150 C151 1_555 1_555
C153 N42 1_555 1_555
C155 C156 1_555 1_555
C160 C161 1_555 1_555
C163 N44 1_555 1_555
C165 C166 1_555 1_555
C168 N45 1_555 1_555
C170 C171 1_555 1_555
C177 C178 1_555 1_555
C183 C184 1_555 1_555
C187 N46 1_555 1_555
C189 C190 1_555 1_555
C192 N47 1_555 1_555
C194 C195 1_555 1_555
C197 N48 1_555 1_555
C199 C200 1_555 1_555
C209 C210 1_555 1_555
C211 C212 1_555 1_555
C213 C214 1_555 1_555
C229 C230 1_555 1_555
C231 C232 1_555 1_555
C233 C234 1_555 1_555

#END
