
#######################################################################
#
#                 Cambridge Crystallographic Data Centre
#                                CCDC 
#
#######################################################################
#
# If this CIF has been generated from an entry in the Cambridge 
# Structural Database, then it will include bibliographic, chemical, 
# crystal, experimental, refinement or atomic coordinate data resulting 
# from the CCDC's data processing and validation procedures.
#
#######################################################################

data_ACIVAK
_chemical_formula_moiety         'C58 H44 N8 O4 Zn2,4(C1 H4 O1)'
_chemical_name_systematic        
"(\m~2~-1,4-bis((3-(2-Oxyphenyl)-1-pyrazolyl)methyl)benzene-N,N',O,O')-(\m~2~-3,3'-bis((3-(2-oxyphenyl)-1-pyrazolyl)methyl)biphenyl-N,N',O,O')-di-zinc(ii) methanol solvate"
_symmetry_cell_setting           orthorhombic
_symmetry_space_group_name_H-M   'P b c a'
_symmetry_Int_Tables_number      61
_space_group_name_Hall           '-P 2ac 2ab'
loop_
_symmetry_equiv_pos_site_id
_symmetry_equiv_pos_as_xyz
1 x,y,z
2 1/2-x,-y,1/2+z
3 -x,1/2+y,1/2-z
4 1/2+x,1/2-y,-z
5 -x,-y,-z
6 1/2+x,y,1/2-z
7 x,1/2-y,1/2+z
8 1/2-x,1/2+y,z
_cell_length_a                   14.0294(14)
_cell_length_b                   28.052(3)
_cell_length_c                   28.125(3)
_cell_angle_alpha                90
_cell_angle_beta                 90
_cell_angle_gamma                90
_cell_volume                     11068.7
_exptl_crystal_colour            colorless
_exptl_crystal_description       block
_cell_formula_units_Z            8
loop_
_atom_site_label
_atom_site_type_symbol
_atom_site_fract_x
_atom_site_fract_y
_atom_site_fract_z
Zn1 Zn 1.01849(6) 0.04994(3) 0.23767(3)
Zn2 Zn 0.89174(6) 0.24545(3) -0.01023(3)
O1 O 0.9490(3) 0.24773(18) -0.07132(18)
O2 O 1.0096(4) -0.00424(19) 0.2776(2)
O3 O 0.8803(4) 0.30281(17) 0.02536(18)
O4 O 1.0442(3) 0.11292(17) 0.26056(18)
N1 N 0.7704(4) 0.2187(2) -0.0347(2)
N2 N 0.6852(4) 0.2129(2) -0.0114(2)
N3 N 0.8311(4) 0.0775(2) 0.1925(2)
N4 N 0.8854(4) 0.0443(2) 0.2148(2)
N5 N 0.9781(4) 0.2142(2) 0.0373(2)
N6 N 1.0470(4) 0.1802(2) 0.0310(2)
N7 N 1.1713(4) 0.0104(2) 0.1733(2)
N8 N 1.1317(4) 0.0490(2) 0.1946(2)
C1 C 0.7227(5) 0.2019(3) 0.0740(2)
C2 C 0.7324(5) 0.2201(3) 0.1191(3)
H1 H 0.7084 0.2511 0.1259
C3 C 0.7761(5) 0.1944(3) 0.1545(3)
H2 H 0.7791 0.2071 0.1858
C4 C 0.8156(5) 0.1505(3) 0.1452(3)
C5 C 0.8070(5) 0.1316(3) 0.0990(3)
H3 H 0.8335 0.1013 0.0917
C6 C 0.7599(5) 0.1574(3) 0.0644(3)
H4 H 0.7531 0.1443 0.0334
C7 C 0.6728(5) 0.2310(3) 0.0363(2)
H5 H 0.6039 0.2320 0.0436
H6 H 0.6972 0.2641 0.0376
C8 C 0.6261(5) 0.1867(3) -0.0382(3)
H7 H 0.5635 0.1772 -0.0295
C9 C 0.6703(5) 0.1761(3) -0.0797(3)
H8 H 0.6452 0.1580 -0.1053
C10 C 0.7600(5) 0.1973(2) -0.0773(3)
C11 C 0.8362(5) 0.1965(2) -0.1133(2)
C12 C 0.8209(5) 0.1689(2) -0.1540(3)
H9 H 0.7634 0.1512 -0.1567
C13 C 0.8868(6) 0.1665(3) -0.1903(3)
H10 H 0.8758 0.1468 -0.2171
C14 C 0.9690(6) 0.1934(3) -0.1869(3)
H11 H 1.0139 0.1928 -0.2122
C15 C 0.9870(5) 0.2210(3) -0.1479(3)
H12 H 1.0435 0.2396 -0.1468
C16 C 0.9231(5) 0.2223(3) -0.1091(3)
C17 C 0.8718(5) 0.1246(3) 0.1825(3)
H13 H 0.9385 0.1209 0.1716
H14 H 0.8725 0.1437 0.2121
C18 C 0.7411(5) 0.0616(3) 0.1876(3)
H15 H 0.6896 0.0785 0.1735
C19 C 0.7370(5) 0.0173(3) 0.2061(3)
H16 H 0.6825 -0.0027 0.2074
C20 C 0.8278(5) 0.0065(3) 0.2231(2)
C21 C 0.8617(5) -0.0375(2) 0.2462(2)
C22 C 0.8060(5) -0.0783(3) 0.2416(3)
H17 H 0.7482 -0.0763 0.2241
C23 C 0.8311(6) -0.1211(3) 0.2613(3)
H18 H 0.7919 -0.1483 0.2571
C24 C 0.9143(6) -0.1241(3) 0.2874(3)
H19 H 0.9322 -0.1534 0.3018
C25 C 0.9709(5) -0.0846(3) 0.2924(3)
H20 H 1.0279 -0.0874 0.3104
C26 C 0.9488(5) -0.0401(3) 0.2721(3)
C27 C 0.9781(5) 0.1079(2) -0.0054(3)
C28 C 0.9894(5) 0.0739(3) 0.0304(2)
H21 H 1.0415 0.0772 0.0517
C29 C 0.9277(5) 0.0350(2) 0.0364(2)
C30 C 0.8518(6) 0.0323(3) 0.0034(3)
H22 H 0.8074 0.0069 0.0061
C31 C 0.8402(6) 0.0648(3) -0.0321(3)
H23 H 0.7887 0.0615 -0.0538
C32 C 0.9031(5) 0.1030(3) -0.0370(3)
H24 H 0.8946 0.1255 -0.0619
C33 C 1.0467(6) 0.1484(3) -0.0101(3)
H25 H 1.1117 0.1354 -0.0146
H26 H 1.0303 0.1670 -0.0389
C34 C 1.1010(5) 0.1764(3) 0.0710(3)
H27 H 1.1520 0.1547 0.0757
C35 C 1.0699(5) 0.2088(3) 0.1029(3)
H28 H 1.0950 0.2144 0.1337
C36 C 0.9933(5) 0.2325(3) 0.0814(3)
C37 C 0.9357(5) 0.2724(3) 0.1010(3)
C38 C 0.9342(6) 0.2770(3) 0.1503(3)
H29 H 0.9701 0.2552 0.1689
C39 C 0.8827(6) 0.3119(4) 0.1729(3)
H30 H 0.8824 0.3141 0.2066
C40 C 0.8314(7) 0.3436(4) 0.1456(3)
H31 H 0.7952 0.3680 0.1605
C41 C 0.8324(6) 0.3400(3) 0.0969(3)
H32 H 0.7973 0.3625 0.0787
C42 C 0.8836(5) 0.3043(3) 0.0731(3)
C43 C 0.9404(5) -0.0010(3) 0.0740(2)
C44 C 1.0185(5) -0.0002(3) 0.1047(3)
H33 H 1.0643 0.0244 0.1010
C45 C 1.0326(5) -0.0335(3) 0.1400(3)
C46 C 0.9662(5) -0.0697(3) 0.1454(3)
H34 H 0.9754 -0.0936 0.1689
C47 C 0.8867(6) -0.0708(3) 0.1167(3)
H35 H 0.8402 -0.0950 0.1209
C48 C 0.8741(6) -0.0369(3) 0.0819(3)
H36 H 0.8185 -0.0382 0.0627
C49 C 1.1206(6) -0.0348(3) 0.1707(3)
H37 H 1.1021 -0.0445 0.2032
H38 H 1.1645 -0.0593 0.1581
C50 C 1.2583(6) 0.0217(3) 0.1561(3)
H39 H 1.3000 0.0008 0.1396
C51 C 1.2754(6) 0.0673(3) 0.1665(3)
H40 H 1.3311 0.0848 0.1585
C52 C 1.1967(5) 0.0844(3) 0.1911(3)
C53 C 1.1790(5) 0.1333(3) 0.2095(3)
C54 C 1.2397(6) 0.1696(3) 0.1945(3)
H41 H 1.2906 0.1619 0.1735
C55 C 1.2288(7) 0.2157(3) 0.2087(3)
H42 H 1.2723 0.2394 0.1982
C56 C 1.1544(7) 0.2278(3) 0.2385(3)
H43 H 1.1453 0.2601 0.2477
C57 C 1.0931(6) 0.1930(3) 0.2550(3)
H44 H 1.0423 0.2017 0.2755
C58 C 1.1042(5) 0.1447(3) 0.2420(3)
O6 O 1.0189(10) 0.0301(6) 0.4114(6)
H49 H 1.0152 0.0464 0.3860
C60 C 1.1115(12) 0.0156(9) 0.4183(9)
H50 H 1.1421 0.0365 0.4418
H51 H 1.1463 0.0174 0.3882
H52 H 1.1121 -0.0173 0.4300
O7 O 0.8851(7) -0.0356(4) 0.4285(4)
H53 H 0.9270 -0.0175 0.4162
C61 C 0.9207(11) -0.0591(5) 0.4674(6)
H54 H 0.9336 -0.0362 0.4929
H55 H 0.9800 -0.0754 0.4587
H56 H 0.8740 -0.0826 0.4785
O8 O 1.0023(6) 0.1080(3) 0.3541(3)
H57 H 0.9929 0.1152 0.3251
C62 C 1.0052(8) 0.1483(4) 0.3802(4)
H58 H 1.0030 0.1401 0.4140
H59 H 0.9504 0.1684 0.3721
H60 H 1.0643 0.1655 0.3733
O9 O 0.7763(4) 0.3743(2) 0.9821(3)
H61 H 0.8147 0.3528 0.9914
C63 C 0.8260(8) 0.4141(4) 0.9708(4)
H62 H 0.7838 0.4369 0.9550
H63 H 0.8787 0.4057 0.9495
H64 H 0.8517 0.4285 0.9999
O5? O 1.0222(12) 0.0064(8) 0.3856(8)
H45? H 1.0190 0.0027 0.3556
C59? C 1.1107(14) -0.0091(10) 0.3996(9)
H46? H 1.1514 0.0185 0.4063
H47? H 1.1393 -0.0282 0.3741
H48? H 1.1045 -0.0286 0.4283
loop_
_geom_bond_atom_site_label_1
_geom_bond_atom_site_label_2
_geom_bond_site_symmetry_1
_geom_bond_site_symmetry_2
Zn1 O2 1_555 1_555
Zn2 O1 1_555 1_555
O1 C16 1_555 1_555
O2 C26 1_555 1_555
O3 Zn2 1_555 1_555
O4 Zn1 1_555 1_555
N1 Zn2 1_555 1_555
N2 N1 1_555 1_555
N3 N4 1_555 1_555
N4 Zn1 1_555 1_555
N5 Zn2 1_555 1_555
N6 N5 1_555 1_555
N7 N8 1_555 1_555
N8 Zn1 1_555 1_555
C1 C2 1_555 1_555
C2 H1 1_555 1_555
C3 C2 1_555 1_555
H2 C3 1_555 1_555
C4 C3 1_555 1_555
C5 C4 1_555 1_555
H3 C5 1_555 1_555
C6 C1 1_555 1_555
H4 C6 1_555 1_555
C7 N2 1_555 1_555
H5 C7 1_555 1_555
H6 C7 1_555 1_555
C8 N2 1_555 1_555
H7 C8 1_555 1_555
C9 C8 1_555 1_555
H8 C9 1_555 1_555
C10 N1 1_555 1_555
C11 C10 1_555 1_555
C12 C11 1_555 1_555
H9 C12 1_555 1_555
C13 C12 1_555 1_555
H10 C13 1_555 1_555
C14 C13 1_555 1_555
H11 C14 1_555 1_555
C15 C14 1_555 1_555
H12 C15 1_555 1_555
C16 C11 1_555 1_555
C17 N3 1_555 1_555
H13 C17 1_555 1_555
H14 C17 1_555 1_555
C18 N3 1_555 1_555
H15 C18 1_555 1_555
C19 C18 1_555 1_555
H16 C19 1_555 1_555
C20 N4 1_555 1_555
C21 C20 1_555 1_555
C22 C21 1_555 1_555
H17 C22 1_555 1_555
C23 C22 1_555 1_555
H18 C23 1_555 1_555
C24 C23 1_555 1_555
H19 C24 1_555 1_555
C25 C24 1_555 1_555
H20 C25 1_555 1_555
C26 C21 1_555 1_555
C27 C28 1_555 1_555
C28 H21 1_555 1_555
C29 C28 1_555 1_555
C30 C29 1_555 1_555
H22 C30 1_555 1_555
C31 C30 1_555 1_555
H23 C31 1_555 1_555
C32 C27 1_555 1_555
H24 C32 1_555 1_555
C33 N6 1_555 1_555
H25 C33 1_555 1_555
H26 C33 1_555 1_555
C34 N6 1_555 1_555
H27 C34 1_555 1_555
C35 C34 1_555 1_555
H28 C35 1_555 1_555
C36 N5 1_555 1_555
C37 C36 1_555 1_555
C38 C37 1_555 1_555
H29 C38 1_555 1_555
C39 C38 1_555 1_555
H30 C39 1_555 1_555
C40 C39 1_555 1_555
H31 C40 1_555 1_555
C41 C40 1_555 1_555
H32 C41 1_555 1_555
C42 O3 1_555 1_555
C43 C29 1_555 1_555
C44 C43 1_555 1_555
H33 C44 1_555 1_555
C45 C44 1_555 1_555
C46 C45 1_555 1_555
H34 C46 1_555 1_555
C47 C46 1_555 1_555
H35 C47 1_555 1_555
C48 C43 1_555 1_555
H36 C48 1_555 1_555
C49 N7 1_555 1_555
H37 C49 1_555 1_555
H38 C49 1_555 1_555
C50 N7 1_555 1_555
H39 C50 1_555 1_555
C51 C50 1_555 1_555
H40 C51 1_555 1_555
C52 N8 1_555 1_555
C53 C52 1_555 1_555
C54 C53 1_555 1_555
H41 C54 1_555 1_555
C55 C54 1_555 1_555
H42 C55 1_555 1_555
C56 C55 1_555 1_555
H43 C56 1_555 1_555
C57 C56 1_555 1_555
H44 C57 1_555 1_555
C58 O4 1_555 1_555
O6 H49 1_555 1_555
C60 O6 1_555 1_555
H50 C60 1_555 1_555
H51 C60 1_555 1_555
H52 C60 1_555 1_555
O7 H53 1_555 1_555
C61 O7 1_555 1_555
H54 C61 1_555 1_555
H55 C61 1_555 1_555
H56 C61 1_555 1_555
O8 H57 1_555 1_555
C62 O8 1_555 1_555
H58 C62 1_555 1_555
H59 C62 1_555 1_555
H60 C62 1_555 1_555
O9 H61 1_555 1_555
C63 O9 1_555 1_555
H62 C63 1_555 1_555
H63 C63 1_555 1_555
H64 C63 1_555 1_555
C1 C7 1_555 1_555
C4 C17 1_555 1_555
C5 C6 1_555 1_555
C9 C10 1_555 1_555
C15 C16 1_555 1_555
C19 C20 1_555 1_555
C25 C26 1_555 1_555
C27 C33 1_555 1_555
C31 C32 1_555 1_555
C35 C36 1_555 1_555
C37 C42 1_555 1_555
C41 C42 1_555 1_555
C45 C49 1_555 1_555
C47 C48 1_555 1_555
C51 C52 1_555 1_555
C53 C58 1_555 1_555
C57 C58 1_555 1_555

#END
