# generated using pymatgen
data_Zn2H64C63N8O9
_symmetry_space_group_name_H-M   'P 1'
_cell_length_a   14.02940000
_cell_length_b   28.05200000
_cell_length_c   28.12500000
_cell_angle_alpha   90.00000000
_cell_angle_beta   90.00000000
_cell_angle_gamma   90.00000000
_symmetry_Int_Tables_number   1
_chemical_formula_structural   Zn2H64C63N8O9
_chemical_formula_sum   'Zn16 H512 C504 N64 O72'
_cell_volume   11068.67049750
_cell_formula_units_Z   8
loop_
 _symmetry_equiv_pos_site_id
 _symmetry_equiv_pos_as_xyz
  1  'x, y, z'
loop_
 _atom_site_type_symbol
 _atom_site_label
 _atom_site_symmetry_multiplicity
 _atom_site_fract_x
 _atom_site_fract_y
 _atom_site_fract_z
 _atom_site_occupancy
  Zn  Zn1  1  0.018490  0.049940  0.237670  1
  Zn  Zn2  1  0.481510  0.950060  0.737670  1
  Zn  Zn3  1  0.981510  0.549940  0.262330  1
  Zn  Zn4  1  0.518490  0.450060  0.762330  1
  Zn  Zn5  1  0.981510  0.950060  0.762330  1
  Zn  Zn6  1  0.518490  0.049940  0.262330  1
  Zn  Zn7  1  0.018490  0.450060  0.737670  1
  Zn  Zn8  1  0.481510  0.549940  0.237670  1
  Zn  Zn9  1  0.891740  0.245450  0.989770  1
  Zn  Zn10  1  0.608260  0.754550  0.489770  1
  Zn  Zn11  1  0.108260  0.745450  0.510230  1
  Zn  Zn12  1  0.391740  0.254550  0.010230  1
  Zn  Zn13  1  0.108260  0.754550  0.010230  1
  Zn  Zn14  1  0.391740  0.245450  0.510230  1
  Zn  Zn15  1  0.891740  0.254550  0.489770  1
  Zn  Zn16  1  0.608260  0.745450  0.989770  1
  H  H17  1  0.708400  0.251100  0.125900  1
  H  H18  1  0.791600  0.748900  0.625900  1
  H  H19  1  0.291600  0.751100  0.374100  1
  H  H20  1  0.208400  0.248900  0.874100  1
  H  H21  1  0.291600  0.748900  0.874100  1
  H  H22  1  0.208400  0.251100  0.374100  1
  H  H23  1  0.708400  0.248900  0.625900  1
  H  H24  1  0.791600  0.751100  0.125900  1
  H  H25  1  0.779100  0.207100  0.185800  1
  H  H26  1  0.720900  0.792900  0.685800  1
  H  H27  1  0.220900  0.707100  0.314200  1
  H  H28  1  0.279100  0.292900  0.814200  1
  H  H29  1  0.220900  0.792900  0.814200  1
  H  H30  1  0.279100  0.207100  0.314200  1
  H  H31  1  0.779100  0.292900  0.685800  1
  H  H32  1  0.720900  0.707100  0.185800  1
  H  H33  1  0.833500  0.101300  0.091700  1
  H  H34  1  0.666500  0.898700  0.591700  1
  H  H35  1  0.166500  0.601300  0.408300  1
  H  H36  1  0.333500  0.398700  0.908300  1
  H  H37  1  0.166500  0.898700  0.908300  1
  H  H38  1  0.333500  0.101300  0.408300  1
  H  H39  1  0.833500  0.398700  0.591700  1
  H  H40  1  0.666500  0.601300  0.091700  1
  H  H41  1  0.753100  0.144300  0.033400  1
  H  H42  1  0.746900  0.855700  0.533400  1
  H  H43  1  0.246900  0.644300  0.466600  1
  H  H44  1  0.253100  0.355700  0.966600  1
  H  H45  1  0.246900  0.855700  0.966600  1
  H  H46  1  0.253100  0.144300  0.466600  1
  H  H47  1  0.753100  0.355700  0.533400  1
  H  H48  1  0.746900  0.644300  0.033400  1
  H  H49  1  0.603900  0.232000  0.043600  1
  H  H50  1  0.896100  0.768000  0.543600  1
  H  H51  1  0.396100  0.732000  0.456400  1
  H  H52  1  0.103900  0.268000  0.956400  1
  H  H53  1  0.396100  0.768000  0.956400  1
  H  H54  1  0.103900  0.232000  0.456400  1
  H  H55  1  0.603900  0.268000  0.543600  1
  H  H56  1  0.896100  0.732000  0.043600  1
  H  H57  1  0.697200  0.264100  0.037600  1
  H  H58  1  0.802800  0.735900  0.537600  1
  H  H59  1  0.302800  0.764100  0.462400  1
  H  H60  1  0.197200  0.235900  0.962400  1
  H  H61  1  0.302800  0.735900  0.962400  1
  H  H62  1  0.197200  0.264100  0.462400  1
  H  H63  1  0.697200  0.235900  0.537600  1
  H  H64  1  0.802800  0.764100  0.037600  1
  H  H65  1  0.563500  0.177200  0.970500  1
  H  H66  1  0.936500  0.822800  0.470500  1
  H  H67  1  0.436500  0.677200  0.529500  1
  H  H68  1  0.063500  0.322800  0.029500  1
  H  H69  1  0.436500  0.822800  0.029500  1
  H  H70  1  0.063500  0.177200  0.529500  1
  H  H71  1  0.563500  0.322800  0.470500  1
  H  H72  1  0.936500  0.677200  0.970500  1
  H  H73  1  0.645200  0.158000  0.894700  1
  H  H74  1  0.854800  0.842000  0.394700  1
  H  H75  1  0.354800  0.658000  0.605300  1
  H  H76  1  0.145200  0.342000  0.105300  1
  H  H77  1  0.354800  0.842000  0.105300  1
  H  H78  1  0.145200  0.158000  0.605300  1
  H  H79  1  0.645200  0.342000  0.394700  1
  H  H80  1  0.854800  0.658000  0.894700  1
  H  H81  1  0.763400  0.151200  0.843300  1
  H  H82  1  0.736600  0.848800  0.343300  1
  H  H83  1  0.236600  0.651200  0.656700  1
  H  H84  1  0.263400  0.348800  0.156700  1
  H  H85  1  0.236600  0.848800  0.156700  1
  H  H86  1  0.263400  0.151200  0.656700  1
  H  H87  1  0.763400  0.348800  0.343300  1
  H  H88  1  0.736600  0.651200  0.843300  1
  H  H89  1  0.875800  0.146800  0.782900  1
  H  H90  1  0.624200  0.853200  0.282900  1
  H  H91  1  0.124200  0.646800  0.717100  1
  H  H92  1  0.375800  0.353200  0.217100  1
  H  H93  1  0.124200  0.853200  0.217100  1
  H  H94  1  0.375800  0.146800  0.717100  1
  H  H95  1  0.875800  0.353200  0.282900  1
  H  H96  1  0.624200  0.646800  0.782900  1
  H  H97  1  0.013900  0.192800  0.787800  1
  H  H98  1  0.486100  0.807200  0.287800  1
  H  H99  1  0.986100  0.692800  0.712200  1
  H  H100  1  0.513900  0.307200  0.212200  1
  H  H101  1  0.986100  0.807200  0.212200  1
  H  H102  1  0.513900  0.192800  0.712200  1
  H  H103  1  0.013900  0.307200  0.287800  1
  H  H104  1  0.486100  0.692800  0.787800  1
  H  H105  1  0.043500  0.239600  0.853200  1
  H  H106  1  0.456500  0.760400  0.353200  1
  H  H107  1  0.956500  0.739600  0.646800  1
  H  H108  1  0.543500  0.260400  0.146800  1
  H  H109  1  0.956500  0.760400  0.146800  1
  H  H110  1  0.543500  0.239600  0.646800  1
  H  H111  1  0.043500  0.260400  0.353200  1
  H  H112  1  0.456500  0.739600  0.853200  1
  H  H113  1  0.938500  0.120900  0.171600  1
  H  H114  1  0.561500  0.879100  0.671600  1
  H  H115  1  0.061500  0.620900  0.328400  1
  H  H116  1  0.438500  0.379100  0.828400  1
  H  H117  1  0.061500  0.879100  0.828400  1
  H  H118  1  0.438500  0.120900  0.328400  1
  H  H119  1  0.938500  0.379100  0.671600  1
  H  H120  1  0.561500  0.620900  0.171600  1
  H  H121  1  0.872500  0.143700  0.212100  1
  H  H122  1  0.627500  0.856300  0.712100  1
  H  H123  1  0.127500  0.643700  0.287900  1
  H  H124  1  0.372500  0.356300  0.787900  1
  H  H125  1  0.127500  0.856300  0.787900  1
  H  H126  1  0.372500  0.143700  0.287900  1
  H  H127  1  0.872500  0.356300  0.712100  1
  H  H128  1  0.627500  0.643700  0.212100  1
  H  H129  1  0.689600  0.078500  0.173500  1
  H  H130  1  0.810400  0.921500  0.673500  1
  H  H131  1  0.310400  0.578500  0.326500  1
  H  H132  1  0.189600  0.421500  0.826500  1
  H  H133  1  0.310400  0.921500  0.826500  1
  H  H134  1  0.189600  0.078500  0.326500  1
  H  H135  1  0.689600  0.421500  0.673500  1
  H  H136  1  0.810400  0.578500  0.173500  1
  H  H137  1  0.682500  0.997300  0.207400  1
  H  H138  1  0.817500  0.002700  0.707400  1
  H  H139  1  0.317500  0.497300  0.292600  1
  H  H140  1  0.182500  0.502700  0.792600  1
  H  H141  1  0.317500  0.002700  0.792600  1
  H  H142  1  0.182500  0.997300  0.292600  1
  H  H143  1  0.682500  0.502700  0.707400  1
  H  H144  1  0.817500  0.497300  0.207400  1
  H  H145  1  0.748200  0.923700  0.224100  1
  H  H146  1  0.751800  0.076300  0.724100  1
  H  H147  1  0.251800  0.423700  0.275900  1
  H  H148  1  0.248200  0.576300  0.775900  1
  H  H149  1  0.251800  0.076300  0.775900  1
  H  H150  1  0.248200  0.923700  0.275900  1
  H  H151  1  0.748200  0.576300  0.724100  1
  H  H152  1  0.751800  0.423700  0.224100  1
  H  H153  1  0.791900  0.851700  0.257100  1
  H  H154  1  0.708100  0.148300  0.757100  1
  H  H155  1  0.208100  0.351700  0.242900  1
  H  H156  1  0.291900  0.648300  0.742900  1
  H  H157  1  0.208100  0.148300  0.742900  1
  H  H158  1  0.291900  0.851700  0.242900  1
  H  H159  1  0.791900  0.648300  0.757100  1
  H  H160  1  0.708100  0.351700  0.257100  1
  H  H161  1  0.932200  0.846600  0.301800  1
  H  H162  1  0.567800  0.153400  0.801800  1
  H  H163  1  0.067800  0.346600  0.198200  1
  H  H164  1  0.432200  0.653400  0.698200  1
  H  H165  1  0.067800  0.153400  0.698200  1
  H  H166  1  0.432200  0.846600  0.198200  1
  H  H167  1  0.932200  0.653400  0.801800  1
  H  H168  1  0.567800  0.346600  0.301800  1
  H  H169  1  0.027900  0.912600  0.310400  1
  H  H170  1  0.472100  0.087400  0.810400  1
  H  H171  1  0.972100  0.412600  0.189600  1
  H  H172  1  0.527900  0.587400  0.689600  1
  H  H173  1  0.972100  0.087400  0.689600  1
  H  H174  1  0.527900  0.912600  0.189600  1
  H  H175  1  0.027900  0.587400  0.810400  1
  H  H176  1  0.472100  0.412600  0.310400  1
  H  H177  1  0.041500  0.077200  0.051700  1
  H  H178  1  0.458500  0.922800  0.551700  1
  H  H179  1  0.958500  0.577200  0.448300  1
  H  H180  1  0.541500  0.422800  0.948300  1
  H  H181  1  0.958500  0.922800  0.948300  1
  H  H182  1  0.541500  0.077200  0.448300  1
  H  H183  1  0.041500  0.422800  0.551700  1
  H  H184  1  0.458500  0.577200  0.051700  1
  H  H185  1  0.807400  0.006900  0.006100  1
  H  H186  1  0.692600  0.993100  0.506100  1
  H  H187  1  0.192600  0.506900  0.493900  1
  H  H188  1  0.307400  0.493100  0.993900  1
  H  H189  1  0.192600  0.993100  0.993900  1
  H  H190  1  0.307400  0.006900  0.493900  1
  H  H191  1  0.807400  0.493100  0.506100  1
  H  H192  1  0.692600  0.506900  0.006100  1
  H  H193  1  0.788700  0.061500  0.946200  1
  H  H194  1  0.711300  0.938500  0.446200  1
  H  H195  1  0.211300  0.561500  0.553800  1
  H  H196  1  0.288700  0.438500  0.053800  1
  H  H197  1  0.211300  0.938500  0.053800  1
  H  H198  1  0.288700  0.061500  0.553800  1
  H  H199  1  0.788700  0.438500  0.446200  1
  H  H200  1  0.711300  0.561500  0.946200  1
  H  H201  1  0.894600  0.125500  0.938100  1
  H  H202  1  0.605400  0.874500  0.438100  1
  H  H203  1  0.105400  0.625500  0.561900  1
  H  H204  1  0.394600  0.374500  0.061900  1
  H  H205  1  0.105400  0.874500  0.061900  1
  H  H206  1  0.394600  0.125500  0.561900  1
  H  H207  1  0.894600  0.374500  0.438100  1
  H  H208  1  0.605400  0.625500  0.938100  1
  H  H209  1  0.111700  0.135400  0.985400  1
  H  H210  1  0.388300  0.864600  0.485400  1
  H  H211  1  0.888300  0.635400  0.514600  1
  H  H212  1  0.611700  0.364600  0.014600  1
  H  H213  1  0.888300  0.864600  0.014600  1
  H  H214  1  0.611700  0.135400  0.514600  1
  H  H215  1  0.111700  0.364600  0.485400  1
  H  H216  1  0.388300  0.635400  0.985400  1
  H  H217  1  0.030300  0.167000  0.961100  1
  H  H218  1  0.469700  0.833000  0.461100  1
  H  H219  1  0.969700  0.667000  0.538900  1
  H  H220  1  0.530300  0.333000  0.038900  1
  H  H221  1  0.969700  0.833000  0.038900  1
  H  H222  1  0.530300  0.167000  0.538900  1
  H  H223  1  0.030300  0.333000  0.461100  1
  H  H224  1  0.469700  0.667000  0.961100  1
  H  H225  1  0.152000  0.154700  0.075700  1
  H  H226  1  0.348000  0.845300  0.575700  1
  H  H227  1  0.848000  0.654700  0.424300  1
  H  H228  1  0.652000  0.345300  0.924300  1
  H  H229  1  0.848000  0.845300  0.924300  1
  H  H230  1  0.652000  0.154700  0.424300  1
  H  H231  1  0.152000  0.345300  0.575700  1
  H  H232  1  0.348000  0.654700  0.075700  1
  H  H233  1  0.095000  0.214400  0.133700  1
  H  H234  1  0.405000  0.785600  0.633700  1
  H  H235  1  0.905000  0.714400  0.366300  1
  H  H236  1  0.595000  0.285600  0.866300  1
  H  H237  1  0.905000  0.785600  0.866300  1
  H  H238  1  0.595000  0.214400  0.366300  1
  H  H239  1  0.095000  0.285600  0.633700  1
  H  H240  1  0.405000  0.714400  0.133700  1
  H  H241  1  0.970100  0.255200  0.168900  1
  H  H242  1  0.529900  0.744800  0.668900  1
  H  H243  1  0.029900  0.755200  0.331100  1
  H  H244  1  0.470100  0.244800  0.831100  1
  H  H245  1  0.029900  0.744800  0.831100  1
  H  H246  1  0.470100  0.255200  0.331100  1
  H  H247  1  0.970100  0.244800  0.668900  1
  H  H248  1  0.529900  0.755200  0.168900  1
  H  H249  1  0.882400  0.314100  0.206600  1
  H  H250  1  0.617600  0.685900  0.706600  1
  H  H251  1  0.117600  0.814100  0.293400  1
  H  H252  1  0.382400  0.185900  0.793400  1
  H  H253  1  0.117600  0.685900  0.793400  1
  H  H254  1  0.382400  0.314100  0.293400  1
  H  H255  1  0.882400  0.185900  0.706600  1
  H  H256  1  0.617600  0.814100  0.206600  1
  H  H257  1  0.795200  0.368000  0.160500  1
  H  H258  1  0.704800  0.632000  0.660500  1
  H  H259  1  0.204800  0.868000  0.339500  1
  H  H260  1  0.295200  0.132000  0.839500  1
  H  H261  1  0.204800  0.632000  0.839500  1
  H  H262  1  0.295200  0.368000  0.339500  1
  H  H263  1  0.795200  0.132000  0.660500  1
  H  H264  1  0.704800  0.868000  0.160500  1
  H  H265  1  0.797300  0.362500  0.078700  1
  H  H266  1  0.702700  0.637500  0.578700  1
  H  H267  1  0.202700  0.862500  0.421300  1
  H  H268  1  0.297300  0.137500  0.921300  1
  H  H269  1  0.202700  0.637500  0.921300  1
  H  H270  1  0.297300  0.362500  0.421300  1
  H  H271  1  0.797300  0.137500  0.578700  1
  H  H272  1  0.702700  0.862500  0.078700  1
  H  H273  1  0.064300  0.024400  0.101000  1
  H  H274  1  0.435700  0.975600  0.601000  1
  H  H275  1  0.935700  0.524400  0.399000  1
  H  H276  1  0.564300  0.475600  0.899000  1
  H  H277  1  0.935700  0.975600  0.899000  1
  H  H278  1  0.564300  0.024400  0.399000  1
  H  H279  1  0.064300  0.475600  0.601000  1
  H  H280  1  0.435700  0.524400  0.101000  1
  H  H281  1  0.975400  0.906400  0.168900  1
  H  H282  1  0.524600  0.093600  0.668900  1
  H  H283  1  0.024600  0.406400  0.331100  1
  H  H284  1  0.475400  0.593600  0.831100  1
  H  H285  1  0.024600  0.093600  0.831100  1
  H  H286  1  0.475400  0.906400  0.331100  1
  H  H287  1  0.975400  0.593600  0.668900  1
  H  H288  1  0.524600  0.406400  0.168900  1
  H  H289  1  0.840200  0.905000  0.120900  1
  H  H290  1  0.659800  0.095000  0.620900  1
  H  H291  1  0.159800  0.405000  0.379100  1
  H  H292  1  0.340200  0.595000  0.879100  1
  H  H293  1  0.159800  0.095000  0.879100  1
  H  H294  1  0.340200  0.905000  0.379100  1
  H  H295  1  0.840200  0.595000  0.620900  1
  H  H296  1  0.659800  0.405000  0.120900  1
  H  H297  1  0.818500  0.961800  0.062700  1
  H  H298  1  0.681500  0.038200  0.562700  1
  H  H299  1  0.181500  0.461800  0.437300  1
  H  H300  1  0.318500  0.538200  0.937300  1
  H  H301  1  0.181500  0.038200  0.937300  1
  H  H302  1  0.318500  0.961800  0.437300  1
  H  H303  1  0.818500  0.538200  0.562700  1
  H  H304  1  0.681500  0.461800  0.062700  1
  H  H305  1  0.102100  0.955500  0.203200  1
  H  H306  1  0.397900  0.044500  0.703200  1
  H  H307  1  0.897900  0.455500  0.296800  1
  H  H308  1  0.602100  0.544500  0.796800  1
  H  H309  1  0.897900  0.044500  0.796800  1
  H  H310  1  0.602100  0.955500  0.296800  1
  H  H311  1  0.102100  0.544500  0.703200  1
  H  H312  1  0.397900  0.455500  0.203200  1
  H  H313  1  0.164500  0.940700  0.158100  1
  H  H314  1  0.335500  0.059300  0.658100  1
  H  H315  1  0.835500  0.440700  0.341900  1
  H  H316  1  0.664500  0.559300  0.841900  1
  H  H317  1  0.835500  0.059300  0.841900  1
  H  H318  1  0.664500  0.940700  0.341900  1
  H  H319  1  0.164500  0.559300  0.658100  1
  H  H320  1  0.335500  0.440700  0.158100  1
  H  H321  1  0.300000  0.000800  0.139600  1
  H  H322  1  0.200000  0.999200  0.639600  1
  H  H323  1  0.700000  0.500800  0.360400  1
  H  H324  1  0.800000  0.499200  0.860400  1
  H  H325  1  0.700000  0.999200  0.860400  1
  H  H326  1  0.800000  0.000800  0.360400  1
  H  H327  1  0.300000  0.499200  0.639600  1
  H  H328  1  0.200000  0.500800  0.139600  1
  H  H329  1  0.331100  0.084800  0.158500  1
  H  H330  1  0.168900  0.915200  0.658500  1
  H  H331  1  0.668900  0.584800  0.341500  1
  H  H332  1  0.831100  0.415200  0.841500  1
  H  H333  1  0.668900  0.915200  0.841500  1
  H  H334  1  0.831100  0.084800  0.341500  1
  H  H335  1  0.331100  0.415200  0.658500  1
  H  H336  1  0.168900  0.584800  0.158500  1
  H  H337  1  0.290600  0.161900  0.173500  1
  H  H338  1  0.209400  0.838100  0.673500  1
  H  H339  1  0.709400  0.661900  0.326500  1
  H  H340  1  0.790600  0.338100  0.826500  1
  H  H341  1  0.709400  0.838100  0.826500  1
  H  H342  1  0.790600  0.161900  0.326500  1
  H  H343  1  0.290600  0.338100  0.673500  1
  H  H344  1  0.209400  0.661900  0.173500  1
  H  H345  1  0.272300  0.239400  0.198200  1
  H  H346  1  0.227700  0.760600  0.698200  1
  H  H347  1  0.727700  0.739400  0.301800  1
  H  H348  1  0.772300  0.260600  0.801800  1
  H  H349  1  0.727700  0.760600  0.801800  1
  H  H350  1  0.772300  0.239400  0.301800  1
  H  H351  1  0.272300  0.260600  0.698200  1
  H  H352  1  0.227700  0.739400  0.198200  1
  H  H353  1  0.145300  0.260100  0.247700  1
  H  H354  1  0.354700  0.739900  0.747700  1
  H  H355  1  0.854700  0.760100  0.252300  1
  H  H356  1  0.645300  0.239900  0.752300  1
  H  H357  1  0.854700  0.739900  0.752300  1
  H  H358  1  0.645300  0.260100  0.252300  1
  H  H359  1  0.145300  0.239900  0.747700  1
  H  H360  1  0.354700  0.760100  0.247700  1
  H  H361  1  0.042300  0.201700  0.275500  1
  H  H362  1  0.457700  0.798300  0.775500  1
  H  H363  1  0.957700  0.701700  0.224500  1
  H  H364  1  0.542300  0.298300  0.724500  1
  H  H365  1  0.957700  0.798300  0.724500  1
  H  H366  1  0.542300  0.201700  0.224500  1
  H  H367  1  0.042300  0.298300  0.775500  1
  H  H368  1  0.457700  0.701700  0.275500  1
  H  H369  1  0.015200  0.046400  0.386000  1
  H  H370  1  0.484800  0.953600  0.886000  1
  H  H371  1  0.984800  0.546400  0.114000  1
  H  H372  1  0.515200  0.453600  0.614000  1
  H  H373  1  0.984800  0.953600  0.614000  1
  H  H374  1  0.515200  0.046400  0.114000  1
  H  H375  1  0.015200  0.453600  0.886000  1
  H  H376  1  0.484800  0.546400  0.386000  1
  H  H377  1  0.142100  0.036500  0.441800  1
  H  H378  1  0.357900  0.963500  0.941800  1
  H  H379  1  0.857900  0.536500  0.058200  1
  H  H380  1  0.642100  0.463500  0.558200  1
  H  H381  1  0.857900  0.963500  0.558200  1
  H  H382  1  0.642100  0.036500  0.058200  1
  H  H383  1  0.142100  0.463500  0.941800  1
  H  H384  1  0.357900  0.536500  0.441800  1
  H  H385  1  0.146300  0.017400  0.388200  1
  H  H386  1  0.353700  0.982600  0.888200  1
  H  H387  1  0.853700  0.517400  0.111800  1
  H  H388  1  0.646300  0.482600  0.611800  1
  H  H389  1  0.853700  0.982600  0.611800  1
  H  H390  1  0.646300  0.017400  0.111800  1
  H  H391  1  0.146300  0.482600  0.888200  1
  H  H392  1  0.353700  0.517400  0.388200  1
  H  H393  1  0.112100  0.982700  0.430000  1
  H  H394  1  0.387900  0.017300  0.930000  1
  H  H395  1  0.887900  0.482700  0.070000  1
  H  H396  1  0.612100  0.517300  0.570000  1
  H  H397  1  0.887900  0.017300  0.570000  1
  H  H398  1  0.612100  0.982700  0.070000  1
  H  H399  1  0.112100  0.517300  0.930000  1
  H  H400  1  0.387900  0.482700  0.430000  1
  H  H401  1  0.927000  0.982500  0.416200  1
  H  H402  1  0.573000  0.017500  0.916200  1
  H  H403  1  0.073000  0.482500  0.083800  1
  H  H404  1  0.427000  0.517500  0.583800  1
  H  H405  1  0.073000  0.017500  0.583800  1
  H  H406  1  0.427000  0.982500  0.083800  1
  H  H407  1  0.927000  0.517500  0.916200  1
  H  H408  1  0.573000  0.482500  0.416200  1
  H  H409  1  0.933600  0.963800  0.492900  1
  H  H410  1  0.566400  0.036200  0.992900  1
  H  H411  1  0.066400  0.463800  0.007100  1
  H  H412  1  0.433600  0.536200  0.507100  1
  H  H413  1  0.066400  0.036200  0.507100  1
  H  H414  1  0.433600  0.963800  0.007100  1
  H  H415  1  0.933600  0.536200  0.992900  1
  H  H416  1  0.566400  0.463800  0.492900  1
  H  H417  1  0.980000  0.924600  0.458700  1
  H  H418  1  0.520000  0.075400  0.958700  1
  H  H419  1  0.020000  0.424600  0.041300  1
  H  H420  1  0.480000  0.575400  0.541300  1
  H  H421  1  0.020000  0.075400  0.541300  1
  H  H422  1  0.480000  0.924600  0.041300  1
  H  H423  1  0.980000  0.575400  0.958700  1
  H  H424  1  0.520000  0.424600  0.458700  1
  H  H425  1  0.874000  0.917400  0.478500  1
  H  H426  1  0.626000  0.082600  0.978500  1
  H  H427  1  0.126000  0.417400  0.021500  1
  H  H428  1  0.374000  0.582600  0.521500  1
  H  H429  1  0.126000  0.082600  0.521500  1
  H  H430  1  0.374000  0.917400  0.021500  1
  H  H431  1  0.874000  0.582600  0.978500  1
  H  H432  1  0.626000  0.417400  0.478500  1
  H  H433  1  0.992900  0.115200  0.325100  1
  H  H434  1  0.507100  0.884800  0.825100  1
  H  H435  1  0.007100  0.615200  0.174900  1
  H  H436  1  0.492900  0.384800  0.674900  1
  H  H437  1  0.007100  0.884800  0.674900  1
  H  H438  1  0.492900  0.115200  0.174900  1
  H  H439  1  0.992900  0.384800  0.825100  1
  H  H440  1  0.507100  0.615200  0.325100  1
  H  H441  1  0.003000  0.140100  0.414000  1
  H  H442  1  0.497000  0.859900  0.914000  1
  H  H443  1  0.997000  0.640100  0.086000  1
  H  H444  1  0.503000  0.359900  0.586000  1
  H  H445  1  0.997000  0.859900  0.586000  1
  H  H446  1  0.503000  0.140100  0.086000  1
  H  H447  1  0.003000  0.359900  0.914000  1
  H  H448  1  0.497000  0.640100  0.414000  1
  H  H449  1  0.950400  0.168400  0.372100  1
  H  H450  1  0.549600  0.831600  0.872100  1
  H  H451  1  0.049600  0.668400  0.127900  1
  H  H452  1  0.450400  0.331600  0.627900  1
  H  H453  1  0.049600  0.831600  0.627900  1
  H  H454  1  0.450400  0.168400  0.127900  1
  H  H455  1  0.950400  0.331600  0.872100  1
  H  H456  1  0.549600  0.668400  0.372100  1
  H  H457  1  0.064300  0.165500  0.373300  1
  H  H458  1  0.435700  0.834500  0.873300  1
  H  H459  1  0.935700  0.665500  0.126700  1
  H  H460  1  0.564300  0.334500  0.626700  1
  H  H461  1  0.935700  0.834500  0.626700  1
  H  H462  1  0.564300  0.165500  0.126700  1
  H  H463  1  0.064300  0.334500  0.873300  1
  H  H464  1  0.435700  0.665500  0.373300  1
  H  H465  1  0.814700  0.352800  0.991400  1
  H  H466  1  0.685300  0.647200  0.491400  1
  H  H467  1  0.185300  0.852800  0.508600  1
  H  H468  1  0.314700  0.147200  0.008600  1
  H  H469  1  0.185300  0.647200  0.008600  1
  H  H470  1  0.314700  0.352800  0.508600  1
  H  H471  1  0.814700  0.147200  0.491400  1
  H  H472  1  0.685300  0.852800  0.991400  1
  H  H473  1  0.783800  0.436900  0.955000  1
  H  H474  1  0.716200  0.563100  0.455000  1
  H  H475  1  0.216200  0.936900  0.545000  1
  H  H476  1  0.283800  0.063100  0.045000  1
  H  H477  1  0.216200  0.563100  0.045000  1
  H  H478  1  0.283800  0.436900  0.545000  1
  H  H479  1  0.783800  0.063100  0.455000  1
  H  H480  1  0.716200  0.936900  0.955000  1
  H  H481  1  0.878700  0.405700  0.949500  1
  H  H482  1  0.621300  0.594300  0.449500  1
  H  H483  1  0.121300  0.905700  0.550500  1
  H  H484  1  0.378700  0.094300  0.050500  1
  H  H485  1  0.121300  0.594300  0.050500  1
  H  H486  1  0.378700  0.405700  0.550500  1
  H  H487  1  0.878700  0.094300  0.449500  1
  H  H488  1  0.621300  0.905700  0.949500  1
  H  H489  1  0.851700  0.428500  0.999900  1
  H  H490  1  0.648300  0.571500  0.499900  1
  H  H491  1  0.148300  0.928500  0.500100  1
  H  H492  1  0.351700  0.071500  0.000100  1
  H  H493  1  0.148300  0.571500  0.000100  1
  H  H494  1  0.351700  0.428500  0.500100  1
  H  H495  1  0.851700  0.071500  0.499900  1
  H  H496  1  0.648300  0.928500  0.999900  1
  H  H497  1  0.019000  0.002700  0.355600  1
  H  H498  1  0.481000  0.997300  0.855600  1
  H  H499  1  0.981000  0.502700  0.144400  1
  H  H500  1  0.519000  0.497300  0.644400  1
  H  H501  1  0.981000  0.997300  0.644400  1
  H  H502  1  0.519000  0.002700  0.144400  1
  H  H503  1  0.019000  0.497300  0.855600  1
  H  H504  1  0.481000  0.502700  0.355600  1
  H  H505  1  0.151400  0.018500  0.406300  1
  H  H506  1  0.348600  0.981500  0.906300  1
  H  H507  1  0.848600  0.518500  0.093700  1
  H  H508  1  0.651400  0.481500  0.593700  1
  H  H509  1  0.848600  0.981500  0.593700  1
  H  H510  1  0.651400  0.018500  0.093700  1
  H  H511  1  0.151400  0.481500  0.906300  1
  H  H512  1  0.348600  0.518500  0.406300  1
  H  H513  1  0.139300  0.971800  0.374100  1
  H  H514  1  0.360700  0.028200  0.874100  1
  H  H515  1  0.860700  0.471800  0.125900  1
  H  H516  1  0.639300  0.528200  0.625900  1
  H  H517  1  0.860700  0.028200  0.625900  1
  H  H518  1  0.639300  0.971800  0.125900  1
  H  H519  1  0.139300  0.528200  0.874100  1
  H  H520  1  0.360700  0.471800  0.374100  1
  H  H521  1  0.104500  0.971400  0.428300  1
  H  H522  1  0.395500  0.028600  0.928300  1
  H  H523  1  0.895500  0.471400  0.071700  1
  H  H524  1  0.604500  0.528600  0.571700  1
  H  H525  1  0.895500  0.028600  0.571700  1
  H  H526  1  0.604500  0.971400  0.071700  1
  H  H527  1  0.104500  0.528600  0.928300  1
  H  H528  1  0.395500  0.471400  0.428300  1
  C  C529  1  0.722700  0.201900  0.074000  1
  C  C530  1  0.777300  0.798100  0.574000  1
  C  C531  1  0.277300  0.701900  0.426000  1
  C  C532  1  0.222700  0.298100  0.926000  1
  C  C533  1  0.277300  0.798100  0.926000  1
  C  C534  1  0.222700  0.201900  0.426000  1
  C  C535  1  0.722700  0.298100  0.574000  1
  C  C536  1  0.777300  0.701900  0.074000  1
  C  C537  1  0.732400  0.220100  0.119100  1
  C  C538  1  0.767600  0.779900  0.619100  1
  C  C539  1  0.267600  0.720100  0.380900  1
  C  C540  1  0.232400  0.279900  0.880900  1
  C  C541  1  0.267600  0.779900  0.880900  1
  C  C542  1  0.232400  0.220100  0.380900  1
  C  C543  1  0.732400  0.279900  0.619100  1
  C  C544  1  0.767600  0.720100  0.119100  1
  C  C545  1  0.776100  0.194400  0.154500  1
  C  C546  1  0.723900  0.805600  0.654500  1
  C  C547  1  0.223900  0.694400  0.345500  1
  C  C548  1  0.276100  0.305600  0.845500  1
  C  C549  1  0.223900  0.805600  0.845500  1
  C  C550  1  0.276100  0.194400  0.345500  1
  C  C551  1  0.776100  0.305600  0.654500  1
  C  C552  1  0.723900  0.694400  0.154500  1
  C  C553  1  0.815600  0.150500  0.145200  1
  C  C554  1  0.684400  0.849500  0.645200  1
  C  C555  1  0.184400  0.650500  0.354800  1
  C  C556  1  0.315600  0.349500  0.854800  1
  C  C557  1  0.184400  0.849500  0.854800  1
  C  C558  1  0.315600  0.150500  0.354800  1
  C  C559  1  0.815600  0.349500  0.645200  1
  C  C560  1  0.684400  0.650500  0.145200  1
  C  C561  1  0.807000  0.131600  0.099000  1
  C  C562  1  0.693000  0.868400  0.599000  1
  C  C563  1  0.193000  0.631600  0.401000  1
  C  C564  1  0.307000  0.368400  0.901000  1
  C  C565  1  0.193000  0.868400  0.901000  1
  C  C566  1  0.307000  0.131600  0.401000  1
  C  C567  1  0.807000  0.368400  0.599000  1
  C  C568  1  0.693000  0.631600  0.099000  1
  C  C569  1  0.759900  0.157400  0.064400  1
  C  C570  1  0.740100  0.842600  0.564400  1
  C  C571  1  0.240100  0.657400  0.435600  1
  C  C572  1  0.259900  0.342600  0.935600  1
  C  C573  1  0.240100  0.842600  0.935600  1
  C  C574  1  0.259900  0.157400  0.435600  1
  C  C575  1  0.759900  0.342600  0.564400  1
  C  C576  1  0.740100  0.657400  0.064400  1
  C  C577  1  0.672800  0.231000  0.036300  1
  C  C578  1  0.827200  0.769000  0.536300  1
  C  C579  1  0.327200  0.731000  0.463700  1
  C  C580  1  0.172800  0.269000  0.963700  1
  C  C581  1  0.327200  0.769000  0.963700  1
  C  C582  1  0.172800  0.231000  0.463700  1
  C  C583  1  0.672800  0.269000  0.536300  1
  C  C584  1  0.827200  0.731000  0.036300  1
  C  C585  1  0.626100  0.186700  0.961800  1
  C  C586  1  0.873900  0.813300  0.461800  1
  C  C587  1  0.373900  0.686700  0.538200  1
  C  C588  1  0.126100  0.313300  0.038200  1
  C  C589  1  0.373900  0.813300  0.038200  1
  C  C590  1  0.126100  0.186700  0.538200  1
  C  C591  1  0.626100  0.313300  0.461800  1
  C  C592  1  0.873900  0.686700  0.961800  1
  C  C593  1  0.670300  0.176100  0.920300  1
  C  C594  1  0.829700  0.823900  0.420300  1
  C  C595  1  0.329700  0.676100  0.579700  1
  C  C596  1  0.170300  0.323900  0.079700  1
  C  C597  1  0.329700  0.823900  0.079700  1
  C  C598  1  0.170300  0.176100  0.579700  1
  C  C599  1  0.670300  0.323900  0.420300  1
  C  C600  1  0.829700  0.676100  0.920300  1
  C  C601  1  0.760000  0.197300  0.922700  1
  C  C602  1  0.740000  0.802700  0.422700  1
  C  C603  1  0.240000  0.697300  0.577300  1
  C  C604  1  0.260000  0.302700  0.077300  1
  C  C605  1  0.240000  0.802700  0.077300  1
  C  C606  1  0.260000  0.197300  0.577300  1
  C  C607  1  0.760000  0.302700  0.422700  1
  C  C608  1  0.740000  0.697300  0.922700  1
  C  C609  1  0.836200  0.196500  0.886700  1
  C  C610  1  0.663800  0.803500  0.386700  1
  C  C611  1  0.163800  0.696500  0.613300  1
  C  C612  1  0.336200  0.303500  0.113300  1
  C  C613  1  0.163800  0.803500  0.113300  1
  C  C614  1  0.336200  0.196500  0.613300  1
  C  C615  1  0.836200  0.303500  0.386700  1
  C  C616  1  0.663800  0.696500  0.886700  1
  C  C617  1  0.820900  0.168900  0.846000  1
  C  C618  1  0.679100  0.831100  0.346000  1
  C  C619  1  0.179100  0.668900  0.654000  1
  C  C620  1  0.320900  0.331100  0.154000  1
  C  C621  1  0.179100  0.831100  0.154000  1
  C  C622  1  0.320900  0.168900  0.654000  1
  C  C623  1  0.820900  0.331100  0.346000  1
  C  C624  1  0.679100  0.668900  0.846000  1
  C  C625  1  0.886800  0.166500  0.809700  1
  C  C626  1  0.613200  0.833500  0.309700  1
  C  C627  1  0.113200  0.666500  0.690300  1
  C  C628  1  0.386800  0.333500  0.190300  1
  C  C629  1  0.113200  0.833500  0.190300  1
  C  C630  1  0.386800  0.166500  0.690300  1
  C  C631  1  0.886800  0.333500  0.309700  1
  C  C632  1  0.613200  0.666500  0.809700  1
  C  C633  1  0.969000  0.193400  0.813100  1
  C  C634  1  0.531000  0.806600  0.313100  1
  C  C635  1  0.031000  0.693400  0.686900  1
  C  C636  1  0.469000  0.306600  0.186900  1
  C  C637  1  0.031000  0.806600  0.186900  1
  C  C638  1  0.469000  0.193400  0.686900  1
  C  C639  1  0.969000  0.306600  0.313100  1
  C  C640  1  0.531000  0.693400  0.813100  1
  C  C641  1  0.987000  0.221000  0.852100  1
  C  C642  1  0.513000  0.779000  0.352100  1
  C  C643  1  0.013000  0.721000  0.647900  1
  C  C644  1  0.487000  0.279000  0.147900  1
  C  C645  1  0.013000  0.779000  0.147900  1
  C  C646  1  0.487000  0.221000  0.647900  1
  C  C647  1  0.987000  0.279000  0.352100  1
  C  C648  1  0.513000  0.721000  0.852100  1
  C  C649  1  0.923100  0.222300  0.890900  1
  C  C650  1  0.576900  0.777700  0.390900  1
  C  C651  1  0.076900  0.722300  0.609100  1
  C  C652  1  0.423100  0.277700  0.109100  1
  C  C653  1  0.076900  0.777700  0.109100  1
  C  C654  1  0.423100  0.222300  0.609100  1
  C  C655  1  0.923100  0.277700  0.390900  1
  C  C656  1  0.576900  0.722300  0.890900  1
  C  C657  1  0.871800  0.124600  0.182500  1
  C  C658  1  0.628200  0.875400  0.682500  1
  C  C659  1  0.128200  0.624600  0.317500  1
  C  C660  1  0.371800  0.375400  0.817500  1
  C  C661  1  0.128200  0.875400  0.817500  1
  C  C662  1  0.371800  0.124600  0.317500  1
  C  C663  1  0.871800  0.375400  0.682500  1
  C  C664  1  0.628200  0.624600  0.182500  1
  C  C665  1  0.741100  0.061600  0.187600  1
  C  C666  1  0.758900  0.938400  0.687600  1
  C  C667  1  0.258900  0.561600  0.312400  1
  C  C668  1  0.241100  0.438400  0.812400  1
  C  C669  1  0.258900  0.938400  0.812400  1
  C  C670  1  0.241100  0.061600  0.312400  1
  C  C671  1  0.741100  0.438400  0.687600  1
  C  C672  1  0.758900  0.561600  0.187600  1
  C  C673  1  0.737000  0.017300  0.206100  1
  C  C674  1  0.763000  0.982700  0.706100  1
  C  C675  1  0.263000  0.517300  0.293900  1
  C  C676  1  0.237000  0.482700  0.793900  1
  C  C677  1  0.263000  0.982700  0.793900  1
  C  C678  1  0.237000  0.017300  0.293900  1
  C  C679  1  0.737000  0.482700  0.706100  1
  C  C680  1  0.763000  0.517300  0.206100  1
  C  C681  1  0.827800  0.006500  0.223100  1
  C  C682  1  0.672200  0.993500  0.723100  1
  C  C683  1  0.172200  0.506500  0.276900  1
  C  C684  1  0.327800  0.493500  0.776900  1
  C  C685  1  0.172200  0.993500  0.776900  1
  C  C686  1  0.327800  0.006500  0.276900  1
  C  C687  1  0.827800  0.493500  0.723100  1
  C  C688  1  0.672200  0.506500  0.223100  1
  C  C689  1  0.861700  0.962500  0.246200  1
  C  C690  1  0.638300  0.037500  0.746200  1
  C  C691  1  0.138300  0.462500  0.253800  1
  C  C692  1  0.361700  0.537500  0.753800  1
  C  C693  1  0.138300  0.037500  0.753800  1
  C  C694  1  0.361700  0.962500  0.253800  1
  C  C695  1  0.861700  0.537500  0.746200  1
  C  C696  1  0.638300  0.462500  0.246200  1
  C  C697  1  0.806000  0.921700  0.241600  1
  C  C698  1  0.694000  0.078300  0.741600  1
  C  C699  1  0.194000  0.421700  0.258400  1
  C  C700  1  0.306000  0.578300  0.758400  1
  C  C701  1  0.194000  0.078300  0.758400  1
  C  C702  1  0.306000  0.921700  0.258400  1
  C  C703  1  0.806000  0.578300  0.741600  1
  C  C704  1  0.694000  0.421700  0.241600  1
  C  C705  1  0.831100  0.878900  0.261300  1
  C  C706  1  0.668900  0.121100  0.761300  1
  C  C707  1  0.168900  0.378900  0.238700  1
  C  C708  1  0.331100  0.621100  0.738700  1
  C  C709  1  0.168900  0.121100  0.738700  1
  C  C710  1  0.331100  0.878900  0.238700  1
  C  C711  1  0.831100  0.621100  0.761300  1
  C  C712  1  0.668900  0.378900  0.261300  1
  C  C713  1  0.914300  0.875900  0.287400  1
  C  C714  1  0.585700  0.124100  0.787400  1
  C  C715  1  0.085700  0.375900  0.212600  1
  C  C716  1  0.414300  0.624100  0.712600  1
  C  C717  1  0.085700  0.124100  0.712600  1
  C  C718  1  0.414300  0.875900  0.212600  1
  C  C719  1  0.914300  0.624100  0.787400  1
  C  C720  1  0.585700  0.375900  0.287400  1
  C  C721  1  0.970900  0.915400  0.292400  1
  C  C722  1  0.529100  0.084600  0.792400  1
  C  C723  1  0.029100  0.415400  0.207600  1
  C  C724  1  0.470900  0.584600  0.707600  1
  C  C725  1  0.029100  0.084600  0.707600  1
  C  C726  1  0.470900  0.915400  0.207600  1
  C  C727  1  0.970900  0.584600  0.792400  1
  C  C728  1  0.529100  0.415400  0.292400  1
  C  C729  1  0.948800  0.959900  0.272100  1
  C  C730  1  0.551200  0.040100  0.772100  1
  C  C731  1  0.051200  0.459900  0.227900  1
  C  C732  1  0.448800  0.540100  0.727900  1
  C  C733  1  0.051200  0.040100  0.727900  1
  C  C734  1  0.448800  0.959900  0.227900  1
  C  C735  1  0.948800  0.540100  0.772100  1
  C  C736  1  0.551200  0.459900  0.272100  1
  C  C737  1  0.978100  0.107900  0.994600  1
  C  C738  1  0.521900  0.892100  0.494600  1
  C  C739  1  0.021900  0.607900  0.505400  1
  C  C740  1  0.478100  0.392100  0.005400  1
  C  C741  1  0.021900  0.892100  0.005400  1
  C  C742  1  0.478100  0.107900  0.505400  1
  C  C743  1  0.978100  0.392100  0.494600  1
  C  C744  1  0.521900  0.607900  0.994600  1
  C  C745  1  0.989400  0.073900  0.030400  1
  C  C746  1  0.510600  0.926100  0.530400  1
  C  C747  1  0.010600  0.573900  0.469600  1
  C  C748  1  0.489400  0.426100  0.969600  1
  C  C749  1  0.010600  0.926100  0.969600  1
  C  C750  1  0.489400  0.073900  0.469600  1
  C  C751  1  0.989400  0.426100  0.530400  1
  C  C752  1  0.510600  0.573900  0.030400  1
  C  C753  1  0.927700  0.035000  0.036400  1
  C  C754  1  0.572300  0.965000  0.536400  1
  C  C755  1  0.072300  0.535000  0.463600  1
  C  C756  1  0.427700  0.465000  0.963600  1
  C  C757  1  0.072300  0.965000  0.963600  1
  C  C758  1  0.427700  0.035000  0.463600  1
  C  C759  1  0.927700  0.465000  0.536400  1
  C  C760  1  0.572300  0.535000  0.036400  1
  C  C761  1  0.851800  0.032300  0.003400  1
  C  C762  1  0.648200  0.967700  0.503400  1
  C  C763  1  0.148200  0.532300  0.496600  1
  C  C764  1  0.351800  0.467700  0.996600  1
  C  C765  1  0.148200  0.967700  0.996600  1
  C  C766  1  0.351800  0.032300  0.496600  1
  C  C767  1  0.851800  0.467700  0.503400  1
  C  C768  1  0.648200  0.532300  0.003400  1
  C  C769  1  0.840200  0.064800  0.967900  1
  C  C770  1  0.659800  0.935200  0.467900  1
  C  C771  1  0.159800  0.564800  0.532100  1
  C  C772  1  0.340200  0.435200  0.032100  1
  C  C773  1  0.159800  0.935200  0.032100  1
  C  C774  1  0.340200  0.064800  0.532100  1
  C  C775  1  0.840200  0.435200  0.467900  1
  C  C776  1  0.659800  0.564800  0.967900  1
  C  C777  1  0.903100  0.103000  0.963000  1
  C  C778  1  0.596900  0.897000  0.463000  1
  C  C779  1  0.096900  0.603000  0.537000  1
  C  C780  1  0.403100  0.397000  0.037000  1
  C  C781  1  0.096900  0.897000  0.037000  1
  C  C782  1  0.403100  0.103000  0.537000  1
  C  C783  1  0.903100  0.397000  0.463000  1
  C  C784  1  0.596900  0.603000  0.963000  1
  C  C785  1  0.046700  0.148400  0.989900  1
  C  C786  1  0.453300  0.851600  0.489900  1
  C  C787  1  0.953300  0.648400  0.510100  1
  C  C788  1  0.546700  0.351600  0.010100  1
  C  C789  1  0.953300  0.851600  0.010100  1
  C  C790  1  0.546700  0.148400  0.510100  1
  C  C791  1  0.046700  0.351600  0.489900  1
  C  C792  1  0.453300  0.648400  0.989900  1
  C  C793  1  0.101000  0.176400  0.071000  1
  C  C794  1  0.399000  0.823600  0.571000  1
  C  C795  1  0.899000  0.676400  0.429000  1
  C  C796  1  0.601000  0.323600  0.929000  1
  C  C797  1  0.899000  0.823600  0.929000  1
  C  C798  1  0.601000  0.176400  0.429000  1
  C  C799  1  0.101000  0.323600  0.571000  1
  C  C800  1  0.399000  0.676400  0.071000  1
  C  C801  1  0.069900  0.208800  0.102900  1
  C  C802  1  0.430100  0.791200  0.602900  1
  C  C803  1  0.930100  0.708800  0.397100  1
  C  C804  1  0.569900  0.291200  0.897100  1
  C  C805  1  0.930100  0.791200  0.897100  1
  C  C806  1  0.569900  0.208800  0.397100  1
  C  C807  1  0.069900  0.291200  0.602900  1
  C  C808  1  0.430100  0.708800  0.102900  1
  C  C809  1  0.993300  0.232500  0.081400  1
  C  C810  1  0.506700  0.767500  0.581400  1
  C  C811  1  0.006700  0.732500  0.418600  1
  C  C812  1  0.493300  0.267500  0.918600  1
  C  C813  1  0.006700  0.767500  0.918600  1
  C  C814  1  0.493300  0.232500  0.418600  1
  C  C815  1  0.993300  0.267500  0.581400  1
  C  C816  1  0.506700  0.732500  0.081400  1
  C  C817  1  0.935700  0.272400  0.101000  1
  C  C818  1  0.564300  0.727600  0.601000  1
  C  C819  1  0.064300  0.772400  0.399000  1
  C  C820  1  0.435700  0.227600  0.899000  1
  C  C821  1  0.064300  0.727600  0.899000  1
  C  C822  1  0.435700  0.272400  0.399000  1
  C  C823  1  0.935700  0.227600  0.601000  1
  C  C824  1  0.564300  0.772400  0.101000  1
  C  C825  1  0.934200  0.277000  0.150300  1
  C  C826  1  0.565800  0.723000  0.650300  1
  C  C827  1  0.065800  0.777000  0.349700  1
  C  C828  1  0.434200  0.223000  0.849700  1
  C  C829  1  0.065800  0.723000  0.849700  1
  C  C830  1  0.434200  0.277000  0.349700  1
  C  C831  1  0.934200  0.223000  0.650300  1
  C  C832  1  0.565800  0.777000  0.150300  1
  C  C833  1  0.882700  0.311900  0.172900  1
  C  C834  1  0.617300  0.688100  0.672900  1
  C  C835  1  0.117300  0.811900  0.327100  1
  C  C836  1  0.382700  0.188100  0.827100  1
  C  C837  1  0.117300  0.688100  0.827100  1
  C  C838  1  0.382700  0.311900  0.327100  1
  C  C839  1  0.882700  0.188100  0.672900  1
  C  C840  1  0.617300  0.811900  0.172900  1
  C  C841  1  0.831400  0.343600  0.145600  1
  C  C842  1  0.668600  0.656400  0.645600  1
  C  C843  1  0.168600  0.843600  0.354400  1
  C  C844  1  0.331400  0.156400  0.854400  1
  C  C845  1  0.168600  0.656400  0.854400  1
  C  C846  1  0.331400  0.343600  0.354400  1
  C  C847  1  0.831400  0.156400  0.645600  1
  C  C848  1  0.668600  0.843600  0.145600  1
  C  C849  1  0.832400  0.340000  0.096900  1
  C  C850  1  0.667600  0.660000  0.596900  1
  C  C851  1  0.167600  0.840000  0.403100  1
  C  C852  1  0.332400  0.160000  0.903100  1
  C  C853  1  0.167600  0.660000  0.903100  1
  C  C854  1  0.332400  0.340000  0.403100  1
  C  C855  1  0.832400  0.160000  0.596900  1
  C  C856  1  0.667600  0.840000  0.096900  1
  C  C857  1  0.883600  0.304300  0.073100  1
  C  C858  1  0.616400  0.695700  0.573100  1
  C  C859  1  0.116400  0.804300  0.426900  1
  C  C860  1  0.383600  0.195700  0.926900  1
  C  C861  1  0.116400  0.695700  0.926900  1
  C  C862  1  0.383600  0.304300  0.426900  1
  C  C863  1  0.883600  0.195700  0.573100  1
  C  C864  1  0.616400  0.804300  0.073100  1
  C  C865  1  0.940400  0.999000  0.074000  1
  C  C866  1  0.559600  0.001000  0.574000  1
  C  C867  1  0.059600  0.499000  0.426000  1
  C  C868  1  0.440400  0.501000  0.926000  1
  C  C869  1  0.059600  0.001000  0.926000  1
  C  C870  1  0.440400  0.999000  0.426000  1
  C  C871  1  0.940400  0.501000  0.574000  1
  C  C872  1  0.559600  0.499000  0.074000  1
  C  C873  1  0.018500  0.999800  0.104700  1
  C  C874  1  0.481500  0.000200  0.604700  1
  C  C875  1  0.981500  0.499800  0.395300  1
  C  C876  1  0.518500  0.500200  0.895300  1
  C  C877  1  0.981500  0.000200  0.895300  1
  C  C878  1  0.518500  0.999800  0.395300  1
  C  C879  1  0.018500  0.500200  0.604700  1
  C  C880  1  0.481500  0.499800  0.104700  1
  C  C881  1  0.032600  0.966500  0.140000  1
  C  C882  1  0.467400  0.033500  0.640000  1
  C  C883  1  0.967400  0.466500  0.360000  1
  C  C884  1  0.532600  0.533500  0.860000  1
  C  C885  1  0.967400  0.033500  0.860000  1
  C  C886  1  0.532600  0.966500  0.360000  1
  C  C887  1  0.032600  0.533500  0.640000  1
  C  C888  1  0.467400  0.466500  0.140000  1
  C  C889  1  0.966200  0.930300  0.145400  1
  C  C890  1  0.533800  0.069700  0.645400  1
  C  C891  1  0.033800  0.430300  0.354600  1
  C  C892  1  0.466200  0.569700  0.854600  1
  C  C893  1  0.033800  0.069700  0.854600  1
  C  C894  1  0.466200  0.930300  0.354600  1
  C  C895  1  0.966200  0.569700  0.645400  1
  C  C896  1  0.533800  0.430300  0.145400  1
  C  C897  1  0.886700  0.929200  0.116700  1
  C  C898  1  0.613300  0.070800  0.616700  1
  C  C899  1  0.113300  0.429200  0.383300  1
  C  C900  1  0.386700  0.570800  0.883300  1
  C  C901  1  0.113300  0.070800  0.883300  1
  C  C902  1  0.386700  0.929200  0.383300  1
  C  C903  1  0.886700  0.570800  0.616700  1
  C  C904  1  0.613300  0.429200  0.116700  1
  C  C905  1  0.874100  0.963100  0.081900  1
  C  C906  1  0.625900  0.036900  0.581900  1
  C  C907  1  0.125900  0.463100  0.418100  1
  C  C908  1  0.374100  0.536900  0.918100  1
  C  C909  1  0.125900  0.036900  0.918100  1
  C  C910  1  0.374100  0.963100  0.418100  1
  C  C911  1  0.874100  0.536900  0.581900  1
  C  C912  1  0.625900  0.463100  0.081900  1
  C  C913  1  0.120600  0.965200  0.170700  1
  C  C914  1  0.379400  0.034800  0.670700  1
  C  C915  1  0.879400  0.465200  0.329300  1
  C  C916  1  0.620600  0.534800  0.829300  1
  C  C917  1  0.879400  0.034800  0.829300  1
  C  C918  1  0.620600  0.965200  0.329300  1
  C  C919  1  0.120600  0.534800  0.670700  1
  C  C920  1  0.379400  0.465200  0.170700  1
  C  C921  1  0.258300  0.021700  0.156100  1
  C  C922  1  0.241700  0.978300  0.656100  1
  C  C923  1  0.741700  0.521700  0.343900  1
  C  C924  1  0.758300  0.478300  0.843900  1
  C  C925  1  0.741700  0.978300  0.843900  1
  C  C926  1  0.758300  0.021700  0.343900  1
  C  C927  1  0.258300  0.478300  0.656100  1
  C  C928  1  0.241700  0.521700  0.156100  1
  C  C929  1  0.275400  0.067300  0.166500  1
  C  C930  1  0.224600  0.932700  0.666500  1
  C  C931  1  0.724600  0.567300  0.333500  1
  C  C932  1  0.775400  0.432700  0.833500  1
  C  C933  1  0.724600  0.932700  0.833500  1
  C  C934  1  0.775400  0.067300  0.333500  1
  C  C935  1  0.275400  0.432700  0.666500  1
  C  C936  1  0.224600  0.567300  0.166500  1
  C  C937  1  0.196700  0.084400  0.191100  1
  C  C938  1  0.303300  0.915600  0.691100  1
  C  C939  1  0.803300  0.584400  0.308900  1
  C  C940  1  0.696700  0.415600  0.808900  1
  C  C941  1  0.803300  0.915600  0.808900  1
  C  C942  1  0.696700  0.084400  0.308900  1
  C  C943  1  0.196700  0.415600  0.691100  1
  C  C944  1  0.303300  0.584400  0.191100  1
  C  C945  1  0.179000  0.133300  0.209500  1
  C  C946  1  0.321000  0.866700  0.709500  1
  C  C947  1  0.821000  0.633300  0.290500  1
  C  C948  1  0.679000  0.366700  0.790500  1
  C  C949  1  0.821000  0.866700  0.790500  1
  C  C950  1  0.679000  0.133300  0.290500  1
  C  C951  1  0.179000  0.366700  0.709500  1
  C  C952  1  0.321000  0.633300  0.209500  1
  C  C953  1  0.239700  0.169600  0.194500  1
  C  C954  1  0.260300  0.830400  0.694500  1
  C  C955  1  0.760300  0.669600  0.305500  1
  C  C956  1  0.739700  0.330400  0.805500  1
  C  C957  1  0.760300  0.830400  0.805500  1
  C  C958  1  0.739700  0.169600  0.305500  1
  C  C959  1  0.239700  0.330400  0.694500  1
  C  C960  1  0.260300  0.669600  0.194500  1
  C  C961  1  0.228800  0.215700  0.208700  1
  C  C962  1  0.271200  0.784300  0.708700  1
  C  C963  1  0.771200  0.715700  0.291300  1
  C  C964  1  0.728800  0.284300  0.791300  1
  C  C965  1  0.771200  0.784300  0.791300  1
  C  C966  1  0.728800  0.215700  0.291300  1
  C  C967  1  0.228800  0.284300  0.708700  1
  C  C968  1  0.271200  0.715700  0.208700  1
  C  C969  1  0.154400  0.227800  0.238500  1
  C  C970  1  0.345600  0.772200  0.738500  1
  C  C971  1  0.845600  0.727800  0.261500  1
  C  C972  1  0.654400  0.272200  0.761500  1
  C  C973  1  0.845600  0.772200  0.761500  1
  C  C974  1  0.654400  0.227800  0.261500  1
  C  C975  1  0.154400  0.272200  0.738500  1
  C  C976  1  0.345600  0.727800  0.238500  1
  C  C977  1  0.093100  0.193000  0.255000  1
  C  C978  1  0.406900  0.807000  0.755000  1
  C  C979  1  0.906900  0.693000  0.245000  1
  C  C980  1  0.593100  0.307000  0.745000  1
  C  C981  1  0.906900  0.807000  0.745000  1
  C  C982  1  0.593100  0.193000  0.245000  1
  C  C983  1  0.093100  0.307000  0.755000  1
  C  C984  1  0.406900  0.693000  0.255000  1
  C  C985  1  0.104200  0.144700  0.242000  1
  C  C986  1  0.395800  0.855300  0.742000  1
  C  C987  1  0.895800  0.644700  0.258000  1
  C  C988  1  0.604200  0.355300  0.758000  1
  C  C989  1  0.895800  0.855300  0.758000  1
  C  C990  1  0.604200  0.144700  0.258000  1
  C  C991  1  0.104200  0.355300  0.742000  1
  C  C992  1  0.395800  0.644700  0.242000  1
  C  C993  1  0.111500  0.015600  0.418300  1
  C  C994  1  0.388500  0.984400  0.918300  1
  C  C995  1  0.888500  0.515600  0.081700  1
  C  C996  1  0.611500  0.484400  0.581700  1
  C  C997  1  0.888500  0.984400  0.581700  1
  C  C998  1  0.611500  0.015600  0.081700  1
  C  C999  1  0.111500  0.484400  0.918300  1
  C  C1000  1  0.388500  0.515600  0.418300  1
  C  C1001  1  0.920700  0.940900  0.467400  1
  C  C1002  1  0.579300  0.059100  0.967400  1
  C  C1003  1  0.079300  0.440900  0.032600  1
  C  C1004  1  0.420700  0.559100  0.532600  1
  C  C1005  1  0.079300  0.059100  0.532600  1
  C  C1006  1  0.420700  0.940900  0.032600  1
  C  C1007  1  0.920700  0.559100  0.967400  1
  C  C1008  1  0.579300  0.440900  0.467400  1
  C  C1009  1  0.005200  0.148300  0.380200  1
  C  C1010  1  0.494800  0.851700  0.880200  1
  C  C1011  1  0.994800  0.648300  0.119800  1
  C  C1012  1  0.505200  0.351700  0.619800  1
  C  C1013  1  0.994800  0.851700  0.619800  1
  C  C1014  1  0.505200  0.148300  0.119800  1
  C  C1015  1  0.005200  0.351700  0.880200  1
  C  C1016  1  0.494800  0.648300  0.380200  1
  C  C1017  1  0.826000  0.414100  0.970800  1
  C  C1018  1  0.674000  0.585900  0.470800  1
  C  C1019  1  0.174000  0.914100  0.529200  1
  C  C1020  1  0.326000  0.085900  0.029200  1
  C  C1021  1  0.174000  0.585900  0.029200  1
  C  C1022  1  0.326000  0.414100  0.529200  1
  C  C1023  1  0.826000  0.085900  0.470800  1
  C  C1024  1  0.674000  0.914100  0.970800  1
  C  C1025  1  0.110700  0.990900  0.399600  1
  C  C1026  1  0.389300  0.009100  0.899600  1
  C  C1027  1  0.889300  0.490900  0.100400  1
  C  C1028  1  0.610700  0.509100  0.600400  1
  C  C1029  1  0.889300  0.009100  0.600400  1
  C  C1030  1  0.610700  0.990900  0.100400  1
  C  C1031  1  0.110700  0.509100  0.899600  1
  C  C1032  1  0.389300  0.490900  0.399600  1
  N  N1033  1  0.770400  0.218700  0.965300  1
  N  N1034  1  0.729600  0.781300  0.465300  1
  N  N1035  1  0.229600  0.718700  0.534700  1
  N  N1036  1  0.270400  0.281300  0.034700  1
  N  N1037  1  0.229600  0.781300  0.034700  1
  N  N1038  1  0.270400  0.218700  0.534700  1
  N  N1039  1  0.770400  0.281300  0.465300  1
  N  N1040  1  0.729600  0.718700  0.965300  1
  N  N1041  1  0.685200  0.212900  0.988600  1
  N  N1042  1  0.814800  0.787100  0.488600  1
  N  N1043  1  0.314800  0.712900  0.511400  1
  N  N1044  1  0.185200  0.287100  0.011400  1
  N  N1045  1  0.314800  0.787100  0.011400  1
  N  N1046  1  0.185200  0.212900  0.511400  1
  N  N1047  1  0.685200  0.287100  0.488600  1
  N  N1048  1  0.814800  0.712900  0.988600  1
  N  N1049  1  0.831100  0.077500  0.192500  1
  N  N1050  1  0.668900  0.922500  0.692500  1
  N  N1051  1  0.168900  0.577500  0.307500  1
  N  N1052  1  0.331100  0.422500  0.807500  1
  N  N1053  1  0.168900  0.922500  0.807500  1
  N  N1054  1  0.331100  0.077500  0.307500  1
  N  N1055  1  0.831100  0.422500  0.692500  1
  N  N1056  1  0.668900  0.577500  0.192500  1
  N  N1057  1  0.885400  0.044300  0.214800  1
  N  N1058  1  0.614600  0.955700  0.714800  1
  N  N1059  1  0.114600  0.544300  0.285200  1
  N  N1060  1  0.385400  0.455700  0.785200  1
  N  N1061  1  0.114600  0.955700  0.785200  1
  N  N1062  1  0.385400  0.044300  0.285200  1
  N  N1063  1  0.885400  0.455700  0.714800  1
  N  N1064  1  0.614600  0.544300  0.214800  1
  N  N1065  1  0.978100  0.214200  0.037300  1
  N  N1066  1  0.521900  0.785800  0.537300  1
  N  N1067  1  0.021900  0.714200  0.462700  1
  N  N1068  1  0.478100  0.285800  0.962700  1
  N  N1069  1  0.021900  0.785800  0.962700  1
  N  N1070  1  0.478100  0.214200  0.462700  1
  N  N1071  1  0.978100  0.285800  0.537300  1
  N  N1072  1  0.521900  0.714200  0.037300  1
  N  N1073  1  0.047000  0.180200  0.031000  1
  N  N1074  1  0.453000  0.819800  0.531000  1
  N  N1075  1  0.953000  0.680200  0.469000  1
  N  N1076  1  0.547000  0.319800  0.969000  1
  N  N1077  1  0.953000  0.819800  0.969000  1
  N  N1078  1  0.547000  0.180200  0.469000  1
  N  N1079  1  0.047000  0.319800  0.531000  1
  N  N1080  1  0.453000  0.680200  0.031000  1
  N  N1081  1  0.171300  0.010400  0.173300  1
  N  N1082  1  0.328700  0.989600  0.673300  1
  N  N1083  1  0.828700  0.510400  0.326700  1
  N  N1084  1  0.671300  0.489600  0.826700  1
  N  N1085  1  0.828700  0.989600  0.826700  1
  N  N1086  1  0.671300  0.010400  0.326700  1
  N  N1087  1  0.171300  0.489600  0.673300  1
  N  N1088  1  0.328700  0.510400  0.173300  1
  N  N1089  1  0.131700  0.049000  0.194600  1
  N  N1090  1  0.368300  0.951000  0.694600  1
  N  N1091  1  0.868300  0.549000  0.305400  1
  N  N1092  1  0.631700  0.451000  0.805400  1
  N  N1093  1  0.868300  0.951000  0.805400  1
  N  N1094  1  0.631700  0.049000  0.305400  1
  N  N1095  1  0.131700  0.451000  0.694600  1
  N  N1096  1  0.368300  0.549000  0.194600  1
  O  O1097  1  0.949000  0.247730  0.928680  1
  O  O1098  1  0.551000  0.752270  0.428680  1
  O  O1099  1  0.051000  0.747730  0.571320  1
  O  O1100  1  0.449000  0.252270  0.071320  1
  O  O1101  1  0.051000  0.752270  0.071320  1
  O  O1102  1  0.449000  0.247730  0.571320  1
  O  O1103  1  0.949000  0.252270  0.428680  1
  O  O1104  1  0.551000  0.747730  0.928680  1
  O  O1105  1  0.009600  0.995760  0.277600  1
  O  O1106  1  0.490400  0.004240  0.777600  1
  O  O1107  1  0.990400  0.495760  0.222400  1
  O  O1108  1  0.509600  0.504240  0.722400  1
  O  O1109  1  0.990400  0.004240  0.722400  1
  O  O1110  1  0.509600  0.995760  0.222400  1
  O  O1111  1  0.009600  0.504240  0.777600  1
  O  O1112  1  0.490400  0.495760  0.277600  1
  O  O1113  1  0.880300  0.302810  0.025360  1
  O  O1114  1  0.619700  0.697190  0.525360  1
  O  O1115  1  0.119700  0.802810  0.474640  1
  O  O1116  1  0.380300  0.197190  0.974640  1
  O  O1117  1  0.119700  0.697190  0.974640  1
  O  O1118  1  0.380300  0.302810  0.474640  1
  O  O1119  1  0.880300  0.197190  0.525360  1
  O  O1120  1  0.619700  0.802810  0.025360  1
  O  O1121  1  0.044200  0.112920  0.260560  1
  O  O1122  1  0.455800  0.887080  0.760560  1
  O  O1123  1  0.955800  0.612920  0.239440  1
  O  O1124  1  0.544200  0.387080  0.739440  1
  O  O1125  1  0.955800  0.887080  0.739440  1
  O  O1126  1  0.544200  0.112920  0.239440  1
  O  O1127  1  0.044200  0.387080  0.760560  1
  O  O1128  1  0.455800  0.612920  0.260560  1
  O  O1129  1  0.018900  0.030100  0.411400  1
  O  O1130  1  0.481100  0.969900  0.911400  1
  O  O1131  1  0.981100  0.530100  0.088600  1
  O  O1132  1  0.518900  0.469900  0.588600  1
  O  O1133  1  0.981100  0.969900  0.588600  1
  O  O1134  1  0.518900  0.030100  0.088600  1
  O  O1135  1  0.018900  0.469900  0.911400  1
  O  O1136  1  0.481100  0.530100  0.411400  1
  O  O1137  1  0.885100  0.964400  0.428500  1
  O  O1138  1  0.614900  0.035600  0.928500  1
  O  O1139  1  0.114900  0.464400  0.071500  1
  O  O1140  1  0.385100  0.535600  0.571500  1
  O  O1141  1  0.114900  0.035600  0.571500  1
  O  O1142  1  0.385100  0.964400  0.071500  1
  O  O1143  1  0.885100  0.535600  0.928500  1
  O  O1144  1  0.614900  0.464400  0.428500  1
  O  O1145  1  0.002300  0.108000  0.354100  1
  O  O1146  1  0.497700  0.892000  0.854100  1
  O  O1147  1  0.997700  0.608000  0.145900  1
  O  O1148  1  0.502300  0.392000  0.645900  1
  O  O1149  1  0.997700  0.892000  0.645900  1
  O  O1150  1  0.502300  0.108000  0.145900  1
  O  O1151  1  0.002300  0.392000  0.854100  1
  O  O1152  1  0.497700  0.608000  0.354100  1
  O  O1153  1  0.776300  0.374300  0.982100  1
  O  O1154  1  0.723700  0.625700  0.482100  1
  O  O1155  1  0.223700  0.874300  0.517900  1
  O  O1156  1  0.276300  0.125700  0.017900  1
  O  O1157  1  0.223700  0.625700  0.017900  1
  O  O1158  1  0.276300  0.374300  0.517900  1
  O  O1159  1  0.776300  0.125700  0.482100  1
  O  O1160  1  0.723700  0.874300  0.982100  1
  O  O1161  1  0.022200  0.006400  0.385600  1
  O  O1162  1  0.477800  0.993600  0.885600  1
  O  O1163  1  0.977800  0.506400  0.114400  1
  O  O1164  1  0.522200  0.493600  0.614400  1
  O  O1165  1  0.977800  0.993600  0.614400  1
  O  O1166  1  0.522200  0.006400  0.114400  1
  O  O1167  1  0.022200  0.493600  0.885600  1
  O  O1168  1  0.477800  0.506400  0.385600  1
