# generated using pymatgen
data_Fe2H120C87O31
_symmetry_space_group_name_H-M   'P 1'
_cell_length_a   19.99612908
_cell_length_b   19.99612908
_cell_length_c   28.64800000
_cell_angle_alpha   90.86558377
_cell_angle_beta   90.86558377
_cell_angle_gamma   102.30180501
_symmetry_Int_Tables_number   1
_chemical_formula_structural   Fe2H120C87O31
_chemical_formula_sum   'Fe8 H480 C348 O124'
_cell_volume   11188.50415085
_cell_formula_units_Z   4
loop_
 _symmetry_equiv_pos_site_id
 _symmetry_equiv_pos_as_xyz
  1  'x, y, z'
loop_
 _atom_site_type_symbol
 _atom_site_label
 _atom_site_symmetry_multiplicity
 _atom_site_fract_x
 _atom_site_fract_y
 _atom_site_fract_z
 _atom_site_occupancy
  C  C1  1  0.148700  0.028500  0.497100  1
  C  C2  1  0.028500  0.148700  0.997100  1
  C  C3  1  0.851300  0.971500  0.502900  1
  C  C4  1  0.971500  0.851300  0.002900  1
  C  C5  1  0.216800  0.067000  0.508200  1
  C  C6  1  0.067000  0.216800  0.008200  1
  C  C7  1  0.783200  0.933000  0.491800  1
  C  C8  1  0.933000  0.783200  0.991800  1
  C  C9  1  0.103200  0.018800  0.534400  1
  C  C10  1  0.018800  0.103200  0.034400  1
  C  C11  1  0.896800  0.981200  0.465600  1
  C  C12  1  0.981200  0.896800  0.965600  1
  C  C13  1  0.594160  0.233100  0.135830  1.0
  C  C14  1  0.233100  0.594160  0.635830  1.0
  C  C15  1  0.405840  0.766900  0.864170  1.0
  C  C16  1  0.766900  0.405840  0.364170  1.0
  C  C17  1  0.629270  0.296930  0.121720  1.0
  C  C18  1  0.296930  0.629270  0.621720  1.0
  C  C19  1  0.370730  0.703070  0.878280  1.0
  C  C20  1  0.703070  0.370730  0.378280  1.0
  C  C21  1  0.615990  0.355470  0.141740  1.0
  C  C22  1  0.355470  0.615990  0.641740  1.0
  C  C23  1  0.384010  0.644530  0.858260  1.0
  C  C24  1  0.644530  0.384010  0.358260  1.0
  C  C25  1  0.567720  0.350540  0.177200  1.0
  C  C26  1  0.350540  0.567720  0.677200  1.0
  C  C27  1  0.432280  0.649460  0.822800  1.0
  C  C28  1  0.649460  0.432280  0.322800  1.0
  C  C29  1  0.532270  0.287190  0.191200  1.0
  C  C30  1  0.287190  0.532270  0.691200  1.0
  C  C31  1  0.467730  0.712810  0.808800  1.0
  C  C32  1  0.712810  0.467730  0.308800  1.0
  C  C33  1  0.546950  0.228170  0.170870  1.0
  C  C34  1  0.228170  0.546950  0.670870  1.0
  C  C35  1  0.453050  0.771830  0.829130  1.0
  C  C36  1  0.771830  0.453050  0.329130  1.0
  C  C37  1  0.611340  0.169160  0.115920  1.0
  C  C38  1  0.169160  0.611340  0.615920  1.0
  C  C39  1  0.388660  0.830840  0.884080  1.0
  C  C40  1  0.830840  0.388660  0.384080  1.0
  C  C41  1  0.561870  0.112010  0.104740  1.0
  C  C42  1  0.112010  0.561870  0.604740  1.0
  C  C43  1  0.438130  0.887990  0.895260  1.0
  C  C44  1  0.887990  0.438130  0.395260  1.0
  C  C45  1  0.581500  0.050000  0.088230  1.0
  C  C46  1  0.050000  0.581500  0.588230  1.0
  C  C47  1  0.418500  0.950000  0.911770  1.0
  C  C48  1  0.950000  0.418500  0.411770  1.0
  C  C49  1  0.535450  0.931550  0.062200  1.0
  C  C50  1  0.931550  0.535450  0.562200  1.0
  C  C51  1  0.464550  0.068450  0.937800  1.0
  C  C52  1  0.068450  0.464550  0.437800  1.0
  C  C53  1  0.488770  0.112970  0.108200  1.0
  C  C54  1  0.112970  0.488770  0.608200  1.0
  C  C55  1  0.511230  0.887030  0.891800  1.0
  C  C56  1  0.887030  0.511230  0.391800  1.0
  C  C57  1  0.384250  0.057150  0.148300  1.0
  C  C58  1  0.057150  0.384250  0.648300  1.0
  C  C59  1  0.615750  0.942850  0.851700  1.0
  C  C60  1  0.942850  0.615750  0.351700  1.0
  C  C61  1  0.657830  0.425290  0.130830  1.0
  C  C62  1  0.425290  0.657830  0.630830  1.0
  C  C63  1  0.342170  0.574710  0.869170  1.0
  C  C64  1  0.574710  0.342170  0.369170  1.0
  C  C65  1  0.672590  0.445130  0.085620  1.0
  C  C66  1  0.445130  0.672590  0.585620  1.0
  C  C67  1  0.327410  0.554870  0.914380  1.0
  C  C68  1  0.554870  0.327410  0.414380  1.0
  C  C69  1  0.716480  0.510720  0.077080  1.0
  C  C70  1  0.510720  0.716480  0.577080  1.0
  C  C71  1  0.283520  0.489280  0.922920  1.0
  C  C72  1  0.489280  0.283520  0.422920  1.0
  C  C73  1  0.758560  0.593840  0.016020  1.0
  C  C74  1  0.593840  0.758560  0.516020  1.0
  C  C75  1  0.241440  0.406160  0.983980  1.0
  C  C76  1  0.406160  0.241440  0.483980  1.0
  C  C77  1  0.642040  0.404360  0.044300  1.0
  C  C78  1  0.404360  0.642040  0.544300  1.0
  C  C79  1  0.357960  0.595640  0.955700  1.0
  C  C80  1  0.595640  0.357960  0.455700  1.0
  C  C81  1  0.531900  0.352900  0.006300  1.0
  C  C82  1  0.352900  0.531900  0.506300  1.0
  C  C83  1  0.468100  0.647100  0.993700  1.0
  C  C84  1  0.647100  0.468100  0.493700  1.0
  C  C85  1  0.483560  0.280020  0.229820  1.0
  C  C86  1  0.280020  0.483560  0.729820  1.0
  C  C87  1  0.516440  0.719980  0.770180  1.0
  C  C88  1  0.719980  0.516440  0.270180  1.0
  C  C89  1  0.435970  0.321350  0.234110  1.0
  C  C90  1  0.321350  0.435970  0.734110  1.0
  C  C91  1  0.564030  0.678650  0.765890  1.0
  C  C92  1  0.678650  0.564030  0.265890  1.0
  C  C93  1  0.391020  0.315520  0.272800  1.0
  C  C94  1  0.315520  0.391020  0.772800  1.0
  C  C95  1  0.608980  0.684480  0.727200  1.0
  C  C96  1  0.684480  0.608980  0.227200  1.0
  C  C97  1  0.288300  0.348300  0.303200  1.0
  C  C98  1  0.348300  0.288300  0.803200  1.0
  C  C99  1  0.711700  0.651700  0.696800  1.0
  C  C100  1  0.651700  0.711700  0.196800  1.0
  C  C101  1  0.421900  0.362500  0.193300  1.0
  C  C102  1  0.362500  0.421900  0.693300  1.0
  C  C103  1  0.578100  0.637500  0.806700  1.0
  C  C104  1  0.637500  0.578100  0.306700  1.0
  C  C105  1  0.433600  0.479000  0.164500  1.0
  C  C106  1  0.479000  0.433600  0.664500  1.0
  C  C107  1  0.566400  0.521000  0.835500  1.0
  C  C108  1  0.521000  0.566400  0.335500  1.0
  C  C109  1  0.698300  0.074600  0.262460  1.0
  C  C110  1  0.074600  0.698300  0.762460  1.0
  C  C111  1  0.301700  0.925400  0.737540  1.0
  C  C112  1  0.925400  0.301700  0.237540  1.0
  C  C113  1  0.748470  0.098910  0.294750  1.0
  C  C114  1  0.098910  0.748470  0.794750  1.0
  C  C115  1  0.251530  0.901090  0.705250  1.0
  C  C116  1  0.901090  0.251530  0.205250  1.0
  C  C117  1  0.733620  0.128220  0.336990  1.0
  C  C118  1  0.128220  0.733620  0.836990  1.0
  C  C119  1  0.266380  0.871780  0.663010  1.0
  C  C120  1  0.871780  0.266380  0.163010  1.0
  C  C121  1  0.667260  0.134460  0.344570  1.0
  C  C122  1  0.134460  0.667260  0.844570  1.0
  C  C123  1  0.332740  0.865540  0.655430  1.0
  C  C124  1  0.865540  0.332740  0.155430  1.0
  C  C125  1  0.615200  0.110040  0.313040  1.0
  C  C126  1  0.110040  0.615200  0.813040  1.0
  C  C127  1  0.384800  0.889960  0.686960  1.0
  C  C128  1  0.889960  0.384800  0.186960  1.0
  C  C129  1  0.630920  0.080400  0.271700  1.0
  C  C130  1  0.080400  0.630920  0.771700  1.0
  C  C131  1  0.369080  0.919600  0.728300  1.0
  C  C132  1  0.919600  0.369080  0.228300  1.0
  C  C133  1  0.713130  0.050450  0.215460  1.0
  C  C134  1  0.050450  0.713130  0.715460  1.0
  C  C135  1  0.286870  0.949550  0.784540  1.0
  C  C136  1  0.949550  0.286870  0.284540  1.0
  C  C137  1  0.755050  0.003970  0.208500  1.0
  C  C138  1  0.003970  0.755050  0.708500  1.0
  C  C139  1  0.244950  0.996030  0.791500  1.0
  C  C140  1  0.996030  0.244950  0.291500  1.0
  C  C141  1  0.773490  0.985890  0.162540  1.0
  C  C142  1  0.985890  0.773490  0.662540  1.0
  C  C143  1  0.226510  0.014110  0.837460  1.0
  C  C144  1  0.014110  0.226510  0.337460  1.0
  C  C145  1  0.839860  0.918540  0.118100  1.0
  C  C146  1  0.918540  0.839860  0.618100  1.0
  C  C147  1  0.160140  0.081460  0.881900  1.0
  C  C148  1  0.081460  0.160140  0.381900  1.0
  C  C149  1  0.776450  0.965950  0.248200  1.0
  C  C150  1  0.965950  0.776450  0.748200  1.0
  C  C151  1  0.223550  0.034050  0.751800  1.0
  C  C152  1  0.034050  0.223550  0.251800  1.0
  C  C153  1  0.867700  0.953300  0.299800  1.0
  C  C154  1  0.953300  0.867700  0.799800  1.0
  C  C155  1  0.132300  0.046700  0.700200  1.0
  C  C156  1  0.046700  0.132300  0.200200  1.0
  C  C157  1  0.789370  0.158190  0.370870  1.0
  C  C158  1  0.158190  0.789370  0.870870  1.0
  C  C159  1  0.210630  0.841810  0.629130  1.0
  C  C160  1  0.841810  0.210630  0.129130  1.0
  C  C161  1  0.781800  0.149040  0.418240  1.0
  C  C162  1  0.149040  0.781800  0.918240  1.0
  C  C163  1  0.218200  0.850960  0.581760  1.0
  C  C164  1  0.850960  0.218200  0.081760  1.0
  C  C165  1  0.834710  0.181690  0.450500  1.0
  C  C166  1  0.181690  0.834710  0.950500  1.0
  C  C167  1  0.165290  0.818310  0.549500  1.0
  C  C168  1  0.818310  0.165290  0.049500  1.0
  C  C169  1  0.867200  0.196000  0.533800  1.0
  C  C170  1  0.196000  0.867200  0.033800  1.0
  C  C171  1  0.132800  0.804000  0.466200  1.0
  C  C172  1  0.804000  0.132800  0.966200  1.0
  C  C173  1  0.720490  0.102310  0.437030  1.0
  C  C174  1  0.102310  0.720490  0.937030  1.0
  C  C175  1  0.279510  0.897690  0.562970  1.0
  C  C176  1  0.897690  0.279510  0.062970  1.0
  C  C177  1  0.623860  0.102940  0.489500  1.0
  C  C178  1  0.102940  0.623860  0.989500  1.0
  C  C179  1  0.376140  0.897060  0.510500  1.0
  C  C180  1  0.897060  0.376140  0.010500  1.0
  C  C181  1  0.545530  0.121630  0.321700  1.0
  C  C182  1  0.121630  0.545530  0.821700  1.0
  C  C183  1  0.454470  0.878370  0.678300  1.0
  C  C184  1  0.878370  0.454470  0.178300  1.0
  C  C185  1  0.487480  0.070320  0.314430  1.0
  C  C186  1  0.070320  0.487480  0.814430  1.0
  C  C187  1  0.512520  0.929680  0.685570  1.0
  C  C188  1  0.929680  0.512520  0.185570  1.0
  C  C189  1  0.421000  0.083600  0.320920  1.0
  C  C190  1  0.083600  0.421000  0.820920  1.0
  C  C191  1  0.579000  0.916400  0.679080  1.0
  C  C192  1  0.916400  0.579000  0.179080  1.0
  C  C193  1  0.299120  0.026880  0.330600  1.0
  C  C194  1  0.026880  0.299120  0.830600  1.0
  C  C195  1  0.700880  0.973120  0.669400  1.0
  C  C196  1  0.973120  0.700880  0.169400  1.0
  C  C197  1  0.492290  0.997510  0.305700  1.0
  C  C198  1  0.997510  0.492290  0.805700  1.0
  C  C199  1  0.507710  0.002490  0.694300  1.0
  C  C200  1  0.002490  0.507710  0.194300  1.0
  C  C201  1  0.536690  0.904310  0.341100  1.0
  C  C202  1  0.904310  0.536690  0.841100  1.0
  C  C203  1  0.463310  0.095690  0.658900  1.0
  C  C204  1  0.095690  0.463310  0.158900  1.0
  C  C205  1  0.580300  0.929500  0.021300  1.0
  C  C206  1  0.929500  0.580300  0.521300  1.0
  C  C207  1  0.419700  0.070500  0.978700  1.0
  C  C208  1  0.070500  0.419700  0.478700  1.0
  C  C209  1  0.561200  0.902000  0.104900  1.0
  C  C210  1  0.902000  0.561200  0.604900  1.0
  C  C211  1  0.438800  0.098000  0.895100  1.0
  C  C212  1  0.098000  0.438800  0.395100  1.0
  C  C213  1  0.461100  0.898300  0.049600  1.0
  C  C214  1  0.898300  0.461100  0.549600  1.0
  C  C215  1  0.538900  0.101700  0.950400  1.0
  C  C216  1  0.101700  0.538900  0.450400  1.0
  C  C217  1  0.342900  0.041100  0.102900  1.0
  C  C218  1  0.041100  0.342900  0.602900  1.0
  C  C219  1  0.657100  0.958900  0.897100  1.0
  C  C220  1  0.958900  0.657100  0.397100  1.0
  C  C221  1  0.372200  0.995600  0.180000  1.0
  C  C222  1  0.995600  0.372200  0.680000  1.0
  C  C223  1  0.627800  0.004400  0.820000  1.0
  C  C224  1  0.004400  0.627800  0.320000  1.0
  C  C225  1  0.371700  0.121700  0.172800  1.0
  C  C226  1  0.121700  0.371700  0.672800  1.0
  C  C227  1  0.628300  0.878300  0.827200  1.0
  C  C228  1  0.878300  0.628300  0.327200  1.0
  C  C229  1  0.740690  0.655310  0.040100  1.0
  C  C230  1  0.655310  0.740690  0.540100  1.0
  C  C231  1  0.259310  0.344690  0.959900  1.0
  C  C232  1  0.344690  0.259310  0.459900  1.0
  C  C233  1  0.833990  0.589010  0.022400  1.0
  C  C234  1  0.589010  0.833990  0.522400  1.0
  C  C235  1  0.166010  0.410990  0.977600  1.0
  C  C236  1  0.410990  0.166010  0.477600  1.0
  C  C237  1  0.737300  0.589500  0.964900  1.0
  C  C238  1  0.589500  0.737300  0.464900  1.0
  C  C239  1  0.262700  0.410500  0.035100  1.0
  C  C240  1  0.410500  0.262700  0.535100  1.0
  C  C241  1  0.460200  0.349800  0.022600  1.0
  C  C242  1  0.349800  0.460200  0.522600  1.0
  C  C243  1  0.539800  0.650200  0.977400  1.0
  C  C244  1  0.650200  0.539800  0.477400  1.0
  C  C245  1  0.545400  0.388600  0.961600  1.0
  C  C246  1  0.388600  0.545400  0.461600  1.0
  C  C247  1  0.454600  0.611400  0.038400  1.0
  C  C248  1  0.611400  0.454600  0.538400  1.0
  C  C249  1  0.540200  0.281800  0.004900  1.0
  C  C250  1  0.281800  0.540200  0.504900  1.0
  C  C251  1  0.459800  0.718200  0.995100  1.0
  C  C252  1  0.718200  0.459800  0.495100  1.0
  C  C253  1  0.318200  0.374600  0.349800  1.0
  C  C254  1  0.374600  0.318200  0.849800  1.0
  C  C255  1  0.681800  0.625400  0.650200  1.0
  C  C256  1  0.625400  0.681800  0.150200  1.0
  C  C257  1  0.246100  0.275300  0.303900  1.0
  C  C258  1  0.275300  0.246100  0.803900  1.0
  C  C259  1  0.753900  0.724700  0.696100  1.0
  C  C260  1  0.724700  0.753900  0.196100  1.0
  C  C261  1  0.246600  0.397400  0.280200  1.0
  C  C262  1  0.397400  0.246600  0.780200  1.0
  C  C263  1  0.753400  0.602600  0.719800  1.0
  C  C264  1  0.602600  0.753400  0.219800  1.0
  C  C265  1  0.447700  0.546500  0.194900  1.0
  C  C266  1  0.546500  0.447700  0.694900  1.0
  C  C267  1  0.552300  0.453500  0.805100  1.0
  C  C268  1  0.453500  0.552300  0.305100  1.0
  C  C269  1  0.479200  0.478400  0.130800  1.0
  C  C270  1  0.478400  0.479200  0.630800  1.0
  C  C271  1  0.520800  0.521600  0.869200  1.0
  C  C272  1  0.521600  0.520800  0.369200  1.0
  C  C273  1  0.357300  0.469900  0.153800  1.0
  C  C274  1  0.469900  0.357300  0.653800  1.0
  C  C275  1  0.642700  0.530100  0.846200  1.0
  C  C276  1  0.530100  0.642700  0.346200  1.0
  C  C277  1  0.885700  0.980100  0.098000  1.0
  C  C278  1  0.980100  0.885700  0.598000  1.0
  C  C279  1  0.114300  0.019900  0.902000  1.0
  C  C280  1  0.019900  0.114300  0.402000  1.0
  C  C281  1  0.781700  0.882300  0.084500  1.0
  C  C282  1  0.882300  0.781700  0.584500  1.0
  C  C283  1  0.218300  0.117700  0.915500  1.0
  C  C284  1  0.117700  0.218300  0.415500  1.0
  C  C285  1  0.880510  0.867290  0.135200  1.0
  C  C286  1  0.867290  0.880510  0.635200  1.0
  C  C287  1  0.119490  0.132710  0.864800  1.0
  C  C288  1  0.132710  0.119490  0.364800  1.0
  C  C289  1  0.952600  0.986200  0.286600  1.0
  C  C290  1  0.986200  0.952600  0.786600  1.0
  C  C291  1  0.047400  0.013800  0.713400  1.0
  C  C292  1  0.013800  0.047400  0.213400  1.0
  C  C293  1  0.844100  0.970900  0.340400  1.0
  C  C294  1  0.970900  0.844100  0.840400  1.0
  C  C295  1  0.155900  0.029100  0.659600  1.0
  C  C296  1  0.029100  0.155900  0.159600  1.0
  C  C297  1  0.866100  0.880300  0.286500  1.0
  C  C298  1  0.880300  0.866100  0.786500  1.0
  C  C299  1  0.133900  0.119700  0.713500  1.0
  C  C300  1  0.119700  0.133900  0.213500  1.0
  C  C301  1  0.940900  0.186100  0.528700  1.0
  C  C302  1  0.186100  0.940900  0.028700  1.0
  C  C303  1  0.059100  0.813900  0.471300  1.0
  C  C304  1  0.813900  0.059100  0.971300  1.0
  C  C305  1  0.862100  0.267500  0.535800  1.0
  C  C306  1  0.267500  0.862100  0.035800  1.0
  C  C307  1  0.137900  0.732500  0.464200  1.0
  C  C308  1  0.732500  0.137900  0.964200  1.0
  C  C309  1  0.831100  0.155100  0.574100  1.0
  C  C310  1  0.155100  0.831100  0.074100  1.0
  C  C311  1  0.168900  0.844900  0.425900  1.0
  C  C312  1  0.844900  0.168900  0.925900  1.0
  C  C313  1  0.609900  0.161300  0.521200  1.0
  C  C314  1  0.161300  0.609900  0.021200  1.0
  C  C315  1  0.390100  0.838700  0.478800  1.0
  C  C316  1  0.838700  0.390100  0.978800  1.0
  C  C317  1  0.636600  0.043600  0.517500  1.0
  C  C318  1  0.043600  0.636600  0.017500  1.0
  C  C319  1  0.363400  0.956400  0.482500  1.0
  C  C320  1  0.956400  0.363400  0.982500  1.0
  C  C321  1  0.565800  0.082400  0.452900  1.0
  C  C322  1  0.082400  0.565800  0.952900  1.0
  C  C323  1  0.434200  0.917600  0.547100  1.0
  C  C324  1  0.917600  0.434200  0.047100  1.0
  C  C325  1  0.268200  0.950600  0.327800  1.0
  C  C326  1  0.950600  0.268200  0.827800  1.0
  C  C327  1  0.731800  0.049400  0.672200  1.0
  C  C328  1  0.049400  0.731800  0.172200  1.0
  C  C329  1  0.293110  0.056290  0.378500  1.0
  C  C330  1  0.056290  0.293110  0.878500  1.0
  C  C331  1  0.706890  0.943710  0.621500  1.0
  C  C332  1  0.943710  0.706890  0.121500  1.0
  C  C333  1  0.269910  0.064890  0.291800  1.0
  C  C334  1  0.064890  0.269910  0.791800  1.0
  C  C335  1  0.730090  0.935110  0.708200  1.0
  C  C336  1  0.935110  0.730090  0.208200  1.0
  C  C337  1  0.574500  0.904700  0.387700  1.0
  C  C338  1  0.904700  0.574500  0.887700  1.0
  C  C339  1  0.425500  0.095300  0.612300  1.0
  C  C340  1  0.095300  0.425500  0.112300  1.0
  C  C341  1  0.468700  0.852900  0.341300  1.0
  C  C342  1  0.852900  0.468700  0.841300  1.0
  C  C343  1  0.531300  0.147100  0.658700  1.0
  C  C344  1  0.147100  0.531300  0.158700  1.0
  C  C345  1  0.577800  0.893400  0.299300  1.0
  C  C346  1  0.893400  0.577800  0.799300  1.0
  C  C347  1  0.422200  0.106600  0.700700  1.0
  C  C348  1  0.106600  0.422200  0.200700  1.0
  Fe  Fe349  1  0.723357  0.098583  0.120290  1.0
  Fe  Fe350  1  0.098583  0.723357  0.620290  1.0
  Fe  Fe351  1  0.276643  0.901417  0.879710  1.0
  Fe  Fe352  1  0.901417  0.276643  0.379710  1.0
  Fe  Fe353  1  0.766250  0.527270  0.174980  1.0
  Fe  Fe354  1  0.527270  0.766250  0.674980  1.0
  Fe  Fe355  1  0.233750  0.472730  0.825020  1.0
  Fe  Fe356  1  0.472730  0.233750  0.325020  1.0
  H  H357  1  0.244600  0.071000  0.480100  1
  H  H358  1  0.071000  0.244600  0.980100  1
  H  H359  1  0.755400  0.929000  0.519900  1
  H  H360  1  0.929000  0.755400  0.019900  1
  H  H361  1  0.237600  0.043400  0.532300  1
  H  H362  1  0.043400  0.237600  0.032300  1
  H  H363  1  0.762400  0.956600  0.467700  1
  H  H364  1  0.956600  0.762400  0.967700  1
  H  H365  1  0.214400  0.112800  0.519700  1
  H  H366  1  0.112800  0.214400  0.019700  1
  H  H367  1  0.785600  0.887200  0.480300  1
  H  H368  1  0.887200  0.785600  0.980300  1
  H  H369  1  0.059000  0.991400  0.523700  1
  H  H370  1  0.991400  0.059000  0.023700  1
  H  H371  1  0.941000  0.008600  0.476300  1
  H  H372  1  0.008600  0.941000  0.976300  1
  H  H373  1  0.097200  0.063400  0.546200  1
  H  H374  1  0.063400  0.097200  0.046200  1
  H  H375  1  0.902800  0.936600  0.453800  1
  H  H376  1  0.936600  0.902800  0.953800  1
  H  H377  1  0.121900  0.994900  0.559400  1
  H  H378  1  0.994900  0.121900  0.059400  1
  H  H379  1  0.878100  0.005100  0.440600  1
  H  H380  1  0.005100  0.878100  0.940600  1
  H  H381  1  0.662600  0.300200  0.098100  1.0
  H  H382  1  0.300200  0.662600  0.598100  1.0
  H  H383  1  0.337400  0.699800  0.901900  1.0
  H  H384  1  0.699800  0.337400  0.401900  1.0
  H  H385  1  0.559300  0.390900  0.191700  1.0
  H  H386  1  0.390900  0.559300  0.691700  1.0
  H  H387  1  0.440700  0.609100  0.808300  1.0
  H  H388  1  0.609100  0.440700  0.308300  1.0
  H  H389  1  0.524200  0.184400  0.181200  1.0
  H  H390  1  0.184400  0.524200  0.681200  1.0
  H  H391  1  0.475800  0.815600  0.818800  1.0
  H  H392  1  0.815600  0.475800  0.318800  1.0
  H  H393  1  0.794300  0.095900  0.288600  1.0
  H  H394  1  0.095900  0.794300  0.788600  1.0
  H  H395  1  0.205700  0.904100  0.711400  1.0
  H  H396  1  0.904100  0.205700  0.211400  1.0
  H  H397  1  0.657300  0.156300  0.372500  1.0
  H  H398  1  0.156300  0.657300  0.872500  1.0
  H  H399  1  0.342700  0.843700  0.627500  1.0
  H  H400  1  0.843700  0.342700  0.127500  1.0
  H  H401  1  0.595600  0.063800  0.249300  1.0
  H  H402  1  0.063800  0.595600  0.749300  1.0
  H  H403  1  0.404400  0.936200  0.750700  1.0
  H  H404  1  0.936200  0.404400  0.250700  1.0
  H  H405  1  0.627800  0.950400  0.030100  1.0
  H  H406  1  0.950400  0.627800  0.530100  1.0
  H  H407  1  0.372200  0.049600  0.969900  1.0
  H  H408  1  0.049600  0.372200  0.469900  1.0
  H  H409  1  0.565300  0.954900  0.995500  1.0
  H  H410  1  0.954900  0.565300  0.495500  1.0
  H  H411  1  0.434700  0.045100  0.004500  1.0
  H  H412  1  0.045100  0.434700  0.504500  1.0
  H  H413  1  0.577300  0.881900  0.011300  1.0
  H  H414  1  0.881900  0.577300  0.511300  1.0
  H  H415  1  0.422700  0.118100  0.988700  1.0
  H  H416  1  0.118100  0.422700  0.488700  1.0
  H  H417  1  0.609000  0.924800  0.111200  1.0
  H  H418  1  0.924800  0.609000  0.611200  1.0
  H  H419  1  0.391000  0.075200  0.888800  1.0
  H  H420  1  0.075200  0.391000  0.388800  1.0
  H  H421  1  0.558100  0.852900  0.099800  1.0
  H  H422  1  0.852900  0.558100  0.599800  1.0
  H  H423  1  0.441900  0.147100  0.900200  1.0
  H  H424  1  0.147100  0.441900  0.400200  1.0
  H  H425  1  0.533400  0.909200  0.131600  1.0
  H  H426  1  0.909200  0.533400  0.631600  1.0
  H  H427  1  0.466600  0.090800  0.868400  1.0
  H  H428  1  0.090800  0.466600  0.368400  1.0
  H  H429  1  0.446800  0.919400  0.021500  1.0
  H  H430  1  0.919400  0.446800  0.521500  1.0
  H  H431  1  0.553200  0.080600  0.978500  1.0
  H  H432  1  0.080600  0.553200  0.478500  1.0
  H  H433  1  0.431600  0.904800  0.075500  1.0
  H  H434  1  0.904800  0.431600  0.575500  1.0
  H  H435  1  0.568400  0.095200  0.924500  1.0
  H  H436  1  0.095200  0.568400  0.424500  1.0
  H  H437  1  0.457200  0.849200  0.043500  1.0
  H  H438  1  0.849200  0.457200  0.543500  1.0
  H  H439  1  0.542800  0.150800  0.956500  1.0
  H  H440  1  0.150800  0.542800  0.456500  1.0
  H  H441  1  0.351100  0.081700  0.083200  1.0
  H  H442  1  0.081700  0.351100  0.583200  1.0
  H  H443  1  0.648900  0.918300  0.916800  1.0
  H  H444  1  0.918300  0.648900  0.416800  1.0
  H  H445  1  0.294000  0.028200  0.109900  1.0
  H  H446  1  0.028200  0.294000  0.609900  1.0
  H  H447  1  0.706000  0.971800  0.890100  1.0
  H  H448  1  0.971800  0.706000  0.390100  1.0
  H  H449  1  0.356800  0.003200  0.086300  1.0
  H  H450  1  0.003200  0.356800  0.586300  1.0
  H  H451  1  0.643200  0.996800  0.913700  1.0
  H  H452  1  0.996800  0.643200  0.413700  1.0
  H  H453  1  0.380000  0.955400  0.162600  1.0
  H  H454  1  0.955400  0.380000  0.662600  1.0
  H  H455  1  0.620000  0.044600  0.837400  1.0
  H  H456  1  0.044600  0.620000  0.337400  1.0
  H  H457  1  0.324900  0.986700  0.190900  1.0
  H  H458  1  0.986700  0.324900  0.690900  1.0
  H  H459  1  0.675100  0.013300  0.809100  1.0
  H  H460  1  0.013300  0.675100  0.309100  1.0
  H  H461  1  0.403900  0.005100  0.206900  1.0
  H  H462  1  0.005100  0.403900  0.706900  1.0
  H  H463  1  0.596100  0.994900  0.793100  1.0
  H  H464  1  0.994900  0.596100  0.293100  1.0
  H  H465  1  0.379800  0.159800  0.151000  1.0
  H  H466  1  0.159800  0.379800  0.651000  1.0
  H  H467  1  0.620200  0.840200  0.849000  1.0
  H  H468  1  0.840200  0.620200  0.349000  1.0
  H  H469  1  0.402900  0.133100  0.199800  1.0
  H  H470  1  0.133100  0.402900  0.699800  1.0
  H  H471  1  0.597100  0.866900  0.800200  1.0
  H  H472  1  0.866900  0.597100  0.300200  1.0
  H  H473  1  0.324200  0.113600  0.183300  1.0
  H  H474  1  0.113600  0.324200  0.683300  1.0
  H  H475  1  0.675800  0.886400  0.816700  1.0
  H  H476  1  0.886400  0.675800  0.316700  1.0
  H  H477  1  0.692200  0.655000  0.034500  1.0
  H  H478  1  0.655000  0.692200  0.534500  1.0
  H  H479  1  0.307800  0.345000  0.965500  1.0
  H  H480  1  0.345000  0.307800  0.465500  1.0
  H  H481  1  0.768800  0.697400  0.027800  1.0
  H  H482  1  0.697400  0.768800  0.527800  1.0
  H  H483  1  0.231200  0.302600  0.972200  1.0
  H  H484  1  0.302600  0.231200  0.472200  1.0
  H  H485  1  0.749500  0.653500  0.073800  1.0
  H  H486  1  0.653500  0.749500  0.573800  1.0
  H  H487  1  0.250500  0.346500  0.926200  1.0
  H  H488  1  0.346500  0.250500  0.426200  1.0
  H  H489  1  0.841800  0.548200  0.005800  1.0
  H  H490  1  0.548200  0.841800  0.505800  1.0
  H  H491  1  0.158200  0.451800  0.994200  1.0
  H  H492  1  0.451800  0.158200  0.494200  1.0
  H  H493  1  0.844700  0.585900  0.055700  1.0
  H  H494  1  0.585900  0.844700  0.555700  1.0
  H  H495  1  0.155300  0.414100  0.944300  1.0
  H  H496  1  0.414100  0.155300  0.444300  1.0
  H  H497  1  0.863700  0.629900  0.009700  1.0
  H  H498  1  0.629900  0.863700  0.509700  1.0
  H  H499  1  0.136300  0.370100  0.990300  1.0
  H  H500  1  0.370100  0.136300  0.490300  1.0
  H  H501  1  0.689100  0.592500  0.962000  1.0
  H  H502  1  0.592500  0.689100  0.462000  1.0
  H  H503  1  0.310900  0.407500  0.038000  1.0
  H  H504  1  0.407500  0.310900  0.538000  1.0
  H  H505  1  0.743000  0.545800  0.951400  1.0
  H  H506  1  0.545800  0.743000  0.451400  1.0
  H  H507  1  0.257000  0.454200  0.048600  1.0
  H  H508  1  0.454200  0.257000  0.548600  1.0
  H  H509  1  0.765700  0.627300  0.948200  1.0
  H  H510  1  0.627300  0.765700  0.448200  1.0
  H  H511  1  0.234300  0.372700  0.051800  1.0
  H  H512  1  0.372700  0.234300  0.551800  1.0
  H  H513  1  0.453400  0.325000  0.052000  1.0
  H  H514  1  0.325000  0.453400  0.552000  1.0
  H  H515  1  0.546600  0.675000  0.948000  1.0
  H  H516  1  0.675000  0.546600  0.448000  1.0
  H  H517  1  0.427500  0.326100  0.998900  1.0
  H  H518  1  0.326100  0.427500  0.498900  1.0
  H  H519  1  0.572500  0.673900  0.001100  1.0
  H  H520  1  0.673900  0.572500  0.501100  1.0
  H  H521  1  0.453200  0.396400  0.027500  1.0
  H  H522  1  0.396400  0.453200  0.527500  1.0
  H  H523  1  0.546800  0.603600  0.972500  1.0
  H  H524  1  0.603600  0.546800  0.472500  1.0
  H  H525  1  0.592000  0.388200  0.951900  1.0
  H  H526  1  0.388200  0.592000  0.451900  1.0
  H  H527  1  0.408000  0.611800  0.048100  1.0
  H  H528  1  0.611800  0.408000  0.548100  1.0
  H  H529  1  0.540300  0.436100  0.965500  1.0
  H  H530  1  0.436100  0.540300  0.465500  1.0
  H  H531  1  0.459700  0.563900  0.034500  1.0
  H  H532  1  0.563900  0.459700  0.534500  1.0
  H  H533  1  0.512700  0.365300  0.937700  1.0
  H  H534  1  0.365300  0.512700  0.437700  1.0
  H  H535  1  0.487300  0.634700  0.062300  1.0
  H  H536  1  0.634700  0.487300  0.562300  1.0
  H  H537  1  0.585800  0.280200  0.993400  1.0
  H  H538  1  0.280200  0.585800  0.493400  1.0
  H  H539  1  0.414200  0.719800  0.006600  1.0
  H  H540  1  0.719800  0.414200  0.506600  1.0
  H  H541  1  0.505300  0.254500  0.984000  1.0
  H  H542  1  0.254500  0.505300  0.484000  1.0
  H  H543  1  0.494700  0.745500  0.016000  1.0
  H  H544  1  0.745500  0.494700  0.516000  1.0
  H  H545  1  0.535200  0.263000  0.036300  1.0
  H  H546  1  0.263000  0.535200  0.536300  1.0
  H  H547  1  0.464800  0.737000  0.963700  1.0
  H  H548  1  0.737000  0.464800  0.463700  1.0
  H  H549  1  0.342800  0.341800  0.363300  1.0
  H  H550  1  0.341800  0.342800  0.863300  1.0
  H  H551  1  0.657200  0.658200  0.636700  1.0
  H  H552  1  0.658200  0.657200  0.136700  1.0
  H  H553  1  0.281500  0.380700  0.370600  1.0
  H  H554  1  0.380700  0.281500  0.870600  1.0
  H  H555  1  0.718500  0.619300  0.629400  1.0
  H  H556  1  0.619300  0.718500  0.129400  1.0
  H  H557  1  0.350000  0.418800  0.346000  1.0
  H  H558  1  0.418800  0.350000  0.846000  1.0
  H  H559  1  0.650000  0.581200  0.654000  1.0
  H  H560  1  0.581200  0.650000  0.154000  1.0
  H  H561  1  0.273000  0.245600  0.318700  1.0
  H  H562  1  0.245600  0.273000  0.818700  1.0
  H  H563  1  0.727000  0.754400  0.681300  1.0
  H  H564  1  0.754400  0.727000  0.181300  1.0
  H  H565  1  0.233800  0.259000  0.271800  1.0
  H  H566  1  0.259000  0.233800  0.771800  1.0
  H  H567  1  0.766200  0.741000  0.728200  1.0
  H  H568  1  0.741000  0.766200  0.228200  1.0
  H  H569  1  0.204300  0.274300  0.321600  1.0
  H  H570  1  0.274300  0.204300  0.821600  1.0
  H  H571  1  0.795700  0.725700  0.678400  1.0
  H  H572  1  0.725700  0.795700  0.178400  1.0
  H  H573  1  0.274500  0.444100  0.280500  1.0
  H  H574  1  0.444100  0.274500  0.780500  1.0
  H  H575  1  0.725500  0.555900  0.719500  1.0
  H  H576  1  0.555900  0.725500  0.219500  1.0
  H  H577  1  0.204800  0.396600  0.297800  1.0
  H  H578  1  0.396600  0.204800  0.797800  1.0
  H  H579  1  0.795200  0.603400  0.702200  1.0
  H  H580  1  0.603400  0.795200  0.202200  1.0
  H  H581  1  0.234400  0.382400  0.247900  1.0
  H  H582  1  0.382400  0.234400  0.747900  1.0
  H  H583  1  0.765600  0.617600  0.752100  1.0
  H  H584  1  0.617600  0.765600  0.252100  1.0
  H  H585  1  0.496200  0.558600  0.204100  1.0
  H  H586  1  0.558600  0.496200  0.704100  1.0
  H  H587  1  0.503800  0.441400  0.795900  1.0
  H  H588  1  0.441400  0.503800  0.295900  1.0
  H  H589  1  0.419600  0.539600  0.222800  1.0
  H  H590  1  0.539600  0.419600  0.722800  1.0
  H  H591  1  0.580400  0.460400  0.777200  1.0
  H  H592  1  0.460400  0.580400  0.277200  1.0
  H  H593  1  0.436000  0.583600  0.176700  1.0
  H  H594  1  0.583600  0.436000  0.676700  1.0
  H  H595  1  0.564000  0.416400  0.823300  1.0
  H  H596  1  0.416400  0.564000  0.323300  1.0
  H  H597  1  0.466500  0.435500  0.112600  1.0
  H  H598  1  0.435500  0.466500  0.612600  1.0
  H  H599  1  0.533500  0.564500  0.887400  1.0
  H  H600  1  0.564500  0.533500  0.387400  1.0
  H  H601  1  0.524900  0.482100  0.144900  1.0
  H  H602  1  0.482100  0.524900  0.644900  1.0
  H  H603  1  0.475100  0.517900  0.855100  1.0
  H  H604  1  0.517900  0.475100  0.355100  1.0
  H  H605  1  0.479700  0.517100  0.110100  1.0
  H  H606  1  0.517100  0.479700  0.610100  1.0
  H  H607  1  0.520300  0.482900  0.889900  1.0
  H  H608  1  0.482900  0.520300  0.389900  1.0
  H  H609  1  0.341400  0.427600  0.135300  1.0
  H  H610  1  0.427600  0.341400  0.635300  1.0
  H  H611  1  0.658600  0.572400  0.864700  1.0
  H  H612  1  0.572400  0.658600  0.364700  1.0
  H  H613  1  0.349200  0.509000  0.136000  1.0
  H  H614  1  0.509000  0.349200  0.636000  1.0
  H  H615  1  0.650800  0.491000  0.864000  1.0
  H  H616  1  0.491000  0.650800  0.364000  1.0
  H  H617  1  0.332200  0.467000  0.183100  1.0
  H  H618  1  0.467000  0.332200  0.683100  1.0
  H  H619  1  0.667800  0.533000  0.816900  1.0
  H  H620  1  0.533000  0.667800  0.316900  1.0
  H  H621  1  0.921400  0.000000  0.121100  1.0
  H  H622  1  1.000000  0.921400  0.621100  1.0
  H  H623  1  0.078600  1.000000  0.878900  1.0
  H  H624  1  1.000000  0.078600  0.378900  1.0
  H  H625  1  0.858800  0.014000  0.090000  1.0
  H  H626  1  0.014000  0.858800  0.590000  1.0
  H  H627  1  0.141200  0.986000  0.910000  1.0
  H  H628  1  0.986000  0.141200  0.410000  1.0
  H  H629  1  0.907000  0.966400  0.069900  1.0
  H  H630  1  0.966400  0.907000  0.569900  1.0
  H  H631  1  0.093000  0.033600  0.930100  1.0
  H  H632  1  0.033600  0.093000  0.430100  1.0
  H  H633  1  0.755800  0.915600  0.073500  1.0
  H  H634  1  0.915600  0.755800  0.573500  1.0
  H  H635  1  0.244200  0.084400  0.926500  1.0
  H  H636  1  0.084400  0.244200  0.426500  1.0
  H  H637  1  0.751100  0.845700  0.101000  1.0
  H  H638  1  0.845700  0.751100  0.601000  1.0
  H  H639  1  0.248900  0.154300  0.899000  1.0
  H  H640  1  0.154300  0.248900  0.399000  1.0
  H  H641  1  0.801400  0.862800  0.057800  1.0
  H  H642  1  0.862800  0.801400  0.557800  1.0
  H  H643  1  0.198600  0.137200  0.942200  1.0
  H  H644  1  0.137200  0.198600  0.442200  1.0
  H  H645  1  0.917600  0.890600  0.156300  1.0
  H  H646  1  0.890600  0.917600  0.656300  1.0
  H  H647  1  0.082400  0.109400  0.843700  1.0
  H  H648  1  0.109400  0.082400  0.343700  1.0
  H  H649  1  0.900000  0.847600  0.108500  1.0
  H  H650  1  0.847600  0.900000  0.608500  1.0
  H  H651  1  0.100000  0.152400  0.891500  1.0
  H  H652  1  0.152400  0.100000  0.391500  1.0
  H  H653  1  0.850300  0.830700  0.151900  1.0
  H  H654  1  0.830700  0.850300  0.651900  1.0
  H  H655  1  0.149700  0.169300  0.848100  1.0
  H  H656  1  0.169300  0.149700  0.348100  1.0
  H  H657  1  0.964200  0.035200  0.294500  1.0
  H  H658  1  0.035200  0.964200  0.794500  1.0
  H  H659  1  0.035800  0.964800  0.705500  1.0
  H  H660  1  0.964800  0.035800  0.205500  1.0
  H  H661  1  0.959300  0.979500  0.253200  1.0
  H  H662  1  0.979500  0.959300  0.753200  1.0
  H  H663  1  0.040700  0.020500  0.746800  1.0
  H  H664  1  0.020500  0.040700  0.246800  1.0
  H  H665  1  0.982100  0.962500  0.304700  1.0
  H  H666  1  0.962500  0.982100  0.804700  1.0
  H  H667  1  0.017900  0.037500  0.695300  1.0
  H  H668  1  0.037500  0.017900  0.195300  1.0
  H  H669  1  0.794600  0.953000  0.341300  1.0
  H  H670  1  0.953000  0.794600  0.841300  1.0
  H  H671  1  0.205400  0.047000  0.658700  1.0
  H  H672  1  0.047000  0.205400  0.158700  1.0
  H  H673  1  0.853700  0.020900  0.343600  1.0
  H  H674  1  0.020900  0.853700  0.843600  1.0
  H  H675  1  0.146300  0.979100  0.656400  1.0
  H  H676  1  0.979100  0.146300  0.156400  1.0
  H  H677  1  0.866600  0.951800  0.366000  1.0
  H  H678  1  0.951800  0.866600  0.866000  1.0
  H  H679  1  0.133400  0.048200  0.634000  1.0
  H  H680  1  0.048200  0.133400  0.134000  1.0
  H  H681  1  0.821800  0.851800  0.294800  1.0
  H  H682  1  0.851800  0.821800  0.794800  1.0
  H  H683  1  0.178200  0.148200  0.705200  1.0
  H  H684  1  0.148200  0.178200  0.205200  1.0
  H  H685  1  0.902900  0.864700  0.303300  1.0
  H  H686  1  0.864700  0.902900  0.803300  1.0
  H  H687  1  0.097100  0.135300  0.696700  1.0
  H  H688  1  0.135300  0.097100  0.196700  1.0
  H  H689  1  0.872600  0.876600  0.252800  1.0
  H  H690  1  0.876600  0.872600  0.752800  1.0
  H  H691  1  0.127400  0.123400  0.747200  1.0
  H  H692  1  0.123400  0.127400  0.247200  1.0
  H  H693  1  0.962400  0.213200  0.502600  1.0
  H  H694  1  0.213200  0.962400  0.002600  1.0
  H  H695  1  0.037600  0.786800  0.497400  1.0
  H  H696  1  0.786800  0.037600  0.997400  1.0
  H  H697  1  0.940200  0.137600  0.522600  1.0
  H  H698  1  0.137600  0.940200  0.022600  1.0
  H  H699  1  0.059800  0.862400  0.477400  1.0
  H  H700  1  0.862400  0.059800  0.977400  1.0
  H  H701  1  0.967100  0.201100  0.557600  1.0
  H  H702  1  0.201100  0.967100  0.057600  1.0
  H  H703  1  0.032900  0.798900  0.442400  1.0
  H  H704  1  0.798900  0.032900  0.942400  1.0
  H  H705  1  0.814000  0.270200  0.539200  1.0
  H  H706  1  0.270200  0.814000  0.039200  1.0
  H  H707  1  0.186000  0.729800  0.460800  1.0
  H  H708  1  0.729800  0.186000  0.960800  1.0
  H  H709  1  0.879600  0.289800  0.506900  1.0
  H  H710  1  0.289800  0.879600  0.006900  1.0
  H  H711  1  0.120400  0.710200  0.493100  1.0
  H  H712  1  0.710200  0.120400  0.993100  1.0
  H  H713  1  0.889000  0.290600  0.562500  1.0
  H  H714  1  0.290600  0.889000  0.062500  1.0
  H  H715  1  0.111000  0.709400  0.437500  1.0
  H  H716  1  0.709400  0.111000  0.937500  1.0
  H  H717  1  0.784400  0.162800  0.576400  1.0
  H  H718  1  0.162800  0.784400  0.076400  1.0
  H  H719  1  0.215600  0.837200  0.423600  1.0
  H  H720  1  0.837200  0.215600  0.923600  1.0
  H  H721  1  0.856300  0.169900  0.603400  1.0
  H  H722  1  0.169900  0.856300  0.103400  1.0
  H  H723  1  0.143700  0.830100  0.396600  1.0
  H  H724  1  0.830100  0.143700  0.896600  1.0
  H  H725  1  0.829200  0.106200  0.568500  1.0
  H  H726  1  0.106200  0.829200  0.068500  1.0
  H  H727  1  0.170800  0.893800  0.431500  1.0
  H  H728  1  0.893800  0.170800  0.931500  1.0
  H  H729  1  0.647200  0.174200  0.544400  1.0
  H  H730  1  0.174200  0.647200  0.044400  1.0
  H  H731  1  0.352800  0.825800  0.455600  1.0
  H  H732  1  0.825800  0.352800  0.955600  1.0
  H  H733  1  0.566500  0.145900  0.537200  1.0
  H  H734  1  0.145900  0.566500  0.037200  1.0
  H  H735  1  0.433500  0.854100  0.462800  1.0
  H  H736  1  0.854100  0.433500  0.962800  1.0
  H  H737  1  0.607200  0.201000  0.502100  1.0
  H  H738  1  0.201000  0.607200  0.002100  1.0
  H  H739  1  0.392800  0.799000  0.497900  1.0
  H  H740  1  0.799000  0.392800  0.997900  1.0
  H  H741  1  0.644800  0.007400  0.496300  1.0
  H  H742  1  0.007400  0.644800  0.996300  1.0
  H  H743  1  0.355200  0.992600  0.503700  1.0
  H  H744  1  0.992600  0.355200  0.003700  1.0
  H  H745  1  0.596500  0.025900  0.536500  1.0
  H  H746  1  0.025900  0.596500  0.036500  1.0
  H  H747  1  0.403500  0.974100  0.463500  1.0
  H  H748  1  0.974100  0.403500  0.963500  1.0
  H  H749  1  0.676800  0.059000  0.538000  1.0
  H  H750  1  0.059000  0.676800  0.038000  1.0
  H  H751  1  0.323200  0.941000  0.462000  1.0
  H  H752  1  0.941000  0.323200  0.962000  1.0
  H  H753  1  0.574900  0.045300  0.432900  1.0
  H  H754  1  0.045300  0.574900  0.932900  1.0
  H  H755  1  0.425100  0.954700  0.567100  1.0
  H  H756  1  0.954700  0.425100  0.067100  1.0
  H  H757  1  0.563200  0.122000  0.433700  1.0
  H  H758  1  0.122000  0.563200  0.933700  1.0
  H  H759  1  0.436800  0.878000  0.566300  1.0
  H  H760  1  0.878000  0.436800  0.066300  1.0
  H  H761  1  0.522300  0.066900  0.468800  1.0
  H  H762  1  0.066900  0.522300  0.968800  1.0
  H  H763  1  0.477700  0.933100  0.531200  1.0
  H  H764  1  0.933100  0.477700  0.031200  1.0
  H  H765  1  0.287600  0.927400  0.352800  1.0
  H  H766  1  0.927400  0.287600  0.852800  1.0
  H  H767  1  0.712400  0.072600  0.647200  1.0
  H  H768  1  0.072600  0.712400  0.147200  1.0
  H  H769  1  0.278500  0.932100  0.297500  1.0
  H  H770  1  0.932100  0.278500  0.797500  1.0
  H  H771  1  0.721500  0.067900  0.702500  1.0
  H  H772  1  0.067900  0.721500  0.202500  1.0
  H  H773  1  0.218400  0.943000  0.331200  1.0
  H  H774  1  0.943000  0.218400  0.831200  1.0
  H  H775  1  0.781600  0.057000  0.668800  1.0
  H  H776  1  0.057000  0.781600  0.168800  1.0
  H  H777  1  0.312400  0.029800  0.401700  1.0
  H  H778  1  0.029800  0.312400  0.901700  1.0
  H  H779  1  0.687600  0.970200  0.598300  1.0
  H  H780  1  0.970200  0.687600  0.098300  1.0
  H  H781  1  0.244800  0.054200  0.385100  1.0
  H  H782  1  0.054200  0.244800  0.885100  1.0
  H  H783  1  0.755200  0.945800  0.614900  1.0
  H  H784  1  0.945800  0.755200  0.114900  1.0
  H  H785  1  0.318300  0.104100  0.380000  1.0
  H  H786  1  0.104100  0.318300  0.880000  1.0
  H  H787  1  0.681700  0.895900  0.620000  1.0
  H  H788  1  0.895900  0.681700  0.120000  1.0
  H  H789  1  0.290400  0.113800  0.294300  1.0
  H  H790  1  0.113800  0.290400  0.794300  1.0
  H  H791  1  0.709600  0.886200  0.705700  1.0
  H  H792  1  0.886200  0.709600  0.205700  1.0
  H  H793  1  0.220100  0.057900  0.294900  1.0
  H  H794  1  0.057900  0.220100  0.794900  1.0
  H  H795  1  0.779900  0.942100  0.705100  1.0
  H  H796  1  0.942100  0.779900  0.205100  1.0
  H  H797  1  0.280300  0.047100  0.261300  1.0
  H  H798  1  0.047100  0.280300  0.761300  1.0
  H  H799  1  0.719700  0.952900  0.738700  1.0
  H  H800  1  0.952900  0.719700  0.238700  1.0
  H  H801  1  0.618300  0.937700  0.386900  1.0
  H  H802  1  0.937700  0.618300  0.886900  1.0
  H  H803  1  0.381700  0.062300  0.613100  1.0
  H  H804  1  0.062300  0.381700  0.113100  1.0
  H  H805  1  0.582500  0.858900  0.393500  1.0
  H  H806  1  0.858900  0.582500  0.893500  1.0
  H  H807  1  0.417500  0.141100  0.606500  1.0
  H  H808  1  0.141100  0.417500  0.106500  1.0
  H  H809  1  0.546600  0.917800  0.412700  1.0
  H  H810  1  0.917800  0.546600  0.912700  1.0
  H  H811  1  0.453400  0.082200  0.587300  1.0
  H  H812  1  0.082200  0.453400  0.087300  1.0
  H  H813  1  0.445300  0.852900  0.311000  1.0
  H  H814  1  0.852900  0.445300  0.811000  1.0
  H  H815  1  0.554700  0.147100  0.689000  1.0
  H  H816  1  0.147100  0.554700  0.189000  1.0
  H  H817  1  0.440000  0.865600  0.365900  1.0
  H  H818  1  0.865600  0.440000  0.865900  1.0
  H  H819  1  0.560000  0.134400  0.634100  1.0
  H  H820  1  0.134400  0.560000  0.134100  1.0
  H  H821  1  0.476900  0.807100  0.347000  1.0
  H  H822  1  0.807100  0.476900  0.847000  1.0
  H  H823  1  0.523100  0.192900  0.653000  1.0
  H  H824  1  0.192900  0.523100  0.153000  1.0
  H  H825  1  0.550000  0.893400  0.270900  1.0
  H  H826  1  0.893400  0.550000  0.770900  1.0
  H  H827  1  0.450000  0.106600  0.729100  1.0
  H  H828  1  0.106600  0.450000  0.229100  1.0
  H  H829  1  0.591500  0.849300  0.301700  1.0
  H  H830  1  0.849300  0.591500  0.801700  1.0
  H  H831  1  0.408500  0.150700  0.698300  1.0
  H  H832  1  0.150700  0.408500  0.198300  1.0
  H  H833  1  0.618700  0.930300  0.298100  1.0
  H  H834  1  0.930300  0.618700  0.798100  1.0
  H  H835  1  0.381300  0.069700  0.701900  1.0
  H  H836  1  0.069700  0.381300  0.201900  1.0
  O  O837  1  0.129200  0.008600  0.455600  1
  O  O838  1  0.008600  0.129200  0.955600  1
  O  O839  1  0.870800  0.991400  0.544400  1
  O  O840  1  0.991400  0.870800  0.044400  1
  O  O841  1  0.677460  0.173740  0.111170  1.0
  O  O842  1  0.173740  0.677460  0.611170  1.0
  O  O843  1  0.322540  0.826260  0.888830  1.0
  O  O844  1  0.826260  0.322540  0.388830  1.0
  O  O845  1  0.640800  0.040540  0.086490  1.0
  O  O846  1  0.040540  0.640800  0.586490  1.0
  O  O847  1  0.359200  0.959460  0.913510  1.0
  O  O848  1  0.959460  0.359200  0.413510  1.0
  O  O849  1  0.528460  0.003140  0.072670  1.0
  O  O850  1  0.003140  0.528460  0.572670  1.0
  O  O851  1  0.471540  0.996860  0.927330  1.0
  O  O852  1  0.996860  0.471540  0.427330  1.0
  O  O853  1  0.460480  0.150960  0.086790  1.0
  O  O854  1  0.150960  0.460480  0.586790  1.0
  O  O855  1  0.539520  0.849040  0.913210  1.0
  O  O856  1  0.849040  0.539520  0.413210  1.0
  O  O857  1  0.457530  0.067370  0.138710  1.0
  O  O858  1  0.067370  0.457530  0.638710  1.0
  O  O859  1  0.542470  0.932630  0.861290  1.0
  O  O860  1  0.932630  0.542470  0.361290  1.0
  O  O861  1  0.678540  0.462940  0.167360  1.0
  O  O862  1  0.462940  0.678540  0.667360  1.0
  O  O863  1  0.321460  0.537060  0.832640  1.0
  O  O864  1  0.537060  0.321460  0.332640  1.0
  O  O865  1  0.752780  0.548960  0.107010  1.0
  O  O866  1  0.548960  0.752780  0.607010  1.0
  O  O867  1  0.247220  0.451040  0.892990  1.0
  O  O868  1  0.451040  0.247220  0.392990  1.0
  O  O869  1  0.714850  0.530250  0.033740  1.0
  O  O870  1  0.530250  0.714850  0.533740  1.0
  O  O871  1  0.285150  0.469750  0.966260  1.0
  O  O872  1  0.469750  0.285150  0.466260  1.0
  O  O873  1  0.672900  0.383300  0.015280  1.0
  O  O874  1  0.383300  0.672900  0.515280  1.0
  O  O875  1  0.327100  0.616700  0.984720  1.0
  O  O876  1  0.616700  0.327100  0.484720  1.0
  O  O877  1  0.574140  0.394140  0.043680  1.0
  O  O878  1  0.394140  0.574140  0.543680  1.0
  O  O879  1  0.425860  0.605860  0.956320  1.0
  O  O880  1  0.605860  0.425860  0.456320  1.0
  O  O881  1  0.767440  0.510860  0.241620  1.0
  O  O882  1  0.510860  0.767440  0.741620  1.0
  O  O883  1  0.232560  0.489140  0.758380  1.0
  O  O884  1  0.489140  0.232560  0.258380  1.0
  O  O885  1  0.721470  0.606330  0.192470  1.0
  O  O886  1  0.606330  0.721470  0.692470  1.0
  O  O887  1  0.278530  0.393670  0.807530  1.0
  O  O888  1  0.393670  0.278530  0.307530  1.0
  O  O889  1  0.343140  0.351240  0.268830  1.0
  O  O890  1  0.351240  0.343140  0.768830  1.0
  O  O891  1  0.656860  0.648760  0.731170  1.0
  O  O892  1  0.648760  0.656860  0.231170  1.0
  O  O893  1  0.401280  0.338520  0.156680  1.0
  O  O894  1  0.338520  0.401280  0.656680  1.0
  O  O895  1  0.598720  0.661480  0.843320  1.0
  O  O896  1  0.661480  0.598720  0.343320  1.0
  O  O897  1  0.439560  0.429320  0.202180  1.0
  O  O898  1  0.429320  0.439560  0.702180  1.0
  O  O899  1  0.560440  0.570680  0.797820  1.0
  O  O900  1  0.570680  0.560440  0.297820  1.0
  O  O901  1  0.685510  0.077170  0.181540  1.0
  O  O902  1  0.077170  0.685510  0.681540  1.0
  O  O903  1  0.314490  0.922830  0.818460  1.0
  O  O904  1  0.922830  0.314490  0.318460  1.0
  O  O905  1  0.758010  0.011290  0.125840  1.0
  O  O906  1  0.011290  0.758010  0.625840  1.0
  O  O907  1  0.241990  0.988710  0.874160  1.0
  O  O908  1  0.988710  0.241990  0.374160  1.0
  O  O909  1  0.808860  0.937000  0.161610  1.0
  O  O910  1  0.937000  0.808860  0.661610  1.0
  O  O911  1  0.191140  0.063000  0.838390  1.0
  O  O912  1  0.063000  0.191140  0.338390  1.0
  O  O913  1  0.740500  0.919900  0.265200  1.0
  O  O914  1  0.919900  0.740500  0.765200  1.0
  O  O915  1  0.259500  0.080100  0.734800  1.0
  O  O916  1  0.080100  0.259500  0.234800  1.0
  O  O917  1  0.842160  0.988640  0.259200  1.0
  O  O918  1  0.988640  0.842160  0.759200  1.0
  O  O919  1  0.157840  0.011360  0.740800  1.0
  O  O920  1  0.011360  0.157840  0.240800  1.0
  O  O921  1  0.806470  0.155890  0.147940  1.0
  O  O922  1  0.155890  0.806470  0.647940  1.0
  O  O923  1  0.193530  0.844110  0.852060  1.0
  O  O924  1  0.844110  0.193530  0.352060  1.0
  O  O925  1  0.773380  0.113880  0.059430  1.0
  O  O926  1  0.113880  0.773380  0.559430  1.0
  O  O927  1  0.226620  0.886120  0.940570  1.0
  O  O928  1  0.886120  0.226620  0.440570  1.0
  O  O929  1  0.824970  0.159450  0.493600  1.0
  O  O930  1  0.159450  0.824970  0.993600  1.0
  O  O931  1  0.175030  0.840550  0.506400  1.0
  O  O932  1  0.840550  0.175030  0.006400  1.0
  O  O933  1  0.703750  0.042450  0.427750  1.0
  O  O934  1  0.042450  0.703750  0.927750  1.0
  O  O935  1  0.296250  0.957550  0.572250  1.0
  O  O936  1  0.957550  0.296250  0.072250  1.0
  O  O937  1  0.686450  0.137370  0.465040  1.0
  O  O938  1  0.137370  0.686450  0.965040  1.0
  O  O939  1  0.313550  0.862630  0.534960  1.0
  O  O940  1  0.862630  0.313550  0.034960  1.0
  O  O941  1  0.817540  0.455740  0.163470  1.0
  O  O942  1  0.455740  0.817540  0.663470  1.0
  O  O943  1  0.182460  0.544260  0.836530  1.0
  O  O944  1  0.544260  0.182460  0.336530  1.0
  O  O945  1  0.859040  0.593040  0.173400  1.0
  O  O946  1  0.593040  0.859040  0.673400  1.0
  O  O947  1  0.140960  0.406960  0.826600  1.0
  O  O948  1  0.406960  0.140960  0.326600  1.0
  O  O949  1  0.372320  0.026760  0.321050  1.0
  O  O950  1  0.026760  0.372320  0.821050  1.0
  O  O951  1  0.627680  0.973240  0.678950  1.0
  O  O952  1  0.973240  0.627680  0.178950  1.0
  O  O953  1  0.469830  0.963870  0.271590  1.0
  O  O954  1  0.963870  0.469830  0.771590  1.0
  O  O955  1  0.530170  0.036130  0.728410  1.0
  O  O956  1  0.036130  0.530170  0.228410  1.0
  O  O957  1  0.523990  0.974870  0.341020  1.0
  O  O958  1  0.974870  0.523990  0.841020  1.0
  O  O959  1  0.476010  0.025130  0.658980  1.0
  O  O960  1  0.025130  0.476010  0.158980  1.0
