
#######################################################################
#
#                 Cambridge Crystallographic Data Centre
#                                CCDC 
#
#######################################################################
#
# If this CIF has been generated from an entry in the Cambridge 
# Structural Database, then it will include bibliographic, chemical, 
# crystal, experimental, refinement or atomic coordinate data resulting 
# from the CCDC's data processing and validation procedures.
#
#######################################################################

data_ADODUS
_chemical_formula_moiety         'C90 H54 Fe6 O36,31(C2 H3 N1)'
_chemical_name_systematic        
'rac-hexakis((\m~3~-Benzene-1,3,5-tris(3-(p-tolyloxy)-2-(p-tolyloxycarbonyl)prop-1-yl-1,3-dionato))-iron(iii)) acetonitrile solvate'
_symmetry_cell_setting           triclinic
_symmetry_space_group_name_H-M   'P -1'
_symmetry_Int_Tables_number      2
_space_group_name_Hall           '-P 1'
loop_
_symmetry_equiv_pos_site_id
_symmetry_equiv_pos_as_xyz
1 x,y,z
2 -x,-y,-z
_cell_length_a                   24.645(5)
_cell_length_b                   25.282(9)
_cell_length_c                   36.900(13)
_cell_angle_alpha                76.007(8)
_cell_angle_beta                 76.080(17)
_cell_angle_gamma                79.636(17)
_cell_volume                     21472.4
_exptl_crystal_colour            'dark red'
_exptl_crystal_description       prism
_cell_formula_units_Z            2
loop_
_atom_site_label
_atom_site_type_symbol
_atom_site_fract_x
_atom_site_fract_y
_atom_site_fract_z
N1 N 0.9892(7) 0.4074(7) 0.0978(4)
C361 C 0.9723(7) 0.4307(6) 0.1232(4)
C362 C 0.9480(7) 0.4601(6) 0.1529(4)
H270 H 0.9356 0.4983 0.1418
H271 H 0.9762 0.4590 0.1679
H272 H 0.9156 0.4430 0.1695
N2 N 0.7102(10) 0.7696(8) 0.0852(5)
C363 C 0.7168(8) 0.7747(7) 0.1154(5)
C364 C 0.7294(9) 0.7809(7) 0.1505(5)
H273 H 0.7556 0.7492 0.1596
H274 H 0.6944 0.7830 0.1698
H275 H 0.7466 0.8146 0.1456
N3 N 0.4387(10) 0.9801(9) 0.3749(7)
C365 C 0.4583(8) 0.9720(7) 0.3444(6)
C366 C 0.4847(6) 0.9662(7) 0.3062(6)
H276 H 0.4560 0.9731 0.2907
H277 H 0.5044 0.9288 0.3066
H278 H 0.5119 0.9927 0.2951
N4 N 0.3312(12) 0.8244(12) 0.4235(7)
C367 C 0.3189(9) 0.7908(9) 0.4126(5)
C368 C 0.3092(7) 0.7486(10) 0.3982(5)
H279 H 0.3367 0.7457 0.3745
H280 H 0.2710 0.7561 0.3931
H281 H 0.3129 0.7139 0.4169
N5 N 0.7195(12) 1.0819(9) 0.4487(9)
C369 C 0.7201(12) 1.0364(9) 0.4453(7)
C370 C 0.7213(12) 0.9797(9) 0.4475(7)
H282 H 0.7557 0.9662 0.4308
H283 H 0.6882 0.9737 0.4394
H284 H 0.7208 0.9598 0.4739
N6 N 0.1298(10) 0.2368(12) 0.1053(8)
C371 C 0.1190(9) 0.1918(11) 0.1162(7)
C372 C 0.1050(9) 0.1370(10) 0.1257(6)
H285 H 0.0642 0.1381 0.1291
H286 H 0.1169 0.1174 0.1494
H287 H 0.1244 0.1179 0.1051
C373 C 0.9870(15) 0.8917(14) 0.1692(11)
N7 N 1.0115(11) 0.8523(14) 0.1861(12)
C374 C 0.9563(13) 0.9328(13) 0.1467(7)
H288 H 0.9821 0.9558 0.1276
H289 H 0.9296 0.9555 0.1629
H290 H 0.9356 0.9159 0.1338
N8 N 0.6132(12) 0.6982(12) 0.0219(10)
C375 C 0.6117(10) 0.7370(10) 0.0318(6)
C376 C 0.6073(8) 0.7868(8) 0.0439(5)
H291 H 0.5940 0.8175 0.0248
H292 H 0.6444 0.7919 0.0468
H293 H 0.5806 0.7854 0.0684
N9 N 0.3217(13) 0.1493(13) 0.3782(10)
C377 C 0.3228(13) 0.1079(14) 0.4001(8)
C378 C 0.3294(11) 0.0589(12) 0.4268(11)
H294 H 0.3010 0.0609 0.4503
H295 H 0.3671 0.0531 0.4324
H296 H 0.3246 0.0282 0.4164
N10 N 0.7786(15) 0.4250(16) 0.2684(9)
C379 C 0.7737(9) 0.3799(14) 0.2693(7)
C380 C 0.7595(11) 0.3290(11) 0.2674(8)
H297 H 0.7185 0.3296 0.2747
H298 H 0.7774 0.2993 0.2850
H299 H 0.7729 0.3229 0.2414
N11 N 0.6491(9) 0.5071(10) 0.1567(8)
C381 C 0.6032(9) 0.5238(15) 0.1672(8)
C382 C 0.5458(8) 0.540(2) 0.1740(9)
H300 H 0.5380 0.5784 0.1756
H301 H 0.5281 0.5172 0.1981
H302 H 0.5305 0.5344 0.1531
N12 N -0.0499(11) 0.9421(10) -0.0109(9)
C383 C -0.0290(17) 0.9369(12) 0.0147(10)
C384 C -0.0084(12) 0.9301(11) 0.0475(9)
H303 H 0.0142 0.9595 0.0447
H304 H 0.0150 0.8944 0.0517
H305 H -0.0401 0.9316 0.0694
N13 N 0.5561(9) 0.0805(10) 0.3028(9)
C385 C 0.5197(9) 0.1015(11) 0.3216(7)
C386 C 0.4752(13) 0.1123(15) 0.3540(13)
H306 H 0.4385 0.1192 0.3467
H307 H 0.4815 0.1446 0.3620
H308 H 0.4758 0.0804 0.3753
N14 N 0.7932(15) 0.2253(12) 0.0648(18)
C387 C 0.7636(13) 0.1933(9) 0.0649(11)
C388 C 0.7308(8) 0.1555(7) 0.0638(5)
H309 H 0.7510 0.1184 0.0697
H310 H 0.7227 0.1624 0.0382
H311 H 0.6954 0.1588 0.0826
N15 N 0.6407(14) 0.4068(15) 0.442(2)
C389 C 0.6531(14) 0.4481(14) 0.4428(12)
C390 C 0.6722(16) 0.4988(14) 0.4400(15)
H312 H 0.6628 0.5082 0.4652
H313 H 0.6539 0.5276 0.4222
H314 H 0.7132 0.4955 0.4306
C391 C 0.0936(17) -0.037(2) 0.1129(8)
N16 N 0.0771(15) 0.0082(16) 0.0950(16)
C392 C 0.1143(14) -0.093(2) 0.1224(18)
H315 H 0.1199 -0.1100 0.1001
H316 H 0.0871 -0.1121 0.1434
H317 H 0.1504 -0.0973 0.1303
N17 N 0.563(2) 0.1894(15) 0.1369(8)
C393 C 0.5773(12) 0.2185(11) 0.1112(6)
C394 C 0.5724(13) 0.2590(12) 0.0762(7)
H318 H 0.5345 0.2622 0.0714
H319 H 0.6003 0.2474 0.0548
H320 H 0.5793 0.2947 0.0789
N18 N 0.4128(13) 0.3702(18) 0.1366(15)
C395 C 0.3644(11) 0.3630(18) 0.1407(17)
C396 C 0.3067(9) 0.3524(17) 0.1477(17)
H321 H 0.3044 0.3134 0.1591
H322 H 0.2937 0.3619 0.1235
H323 H 0.2828 0.3748 0.1653
N19 N 0.8446(16) 0.209(3) 0.1400(18)
C397 C 0.804(2) 0.227(2) 0.1576(15)
C398 C 0.7659(12) 0.2406(19) 0.1904(10)
H324 H 0.7692 0.2102 0.2123
H325 H 0.7272 0.2469 0.1862
H326 H 0.7749 0.2739 0.1955
N20 N 0.5354(16) 0.177(3) 0.5031(14)
C399 C 0.567(2) 0.142(2) 0.5195(8)
C400 C 0.6117(17) 0.1042(15) 0.5331(8)
H327 H 0.6433 0.0998 0.5116
H328 H 0.5984 0.0686 0.5451
H329 H 0.6241 0.1183 0.5518
N21 N 0.563(3) 0.102(2) 0.413(2)
C401 C 0.5862(15) 0.141(2) 0.4056(13)
C402 C 0.6296(14) 0.1725(17) 0.4025(11)
H330 H 0.6219 0.1892 0.4249
H331 H 0.6310 0.2015 0.3794
H332 H 0.6658 0.1488 0.4012
Fe1 Fe 0.09419(7) 0.70752(6) 0.07771(4)
Fe2 Fe -0.00102(7) 0.56334(6) 0.31599(5)
Fe3 Fe -0.13001(6) 0.90695(6) 0.26275(5)
Fe4 Fe 0.15122(7) 0.85021(6) 0.37154(5)
Fe5 Fe 0.24919(6) 0.99533(6) 0.13439(4)
Fe6 Fe 0.38576(7) 0.65096(7) 0.18651(5)
O1 O 0.1362(3) 0.6571(3) 0.11373(18)
O2 O 0.0707(3) 0.5776(3) 0.28191(19)
O3 O 0.3182(3) 0.6110(3) 0.2046(2)
O4 O -0.0414(3) 0.6208(3) 0.28113(19)
O5 O 0.0384(3) 0.7293(3) 0.12108(19)
O6 O -0.1214(3) 0.8574(3) 0.22935(19)
O7 O 0.1492(3) 0.7592(3) 0.06917(19)
O8 O 0.3528(3) 0.6946(3) 0.14292(19)
O9 O 0.2491(3) 0.9251(2) 0.12035(17)
O10 O 0.0994(3) 0.8054(3) 0.36414(19)
O11 O -0.1044(3) 0.8476(3) 0.3028(2)
O12 O -0.0010(3) 0.6164(3) 0.34711(19)
O13 O -0.0553(3) 0.9295(3) 0.24579(19)
O14 O 0.1288(3) 0.9091(3) 0.33041(18)
O15 O 0.1729(3) 1.0047(2) 0.16589(18)
O16 O 0.2219(3) 0.8294(3) 0.33726(17)
O17 O 0.2783(3) 0.9520(2) 0.17908(19)
O18 O 0.3538(3) 0.7108(3) 0.2134(2)
O19 O 0.0526(3) 0.6432(3) 0.0811(2)
O20 O 0.0446(3) 0.4990(3) 0.3446(2)
O21 O 0.4221(3) 0.5879(3) 0.1597(2)
O22 O -0.0152(3) 0.5095(3) 0.2864(2)
O23 O 0.0412(3) 0.7563(3) 0.04548(19)
O24 O -0.2115(3) 0.8890(3) 0.2819(2)
O25 O 0.1422(3) 0.6832(3) 0.02892(19)
O26 O 0.4535(3) 0.6897(3) 0.1600(2)
O27 O 0.2240(3) 1.0329(3) 0.08621(19)
O28 O 0.1661(3) 0.7879(3) 0.41508(19)
O29 O -0.1514(3) 0.9531(3) 0.3028(2)
O30 O -0.0702(3) 0.5403(3) 0.3546(2)
O31 O -0.1530(3) 0.9748(3) 0.2249(2)
O32 O 0.0862(3) 0.8849(3) 0.40711(19)
O33 O 0.2566(3) 1.0709(3) 0.14303(19)
O34 O 0.1977(3) 0.8959(3) 0.38805(19)
O35 O 0.3293(3) 0.9950(3) 0.10674(19)
O36 O 0.4233(3) 0.6153(3) 0.2309(2)
O37 O 0.0598(4) 0.5046(3) 0.1851(2)
O38 O 0.2278(5) 0.4667(6) 0.2981(4)
O39 O 0.2953(4) 0.4794(4) 0.1593(3)
O40 O -0.0525(3) 0.5732(4) 0.1717(2)
O41 O -0.1386(3) 0.7661(3) 0.1075(3)
O42 O -0.2357(3) 0.7450(3) 0.2355(2)
O43 O 0.3140(4) 0.7410(3) -0.0039(2)
O44 O 0.4703(4) 0.8271(3) 0.0658(2)
O45 O 0.2634(4) 0.9302(3) -0.0028(2)
O46 O 0.0004(3) 0.7275(3) 0.4713(2)
O47 O -0.1370(6) 0.9064(4) 0.4191(3)
O48 O -0.1385(3) 0.6613(4) 0.4351(2)
O49 O -0.0337(4) 1.0997(3) 0.1748(2)
O50 O -0.0557(3) 0.9793(3) 0.3511(3)
O51 O 0.1190(4) 1.1263(3) 0.2344(2)
O52 O 0.3672(3) 0.9155(3) 0.3076(2)
O53 O 0.4584(4) 0.8634(4) 0.1458(2)
O54 O 0.3955(4) 0.6887(4) 0.3305(2)
O55 O 0.1257(4) 0.4863(3) 0.1364(3)
O56 O 0.1806(5) 0.4202(5) 0.2759(4)
O57 O 0.3130(3) 0.5417(4) 0.1030(3)
O58 O -0.1346(3) 0.5844(3) 0.2116(2)
O59 O -0.1089(3) 0.8490(3) 0.0953(2)
O60 O -0.2298(3) 0.7217(3) 0.2969(2)
O61 O 0.3110(3) 0.6536(3) 0.0302(3)
O62 O 0.4193(3) 0.7827(3) 0.04214(19)
O63 O 0.1702(3) 0.9437(3) 0.0219(2)
O64 O 0.0632(4) 0.6553(3) 0.4571(2)
O65 O -0.1589(3) 0.8263(3) 0.4164(2)
O66 O -0.1907(3) 0.6625(3) 0.3910(2)
O67 O -0.0737(4) 1.1049(3) 0.2345(2)
O68 O -0.0043(3) 1.0375(3) 0.3601(2)
O69 O 0.1950(3) 1.0834(3) 0.2577(2)
O70 O 0.3020(3) 0.9880(3) 0.2970(2)
O71 O 0.4452(3) 0.9222(3) 0.1843(2)
O72 O 0.4569(3) 0.7367(3) 0.2865(2)
O73 O 0.0325(3) 0.5562(3) 0.0966(2)
O74 O 0.1024(4) 0.4206(3) 0.3494(2)
O75 O 0.4215(4) 0.5303(4) 0.1222(3)
O76 O -0.0472(3) 0.4773(3) 0.2456(2)
O77 O -0.0397(3) 0.7936(3) 0.0286(2)
O78 O -0.2780(3) 0.8322(3) 0.3029(2)
O79 O 0.2215(3) 0.6612(4) -0.0091(3)
O80 O 0.5144(3) 0.7431(3) 0.1196(2)
O81 O 0.2129(3) 1.0462(3) 0.0257(2)
O82 O 0.1410(3) 0.7230(3) 0.4683(2)
O83 O -0.1872(3) 0.9721(3) 0.3603(2)
O84 O -0.1519(3) 0.5513(3) 0.3971(2)
O85 O -0.1606(3) 1.0648(3) 0.1993(2)
O86 O 0.0070(3) 0.9389(3) 0.4255(2)
O87 O 0.2460(3) 1.1343(3) 0.1782(2)
O88 O 0.2600(3) 0.9553(3) 0.3782(2)
O89 O 0.4225(3) 0.9666(3) 0.09061(19)
O90 O 0.4616(3) 0.6090(3) 0.2822(3)
C1 C 0.2114(4) 0.5960(4) 0.1638(3)
H1 H 0.2312 0.6092 0.1386
C2 C 0.1244(4) 0.5770(5) 0.2071(3)
H2 H 0.0849 0.5762 0.2118
C3 C 0.2103(4) 0.5644(4) 0.2306(3)
H3 H 0.2291 0.5548 0.2514
C4 C -0.1014(4) 0.7159(4) 0.2403(3)
H4 H -0.1204 0.7082 0.2663
C5 C -0.0365(4) 0.6872(4) 0.1866(3)
H5 H -0.0112 0.6594 0.1758
C6 C -0.0819(5) 0.7802(4) 0.1802(3)
H6 H -0.0882 0.8161 0.1652
C7 C 0.2261(4) 0.8303(4) 0.0735(3)
H7 H 0.1930 0.8503 0.0655
C8 C 0.2865(4) 0.7450(4) 0.0858(3)
H8 H 0.2954 0.7067 0.0863
C9 C 0.3059(4) 0.8268(4) 0.0989(3)
H9 H 0.3294 0.8448 0.1077
C10 C 0.0088(5) 0.7059(5) 0.3793(3)
H10 H 0.0340 0.6747 0.3877
C11 C -0.0213(4) 0.8051(4) 0.3679(3)
H11 H -0.0168 0.8413 0.3688
C12 C -0.0766(5) 0.7430(5) 0.3560(4)
H12 H -0.1091 0.7366 0.3489
C13 C 0.0585(4) 1.0061(4) 0.2141(3)
H13 H 0.0542 1.0208 0.1885
C14 C 0.0215(4) 0.9611(4) 0.2783(3)
H14 H -0.0079 0.9435 0.2962
C15 C 0.1149(4) 0.9868(4) 0.2612(3)
H15 H 0.1491 0.9879 0.2683
C16 C 0.3163(5) 0.7936(4) 0.2809(3)
H16 H 0.3123 0.7654 0.3033
C17 C 0.2990(4) 0.8893(4) 0.2509(3)
H17 H 0.2846 0.9262 0.2530
C18 C 0.3511(4) 0.8230(4) 0.2129(3)
C19 C 0.1547(5) 0.5932(4) 0.1692(3)
C20 C 0.1517(5) 0.5627(4) 0.2364(3)
C21 C 0.2406(4) 0.5813(4) 0.1916(3)
C22 C -0.0649(4) 0.6748(4) 0.2247(3)
C23 C -0.0451(4) 0.7404(4) 0.1642(3)
C24 C -0.1103(4) 0.7681(4) 0.2183(3)
C25 C 0.2399(4) 0.7738(4) 0.0719(3)
C26 C 0.3198(4) 0.7704(4) 0.0989(3)
C27 C 0.2588(4) 0.8564(4) 0.0863(3)
C28 C 0.0191(4) 0.7604(4) 0.3795(3)
C29 C -0.0669(5) 0.7970(4) 0.3554(3)
C30 C -0.0359(4) 0.6993(4) 0.3675(3)
C31 C 0.0146(4) 0.9838(4) 0.2413(3)
C32 C 0.0696(4) 0.9638(4) 0.2894(3)
C33 C 0.1097(4) 1.0070(4) 0.2246(3)
C34 C 0.2925(4) 0.8479(4) 0.2830(3)
C35 C 0.3264(5) 0.8777(4) 0.2156(3)
C36 C 0.3456(4) 0.7813(4) 0.2462(3)
C37 C 0.1242(4) 0.6101(5) 0.1365(3)
C38 C 0.1172(5) 0.5444(5) 0.2756(3)
C39 C 0.3020(5) 0.5839(4) 0.1850(3)
C40 C -0.0533(4) 0.6185(4) 0.2490(3)
C41 C -0.0136(4) 0.7496(4) 0.1245(3)
C42 C -0.1466(4) 0.8130(4) 0.2363(3)
C43 C 0.2028(4) 0.7472(4) 0.0581(3)
C44 C 0.3679(4) 0.7355(4) 0.1171(3)
C45 C 0.2435(4) 0.9152(4) 0.0901(3)
C46 C 0.0694(5) 0.7701(4) 0.3892(3)
C47 C -0.1045(5) 0.8463(4) 0.3375(3)
C48 C -0.0447(4) 0.6410(4) 0.3651(3)
C49 C -0.0404(4) 0.9789(4) 0.2327(3)
C50 C 0.0806(4) 0.9387(4) 0.3292(3)
C51 C 0.1591(4) 1.0269(4) 0.1953(3)
C52 C 0.2588(4) 0.8609(4) 0.3198(3)
C53 C 0.3275(4) 0.9220(4) 0.1801(3)
C54 C 0.3687(4) 0.7231(4) 0.2408(3)
C55 C 0.0884(5) 0.5781(4) 0.1314(3)
C56 C 0.1302(4) 0.4945(4) 0.2987(3)
C57 C 0.3372(4) 0.5597(4) 0.1559(3)
C58 C -0.0534(4) 0.5717(4) 0.2370(3)
C59 C -0.0398(5) 0.7735(4) 0.0936(3)
C60 C -0.1984(4) 0.8047(4) 0.2618(3)
C61 C 0.2263(5) 0.7117(4) 0.0326(3)
C62 C 0.4217(4) 0.7513(4) 0.1072(3)
C63 C 0.2312(4) 0.9555(4) 0.0570(3)
C64 C 0.0844(5) 0.7438(4) 0.4234(3)
C65 C -0.1348(5) 0.8861(5) 0.3588(3)
C66 C -0.0966(4) 0.6223(4) 0.3799(3)
C67 C -0.0752(5) 1.0230(4) 0.2166(3)
C68 C 0.0383(4) 0.9479(4) 0.3602(3)
C69 C 0.1870(4) 1.0680(4) 0.2002(3)
C70 C 0.2708(4) 0.9034(4) 0.3335(3)
C71 C 0.3753(4) 0.9279(4) 0.1512(3)
C72 C 0.4025(5) 0.6882(4) 0.2651(3)
C73 C 0.0563(4) 0.5961(4) 0.1019(3)
C74 C 0.0891(6) 0.4717(4) 0.3321(3)
C75 C 0.3943(5) 0.5613(5) 0.1464(4)
C76 C -0.0366(5) 0.5181(5) 0.2594(4)
C77 C -0.0093(5) 0.7743(4) 0.0537(3)
C78 C -0.2263(4) 0.8446(5) 0.2804(3)
C79 C 0.1946(5) 0.6846(4) 0.0180(3)
C80 C 0.4621(4) 0.7265(4) 0.1314(3)
C81 C 0.2230(4) 1.0123(4) 0.0583(3)
C82 C 0.1327(5) 0.7541(5) 0.4349(3)
C83 C -0.1578(4) 0.9383(5) 0.3380(4)
C84 C -0.1024(4) 0.5686(5) 0.3746(3)
C85 C -0.1318(5) 1.0179(5) 0.2160(3)
C86 C 0.0481(4) 0.9208(4) 0.3987(3)
C87 C 0.2319(5) 1.0892(4) 0.1719(4)
C88 C 0.2392(5) 0.9172(4) 0.3675(3)
C89 C 0.3724(5) 0.9660(4) 0.1159(3)
C90 C 0.4298(4) 0.6366(4) 0.2571(3)
C91 C 0.0865(5) 0.5210(5) 0.1536(3)
C92 C 0.1842(6) 0.4594(6) 0.2932(4)
C93 C 0.3109(5) 0.5214(6) 0.1409(4)
C94 C -0.0785(4) 0.5758(4) 0.2032(4)
C95 C -0.1007(5) 0.7930(5) 0.0990(3)
C96 C -0.2228(4) 0.7560(4) 0.2615(3)
C97 C 0.2881(5) 0.7058(4) 0.0159(3)
C98 C 0.4391(4) 0.7925(4) 0.0710(3)
C99 C 0.2253(5) 0.9421(4) 0.0210(3)
C100 C 0.0426(5) 0.7090(4) 0.4544(4)
C101 C -0.1414(6) 0.8763(5) 0.3995(4)
C102 C -0.1421(5) 0.6506(4) 0.4054(4)
C103 C -0.0584(4) 1.0789(4) 0.2048(3)
C104 C -0.0114(5) 0.9877(5) 0.3565(3)
C105 C 0.1634(4) 1.0957(4) 0.2320(3)
C106 C 0.3198(4) 0.9343(4) 0.3126(3)
C107 C 0.4280(4) 0.8996(4) 0.1593(3)
C108 C 0.4148(5) 0.7030(4) 0.2987(3)
C109 C 0.1337(7) 0.4299(5) 0.1525(4)
C110 C 0.2267(9) 0.3803(7) 0.2743(9)
C111 C 0.2928(6) 0.5056(7) 0.0836(4)
C112 C -0.1646(4) 0.5910(5) 0.1819(3)
C113 C -0.1632(6) 0.8764(5) 0.1000(4)
C114 C -0.2562(5) 0.6737(5) 0.3038(4)
C115 C 0.3699(7) 0.6383(5) 0.0147(6)
C116 C 0.4307(4) 0.8182(4) 0.0063(3)
C117 C 0.1543(6) 0.9352(6) -0.0099(4)
C118 C 0.0304(6) 0.6173(5) 0.4862(4)
C119 C -0.1707(5) 0.8096(5) 0.4571(4)
C120 C -0.2417(5) 0.6790(5) 0.4138(4)
C121 C -0.0615(6) 1.1597(5) 0.2257(4)
C122 C -0.0520(5) 1.0792(4) 0.3602(3)
C123 C 0.1759(5) 1.1079(5) 0.2899(4)
C124 C 0.3432(5) 1.0235(4) 0.2780(4)
C125 C 0.4953(5) 0.9000(5) 0.1972(4)
C126 C 0.4748(5) 0.7544(5) 0.3137(4)
C127 C 0.1591(7) 0.4141(6) 0.1835(6)
H18 H 0.1701 0.4406 0.1937
C128 C 0.2712(10) 0.3890(9) 0.2471(11)
H19 H 0.2699 0.4213 0.2275
C129 C 0.2403(6) 0.5054(8) 0.0840(5)
H20 H 0.2121 0.5290 0.0971
C130 C -0.1644(5) 0.6403(5) 0.1543(4)
H21 H -0.1446 0.6687 0.1551
C131 C -0.2334(6) 0.9344(6) 0.1331(5)
H22 H -0.2465 0.9534 0.1534
C132 C -0.2317(5) 0.6325(5) 0.2845(4)
H23 H -0.1974 0.6367 0.2662
C133 C 0.4089(7) 0.6651(6) 0.0203(7)
H24 H 0.3988 0.6954 0.0327
C134 C 0.3869(5) 0.8518(5) -0.0077(3)
H25 H 0.3495 0.8527 0.0071
C135 C 0.1351(6) 0.8860(7) -0.0070(4)
H26 H 0.1382 0.8564 0.0142
C136 C -0.0244(5) 0.6135(5) 0.4818(3)
H27 H -0.0411 0.6364 0.4619
C137 C -0.1314(6) 0.7755(7) 0.4728(4)
H28 H -0.0949 0.7662 0.4584
C138 C -0.2526(7) 0.7260(6) 0.4276(5)
H29 H -0.2235 0.7485 0.4224
C139 C -0.0071(8) 1.1691(5) 0.2255(4)
H30 H 0.0212 1.1389 0.2302
C140 C -0.0488(6) 1.1251(5) 0.3308(4)
H31 H -0.0169 1.1270 0.3102
C141 C 0.1294(7) 1.0974(5) 0.3156(4)
H32 H 0.1061 1.0740 0.3115
C142 C 0.3753(6) 1.0180(5) 0.2430(4)
H33 H 0.3720 0.9891 0.2318
C143 C 0.4923(6) 0.8782(7) 0.2332(5)
H34 H 0.4569 0.8743 0.2502
C144 C 0.4434(5) 0.7977(5) 0.3298(3)
H35 H 0.4082 0.8139 0.3233
C145 C 0.1688(7) 0.3561(7) 0.2000(6)
H36 H 0.1851 0.3437 0.2220
C146 C 0.3237(13) 0.3495(13) 0.2461(17)
H37 H 0.3563 0.3539 0.2263
C147 C 0.2258(6) 0.4719(8) 0.0659(5)
H38 H 0.1873 0.4737 0.0649
C148 C -0.1945(5) 0.6460(5) 0.1252(4)
H39 H -0.1958 0.6791 0.1063
C149 C -0.1811(5) 0.9034(5) 0.1302(4)
H40 H -0.1582 0.9006 0.1482
C150 C -0.2557(6) 0.5860(6) 0.2913(4)
H41 H -0.2383 0.5578 0.2776
C151 C 0.4650(9) 0.6457(8) 0.0067(8)
H42 H 0.4945 0.6624 0.0100
C152 C 0.3983(5) 0.8841(5) -0.0434(4)
H43 H 0.3682 0.9088 -0.0525
C153 C 0.1111(8) 0.8815(7) -0.0363(5)
H44 H 0.0929 0.8504 -0.0338
C154 C -0.0514(6) 0.5726(6) 0.5096(4)
H45 H -0.0888 0.5695 0.5085
C155 C -0.1472(7) 0.7531(9) 0.5131(5)
H46 H -0.1207 0.7262 0.5246
C156 C -0.3041(7) 0.7421(7) 0.4488(5)
H47 H -0.3112 0.7758 0.4573
C157 C 0.0053(9) 1.2220(7) 0.2185(5)
H48 H 0.0426 1.2299 0.2154
C158 C -0.0909(6) 1.1671(5) 0.3314(4)
H49 H -0.0881 1.1990 0.3116
C159 C 0.1132(7) 1.1196(7) 0.3485(4)
H50 H 0.0805 1.1096 0.3669
C160 C 0.4126(6) 1.0552(5) 0.2244(4)
H51 H 0.4338 1.0524 0.1997
C161 C 0.5458(7) 0.8595(8) 0.2474(4)
H52 H 0.5444 0.8474 0.2740
C162 C 0.4632(5) 0.8165(5) 0.3545(4)
H53 H 0.4423 0.8471 0.3644
C163 C 0.1537(6) 0.3198(6) 0.1833(5)
C164 C 0.320(2) 0.3009(12) 0.280(3)
C165 C 0.2633(7) 0.4368(8) 0.0495(7)
C166 C -0.2215(5) 0.6047(5) 0.1241(4)
C167 C -0.2684(6) 0.9390(6) 0.1068(5)
C168 C -0.3060(6) 0.5793(6) 0.3183(5)
C169 C 0.4771(10) 0.6043(9) -0.0108(11)
C170 C 0.4506(5) 0.8829(5) -0.0668(4)
C171 C 0.1134(7) 0.9219(8) -0.0686(5)
C172 C -0.0294(6) 0.5378(5) 0.5374(4)
C173 C -0.1961(7) 0.7674(7) 0.5355(4)
C174 C -0.3471(7) 0.7067(8) 0.4578(5)
C175 C -0.0409(13) 1.2639(7) 0.2163(5)
C176 C -0.1374(7) 1.1643(6) 0.3599(5)
C177 C 0.1428(7) 1.1541(7) 0.3541(5)
C178 C 0.4200(5) 1.0959(5) 0.2405(5)
C179 C 0.5941(6) 0.8594(7) 0.2239(4)
C180 C 0.5124(6) 0.7931(7) 0.3659(4)
C181 C 0.1259(12) 0.3377(7) 0.1545(5)
H54 H 0.1125 0.3122 0.1447
C182 C 0.2738(16) 0.2902(11) 0.298(3)
H55 H 0.2675 0.2529 0.3078
C183 C 0.3173(9) 0.4358(15) 0.0495(11)
H56 H 0.3453 0.4132 0.0354
C184 C -0.2217(5) 0.5561(5) 0.1528(4)
H57 H -0.2426 0.5280 0.1526
C185 C -0.2503(6) 0.9086(6) 0.0793(4)
H58 H -0.2740 0.9092 0.0623
C186 C -0.3292(7) 0.6209(6) 0.3385(5)
H59 H -0.3629 0.6166 0.3574
C187 C 0.4409(11) 0.5771(9) -0.0127(12)
H60 H 0.4519 0.5447 -0.0228
C188 C 0.4948(5) 0.8475(5) -0.0529(4)
H61 H 0.5316 0.8465 -0.0685
C189 C 0.1345(7) 0.9691(8) -0.0704(5)
H62 H 0.1335 0.9973 -0.0926
C190 C 0.0228(8) 0.5437(5) 0.5412(4)
H63 H 0.0374 0.5222 0.5625
C191 C -0.2336(8) 0.8049(7) 0.5162(5)
H64 H -0.2695 0.8164 0.5304
C192 C -0.3365(7) 0.6605(9) 0.4445(7)
H65 H -0.3651 0.6375 0.4497
C193 C -0.0944(11) 1.2579(7) 0.2143(5)
H66 H -0.1220 1.2880 0.2079
C194 C -0.1429(6) 1.1164(6) 0.3906(4)
H67 H -0.1759 1.1132 0.4103
C195 C 0.1934(9) 1.1644(9) 0.3291(7)
H68 H 0.2172 1.1859 0.3345
C196 C 0.3869(7) 1.1009(6) 0.2766(5)
H69 H 0.3904 1.1297 0.2880
C197 C 0.5955(6) 0.8811(9) 0.1857(5)
H70 H 0.6312 0.8823 0.1688
C198 C 0.5426(7) 0.7486(8) 0.3514(7)
H71 H 0.5772 0.7322 0.3587
C199 C 0.1170(9) 0.3935(6) 0.1390(5)
H72 H 0.0983 0.4057 0.1182
C200 C 0.2303(12) 0.3317(10) 0.3054(16)
H73 H 0.2040 0.3290 0.3291
C201 C 0.3336(8) 0.4692(15) 0.0710(12)
H74 H 0.3706 0.4651 0.0757
C202 C -0.1921(5) 0.5493(5) 0.1809(3)
H75 H -0.1907 0.5160 0.1995
C203 C -0.1991(5) 0.8772(5) 0.0757(4)
H76 H -0.1876 0.8559 0.0566
C204 C -0.3037(6) 0.6698(6) 0.3313(5)
H77 H -0.3192 0.6981 0.3451
C205 C 0.3824(8) 0.5952(8) 0.0004(8)
H78 H 0.3538 0.5759 -0.0014
C206 C 0.4860(5) 0.8133(5) -0.0164(4)
H79 H 0.5157 0.7880 -0.0073
C207 C 0.1557(6) 0.9782(7) -0.0440(4)
H80 H 0.1711 1.0111 -0.0468
C208 C 0.0561(7) 0.5821(5) 0.5134(4)
H81 H 0.0943 0.5830 0.5139
C209 C -0.2211(7) 0.8272(6) 0.4757(5)
H82 H -0.2473 0.8530 0.4632
C210 C -0.2816(7) 0.6455(7) 0.4225(6)
H83 H -0.2736 0.6118 0.4140
C211 C -0.1044(7) 1.2007(6) 0.2231(5)
H84 H -0.1417 1.1923 0.2270
C212 C -0.0964(6) 1.0747(5) 0.3896(4)
H85 H -0.0965 1.0432 0.4098
C213 C 0.2101(7) 1.1425(7) 0.2948(6)
H86 H 0.2431 1.1514 0.2763
C214 C 0.3492(6) 1.0637(5) 0.2955(4)
H87 H 0.3277 1.0659 0.3203
C215 C 0.5490(6) 0.9006(8) 0.1710(4)
H88 H 0.5515 0.9142 0.1444
C216 C 0.5227(7) 0.7274(7) 0.3261(6)
H89 H 0.5420 0.6951 0.3177
C217 C 0.1664(9) 0.2562(6) 0.2023(7)
H90 H 0.1503 0.2341 0.1901
H91 H 0.1495 0.2501 0.2297
H92 H 0.2073 0.2454 0.1988
C218 C 0.373(3) 0.2544(14) 0.265(5)
H93 H 0.4029 0.2733 0.2470
H94 H 0.3591 0.2308 0.2530
H95 H 0.3880 0.2319 0.2872
C219 C 0.2485(9) 0.3957(11) 0.0296(8)
H96 H 0.2830 0.3733 0.0196
H97 H 0.2301 0.4160 0.0086
H98 H 0.2228 0.3718 0.0481
C220 C -0.2555(5) 0.6111(6) 0.0925(4)
H99 H -0.2694 0.5763 0.0946
H100 H -0.2311 0.6210 0.0674
H101 H -0.2875 0.6400 0.0957
C221 C -0.3229(7) 0.9783(7) 0.1092(5)
H102 H -0.3418 0.9768 0.0890
H103 H -0.3144 1.0158 0.1060
H104 H -0.3476 0.9678 0.1342
C222 C -0.3326(9) 0.5258(7) 0.3308(7)
H105 H -0.3703 0.5321 0.3466
H106 H -0.3090 0.4975 0.3456
H107 H -0.3354 0.5134 0.3082
C223 C 0.5407(12) 0.5848(12) -0.0330(16)
H108 H 0.5672 0.6064 -0.0291
H109 H 0.5415 0.5906 -0.0604
H110 H 0.5514 0.5457 -0.0229
C224 C 0.4615(7) 0.9195(6) -0.1067(4)
H111 H 0.4262 0.9417 -0.1118
H112 H 0.4762 0.8965 -0.1257
H113 H 0.4892 0.9438 -0.1082
C225 C 0.0857(9) 0.9205(11) -0.1040(6)
H114 H 0.0700 0.8859 -0.0990
H115 H 0.1148 0.9235 -0.1276
H116 H 0.0556 0.9514 -0.1069
C226 C -0.0600(9) 0.4955(7) 0.5679(5)
H117 H -0.0340 0.4734 0.5838
H118 H -0.0740 0.4716 0.5559
H119 H -0.0918 0.5141 0.5838
C227 C -0.2100(11) 0.7399(10) 0.5768(6)
H120 H -0.2478 0.7552 0.5884
H121 H -0.1823 0.7460 0.5900
H122 H -0.2090 0.7003 0.5790
C228 C -0.4028(9) 0.7226(10) 0.4836(6)
H123 H -0.4021 0.7578 0.4901
H124 H -0.4086 0.6942 0.5070
H125 H -0.4337 0.7262 0.4703
C229 C -0.0240(15) 1.3256(7) 0.2037(6)
H126 H 0.0159 1.3243 0.2038
H127 H -0.0470 1.3477 0.2218
H128 H -0.0308 1.3422 0.1780
C230 C -0.1888(11) 1.2115(9) 0.3609(9)
H129 H -0.2188 1.2005 0.3830
H130 H -0.2032 1.2182 0.3374
H131 H -0.1765 1.2453 0.3629
C231 C 0.1282(11) 1.1831(9) 0.3867(6)
H132 H 0.1579 1.2055 0.3846
H133 H 0.1250 1.1560 0.4109
H134 H 0.0923 1.2070 0.3860
C232 C 0.4628(6) 1.1363(6) 0.2182(6)
H135 H 0.4621 1.1637 0.2332
H136 H 0.4527 1.1549 0.1937
H137 H 0.5007 1.1160 0.2137
C233 C 0.6460(8) 0.8348(9) 0.2402(6)
H138 H 0.6795 0.8361 0.2194
H139 H 0.6426 0.7966 0.2533
H140 H 0.6496 0.8559 0.2584
C234 C 0.5333(10) 0.8147(9) 0.3942(5)
H141 H 0.5687 0.7925 0.3992
H142 H 0.5050 0.8126 0.4181
H143 H 0.5398 0.8531 0.3836
C235 C 0.0021(5) 0.5700(4) 0.0669(3)
C236 C 0.0573(5) 0.3910(4) 0.3739(3)
C237 C 0.4784(7) 0.5307(8) 0.1078(7)
C238 C -0.0271(6) 0.4218(5) 0.2635(3)
C239 C -0.0189(5) 0.7790(5) -0.0076(3)
C240 C -0.3083(5) 0.8695(5) 0.3247(4)
C241 C 0.1934(6) 0.6277(5) -0.0247(4)
C242 C 0.5508(4) 0.7227(4) 0.1444(4)
C243 C 0.2115(5) 1.1041(5) 0.0224(4)
C244 C 0.1817(5) 0.7372(5) 0.4841(3)
C245 C -0.2132(5) 1.0221(5) 0.3434(4)
C246 C -0.1670(4) 0.5019(4) 0.3931(4)
C247 C -0.2175(5) 1.0636(5) 0.2004(3)
C248 C 0.0107(4) 0.9117(4) 0.4644(3)
C249 C 0.2865(6) 1.1656(5) 0.1496(4)
C250 C 0.2304(4) 0.9727(4) 0.4117(3)
C251 C 0.4220(5) 0.9968(4) 0.0527(3)
C252 C 0.5006(5) 0.5631(6) 0.2739(4)
C253 C 0.0279(4) 0.5578(5) 0.0329(3)
H144 H 0.0664 0.5427 0.0281
C254 C 0.0682(5) 0.3614(5) 0.4069(4)
H145 H 0.1027 0.3616 0.4141
C255 C 0.5111(8) 0.4812(11) 0.1092(11)
H146 H 0.4957 0.4482 0.1220
C256 C -0.0666(6) 0.3888(5) 0.2846(4)
H147 H -0.1055 0.4025 0.2879
C257 C -0.0107(5) 0.8231(5) -0.0403(3)
H148 H -0.0150 0.8605 -0.0383
C258 C -0.3077(7) 0.8515(7) 0.3636(5)
H149 H -0.2853 0.8186 0.3729
C259 C 0.2163(9) 0.5735(7) -0.0194(5)
H150 H 0.2441 0.5600 -0.0043
C260 C 0.5916(5) 0.6788(6) 0.1391(4)
H151 H 0.5935 0.6613 0.1186
C261 C 0.1610(5) 1.1359(5) 0.0226(4)
H152 H 0.1271 1.1205 0.0265
C262 C 0.2285(6) 0.6996(6) 0.4900(4)
H153 H 0.2354 0.6664 0.4810
C263 C -0.2701(6) 1.0284(6) 0.3463(4)
H154 H -0.2910 0.9987 0.3591
C264 C -0.1723(6) 0.4592(5) 0.4231(4)
H155 H -0.1639 0.4616 0.4464
C265 C -0.2359(6) 1.0705(6) 0.1671(4)
H156 H -0.2102 1.0751 0.1432
C266 C 0.0396(7) 0.9330(6) 0.4832(4)
H157 H 0.0568 0.9652 0.4709
C267 C 0.3342(7) 1.1687(7) 0.1615(5)
H158 H 0.3413 1.1494 0.1858
C268 C 0.1983(9) 1.0207(8) 0.4067(5)
H159 H 0.1943 1.0405 0.3819
C269 C 0.4514(6) 1.0395(5) 0.0388(4)
H160 H 0.4709 1.0510 0.0542
C270 C 0.5538(9) 0.5744(9) 0.2580(7)
H161 H 0.5635 0.6108 0.2510
C271 C -0.0039(6) 0.5682(5) 0.0048(4)
H162 H 0.0138 0.5601 -0.0195
C272 C 0.0259(6) 0.3292(5) 0.4315(3)
H163 H 0.0328 0.3067 0.4550
C273 C 0.5637(12) 0.4801(17) 0.0926(18)
H164 H 0.5858 0.4451 0.0939
C274 C -0.0491(7) 0.3354(5) 0.3009(4)
H165 H -0.0763 0.3124 0.3159
C275 C 0.0039(5) 0.8070(6) -0.0753(3)
H166 H 0.0114 0.8350 -0.0975
C276 C -0.3418(7) 0.8844(8) 0.3886(5)
H167 H -0.3414 0.8745 0.4150
C277 C 0.1986(7) 0.5396(7) -0.0362(6)
H168 H 0.2141 0.5020 -0.0331
C278 C 0.6283(6) 0.6603(6) 0.1617(4)
H169 H 0.6564 0.6306 0.1564
C279 C 0.1614(6) 1.1928(5) 0.0168(5)
H170 H 0.1275 1.2168 0.0142
C280 C 0.2654(7) 0.7112(7) 0.5094(5)
H171 H 0.2960 0.6840 0.5151
C281 C -0.2980(6) 1.0796(7) 0.3299(4)
H172 H -0.3374 1.0829 0.3309
C282 C -0.1894(7) 0.4135(6) 0.4203(5)
H173 H -0.1937 0.3843 0.4421
C283 C -0.2943(6) 1.0705(7) 0.1692(5)
H174 H -0.3083 1.0781 0.1464
C284 C 0.0442(7) 0.9084(6) 0.5201(4)
H175 H 0.0644 0.9233 0.5334
C285 C 0.3722(7) 1.2027(8) 0.1350(6)
H176 H 0.4066 1.2047 0.1417
C286 C 0.1698(9) 1.0415(7) 0.4400(5)
H177 H 0.1483 1.0769 0.4370
C287 C 0.4527(6) 1.0678(5) -0.0005(4)
H178 H 0.4724 1.0989 -0.0106
C288 C 0.5930(8) 0.5292(12) 0.2527(11)
H179 H 0.6300 0.5361 0.2395
C289 C -0.0598(5) 0.5897(5) 0.0108(4)
C290 C -0.0224(6) 0.3306(5) 0.4216(3)
C291 C 0.5912(7) 0.5261(14) 0.0729(10)
C292 C 0.0110(7) 0.3135(5) 0.2954(3)
C293 C 0.0086(5) 0.7544(5) -0.0805(3)
C294 C -0.3753(5) 0.9302(7) 0.3750(5)
C295 C 0.1608(6) 0.5583(6) -0.0563(4)
C296 C 0.6270(5) 0.6832(5) 0.1934(4)
C297 C 0.2093(7) 1.2146(5) 0.0147(5)
C298 C 0.2599(7) 0.7587(7) 0.5204(4)
C299 C -0.2710(7) 1.1235(6) 0.3131(4)
C300 C -0.2009(5) 0.4068(5) 0.3874(5)
C301 C -0.3308(7) 1.0595(7) 0.2044(5)
C302 C 0.0184(6) 0.8607(6) 0.5378(3)
C303 C 0.3627(7) 1.2320(5) 0.1016(6)
C304 C 0.1726(5) 1.0117(6) 0.4767(4)
C305 C 0.4277(5) 1.0515(5) -0.0221(4)
C306 C 0.5848(9) 0.4802(9) 0.2636(7)
C307 C -0.0822(5) 0.6021(5) 0.0461(4)
H180 H -0.1205 0.6182 0.0510
C308 C -0.0300(6) 0.3610(5) 0.3855(3)
H181 H -0.0635 0.3597 0.3774
C309 C 0.5580(9) 0.5733(13) 0.0732(7)
H182 H 0.5729 0.6070 0.0616
C310 C 0.0462(6) 0.3492(5) 0.2751(4)
H183 H 0.0855 0.3373 0.2718
C311 C 0.0010(5) 0.7152(5) -0.0474(3)
H184 H 0.0057 0.6779 -0.0496
C312 C -0.3753(7) 0.9466(6) 0.3362(5)
H185 H -0.3989 0.9782 0.3264
C313 C 0.1369(6) 0.6138(6) -0.0610(4)
H186 H 0.1085 0.6272 -0.0756
C314 C 0.5845(7) 0.7240(6) 0.2010(6)
H187 H 0.5801 0.7388 0.2230
C315 C 0.2604(5) 1.1801(5) 0.0163(4)
H188 H 0.2940 1.1950 0.0145
C316 C 0.2130(6) 0.7957(6) 0.5145(4)
H189 H 0.2076 0.8293 0.5230
C317 C -0.2113(7) 1.1159(5) 0.3081(4)
H190 H -0.1911 1.1459 0.2947
C318 C -0.1935(6) 0.4505(6) 0.3562(4)
H191 H -0.1999 0.4470 0.3326
C319 C -0.3122(6) 1.0512(7) 0.2373(5)
H192 H -0.3375 1.0436 0.2613
C320 C -0.0083(6) 0.8390(6) 0.5188(4)
H193 H -0.0248 0.8063 0.5308
C321 C 0.3153(8) 1.2275(8) 0.0921(7)
H194 H 0.3077 1.2481 0.0683
C322 C 0.2047(8) 0.9627(6) 0.4784(4)
H195 H 0.2083 0.9411 0.5028
C323 C 0.3973(5) 1.0075(5) -0.0074(3)
H196 H 0.3787 0.9962 -0.0234
C324 C 0.5318(11) 0.4684(9) 0.2809(10)
H197 H 0.5218 0.4322 0.2871
C325 C -0.0527(5) 0.5928(5) 0.0748(4)
H198 H -0.0697 0.6018 0.0989
C326 C 0.0093(6) 0.3927(5) 0.3615(4)
H199 H 0.0032 0.4146 0.3377
C327 C 0.5016(8) 0.5737(10) 0.0905(6)
H200 H 0.4786 0.6083 0.0895
C328 C 0.0282(6) 0.4037(5) 0.2582(4)
H201 H 0.0549 0.4273 0.2433
C329 C -0.0127(5) 0.7258(5) -0.0119(3)
H202 H -0.0179 0.6967 0.0099
C330 C -0.3387(6) 0.9143(6) 0.3122(5)
H203 H -0.3361 0.9259 0.2854
C331 C 0.1552(5) 0.6491(6) -0.0441(4)
H204 H 0.1403 0.6869 -0.0467
C332 C 0.5466(6) 0.7441(5) 0.1758(4)
H205 H 0.5174 0.7732 0.1809
C333 C 0.2615(5) 1.1236(5) 0.0207(4)
H206 H 0.2954 1.0991 0.0224
C334 C 0.1740(6) 0.7861(6) 0.4968(4)
H207 H 0.1420 0.8124 0.4933
C335 C -0.1819(6) 1.0666(5) 0.3221(3)
H208 H -0.1419 1.0620 0.3179
C336 C -0.1773(6) 0.4988(5) 0.3585(4)
H209 H -0.1732 0.5287 0.3372
C337 C -0.2560(5) 1.0538(5) 0.2356(4)
H210 H -0.2432 1.0489 0.2586
C338 C -0.0122(5) 0.8651(5) 0.4803(3)
H211 H -0.0307 0.8497 0.4663
C339 C 0.2751(8) 1.1924(7) 0.1166(4)
H212 H 0.2418 1.1890 0.1091
C340 C 0.2332(7) 0.9415(5) 0.4464(4)
H213 H 0.2540 0.9058 0.4490
C341 C 0.3933(5) 0.9791(5) 0.0304(4)
H214 H 0.3720 0.9490 0.0404
C342 C 0.4930(10) 0.5140(7) 0.2890(7)
H215 H 0.4589 0.5075 0.3069
C343 C -0.0936(6) 0.5993(7) -0.0196(4)
H216 H -0.0701 0.5863 -0.0420
H217 H -0.1064 0.6387 -0.0268
H218 H -0.1264 0.5792 -0.0098
C344 C -0.0695(6) 0.2990(6) 0.4476(4)
H219 H -0.1022 0.3067 0.4355
H220 H -0.0803 0.3106 0.4721
H221 H -0.0563 0.2595 0.4518
C345 C 0.6549(10) 0.517(2) 0.0623(16)
H222 H 0.6678 0.4786 0.0614
H223 H 0.6704 0.5275 0.0814
H224 H 0.6676 0.5403 0.0372
C346 C 0.0303(11) 0.2541(7) 0.3126(7)
H225 H 0.0716 0.2474 0.3071
H226 H 0.0156 0.2295 0.3016
H227 H 0.0162 0.2470 0.3403
C347 C 0.0215(9) 0.7398(8) -0.1178(4)
H228 H 0.0259 0.6997 -0.1146
H229 H 0.0566 0.7536 -0.1328
H230 H -0.0093 0.7564 -0.1312
C348 C -0.4133(8) 0.9632(10) 0.4032(7)
H231 H -0.4359 0.9940 0.3894
H232 H -0.3900 0.9775 0.4158
H233 H -0.4384 0.9395 0.4223
C349 C 0.1386(8) 0.5220(7) -0.0770(6)
H234 H 0.1126 0.5451 -0.0925
H235 H 0.1188 0.4937 -0.0580
H236 H 0.1704 0.5043 -0.0935
C350 C 0.6677(7) 0.6593(6) 0.2211(6)
H237 H 0.6620 0.6825 0.2398
H238 H 0.7067 0.6582 0.2067
H239 H 0.6602 0.6219 0.2344
C351 C 0.2078(9) 1.2781(6) 0.0101(7)
H240 H 0.1693 1.2962 0.0094
H241 H 0.2333 1.2924 -0.0137
H242 H 0.2198 1.2853 0.0317
C352 C 0.3017(8) 0.7688(9) 0.5413(5)
H243 H 0.3314 0.7374 0.5431
H244 H 0.2822 0.7735 0.5671
H245 H 0.3185 0.8022 0.5274
C353 C -0.3025(10) 1.1791(8) 0.2956(6)
H246 H -0.3428 1.1762 0.3004
H247 H -0.2876 1.1881 0.2680
H248 H -0.2970 1.2081 0.3073
C354 C -0.2183(8) 0.3541(8) 0.3817(8)
H249 H -0.2268 0.3606 0.3563
H250 H -0.2518 0.3442 0.4011
H251 H -0.1873 0.3240 0.3842
C355 C -0.3938(7) 1.0567(9) 0.2051(6)
H252 H -0.3993 1.0631 0.1789
H253 H -0.4179 1.0848 0.2179
H254 H -0.4036 1.0203 0.2190
C356 C 0.0282(9) 0.8298(7) 0.5790(4)
H255 H 0.0490 0.8515 0.5884
H256 H 0.0500 0.7937 0.5776
H257 H -0.0083 0.8252 0.5964
C357 C 0.4048(8) 1.2714(6) 0.0742(6)
H258 H 0.3887 1.2914 0.0521
H259 H 0.4407 1.2497 0.0655
H260 H 0.4112 1.2977 0.0879
C358 C 0.1434(7) 1.0326(7) 0.5118(5)
H261 H 0.1193 1.0672 0.5048
H262 H 0.1715 1.0391 0.5245
H263 H 0.1202 1.0054 0.5291
C359 C 0.4309(6) 1.0813(6) -0.0635(3)
H264 H 0.4086 1.0646 -0.0754
H265 H 0.4703 1.0783 -0.0773
H266 H 0.4159 1.1201 -0.0645
C360 C 0.6273(14) 0.4284(15) 0.2456(15)
H267 H 0.6187 0.3932 0.2625
H268 H 0.6667 0.4325 0.2437
H269 H 0.6210 0.4294 0.2202
loop_
_geom_bond_atom_site_label_1
_geom_bond_atom_site_label_2
_geom_bond_site_symmetry_1
_geom_bond_site_symmetry_2
Fe1 O1 1_555 1_555
Fe2 O2 1_555 1_555
Fe3 O6 1_555 1_555
Fe4 O10 1_555 1_555
Fe5 O9 1_555 1_555
Fe6 O3 1_555 1_555
O1 C37 1_555 1_555
O2 C38 1_555 1_555
O3 C39 1_555 1_555
O4 Fe2 1_555 1_555
O5 Fe1 1_555 1_555
O6 C42 1_555 1_555
O7 Fe1 1_555 1_555
O8 Fe6 1_555 1_555
O9 C45 1_555 1_555
O10 C46 1_555 1_555
O11 Fe3 1_555 1_555
O12 Fe2 1_555 1_555
O13 Fe3 1_555 1_555
O14 Fe4 1_555 1_555
O15 Fe5 1_555 1_555
O16 Fe4 1_555 1_555
O17 Fe5 1_555 1_555
O18 Fe6 1_555 1_555
O19 Fe1 1_555 1_555
O20 Fe2 1_555 1_555
O21 Fe6 1_555 1_555
O22 Fe2 1_555 1_555
O23 Fe1 1_555 1_555
O24 Fe3 1_555 1_555
O25 Fe1 1_555 1_555
O26 Fe6 1_555 1_555
O27 Fe5 1_555 1_555
O28 Fe4 1_555 1_555
O29 Fe3 1_555 1_555
O30 Fe2 1_555 1_555
O31 Fe3 1_555 1_555
O32 Fe4 1_555 1_555
O33 Fe5 1_555 1_555
O34 Fe4 1_555 1_555
O35 Fe5 1_555 1_555
O36 Fe6 1_555 1_555
O37 C91 1_555 1_555
O38 C92 1_555 1_555
O39 C93 1_555 1_555
O40 C94 1_555 1_555
O41 C95 1_555 1_555
O42 C96 1_555 1_555
O43 C97 1_555 1_555
O44 C98 1_555 1_555
O45 C99 1_555 1_555
O46 C100 1_555 1_555
O47 C101 1_555 1_555
O48 C102 1_555 1_555
O49 C103 1_555 1_555
O50 C104 1_555 1_555
O51 C105 1_555 1_555
O52 C106 1_555 1_555
O53 C107 1_555 1_555
O54 C108 1_555 1_555
O55 C91 1_555 1_555
O56 C92 1_555 1_555
O57 C93 1_555 1_555
O58 C94 1_555 1_555
O59 C95 1_555 1_555
O60 C96 1_555 1_555
O61 C97 1_555 1_555
O62 C98 1_555 1_555
O63 C99 1_555 1_555
O64 C100 1_555 1_555
O65 C101 1_555 1_555
O66 C102 1_555 1_555
O67 C103 1_555 1_555
O68 C104 1_555 1_555
O69 C105 1_555 1_555
O70 C106 1_555 1_555
O71 C107 1_555 1_555
O72 C108 1_555 1_555
O73 C73 1_555 1_555
O74 C74 1_555 1_555
O75 C75 1_555 1_555
O76 C76 1_555 1_555
O77 C77 1_555 1_555
O78 C78 1_555 1_555
O79 C79 1_555 1_555
O80 C80 1_555 1_555
O81 C81 1_555 1_555
O82 C82 1_555 1_555
O83 C83 1_555 1_555
O84 C84 1_555 1_555
O85 C85 1_555 1_555
O86 C86 1_555 1_555
O87 C87 1_555 1_555
O88 C88 1_555 1_555
O89 C89 1_555 1_555
O90 C90 1_555 1_555
C1 H1 1_555 1_555
C2 H2 1_555 1_555
C3 H3 1_555 1_555
C4 H4 1_555 1_555
C5 H5 1_555 1_555
C6 H6 1_555 1_555
C7 H7 1_555 1_555
C8 H8 1_555 1_555
C9 H9 1_555 1_555
C10 H10 1_555 1_555
C11 H11 1_555 1_555
C12 H12 1_555 1_555
C13 H13 1_555 1_555
C14 H14 1_555 1_555
C15 H15 1_555 1_555
C16 H16 1_555 1_555
C17 H17 1_555 1_555
C18 C35 1_555 1_555
C19 C1 1_555 1_555
C20 C2 1_555 1_555
C21 C1 1_555 1_555
C22 C4 1_555 1_555
C23 C5 1_555 1_555
C24 C4 1_555 1_555
C25 C7 1_555 1_555
C26 C8 1_555 1_555
C27 C7 1_555 1_555
C28 C10 1_555 1_555
C29 C11 1_555 1_555
C30 C10 1_555 1_555
C31 C13 1_555 1_555
C32 C14 1_555 1_555
C33 C13 1_555 1_555
C34 C16 1_555 1_555
C35 C17 1_555 1_555
C36 C16 1_555 1_555
C37 C19 1_555 1_555
C38 C20 1_555 1_555
C39 C21 1_555 1_555
C40 O4 1_555 1_555
C41 O5 1_555 1_555
C42 C24 1_555 1_555
C43 O7 1_555 1_555
C44 O8 1_555 1_555
C45 C27 1_555 1_555
C46 C28 1_555 1_555
C47 O11 1_555 1_555
C48 O12 1_555 1_555
C49 O13 1_555 1_555
C50 O14 1_555 1_555
C51 O15 1_555 1_555
C52 O16 1_555 1_555
C53 O17 1_555 1_555
C54 O18 1_555 1_555
C55 C37 1_555 1_555
C56 C38 1_555 1_555
C57 C39 1_555 1_555
C58 C40 1_555 1_555
C59 C41 1_555 1_555
C60 C42 1_555 1_555
C61 C43 1_555 1_555
C62 C44 1_555 1_555
C63 C45 1_555 1_555
C64 C46 1_555 1_555
C65 C47 1_555 1_555
C66 C48 1_555 1_555
C67 C49 1_555 1_555
C68 C50 1_555 1_555
C69 C51 1_555 1_555
C70 C52 1_555 1_555
C71 C53 1_555 1_555
C72 C54 1_555 1_555
C73 O19 1_555 1_555
C74 O20 1_555 1_555
C75 O21 1_555 1_555
C76 O22 1_555 1_555
C77 O23 1_555 1_555
C78 O24 1_555 1_555
C79 O25 1_555 1_555
C80 O26 1_555 1_555
C81 O27 1_555 1_555
C82 O28 1_555 1_555
C83 O29 1_555 1_555
C84 O30 1_555 1_555
C85 O31 1_555 1_555
C86 O32 1_555 1_555
C87 O33 1_555 1_555
C88 O34 1_555 1_555
C89 O35 1_555 1_555
C90 O36 1_555 1_555
C91 C55 1_555 1_555
C92 C56 1_555 1_555
C93 C57 1_555 1_555
C94 C58 1_555 1_555
C95 C59 1_555 1_555
C96 C60 1_555 1_555
C97 C61 1_555 1_555
C98 C62 1_555 1_555
C99 C63 1_555 1_555
C100 C64 1_555 1_555
C101 C65 1_555 1_555
C102 C66 1_555 1_555
C103 C67 1_555 1_555
C104 C68 1_555 1_555
C105 C69 1_555 1_555
C106 C70 1_555 1_555
C107 C71 1_555 1_555
C108 C72 1_555 1_555
C109 O55 1_555 1_555
C110 O56 1_555 1_555
C111 O57 1_555 1_555
C112 O58 1_555 1_555
C113 O59 1_555 1_555
C114 O60 1_555 1_555
C115 O61 1_555 1_555
C116 O62 1_555 1_555
C117 O63 1_555 1_555
C118 O64 1_555 1_555
C119 O65 1_555 1_555
C120 O66 1_555 1_555
C121 O67 1_555 1_555
C122 O68 1_555 1_555
C123 O69 1_555 1_555
C124 O70 1_555 1_555
C125 O71 1_555 1_555
C126 O72 1_555 1_555
C127 C109 1_555 1_555
H18 C127 1_555 1_555
C128 C110 1_555 1_555
H19 C128 1_555 1_555
C129 C111 1_555 1_555
H20 C129 1_555 1_555
C130 C112 1_555 1_555
H21 C130 1_555 1_555
C131 H22 1_555 1_555
C132 C114 1_555 1_555
H23 C132 1_555 1_555
C133 C115 1_555 1_555
H24 C133 1_555 1_555
C134 C116 1_555 1_555
H25 C134 1_555 1_555
C135 C117 1_555 1_555
H26 C135 1_555 1_555
C136 C118 1_555 1_555
H27 C136 1_555 1_555
C137 C119 1_555 1_555
H28 C137 1_555 1_555
C138 C120 1_555 1_555
H29 C138 1_555 1_555
C139 C121 1_555 1_555
H30 C139 1_555 1_555
C140 C122 1_555 1_555
H31 C140 1_555 1_555
C141 C123 1_555 1_555
H32 C141 1_555 1_555
C142 C124 1_555 1_555
H33 C142 1_555 1_555
C143 C125 1_555 1_555
H34 C143 1_555 1_555
C144 C126 1_555 1_555
H35 C144 1_555 1_555
C145 C127 1_555 1_555
H36 C145 1_555 1_555
C146 C128 1_555 1_555
H37 C146 1_555 1_555
C147 C129 1_555 1_555
H38 C147 1_555 1_555
C148 C130 1_555 1_555
H39 C148 1_555 1_555
C149 C113 1_555 1_555
H40 C149 1_555 1_555
C150 C132 1_555 1_555
H41 C150 1_555 1_555
C151 C133 1_555 1_555
H42 C151 1_555 1_555
C152 C134 1_555 1_555
H43 C152 1_555 1_555
C153 C135 1_555 1_555
H44 C153 1_555 1_555
C154 C136 1_555 1_555
H45 C154 1_555 1_555
C155 C137 1_555 1_555
H46 C155 1_555 1_555
C156 C138 1_555 1_555
H47 C156 1_555 1_555
C157 C139 1_555 1_555
H48 C157 1_555 1_555
C158 C140 1_555 1_555
H49 C158 1_555 1_555
C159 C141 1_555 1_555
H50 C159 1_555 1_555
C160 C142 1_555 1_555
H51 C160 1_555 1_555
C161 C143 1_555 1_555
H52 C161 1_555 1_555
C162 C144 1_555 1_555
H53 C162 1_555 1_555
C163 C145 1_555 1_555
C164 C146 1_555 1_555
C165 C147 1_555 1_555
C166 C148 1_555 1_555
C167 C131 1_555 1_555
C168 C150 1_555 1_555
C169 C151 1_555 1_555
C170 C152 1_555 1_555
C171 C153 1_555 1_555
C172 C154 1_555 1_555
C173 C155 1_555 1_555
C174 C156 1_555 1_555
C175 C157 1_555 1_555
C176 C158 1_555 1_555
C177 C159 1_555 1_555
C178 C160 1_555 1_555
C179 C161 1_555 1_555
C180 C162 1_555 1_555
C181 C163 1_555 1_555
H54 C181 1_555 1_555
C182 C164 1_555 1_555
H55 C182 1_555 1_555
C183 C165 1_555 1_555
H56 C183 1_555 1_555
C184 C166 1_555 1_555
H57 C184 1_555 1_555
C185 C167 1_555 1_555
H58 C185 1_555 1_555
C186 C168 1_555 1_555
H59 C186 1_555 1_555
C187 C169 1_555 1_555
H60 C187 1_555 1_555
C188 C170 1_555 1_555
H61 C188 1_555 1_555
C189 C171 1_555 1_555
H62 C189 1_555 1_555
C190 C172 1_555 1_555
H63 C190 1_555 1_555
C191 C173 1_555 1_555
H64 C191 1_555 1_555
C192 C174 1_555 1_555
H65 C192 1_555 1_555
C193 C175 1_555 1_555
H66 C193 1_555 1_555
C194 C176 1_555 1_555
H67 C194 1_555 1_555
C195 C177 1_555 1_555
H68 C195 1_555 1_555
C196 C178 1_555 1_555
H69 C196 1_555 1_555
C197 C179 1_555 1_555
H70 C197 1_555 1_555
C198 C180 1_555 1_555
H71 C198 1_555 1_555
C199 C109 1_555 1_555
H72 C199 1_555 1_555
C200 C110 1_555 1_555
H73 C200 1_555 1_555
C201 C111 1_555 1_555
H74 C201 1_555 1_555
C202 C112 1_555 1_555
H75 C202 1_555 1_555
C203 C113 1_555 1_555
H76 C203 1_555 1_555
C204 C114 1_555 1_555
H77 C204 1_555 1_555
C205 C115 1_555 1_555
H78 C205 1_555 1_555
C206 C116 1_555 1_555
H79 C206 1_555 1_555
C207 C117 1_555 1_555
H80 C207 1_555 1_555
C208 C118 1_555 1_555
H81 C208 1_555 1_555
C209 C119 1_555 1_555
H82 C209 1_555 1_555
C210 C120 1_555 1_555
H83 C210 1_555 1_555
C211 C121 1_555 1_555
H84 C211 1_555 1_555
C212 C122 1_555 1_555
H85 C212 1_555 1_555
C213 C123 1_555 1_555
H86 C213 1_555 1_555
C214 C124 1_555 1_555
H87 C214 1_555 1_555
C215 C125 1_555 1_555
H88 C215 1_555 1_555
C216 C126 1_555 1_555
H89 C216 1_555 1_555
C217 C163 1_555 1_555
H90 C217 1_555 1_555
H91 C217 1_555 1_555
H92 C217 1_555 1_555
C218 C164 1_555 1_555
H93 C218 1_555 1_555
H94 C218 1_555 1_555
H95 C218 1_555 1_555
C219 C165 1_555 1_555
H96 C219 1_555 1_555
H97 C219 1_555 1_555
H98 C219 1_555 1_555
C220 C166 1_555 1_555
H99 C220 1_555 1_555
H100 C220 1_555 1_555
H101 C220 1_555 1_555
C221 C167 1_555 1_555
H102 C221 1_555 1_555
H103 C221 1_555 1_555
H104 C221 1_555 1_555
C222 C168 1_555 1_555
H105 C222 1_555 1_555
H106 C222 1_555 1_555
H107 C222 1_555 1_555
C223 C169 1_555 1_555
H108 C223 1_555 1_555
H109 C223 1_555 1_555
H110 C223 1_555 1_555
C224 C170 1_555 1_555
H111 C224 1_555 1_555
H112 C224 1_555 1_555
H113 C224 1_555 1_555
C225 C171 1_555 1_555
H114 C225 1_555 1_555
H115 C225 1_555 1_555
H116 C225 1_555 1_555
C226 C172 1_555 1_555
H117 C226 1_555 1_555
H118 C226 1_555 1_555
H119 C226 1_555 1_555
C227 C173 1_555 1_555
H120 C227 1_555 1_555
H121 C227 1_555 1_555
H122 C227 1_555 1_555
C228 C174 1_555 1_555
H123 C228 1_555 1_555
H124 C228 1_555 1_555
H125 C228 1_555 1_555
C229 C175 1_555 1_555
H126 C229 1_555 1_555
H127 C229 1_555 1_555
H128 C229 1_555 1_555
C230 C176 1_555 1_555
H129 C230 1_555 1_555
H130 C230 1_555 1_555
H131 C230 1_555 1_555
C231 C177 1_555 1_555
H132 C231 1_555 1_555
H133 C231 1_555 1_555
H134 C231 1_555 1_555
C232 C178 1_555 1_555
H135 C232 1_555 1_555
H136 C232 1_555 1_555
H137 C232 1_555 1_555
C233 C179 1_555 1_555
H138 C233 1_555 1_555
H139 C233 1_555 1_555
H140 C233 1_555 1_555
C234 C180 1_555 1_555
H141 C234 1_555 1_555
H142 C234 1_555 1_555
H143 C234 1_555 1_555
C235 O73 1_555 1_555
C236 O74 1_555 1_555
C237 O75 1_555 1_555
C238 O76 1_555 1_555
C239 O77 1_555 1_555
C240 O78 1_555 1_555
C241 O79 1_555 1_555
C242 O80 1_555 1_555
C243 O81 1_555 1_555
C244 O82 1_555 1_555
C245 O83 1_555 1_555
C246 O84 1_555 1_555
C247 O85 1_555 1_555
C248 O86 1_555 1_555
C249 O87 1_555 1_555
C250 O88 1_555 1_555
C251 O89 1_555 1_555
C252 O90 1_555 1_555
C253 C235 1_555 1_555
H144 C253 1_555 1_555
C254 C236 1_555 1_555
H145 C254 1_555 1_555
C255 C237 1_555 1_555
H146 C255 1_555 1_555
C256 C238 1_555 1_555
H147 C256 1_555 1_555
C257 C239 1_555 1_555
H148 C257 1_555 1_555
C258 C240 1_555 1_555
H149 C258 1_555 1_555
C259 C241 1_555 1_555
H150 C259 1_555 1_555
C260 C242 1_555 1_555
H151 C260 1_555 1_555
C261 C243 1_555 1_555
H152 C261 1_555 1_555
C262 C244 1_555 1_555
H153 C262 1_555 1_555
C263 C245 1_555 1_555
H154 C263 1_555 1_555
C264 C246 1_555 1_555
H155 C264 1_555 1_555
C265 C247 1_555 1_555
H156 C265 1_555 1_555
C266 C248 1_555 1_555
H157 C266 1_555 1_555
C267 C249 1_555 1_555
H158 C267 1_555 1_555
C268 C250 1_555 1_555
H159 C268 1_555 1_555
C269 C251 1_555 1_555
H160 C269 1_555 1_555
C270 C252 1_555 1_555
H161 C270 1_555 1_555
C271 C253 1_555 1_555
H162 C271 1_555 1_555
C272 C254 1_555 1_555
H163 C272 1_555 1_555
C273 C255 1_555 1_555
H164 C273 1_555 1_555
C274 C256 1_555 1_555
H165 C274 1_555 1_555
C275 C257 1_555 1_555
H166 C275 1_555 1_555
C276 C258 1_555 1_555
H167 C276 1_555 1_555
C277 C259 1_555 1_555
H168 C277 1_555 1_555
C278 C260 1_555 1_555
H169 C278 1_555 1_555
C279 C261 1_555 1_555
H170 C279 1_555 1_555
C280 C262 1_555 1_555
H171 C280 1_555 1_555
C281 C263 1_555 1_555
H172 C281 1_555 1_555
C282 C264 1_555 1_555
H173 C282 1_555 1_555
C283 C265 1_555 1_555
H174 C283 1_555 1_555
C284 C266 1_555 1_555
H175 C284 1_555 1_555
C285 C267 1_555 1_555
H176 C285 1_555 1_555
C286 C268 1_555 1_555
H177 C286 1_555 1_555
C287 C269 1_555 1_555
H178 C287 1_555 1_555
C288 C270 1_555 1_555
H179 C288 1_555 1_555
C289 C271 1_555 1_555
C290 C272 1_555 1_555
C291 C273 1_555 1_555
C292 C274 1_555 1_555
C293 C275 1_555 1_555
C294 C276 1_555 1_555
C295 C277 1_555 1_555
C296 C278 1_555 1_555
C297 C279 1_555 1_555
C298 C280 1_555 1_555
C299 C281 1_555 1_555
C300 C282 1_555 1_555
C301 C283 1_555 1_555
C302 C284 1_555 1_555
C303 C285 1_555 1_555
C304 C286 1_555 1_555
C305 C287 1_555 1_555
C306 C288 1_555 1_555
C307 C289 1_555 1_555
H180 C307 1_555 1_555
C308 C290 1_555 1_555
H181 C308 1_555 1_555
C309 C291 1_555 1_555
H182 C309 1_555 1_555
C310 C292 1_555 1_555
H183 C310 1_555 1_555
C311 C293 1_555 1_555
H184 C311 1_555 1_555
C312 C294 1_555 1_555
H185 C312 1_555 1_555
C313 C295 1_555 1_555
H186 C313 1_555 1_555
C314 C296 1_555 1_555
H187 C314 1_555 1_555
C315 C297 1_555 1_555
H188 C315 1_555 1_555
C316 C298 1_555 1_555
H189 C316 1_555 1_555
C317 C299 1_555 1_555
H190 C317 1_555 1_555
C318 C300 1_555 1_555
H191 C318 1_555 1_555
C319 C301 1_555 1_555
H192 C319 1_555 1_555
C320 C302 1_555 1_555
H193 C320 1_555 1_555
C321 C303 1_555 1_555
H194 C321 1_555 1_555
C322 C304 1_555 1_555
H195 C322 1_555 1_555
C323 C305 1_555 1_555
H196 C323 1_555 1_555
C324 C306 1_555 1_555
H197 C324 1_555 1_555
C325 C235 1_555 1_555
H198 C325 1_555 1_555
C326 C236 1_555 1_555
H199 C326 1_555 1_555
C327 C237 1_555 1_555
H200 C327 1_555 1_555
C328 C238 1_555 1_555
H201 C328 1_555 1_555
C329 C239 1_555 1_555
H202 C329 1_555 1_555
C330 C240 1_555 1_555
H203 C330 1_555 1_555
C331 C241 1_555 1_555
H204 C331 1_555 1_555
C332 C242 1_555 1_555
H205 C332 1_555 1_555
C333 C243 1_555 1_555
H206 C333 1_555 1_555
C334 C244 1_555 1_555
H207 C334 1_555 1_555
C335 C245 1_555 1_555
H208 C335 1_555 1_555
C336 C246 1_555 1_555
H209 C336 1_555 1_555
C337 C247 1_555 1_555
H210 C337 1_555 1_555
C338 C248 1_555 1_555
H211 C338 1_555 1_555
C339 C249 1_555 1_555
H212 C339 1_555 1_555
C340 C250 1_555 1_555
H213 C340 1_555 1_555
C341 C251 1_555 1_555
H214 C341 1_555 1_555
C342 C252 1_555 1_555
H215 C342 1_555 1_555
C343 C289 1_555 1_555
H216 C343 1_555 1_555
H217 C343 1_555 1_555
H218 C343 1_555 1_555
C344 C290 1_555 1_555
H219 C344 1_555 1_555
H220 C344 1_555 1_555
H221 C344 1_555 1_555
C345 C291 1_555 1_555
H222 C345 1_555 1_555
H223 C345 1_555 1_555
H224 C345 1_555 1_555
C346 C292 1_555 1_555
H225 C346 1_555 1_555
H226 C346 1_555 1_555
H227 C346 1_555 1_555
C347 C293 1_555 1_555
H228 C347 1_555 1_555
H229 C347 1_555 1_555
H230 C347 1_555 1_555
C348 C294 1_555 1_555
H231 C348 1_555 1_555
H232 C348 1_555 1_555
H233 C348 1_555 1_555
C349 C295 1_555 1_555
H234 C349 1_555 1_555
H235 C349 1_555 1_555
H236 C349 1_555 1_555
C350 C296 1_555 1_555
H237 C350 1_555 1_555
H238 C350 1_555 1_555
H239 C350 1_555 1_555
C351 C297 1_555 1_555
H240 C351 1_555 1_555
H241 C351 1_555 1_555
H242 C351 1_555 1_555
C352 C298 1_555 1_555
H243 C352 1_555 1_555
H244 C352 1_555 1_555
H245 C352 1_555 1_555
C353 C299 1_555 1_555
H246 C353 1_555 1_555
H247 C353 1_555 1_555
H248 C353 1_555 1_555
C354 C300 1_555 1_555
H249 C354 1_555 1_555
H250 C354 1_555 1_555
H251 C354 1_555 1_555
C355 C301 1_555 1_555
H252 C355 1_555 1_555
H253 C355 1_555 1_555
H254 C355 1_555 1_555
C356 C302 1_555 1_555
H255 C356 1_555 1_555
H256 C356 1_555 1_555
H257 C356 1_555 1_555
C357 C303 1_555 1_555
H258 C357 1_555 1_555
H259 C357 1_555 1_555
H260 C357 1_555 1_555
C358 C304 1_555 1_555
H261 C358 1_555 1_555
H262 C358 1_555 1_555
H263 C358 1_555 1_555
C359 C305 1_555 1_555
H264 C359 1_555 1_555
H265 C359 1_555 1_555
H266 C359 1_555 1_555
C360 C306 1_555 1_555
H267 C360 1_555 1_555
H268 C360 1_555 1_555
H269 C360 1_555 1_555
N1 C361 1_555 1_555
C361 C362 1_555 1_555
C362 H270 1_555 1_555
H271 C362 1_555 1_555
H272 C362 1_555 1_555
N2 C363 1_555 1_555
C363 C364 1_555 1_555
C364 H273 1_555 1_555
H274 C364 1_555 1_555
H275 C364 1_555 1_555
N3 C365 1_555 1_555
C365 C366 1_555 1_555
C366 H276 1_555 1_555
H277 C366 1_555 1_555
H278 C366 1_555 1_555
N4 C367 1_555 1_555
C367 C368 1_555 1_555
C368 H279 1_555 1_555
H280 C368 1_555 1_555
H281 C368 1_555 1_555
N5 C369 1_555 1_555
C369 C370 1_555 1_555
C370 H282 1_555 1_555
H283 C370 1_555 1_555
H284 C370 1_555 1_555
N6 C371 1_555 1_555
C371 C372 1_555 1_555
C372 H285 1_555 1_555
H286 C372 1_555 1_555
H287 C372 1_555 1_555
C373 N7 1_555 1_555
C374 C373 1_555 1_555
H288 C374 1_555 1_555
H289 C374 1_555 1_555
H290 C374 1_555 1_555
N8 C375 1_555 1_555
C375 C376 1_555 1_555
C376 H291 1_555 1_555
H292 C376 1_555 1_555
H293 C376 1_555 1_555
N9 C377 1_555 1_555
C377 C378 1_555 1_555
C378 H294 1_555 1_555
H295 C378 1_555 1_555
H296 C378 1_555 1_555
N10 C379 1_555 1_555
C379 C380 1_555 1_555
C380 H297 1_555 1_555
H298 C380 1_555 1_555
H299 C380 1_555 1_555
N11 C381 1_555 1_555
C381 C382 1_555 1_555
C382 H300 1_555 1_555
H301 C382 1_555 1_555
H302 C382 1_555 1_555
N12 C383 1_555 1_555
C383 C384 1_555 1_555
C384 H303 1_555 1_555
H304 C384 1_555 1_555
H305 C384 1_555 1_555
N13 C385 1_555 1_555
C385 C386 1_555 1_555
C386 H306 1_555 1_555
H307 C386 1_555 1_555
H308 C386 1_555 1_555
N14 C387 1_555 1_555
C387 C388 1_555 1_555
C388 H309 1_555 1_555
H310 C388 1_555 1_555
H311 C388 1_555 1_555
N15 C389 1_555 1_555
C389 C390 1_555 1_555
C390 H312 1_555 1_555
H313 C390 1_555 1_555
H314 C390 1_555 1_555
C391 N16 1_555 1_555
C392 C391 1_555 1_555
H315 C392 1_555 1_555
H316 C392 1_555 1_555
H317 C392 1_555 1_555
N17 C393 1_555 1_555
C393 C394 1_555 1_555
C394 H318 1_555 1_555
H319 C394 1_555 1_555
H320 C394 1_555 1_555
N18 C395 1_555 1_555
C395 C396 1_555 1_555
C396 H321 1_555 1_555
H322 C396 1_555 1_555
H323 C396 1_555 1_555
N19 C397 1_555 1_555
C397 C398 1_555 1_555
C398 H324 1_555 1_555
H325 C398 1_555 1_555
H326 C398 1_555 1_555
N20 C399 1_555 1_555
C399 C400 1_555 1_555
C400 H327 1_555 1_555
H328 C400 1_555 1_555
H329 C400 1_555 1_555
N21 C401 1_555 1_555
C401 C402 1_555 1_555
C402 H330 1_555 1_555
H331 C402 1_555 1_555
H332 C402 1_555 1_555
C2 C19 1_555 1_555
C3 C21 1_555 1_555
C3 C20 1_555 1_555
C5 C22 1_555 1_555
C6 C24 1_555 1_555
C6 C23 1_555 1_555
C8 C25 1_555 1_555
C9 C27 1_555 1_555
C9 C26 1_555 1_555
C11 C28 1_555 1_555
C12 C30 1_555 1_555
C12 C29 1_555 1_555
C14 C31 1_555 1_555
C15 C32 1_555 1_555
C15 C33 1_555 1_555
C17 C34 1_555 1_555
C18 C36 1_555 1_555
C22 C40 1_555 1_555
C23 C41 1_555 1_555
C25 C43 1_555 1_555
C26 C44 1_555 1_555
C29 C47 1_555 1_555
C30 C48 1_555 1_555
C31 C49 1_555 1_555
C32 C50 1_555 1_555
C33 C51 1_555 1_555
C34 C52 1_555 1_555
C35 C53 1_555 1_555
C36 C54 1_555 1_555
C55 C73 1_555 1_555
C56 C74 1_555 1_555
C57 C75 1_555 1_555
C58 C76 1_555 1_555
C59 C77 1_555 1_555
C60 C78 1_555 1_555
C61 C79 1_555 1_555
C62 C80 1_555 1_555
C63 C81 1_555 1_555
C64 C82 1_555 1_555
C65 C83 1_555 1_555
C66 C84 1_555 1_555
C67 C85 1_555 1_555
C68 C86 1_555 1_555
C69 C87 1_555 1_555
C70 C88 1_555 1_555
C71 C89 1_555 1_555
C72 C90 1_555 1_555
C131 C149 1_555 1_555
C181 C199 1_555 1_555
C182 C200 1_555 1_555
C183 C201 1_555 1_555
C184 C202 1_555 1_555
C185 C203 1_555 1_555
C186 C204 1_555 1_555
C187 C205 1_555 1_555
C188 C206 1_555 1_555
C189 C207 1_555 1_555
C190 C208 1_555 1_555
C191 C209 1_555 1_555
C192 C210 1_555 1_555
C193 C211 1_555 1_555
C194 C212 1_555 1_555
C195 C213 1_555 1_555
C196 C214 1_555 1_555
C197 C215 1_555 1_555
C198 C216 1_555 1_555
C307 C325 1_555 1_555
C308 C326 1_555 1_555
C309 C327 1_555 1_555
C310 C328 1_555 1_555
C311 C329 1_555 1_555
C312 C330 1_555 1_555
C313 C331 1_555 1_555
C314 C332 1_555 1_555
C315 C333 1_555 1_555
C316 C334 1_555 1_555
C317 C335 1_555 1_555
C318 C336 1_555 1_555
C319 C337 1_555 1_555
C320 C338 1_555 1_555
C321 C339 1_555 1_555
C322 C340 1_555 1_555
C323 C341 1_555 1_555
C324 C342 1_555 1_555

#END
