# generated using pymatgen
data_Fe6H332C402(N7O30)3
_symmetry_space_group_name_H-M   'P 1'
_cell_length_a   24.64500000
_cell_length_b   25.28200000
_cell_length_c   36.90000000
_cell_angle_alpha   76.00700000
_cell_angle_beta   76.08000000
_cell_angle_gamma   79.63600000
_symmetry_Int_Tables_number   1
_chemical_formula_structural   Fe6H332C402(N7O30)3
_chemical_formula_sum   'Fe12 H664 C804 N42 O180'
_cell_volume   21472.40163945
_cell_formula_units_Z   2
loop_
 _symmetry_equiv_pos_site_id
 _symmetry_equiv_pos_as_xyz
  1  'x, y, z'
loop_
 _atom_site_type_symbol
 _atom_site_label
 _atom_site_symmetry_multiplicity
 _atom_site_fract_x
 _atom_site_fract_y
 _atom_site_fract_z
 _atom_site_occupancy
  Fe  Fe1  1  0.094190  0.707520  0.077710  1
  Fe  Fe2  1  0.905810  0.292480  0.922290  1
  Fe  Fe3  1  0.998980  0.563340  0.315990  1
  Fe  Fe4  1  0.001020  0.436660  0.684010  1
  Fe  Fe5  1  0.869990  0.906950  0.262750  1
  Fe  Fe6  1  0.130010  0.093050  0.737250  1
  Fe  Fe7  1  0.151220  0.850210  0.371540  1
  Fe  Fe8  1  0.848780  0.149790  0.628460  1
  Fe  Fe9  1  0.249190  0.995330  0.134390  1
  Fe  Fe10  1  0.750810  0.004670  0.865610  1
  Fe  Fe11  1  0.385760  0.650960  0.186510  1
  Fe  Fe12  1  0.614240  0.349040  0.813490  1
  H  H13  1  0.935600  0.498300  0.141800  1
  H  H14  1  0.064400  0.501700  0.858200  1
  H  H15  1  0.976200  0.459000  0.167900  1
  H  H16  1  0.023800  0.541000  0.832100  1
  H  H17  1  0.915600  0.443000  0.169500  1
  H  H18  1  0.084400  0.557000  0.830500  1
  H  H19  1  0.755600  0.749200  0.159600  1
  H  H20  1  0.244400  0.250800  0.840400  1
  H  H21  1  0.694400  0.783000  0.169800  1
  H  H22  1  0.305600  0.217000  0.830200  1
  H  H23  1  0.746600  0.814600  0.145600  1
  H  H24  1  0.253400  0.185400  0.854400  1
  H  H25  1  0.456000  0.973100  0.290700  1
  H  H26  1  0.544000  0.026900  0.709300  1
  H  H27  1  0.504400  0.928800  0.306600  1
  H  H28  1  0.495600  0.071200  0.693400  1
  H  H29  1  0.511900  0.992700  0.295100  1
  H  H30  1  0.488100  0.007300  0.704900  1
  H  H31  1  0.336700  0.745700  0.374500  1
  H  H32  1  0.663300  0.254300  0.625500  1
  H  H33  1  0.271000  0.756100  0.393100  1
  H  H34  1  0.729000  0.243900  0.606900  1
  H  H35  1  0.312900  0.713900  0.416900  1
  H  H36  1  0.687100  0.286100  0.583100  1
  H  H37  1  0.755700  0.966200  0.430800  1
  H  H38  1  0.244300  0.033800  0.569200  1
  H  H39  1  0.688200  0.973700  0.439400  1
  H  H40  1  0.311800  0.026300  0.560600  1
  H  H41  1  0.720800  0.959800  0.473900  1
  H  H42  1  0.279200  0.040200  0.526100  1
  H  H43  1  0.064200  0.138100  0.129100  1
  H  H44  1  0.935800  0.861900  0.870900  1
  H  H45  1  0.116900  0.117400  0.149400  1
  H  H46  1  0.883100  0.882600  0.850600  1
  H  H47  1  0.124400  0.117900  0.105100  1
  H  H48  1  0.875600  0.882100  0.894900  1
  H  H49  1  0.982100  0.955800  0.127600  1
  H  H50  1  0.017900  0.044200  0.872400  1
  H  H51  1  0.929600  0.955500  0.162900  1
  H  H52  1  0.070400  0.044500  0.837100  1
  H  H53  1  0.935600  0.915900  0.133800  1
  H  H54  1  0.064400  0.084100  0.866200  1
  H  H55  1  0.594000  0.817500  0.024800  1
  H  H56  1  0.406000  0.182500  0.975200  1
  H  H57  1  0.644400  0.791900  0.046800  1
  H  H58  1  0.355600  0.208100  0.953200  1
  H  H59  1  0.580600  0.785400  0.068400  1
  H  H60  1  0.419400  0.214600  0.931600  1
  H  H61  1  0.301000  0.060900  0.450300  1
  H  H62  1  0.699000  0.939100  0.549700  1
  H  H63  1  0.367100  0.053100  0.432400  1
  H  H64  1  0.632900  0.946900  0.567600  1
  H  H65  1  0.324600  0.028200  0.416400  1
  H  H66  1  0.675400  0.971800  0.583600  1
  H  H67  1  0.718500  0.329600  0.274700  1
  H  H68  1  0.281500  0.670400  0.725300  1
  H  H69  1  0.777400  0.299300  0.285000  1
  H  H70  1  0.222600  0.700700  0.715000  1
  H  H71  1  0.772900  0.322900  0.241400  1
  H  H72  1  0.227100  0.677100  0.758600  1
  H  H73  1  0.538000  0.578400  0.175600  1
  H  H74  1  0.462000  0.421600  0.824400  1
  H  H75  1  0.528100  0.517200  0.198100  1
  H  H76  1  0.471900  0.482800  0.801900  1
  H  H77  1  0.530500  0.534400  0.153100  1
  H  H78  1  0.469500  0.465600  0.846900  1
  H  H79  1  0.014200  0.959500  0.044700  1
  H  H80  1  0.985800  0.040500  0.955300  1
  H  H81  1  0.015000  0.894400  0.051700  1
  H  H82  1  0.985000  0.105600  0.948300  1
  H  H83  1  0.959900  0.931600  0.069400  1
  H  H84  1  0.040100  0.068400  0.930600  1
  H  H85  1  0.438500  0.119200  0.346700  1
  H  H86  1  0.561500  0.880800  0.653300  1
  H  H87  1  0.481500  0.144600  0.362000  1
  H  H88  1  0.518500  0.855400  0.638000  1
  H  H89  1  0.475800  0.080400  0.375300  1
  H  H90  1  0.524200  0.919600  0.624700  1
  H  H91  1  0.751000  0.118400  0.069700  1
  H  H92  1  0.249000  0.881600  0.930300  1
  H  H93  1  0.722700  0.162400  0.038200  1
  H  H94  1  0.277300  0.837600  0.961800  1
  H  H95  1  0.695400  0.158800  0.082600  1
  H  H96  1  0.304600  0.841200  0.917400  1
  H  H97  1  0.662800  0.508200  0.465200  1
  H  H98  1  0.337200  0.491800  0.534800  1
  H  H99  1  0.653900  0.527600  0.422200  1
  H  H100  1  0.346100  0.472400  0.577800  1
  H  H101  1  0.713200  0.495500  0.430600  1
  H  H102  1  0.286800  0.504500  0.569400  1
  H  H103  1  0.119900  0.890000  0.100100  1
  H  H104  1  0.880100  0.110000  0.899900  1
  H  H105  1  0.087100  0.887900  0.143400  1
  H  H106  1  0.912900  0.112100  0.856600  1
  H  H107  1  0.150400  0.902700  0.130300  1
  H  H108  1  0.849600  0.097300  0.869700  1
  H  H109  1  0.534500  0.262200  0.071400  1
  H  H110  1  0.465500  0.737800  0.928600  1
  H  H111  1  0.600300  0.247400  0.054800  1
  H  H112  1  0.399700  0.752600  0.945200  1
  H  H113  1  0.579300  0.294700  0.078900  1
  H  H114  1  0.420700  0.705300  0.921100  1
  H  H115  1  0.304400  0.313400  0.159100  1
  H  H116  1  0.695600  0.686600  0.840900  1
  H  H117  1  0.293700  0.361900  0.123500  1
  H  H118  1  0.706300  0.638100  0.876500  1
  H  H119  1  0.282800  0.374800  0.165300  1
  H  H120  1  0.717200  0.625200  0.834700  1
  H  H121  1  0.769200  0.210200  0.212300  1
  H  H122  1  0.230800  0.789800  0.787700  1
  H  H123  1  0.727200  0.246900  0.186200  1
  H  H124  1  0.272800  0.753100  0.813800  1
  H  H125  1  0.774900  0.273900  0.195500  1
  H  H126  1  0.225100  0.726100  0.804500  1
  H  H127  1  0.643300  0.099800  0.511600  1
  H  H128  1  0.356700  0.900200  0.488400  1
  H  H129  1  0.598400  0.068600  0.545100  1
  H  H130  1  0.401600  0.931400  0.454900  1
  H  H131  1  0.624100  0.118300  0.551800  1
  H  H132  1  0.375900  0.881700  0.448200  1
  H  H133  1  0.621900  0.189200  0.424900  1
  H  H134  1  0.378100  0.810800  0.575100  1
  H  H135  1  0.631000  0.201500  0.379400  1
  H  H136  1  0.369000  0.798500  0.620600  1
  H  H137  1  0.665800  0.148800  0.401200  1
  H  H138  1  0.334200  0.851200  0.598800  1
  H  H139  1  0.231200  0.609200  0.138600  1
  H  H140  1  0.768800  0.390800  0.861400  1
  H  H141  1  0.084900  0.576200  0.211800  1
  H  H142  1  0.915100  0.423800  0.788200  1
  H  H143  1  0.229100  0.554800  0.251400  1
  H  H144  1  0.770900  0.445200  0.748600  1
  H  H145  1  0.879600  0.708200  0.266300  1
  H  H146  1  0.120400  0.291800  0.733700  1
  H  H147  1  0.988800  0.659400  0.175800  1
  H  H148  1  0.011200  0.340600  0.824200  1
  H  H149  1  0.911800  0.816100  0.165200  1
  H  H150  1  0.088200  0.183900  0.834800  1
  H  H151  1  0.193000  0.850300  0.065500  1
  H  H152  1  0.807000  0.149700  0.934500  1
  H  H153  1  0.295400  0.706700  0.086300  1
  H  H154  1  0.704600  0.293300  0.913700  1
  H  H155  1  0.329400  0.844800  0.107700  1
  H  H156  1  0.670600  0.155200  0.892300  1
  H  H157  1  0.034000  0.674700  0.387700  1
  H  H158  1  0.966000  0.325300  0.612300  1
  H  H159  1  0.983200  0.841300  0.368800  1
  H  H160  1  0.016800  0.158700  0.631200  1
  H  H161  1  0.890900  0.736600  0.348900  1
  H  H162  1  0.109100  0.263400  0.651100  1
  H  H163  1  0.054200  0.020800  0.188500  1
  H  H164  1  0.945800  0.979200  0.811500  1
  H  H165  1  0.992100  0.943500  0.296200  1
  H  H166  1  0.007900  0.056500  0.703800  1
  H  H167  1  0.149100  0.987900  0.268300  1
  H  H168  1  0.850900  0.012100  0.731700  1
  H  H169  1  0.312300  0.765400  0.303300  1
  H  H170  1  0.687700  0.234600  0.696700  1
  H  H171  1  0.284600  0.926200  0.253000  1
  H  H172  1  0.715400  0.073800  0.747000  1
  H  H173  1  0.170100  0.440600  0.193700  1
  H  H174  1  0.829900  0.559400  0.806300  1
  H  H175  1  0.269900  0.421300  0.227500  1
  H  H176  1  0.730100  0.578700  0.772500  1
  H  H177  1  0.212100  0.529000  0.097100  1
  H  H178  1  0.787900  0.471000  0.902900  1
  H  H179  1  0.855400  0.668700  0.155100  1
  H  H180  1  0.144600  0.331300  0.844900  1
  H  H181  1  0.753500  0.953400  0.153400  1
  H  H182  1  0.246500  0.046600  0.846600  1
  H  H183  1  0.802600  0.636700  0.266200  1
  H  H184  1  0.197400  0.363300  0.733800  1
  H  H185  1  0.398800  0.695400  0.032700  1
  H  H186  1  0.601200  0.304600  0.967300  1
  H  H187  1  0.349500  0.852700  0.007100  1
  H  H188  1  0.650500  0.147300  0.992900  1
  H  H189  1  0.138200  0.856400  0.014200  1
  H  H190  1  0.861800  0.143600  0.985800  1
  H  H191  1  0.958900  0.636400  0.461900  1
  H  H192  1  0.041100  0.363600  0.538100  1
  H  H193  1  0.905100  0.766200  0.458400  1
  H  H194  1  0.094900  0.233800  0.541600  1
  H  H195  1  0.776500  0.748500  0.422400  1
  H  H196  1  0.223500  0.251500  0.577600  1
  H  H197  1  0.021200  0.138900  0.230200  1
  H  H198  1  0.978800  0.861100  0.769800  1
  H  H199  1  0.983100  0.127000  0.310200  1
  H  H200  1  0.016900  0.873000  0.689800  1
  H  H201  1  0.106100  0.074000  0.311500  1
  H  H202  1  0.893900  0.926000  0.688500  1
  H  H203  1  0.372000  0.989100  0.231800  1
  H  H204  1  0.628000  0.010900  0.768200  1
  H  H205  1  0.456900  0.874300  0.250200  1
  H  H206  1  0.543100  0.125700  0.749800  1
  H  H207  1  0.408200  0.813900  0.323300  1
  H  H208  1  0.591800  0.186100  0.676700  1
  H  H209  1  0.185100  0.343700  0.222000  1
  H  H210  1  0.814900  0.656300  0.778000  1
  H  H211  1  0.356300  0.353900  0.226300  1
  H  H212  1  0.643700  0.646100  0.773700  1
  H  H213  1  0.187300  0.473700  0.064900  1
  H  H214  1  0.812700  0.526300  0.935100  1
  H  H215  1  0.804200  0.679100  0.106300  1
  H  H216  1  0.195800  0.320900  0.893700  1
  H  H217  1  0.841800  0.900600  0.148200  1
  H  H218  1  0.158200  0.099400  0.851800  1
  H  H219  1  0.761700  0.557800  0.277600  1
  H  H220  1  0.238300  0.442200  0.722400  1
  H  H221  1  0.494500  0.662400  0.010000  1
  H  H222  1  0.505500  0.337600  0.990000  1
  H  H223  1  0.368200  0.908800  0.947500  1
  H  H224  1  0.631800  0.091200  0.052500  1
  H  H225  1  0.092900  0.850400  0.966200  1
  H  H226  1  0.907100  0.149600  0.033800  1
  H  H227  1  0.911200  0.569500  0.508500  1
  H  H228  1  0.088800  0.430500  0.491500  1
  H  H229  1  0.879300  0.726200  0.524600  1
  H  H230  1  0.120700  0.273800  0.475400  1
  H  H231  1  0.688800  0.775800  0.457300  1
  H  H232  1  0.311200  0.224200  0.542700  1
  H  H233  1  0.042600  0.229900  0.215400  1
  H  H234  1  0.957400  0.770100  0.784600  1
  H  H235  1  0.911900  0.199000  0.311600  1
  H  H236  1  0.088100  0.801000  0.688400  1
  H  H237  1  0.080500  0.109600  0.366900  1
  H  H238  1  0.919500  0.890400  0.633100  1
  H  H239  1  0.433800  0.052400  0.199700  1
  H  H240  1  0.566200  0.947600  0.800300  1
  H  H241  1  0.544400  0.847400  0.274000  1
  H  H242  1  0.455600  0.152600  0.726000  1
  H  H243  1  0.442300  0.847100  0.364400  1
  H  H244  1  0.557700  0.152900  0.635600  1
  H  H245  1  0.112500  0.312200  0.144700  1
  H  H246  1  0.887500  0.687800  0.855300  1
  H  H247  1  0.267500  0.252900  0.307800  1
  H  H248  1  0.732500  0.747100  0.692200  1
  H  H249  1  0.345300  0.413200  0.035400  1
  H  H250  1  0.654700  0.586800  0.964600  1
  H  H251  1  0.757400  0.528000  0.152600  1
  H  H252  1  0.242600  0.472000  0.847400  1
  H  H253  1  0.726000  0.909200  0.062300  1
  H  H254  1  0.274000  0.090800  0.937700  1
  H  H255  1  0.637100  0.616600  0.357400  1
  H  H256  1  0.362900  0.383400  0.642600  1
  H  H257  1  0.451900  0.544700  0.977200  1
  H  H258  1  0.548100  0.455300  0.022800  1
  H  H259  1  0.531600  0.846500  0.931500  1
  H  H260  1  0.468400  0.153500  0.068500  1
  H  H261  1  0.133500  0.997300  0.907400  1
  H  H262  1  0.866500  0.002700  0.092600  1
  H  H263  1  0.037400  0.522200  0.562500  1
  H  H264  1  0.962600  0.477800  0.437500  1
  H  H265  1  0.730500  0.816400  0.530400  1
  H  H266  1  0.269500  0.183600  0.469600  1
  H  H267  1  0.634900  0.637500  0.449700  1
  H  H268  1  0.365100  0.362500  0.550300  1
  H  H269  1  0.878000  0.288000  0.207900  1
  H  H270  1  0.122000  0.712000  0.792100  1
  H  H271  1  0.824100  0.113200  0.410300  1
  H  H272  1  0.175900  0.886800  0.589700  1
  H  H273  1  0.217200  0.185900  0.334500  1
  H  H274  1  0.782800  0.814100  0.665500  1
  H  H275  1  0.390400  0.129700  0.288000  1
  H  H276  1  0.609600  0.870300  0.712000  1
  H  H277  1  0.631200  0.882300  0.168800  1
  H  H278  1  0.368800  0.117700  0.831200  1
  H  H279  1  0.577200  0.732200  0.358700  1
  H  H280  1  0.422800  0.267800  0.641300  1
  H  H281  1  0.098300  0.405700  0.118200  1
  H  H282  1  0.901700  0.594300  0.881800  1
  H  H283  1  0.204000  0.329000  0.329100  1
  H  H284  1  0.796000  0.671000  0.670900  1
  H  H285  1  0.370600  0.465100  0.075700  1
  H  H286  1  0.629400  0.534900  0.924300  1
  H  H287  1  0.809300  0.516000  0.199500  1
  H  H288  1  0.190700  0.484000  0.800500  1
  H  H289  1  0.812400  0.855900  0.056600  1
  H  H290  1  0.187600  0.144100  0.943400  1
  H  H291  1  0.680800  0.698100  0.345100  1
  H  H292  1  0.319200  0.301900  0.654900  1
  H  H293  1  0.353800  0.575900  0.998600  1
  H  H294  1  0.646200  0.424100  0.001400  1
  H  H295  1  0.515700  0.788000  0.992700  1
  H  H296  1  0.484300  0.212000  0.007300  1
  H  H297  1  0.171100  0.011100  0.953200  1
  H  H298  1  0.828900  0.988900  0.046800  1
  H  H299  1  0.094300  0.583000  0.513900  1
  H  H300  1  0.905700  0.417000  0.486100  1
  H  H301  1  0.752700  0.853000  0.463200  1
  H  H302  1  0.247300  0.147000  0.536800  1
  H  H303  1  0.726400  0.611800  0.414000  1
  H  H304  1  0.273600  0.388200  0.586000  1
  H  H305  1  0.858300  0.192300  0.227000  1
  H  H306  1  0.141700  0.807700  0.773000  1
  H  H307  1  0.903500  0.043200  0.409800  1
  H  H308  1  0.096500  0.956800  0.590200  1
  H  H309  1  0.243100  0.151400  0.276300  1
  H  H310  1  0.756900  0.848600  0.723700  1
  H  H311  1  0.327700  0.065900  0.320300  1
  H  H312  1  0.672300  0.934100  0.679700  1
  H  H313  1  0.551500  0.914200  0.144400  1
  H  H314  1  0.448500  0.085800  0.855600  1
  H  H315  1  0.542000  0.695100  0.317700  1
  H  H316  1  0.458000  0.304900  0.682300  1
  H  H317  1  0.150300  0.234100  0.190100  1
  H  H318  1  0.849700  0.765900  0.809900  1
  H  H319  1  0.149500  0.250100  0.229700  1
  H  H320  1  0.850500  0.749900  0.770300  1
  H  H321  1  0.207300  0.245400  0.198800  1
  H  H322  1  0.792700  0.754600  0.801200  1
  H  H323  1  0.402900  0.273300  0.247000  1
  H  H324  1  0.597100  0.726700  0.753000  1
  H  H325  1  0.359100  0.230800  0.253000  1
  H  H326  1  0.640900  0.769200  0.747000  1
  H  H327  1  0.388000  0.231900  0.287200  1
  H  H328  1  0.612000  0.768100  0.712800  1
  H  H329  1  0.283000  0.373300  0.019600  1
  H  H330  1  0.717000  0.626700  0.980400  1
  H  H331  1  0.230100  0.416000  0.008600  1
  H  H332  1  0.769900  0.584000  0.991400  1
  H  H333  1  0.222800  0.371800  0.048100  1
  H  H334  1  0.777200  0.628200  0.951900  1
  H  H335  1  0.730600  0.576300  0.094600  1
  H  H336  1  0.269400  0.423700  0.905400  1
  H  H337  1  0.768900  0.621000  0.067400  1
  H  H338  1  0.231100  0.379000  0.932600  1
  H  H339  1  0.712500  0.640000  0.095700  1
  H  H340  1  0.287500  0.360000  0.904300  1
  H  H341  1  0.658200  0.976800  0.089000  1
  H  H342  1  0.341800  0.023200  0.911000  1
  H  H343  1  0.685600  0.015800  0.106000  1
  H  H344  1  0.314400  0.984200  0.894000  1
  H  H345  1  0.652400  0.967800  0.134200  1
  H  H346  1  0.347600  0.032200  0.865800  1
  H  H347  1  0.629700  0.532100  0.346600  1
  H  H348  1  0.370300  0.467900  0.653400  1
  H  H349  1  0.691000  0.497500  0.345600  1
  H  H350  1  0.309000  0.502500  0.654400  1
  H  H351  1  0.664600  0.513400  0.308200  1
  H  H352  1  0.335400  0.486600  0.691800  1
  H  H353  1  0.567200  0.606400  0.970900  1
  H  H354  1  0.432800  0.393600  0.029100  1
  H  H355  1  0.541500  0.590600  0.939600  1
  H  H356  1  0.458500  0.409400  0.060400  1
  H  H357  1  0.551400  0.545700  0.977100  1
  H  H358  1  0.448600  0.454300  0.022900  1
  H  H359  1  0.426200  0.941700  0.888200  1
  H  H360  1  0.573800  0.058300  0.111800  1
  H  H361  1  0.476200  0.896500  0.874300  1
  H  H362  1  0.523800  0.103500  0.125700  1
  H  H363  1  0.489200  0.943800  0.891800  1
  H  H364  1  0.510800  0.056200  0.108200  1
  H  H365  1  0.070000  0.885900  0.901000  1
  H  H366  1  0.930000  0.114100  0.099000  1
  H  H367  1  0.114800  0.923500  0.872400  1
  H  H368  1  0.885200  0.076500  0.127600  1
  H  H369  1  0.055600  0.951400  0.893100  1
  H  H370  1  0.944400  0.048600  0.106900  1
  H  H371  1  0.966000  0.473400  0.583800  1
  H  H372  1  0.034000  0.526600  0.416200  1
  H  H373  1  0.926000  0.471600  0.555900  1
  H  H374  1  0.074000  0.528400  0.444100  1
  H  H375  1  0.908200  0.514100  0.583800  1
  H  H376  1  0.091800  0.485900  0.416200  1
  H  H377  1  0.752200  0.755200  0.588400  1
  H  H378  1  0.247800  0.244800  0.411600  1
  H  H379  1  0.817700  0.746000  0.590000  1
  H  H380  1  0.182300  0.254000  0.410000  1
  H  H381  1  0.791000  0.700300  0.579000  1
  H  H382  1  0.209000  0.299700  0.421000  1
  H  H383  1  0.597900  0.757800  0.490100  1
  H  H384  1  0.402100  0.242200  0.509900  1
  H  H385  1  0.591400  0.694200  0.507000  1
  H  H386  1  0.408600  0.305800  0.493000  1
  H  H387  1  0.566300  0.726200  0.470300  1
  H  H388  1  0.433700  0.273800  0.529700  1
  H  H389  1  0.015900  0.324300  0.203800  1
  H  H390  1  0.984100  0.675700  0.796200  1
  H  H391  1  0.953000  0.347700  0.221800  1
  H  H392  1  0.047000  0.652300  0.778200  1
  H  H393  1  0.969200  0.342200  0.178000  1
  H  H394  1  0.030800  0.657800  0.822000  1
  H  H395  1  0.781200  0.200500  0.383000  1
  H  H396  1  0.218800  0.799500  0.617000  1
  H  H397  1  0.796800  0.218200  0.337400  1
  H  H398  1  0.203200  0.781800  0.662600  1
  H  H399  1  0.823500  0.245300  0.362900  1
  H  H400  1  0.176500  0.754700  0.637100  1
  H  H401  1  0.157900  0.205500  0.384600  1
  H  H402  1  0.842100  0.794500  0.615400  1
  H  H403  1  0.125000  0.156000  0.410900  1
  H  H404  1  0.875000  0.844000  0.589100  1
  H  H405  1  0.092300  0.207000  0.386000  1
  H  H406  1  0.907700  0.793000  0.614000  1
  H  H407  1  0.462100  0.163700  0.233200  1
  H  H408  1  0.537900  0.836300  0.766800  1
  H  H409  1  0.452700  0.154900  0.193700  1
  H  H410  1  0.547300  0.845100  0.806300  1
  H  H411  1  0.500700  0.116000  0.213700  1
  H  H412  1  0.499300  0.884000  0.786300  1
  H  H413  1  0.679500  0.836100  0.219400  1
  H  H414  1  0.320500  0.163900  0.780600  1
  H  H415  1  0.642600  0.796600  0.253300  1
  H  H416  1  0.357400  0.203400  0.746700  1
  H  H417  1  0.649600  0.855900  0.258400  1
  H  H418  1  0.350400  0.144100  0.741600  1
  H  H419  1  0.568700  0.792500  0.399200  1
  H  H420  1  0.431300  0.207500  0.600800  1
  H  H421  1  0.505000  0.812600  0.418100  1
  H  H422  1  0.495000  0.187400  0.581900  1
  H  H423  1  0.539800  0.853100  0.383600  1
  H  H424  1  0.460200  0.146900  0.616400  1
  H  H425  1  0.066400  0.542700  0.028100  1
  H  H426  1  0.933600  0.457300  0.971900  1
  H  H427  1  0.102700  0.361600  0.414100  1
  H  H428  1  0.897300  0.638400  0.585900  1
  H  H429  1  0.495700  0.448200  0.122000  1
  H  H430  1  0.504300  0.551800  0.878000  1
  H  H431  1  0.894500  0.402500  0.287900  1
  H  H432  1  0.105500  0.597500  0.712100  1
  H  H433  1  0.985000  0.860500  0.961700  1
  H  H434  1  0.015000  0.139500  0.038300  1
  H  H435  1  0.714700  0.818600  0.372900  1
  H  H436  1  0.285300  0.181400  0.627100  1
  H  H437  1  0.244100  0.560000  0.995700  1
  H  H438  1  0.755900  0.440000  0.004300  1
  H  H439  1  0.593500  0.661300  0.118600  1
  H  H440  1  0.406500  0.338700  0.881400  1
  H  H441  1  0.127100  0.120500  0.026500  1
  H  H442  1  0.872900  0.879500  0.973500  1
  H  H443  1  0.235400  0.666400  0.481000  1
  H  H444  1  0.764600  0.333600  0.519000  1
  H  H445  1  0.709000  0.998700  0.359100  1
  H  H446  1  0.291000  0.001300  0.640900  1
  H  H447  1  0.836100  0.461600  0.446400  1
  H  H448  1  0.163900  0.538400  0.553600  1
  H  H449  1  0.789800  0.075100  0.143200  1
  H  H450  1  0.210200  0.924900  0.856800  1
  H  H451  1  0.056800  0.965200  0.470900  1
  H  H452  1  0.943200  0.034800  0.529100  1
  H  H453  1  0.341300  0.149400  0.185800  1
  H  H454  1  0.658700  0.850600  0.814200  1
  H  H455  1  0.194300  0.040500  0.381900  1
  H  H456  1  0.805700  0.959500  0.618100  1
  H  H457  1  0.470900  0.051000  0.054200  1
  H  H458  1  0.529100  0.949000  0.945800  1
  H  H459  1  0.563500  0.610800  0.251000  1
  H  H460  1  0.436500  0.389200  0.749000  1
  H  H461  1  0.013800  0.560100  0.980500  1
  H  H462  1  0.986200  0.439900  0.019500  1
  H  H463  1  0.032800  0.306700  0.455000  1
  H  H464  1  0.967200  0.693300  0.545000  1
  H  H465  1  0.585800  0.445100  0.093900  1
  H  H466  1  0.414200  0.554900  0.906100  1
  H  H467  1  0.923700  0.312400  0.315900  1
  H  H468  1  0.076300  0.687600  0.684100  1
  H  H469  1  0.011400  0.835000  0.902500  1
  H  H470  1  0.988600  0.165000  0.097500  1
  H  H471  1  0.658600  0.874500  0.415000  1
  H  H472  1  0.341400  0.125500  0.585000  1
  H  H473  1  0.214100  0.502000  0.966900  1
  H  H474  1  0.785900  0.498000  0.033100  1
  H  H475  1  0.656400  0.630600  0.156400  1
  H  H476  1  0.343600  0.369400  0.843600  1
  H  H477  1  0.127500  0.216800  0.014200  1
  H  H478  1  0.872500  0.783200  0.985800  1
  H  H479  1  0.296000  0.684000  0.515100  1
  H  H480  1  0.704000  0.316000  0.484900  1
  H  H481  1  0.662600  0.082900  0.330900  1
  H  H482  1  0.337400  0.917100  0.669100  1
  H  H483  1  0.806300  0.384300  0.442100  1
  H  H484  1  0.193700  0.615700  0.557900  1
  H  H485  1  0.691700  0.078100  0.146400  1
  H  H486  1  0.308300  0.921900  0.853600  1
  H  H487  1  0.064400  0.923300  0.533400  1
  H  H488  1  0.935600  0.076700  0.466600  1
  H  H489  1  0.406600  0.204700  0.141700  1
  H  H490  1  0.593400  0.795300  0.858300  1
  H  H491  1  0.148300  0.076900  0.437000  1
  H  H492  1  0.851700  0.923100  0.563000  1
  H  H493  1  0.472400  0.098900  0.989400  1
  H  H494  1  0.527600  0.901100  0.010600  1
  H  H495  1  0.630000  0.536100  0.239500  1
  H  H496  1  0.370000  0.463900  0.760500  1
  H  H497  1  0.879500  0.618200  0.051000  1
  H  H498  1  0.120500  0.381800  0.949000  1
  H  H499  1  0.936500  0.359700  0.377400  1
  H  H500  1  0.063500  0.640300  0.622600  1
  H  H501  1  0.572900  0.607000  0.061600  1
  H  H502  1  0.427100  0.393000  0.938400  1
  H  H503  1  0.085500  0.337300  0.271800  1
  H  H504  1  0.914500  0.662700  0.728200  1
  H  H505  1  0.005700  0.677900  0.950400  1
  H  H506  1  0.994300  0.322100  0.049600  1
  H  H507  1  0.601100  0.978200  0.326400  1
  H  H508  1  0.398900  0.021800  0.673600  1
  H  H509  1  0.108500  0.627200  0.924400  1
  H  H510  1  0.891500  0.372800  0.075600  1
  H  H511  1  0.580100  0.738800  0.223000  1
  H  H512  1  0.419900  0.261200  0.777000  1
  H  H513  1  0.294000  0.195000  0.014500  1
  H  H514  1  0.706000  0.805000  0.985500  1
  H  H515  1  0.207600  0.829300  0.523000  1
  H  H516  1  0.792400  0.170700  0.477000  1
  H  H517  1  0.808900  0.145900  0.294700  1
  H  H518  1  0.191100  0.854100  0.705300  1
  H  H519  1  0.800100  0.447000  0.332600  1
  H  H520  1  0.199900  0.553000  0.667400  1
  H  H521  1  0.662500  0.043600  0.261300  1
  H  H522  1  0.337500  0.956400  0.738700  1
  H  H523  1  0.975200  0.806300  0.530800  1
  H  H524  1  0.024800  0.193700  0.469200  1
  H  H525  1  0.307700  0.248100  0.068300  1
  H  H526  1  0.692300  0.751900  0.931700  1
  H  H527  1  0.208300  0.941100  0.502800  1
  H  H528  1  0.791700  0.058900  0.497200  1
  H  H529  1  0.378700  0.996200  0.976600  1
  H  H530  1  0.621300  0.003800  0.023400  1
  H  H531  1  0.521800  0.432200  0.287100  1
  H  H532  1  0.478200  0.567800  0.712900  1
  H  H533  1  0.930300  0.601800  0.098900  1
  H  H534  1  0.069700  0.398200  0.901100  1
  H  H535  1  0.003200  0.414600  0.337700  1
  H  H536  1  0.996800  0.585400  0.662300  1
  H  H537  1  0.478600  0.608300  0.089500  1
  H  H538  1  0.521400  0.391700  0.910500  1
  H  H539  1  0.054900  0.427300  0.243300  1
  H  H540  1  0.945100  0.572700  0.756700  1
  H  H541  1  0.982100  0.696700  0.009900  1
  H  H542  1  0.017900  0.303300  0.990100  1
  H  H543  1  0.663900  0.925900  0.285400  1
  H  H544  1  0.336100  0.074100  0.714600  1
  H  H545  1  0.140300  0.686900  0.953300  1
  H  H546  1  0.859700  0.313100  0.046700  1
  H  H547  1  0.517400  0.773200  0.180900  1
  H  H548  1  0.482600  0.226800  0.819100  1
  H  H549  1  0.295400  0.099100  0.022400  1
  H  H550  1  0.704600  0.900900  0.977600  1
  H  H551  1  0.142000  0.812400  0.493300  1
  H  H552  1  0.858000  0.187600  0.506700  1
  H  H553  1  0.858100  0.062000  0.317900  1
  H  H554  1  0.141900  0.938000  0.682100  1
  H  H555  1  0.826800  0.528700  0.337200  1
  H  H556  1  0.173200  0.471300  0.662800  1
  H  H557  1  0.756800  0.048900  0.258600  1
  H  H558  1  0.243200  0.951100  0.741400  1
  H  H559  1  0.969300  0.849700  0.466300  1
  H  H560  1  0.030700  0.150300  0.533700  1
  H  H561  1  0.241800  0.189000  0.109100  1
  H  H562  1  0.758200  0.811000  0.890900  1
  H  H563  1  0.254000  0.905800  0.449000  1
  H  H564  1  0.746000  0.094200  0.551000  1
  H  H565  1  0.372000  0.949000  0.040400  1
  H  H566  1  0.628000  0.051000  0.959600  1
  H  H567  1  0.458900  0.507500  0.306900  1
  H  H568  1  0.541100  0.492500  0.693100  1
  H  H569  1  0.929900  0.586300  0.958000  1
  H  H570  1  0.070100  0.413700  0.042000  1
  H  H571  1  0.893600  0.638700  0.973200  1
  H  H572  1  0.106400  0.361300  0.026800  1
  H  H573  1  0.873600  0.579200  0.990200  1
  H  H574  1  0.126400  0.420800  0.009800  1
  H  H575  1  0.897800  0.306700  0.435500  1
  H  H576  1  0.102200  0.693300  0.564500  1
  H  H577  1  0.919700  0.310600  0.472100  1
  H  H578  1  0.080300  0.689400  0.527900  1
  H  H579  1  0.943700  0.259500  0.451800  1
  H  H580  1  0.056300  0.740500  0.548200  1
  H  H581  1  0.667800  0.478600  0.061400  1
  H  H582  1  0.332200  0.521400  0.938600  1
  H  H583  1  0.670400  0.527500  0.081400  1
  H  H584  1  0.329600  0.472500  0.918600  1
  H  H585  1  0.667600  0.540300  0.037200  1
  H  H586  1  0.332400  0.459700  0.962800  1
  H  H587  1  0.071600  0.247400  0.307100  1
  H  H588  1  0.928400  0.752600  0.692900  1
  H  H589  1  0.015600  0.229500  0.301600  1
  H  H590  1  0.984400  0.770500  0.698400  1
  H  H591  1  0.016200  0.247000  0.340300  1
  H  H592  1  0.983800  0.753000  0.659700  1
  H  H593  1  0.025900  0.699700  0.885400  1
  H  H594  1  0.974100  0.300300  0.114600  1
  H  H595  1  0.056600  0.753600  0.867200  1
  H  H596  1  0.943400  0.246400  0.132800  1
  H  H597  1  0.990700  0.756400  0.868800  1
  H  H598  1  0.009300  0.243600  0.131200  1
  H  H599  1  0.564100  0.994000  0.389400  1
  H  H600  1  0.435900  0.006000  0.610600  1
  H  H601  1  0.610000  0.977500  0.415800  1
  H  H602  1  0.390000  0.022500  0.584200  1
  H  H603  1  0.561600  0.939500  0.422300  1
  H  H604  1  0.438400  0.060500  0.577700  1
  H  H605  1  0.112600  0.545100  0.907500  1
  H  H606  1  0.887400  0.454900  0.092500  1
  H  H607  1  0.118800  0.493700  0.942000  1
  H  H608  1  0.881200  0.506300  0.058000  1
  H  H609  1  0.170400  0.504300  0.906500  1
  H  H610  1  0.829600  0.495700  0.093500  1
  H  H611  1  0.662000  0.682500  0.239800  1
  H  H612  1  0.338000  0.317500  0.760200  1
  H  H613  1  0.706700  0.658200  0.206700  1
  H  H614  1  0.293300  0.341800  0.793300  1
  H  H615  1  0.660200  0.621900  0.234400  1
  H  H616  1  0.339800  0.378100  0.765600  1
  H  H617  1  0.169300  0.296200  0.009400  1
  H  H618  1  0.830700  0.703800  0.990600  1
  H  H619  1  0.233300  0.292400  0.986300  1
  H  H620  1  0.766700  0.707600  0.013700  1
  H  H621  1  0.219800  0.285300  0.031700  1
  H  H622  1  0.780200  0.714700  0.968300  1
  H  H623  1  0.331400  0.737400  0.543100  1
  H  H624  1  0.668600  0.262600  0.456900  1
  H  H625  1  0.282200  0.773500  0.567100  1
  H  H626  1  0.717800  0.226500  0.432900  1
  H  H627  1  0.318500  0.802200  0.527400  1
  H  H628  1  0.681500  0.197800  0.472600  1
  H  H629  1  0.657200  0.176200  0.300400  1
  H  H630  1  0.342800  0.823800  0.699600  1
  H  H631  1  0.712400  0.188100  0.268000  1
  H  H632  1  0.287600  0.811900  0.732000  1
  H  H633  1  0.703000  0.208100  0.307300  1
  H  H634  1  0.297000  0.791900  0.692700  1
  H  H635  1  0.773200  0.360600  0.356300  1
  H  H636  1  0.226800  0.639400  0.643700  1
  H  H637  1  0.748200  0.344200  0.401100  1
  H  H638  1  0.251800  0.655800  0.598900  1
  H  H639  1  0.812700  0.324000  0.384200  1
  H  H640  1  0.187300  0.676000  0.615800  1
  H  H641  1  0.600700  0.063100  0.178900  1
  H  H642  1  0.399300  0.936900  0.821100  1
  H  H643  1  0.582100  0.084800  0.217900  1
  H  H644  1  0.417900  0.915200  0.782100  1
  H  H645  1  0.596400  0.020300  0.219000  1
  H  H646  1  0.403600  0.979700  0.781000  1
  H  H647  1  0.049000  0.851500  0.588400  1
  H  H648  1  0.951000  0.148500  0.411600  1
  H  H649  1  0.050000  0.793700  0.577600  1
  H  H650  1  0.950000  0.206300  0.422400  1
  H  H651  1  0.991700  0.825200  0.596400  1
  H  H652  1  0.008300  0.174800  0.403600  1
  H  H653  1  0.388700  0.291400  0.052100  1
  H  H654  1  0.611300  0.708600  0.947900  1
  H  H655  1  0.440700  0.249700  0.065500  1
  H  H656  1  0.559300  0.750300  0.934500  1
  H  H657  1  0.411200  0.297700  0.087900  1
  H  H658  1  0.588800  0.702300  0.912100  1
  H  H659  1  0.119300  0.067200  0.504800  1
  H  H660  1  0.880700  0.932800  0.495200  1
  H  H661  1  0.171500  0.039100  0.524500  1
  H  H662  1  0.828500  0.960900  0.475500  1
  H  H663  1  0.120200  0.005400  0.529100  1
  H  H664  1  0.879800  0.994600  0.470900  1
  H  H665  1  0.408600  0.064600  0.924600  1
  H  H666  1  0.591400  0.935400  0.075400  1
  H  H667  1  0.470300  0.078300  0.922700  1
  H  H668  1  0.529700  0.921700  0.077300  1
  H  H669  1  0.415900  0.120100  0.935500  1
  H  H670  1  0.584100  0.879900  0.064500  1
  H  H671  1  0.618700  0.393200  0.262500  1
  H  H672  1  0.381300  0.606800  0.737500  1
  H  H673  1  0.666667  0.432500  0.243700  1
  H  H674  1  0.333333  0.567500  0.756300  1
  H  H675  1  0.621000  0.429400  0.220200  1
  H  H676  1  0.379000  0.570600  0.779800  1
  C  C677  1  0.972300  0.430700  0.123200  1
  C  C678  1  0.027700  0.569300  0.876800  1
  C  C679  1  0.948000  0.460100  0.152900  1
  C  C680  1  0.052000  0.539900  0.847100  1
  C  C681  1  0.716800  0.774700  0.115400  1
  C  C682  1  0.283200  0.225300  0.884600  1
  C  C683  1  0.729400  0.780900  0.150500  1
  C  C684  1  0.270600  0.219100  0.849500  1
  C  C685  1  0.458300  0.972000  0.344400  1
  C  C686  1  0.541700  0.028000  0.655600  1
  C  C687  1  0.484700  0.966200  0.306200  1
  C  C688  1  0.515300  0.033800  0.693800  1
  C  C689  1  0.318900  0.790800  0.412600  1
  C  C690  1  0.681100  0.209200  0.587400  1
  C  C691  1  0.309200  0.748600  0.398200  1
  C  C692  1  0.690800  0.251400  0.601800  1
  C  C693  1  0.720100  0.036400  0.445300  1
  C  C694  1  0.279900  0.963600  0.554700  1
  C  C695  1  0.721300  0.979700  0.447500  1
  C  C696  1  0.278700  0.020300  0.552500  1
  C  C697  1  0.119000  0.191800  0.116200  1
  C  C698  1  0.881000  0.808200  0.883800  1
  C  C699  1  0.105000  0.137000  0.125700  1
  C  C700  1  0.895000  0.863000  0.874300  1
  C  C701  1  0.987000  0.891700  0.169200  1
  C  C702  1  0.013000  0.108300  0.830800  1
  C  C703  1  0.956300  0.932800  0.146700  1
  C  C704  1  0.043700  0.067200  0.853300  1
  C  C705  1  0.611700  0.737000  0.031800  1
  C  C706  1  0.388300  0.263000  0.968200  1
  C  C707  1  0.607300  0.786800  0.043900  1
  C  C708  1  0.392700  0.213200  0.956100  1
  C  C709  1  0.322800  0.107900  0.400100  1
  C  C710  1  0.677200  0.892100  0.599900  1
  C  C711  1  0.329400  0.058900  0.426800  1
  C  C712  1  0.670600  0.941100  0.573200  1
  C  C713  1  0.773700  0.379900  0.269300  1
  C  C714  1  0.226300  0.620100  0.730700  1
  C  C715  1  0.759500  0.329000  0.267400  1
  C  C716  1  0.240500  0.671000  0.732600  1
  C  C717  1  0.603200  0.523800  0.167200  1
  C  C718  1  0.396800  0.476200  0.832800  1
  C  C719  1  0.545800  0.540000  0.174000  1
  C  C720  1  0.454200  0.460000  0.826000  1
  C  C721  1  0.971000  0.936900  0.014700  1
  C  C722  1  0.029000  0.063100  0.985300  1
  C  C723  1  0.991600  0.930100  0.047500  1
  C  C724  1  0.008400  0.069900  0.952500  1
  C  C725  1  0.519700  0.101500  0.321600  1
  C  C726  1  0.480300  0.898500  0.678400  1
  C  C727  1  0.475200  0.112300  0.354000  1
  C  C728  1  0.524800  0.887700  0.646000  1
  C  C729  1  0.763600  0.193300  0.064900  1
  C  C730  1  0.236400  0.806700  0.935100  1
  C  C731  1  0.730800  0.155500  0.063800  1
  C  C732  1  0.269200  0.844500  0.936200  1
  C  C733  1  0.653100  0.448100  0.442800  1
  C  C734  1  0.346900  0.551900  0.557200  1
  C  C735  1  0.672200  0.498800  0.440000  1
  C  C736  1  0.327800  0.501200  0.560000  1
  C  C737  1  0.093600  0.963000  0.112900  1
  C  C738  1  0.906400  0.037000  0.887100  1
  C  C739  1  0.114300  0.907000  0.122400  1
  C  C740  1  0.885700  0.093000  0.877600  1
  C  C741  1  0.577300  0.218500  0.111200  1
  C  C742  1  0.422700  0.781500  0.888800  1
  C  C743  1  0.572400  0.259000  0.076200  1
  C  C744  1  0.427600  0.741000  0.923800  1
  C  C745  1  0.364400  0.363000  0.140700  1
  C  C746  1  0.635600  0.637000  0.859300  1
  C  C747  1  0.306700  0.352400  0.147700  1
  C  C748  1  0.693300  0.647600  0.852300  1
  C  C749  1  0.804000  0.227000  0.157600  1
  C  C750  1  0.196000  0.773000  0.842400  1
  C  C751  1  0.765900  0.240600  0.190400  1
  C  C752  1  0.234100  0.759400  0.809600  1
  C  C753  1  0.567000  0.142000  0.519500  1
  C  C754  1  0.433000  0.858000  0.480500  1
  C  C755  1  0.611700  0.104200  0.533100  1
  C  C756  1  0.388300  0.895800  0.466900  1
  C  C757  1  0.586200  0.141000  0.405600  1
  C  C758  1  0.413800  0.859000  0.594400  1
  C  C759  1  0.629600  0.172500  0.402500  1
  C  C760  1  0.370400  0.827500  0.597500  1
  C  C761  1  0.211400  0.596000  0.163800  1
  C  C762  1  0.788600  0.404000  0.836200  1
  C  C763  1  0.124400  0.577000  0.207100  1
  C  C764  1  0.875600  0.423000  0.792900  1
  C  C765  1  0.210300  0.564400  0.230600  1
  C  C766  1  0.789700  0.435600  0.769400  1
  C  C767  1  0.898600  0.715900  0.240300  1
  C  C768  1  0.101400  0.284100  0.759700  1
  C  C769  1  0.963500  0.687200  0.186600  1
  C  C770  1  0.036500  0.312800  0.813400  1
  C  C771  1  0.918100  0.780200  0.180200  1
  C  C772  1  0.081900  0.219800  0.819800  1
  C  C773  1  0.226100  0.830300  0.073500  1
  C  C774  1  0.773900  0.169700  0.926500  1
  C  C775  1  0.286500  0.745000  0.085800  1
  C  C776  1  0.713500  0.255000  0.914200  1
  C  C777  1  0.305900  0.826800  0.098900  1
  C  C778  1  0.694100  0.173200  0.901100  1
  C  C779  1  0.008800  0.705900  0.379300  1
  C  C780  1  0.991200  0.294100  0.620700  1
  C  C781  1  0.978700  0.805100  0.367900  1
  C  C782  1  0.021300  0.194900  0.632100  1
  C  C783  1  0.923400  0.743000  0.356000  1
  C  C784  1  0.076600  0.257000  0.644000  1
  C  C785  1  0.058500  0.006100  0.214100  1
  C  C786  1  0.941500  0.993900  0.785900  1
  C  C787  1  0.021500  0.961100  0.278300  1
  C  C788  1  0.978500  0.038900  0.721700  1
  C  C789  1  0.114900  0.986800  0.261200  1
  C  C790  1  0.885100  0.013200  0.738800  1
  C  C791  1  0.316300  0.793600  0.280900  1
  C  C792  1  0.683700  0.206400  0.719100  1
  C  C793  1  0.299000  0.889300  0.250900  1
  C  C794  1  0.701000  0.110700  0.749100  1
  C  C795  1  0.351100  0.823000  0.212900  1
  C  C796  1  0.648900  0.177000  0.787100  1
  C  C797  1  0.154700  0.593200  0.169200  1
  C  C798  1  0.845300  0.406800  0.830800  1
  C  C799  1  0.151700  0.562700  0.236400  1
  C  C800  1  0.848300  0.437300  0.763600  1
  C  C801  1  0.240600  0.581300  0.191600  1
  C  C802  1  0.759400  0.418700  0.808400  1
  C  C803  1  0.935100  0.674800  0.224700  1
  C  C804  1  0.064900  0.325200  0.775300  1
  C  C805  1  0.954900  0.740400  0.164200  1
  C  C806  1  0.045100  0.259600  0.835800  1
  C  C807  1  0.889700  0.768100  0.218300  1
  C  C808  1  0.110300  0.231900  0.781700  1
  C  C809  1  0.239900  0.773800  0.071900  1
  C  C810  1  0.760100  0.226200  0.928100  1
  C  C811  1  0.319800  0.770400  0.098900  1
  C  C812  1  0.680200  0.229600  0.901100  1
  C  C813  1  0.258800  0.856400  0.086300  1
  C  C814  1  0.741200  0.143600  0.913700  1
  C  C815  1  0.019100  0.760400  0.379500  1
  C  C816  1  0.980900  0.239600  0.620500  1
  C  C817  1  0.933100  0.797000  0.355400  1
  C  C818  1  0.066900  0.203000  0.644600  1
  C  C819  1  0.964100  0.699300  0.367500  1
  C  C820  1  0.035900  0.300700  0.632500  1
  C  C821  1  0.014600  0.983800  0.241300  1
  C  C822  1  0.985400  0.016200  0.758700  1
  C  C823  1  0.069600  0.963800  0.289400  1
  C  C824  1  0.930400  0.036200  0.710600  1
  C  C825  1  0.109700  0.007000  0.224600  1
  C  C826  1  0.890300  0.993000  0.775400  1
  C  C827  1  0.292500  0.847900  0.283000  1
  C  C828  1  0.707500  0.152100  0.717000  1
  C  C829  1  0.326400  0.877700  0.215600  1
  C  C830  1  0.673600  0.122300  0.784400  1
  C  C831  1  0.345600  0.781300  0.246200  1
  C  C832  1  0.654400  0.218700  0.753800  1
  C  C833  1  0.124200  0.610100  0.136500  1
  C  C834  1  0.875800  0.389900  0.863500  1
  C  C835  1  0.117200  0.544400  0.275600  1
  C  C836  1  0.882800  0.455600  0.724400  1
  C  C837  1  0.302000  0.583900  0.185000  1
  C  C838  1  0.698000  0.416100  0.815000  1
  C  C839  1  0.946700  0.618500  0.249000  1
  C  C840  1  0.053300  0.381500  0.751000  1
  C  C841  1  0.986400  0.749600  0.124500  1
  C  C842  1  0.013600  0.250400  0.875500  1
  C  C843  1  0.853400  0.813000  0.236300  1
  C  C844  1  0.146600  0.187000  0.763700  1
  C  C845  1  0.202800  0.747200  0.058100  1
  C  C846  1  0.797200  0.252800  0.941900  1
  C  C847  1  0.367900  0.735500  0.117100  1
  C  C848  1  0.632100  0.264500  0.882900  1
  C  C849  1  0.243500  0.915200  0.090100  1
  C  C850  1  0.756500  0.084800  0.909900  1
  C  C851  1  0.069400  0.770100  0.389200  1
  C  C852  1  0.930600  0.229900  0.610800  1
  C  C853  1  0.895500  0.846300  0.337500  1
  C  C854  1  0.104500  0.153700  0.662500  1
  C  C855  1  0.955300  0.641000  0.365100  1
  C  C856  1  0.044700  0.359000  0.634900  1
  C  C857  1  0.959600  0.978900  0.232700  1
  C  C858  1  0.040400  0.021100  0.767300  1
  C  C859  1  0.080600  0.938700  0.329200  1
  C  C860  1  0.919400  0.061300  0.670800  1
  C  C861  1  0.159100  0.026900  0.195300  1
  C  C862  1  0.840900  0.973100  0.804700  1
  C  C863  1  0.258800  0.860900  0.319800  1
  C  C864  1  0.741200  0.139100  0.680200  1
  C  C865  1  0.327500  0.922000  0.180100  1
  C  C866  1  0.672500  0.078000  0.819900  1
  C  C867  1  0.368700  0.723100  0.240800  1
  C  C868  1  0.631300  0.276900  0.759200  1
  C  C869  1  0.088400  0.578100  0.131400  1
  C  C870  1  0.911600  0.421900  0.868600  1
  C  C871  1  0.130200  0.494500  0.298700  1
  C  C872  1  0.869800  0.505500  0.701300  1
  C  C873  1  0.337200  0.559700  0.155900  1
  C  C874  1  0.662800  0.440300  0.844100  1
  C  C875  1  0.946600  0.571700  0.237000  1
  C  C876  1  0.053400  0.428300  0.763000  1
  C  C877  1  0.960200  0.773500  0.093600  1
  C  C878  1  0.039800  0.226500  0.906400  1
  C  C879  1  0.801600  0.804700  0.261800  1
  C  C880  1  0.198400  0.195300  0.738200  1
  C  C881  1  0.226300  0.711700  0.032600  1
  C  C882  1  0.773700  0.288300  0.967400  1
  C  C883  1  0.421700  0.751300  0.107200  1
  C  C884  1  0.578300  0.248700  0.892800  1
  C  C885  1  0.231200  0.955500  0.057000  1
  C  C886  1  0.768800  0.044500  0.943000  1
  C  C887  1  0.084400  0.743800  0.423400  1
  C  C888  1  0.915600  0.256200  0.576600  1
  C  C889  1  0.865200  0.886100  0.358800  1
  C  C890  1  0.134800  0.113900  0.641200  1
  C  C891  1  0.903400  0.622300  0.379900  1
  C  C892  1  0.096600  0.377700  0.620100  1
  C  C893  1  0.924800  0.023000  0.216600  1
  C  C894  1  0.075200  0.977000  0.783400  1
  C  C895  1  0.038300  0.947900  0.360200  1
  C  C896  1  0.961700  0.052100  0.639800  1
  C  C897  1  0.187000  0.068000  0.200200  1
  C  C898  1  0.813000  0.932000  0.799800  1
  C  C899  1  0.270800  0.903400  0.333500  1
  C  C900  1  0.729200  0.096600  0.666500  1
  C  C901  1  0.375300  0.927900  0.151200  1
  C  C902  1  0.624700  0.072100  0.848800  1
  C  C903  1  0.402500  0.688200  0.265100  1
  C  C904  1  0.597500  0.311800  0.734900  1
  C  C905  1  0.056300  0.596100  0.101900  1
  C  C906  1  0.943700  0.403900  0.898100  1
  C  C907  1  0.089100  0.471700  0.332100  1
  C  C908  1  0.910900  0.528300  0.667900  1
  C  C909  1  0.394300  0.561300  0.146400  1
  C  C910  1  0.605700  0.438700  0.853600  1
  C  C911  1  0.963400  0.518100  0.259400  1
  C  C912  1  0.036600  0.481900  0.740600  1
  C  C913  1  0.990700  0.774300  0.053700  1
  C  C914  1  0.009300  0.225700  0.946300  1
  C  C915  1  0.773700  0.844600  0.280400  1
  C  C916  1  0.226300  0.155400  0.719600  1
  C  C917  1  0.194600  0.684600  0.018000  1
  C  C918  1  0.805400  0.315400  0.982000  1
  C  C919  1  0.462100  0.726500  0.131400  1
  C  C920  1  0.537900  0.273500  0.868600  1
  C  C921  1  0.223000  0.012300  0.058300  1
  C  C922  1  0.777000  0.987700  0.941700  1
  C  C923  1  0.132700  0.754100  0.434900  1
  C  C924  1  0.867300  0.245900  0.565100  1
  C  C925  1  0.842200  0.938300  0.338000  1
  C  C926  1  0.157800  0.061700  0.662000  1
  C  C927  1  0.897600  0.568600  0.374600  1
  C  C928  1  0.102400  0.431400  0.625400  1
  C  C929  1  0.868200  0.017900  0.216000  1
  C  C930  1  0.131800  0.982100  0.784000  1
  C  C931  1  0.048100  0.920800  0.398700  1
  C  C932  1  0.951900  0.079200  0.601300  1
  C  C933  1  0.231900  0.089200  0.171900  1
  C  C934  1  0.768100  0.910800  0.828100  1
  C  C935  1  0.239200  0.917200  0.367500  1
  C  C936  1  0.760800  0.082800  0.632500  1
  C  C937  1  0.372400  0.966000  0.115900  1
  C  C938  1  0.627600  0.034000  0.884100  1
  C  C939  1  0.429800  0.636600  0.257100  1
  C  C940  1  0.570200  0.363400  0.742900  1
  C  C941  1  0.086500  0.521000  0.153600  1
  C  C942  1  0.913500  0.479000  0.846400  1
  C  C943  1  0.184200  0.459400  0.293200  1
  C  C944  1  0.815800  0.540600  0.706800  1
  C  C945  1  0.310900  0.521400  0.140900  1
  C  C946  1  0.689100  0.478600  0.859100  1
  C  C947  1  0.921500  0.575800  0.203200  1
  C  C948  1  0.078500  0.424200  0.796800  1
  C  C949  1  0.899300  0.793000  0.099000  1
  C  C950  1  0.100700  0.207000  0.901000  1
  C  C951  1  0.777200  0.756000  0.261500  1
  C  C952  1  0.222800  0.244000  0.738500  1
  C  C953  1  0.288100  0.705800  0.015900  1
  C  C954  1  0.711900  0.294200  0.984100  1
  C  C955  1  0.439100  0.792500  0.071000  1
  C  C956  1  0.560900  0.207500  0.929000  1
  C  C957  1  0.225300  0.942100  0.021000  1
  C  C958  1  0.774700  0.057900  0.979000  1
  C  C959  1  0.042600  0.709000  0.454400  1
  C  C960  1  0.957400  0.291000  0.545600  1
  C  C961  1  0.858600  0.876300  0.399500  1
  C  C962  1  0.141400  0.123700  0.600500  1
  C  C963  1  0.857900  0.650600  0.405400  1
  C  C964  1  0.142100  0.349400  0.594600  1
  C  C965  1  0.941600  0.078900  0.204800  1
  C  C966  1  0.058400  0.921100  0.795200  1
  C  C967  1  0.988600  0.987700  0.356500  1
  C  C968  1  0.011400  0.012300  0.643500  1
  C  C969  1  0.163400  0.095700  0.232000  1
  C  C970  1  0.836600  0.904300  0.768000  1
  C  C971  1  0.319800  0.934300  0.312600  1
  C  C972  1  0.680200  0.065700  0.687400  1
  C  C973  1  0.428000  0.899600  0.159300  1
  C  C974  1  0.572000  0.100400  0.840700  1
  C  C975  1  0.414800  0.703000  0.298700  1
  C  C976  1  0.585200  0.297000  0.701300  1
  C  C977  1  0.133700  0.429900  0.152500  1
  C  C978  1  0.866300  0.570100  0.847500  1
  C  C979  1  0.226700  0.380300  0.274300  1
  C  C980  1  0.773300  0.619700  0.725700  1
  C  C981  1  0.292800  0.505600  0.083600  1
  C  C982  1  0.707200  0.494400  0.916400  1
  C  C983  1  0.835400  0.591000  0.181900  1
  C  C984  1  0.164600  0.409000  0.818100  1
  C  C985  1  0.836800  0.876400  0.100000  1
  C  C986  1  0.163200  0.123600  0.900000  1
  C  C987  1  0.743800  0.673700  0.303800  1
  C  C988  1  0.256200  0.326300  0.696200  1
  C  C989  1  0.369900  0.638300  0.014700  1
  C  C990  1  0.630100  0.361700  0.985300  1
  C  C991  1  0.430700  0.818200  0.006300  1
  C  C992  1  0.569300  0.181800  0.993700  1
  C  C993  1  0.154300  0.935200  0.990100  1
  C  C994  1  0.845700  0.064800  0.009900  1
  C  C995  1  0.030400  0.617300  0.486200  1
  C  C996  1  0.969600  0.382700  0.513800  1
  C  C997  1  0.829300  0.809600  0.457100  1
  C  C998  1  0.170700  0.190400  0.542900  1
  C  C999  1  0.758300  0.679000  0.413800  1
  C  C1000  1  0.241700  0.321000  0.586200  1
  C  C1001  1  0.938500  0.159700  0.225700  1
  C  C1002  1  0.061500  0.840300  0.774300  1
  C  C1003  1  0.948000  0.079200  0.360200  1
  C  C1004  1  0.052000  0.920800  0.639800  1
  C  C1005  1  0.175900  0.107900  0.289900  1
  C  C1006  1  0.824100  0.892100  0.710100  1
  C  C1007  1  0.343200  0.023500  0.278000  1
  C  C1008  1  0.656800  0.976500  0.722000  1
  C  C1009  1  0.495300  0.900000  0.197200  1
  C  C1010  1  0.504700  0.100000  0.802800  1
  C  C1011  1  0.474800  0.754400  0.313700  1
  C  C1012  1  0.525200  0.245600  0.686300  1
  C  C1013  1  0.159100  0.414100  0.183500  1
  C  C1014  1  0.840900  0.585900  0.816500  1
  C  C1015  1  0.271200  0.389000  0.247100  1
  C  C1016  1  0.728800  0.611000  0.752900  1
  C  C1017  1  0.240300  0.505400  0.084000  1
  C  C1018  1  0.759700  0.494600  0.916000  1
  C  C1019  1  0.835600  0.640300  0.154300  1
  C  C1020  1  0.164400  0.359700  0.845700  1
  C  C1021  1  0.766600  0.934400  0.133100  1
  C  C1022  1  0.233400  0.065600  0.866900  1
  C  C1023  1  0.768300  0.632500  0.284500  1
  C  C1024  1  0.231700  0.367500  0.715500  1
  C  C1025  1  0.408900  0.665100  0.020300  1
  C  C1026  1  0.591100  0.334900  0.979700  1
  C  C1027  1  0.386900  0.851800  0.992300  1
  C  C1028  1  0.613100  0.148200  0.007700  1
  C  C1029  1  0.135100  0.886000  0.993000  1
  C  C1030  1  0.864900  0.114000  0.007000  1
  C  C1031  1  0.975600  0.613500  0.481800  1
  C  C1032  1  0.024400  0.386500  0.518200  1
  C  C1033  1  0.868600  0.775500  0.472800  1
  C  C1034  1  0.131400  0.224500  0.527200  1
  C  C1035  1  0.747400  0.726000  0.427600  1
  C  C1036  1  0.252600  0.274000  0.572400  1
  C  C1037  1  0.992900  0.169100  0.225500  1
  C  C1038  1  0.007100  0.830900  0.774500  1
  C  C1039  1  0.951200  0.125100  0.330800  1
  C  C1040  1  0.048800  0.874900  0.669200  1
  C  C1041  1  0.129400  0.097400  0.315600  1
  C  C1042  1  0.870600  0.902600  0.684400  1
  C  C1043  1  0.375300  0.018000  0.243000  1
  C  C1044  1  0.624700  0.982000  0.757000  1
  C  C1045  1  0.492300  0.878200  0.233200  1
  C  C1046  1  0.507700  0.121800  0.766800  1
  C  C1047  1  0.443400  0.797700  0.329800  1
  C  C1048  1  0.556600  0.202300  0.670200  1
  C  C1049  1  0.168800  0.356100  0.200000  1
  C  C1050  1  0.831200  0.643900  0.800000  1
  C  C1051  1  0.323700  0.349500  0.246100  1
  C  C1052  1  0.676300  0.650500  0.753900  1
  C  C1053  1  0.225800  0.471900  0.065900  1
  C  C1054  1  0.774200  0.528100  0.934100  1
  C  C1055  1  0.805500  0.646000  0.125200  1
  C  C1056  1  0.194500  0.354000  0.874800  1
  C  C1057  1  0.818900  0.903400  0.130200  1
  C  C1058  1  0.181100  0.096600  0.869800  1
  C  C1059  1  0.744300  0.586000  0.291300  1
  C  C1060  1  0.255700  0.414000  0.708700  1
  C  C1061  1  0.465000  0.645700  0.006700  1
  C  C1062  1  0.535000  0.354300  0.993300  1
  C  C1063  1  0.398300  0.884100  0.956600  1
  C  C1064  1  0.601700  0.115900  0.043400  1
  C  C1065  1  0.111100  0.881500  0.963700  1
  C  C1066  1  0.888900  0.118500  0.036300  1
  C  C1067  1  0.948600  0.572600  0.509600  1
  C  C1068  1  0.051400  0.427400  0.490400  1
  C  C1069  1  0.852800  0.753100  0.513100  1
  C  C1070  1  0.147200  0.246900  0.486900  1
  C  C1071  1  0.695900  0.742100  0.448800  1
  C  C1072  1  0.304100  0.257900  0.551200  1
  C  C1073  1  0.005300  0.222000  0.218500  1
  C  C1074  1  0.994700  0.778000  0.781500  1
  C  C1075  1  0.909100  0.167100  0.331400  1
  C  C1076  1  0.090900  0.832900  0.668600  1
  C  C1077  1  0.113200  0.119600  0.348500  1
  C  C1078  1  0.886800  0.880400  0.651500  1
  C  C1079  1  0.412600  0.055200  0.224400  1
  C  C1080  1  0.587400  0.944800  0.775600  1
  C  C1081  1  0.545800  0.859500  0.247400  1
  C  C1082  1  0.454200  0.140500  0.752600  1
  C  C1083  1  0.463200  0.816500  0.354500  1
  C  C1084  1  0.536800  0.183500  0.645500  1
  C  C1085  1  0.153700  0.319800  0.183300  1
  C  C1086  1  0.846300  0.680200  0.816700  1
  C  C1087  1  0.320000  0.300900  0.280000  1
  C  C1088  1  0.680000  0.699100  0.720000  1
  C  C1089  1  0.263300  0.436800  0.049500  1
  C  C1090  1  0.736700  0.563200  0.950500  1
  C  C1091  1  0.778500  0.604700  0.124100  1
  C  C1092  1  0.221500  0.395300  0.875900  1
  C  C1093  1  0.731600  0.939000  0.106800  1
  C  C1094  1  0.268400  0.061000  0.893200  1
  C  C1095  1  0.694000  0.579300  0.318300  1
  C  C1096  1  0.306000  0.420700  0.681700  1
  C  C1097  1  0.477100  0.604300  0.989200  1
  C  C1098  1  0.522900  0.395700  0.010800  1
  C  C1099  1  0.450600  0.882900  0.933200  1
  C  C1100  1  0.549400  0.117100  0.066800  1
  C  C1101  1  0.113400  0.921900  0.931400  1
  C  C1102  1  0.886600  0.078100  0.068600  1
  C  C1103  1  0.970600  0.537800  0.537400  1
  C  C1104  1  0.029400  0.462200  0.462600  1
  C  C1105  1  0.803900  0.767400  0.535500  1
  C  C1106  1  0.196100  0.232600  0.464500  1
  C  C1107  1  0.652900  0.706700  0.457800  1
  C  C1108  1  0.347100  0.293300  0.542200  1
  C  C1109  1  0.959100  0.263900  0.216300  1
  C  C1110  1  0.040900  0.736100  0.783700  1
  C  C1111  1  0.862600  0.164300  0.359900  1
  C  C1112  1  0.137400  0.835700  0.640100  1
  C  C1113  1  0.142800  0.154100  0.354100  1
  C  C1114  1  0.857200  0.845900  0.645900  1
  C  C1115  1  0.420000  0.095900  0.240500  1
  C  C1116  1  0.580000  0.904100  0.759500  1
  C  C1117  1  0.594100  0.859400  0.223900  1
  C  C1118  1  0.405900  0.140600  0.776100  1
  C  C1119  1  0.512400  0.793100  0.365900  1
  C  C1120  1  0.487600  0.206900  0.634100  1
  C  C1121  1  0.125900  0.337700  0.154500  1
  C  C1122  1  0.874100  0.662300  0.845500  1
  C  C1123  1  0.273800  0.290200  0.298000  1
  C  C1124  1  0.726200  0.709800  0.702000  1
  C  C1125  1  0.317300  0.435800  0.049500  1
  C  C1126  1  0.682700  0.564200  0.950500  1
  C  C1127  1  0.778300  0.556100  0.152800  1
  C  C1128  1  0.221700  0.443900  0.847200  1
  C  C1129  1  0.749700  0.908600  0.079300  1
  C  C1130  1  0.250300  0.091400  0.920700  1
  C  C1131  1  0.670800  0.620900  0.338500  1
  C  C1132  1  0.329200  0.379100  0.661500  1
  C  C1133  1  0.440900  0.577100  0.987300  1
  C  C1134  1  0.559100  0.422900  0.012700  1
  C  C1135  1  0.494800  0.847500  0.947100  1
  C  C1136  1  0.505200  0.152500  0.052900  1
  C  C1137  1  0.134500  0.969100  0.929600  1
  C  C1138  1  0.865500  0.030900  0.070400  1
  C  C1139  1  0.022800  0.543700  0.541200  1
  C  C1140  1  0.977200  0.456300  0.458800  1
  C  C1141  1  0.766400  0.804900  0.516200  1
  C  C1142  1  0.233600  0.195100  0.483800  1
  C  C1143  1  0.663500  0.660500  0.444500  1
  C  C1144  1  0.336500  0.339500  0.555500  1
  C  C1145  1  0.905600  0.257900  0.214300  1
  C  C1146  1  0.094400  0.742100  0.785700  1
  C  C1147  1  0.857100  0.116400  0.390600  1
  C  C1148  1  0.142900  0.883600  0.609400  1
  C  C1149  1  0.193400  0.164400  0.329100  1
  C  C1150  1  0.806600  0.835600  0.670900  1
  C  C1151  1  0.386900  0.100900  0.276600  1
  C  C1152  1  0.613100  0.899100  0.723400  1
  C  C1153  1  0.595500  0.881100  0.185700  1
  C  C1154  1  0.404500  0.118900  0.814300  1
  C  C1155  1  0.542600  0.748600  0.351400  1
  C  C1156  1  0.457400  0.251400  0.648600  1
  C  C1157  1  0.117000  0.393500  0.139000  1
  C  C1158  1  0.883000  0.606500  0.861000  1
  C  C1159  1  0.230300  0.331700  0.305400  1
  C  C1160  1  0.769700  0.668300  0.694600  1
  C  C1161  1  0.333600  0.469200  0.071000  1
  C  C1162  1  0.666400  0.530800  0.929000  1
  C  C1163  1  0.807900  0.549300  0.180900  1
  C  C1164  1  0.192100  0.450700  0.819100  1
  C  C1165  1  0.800900  0.877200  0.075700  1
  C  C1166  1  0.199100  0.122800  0.924300  1
  C  C1167  1  0.696300  0.669800  0.331300  1
  C  C1168  1  0.303700  0.330200  0.668700  1
  C  C1169  1  0.382400  0.595200  0.000400  1
  C  C1170  1  0.617600  0.404800  0.999600  1
  C  C1171  1  0.486000  0.813300  0.983600  1
  C  C1172  1  0.514000  0.186700  0.016400  1
  C  C1173  1  0.155700  0.978200  0.956000  1
  C  C1174  1  0.844300  0.021800  0.044000  1
  C  C1175  1  0.056100  0.582100  0.513400  1
  C  C1176  1  0.943900  0.417900  0.486600  1
  C  C1177  1  0.778900  0.827200  0.475700  1
  C  C1178  1  0.221100  0.172800  0.524300  1
  C  C1179  1  0.718400  0.645500  0.422500  1
  C  C1180  1  0.281600  0.354500  0.577500  1
  C  C1181  1  0.895600  0.200700  0.223100  1
  C  C1182  1  0.104400  0.799300  0.776900  1
  C  C1183  1  0.903600  0.074700  0.389600  1
  C  C1184  1  0.096400  0.925300  0.610400  1
  C  C1185  1  0.210100  0.142500  0.294800  1
  C  C1186  1  0.789900  0.857500  0.705200  1
  C  C1187  1  0.349200  0.063700  0.295500  1
  C  C1188  1  0.650800  0.936300  0.704500  1
  C  C1189  1  0.549000  0.900600  0.171000  1
  C  C1190  1  0.451000  0.099400  0.829000  1
  C  C1191  1  0.522700  0.727400  0.326100  1
  C  C1192  1  0.477300  0.272600  0.673900  1
  C  C1193  1  0.166400  0.256200  0.202300  1
  C  C1194  1  0.833600  0.743800  0.797700  1
  C  C1195  1  0.373000  0.254400  0.265000  1
  C  C1196  1  0.627000  0.745600  0.735000  1
  C  C1197  1  0.248500  0.395700  0.029600  1
  C  C1198  1  0.751500  0.604300  0.970400  1
  C  C1199  1  0.744500  0.611100  0.092500  1
  C  C1200  1  0.255500  0.388900  0.907500  1
  C  C1201  1  0.677100  0.978300  0.109200  1
  C  C1202  1  0.322900  0.021700  0.890800  1
  C  C1203  1  0.667400  0.525800  0.330800  1
  C  C1204  1  0.332600  0.474200  0.669200  1
  C  C1205  1  0.540700  0.584800  0.967000  1
  C  C1206  1  0.459300  0.415200  0.033000  1
  C  C1207  1  0.461500  0.919500  0.893300  1
  C  C1208  1  0.538500  0.080500  0.106700  1
  C  C1209  1  0.085700  0.920500  0.896000  1
  C  C1210  1  0.914300  0.079500  0.104000  1
  C  C1211  1  0.940000  0.495500  0.567900  1
  C  C1212  1  0.060000  0.504500  0.432100  1
  C  C1213  1  0.790000  0.739900  0.576800  1
  C  C1214  1  0.210000  0.260100  0.423200  1
  C  C1215  1  0.597200  0.722600  0.483600  1
  C  C1216  1  0.402800  0.277400  0.516400  1
  C  C1217  1  0.976000  0.325600  0.203700  1
  C  C1218  1  0.024000  0.674400  0.796300  1
  C  C1219  1  0.811200  0.211500  0.360900  1
  C  C1220  1  0.188800  0.788500  0.639100  1
  C  C1221  1  0.128200  0.183100  0.386700  1
  C  C1222  1  0.871800  0.816900  0.613300  1
  C  C1223  1  0.462800  0.136300  0.218200  1
  C  C1224  1  0.537200  0.863700  0.781800  1
  C  C1225  1  0.646000  0.834800  0.240200  1
  C  C1226  1  0.354000  0.165200  0.759800  1
  C  C1227  1  0.533300  0.814700  0.394200  1
  C  C1228  1  0.466700  0.185300  0.605800  1
  C  C1229  1  0.002100  0.570000  0.066900  1
  C  C1230  1  0.997900  0.430000  0.933100  1
  C  C1231  1  0.057300  0.391000  0.373900  1
  C  C1232  1  0.942700  0.609000  0.626100  1
  C  C1233  1  0.478400  0.530700  0.107800  1
  C  C1234  1  0.521600  0.469300  0.892200  1
  C  C1235  1  0.972900  0.421800  0.263500  1
  C  C1236  1  0.027100  0.578200  0.736500  1
  C  C1237  1  0.981100  0.779000  0.992400  1
  C  C1238  1  0.018900  0.221000  0.007600  1
  C  C1239  1  0.691700  0.869500  0.324700  1
  C  C1240  1  0.308300  0.130500  0.675300  1
  C  C1241  1  0.193400  0.627700  0.975300  1
  C  C1242  1  0.806600  0.372300  0.024700  1
  C  C1243  1  0.550800  0.722700  0.144400  1
  C  C1244  1  0.449200  0.277300  0.855600  1
  C  C1245  1  0.211500  0.104100  0.022400  1
  C  C1246  1  0.788500  0.895900  0.977600  1
  C  C1247  1  0.181700  0.737200  0.484100  1
  C  C1248  1  0.818300  0.262800  0.515900  1
  C  C1249  1  0.786800  0.022100  0.343400  1
  C  C1250  1  0.213200  0.977900  0.656600  1
  C  C1251  1  0.833000  0.501900  0.393100  1
  C  C1252  1  0.167000  0.498100  0.606900  1
  C  C1253  1  0.782500  0.063600  0.200400  1
  C  C1254  1  0.217500  0.936400  0.799600  1
  C  C1255  1  0.010700  0.911700  0.464400  1
  C  C1256  1  0.989300  0.088300  0.535600  1
  C  C1257  1  0.286500  0.165600  0.149600  1
  C  C1258  1  0.713500  0.834400  0.850400  1
  C  C1259  1  0.230400  0.972700  0.411700  1
  C  C1260  1  0.769600  0.027300  0.588300  1
  C  C1261  1  0.422000  0.996800  0.052700  1
  C  C1262  1  0.578000  0.003200  0.947300  1
  C  C1263  1  0.500600  0.563100  0.273900  1
  C  C1264  1  0.499400  0.436900  0.726100  1
  C  C1265  1  0.027900  0.557800  0.032900  1
  C  C1266  1  0.972100  0.442200  0.967100  1
  C  C1267  1  0.068200  0.361400  0.406900  1
  C  C1268  1  0.931800  0.638600  0.593100  1
  C  C1269  1  0.511100  0.481200  0.109200  1
  C  C1270  1  0.488900  0.518800  0.890800  1
  C  C1271  1  0.933400  0.388800  0.284600  1
  C  C1272  1  0.066600  0.611200  0.715400  1
  C  C1273  1  0.989300  0.823100  0.959700  1
  C  C1274  1  0.010700  0.176900  0.040300  1
  C  C1275  1  0.692300  0.851500  0.363600  1
  C  C1276  1  0.307700  0.148500  0.636400  1
  C  C1277  1  0.216300  0.573500  0.980600  1
  C  C1278  1  0.783700  0.426500  0.019400  1
  C  C1279  1  0.591600  0.678800  0.139100  1
  C  C1280  1  0.408400  0.321200  0.860900  1
  C  C1281  1  0.161000  0.135900  0.022600  1
  C  C1282  1  0.839000  0.864100  0.977400  1
  C  C1283  1  0.228500  0.699600  0.490000  1
  C  C1284  1  0.771500  0.300400  0.510000  1
  C  C1285  1  0.729900  0.028400  0.346300  1
  C  C1286  1  0.270100  0.971600  0.653700  1
  C  C1287  1  0.827700  0.459200  0.423100  1
  C  C1288  1  0.172300  0.540800  0.576900  1
  C  C1289  1  0.764100  0.070500  0.167100  1
  C  C1290  1  0.235900  0.929500  0.832900  1
  C  C1291  1  0.039600  0.933000  0.483200  1
  C  C1292  1  0.960400  0.067000  0.516800  1
  C  C1293  1  0.334200  0.168700  0.161500  1
  C  C1294  1  0.665800  0.831300  0.838500  1
  C  C1295  1  0.198300  0.020700  0.406700  1
  C  C1296  1  0.801700  0.979300  0.593300  1
  C  C1297  1  0.451400  0.039500  0.038800  1
  C  C1298  1  0.548600  0.960500  0.961200  1
  C  C1299  1  0.553800  0.574400  0.258000  1
  C  C1300  1  0.446200  0.425600  0.742000  1
  C  C1301  1  0.996100  0.568200  0.004800  1
  C  C1302  1  0.003900  0.431800  0.995200  1
  C  C1303  1  0.025900  0.329200  0.431500  1
  C  C1304  1  0.974100  0.670800  0.568500  1
  C  C1305  1  0.563700  0.480100  0.092600  1
  C  C1306  1  0.436300  0.519900  0.907400  1
  C  C1307  1  0.950900  0.335400  0.300900  1
  C  C1308  1  0.049100  0.664600  0.699100  1
  C  C1309  1  0.003900  0.807000  0.924700  1
  C  C1310  1  0.996100  0.193000  0.075300  1
  C  C1311  1  0.658200  0.884400  0.388600  1
  C  C1312  1  0.341800  0.115600  0.611400  1
  C  C1313  1  0.198600  0.539600  0.963800  1
  C  C1314  1  0.801400  0.460400  0.036200  1
  C  C1315  1  0.628300  0.660300  0.161700  1
  C  C1316  1  0.371700  0.339700  0.838300  1
  C  C1317  1  0.161400  0.192800  0.016800  1
  C  C1318  1  0.838600  0.807200  0.983200  1
  C  C1319  1  0.265400  0.711200  0.509400  1
  C  C1320  1  0.734600  0.288800  0.490600  1
  C  C1321  1  0.702000  0.079600  0.329900  1
  C  C1322  1  0.298000  0.920400  0.670100  1
  C  C1323  1  0.810600  0.413500  0.420300  1
  C  C1324  1  0.189400  0.586500  0.579700  1
  C  C1325  1  0.705700  0.070500  0.169200  1
  C  C1326  1  0.294300  0.929500  0.830800  1
  C  C1327  1  0.044200  0.908400  0.520100  1
  C  C1328  1  0.955800  0.091600  0.479900  1
  C  C1329  1  0.372200  0.202700  0.135000  1
  C  C1330  1  0.627800  0.797300  0.865000  1
  C  C1331  1  0.169800  0.041500  0.440000  1
  C  C1332  1  0.830200  0.958500  0.560000  1
  C  C1333  1  0.452700  0.067800  0.999500  1
  C  C1334  1  0.547300  0.932200  0.000500  1
  C  C1335  1  0.593000  0.529200  0.252700  1
  C  C1336  1  0.407000  0.470800  0.747300  1
  C  C1337  1  0.940200  0.589700  0.010800  1
  C  C1338  1  0.059800  0.410300  0.989200  1
  C  C1339  1  0.977600  0.330600  0.421600  1
  C  C1340  1  0.022400  0.669400  0.578400  1
  C  C1341  1  0.591200  0.526100  0.072900  1
  C  C1342  1  0.408800  0.473900  0.927100  1
  C  C1343  1  0.011000  0.313500  0.295400  1
  C  C1344  1  0.989000  0.686500  0.704600  1
  C  C1345  1  0.008600  0.754400  0.919500  1
  C  C1346  1  0.991400  0.245600  0.080500  1
  C  C1347  1  0.624700  0.930200  0.375000  1
  C  C1348  1  0.375300  0.069800  0.625000  1
  C  C1349  1  0.160800  0.558300  0.943700  1
  C  C1350  1  0.839200  0.441700  0.056300  1
  C  C1351  1  0.627000  0.683200  0.193400  1
  C  C1352  1  0.373000  0.316800  0.806600  1
  C  C1353  1  0.209300  0.214600  0.014700  1
  C  C1354  1  0.790700  0.785400  0.985300  1
  C  C1355  1  0.259900  0.758700  0.520400  1
  C  C1356  1  0.740100  0.241300  0.479600  1
  C  C1357  1  0.729000  0.123500  0.313100  1
  C  C1358  1  0.271000  0.876500  0.686900  1
  C  C1359  1  0.799100  0.406800  0.387400  1
  C  C1360  1  0.200900  0.593200  0.612600  1
  C  C1361  1  0.669200  0.059500  0.204400  1
  C  C1362  1  0.330800  0.940500  0.795600  1
  C  C1363  1  0.018400  0.860700  0.537800  1
  C  C1364  1  0.981600  0.139300  0.462200  1
  C  C1365  1  0.362700  0.232000  0.101600  1
  C  C1366  1  0.637300  0.768000  0.898400  1
  C  C1367  1  0.172600  0.011700  0.476700  1
  C  C1368  1  0.827400  0.988300  0.523300  1
  C  C1369  1  0.427700  0.051500  0.977900  1
  C  C1370  1  0.572300  0.948500  0.022100  1
  C  C1371  1  0.584800  0.480200  0.263600  1
  C  C1372  1  0.415200  0.519800  0.736400  1
  C  C1373  1  0.917800  0.602100  0.046100  1
  C  C1374  1  0.082200  0.397900  0.953900  1
  C  C1375  1  0.970000  0.361000  0.385500  1
  C  C1376  1  0.030000  0.639000  0.614500  1
  C  C1377  1  0.558000  0.573300  0.073200  1
  C  C1378  1  0.442000  0.426700  0.926800  1
  C  C1379  1  0.046200  0.349200  0.275100  1
  C  C1380  1  0.953800  0.650800  0.724900  1
  C  C1381  1  0.001000  0.715200  0.952600  1
  C  C1382  1  0.999000  0.284800  0.047400  1
  C  C1383  1  0.624700  0.946600  0.336200  1
  C  C1384  1  0.375300  0.053400  0.663800  1
  C  C1385  1  0.136900  0.613800  0.939000  1
  C  C1386  1  0.863100  0.386200  0.061000  1
  C  C1387  1  0.584500  0.724000  0.201000  1
  C  C1388  1  0.415500  0.276000  0.799000  1
  C  C1389  1  0.260400  0.180100  0.016300  1
  C  C1390  1  0.739600  0.819900  0.983700  1
  C  C1391  1  0.213000  0.795700  0.514500  1
  C  C1392  1  0.787000  0.204300  0.485500  1
  C  C1393  1  0.788700  0.115900  0.308100  1
  C  C1394  1  0.211300  0.884100  0.691900  1
  C  C1395  1  0.806500  0.450500  0.356200  1
  C  C1396  1  0.193500  0.549500  0.643800  1
  C  C1397  1  0.687800  0.051200  0.237300  1
  C  C1398  1  0.312200  0.948800  0.762700  1
  C  C1399  1  0.991700  0.839000  0.518800  1
  C  C1400  1  0.008300  0.161000  0.481200  1
  C  C1401  1  0.315300  0.227500  0.092100  1
  C  C1402  1  0.684700  0.772500  0.907900  1
  C  C1403  1  0.204700  0.962700  0.478400  1
  C  C1404  1  0.795300  0.037300  0.521600  1
  C  C1405  1  0.397300  0.007500  0.992600  1
  C  C1406  1  0.602700  0.992500  0.007400  1
  C  C1407  1  0.531800  0.468400  0.280900  1
  C  C1408  1  0.468200  0.531600  0.719100  1
  C  C1409  1  0.947300  0.592800  0.074800  1
  C  C1410  1  0.052700  0.407200  0.925200  1
  C  C1411  1  0.009300  0.392700  0.361500  1
  C  C1412  1  0.990700  0.607300  0.638500  1
  C  C1413  1  0.501600  0.573700  0.090500  1
  C  C1414  1  0.498400  0.426300  0.909500  1
  C  C1415  1  0.028200  0.403700  0.258200  1
  C  C1416  1  0.971800  0.596300  0.741800  1
  C  C1417  1  0.987300  0.725800  0.988100  1
  C  C1418  1  0.012700  0.274200  0.011900  1
  C  C1419  1  0.661300  0.914300  0.312200  1
  C  C1420  1  0.338700  0.085700  0.687800  1
  C  C1421  1  0.155200  0.649100  0.955900  1
  C  C1422  1  0.844800  0.350900  0.044100  1
  C  C1423  1  0.546600  0.744100  0.175800  1
  C  C1424  1  0.453400  0.255900  0.824200  1
  C  C1425  1  0.261500  0.123600  0.020700  1
  C  C1426  1  0.738500  0.876400  0.979300  1
  C  C1427  1  0.174000  0.786100  0.496800  1
  C  C1428  1  0.826000  0.213900  0.503200  1
  C  C1429  1  0.818100  0.066600  0.322100  1
  C  C1430  1  0.181900  0.933400  0.677900  1
  C  C1431  1  0.822700  0.498800  0.358500  1
  C  C1432  1  0.177300  0.501200  0.641500  1
  C  C1433  1  0.744000  0.053800  0.235600  1
  C  C1434  1  0.256000  0.946200  0.764400  1
  C  C1435  1  0.987800  0.865100  0.480300  1
  C  C1436  1  0.012200  0.134900  0.519700  1
  C  C1437  1  0.275100  0.192400  0.116600  1
  C  C1438  1  0.724900  0.807600  0.883400  1
  C  C1439  1  0.233200  0.941500  0.446400  1
  C  C1440  1  0.766800  0.058500  0.553600  1
  C  C1441  1  0.393300  0.979100  0.030400  1
  C  C1442  1  0.606700  0.020900  0.969600  1
  C  C1443  1  0.493000  0.514000  0.289000  1
  C  C1444  1  0.507000  0.486000  0.711000  1
  C  C1445  1  0.906400  0.599300  0.980400  1
  C  C1446  1  0.093600  0.400700  0.019600  1
  C  C1447  1  0.930500  0.299000  0.447600  1
  C  C1448  1  0.069500  0.701000  0.552400  1
  C  C1449  1  0.654900  0.517000  0.062300  1
  C  C1450  1  0.345100  0.483000  0.937700  1
  C  C1451  1  0.030300  0.254100  0.312600  1
  C  C1452  1  0.969700  0.745900  0.687400  1
  C  C1453  1  0.021500  0.739800  0.882200  1
  C  C1454  1  0.978500  0.260200  0.117800  1
  C  C1455  1  0.586700  0.963200  0.403200  1
  C  C1456  1  0.413300  0.036800  0.596800  1
  C  C1457  1  0.138600  0.522000  0.923000  1
  C  C1458  1  0.861400  0.478000  0.077000  1
  C  C1459  1  0.667700  0.659300  0.221100  1
  C  C1460  1  0.332300  0.340700  0.778900  1
  C  C1461  1  0.207800  0.278100  0.010100  1
  C  C1462  1  0.792200  0.721900  0.989900  1
  C  C1463  1  0.301700  0.768800  0.541300  1
  C  C1464  1  0.698300  0.231200  0.458700  1
  C  C1465  1  0.697500  0.179100  0.295600  1
  C  C1466  1  0.302500  0.820900  0.704400  1
  C  C1467  1  0.781700  0.354100  0.381700  1
  C  C1468  1  0.218300  0.645900  0.618300  1
  C  C1469  1  0.606200  0.056700  0.205100  1
  C  C1470  1  0.393800  0.943300  0.794900  1
  C  C1471  1  0.028200  0.829800  0.579000  1
  C  C1472  1  0.971800  0.170200  0.421000  1
  C  C1473  1  0.404800  0.271400  0.074200  1
  C  C1474  1  0.595200  0.728600  0.925800  1
  C  C1475  1  0.143400  0.032600  0.511800  1
  C  C1476  1  0.856600  0.967400  0.488200  1
  C  C1477  1  0.430900  0.081300  0.936500  1
  C  C1478  1  0.569100  0.918700  0.063500  1
  C  C1479  1  0.627300  0.428400  0.245600  1
  C  C1480  1  0.372700  0.571600  0.754400  1
  N  N1481  1  0.989200  0.407400  0.097800  1
  N  N1482  1  0.010800  0.592600  0.902200  1
  N  N1483  1  0.710200  0.769600  0.085200  1
  N  N1484  1  0.289800  0.230400  0.914800  1
  N  N1485  1  0.438700  0.980100  0.374900  1
  N  N1486  1  0.561300  0.019900  0.625100  1
  N  N1487  1  0.331200  0.824400  0.423500  1
  N  N1488  1  0.668800  0.175600  0.576500  1
  N  N1489  1  0.719500  0.081900  0.448700  1
  N  N1490  1  0.280500  0.918100  0.551300  1
  N  N1491  1  0.129800  0.236800  0.105300  1
  N  N1492  1  0.870200  0.763200  0.894700  1
  N  N1493  1  0.011500  0.852300  0.186100  1
  N  N1494  1  0.988500  0.147700  0.813900  1
  N  N1495  1  0.613200  0.698200  0.021900  1
  N  N1496  1  0.386800  0.301800  0.978100  1
  N  N1497  1  0.321700  0.149300  0.378200  1
  N  N1498  1  0.678300  0.850700  0.621800  1
  N  N1499  1  0.778600  0.425000  0.268400  1
  N  N1500  1  0.221400  0.575000  0.731600  1
  N  N1501  1  0.649100  0.507100  0.156700  1
  N  N1502  1  0.350900  0.492900  0.843300  1
  N  N1503  1  0.950100  0.942100  0.989100  1
  N  N1504  1  0.049900  0.057900  0.010900  1
  N  N1505  1  0.556100  0.080500  0.302800  1
  N  N1506  1  0.443900  0.919500  0.697200  1
  N  N1507  1  0.793200  0.225300  0.064800  1
  N  N1508  1  0.206800  0.774700  0.935200  1
  N  N1509  1  0.640700  0.406800  0.442000  1
  N  N1510  1  0.359300  0.593200  0.558000  1
  N  N1511  1  0.077100  0.008200  0.095000  1
  N  N1512  1  0.922900  0.991800  0.905000  1
  N  N1513  1  0.563000  0.189400  0.136900  1
  N  N1514  1  0.437000  0.810600  0.863100  1
  N  N1515  1  0.412800  0.370200  0.136600  1
  N  N1516  1  0.587200  0.629800  0.863400  1
  N  N1517  1  0.844600  0.209000  0.140000  1
  N  N1518  1  0.155400  0.791000  0.860000  1
  N  N1519  1  0.535400  0.177000  0.503100  1
  N  N1520  1  0.464600  0.823000  0.496900  1
  N  N1521  1  0.563000  0.102000  0.413000  1
  N  N1522  1  0.437000  0.898000  0.587000  1
  O  O1523  1  0.136200  0.657100  0.113730  1
  O  O1524  1  0.863800  0.342900  0.886270  1
  O  O1525  1  0.070700  0.577600  0.281910  1
  O  O1526  1  0.929300  0.422400  0.718090  1
  O  O1527  1  0.318200  0.611000  0.204600  1
  O  O1528  1  0.681800  0.389000  0.795400  1
  O  O1529  1  0.958600  0.620800  0.281130  1
  O  O1530  1  0.041400  0.379200  0.718870  1
  O  O1531  1  0.038400  0.729300  0.121080  1
  O  O1532  1  0.961600  0.270700  0.878920  1
  O  O1533  1  0.878600  0.857400  0.229350  1
  O  O1534  1  0.121400  0.142600  0.770650  1
  O  O1535  1  0.149200  0.759200  0.069170  1
  O  O1536  1  0.850800  0.240800  0.930830  1
  O  O1537  1  0.352800  0.694600  0.142920  1
  O  O1538  1  0.647200  0.305400  0.857080  1
  O  O1539  1  0.249100  0.925100  0.120350  1
  O  O1540  1  0.750900  0.074900  0.879650  1
  O  O1541  1  0.099400  0.805400  0.364140  1
  O  O1542  1  0.900600  0.194600  0.635860  1
  O  O1543  1  0.895600  0.847600  0.302800  1
  O  O1544  1  0.104400  0.152400  0.697200  1
  O  O1545  1  0.999000  0.616400  0.347110  1
  O  O1546  1  0.001000  0.383600  0.652890  1
  O  O1547  1  0.944700  0.929500  0.245790  1
  O  O1548  1  0.055300  0.070500  0.754210  1
  O  O1549  1  0.128800  0.909100  0.330410  1
  O  O1550  1  0.871200  0.090900  0.669590  1
  O  O1551  1  0.172900  0.004700  0.165890  1
  O  O1552  1  0.827100  0.995300  0.834110  1
  O  O1553  1  0.221900  0.829400  0.337260  1
  O  O1554  1  0.778100  0.170600  0.662740  1
  O  O1555  1  0.278300  0.952000  0.179080  1
  O  O1556  1  0.721700  0.048000  0.820920  1
  O  O1557  1  0.353800  0.710800  0.213400  1
  O  O1558  1  0.646200  0.289200  0.786600  1
  O  O1559  1  0.052600  0.643200  0.081100  1
  O  O1560  1  0.947400  0.356800  0.918900  1
  O  O1561  1  0.044600  0.499000  0.344600  1
  O  O1562  1  0.955400  0.501000  0.655400  1
  O  O1563  1  0.422100  0.587900  0.159700  1
  O  O1564  1  0.577900  0.412100  0.840300  1
  O  O1565  1  0.984800  0.509500  0.286400  1
  O  O1566  1  0.015200  0.490500  0.713600  1
  O  O1567  1  0.041200  0.756300  0.045480  1
  O  O1568  1  0.958800  0.243700  0.954520  1
  O  O1569  1  0.788500  0.889000  0.281900  1
  O  O1570  1  0.211500  0.111000  0.718100  1
  O  O1571  1  0.142200  0.683200  0.028920  1
  O  O1572  1  0.857800  0.316800  0.971080  1
  O  O1573  1  0.453500  0.689700  0.160000  1
  O  O1574  1  0.546500  0.310300  0.840000  1
  O  O1575  1  0.224000  0.032900  0.086210  1
  O  O1576  1  0.776000  0.967100  0.913790  1
  O  O1577  1  0.166100  0.787900  0.415080  1
  O  O1578  1  0.833900  0.212100  0.584920  1
  O  O1579  1  0.848600  0.953100  0.302800  1
  O  O1580  1  0.151400  0.046900  0.697200  1
  O  O1581  1  0.929800  0.540300  0.354600  1
  O  O1582  1  0.070200  0.459700  0.645400  1
  O  O1583  1  0.847000  0.974800  0.224900  1
  O  O1584  1  0.153000  0.025200  0.775100  1
  O  O1585  1  0.086200  0.884900  0.407110  1
  O  O1586  1  0.913800  0.115100  0.592890  1
  O  O1587  1  0.256600  0.070900  0.143030  1
  O  O1588  1  0.743400  0.929100  0.856970  1
  O  O1589  1  0.197700  0.895900  0.388050  1
  O  O1590  1  0.802300  0.104100  0.611950  1
  O  O1591  1  0.329300  0.995000  0.106740  1
  O  O1592  1  0.670700  0.005000  0.893260  1
  O  O1593  1  0.423300  0.615300  0.230900  1
  O  O1594  1  0.576700  0.384700  0.769100  1
  O  O1595  1  0.059800  0.504600  0.185100  1
  O  O1596  1  0.940200  0.495400  0.814900  1
  O  O1597  1  0.227800  0.466700  0.298100  1
  O  O1598  1  0.772200  0.533300  0.701900  1
  O  O1599  1  0.295300  0.479400  0.159300  1
  O  O1600  1  0.704700  0.520600  0.840700  1
  O  O1601  1  0.947500  0.573200  0.171700  1
  O  O1602  1  0.052500  0.426800  0.828300  1
  O  O1603  1  0.861400  0.766100  0.107500  1
  O  O1604  1  0.138600  0.233900  0.892500  1
  O  O1605  1  0.764300  0.745000  0.235500  1
  O  O1606  1  0.235700  0.255000  0.764500  1
  O  O1607  1  0.314000  0.741000  0.996100  1
  O  O1608  1  0.686000  0.259000  0.003900  1
  O  O1609  1  0.470300  0.827100  0.065800  1
  O  O1610  1  0.529700  0.172900  0.934200  1
  O  O1611  1  0.263400  0.930200  0.997200  1
  O  O1612  1  0.736600  0.069800  0.002800  1
  O  O1613  1  0.000400  0.727500  0.471300  1
  O  O1614  1  0.999600  0.272500  0.528700  1
  O  O1615  1  0.863000  0.906400  0.419100  1
  O  O1616  1  0.137000  0.093600  0.580900  1
  O  O1617  1  0.861500  0.661300  0.435100  1
  O  O1618  1  0.138500  0.338700  0.564900  1
  O  O1619  1  0.966300  0.099700  0.174800  1
  O  O1620  1  0.033700  0.900300  0.825200  1
  O  O1621  1  0.944300  0.979300  0.351100  1
  O  O1622  1  0.055700  0.020700  0.648900  1
  O  O1623  1  0.119000  0.126300  0.234400  1
  O  O1624  1  0.881000  0.873700  0.765600  1
  O  O1625  1  0.367200  0.915500  0.307600  1
  O  O1626  1  0.632800  0.084500  0.692400  1
  O  O1627  1  0.458400  0.863400  0.145800  1
  O  O1628  1  0.541600  0.136600  0.854200  1
  O  O1629  1  0.395500  0.688700  0.330500  1
  O  O1630  1  0.604500  0.311300  0.669500  1
  O  O1631  1  0.125700  0.486300  0.136400  1
  O  O1632  1  0.874300  0.513700  0.863600  1
  O  O1633  1  0.180600  0.420200  0.275900  1
  O  O1634  1  0.819400  0.579800  0.724100  1
  O  O1635  1  0.313000  0.541700  0.103000  1
  O  O1636  1  0.687000  0.458300  0.897000  1
  O  O1637  1  0.865400  0.584400  0.211600  1
  O  O1638  1  0.134600  0.415600  0.788400  1
  O  O1639  1  0.891100  0.849000  0.095300  1
  O  O1640  1  0.108900  0.151000  0.904700  1
  O  O1641  1  0.770200  0.721700  0.296900  1
  O  O1642  1  0.229800  0.278300  0.703100  1
  O  O1643  1  0.311000  0.653600  0.030200  1
  O  O1644  1  0.689000  0.346400  0.969800  1
  O  O1645  1  0.419300  0.782700  0.042140  1
  O  O1646  1  0.580700  0.217300  0.957860  1
  O  O1647  1  0.170200  0.943700  0.021900  1
  O  O1648  1  0.829800  0.056300  0.978100  1
  O  O1649  1  0.063200  0.655300  0.457100  1
  O  O1650  1  0.936800  0.344700  0.542900  1
  O  O1651  1  0.841100  0.826300  0.416400  1
  O  O1652  1  0.158900  0.173700  0.583600  1
  O  O1653  1  0.809300  0.662500  0.391000  1
  O  O1654  1  0.190700  0.337500  0.609000  1
  O  O1655  1  0.926300  0.104900  0.234500  1
  O  O1656  1  0.073700  0.895100  0.765500  1
  O  O1657  1  0.995700  0.037500  0.360100  1
  O  O1658  1  0.004300  0.962500  0.639900  1
  O  O1659  1  0.195000  0.083400  0.257700  1
  O  O1660  1  0.805000  0.916600  0.742300  1
  O  O1661  1  0.302000  0.988000  0.297000  1
  O  O1662  1  0.698000  0.012000  0.703000  1
  O  O1663  1  0.445200  0.922200  0.184300  1
  O  O1664  1  0.554800  0.077800  0.815700  1
  O  O1665  1  0.456900  0.736700  0.286500  1
  O  O1666  1  0.543100  0.263300  0.713500  1
  O  O1667  1  0.032500  0.556200  0.096600  1
  O  O1668  1  0.967500  0.443800  0.903400  1
  O  O1669  1  0.102400  0.420600  0.349400  1
  O  O1670  1  0.897600  0.579400  0.650600  1
  O  O1671  1  0.421500  0.530300  0.122200  1
  O  O1672  1  0.578500  0.469700  0.877800  1
  O  O1673  1  0.952800  0.477300  0.245600  1
  O  O1674  1  0.047200  0.522700  0.754400  1
  O  O1675  1  0.960300  0.793600  0.028600  1
  O  O1676  1  0.039700  0.206400  0.971400  1
  O  O1677  1  0.722000  0.832200  0.302900  1
  O  O1678  1  0.278000  0.167800  0.697100  1
  O  O1679  1  0.221500  0.661200  0.990900  1
  O  O1680  1  0.778500  0.338800  0.009100  1
  O  O1681  1  0.514400  0.743100  0.119600  1
  O  O1682  1  0.485600  0.256900  0.880400  1
  O  O1683  1  0.212900  0.046200  0.025700  1
  O  O1684  1  0.787100  0.953800  0.974300  1
  O  O1685  1  0.141000  0.723000  0.468300  1
  O  O1686  1  0.859000  0.277000  0.531700  1
  O  O1687  1  0.812800  0.972100  0.360300  1
  O  O1688  1  0.187200  0.027900  0.639700  1
  O  O1689  1  0.848100  0.551300  0.397100  1
  O  O1690  1  0.151900  0.448700  0.602900  1
  O  O1691  1  0.839400  0.064800  0.199300  1
  O  O1692  1  0.160600  0.935200  0.800700  1
  O  O1693  1  0.007000  0.938900  0.425500  1
  O  O1694  1  0.993000  0.061100  0.574500  1
  O  O1695  1  0.246000  0.134300  0.178200  1
  O  O1696  1  0.754000  0.865700  0.821800  1
  O  O1697  1  0.260000  0.955300  0.378200  1
  O  O1698  1  0.740000  0.044700  0.621800  1
  O  O1699  1  0.422500  0.966600  0.090610  1
  O  O1700  1  0.577500  0.033400  0.909390  1
  O  O1701  1  0.461600  0.609000  0.282200  1
  O  O1702  1  0.538400  0.391000  0.717800  1
