
#######################################################################
#
#                 Cambridge Crystallographic Data Centre
#                                CCDC 
#
#######################################################################
#
# If this CIF has been generated from an entry in the Cambridge 
# Structural Database, then it will include bibliographic, chemical, 
# crystal, experimental, refinement or atomic coordinate data resulting 
# from the CCDC's data processing and validation procedures.
#
#######################################################################

data_ADODOM
_chemical_formula_moiety         'C168 H228 Fe4 O60,2(C3 H6 O1)'
_chemical_name_systematic        
'rac-tetrakis((\m~3~-Benzene-1,3,5-tris(3-(t-butoxy)-2-(t-butoxycarbonyl)prop-1-yl-1,3-dionato))-iron(iii)) acetone solvate'
_symmetry_cell_setting           monoclinic
_symmetry_space_group_name_H-M   'C 2/c'
_symmetry_Int_Tables_number      15
_space_group_name_Hall           '-C 2yn'
loop_
_symmetry_equiv_pos_site_id
_symmetry_equiv_pos_as_xyz
1 x,y,z
2 1/2+x,1/2+y,z
3 x,-y,1/2+z
4 1/2+x,1/2-y,1/2+z
5 -x,-y,-z
6 1/2-x,1/2-y,-z
7 -x,y,1/2-z
8 1/2-x,1/2+y,1/2-z
_cell_length_a                   25.086(5)
_cell_length_b                   31.146(6)
_cell_length_c                   28.648(6)
_cell_angle_alpha                90
_cell_angle_beta                 91.38(3)
_cell_angle_gamma                90
_cell_volume                     22377
_exptl_crystal_colour            red
_exptl_crystal_description       block
_chemical_melting_point          198deg.C(dec.)
_cell_formula_units_Z            4
loop_
_atom_site_label
_atom_site_type_symbol
_atom_site_fract_x
_atom_site_fract_y
_atom_site_fract_z
Fe1 Fe 0.08903(3) 0.187613(19) -0.12029(2)
Fe2 Fe -0.14676(2) 0.380510(18) -0.17498(2)
C1 C 0.08637(17) 0.31947(13) -0.13583(16)
C2 C 0.03690(18) 0.33383(13) -0.12172(16)
H1 H 0.0186 0.3188 -0.0981
C3 C 0.01427(17) 0.36974(13) -0.14174(16)
C4 C 0.04087(18) 0.39141(14) -0.17720(16)
H2 H 0.0249 0.4158 -0.1917
C5 C 0.09027(17) 0.37746(13) -0.19120(16)
C6 C 0.11244(18) 0.34061(13) -0.17087(16)
H3 H 0.1457 0.3301 -0.1812
O1 O 0.07440(12) 0.24814(9) -0.11117(11)
C7 C 0.10975(18) 0.27891(14) -0.11592(16)
C8 C 0.16306(18) 0.27507(14) -0.10474(16)
O2 O 0.15933(12) 0.19987(9) -0.08649(11)
C9 C 0.18425(19) 0.23425(15) -0.08823(17)
O3 O 0.23420(13) 0.23734(10) -0.07267(13)
C10 C 0.2665(2) 0.19805(18) -0.0622(3)
O4 O 0.19428(14) 0.34524(11) -0.08679(13)
C11 C 0.19913(19) 0.31210(15) -0.10820(17)
O5 O 0.23755(13) 0.30492(10) -0.13871(13)
C12 C 0.2793(2) 0.33645(18) -0.1483(2)
O6 O -0.07074(12) 0.39220(9) -0.16736(11)
C13 C -0.04156(17) 0.38373(13) -0.13083(17)
C14 C -0.05886(18) 0.38627(14) -0.08562(17)
O7 O -0.15087(12) 0.39809(9) -0.10701(11)
C15 C -0.1136(2) 0.39712(14) -0.07708(18)
O8 O -0.12255(13) 0.40770(11) -0.03374(12)
C16 C -0.1762(2) 0.41764(17) -0.01602(19)
C17 C -0.0232(2) 0.38116(19) -0.0443(2)
O9 O -0.0281(2) 0.3552(2) -0.01528(19)
O10 O 0.01586(16) 0.41000(12) -0.04368(15)
C18 C 0.0576(3) 0.4105(3) -0.0063(3)
O11 O -0.13915(11) 0.37171(9) -0.24162(11)
C19 C 0.11821(17) 0.39823(13) -0.22982(16)
C20 C 0.12134(18) 0.44269(13) -0.23411(16)
O12 O -0.16390(12) 0.44243(9) -0.19247(11)
C21 C 0.14673(18) 0.46225(14) -0.27280(17)
O13 O 0.15281(14) 0.50405(9) -0.26883(13)
C22 C 0.1817(3) 0.53000(16) -0.3032(3)
C23 C 0.1078(2) 0.47030(15) -0.1933(2)
O14 O 0.1301(2) 0.46862(16) -0.15668(18)
O15 O 0.06556(16) 0.49488(12) -0.20218(14)
C24 C 0.0437(3) 0.5227(2) -0.1645(3)
C25 C 0.11355(17) 0.18815(13) -0.26246(16)
C26 C 0.07631(17) 0.17522(13) -0.29475(16)
H4 H 0.0549 0.1508 -0.2886
C27 C 0.06908(17) 0.19730(13) -0.33699(16)
C28 C 0.09914(18) 0.23360(13) -0.34457(17)
H5 H 0.0932 0.2495 -0.3725
C29 C 0.13738(17) 0.24742(12) -0.31304(16)
C30 C 0.14434(17) 0.22474(13) -0.27170(17)
H6 H 0.1703 0.2341 -0.2493
O16 O 0.11866(12) 0.19583(9) -0.18154(11)
C31 C 0.11821(17) 0.16866(13) -0.21546(17)
C32 C 0.12049(18) 0.12446(13) -0.20850(17)
O17 O 0.11535(13) 0.12664(9) -0.12584(12)
C33 C 0.12031(18) 0.10620(15) -0.16254(19)
O18 O 0.12707(15) 0.06407(9) -0.16161(12)
C34 C 0.1208(3) 0.03934(17) -0.1181(2)
C35 C 0.1288(3) 0.09475(16) -0.2482(2)
O19 O 0.1698(3) 0.08970(16) -0.2652(2)
C36 C 0.0895(6) 0.0428(6) -0.2998(8)
O20 O 0.0846(2) 0.07324(19) -0.2592(2)
O21 O 0.01882(12) 0.17471(9) -0.14794(11)
C37 C 0.02622(18) 0.18441(13) -0.37087(17)
C38 C 0.03458(18) 0.18362(14) -0.41824(17)
O22 O 0.05637(13) 0.17025(10) -0.05943(11)
C39 C -0.0082(2) 0.17349(15) -0.45050(18)
O23 O 0.00779(14) 0.16724(12) -0.49360(12)
C40 C -0.0316(2) 0.1644(2) -0.5338(2)
O24 O 0.12690(14) 0.16935(11) -0.42775(14)
C41 C 0.0886(2) 0.19091(15) -0.43703(18)
O25 O 0.08809(13) 0.22546(10) -0.46504(12)
C42 C 0.1366(2) 0.23954(18) -0.4895(2)
O26 O -0.13664(12) 0.31910(9) -0.16347(11)
C43 C 0.16642(18) 0.28805(13) -0.32170(15)
C44 C 0.22110(18) 0.29142(13) -0.31443(17)
O27 O -0.22604(12) 0.36700(9) -0.17340(11)
C45 C 0.24770(18) 0.33130(14) -0.32092(17)
O28 O 0.30046(13) 0.32722(10) -0.32105(14)
C46 C 0.3370(2) 0.36388(16) -0.3306(2)
O29 O 0.28315(18) 0.24702(12) -0.27159(18)
C47 C 0.2551(2) 0.25261(16) -0.3057(2)
O30 O 0.25057(14) 0.22544(10) -0.34102(14)
C48 C 0.2795(3) 0.18381(18) -0.3411(3)
C49 C 0.2451(3) 0.1746(2) -0.0213(3)
H7 H 0.2109 0.1613 -0.0301
H8 H 0.2399 0.1948 0.0045
H9 H 0.2704 0.1523 -0.0113
C50 C 0.2684(3) 0.1704(2) -0.1049(3)
H10 H 0.2331 0.1579 -0.1112
H11 H 0.2945 0.1474 -0.0998
H12 H 0.2787 0.1879 -0.1316
C51 C 0.3203(3) 0.2186(2) -0.0496(4)
H13 H 0.3169 0.2363 -0.0215
H14 H 0.3318 0.2366 -0.0755
H15 H 0.3468 0.1960 -0.0435
C52 C 0.3080(3) 0.3491(2) -0.1029(3)
H16 H 0.2836 0.3653 -0.0832
H17 H 0.3389 0.3671 -0.1099
H18 H 0.3200 0.3232 -0.0863
C53 C 0.3161(3) 0.3117(2) -0.1800(3)
H19 H 0.3323 0.2877 -0.1626
H20 H 0.3442 0.3309 -0.1909
H21 H 0.2955 0.3006 -0.2069
C54 C 0.2533(3) 0.3750(2) -0.1728(2)
H22 H 0.2302 0.3900 -0.1510
H23 H 0.2320 0.3651 -0.1998
H24 H 0.2811 0.3947 -0.1833
C55 C -0.1980(3) 0.45731(18) -0.0401(2)
H25 H -0.1736 0.4814 -0.0345
H26 H -0.2331 0.4643 -0.0278
H27 H -0.2015 0.4520 -0.0738
C56 C -0.2115(2) 0.37751(18) -0.0224(2)
H28 H -0.1950 0.3532 -0.0058
H29 H -0.2153 0.3706 -0.0557
H30 H -0.2468 0.3831 -0.0097
C57 C -0.1634(3) 0.4261(2) 0.0351(2)
H31 H -0.1408 0.4517 0.0380
H32 H -0.1444 0.4014 0.0486
H33 H -0.1965 0.4308 0.0518
C58 C 0.0950(6) 0.4448(4) -0.0226(6)
H34 H 0.1108 0.4358 -0.0520
H35 H 0.1232 0.4493 0.0011
H36 H 0.0752 0.4716 -0.0275
C59 C 0.0330(5) 0.4216(5) 0.0384(4)
H37 H 0.0099 0.3981 0.0481
H38 H 0.0118 0.4479 0.0345
H39 H 0.0610 0.4263 0.0623
C60 C 0.0890(3) 0.3708(3) -0.0049(3)
H40 H 0.0670 0.3472 0.0066
H41 H 0.1201 0.3746 0.0160
H42 H 0.1009 0.3639 -0.0363
C61 C 0.1536(4) 0.5282(2) -0.3498(2)
H43 H 0.1577 0.4995 -0.3633
H44 H 0.1689 0.5496 -0.3706
H45 H 0.1156 0.5344 -0.3460
C62 C 0.2393(3) 0.5146(3) -0.3039(4)
H46 H 0.2407 0.4863 -0.3187
H47 H 0.2536 0.5126 -0.2718
H48 H 0.2607 0.5350 -0.3216
C63 C 0.1780(4) 0.5754(2) -0.2802(3)
H49 H 0.1407 0.5848 -0.2805
H50 H 0.1993 0.5959 -0.2978
H51 H 0.1916 0.5740 -0.2479
C64 C 0.0029(5) 0.5494(5) -0.1949(5)
H52 H -0.0274 0.5312 -0.2041
H53 H 0.0204 0.5600 -0.2228
H54 H -0.0098 0.5738 -0.1767
C65 C 0.0212(7) 0.4996(3) -0.1308(5)
H55 H 0.0490 0.4845 -0.1126
H56 H -0.0035 0.4786 -0.1449
H57 H 0.0016 0.5187 -0.1101
C66 C 0.0864(4) 0.5563(2) -0.1538(4)
H58 H 0.1155 0.5431 -0.1353
H59 H 0.0709 0.5799 -0.1360
H60 H 0.1004 0.5674 -0.1831
C67 C 0.0671(3) 0.0472(2) -0.0980(3)
H61 H 0.0393 0.0393 -0.1211
H62 H 0.0636 0.0776 -0.0900
H63 H 0.0633 0.0297 -0.0699
C68 C 0.1680(4) 0.0503(2) -0.0845(3)
H64 H 0.1643 0.0799 -0.0735
H65 H 0.2016 0.0473 -0.1010
H66 H 0.1679 0.0307 -0.0578
C69 C 0.1261(4) -0.00661(17) -0.1352(3)
H67 H 0.0959 -0.0135 -0.1563
H68 H 0.1262 -0.0262 -0.1085
H69 H 0.1595 -0.0098 -0.1519
C70 C 0.0306(8) 0.0168(9) -0.2866(10)
H70 H 0.0003 0.0355 -0.2945
H71 H 0.0306 0.0101 -0.2532
H72 H 0.0277 -0.0098 -0.3047
C71 C 0.0925(15) 0.0634(5) -0.3404(4)
H73 H 0.1262 0.0792 -0.3413
H74 H 0.0627 0.0836 -0.3436
H75 H 0.0908 0.0426 -0.3660
C72 C 0.1268(4) 0.0071(2) -0.2865(3)
H76 H 0.1632 0.0150 -0.2948
H77 H 0.1162 -0.0191 -0.3033
H78 H 0.1254 0.0020 -0.2528
C73 C -0.0635(3) 0.1226(2) -0.5287(3)
H79 H -0.0878 0.1254 -0.5026
H80 H -0.0389 0.0987 -0.5226
H81 H -0.0841 0.1170 -0.5576
C74 C -0.0648(3) 0.2027(2) -0.5358(2)
H82 H -0.0421 0.2281 -0.5392
H83 H -0.0847 0.2051 -0.5069
H84 H -0.0898 0.2008 -0.5625
C75 C 0.0069(3) 0.1620(3) -0.5741(2)
H85 H 0.0264 0.1892 -0.5764
H86 H -0.0131 0.1568 -0.6034
H87 H 0.0323 0.1385 -0.5685
C76 C 0.1144(3) 0.2757(2) -0.5212(2)
H88 H 0.0893 0.2635 -0.5444
H89 H 0.1438 0.2897 -0.5372
H90 H 0.0959 0.2969 -0.5021
C77 C 0.1599(3) 0.2035(2) -0.5175(2)
H91 H 0.1739 0.1813 -0.4963
H92 H 0.1888 0.2147 -0.5365
H93 H 0.1321 0.1911 -0.5380
C78 C 0.1759(2) 0.2583(2) -0.4529(2)
H94 H 0.1899 0.2352 -0.4329
H95 H 0.1574 0.2794 -0.4337
H96 H 0.2054 0.2723 -0.4688
C79 C 0.3906(2) 0.3412(2) -0.3278(3)
H97 H 0.3925 0.3199 -0.3528
H98 H 0.3947 0.3268 -0.2975
H99 H 0.4193 0.3623 -0.3312
C80 C 0.3253(3) 0.38159(19) -0.3785(2)
H100 H 0.3289 0.3587 -0.4017
H101 H 0.3505 0.4047 -0.3851
H102 H 0.2888 0.3929 -0.3800
C81 C 0.3326(2) 0.39749(18) -0.2918(2)
H103 H 0.2979 0.4117 -0.2943
H104 H 0.3610 0.4189 -0.2949
H105 H 0.3363 0.3834 -0.2613
C82 C 0.2604(4) 0.1651(3) -0.3877(4)
H106 H 0.2220 0.1597 -0.3869
H107 H 0.2793 0.1382 -0.3935
H108 H 0.2678 0.1856 -0.4127
C83 C 0.3392(3) 0.1921(3) -0.3413(4)
H109 H 0.3509 0.2038 -0.3110
H110 H 0.3472 0.2128 -0.3659
H111 H 0.3580 0.1651 -0.3470
C84 C 0.2644(4) 0.1578(2) -0.2993(3)
H112 H 0.2783 0.1717 -0.2709
H113 H 0.2796 0.1289 -0.3017
H114 H 0.2255 0.1558 -0.2981
O11F O 0.13915(11) 0.37171(9) -0.25838(11)
Fe2F Fe 0.14676(2) 0.380510(18) -0.32502(2)
O6F O 0.07074(12) 0.39220(9) -0.33264(11)
C13F C 0.04156(17) 0.38373(13) -0.36917(17)
C3F C -0.01427(17) 0.36974(13) -0.35826(16)
C2F C -0.03690(18) 0.33383(13) -0.37828(16)
C1F C -0.08637(17) 0.31947(13) -0.36417(16)
C6F C -0.11244(18) 0.34061(13) -0.32913(16)
C5F C -0.09027(17) 0.37746(13) -0.30880(16)
C4F C -0.04087(18) 0.39141(14) -0.32280(16)
H2F H -0.0249 0.4158 -0.3083
C19F C -0.11821(17) 0.39823(13) -0.27018(16)
C21F C -0.14673(18) 0.46225(14) -0.22720(17)
C20F C -0.12134(18) 0.44269(13) -0.26589(16)
C23F C -0.1078(2) 0.47030(15) -0.3067(2)
O14F O -0.1301(2) 0.46862(16) -0.34332(18)
O15F O -0.06556(16) 0.49488(12) -0.29782(14)
C24F C -0.0437(3) 0.5227(2) -0.3355(3)
C64F C -0.0029(5) 0.5494(5) -0.3051(5)
H52F H 0.0274 0.5312 -0.2959
H53F H -0.0204 0.5600 -0.2772
H54F H 0.0098 0.5738 -0.3233
C65F C -0.0212(7) 0.4996(3) -0.3692(5)
H55F H -0.0490 0.4845 -0.3874
H56F H 0.0035 0.4786 -0.3551
H57F H -0.0016 0.5187 -0.3899
C66F C -0.0864(4) 0.5563(2) -0.3462(4)
H58F H -0.1155 0.5431 -0.3647
H59F H -0.0709 0.5799 -0.3640
H60F H -0.1004 0.5674 -0.3169
O13F O -0.15281(14) 0.50405(9) -0.23117(13)
C22F C -0.1817(3) 0.53000(16) -0.1968(3)
C61F C -0.1536(4) 0.5282(2) -0.1502(2)
H43F H -0.1577 0.4995 -0.1367
H44F H -0.1689 0.5496 -0.1294
H45F H -0.1156 0.5344 -0.1540
C62F C -0.2393(3) 0.5146(3) -0.1961(4)
H46F H -0.2407 0.4863 -0.1813
H47F H -0.2536 0.5126 -0.2282
H48F H -0.2607 0.5350 -0.1784
C63F C -0.1780(4) 0.5754(2) -0.2198(3)
H49F H -0.1407 0.5848 -0.2195
H50F H -0.1993 0.5959 -0.2022
H51F H -0.1916 0.5740 -0.2521
C43F C -0.16642(18) 0.28805(13) -0.17830(15)
C29F C -0.13738(17) 0.24742(12) -0.18696(16)
C28F C -0.09914(18) 0.23360(13) -0.15543(17)
C27F C -0.06908(17) 0.19730(13) -0.16301(16)
C26F C -0.07631(17) 0.17522(13) -0.20525(16)
C25F C -0.11355(17) 0.18815(13) -0.23754(16)
C30F C -0.14434(17) 0.22474(13) -0.22830(17)
H6F H -0.1703 0.2341 -0.2507
C31F C -0.11821(17) 0.16866(13) -0.28454(17)
O16F O -0.11866(12) 0.19583(9) -0.31846(11)
Fe1F Fe -0.08903(3) 0.187613(19) -0.37971(2)
O1F O -0.07440(12) 0.24814(9) -0.38883(11)
C7F C -0.10975(18) 0.27891(14) -0.38408(16)
C8F C -0.16306(18) 0.27507(14) -0.39526(16)
C9F C -0.18425(19) 0.23425(15) -0.41177(17)
O2F O -0.15933(12) 0.19987(9) -0.41351(11)
O17F O -0.11535(13) 0.12664(9) -0.37416(12)
C33F C -0.12031(18) 0.10620(15) -0.33746(19)
C32F C -0.12049(18) 0.12446(13) -0.29150(17)
C35F C -0.1288(3) 0.09475(16) -0.2518(2)
O19F O -0.1698(3) 0.08970(16) -0.2348(2)
O20F O -0.0846(2) 0.07324(19) -0.2408(2)
C36F C -0.0895(6) 0.0428(6) -0.2002(8)
C70F C -0.0306(8) 0.0168(9) -0.2134(10)
H70F H -0.0003 0.0355 -0.2055
H71F H -0.0306 0.0101 -0.2468
H72F H -0.0277 -0.0098 -0.1953
C71F C -0.0925(15) 0.0634(5) -0.1596(4)
H73F H -0.1262 0.0792 -0.1587
H74F H -0.0627 0.0836 -0.1564
H75F H -0.0908 0.0426 -0.1340
C72F C -0.1268(4) 0.0071(2) -0.2135(3)
H76F H -0.1632 0.0150 -0.2052
H77F H -0.1162 -0.0191 -0.1967
H78F H -0.1254 0.0020 -0.2472
O18F O -0.12707(15) 0.06407(9) -0.33839(12)
C34F C -0.1208(3) 0.03934(17) -0.3819(2)
C67F C -0.0671(3) 0.0472(2) -0.4020(3)
H61F H -0.0393 0.0393 -0.3789
H62F H -0.0636 0.0776 -0.4100
H63F H -0.0633 0.0297 -0.4301
C68F C -0.1680(4) 0.0503(2) -0.4155(3)
H64F H -0.1643 0.0799 -0.4265
H65F H -0.2016 0.0473 -0.3990
H66F H -0.1679 0.0307 -0.4422
C69F C -0.1261(4) -0.00661(17) -0.3648(3)
H67F H -0.0959 -0.0135 -0.3437
H68F H -0.1262 -0.0262 -0.3915
H69F H -0.1595 -0.0098 -0.3481
O21F O -0.01882(12) 0.17471(9) -0.35206(11)
O26F O 0.13664(12) 0.31910(9) -0.33653(11)
O7F O 0.15087(12) 0.39809(9) -0.39299(11)
C15F C 0.1136(2) 0.39712(14) -0.42292(18)
C14F C 0.05886(18) 0.38627(14) -0.41438(17)
C17F C 0.0232(2) 0.38116(19) -0.4557(2)
O9F O 0.0281(2) 0.3552(2) -0.48472(19)
O10F O -0.01586(16) 0.41000(12) -0.45632(15)
C18F C -0.0576(3) 0.4105(3) -0.4937(3)
C58F C -0.0950(6) 0.4448(4) -0.4774(6)
H34F H -0.1108 0.4358 -0.4480
H35F H -0.1232 0.4493 -0.5011
H36F H -0.0752 0.4716 -0.4725
C59F C -0.0330(5) 0.4216(5) -0.5384(4)
H37F H -0.0099 0.3981 -0.5481
H38F H -0.0118 0.4479 -0.5345
H39F H -0.0610 0.4263 -0.5623
C60F C -0.0890(3) 0.3708(3) -0.4951(3)
H40F H -0.0670 0.3472 -0.5066
H41F H -0.1201 0.3746 -0.5160
H42F H -0.1009 0.3639 -0.4637
O8F O 0.12255(13) 0.40770(11) -0.46626(12)
C16F C 0.1762(2) 0.41764(17) -0.48398(19)
C55F C 0.1980(3) 0.45731(18) -0.4599(2)
H25F H 0.1736 0.4814 -0.4655
H26F H 0.2331 0.4643 -0.4722
H27F H 0.2015 0.4520 -0.4262
C56F C 0.2115(2) 0.37751(18) -0.4776(2)
H28F H 0.1950 0.3532 -0.4942
H29F H 0.2153 0.3706 -0.4443
H30F H 0.2468 0.3831 -0.4903
C57F C 0.1634(3) 0.4261(2) -0.5351(2)
H31F H 0.1408 0.4517 -0.5380
H32F H 0.1444 0.4014 -0.5486
H33F H 0.1965 0.4308 -0.5518
O12F O 0.16390(12) 0.44243(9) -0.30753(11)
O27F O 0.22604(12) 0.36700(9) -0.32660(11)
C37F C -0.02622(18) 0.18441(13) -0.12913(17)
C38F C -0.03458(18) 0.18362(14) -0.08176(17)
C39F C 0.0082(2) 0.17349(15) -0.04950(18)
O23F O -0.00779(14) 0.16724(12) -0.00640(12)
C40F C 0.0316(2) 0.1644(2) 0.0338(2)
C73F C 0.0635(3) 0.1226(2) 0.0287(3)
H79F H 0.0878 0.1254 0.0026
H80F H 0.0389 0.0987 0.0226
H81F H 0.0841 0.1170 0.0576
C74F C 0.0648(3) 0.2027(2) 0.0358(2)
H82F H 0.0421 0.2281 0.0392
H83F H 0.0847 0.2051 0.0069
H84F H 0.0898 0.2008 0.0625
C75F C -0.0069(3) 0.1620(3) 0.0741(2)
H85F H -0.0264 0.1892 0.0764
H86F H 0.0131 0.1568 0.1034
H87F H -0.0323 0.1385 0.0685
C41F C -0.0886(2) 0.19091(15) -0.06297(18)
O24F O -0.12690(14) 0.16935(11) -0.07225(14)
O25F O -0.08809(13) 0.22546(10) -0.03496(12)
C42F C -0.1366(2) 0.23954(18) -0.0105(2)
C76F C -0.1144(3) 0.2757(2) 0.0212(2)
H88F H -0.0893 0.2635 0.0444
H89F H -0.1438 0.2897 0.0372
H90F H -0.0959 0.2969 0.0021
C77F C -0.1599(3) 0.2035(2) 0.0175(2)
H91F H -0.1739 0.1813 -0.0037
H92F H -0.1888 0.2147 0.0365
H93F H -0.1321 0.1911 0.0380
C78F C -0.1759(2) 0.2583(2) -0.0471(2)
H94F H -0.1899 0.2352 -0.0671
H95F H -0.1574 0.2794 -0.0663
H96F H -0.2054 0.2723 -0.0312
O22F O -0.05637(13) 0.17025(10) -0.44057(11)
O3F O -0.23420(13) 0.23734(10) -0.42733(13)
C10F C -0.2665(2) 0.19805(18) -0.4378(3)
C49F C -0.2451(3) 0.1746(2) -0.4787(3)
H7F H -0.2109 0.1613 -0.4699
H8F H -0.2399 0.1948 -0.5045
H9F H -0.2704 0.1523 -0.4887
C50F C -0.2684(3) 0.1704(2) -0.3951(3)
H10F H -0.2331 0.1579 -0.3888
H11F H -0.2945 0.1474 -0.4002
H12F H -0.2787 0.1879 -0.3684
C51F C -0.3203(3) 0.2186(2) -0.4504(4)
H13F H -0.3169 0.2363 -0.4785
H14F H -0.3318 0.2366 -0.4245
H15F H -0.3468 0.1960 -0.4565
C11F C -0.19913(19) 0.31210(15) -0.39180(17)
O4F O -0.19428(14) 0.34524(11) -0.41321(13)
O5F O -0.23755(13) 0.30492(10) -0.36129(13)
C12F C -0.2793(2) 0.33645(18) -0.3517(2)
C52F C -0.3080(3) 0.3491(2) -0.3971(3)
H16F H -0.2836 0.3653 -0.4168
H17F H -0.3389 0.3671 -0.3901
H18F H -0.3200 0.3232 -0.4137
C53F C -0.3161(3) 0.3117(2) -0.3200(3)
H19F H -0.3323 0.2877 -0.3374
H20F H -0.3442 0.3309 -0.3091
H21F H -0.2955 0.3006 -0.2931
C54F C -0.2533(3) 0.3750(2) -0.3272(2)
H22F H -0.2302 0.3900 -0.3490
H23F H -0.2320 0.3651 -0.3002
H24F H -0.2811 0.3947 -0.3167
H4F H -0.0549 0.1508 -0.2114
H5F H -0.0932 0.2495 -0.1275
C44F C -0.22110(18) 0.29142(13) -0.18557(17)
C45F C -0.24770(18) 0.33130(14) -0.17908(17)
O28F O -0.30046(13) 0.32722(10) -0.17895(14)
C46F C -0.3370(2) 0.36388(16) -0.1694(2)
C79F C -0.3906(2) 0.3412(2) -0.1722(3)
H97F H -0.3925 0.3199 -0.1472
H98F H -0.3947 0.3268 -0.2025
H99F H -0.4193 0.3623 -0.1688
C80F C -0.3253(3) 0.38159(19) -0.1215(2)
H100F H -0.3289 0.3587 -0.0983
H101F H -0.3505 0.4047 -0.1149
H102F H -0.2888 0.3929 -0.1200
C81F C -0.3326(2) 0.39749(18) -0.2082(2)
H103F H -0.2979 0.4117 -0.2057
H104F H -0.3610 0.4189 -0.2051
H105F H -0.3363 0.3834 -0.2387
C47F C -0.2551(2) 0.25261(16) -0.1943(2)
O29F O -0.28315(18) 0.24702(12) -0.22841(18)
O30F O -0.25057(14) 0.22544(10) -0.15898(14)
C48F C -0.2795(3) 0.18381(18) -0.1589(3)
C82F C -0.2604(4) 0.1651(3) -0.1123(4)
H106F H -0.2220 0.1597 -0.1131
H107F H -0.2793 0.1382 -0.1065
H108F H -0.2678 0.1856 -0.0873
C83F C -0.3392(3) 0.1921(3) -0.1587(4)
H109F H -0.3509 0.2038 -0.1890
H110F H -0.3472 0.2128 -0.1341
H111F H -0.3580 0.1651 -0.1530
C84F C -0.2644(4) 0.1578(2) -0.2007(3)
H112F H -0.2783 0.1717 -0.2291
H113F H -0.2796 0.1289 -0.1983
H114F H -0.2255 0.1558 -0.2019
H3F H -0.1457 0.3301 -0.3188
H1F H -0.0186 0.3188 -0.4019
O31 O -0.0689(4) -0.0603(3) -0.4556(3)
C85 C -0.0886(5) -0.0601(3) -0.4971(4)
C86 C -0.1419(5) -0.0749(4) -0.5082(5)
H115 H -0.1578 -0.0868 -0.4801
H116 H -0.1405 -0.0971 -0.5323
H117 H -0.1636 -0.0508 -0.5197
C87 C -0.0610(6) -0.0422(8) -0.5344(4)
H118 H -0.0252 -0.0338 -0.5237
H119 H -0.0803 -0.0169 -0.5462
H120 H -0.0584 -0.0635 -0.5594
loop_
_geom_bond_atom_site_label_1
_geom_bond_atom_site_label_2
_geom_bond_site_symmetry_1
_geom_bond_site_symmetry_2
Fe1 O1 1_555 1_555
Fe2 O6 1_555 1_555
C1 C2 1_555 1_555
C2 H1 1_555 1_555
C3 C2 1_555 1_555
C4 C3 1_555 1_555
H2 C4 1_555 1_555
C5 C4 1_555 1_555
C6 C1 1_555 1_555
H3 C6 1_555 1_555
O1 C7 1_555 1_555
C7 C1 1_555 1_555
C8 C7 1_555 1_555
O2 Fe1 1_555 1_555
C9 C8 1_555 1_555
O3 C9 1_555 1_555
C10 O3 1_555 1_555
O4 C11 1_555 1_555
C11 C8 1_555 1_555
O5 C11 1_555 1_555
C12 O5 1_555 1_555
O6 C13 1_555 1_555
C13 C3 1_555 1_555
C14 C13 1_555 1_555
O7 Fe2 1_555 1_555
C15 C14 1_555 1_555
O8 C15 1_555 1_555
C16 O8 1_555 1_555
C17 C14 1_555 1_555
O9 C17 1_555 1_555
O10 C17 1_555 1_555
C18 O10 1_555 1_555
O11 Fe2 1_555 1_555
C19 C5 1_555 1_555
C20 C19 1_555 1_555
O12 Fe2 1_555 1_555
C21 C20 1_555 1_555
O13 C21 1_555 1_555
C22 O13 1_555 1_555
C23 C20 1_555 1_555
O14 C23 1_555 1_555
O15 C23 1_555 1_555
C24 O15 1_555 1_555
C25 C26 1_555 1_555
C26 H4 1_555 1_555
C27 C26 1_555 1_555
C28 C27 1_555 1_555
H5 C28 1_555 1_555
C29 C28 1_555 1_555
C30 C25 1_555 1_555
H6 C30 1_555 1_555
O16 Fe1 1_555 1_555
C31 C25 1_555 1_555
C32 C31 1_555 1_555
O17 Fe1 1_555 1_555
C33 C32 1_555 1_555
O18 C33 1_555 1_555
C34 O18 1_555 1_555
C35 C32 1_555 1_555
O19 C35 1_555 1_555
C36 O20 1_555 1_555
O20 C35 1_555 1_555
O21 Fe1 1_555 1_555
C37 C27 1_555 1_555
C38 C37 1_555 1_555
O22 Fe1 1_555 1_555
C39 C38 1_555 1_555
O23 C39 1_555 1_555
C40 O23 1_555 1_555
O24 C41 1_555 1_555
C41 C38 1_555 1_555
O25 C41 1_555 1_555
C42 O25 1_555 1_555
O26 Fe2 1_555 1_555
C43 C29 1_555 1_555
C44 C43 1_555 1_555
O27 Fe2 1_555 1_555
C45 C44 1_555 1_555
O28 C45 1_555 1_555
C46 O28 1_555 1_555
O29 C47 1_555 1_555
C47 C44 1_555 1_555
O30 C47 1_555 1_555
C48 O30 1_555 1_555
C49 C10 1_555 1_555
H7 C49 1_555 1_555
H8 C49 1_555 1_555
H9 C49 1_555 1_555
C50 C10 1_555 1_555
H10 C50 1_555 1_555
H11 C50 1_555 1_555
H12 C50 1_555 1_555
C51 C10 1_555 1_555
H13 C51 1_555 1_555
H14 C51 1_555 1_555
H15 C51 1_555 1_555
C52 C12 1_555 1_555
H16 C52 1_555 1_555
H17 C52 1_555 1_555
H18 C52 1_555 1_555
C53 C12 1_555 1_555
H19 C53 1_555 1_555
H20 C53 1_555 1_555
H21 C53 1_555 1_555
C54 C12 1_555 1_555
H22 C54 1_555 1_555
H23 C54 1_555 1_555
H24 C54 1_555 1_555
C55 C16 1_555 1_555
H25 C55 1_555 1_555
H26 C55 1_555 1_555
H27 C55 1_555 1_555
C56 C16 1_555 1_555
H28 C56 1_555 1_555
H29 C56 1_555 1_555
H30 C56 1_555 1_555
C57 C16 1_555 1_555
H31 C57 1_555 1_555
H32 C57 1_555 1_555
H33 C57 1_555 1_555
C58 C18 1_555 1_555
H34 C58 1_555 1_555
H35 C58 1_555 1_555
H36 C58 1_555 1_555
C59 C18 1_555 1_555
H37 C59 1_555 1_555
H38 C59 1_555 1_555
H39 C59 1_555 1_555
C60 C18 1_555 1_555
H40 C60 1_555 1_555
H41 C60 1_555 1_555
H42 C60 1_555 1_555
C61 C22 1_555 1_555
H43 C61 1_555 1_555
H44 C61 1_555 1_555
H45 C61 1_555 1_555
C62 C22 1_555 1_555
H46 C62 1_555 1_555
H47 C62 1_555 1_555
H48 C62 1_555 1_555
C63 C22 1_555 1_555
H49 C63 1_555 1_555
H50 C63 1_555 1_555
H51 C63 1_555 1_555
C64 C24 1_555 1_555
H52 C64 1_555 1_555
H53 C64 1_555 1_555
H54 C64 1_555 1_555
C65 C24 1_555 1_555
H55 C65 1_555 1_555
H56 C65 1_555 1_555
H57 C65 1_555 1_555
C66 C24 1_555 1_555
H58 C66 1_555 1_555
H59 C66 1_555 1_555
H60 C66 1_555 1_555
C67 C34 1_555 1_555
H61 C67 1_555 1_555
H62 C67 1_555 1_555
H63 C67 1_555 1_555
C68 C34 1_555 1_555
H64 C68 1_555 1_555
H65 C68 1_555 1_555
H66 C68 1_555 1_555
C69 C34 1_555 1_555
H67 C69 1_555 1_555
H68 C69 1_555 1_555
H69 C69 1_555 1_555
C70 C36 1_555 1_555
H70 C70 1_555 1_555
H71 C70 1_555 1_555
H72 C70 1_555 1_555
C71 C36 1_555 1_555
H73 C71 1_555 1_555
H74 C71 1_555 1_555
H75 C71 1_555 1_555
C72 C36 1_555 1_555
H76 C72 1_555 1_555
H77 C72 1_555 1_555
H78 C72 1_555 1_555
C73 C40 1_555 1_555
H79 C73 1_555 1_555
H80 C73 1_555 1_555
H81 C73 1_555 1_555
C74 C40 1_555 1_555
H82 C74 1_555 1_555
H83 C74 1_555 1_555
H84 C74 1_555 1_555
C75 C40 1_555 1_555
H85 C75 1_555 1_555
H86 C75 1_555 1_555
H87 C75 1_555 1_555
C76 C42 1_555 1_555
H88 C76 1_555 1_555
H89 C76 1_555 1_555
H90 C76 1_555 1_555
C77 C42 1_555 1_555
H91 C77 1_555 1_555
H92 C77 1_555 1_555
H93 C77 1_555 1_555
C78 C42 1_555 1_555
H94 C78 1_555 1_555
H95 C78 1_555 1_555
H96 C78 1_555 1_555
C79 C46 1_555 1_555
H97 C79 1_555 1_555
H98 C79 1_555 1_555
H99 C79 1_555 1_555
C80 C46 1_555 1_555
H100 C80 1_555 1_555
H101 C80 1_555 1_555
H102 C80 1_555 1_555
C81 C46 1_555 1_555
H103 C81 1_555 1_555
H104 C81 1_555 1_555
H105 C81 1_555 1_555
C82 C48 1_555 1_555
H106 C82 1_555 1_555
H107 C82 1_555 1_555
H108 C82 1_555 1_555
C83 C48 1_555 1_555
H109 C83 1_555 1_555
H110 C83 1_555 1_555
H111 C83 1_555 1_555
C84 C48 1_555 1_555
H112 C84 1_555 1_555
H113 C84 1_555 1_555
H114 C84 1_555 1_555
O31 C85 1_555 1_555
C85 C86 1_555 1_555
C86 H115 1_555 1_555
H116 C86 1_555 1_555
H117 C86 1_555 1_555
C87 C85 1_555 1_555
H118 C87 1_555 1_555
H119 C87 1_555 1_555
H120 C87 1_555 1_555
O11F C19 1_555 1_555
Fe2F O11F 1_555 1_555
O6F Fe2F 1_555 1_555
C13F O6F 1_555 1_555
C3F C13F 1_555 1_555
C2F C3F 1_555 1_555
C1F C2F 1_555 1_555
C6F C1F 1_555 1_555
C5F C6F 1_555 1_555
C4F C3F 1_555 1_555
H2F C4F 1_555 1_555
C19F O11 1_555 1_555
C21F O12 1_555 1_555
C20F C19F 1_555 1_555
C23F C20F 1_555 1_555
O14F C23F 1_555 1_555
O15F C23F 1_555 1_555
C24F O15F 1_555 1_555
C64F C24F 1_555 1_555
H52F C64F 1_555 1_555
H53F C64F 1_555 1_555
H54F C64F 1_555 1_555
C65F C24F 1_555 1_555
H55F C65F 1_555 1_555
H56F C65F 1_555 1_555
H57F C65F 1_555 1_555
C66F C24F 1_555 1_555
H58F C66F 1_555 1_555
H59F C66F 1_555 1_555
H60F C66F 1_555 1_555
O13F C21F 1_555 1_555
C22F O13F 1_555 1_555
C61F C22F 1_555 1_555
H43F C61F 1_555 1_555
H44F C61F 1_555 1_555
H45F C61F 1_555 1_555
C62F C22F 1_555 1_555
H46F C62F 1_555 1_555
H47F C62F 1_555 1_555
H48F C62F 1_555 1_555
C63F C22F 1_555 1_555
H49F C63F 1_555 1_555
H50F C63F 1_555 1_555
H51F C63F 1_555 1_555
C43F O26 1_555 1_555
C29F C43F 1_555 1_555
C28F C29F 1_555 1_555
C27F C28F 1_555 1_555
C26F C27F 1_555 1_555
C25F C26F 1_555 1_555
C30F C29F 1_555 1_555
H6F C30F 1_555 1_555
C31F C25F 1_555 1_555
O16F C31F 1_555 1_555
Fe1F O16F 1_555 1_555
O1F Fe1F 1_555 1_555
C7F C1F 1_555 1_555
C8F C7F 1_555 1_555
C9F C8F 1_555 1_555
O2F Fe1F 1_555 1_555
O17F Fe1F 1_555 1_555
C33F O17F 1_555 1_555
C32F C31F 1_555 1_555
C35F C32F 1_555 1_555
O19F C35F 1_555 1_555
O20F C35F 1_555 1_555
C36F O20F 1_555 1_555
C70F C36F 1_555 1_555
H70F C70F 1_555 1_555
H71F C70F 1_555 1_555
H72F C70F 1_555 1_555
C71F C36F 1_555 1_555
H73F C71F 1_555 1_555
H74F C71F 1_555 1_555
H75F C71F 1_555 1_555
C72F C36F 1_555 1_555
H76F C72F 1_555 1_555
H77F C72F 1_555 1_555
H78F C72F 1_555 1_555
O18F C33F 1_555 1_555
C34F O18F 1_555 1_555
C67F C34F 1_555 1_555
H61F C67F 1_555 1_555
H62F C67F 1_555 1_555
H63F C67F 1_555 1_555
C68F C34F 1_555 1_555
H64F C68F 1_555 1_555
H65F C68F 1_555 1_555
H66F C68F 1_555 1_555
C69F C34F 1_555 1_555
H67F C69F 1_555 1_555
H68F C69F 1_555 1_555
H69F C69F 1_555 1_555
O21F C37 1_555 1_555
O26F C43 1_555 1_555
O7F Fe2F 1_555 1_555
C15F O7F 1_555 1_555
C14F C13F 1_555 1_555
C17F C14F 1_555 1_555
O9F C17F 1_555 1_555
O10F C17F 1_555 1_555
C18F O10F 1_555 1_555
C58F C18F 1_555 1_555
H34F C58F 1_555 1_555
H35F C58F 1_555 1_555
H36F C58F 1_555 1_555
C59F C18F 1_555 1_555
H37F C59F 1_555 1_555
H38F C59F 1_555 1_555
H39F C59F 1_555 1_555
C60F C18F 1_555 1_555
H40F C60F 1_555 1_555
H41F C60F 1_555 1_555
H42F C60F 1_555 1_555
O8F C15F 1_555 1_555
C16F O8F 1_555 1_555
C55F C16F 1_555 1_555
H25F C55F 1_555 1_555
H26F C55F 1_555 1_555
H27F C55F 1_555 1_555
C56F C16F 1_555 1_555
H28F C56F 1_555 1_555
H29F C56F 1_555 1_555
H30F C56F 1_555 1_555
C57F C16F 1_555 1_555
H31F C57F 1_555 1_555
H32F C57F 1_555 1_555
H33F C57F 1_555 1_555
O12F C21 1_555 1_555
O27F C45 1_555 1_555
C37F O21 1_555 1_555
C38F C37F 1_555 1_555
C39F O22 1_555 1_555
O23F C39F 1_555 1_555
C40F O23F 1_555 1_555
C73F C40F 1_555 1_555
H79F C73F 1_555 1_555
H80F C73F 1_555 1_555
H81F C73F 1_555 1_555
C74F C40F 1_555 1_555
H82F C74F 1_555 1_555
H83F C74F 1_555 1_555
H84F C74F 1_555 1_555
C75F C40F 1_555 1_555
H85F C75F 1_555 1_555
H86F C75F 1_555 1_555
H87F C75F 1_555 1_555
C41F C38F 1_555 1_555
O24F C41F 1_555 1_555
O25F C41F 1_555 1_555
C42F O25F 1_555 1_555
C76F C42F 1_555 1_555
H88F C76F 1_555 1_555
H89F C76F 1_555 1_555
H90F C76F 1_555 1_555
C77F C42F 1_555 1_555
H91F C77F 1_555 1_555
H92F C77F 1_555 1_555
H93F C77F 1_555 1_555
C78F C42F 1_555 1_555
H94F C78F 1_555 1_555
H95F C78F 1_555 1_555
H96F C78F 1_555 1_555
O22F C39 1_555 1_555
O3F C9F 1_555 1_555
C10F O3F 1_555 1_555
C49F C10F 1_555 1_555
H7F C49F 1_555 1_555
H8F C49F 1_555 1_555
H9F C49F 1_555 1_555
C50F C10F 1_555 1_555
H10F C50F 1_555 1_555
H11F C50F 1_555 1_555
H12F C50F 1_555 1_555
C51F C10F 1_555 1_555
H13F C51F 1_555 1_555
H14F C51F 1_555 1_555
H15F C51F 1_555 1_555
C11F C8F 1_555 1_555
O4F C11F 1_555 1_555
O5F C11F 1_555 1_555
C12F O5F 1_555 1_555
C52F C12F 1_555 1_555
H16F C52F 1_555 1_555
H17F C52F 1_555 1_555
H18F C52F 1_555 1_555
C53F C12F 1_555 1_555
H19F C53F 1_555 1_555
H20F C53F 1_555 1_555
H21F C53F 1_555 1_555
C54F C12F 1_555 1_555
H22F C54F 1_555 1_555
H23F C54F 1_555 1_555
H24F C54F 1_555 1_555
H4F C26F 1_555 1_555
H5F C28F 1_555 1_555
C44F C43F 1_555 1_555
C45F O27 1_555 1_555
O28F C45F 1_555 1_555
C46F O28F 1_555 1_555
C79F C46F 1_555 1_555
H97F C79F 1_555 1_555
H98F C79F 1_555 1_555
H99F C79F 1_555 1_555
C80F C46F 1_555 1_555
H100F C80F 1_555 1_555
H101F C80F 1_555 1_555
H102F C80F 1_555 1_555
C81F C46F 1_555 1_555
H103F C81F 1_555 1_555
H104F C81F 1_555 1_555
H105F C81F 1_555 1_555
C47F C44F 1_555 1_555
O29F C47F 1_555 1_555
O30F C47F 1_555 1_555
C48F O30F 1_555 1_555
C82F C48F 1_555 1_555
H106F C82F 1_555 1_555
H107F C82F 1_555 1_555
H108F C82F 1_555 1_555
C83F C48F 1_555 1_555
H109F C83F 1_555 1_555
H110F C83F 1_555 1_555
H111F C83F 1_555 1_555
C84F C48F 1_555 1_555
H112F C84F 1_555 1_555
H113F C84F 1_555 1_555
H114F C84F 1_555 1_555
H3F C6F 1_555 1_555
H1F C2F 1_555 1_555
C5 C6 1_555 1_555
O2 C9 1_555 1_555
O7 C15 1_555 1_555
C29 C30 1_555 1_555
O16 C31 1_555 1_555
O17 C33 1_555 1_555
Fe2F O12F 1_555 1_555
Fe2F O27F 1_555 1_555
Fe2F O26F 1_555 1_555
C5F C4F 1_555 1_555
C5F C19F 1_555 1_555
C21F C20F 1_555 1_555
C27F C37F 1_555 1_555
C25F C30F 1_555 1_555
Fe1F O21F 1_555 1_555
Fe1F O22F 1_555 1_555
O1F C7F 1_555 1_555
C9F O2F 1_555 1_555
C33F C32F 1_555 1_555
C15F C14F 1_555 1_555
C38F C39F 1_555 1_555
C44F C45F 1_555 1_555

#END
