
#######################################################################
#
#                 Cambridge Crystallographic Data Centre
#                                CCDC 
#
#######################################################################
#
# If this CIF has been generated from an entry in the Cambridge 
# Structural Database, then it will include bibliographic, chemical, 
# crystal, experimental, refinement or atomic coordinate data resulting 
# from the CCDC's data processing and validation procedures.
#
#######################################################################

data_ADORAO
_chemical_formula_moiety         
'C172 H152 B4 Fe4 N68 Ni4 O4 S28 4+,4(B1 F4 1-),4(H2 O1),23(C3 H6 O1),24(C1 H4 O1)'
_chemical_name_systematic        
"dodecakis(\m~2~-cyanido)-tetrakis(1,1',1''-(2-((4-(((2-(5,6-dihydro[1,3]dithiolo[4,5-b][1,4]dithiin-2-ylidene)-5-methyl-1,3-dithiol-4-yl)sulfanyl)methyl)benzyl)oxy)ethane-1,1,1-triyl)tris(1H-pyrazole))-tetrakis(tetrakis(pyrazol-1-yl)borate)-tetra-iron(iii)-tetra-nickel(ii) tetrakis(tetrafluoroborate) acetone methanol solvate tetrahydrate"
_symmetry_cell_setting           triclinic
_symmetry_space_group_name_H-M   'P -1'
_symmetry_Int_Tables_number      2
_space_group_name_Hall           '-P 1'
loop_
_symmetry_equiv_pos_site_id
_symmetry_equiv_pos_as_xyz
1 x,y,z
2 -x,-y,-z
_cell_length_a                   17.318(5)
_cell_length_b                   29.061(8)
_cell_length_c                   29.958(8)
_cell_angle_alpha                70.275(4)
_cell_angle_beta                 89.925(4)
_cell_angle_gamma                74.594(4)
_cell_volume                     13617.6
_exptl_crystal_colour            red
_exptl_crystal_description       block
_cell_formula_units_Z            2
loop_
_atom_site_label
_atom_site_type_symbol
_atom_site_fract_x
_atom_site_fract_y
_atom_site_fract_z
B5 B 0.6300(10) -0.0750(7) 0.4186(7)
F1 F 0.7033(6) -0.0752(3) 0.4001(4)
F2 F 0.6465(5) -0.1207(3) 0.4587(3)
F3 F 0.5751(7) -0.0786(4) 0.3832(4)
F4 F 0.5955(5) -0.0370(3) 0.4294(4)
B6 B 0.8450(19) 0.4355(10) 0.9561(10)
F5 F 0.8061(11) 0.3997(7) 0.9591(5)
F6 F 0.9158(9) 0.4156(6) 0.9626(3)
F7 F 0.8116(6) 0.4751(4) 0.9120(3)
F8 F 0.8233(13) 0.4570(7) 0.9900(5)
B7 B 0.7961(13) 0.4534(9) 0.5480(7)
F9 F 0.8144(9) 0.4047(4) 0.5871(5)
F10 F 0.7901(5) 0.4924(3) 0.5664(3)
F11 F 0.7333(9) 0.4615(5) 0.5208(7)
F12 F 0.8587(9) 0.4535(5) 0.5200(5)
B8 B 0.7786(13) 0.3288(7) 0.3228(7)
F13 F 0.7158(10) 0.3172(6) 0.3046(5)
F14 F 0.8182(7) 0.2834(4) 0.3608(4)
F15 F 0.7440(9) 0.3686(4) 0.3431(5)
F16 F 0.8270(12) 0.3441(6) 0.2942(6)
Fe1 Fe 0.18654(10) 0.19073(6) 0.35138(6)
C1 C 0.1659(7) 0.2480(5) 0.2911(5)
N1 N 0.1514(6) 0.2818(4) 0.2567(4)
Ni1 Ni 0.12835(10) 0.33808(7) 0.19277(6)
N2 N 0.1019(6) 0.3939(4) 0.2225(3)
C2 C 0.0859(8) 0.4204(5) 0.2436(4)
Fe2 Fe 0.06699(12) 0.47005(7) 0.27509(7)
C3 C 0.0921(7) 0.4138(5) 0.3347(5)
N3 N 0.1065(6) 0.3802(4) 0.3689(4)
Ni2 Ni 0.13037(9) 0.32238(6) 0.43481(6)
N4 N 0.1481(6) 0.2701(4) 0.4029(3)
C4 C 0.1625(7) 0.2416(4) 0.3834(4)
C5 C 0.2963(6) 0.1916(4) 0.3530(4)
N5 N 0.3629(5) 0.1913(4) 0.3502(3)
Ni3 Ni 0.48033(9) 0.19234(6) 0.35113(6)
N6 N 0.4591(6) 0.2450(4) 0.3846(4)
C6 C 0.4493(6) 0.2693(4) 0.4087(4)
Fe3 Fe 0.42860(10) 0.31713(7) 0.44172(6)
C7 C 0.3163(8) 0.3180(5) 0.4386(4)
N7 N 0.2494(6) 0.3199(4) 0.4368(3)
N8 N 0.4595(6) 0.2459(4) 0.2851(4)
C8 C 0.4457(7) 0.2795(5) 0.2506(4)
Fe4 Fe 0.42525(12) 0.33349(8) 0.18758(6)
C9 C 0.3133(7) 0.3357(5) 0.1883(4)
N9 N 0.2457(6) 0.3383(4) 0.1906(3)
C10 C 0.4020(8) 0.3802(5) 0.2207(5)
N10 N 0.3915(6) 0.4055(5) 0.2439(4)
Ni4 Ni 0.36642(11) 0.45847(7) 0.27749(6)
N11 N 0.2489(7) 0.4611(4) 0.2785(4)
C11 C 0.1812(8) 0.4645(5) 0.2741(5)
N12 N 0.3946(6) 0.4021(4) 0.3440(4)
C12 C 0.4072(7) 0.3716(5) 0.3808(5)
N13 N 0.2128(6) 0.1412(4) 0.3190(4)
N14 N 0.1859(6) 0.0997(4) 0.3311(4)
C13 C 0.2186(10) 0.0746(6) 0.3028(6)
H1 H 0.2090 0.0431 0.3056
C14 C 0.2652(11) 0.0943(7) 0.2704(7)
H2 H 0.2941 0.0831 0.2473
C15 C 0.2551(8) 0.1402(5) 0.2839(4)
H3 H 0.2782 0.1668 0.2678
N15 N 0.0766(6) 0.1878(4) 0.3483(4)
N16 N 0.0595(6) 0.1409(4) 0.3572(4)
C16 C -0.0229(9) 0.1488(7) 0.3494(6)
H4 H -0.0495 0.1236 0.3511
C17 C -0.0592(9) 0.2010(7) 0.3385(7)
H5 H -0.1150 0.2181 0.3345
C18 C 0.0017(8) 0.2213(6) 0.3351(7)
H6 H -0.0064 0.2571 0.3240
N17 N 0.2094(5) 0.1330(4) 0.4115(4)
N18 N 0.1779(6) 0.0914(4) 0.4168(4)
C19 C 0.1961(9) 0.0603(6) 0.4614(5)
H7 H 0.1831 0.0289 0.4738
C20 C 0.2367(8) 0.0791(5) 0.4881(5)
H8 H 0.2533 0.0656 0.5213
C21 C 0.2467(8) 0.1219(5) 0.4546(5)
H9 H 0.2773 0.1419 0.4611
B1 B 0.1310(9) 0.0939(6) 0.3701(5)
N19 N 0.1057(7) 0.0476(4) 0.3793(5)
C22 C 0.0511(11) 0.0402(5) 0.3488(6)
H10 H 0.0169 0.0660 0.3225
C23 C 0.0566(14) -0.0126(6) 0.3646(8)
H11 H 0.0302 -0.0291 0.3497
C24 C 0.1063(17) -0.0341(8) 0.4045(9)
H12 H 0.1203 -0.0688 0.4250
N20 N 0.1331(13) 0.0047(7) 0.4098(7)
N21 N -0.0492(7) 0.4743(4) 0.2757(4)
N22 N -0.1042(7) 0.5200(5) 0.2643(5)
C25 C -0.1803(12) 0.5105(9) 0.2682(9)
H13 H -0.2309 0.5357 0.2597
C26 C -0.1685(11) 0.4580(7) 0.2868(7)
H14 H -0.2078 0.4401 0.2961
C27 C -0.0878(10) 0.4384(7) 0.2884(6)
H15 H -0.0616 0.4030 0.2977
N23 N 0.0485(7) 0.5208(4) 0.3065(4)
N24 N -0.0178(8) 0.5627(5) 0.2927(5)
C28 C -0.0154(10) 0.5912(6) 0.3183(7)
H16 H -0.0538 0.6228 0.3146
C29 C 0.0509(10) 0.5686(6) 0.3510(6)
H17 H 0.0669 0.5806 0.3743
C30 C 0.0899(9) 0.5238(6) 0.3424(6)
H18 H 0.1382 0.4995 0.3595
N25 N 0.0378(8) 0.5272(5) 0.2124(4)
N26 N -0.0269(8) 0.5663(4) 0.2081(4)
C31 C -0.0324(14) 0.5981(8) 0.1631(7)
H19 H -0.0712 0.6303 0.1491
C32 C 0.0254(12) 0.5769(8) 0.1418(7)
H20 H 0.0330 0.5902 0.1090
C33 C 0.0734(11) 0.5324(6) 0.1746(5)
H21 H 0.1220 0.5106 0.1700
N27 N -0.1384(8) 0.6165(4) 0.2372(5)
C34 C -0.1341(7) 0.6662(5) 0.2101(6)
H22 H -0.0891 0.6746 0.1948
C35 C -0.2090(9) 0.7013(4) 0.2101(7)
H23 H -0.2228 0.7372 0.1947
C36 C -0.2595(8) 0.6733(7) 0.2371(7)
H24 H -0.3131 0.6871 0.2429
N28 N -0.2159(10) 0.6209(6) 0.2538(6)
N29 N 0.4538(6) 0.2603(4) 0.5031(4)
N30 N 0.5051(6) 0.2572(4) 0.5398(4)
C37 C 0.5177(11) 0.2108(6) 0.5738(6)
H25 H 0.5529 0.1993 0.6020
C38 C 0.4753(11) 0.1829(7) 0.5635(6)
H26 H 0.4727 0.1499 0.5825
C39 C 0.4355(9) 0.2135(5) 0.5182(5)
H27 H 0.4013 0.2039 0.5004
N31 N 0.4102(6) 0.3642(4) 0.4770(3)
N32 N 0.4620(6) 0.3505(4) 0.5172(4)
C40 C 0.4357(9) 0.3868(7) 0.5363(5)
H28 H 0.4607 0.3873 0.5643
C41 C 0.3682(11) 0.4232(7) 0.5103(6)
H29 H 0.3383 0.4528 0.5161
C42 C 0.3532(9) 0.4066(6) 0.4731(5)
H30 H 0.3093 0.4231 0.4490
N33 N 0.5427(6) 0.3142(4) 0.4450(3)
N34 N 0.5839(6) 0.3085(4) 0.4883(3)
C43 C 0.6607(8) 0.3038(5) 0.4805(5)
H31 H 0.7026 0.2981 0.5038
C44 C 0.6707(8) 0.3083(5) 0.4340(5)
H32 H 0.7191 0.3082 0.4191
C45 C 0.5982(8) 0.3130(5) 0.4136(5)
H33 H 0.5879 0.3151 0.3817
N35 N 0.5814(7) 0.3007(5) 0.5760(4)
N36 N 0.6393(10) 0.3206(7) 0.5773(5)
B2 B 0.5349(8) 0.3058(6) 0.5295(5)
C46 C 0.6556(13) 0.3178(8) 0.6205(6)
H34 H 0.6985 0.3277 0.6307
C47 C 0.6034(12) 0.2989(8) 0.6489(7)
H35 H 0.6011 0.2930 0.6819
C48 C 0.5538(11) 0.2900(7) 0.6187(6)
H36 H 0.5077 0.2782 0.6270
N37 N 0.4496(7) 0.2876(6) 0.1531(4)
N38 N 0.4963(8) 0.2933(7) 0.1170(4)
C49 C 0.5076(14) 0.2523(9) 0.1029(7)
H37 H 0.5396 0.2463 0.0785
C50 C 0.4686(14) 0.2236(10) 0.1274(7)
H38 H 0.4648 0.1932 0.1234
C51 C 0.4317(11) 0.2428(8) 0.1613(6)
H39 H 0.4006 0.2278 0.1850
N39 N 0.5376(8) 0.3330(6) 0.1861(4)
N40 N 0.5745(9) 0.3377(7) 0.1448(5)
C52 C 0.6482(13) 0.3370(11) 0.1501(7)
H40 H 0.6849 0.3390 0.1263
C53 C 0.6651(12) 0.3325(11) 0.1983(7)
H41 H 0.7149 0.3315 0.2126
C54 C 0.5936(9) 0.3300(7) 0.2209(6)
H42 H 0.5856 0.3268 0.2530
N41 N 0.4014(4) 0.3865(3) 0.1265(3)
N42 N 0.4538(4) 0.3854(4) 0.0901(3)
C55 C 0.4215(4) 0.4300(5) 0.0497(3)
H43 H 0.4442 0.4391 0.0202
C56 C 0.3491(5) 0.4586(3) 0.0611(3)
H44 H 0.3149 0.4902 0.0406
C57 C 0.3367(4) 0.4317(3) 0.1086(3)
H45 H 0.2928 0.4422 0.1254
B3 B 0.5283(12) 0.3379(7) 0.1039(8)
B4 B -0.0714(12) 0.5656(7) 0.2520(6)
N43 N 0.1428(8) 0.2856(6) 0.1580(4)
N44 N 0.0952(8) 0.2976(5) 0.1179(4)
C58 C 0.1190(13) 0.2626(8) 0.0986(7)
H46 H 0.0907 0.2571 0.0746
C59 C 0.1914(14) 0.2367(10) 0.1205(7)
H47 H 0.2309 0.2130 0.1111
C60 C 0.1987(12) 0.2497(8) 0.1572(7)
H48 H 0.2429 0.2331 0.1811
N45 N 0.0095(7) 0.3366(4) 0.1891(4)
N46 N -0.0238(8) 0.3366(5) 0.1472(5)
C61 C -0.1016(11) 0.3357(9) 0.1496(8)
H49 H -0.1374 0.3357 0.1256
C62 C -0.1177(12) 0.3346(9) 0.1976(8)
H50 H -0.1662 0.3336 0.2123
C63 C -0.0459(9) 0.3354(6) 0.2165(7)
H51 H -0.0386 0.3351 0.2480
N47 N 0.0965(3) 0.3896(3) 0.1254(2)
N48 N 0.0443(4) 0.3835(3) 0.0927(3)
C64 C 0.0220(4) 0.4293(4) 0.0526(3)
H52 H -0.0126 0.4358 0.0252
C65 C 0.0605(4) 0.4637(3) 0.0604(3)
H53 H 0.0561 0.4973 0.0393
C66 C 0.1065(4) 0.4392(3) 0.1055(3)
H54 H 0.1384 0.4535 0.1198
C67 C 0.0202(11) 0.3400(6) 0.1070(6)
C68 C -0.0313(11) 0.3413(7) 0.0646(6)
H55 H -0.0804 0.3705 0.0562
H56 H -0.0004 0.3445 0.0364
O1 O -0.0506(8) 0.2976(5) 0.0784(4)
C69 C -0.0977(14) 0.2958(8) 0.0389(7)
H57 H -0.1491 0.3233 0.0312
H58 H -0.0677 0.3018 0.0103
C70 C -0.1141(14) 0.2486(6) 0.0501(7)
C71 C -0.0570(11) 0.2093(9) 0.0418(7)
H59 H -0.0113 0.2157 0.0261
C72 C -0.0669(14) 0.1607(7) 0.0566(8)
H60 H -0.0279 0.1338 0.0510
C73 C -0.1339(17) 0.1513(7) 0.0796(7)
C74 C -0.1909(13) 0.1906(10) 0.0878(7)
H61 H -0.2367 0.1842 0.1036
C75 C -0.1810(12) 0.2393(8) 0.0731(7)
H62 H -0.2200 0.2661 0.0787
C76 C -0.174(2) 0.1060(13) 0.0936(10)
H63 H -0.2054 0.1074 0.1209
H64 H -0.1304 0.0735 0.1045
S1 S -0.2400(7) 0.1047(5) 0.0467(4)
C77 C -0.1852(8) 0.0961(5) 0.0015(5)
C78 C -0.1397(12) 0.1124(7) -0.0321(7)
C79 C -0.1487(18) 0.1689(8) -0.0465(11)
H65 H -0.1033 0.1769 -0.0640
H66 H -0.1495 0.1782 -0.0180
H67 H -0.1991 0.1882 -0.0669
S2 S -0.1479(8) 0.0264(4) 0.0168(4)
C80 C -0.1033(16) 0.0313(8) -0.0373(8)
S3 S -0.0631(7) 0.0849(4) -0.0566(4)
C81 C -0.0799(15) -0.0066(8) -0.0548(7)
S4 S -0.0303(6) -0.0032(4) -0.1067(4)
C82 C -0.078(2) -0.0411(12) -0.1213(7)
C83 C -0.1227(19) -0.0635(11) -0.0890(9)
S5 S -0.1109(7) -0.0605(4) -0.0303(3)
S6 S -0.0797(9) -0.0394(6) -0.1803(4)
S7 S -0.1655(9) -0.1133(5) -0.0890(5)
C84 C -0.083(2) -0.1044(10) -0.1717(16)
H68 H -0.0829 -0.1117 -0.2017
H69 H -0.0415 -0.1311 -0.1474
C85 C -0.167(2) -0.0942(16) -0.1539(8)
H70 H -0.1984 -0.1125 -0.1652
H71 H -0.1943 -0.0573 -0.1682
N49 N 0.0080(6) 0.3257(3) 0.4398(4)
N50 N -0.0229(6) 0.3275(4) 0.4808(4)
C86 C -0.1087(8) 0.3393(5) 0.4720(6)
H72 H -0.1470 0.3414 0.4945
C87 C -0.1228(9) 0.3462(7) 0.4293(7)
H73 H -0.1752 0.3562 0.4134
C88 C -0.0515(8) 0.3373(6) 0.4078(5)
H74 H -0.0471 0.3394 0.3756
N51 N 0.1457(6) 0.2666(4) 0.5033(3)
N52 N 0.0901(6) 0.2745(4) 0.5341(4)
C89 C 0.1095(10) 0.2335(6) 0.5740(6)
H75 H 0.0783 0.2282 0.6004
C90 C 0.1737(11) 0.2034(7) 0.5717(6)
H76 H 0.2026 0.1736 0.5969
C91 C 0.1966(8) 0.2210(5) 0.5250(5)
H77 H 0.2398 0.2037 0.5118
N53 N 0.1050(6) 0.3745(4) 0.4716(4)
N54 N 0.0593(7) 0.3648(4) 0.5085(4)
C92 C 0.0463(9) 0.4034(5) 0.5268(5)
H78 H 0.0120 0.4082 0.5506
C93 C 0.0922(10) 0.4329(6) 0.5040(6)
H79 H 0.1008 0.4608 0.5110
C94 C 0.1236(8) 0.4161(5) 0.4700(4)
H80 H 0.1555 0.4321 0.4474
C95 C 0.0231(7) 0.3226(4) 0.5213(5)
C96 C -0.0242(10) 0.3232(6) 0.5628(5)
H81 H 0.0116 0.3179 0.5909
H82 H -0.0657 0.3563 0.5553
O2 O -0.0625(6) 0.2811(4) 0.5725(4)
C97 C -0.1178(10) 0.2820(6) 0.6079(5)
H83 H -0.1467 0.2562 0.6101
H84 H -0.1583 0.3158 0.5971
C98 C -0.0823(8) 0.2724(6) 0.6547(4)
C99 C -0.0324(9) 0.2234(5) 0.6776(5)
H85 H -0.0260 0.1985 0.6628
C100 C 0.0081(10) 0.2108(4) 0.7219(5)
H86 H 0.0421 0.1774 0.7376
C101 C -0.0013(10) 0.2473(6) 0.7435(4)
C102 C -0.0512(10) 0.2963(5) 0.7206(5)
H87 H -0.0576 0.3212 0.7353
C103 C -0.0917(8) 0.3088(4) 0.6762(5)
H88 H -0.1257 0.3423 0.6606
C104 C 0.0450(19) 0.2356(10) 0.7916(8)
H89 H 0.0407 0.2678 0.7972
H90 H 0.1026 0.2192 0.7908
S8 S 0.0056(7) 0.1938(4) 0.8403(2)
C105 C 0.0730(19) 0.1938(10) 0.8867(10)
C106 C 0.133(2) 0.1539(15) 0.9089(9)
C107 C 0.170(2) 0.0993(13) 0.9145(14)
H91 H 0.1306 0.0870 0.9015
H92 H 0.1844 0.0789 0.9484
H93 H 0.2179 0.0961 0.8974
S9 S 0.0447(6) 0.2448(3) 0.9062(3)
C108 C 0.1326(13) 0.2195(7) 0.9471(6)
S10 S 0.1864(7) 0.1554(4) 0.9603(3)
C109 C 0.1536(11) 0.2494(7) 0.9682(6)
S11 S 0.2435(5) 0.2289(4) 1.0071(3)
C110 C 0.2453(15) 0.2920(8) 0.9991(11)
C111 C 0.1801(13) 0.3325(8) 0.9802(12)
S12 S 0.0998(5) 0.3122(3) 0.9595(2)
S13 S 0.3263(6) 0.2996(5) 1.0312(4)
C112 C 0.2707(18) 0.3514(9) 1.0475(11)
H94 H 0.2334 0.3383 1.0703
H95 H 0.3095 0.3597 1.0656
C113 C 0.2230(17) 0.3998(11) 1.0123(10)
H96 H 0.2604 0.4157 0.9917
H97 H 0.1976 0.4227 1.0296
S14 S 0.1473(8) 0.3966(4) 0.9754(3)
N55 N 0.5140(6) 0.1339(4) 0.3218(3)
N56 N 0.5826(6) 0.0930(4) 0.3438(4)
C114 C 0.5875(9) 0.0568(6) 0.3262(5)
H98 H 0.6273 0.0248 0.3361
C115 C 0.5267(9) 0.0728(6) 0.2914(5)
H99 H 0.5152 0.0554 0.2717
C116 C 0.4850(8) 0.1206(6) 0.2913(5)
H100 H 0.4385 0.1415 0.2701
N57 N 0.6021(6) 0.1852(4) 0.3543(4)
N58 N 0.6564(6) 0.1402(4) 0.3700(4)
C117 C 0.7328(8) 0.1432(6) 0.3734(6)
H101 H 0.7803 0.1154 0.3834
C118 C 0.7290(9) 0.1909(6) 0.3604(6)
H102 H 0.7730 0.2050 0.3586
C119 C 0.6425(8) 0.2194(5) 0.3488(5)
H103 H 0.6202 0.2553 0.3394
N59 N 0.5100(5) 0.1310(4) 0.4166(4)
N60 N 0.5770(6) 0.0933(4) 0.4230(4)
C120 C 0.5837(8) 0.0571(5) 0.4666(5)
H104 H 0.6252 0.0259 0.4789
C121 C 0.5199(9) 0.0735(5) 0.4897(6)
H105 H 0.5087 0.0577 0.5214
C122 C 0.4759(8) 0.1184(5) 0.4559(5)
H106 H 0.4256 0.1383 0.4608
C123 C 0.6271(8) 0.0915(5) 0.3851(5)
C124 C 0.7030(7) 0.0467(5) 0.4020(5)
H107 H 0.7357 0.0506 0.4269
H108 H 0.6881 0.0145 0.4160
O3 O 0.7502(6) 0.0448(4) 0.3615(4)
C125 C 0.8205(10) 0.0042(7) 0.3742(6)
H109 H 0.8618 0.0124 0.3907
H110 H 0.8091 -0.0267 0.3965
C126 C 0.8498(8) -0.0053(5) 0.3340(4)
C127 C 0.8822(8) 0.0272(4) 0.2986(6)
H111 H 0.8863 0.0581 0.3012
C128 C 0.9086(8) 0.0143(6) 0.2594(5)
H112 H 0.9307 0.0365 0.2352
C129 C 0.9025(8) -0.0309(6) 0.2555(5)
C130 C 0.8701(8) -0.0634(4) 0.2909(5)
H113 H 0.8660 -0.0943 0.2882
C131 C 0.8437(7) -0.0506(5) 0.3301(5)
H114 H 0.8216 -0.0727 0.3543
C132 C 0.9351(14) -0.0406(9) 0.2124(8)
H115 H 0.9629 -0.0772 0.2201
H116 H 0.9736 -0.0207 0.1998
S15 S 0.8430(5) -0.0194(3) 0.1666(2)
C133 C 0.7620(9) -0.0377(5) 0.1938(8)
C134 C 0.7114(14) -0.0270(7) 0.2253(9)
C135 C 0.6804(17) 0.0298(7) 0.2158(9)
H117 H 0.6866 0.0363 0.2454
H118 H 0.6234 0.0419 0.2037
H119 H 0.7112 0.0478 0.1920
S16 S 0.7805(5) -0.1057(3) 0.2083(3)
C136 C 0.7233(15) -0.1146(6) 0.2576(8)
S17 S 0.6521(5) -0.0579(3) 0.2583(3)
C137 C 0.7190(13) -0.1607(6) 0.2874(7)
S18 S 0.6455(5) -0.1706(3) 0.3273(3)
C138 C 0.7001(15) -0.2313(10) 0.3587(8)
C139 C 0.7637(13) -0.2517(7) 0.3391(7)
S19 S 0.7788(6) -0.2146(3) 0.2798(3)
S20 S 0.6677(4) -0.2638(3) 0.4128(2)
S21 S 0.8227(6) -0.3166(3) 0.3578(3)
C140 C 0.7357(13) -0.3254(9) 0.4322(8)
H120 H 0.7852 -0.3241 0.4477
H121 H 0.7115 -0.3483 0.4567
C141 C 0.7594(16) -0.3483(10) 0.3948(8)
H122 H 0.7107 -0.3452 0.3755
H123 H 0.7880 -0.3850 0.4100
N61 N 0.4858(7) 0.4611(5) 0.2744(4)
N62 N 0.5020(7) 0.5096(4) 0.2578(4)
C142 C 0.5761(10) 0.5053(7) 0.2546(7)
H124 H 0.5998 0.5325 0.2430
C143 C 0.6159(11) 0.4549(7) 0.2704(9)
H125 H 0.6722 0.4399 0.2717
C144 C 0.5556(10) 0.4292(6) 0.2846(6)
H126 H 0.5658 0.3934 0.2996
N63 N 0.3461(6) 0.5164(3) 0.2138(3)
N64 N 0.3834(6) 0.5558(4) 0.2082(3)
C145 C 0.3636(7) 0.5903(3) 0.1605(3)
H127 H 0.3805 0.6202 0.1470
C146 C 0.3141(8) 0.5723(4) 0.1366(3)
H128 H 0.2921 0.5880 0.1042
C147 C 0.3033(7) 0.5266(4) 0.1695(4)
H129 H 0.2727 0.5065 0.1630
N65 N 0.3486(8) 0.5163(4) 0.3048(4)
N66 N 0.3880(7) 0.5539(4) 0.2859(4)
C148 C 0.3802(10) 0.5813(6) 0.3153(5)
H130 H 0.4024 0.6089 0.3108
C149 C 0.3375(11) 0.5647(7) 0.3511(6)
H131 H 0.3223 0.5789 0.3752
C150 C 0.3191(9) 0.5222(6) 0.3466(5)
H132 H 0.2916 0.5012 0.3681
C151 C 0.4306(9) 0.5569(6) 0.2449(5)
C152 C 0.4626(10) 0.6021(6) 0.2291(6)
H133 H 0.5009 0.6006 0.2543
H134 H 0.4905 0.6036 0.1999
O4 O 0.3941(7) 0.6452(4) 0.2197(4)
C153 C 0.4205(11) 0.6923(6) 0.2068(8)
H135 H 0.4583 0.6905 0.2325
H136 H 0.4471 0.6977 0.1769
C154 C 0.3456(8) 0.7334(5) 0.2005(6)
C155 C 0.2894(11) 0.7301(5) 0.2338(4)
H137 H 0.2976 0.7000 0.2611
C156 C 0.2213(9) 0.7708(7) 0.2272(5)
H138 H 0.1829 0.7686 0.2500
C157 C 0.2094(8) 0.8148(5) 0.1874(6)
C158 C 0.2655(11) 0.8181(5) 0.1541(4)
H139 H 0.2574 0.8481 0.1269
C159 C 0.3337(9) 0.7773(6) 0.1607(5)
H140 H 0.3721 0.7796 0.1380
C160 C 0.1379(16) 0.8644(9) 0.1800(9)
H141 H 0.0954 0.8556 0.2006
H142 H 0.1141 0.8789 0.1464
S22 S 0.1763(5) 0.9128(3) 0.1952(2)
C161 C 0.1993(16) 0.8806(10) 0.2565(7)
C162 C 0.2719(15) 0.8574(11) 0.2796(6)
C163 C 0.3431(13) 0.8430(10) 0.2570(7)
H143 H 0.3545 0.8071 0.2604
H144 H 0.3887 0.8481 0.2722
H145 H 0.3348 0.8641 0.2232
S23 S 0.1147(4) 0.8908(2) 0.2890(2)
C164 C 0.1680(12) 0.8532(7) 0.3441(6)
S24 S 0.2721(4) 0.8253(3) 0.3421(2)
C165 C 0.1310(12) 0.8443(7) 0.3866(7)
S25 S 0.1887(3) 0.8073(2) 0.44089(18)
C166 C 0.1080(10) 0.8289(6) 0.4739(5)
C167 C 0.0382(9) 0.8582(7) 0.4483(6)
S26 S 0.0299(3) 0.86807(19) 0.38765(18)
S27 S 0.1280(3) 0.8040(2) 0.53471(18)
C168 C 0.0358(9) 0.7871(7) 0.5440(8)
H146 H 0.0390 0.7591 0.5317
H147 H 0.0330 0.7730 0.5788
C169 C -0.0376(11) 0.8248(7) 0.5239(8)
H148 H -0.0580 0.8383 0.5492
H149 H -0.0756 0.8067 0.5184
S28 S -0.0487(3) 0.87804(19) 0.47189(17)
N67 N 0.5638(14) 0.3489(12) 0.0564(7)
N68 N 0.5669(16) 0.3165(9) 0.0296(11)
C170 C 0.6105(17) 0.3327(12) -0.0101(9)
H150 H 0.6217 0.3177 -0.0340
C171 C 0.6344(15) 0.3750(12) -0.0079(10)
H151 H 0.6644 0.3934 -0.0300
C172 C 0.6055(18) 0.3851(9) 0.0332(11)
H152 H 0.6128 0.4114 0.0434
loop_
_geom_bond_atom_site_label_1
_geom_bond_atom_site_label_2
_geom_bond_site_symmetry_1
_geom_bond_site_symmetry_2
Fe1 C1 1_555 1_555
C1 N1 1_555 1_555
N1 Ni1 1_555 1_555
Ni1 N2 1_555 1_555
N2 C2 1_555 1_555
C2 Fe2 1_555 1_555
Fe2 C3 1_555 1_555
C3 N3 1_555 1_555
N3 Ni2 1_555 1_555
Ni2 N4 1_555 1_555
N4 C4 1_555 1_555
C4 Fe1 1_555 1_555
C5 Fe1 1_555 1_555
N5 C5 1_555 1_555
Ni3 N5 1_555 1_555
N6 Ni3 1_555 1_555
C6 N6 1_555 1_555
Fe3 C6 1_555 1_555
C7 Fe3 1_555 1_555
N7 Ni2 1_555 1_555
N8 Ni3 1_555 1_555
C8 N8 1_555 1_555
Fe4 C8 1_555 1_555
C9 Fe4 1_555 1_555
N9 Ni1 1_555 1_555
C10 Fe4 1_555 1_555
N10 C10 1_555 1_555
Ni4 N10 1_555 1_555
N11 Ni4 1_555 1_555
C11 Fe2 1_555 1_555
N12 Ni4 1_555 1_555
C12 Fe3 1_555 1_555
N13 Fe1 1_555 1_555
N14 N13 1_555 1_555
C13 N14 1_555 1_555
H1 C13 1_555 1_555
C14 C13 1_555 1_555
H2 C14 1_555 1_555
C15 N13 1_555 1_555
H3 C15 1_555 1_555
N15 Fe1 1_555 1_555
N16 N15 1_555 1_555
C16 N16 1_555 1_555
H4 C16 1_555 1_555
C17 C16 1_555 1_555
H5 C17 1_555 1_555
C18 N15 1_555 1_555
H6 C18 1_555 1_555
N17 Fe1 1_555 1_555
N18 N17 1_555 1_555
C19 N18 1_555 1_555
H7 C19 1_555 1_555
C20 C19 1_555 1_555
H8 C20 1_555 1_555
C21 N17 1_555 1_555
H9 C21 1_555 1_555
B1 N14 1_555 1_555
N19 B1 1_555 1_555
C22 N19 1_555 1_555
H10 C22 1_555 1_555
C23 C22 1_555 1_555
H11 C23 1_555 1_555
C24 C23 1_555 1_555
H12 C24 1_555 1_555
N20 N19 1_555 1_555
N21 Fe2 1_555 1_555
N22 N21 1_555 1_555
C25 N22 1_555 1_555
H13 C25 1_555 1_555
C26 C25 1_555 1_555
H14 C26 1_555 1_555
C27 N21 1_555 1_555
H15 C27 1_555 1_555
N23 Fe2 1_555 1_555
N24 N23 1_555 1_555
C28 N24 1_555 1_555
H16 C28 1_555 1_555
C29 C28 1_555 1_555
H17 C29 1_555 1_555
C30 N23 1_555 1_555
H18 C30 1_555 1_555
N25 Fe2 1_555 1_555
N26 N25 1_555 1_555
C31 N26 1_555 1_555
H19 C31 1_555 1_555
C32 C31 1_555 1_555
H20 C32 1_555 1_555
C33 N25 1_555 1_555
H21 C33 1_555 1_555
N27 C34 1_555 1_555
C34 H22 1_555 1_555
C35 C34 1_555 1_555
H23 C35 1_555 1_555
C36 C35 1_555 1_555
H24 C36 1_555 1_555
N28 N27 1_555 1_555
N29 Fe3 1_555 1_555
N30 N29 1_555 1_555
C37 N30 1_555 1_555
H25 C37 1_555 1_555
C38 C37 1_555 1_555
H26 C38 1_555 1_555
C39 N29 1_555 1_555
H27 C39 1_555 1_555
N31 Fe3 1_555 1_555
N32 N31 1_555 1_555
C40 N32 1_555 1_555
H28 C40 1_555 1_555
C41 C40 1_555 1_555
H29 C41 1_555 1_555
C42 N31 1_555 1_555
H30 C42 1_555 1_555
N33 Fe3 1_555 1_555
N34 N33 1_555 1_555
C43 N34 1_555 1_555
H31 C43 1_555 1_555
C44 C43 1_555 1_555
H32 C44 1_555 1_555
C45 N33 1_555 1_555
H33 C45 1_555 1_555
N35 N36 1_555 1_555
N36 C46 1_555 1_555
B2 N30 1_555 1_555
C46 H34 1_555 1_555
C47 C46 1_555 1_555
H35 C47 1_555 1_555
C48 N35 1_555 1_555
H36 C48 1_555 1_555
N37 Fe4 1_555 1_555
N38 N37 1_555 1_555
C49 N38 1_555 1_555
H37 C49 1_555 1_555
C50 C49 1_555 1_555
H38 C50 1_555 1_555
C51 N37 1_555 1_555
H39 C51 1_555 1_555
N39 Fe4 1_555 1_555
N40 N39 1_555 1_555
C52 N40 1_555 1_555
H40 C52 1_555 1_555
C53 C52 1_555 1_555
H41 C53 1_555 1_555
C54 N39 1_555 1_555
H42 C54 1_555 1_555
N41 Fe4 1_555 1_555
N42 N41 1_555 1_555
C55 N42 1_555 1_555
H43 C55 1_555 1_555
C56 C55 1_555 1_555
H44 C56 1_555 1_555
C57 N41 1_555 1_555
H45 C57 1_555 1_555
B3 N38 1_555 1_555
B4 N22 1_555 1_555
N43 Ni1 1_555 1_555
N44 N43 1_555 1_555
C58 N44 1_555 1_555
H46 C58 1_555 1_555
C59 C58 1_555 1_555
H47 C59 1_555 1_555
C60 N43 1_555 1_555
H48 C60 1_555 1_555
N45 Ni1 1_555 1_555
N46 N45 1_555 1_555
C61 N46 1_555 1_555
H49 C61 1_555 1_555
C62 C61 1_555 1_555
H50 C62 1_555 1_555
C63 N45 1_555 1_555
H51 C63 1_555 1_555
N47 Ni1 1_555 1_555
N48 N47 1_555 1_555
C64 N48 1_555 1_555
H52 C64 1_555 1_555
C65 C64 1_555 1_555
H53 C65 1_555 1_555
C66 N47 1_555 1_555
H54 C66 1_555 1_555
C67 N44 1_555 1_555
C68 C67 1_555 1_555
H55 C68 1_555 1_555
H56 C68 1_555 1_555
O1 C68 1_555 1_555
C69 O1 1_555 1_555
H57 C69 1_555 1_555
H58 C69 1_555 1_555
C70 C69 1_555 1_555
C71 C70 1_555 1_555
H59 C71 1_555 1_555
C72 C71 1_555 1_555
H60 C72 1_555 1_555
C73 C72 1_555 1_555
C74 C73 1_555 1_555
H61 C74 1_555 1_555
C75 C70 1_555 1_555
H62 C75 1_555 1_555
C76 C73 1_555 1_555
H63 C76 1_555 1_555
H64 C76 1_555 1_555
S1 C76 1_555 1_555
C77 S1 1_555 1_555
C78 C77 1_555 1_555
C79 C78 1_555 1_555
H65 C79 1_555 1_555
H66 C79 1_555 1_555
H67 C79 1_555 1_555
S2 C77 1_555 1_555
C80 S2 1_555 1_555
S3 C78 1_555 1_555
C81 C80 1_555 1_555
S4 C81 1_555 1_555
C82 S4 1_555 1_555
C83 C82 1_555 1_555
S5 C81 1_555 1_555
S6 C82 1_555 1_555
S7 C83 1_555 1_555
C84 S6 1_555 1_555
H68 C84 1_555 1_555
H69 C84 1_555 1_555
C85 S7 1_555 1_555
H70 C85 1_555 1_555
H71 C85 1_555 1_555
N49 Ni2 1_555 1_555
N50 N49 1_555 1_555
C86 N50 1_555 1_555
H72 C86 1_555 1_555
C87 C86 1_555 1_555
H73 C87 1_555 1_555
C88 N49 1_555 1_555
H74 C88 1_555 1_555
N51 Ni2 1_555 1_555
N52 N51 1_555 1_555
C89 N52 1_555 1_555
H75 C89 1_555 1_555
C90 C89 1_555 1_555
H76 C90 1_555 1_555
C91 N51 1_555 1_555
H77 C91 1_555 1_555
N53 Ni2 1_555 1_555
N54 N53 1_555 1_555
C92 N54 1_555 1_555
H78 C92 1_555 1_555
C93 C92 1_555 1_555
H79 C93 1_555 1_555
C94 N53 1_555 1_555
H80 C94 1_555 1_555
C95 N50 1_555 1_555
C96 C95 1_555 1_555
H81 C96 1_555 1_555
H82 C96 1_555 1_555
O2 C96 1_555 1_555
C97 O2 1_555 1_555
H83 C97 1_555 1_555
H84 C97 1_555 1_555
C98 C97 1_555 1_555
C99 C98 1_555 1_555
H85 C99 1_555 1_555
C100 C99 1_555 1_555
H86 C100 1_555 1_555
C101 C100 1_555 1_555
C102 C101 1_555 1_555
H87 C102 1_555 1_555
C103 C98 1_555 1_555
H88 C103 1_555 1_555
C104 C101 1_555 1_555
H89 C104 1_555 1_555
H90 C104 1_555 1_555
S8 C104 1_555 1_555
C105 S8 1_555 1_555
C106 C105 1_555 1_555
C107 C106 1_555 1_555
H91 C107 1_555 1_555
H92 C107 1_555 1_555
H93 C107 1_555 1_555
S9 C105 1_555 1_555
C108 S9 1_555 1_555
S10 C106 1_555 1_555
C109 C108 1_555 1_555
S11 C109 1_555 1_555
C110 S11 1_555 1_555
C111 C110 1_555 1_555
S12 C109 1_555 1_555
S13 C110 1_555 1_555
C112 S13 1_555 1_555
H94 C112 1_555 1_555
H95 C112 1_555 1_555
C113 C112 1_555 1_555
H96 C113 1_555 1_555
H97 C113 1_555 1_555
S14 C111 1_555 1_555
N55 Ni3 1_555 1_555
N56 N55 1_555 1_555
C114 N56 1_555 1_555
H98 C114 1_555 1_555
C115 C114 1_555 1_555
H99 C115 1_555 1_555
C116 N55 1_555 1_555
H100 C116 1_555 1_555
N57 Ni3 1_555 1_555
N58 N57 1_555 1_555
C117 N58 1_555 1_555
H101 C117 1_555 1_555
C118 C117 1_555 1_555
H102 C118 1_555 1_555
C119 N57 1_555 1_555
H103 C119 1_555 1_555
N59 Ni3 1_555 1_555
N60 N59 1_555 1_555
C120 N60 1_555 1_555
H104 C120 1_555 1_555
C121 C120 1_555 1_555
H105 C121 1_555 1_555
C122 N59 1_555 1_555
H106 C122 1_555 1_555
C123 N56 1_555 1_555
C124 C123 1_555 1_555
H107 C124 1_555 1_555
H108 C124 1_555 1_555
O3 C124 1_555 1_555
C125 O3 1_555 1_555
H109 C125 1_555 1_555
H110 C125 1_555 1_555
C126 C125 1_555 1_555
C127 C126 1_555 1_555
H111 C127 1_555 1_555
C128 C127 1_555 1_555
H112 C128 1_555 1_555
C129 C128 1_555 1_555
C130 C129 1_555 1_555
H113 C130 1_555 1_555
C131 C126 1_555 1_555
H114 C131 1_555 1_555
C132 C129 1_555 1_555
H115 C132 1_555 1_555
H116 C132 1_555 1_555
S15 C132 1_555 1_555
C133 S15 1_555 1_555
C134 C133 1_555 1_555
C135 C134 1_555 1_555
H117 C135 1_555 1_555
H118 C135 1_555 1_555
H119 C135 1_555 1_555
S16 C133 1_555 1_555
C136 S16 1_555 1_555
S17 C134 1_555 1_555
C137 C136 1_555 1_555
S18 C137 1_555 1_555
C138 S18 1_555 1_555
C139 C138 1_555 1_555
S19 C137 1_555 1_555
S20 C138 1_555 1_555
S21 C139 1_555 1_555
C140 S20 1_555 1_555
H120 C140 1_555 1_555
H121 C140 1_555 1_555
C141 S21 1_555 1_555
H122 C141 1_555 1_555
H123 C141 1_555 1_555
N61 Ni4 1_555 1_555
N62 N61 1_555 1_555
C142 N62 1_555 1_555
H124 C142 1_555 1_555
C143 C142 1_555 1_555
H125 C143 1_555 1_555
C144 N61 1_555 1_555
H126 C144 1_555 1_555
N63 Ni4 1_555 1_555
N64 N63 1_555 1_555
C145 N64 1_555 1_555
H127 C145 1_555 1_555
C146 C145 1_555 1_555
H128 C146 1_555 1_555
C147 N63 1_555 1_555
H129 C147 1_555 1_555
N65 Ni4 1_555 1_555
N66 N65 1_555 1_555
C148 N66 1_555 1_555
H130 C148 1_555 1_555
C149 C148 1_555 1_555
H131 C149 1_555 1_555
C150 N65 1_555 1_555
H132 C150 1_555 1_555
C151 N62 1_555 1_555
C152 C151 1_555 1_555
H133 C152 1_555 1_555
H134 C152 1_555 1_555
O4 C152 1_555 1_555
C153 O4 1_555 1_555
H135 C153 1_555 1_555
H136 C153 1_555 1_555
C154 C153 1_555 1_555
C155 C154 1_555 1_555
H137 C155 1_555 1_555
C156 C155 1_555 1_555
H138 C156 1_555 1_555
C157 C156 1_555 1_555
C158 C157 1_555 1_555
H139 C158 1_555 1_555
C159 C154 1_555 1_555
H140 C159 1_555 1_555
C160 C157 1_555 1_555
H141 C160 1_555 1_555
H142 C160 1_555 1_555
S22 C160 1_555 1_555
C161 S22 1_555 1_555
C162 C161 1_555 1_555
C163 C162 1_555 1_555
H143 C163 1_555 1_555
H144 C163 1_555 1_555
H145 C163 1_555 1_555
S23 C161 1_555 1_555
C164 S23 1_555 1_555
S24 C162 1_555 1_555
C165 C164 1_555 1_555
S25 C165 1_555 1_555
C166 S25 1_555 1_555
C167 C166 1_555 1_555
S26 C165 1_555 1_555
S27 C166 1_555 1_555
C168 S27 1_555 1_555
H146 C168 1_555 1_555
H147 C168 1_555 1_555
C169 C168 1_555 1_555
H148 C169 1_555 1_555
H149 C169 1_555 1_555
S28 C167 1_555 1_555
B5 F1 1_555 1_555
F2 B5 1_555 1_555
F3 B5 1_555 1_555
F4 B5 1_555 1_555
B6 F5 1_555 1_555
F6 B6 1_555 1_555
F7 B6 1_555 1_555
F8 B6 1_555 1_555
B7 F9 1_555 1_555
F10 B7 1_555 1_555
F11 B7 1_555 1_555
F12 B7 1_555 1_555
B8 F13 1_555 1_555
F14 B8 1_555 1_555
F15 B8 1_555 1_555
F16 B8 1_555 1_555
N67 B3 1_555 1_555
N68 N67 1_555 1_555
C170 N68 1_555 1_555
H150 C170 1_555 1_555
C171 C170 1_555 1_555
H151 C171 1_555 1_555
C172 N67 1_555 1_555
H152 C172 1_555 1_555
C7 N7 1_555 1_555
C9 N9 1_555 1_555
N11 C11 1_555 1_555
N12 C12 1_555 1_555
C14 C15 1_555 1_555
N16 B1 1_555 1_555
C17 C18 1_555 1_555
N18 B1 1_555 1_555
C20 C21 1_555 1_555
C24 N20 1_555 1_555
C26 C27 1_555 1_555
N24 B4 1_555 1_555
C29 C30 1_555 1_555
N26 B4 1_555 1_555
C32 C33 1_555 1_555
N27 B4 1_555 1_555
C36 N28 1_555 1_555
C38 C39 1_555 1_555
N32 B2 1_555 1_555
C41 C42 1_555 1_555
N34 B2 1_555 1_555
C44 C45 1_555 1_555
N35 B2 1_555 1_555
C47 C48 1_555 1_555
C50 C51 1_555 1_555
N40 B3 1_555 1_555
C53 C54 1_555 1_555
N42 B3 1_555 1_555
C56 C57 1_555 1_555
C59 C60 1_555 1_555
N46 C67 1_555 1_555
C62 C63 1_555 1_555
N48 C67 1_555 1_555
C65 C66 1_555 1_555
C74 C75 1_555 1_555
C80 S3 1_555 1_555
C83 S5 1_555 1_555
C84 C85 1_555 1_555
C87 C88 1_555 1_555
N52 C95 1_555 1_555
C90 C91 1_555 1_555
N54 C95 1_555 1_555
C93 C94 1_555 1_555
C102 C103 1_555 1_555
C108 S10 1_555 1_555
C111 S12 1_555 1_555
C113 S14 1_555 1_555
C115 C116 1_555 1_555
N58 C123 1_555 1_555
C118 C119 1_555 1_555
N60 C123 1_555 1_555
C121 C122 1_555 1_555
C130 C131 1_555 1_555
C136 S17 1_555 1_555
C139 S19 1_555 1_555
C140 C141 1_555 1_555
C143 C144 1_555 1_555
N64 C151 1_555 1_555
C146 C147 1_555 1_555
N66 C151 1_555 1_555
C149 C150 1_555 1_555
C158 C159 1_555 1_555
C164 S24 1_555 1_555
C167 S26 1_555 1_555
C169 S28 1_555 1_555
C171 C172 1_555 1_555

#END
