# generated using pymatgen
data_FeNiB2H38C43S7N17OF4
_symmetry_space_group_name_H-M   'P 1'
_cell_length_a   17.31800000
_cell_length_b   29.06100000
_cell_length_c   29.95800000
_cell_angle_alpha   70.27500000
_cell_angle_beta   89.92500000
_cell_angle_gamma   74.59400000
_symmetry_Int_Tables_number   1
_chemical_formula_structural   FeNiB2H38C43S7N17OF4
_chemical_formula_sum   'Fe8 Ni8 B16 H304 C344 S56 N136 O8 F32'
_cell_volume   13617.56281254
_cell_formula_units_Z   8
loop_
 _symmetry_equiv_pos_site_id
 _symmetry_equiv_pos_as_xyz
  1  'x, y, z'
loop_
 _atom_site_type_symbol
 _atom_site_label
 _atom_site_symmetry_multiplicity
 _atom_site_fract_x
 _atom_site_fract_y
 _atom_site_fract_z
 _atom_site_occupancy
  Fe  Fe1  1  0.186540  0.190730  0.351380  1
  Fe  Fe2  1  0.813460  0.809270  0.648620  1
  Fe  Fe3  1  0.066990  0.470050  0.275090  1
  Fe  Fe4  1  0.933010  0.529950  0.724910  1
  Fe  Fe5  1  0.428600  0.317130  0.441720  1
  Fe  Fe6  1  0.571400  0.682870  0.558280  1
  Fe  Fe7  1  0.425250  0.333490  0.187580  1
  Fe  Fe8  1  0.574750  0.666510  0.812420  1
  Ni  Ni9  1  0.128350  0.338080  0.192770  1
  Ni  Ni10  1  0.871650  0.661920  0.807230  1
  Ni  Ni11  1  0.130370  0.322380  0.434810  1
  Ni  Ni12  1  0.869630  0.677620  0.565190  1
  Ni  Ni13  1  0.480330  0.192340  0.351130  1
  Ni  Ni14  1  0.519670  0.807660  0.648870  1
  Ni  Ni15  1  0.366420  0.458470  0.277490  1
  Ni  Ni16  1  0.633580  0.541530  0.722510  1
  B  B17  1  0.630000  0.925000  0.418600  1
  B  B18  1  0.370000  0.075000  0.581400  1
  B  B19  1  0.845000  0.435500  0.956100  1
  B  B20  1  0.155000  0.564500  0.043900  1
  B  B21  1  0.796100  0.453400  0.548000  1
  B  B22  1  0.203900  0.546600  0.452000  1
  B  B23  1  0.778600  0.328800  0.322800  1
  B  B24  1  0.221400  0.671200  0.677200  1
  B  B25  1  0.131000  0.093900  0.370100  1
  B  B26  1  0.869000  0.906100  0.629900  1
  B  B27  1  0.534900  0.305800  0.529500  1
  B  B28  1  0.465100  0.694200  0.470500  1
  B  B29  1  0.528300  0.337900  0.103900  1
  B  B30  1  0.471700  0.662100  0.896100  1
  B  B31  1  0.928600  0.565600  0.252000  1
  B  B32  1  0.071400  0.434400  0.748000  1
  H  H33  1  0.209000  0.043100  0.305600  1
  H  H34  1  0.791000  0.956900  0.694400  1
  H  H35  1  0.294100  0.083100  0.247300  1
  H  H36  1  0.705900  0.916900  0.752700  1
  H  H37  1  0.278200  0.166800  0.267800  1
  H  H38  1  0.721800  0.833200  0.732200  1
  H  H39  1  0.950500  0.123600  0.351100  1
  H  H40  1  0.049500  0.876400  0.648900  1
  H  H41  1  0.885000  0.218100  0.334500  1
  H  H42  1  0.115000  0.781900  0.665500  1
  H  H43  1  0.993600  0.257100  0.324000  1
  H  H44  1  0.006400  0.742900  0.676000  1
  H  H45  1  0.183100  0.028900  0.473800  1
  H  H46  1  0.816900  0.971100  0.526200  1
  H  H47  1  0.253300  0.065600  0.521300  1
  H  H48  1  0.746700  0.934400  0.478700  1
  H  H49  1  0.277300  0.141900  0.461100  1
  H  H50  1  0.722700  0.858100  0.538900  1
  H  H51  1  0.016900  0.066000  0.322500  1
  H  H52  1  0.983100  0.934000  0.677500  1
  H  H53  1  0.030200  0.970900  0.349700  1
  H  H54  1  0.969800  0.029100  0.650300  1
  H  H55  1  0.120300  0.931200  0.425000  1
  H  H56  1  0.879700  0.068800  0.575000  1
  H  H57  1  0.769100  0.535700  0.259700  1
  H  H58  1  0.230900  0.464300  0.740300  1
  H  H59  1  0.792200  0.440100  0.296100  1
  H  H60  1  0.207800  0.559900  0.703900  1
  H  H61  1  0.938400  0.403000  0.297700  1
  H  H62  1  0.061600  0.597000  0.702300  1
  H  H63  1  0.946200  0.622800  0.314600  1
  H  H64  1  0.053800  0.377200  0.685400  1
  H  H65  1  0.066900  0.580600  0.374300  1
  H  H66  1  0.933100  0.419400  0.625700  1
  H  H67  1  0.138200  0.499500  0.359500  1
  H  H68  1  0.861800  0.500500  0.640500  1
  H  H69  1  0.928800  0.630300  0.149100  1
  H  H70  1  0.071200  0.369700  0.850900  1
  H  H71  1  0.033000  0.590200  0.109000  1
  H  H72  1  0.967000  0.409800  0.891000  1
  H  H73  1  0.122000  0.510600  0.170000  1
  H  H74  1  0.878000  0.489400  0.830000  1
  H  H75  1  0.910900  0.674600  0.194800  1
  H  H76  1  0.089100  0.325400  0.805200  1
  H  H77  1  0.777200  0.737200  0.194700  1
  H  H78  1  0.222800  0.262800  0.805300  1
  H  H79  1  0.686900  0.687100  0.242900  1
  H  H80  1  0.313100  0.312900  0.757100  1
  H  H81  1  0.552900  0.199300  0.602000  1
  H  H82  1  0.447100  0.800700  0.398000  1
  H  H83  1  0.472700  0.149900  0.582500  1
  H  H84  1  0.527300  0.850100  0.417500  1
  H  H85  1  0.401300  0.203900  0.500400  1
  H  H86  1  0.598700  0.796100  0.499600  1
  H  H87  1  0.460700  0.387300  0.564300  1
  H  H88  1  0.539300  0.612700  0.435700  1
  H  H89  1  0.338300  0.452800  0.516100  1
  H  H90  1  0.661700  0.547200  0.483900  1
  H  H91  1  0.309300  0.423100  0.449000  1
  H  H92  1  0.690700  0.576900  0.551000  1
  H  H93  1  0.702600  0.298100  0.503800  1
  H  H94  1  0.297400  0.701900  0.496200  1
  H  H95  1  0.719100  0.308200  0.419100  1
  H  H96  1  0.280900  0.691800  0.580900  1
  H  H97  1  0.587900  0.315100  0.381700  1
  H  H98  1  0.412100  0.684900  0.618300  1
  H  H99  1  0.698500  0.327700  0.630700  1
  H  H100  1  0.301500  0.672300  0.369300  1
  H  H101  1  0.601100  0.293000  0.681900  1
  H  H102  1  0.398900  0.707000  0.318100  1
  H  H103  1  0.507700  0.278200  0.627000  1
  H  H104  1  0.492300  0.721800  0.373000  1
  H  H105  1  0.539600  0.246300  0.078500  1
  H  H106  1  0.460400  0.753700  0.921500  1
  H  H107  1  0.464800  0.193200  0.123400  1
  H  H108  1  0.535200  0.806800  0.876600  1
  H  H109  1  0.400600  0.227800  0.185000  1
  H  H110  1  0.599400  0.772200  0.815000  1
  H  H111  1  0.684900  0.339000  0.126300  1
  H  H112  1  0.315100  0.661000  0.873700  1
  H  H113  1  0.714900  0.331500  0.212600  1
  H  H114  1  0.285100  0.668500  0.787400  1
  H  H115  1  0.585600  0.326800  0.253000  1
  H  H116  1  0.414400  0.673200  0.747000  1
  H  H117  1  0.444200  0.439100  0.020200  1
  H  H118  1  0.555800  0.560900  0.979800  1
  H  H119  1  0.314900  0.490200  0.040600  1
  H  H120  1  0.685100  0.509800  0.959400  1
  H  H121  1  0.292800  0.442200  0.125400  1
  H  H122  1  0.707200  0.557800  0.874600  1
  H  H123  1  0.090700  0.257100  0.074600  1
  H  H124  1  0.909300  0.742900  0.925400  1
  H  H125  1  0.230900  0.213000  0.111100  1
  H  H126  1  0.769100  0.787000  0.888900  1
  H  H127  1  0.242900  0.233100  0.181100  1
  H  H128  1  0.757100  0.766900  0.818900  1
  H  H129  1  0.862600  0.335700  0.125600  1
  H  H130  1  0.137400  0.664300  0.874400  1
  H  H131  1  0.833800  0.333600  0.212300  1
  H  H132  1  0.166200  0.666400  0.787700  1
  H  H133  1  0.961400  0.335100  0.248000  1
  H  H134  1  0.038600  0.664900  0.752000  1
  H  H135  1  0.987400  0.435800  0.025200  1
  H  H136  1  0.012600  0.564200  0.974800  1
  H  H137  1  0.056100  0.497300  0.039300  1
  H  H138  1  0.943900  0.502700  0.960700  1
  H  H139  1  0.138400  0.453500  0.119800  1
  H  H140  1  0.861600  0.546500  0.880200  1
  H  H141  1  0.919600  0.370500  0.056200  1
  H  H142  1  0.080400  0.629500  0.943800  1
  H  H143  1  0.999600  0.344500  0.036400  1
  H  H144  1  0.000400  0.655500  0.963600  1
  H  H145  1  0.850900  0.323300  0.031200  1
  H  H146  1  0.149100  0.676700  0.968800  1
  H  H147  1  0.932300  0.301800  0.010300  1
  H  H148  1  0.067700  0.698200  0.989700  1
  H  H149  1  0.988700  0.215700  0.026100  1
  H  H150  1  0.011300  0.784300  0.973900  1
  H  H151  1  0.972100  0.133800  0.051000  1
  H  H152  1  0.027900  0.866200  0.949000  1
  H  H153  1  0.763300  0.184200  0.103600  1
  H  H154  1  0.236700  0.815800  0.896400  1
  H  H155  1  0.780000  0.266100  0.078700  1
  H  H156  1  0.220000  0.733900  0.921300  1
  H  H157  1  0.794600  0.107400  0.120900  1
  H  H158  1  0.205400  0.892600  0.879100  1
  H  H159  1  0.869600  0.073500  0.104500  1
  H  H160  1  0.130400  0.926500  0.895500  1
  H  H161  1  0.896700  0.176900  0.936000  1
  H  H162  1  0.103300  0.823100  0.064000  1
  H  H163  1  0.850500  0.178200  0.982000  1
  H  H164  1  0.149500  0.821800  0.018000  1
  H  H165  1  0.800900  0.188200  0.933100  1
  H  H166  1  0.199100  0.811800  0.066900  1
  H  H167  1  0.917100  0.888300  0.798300  1
  H  H168  1  0.082900  0.111700  0.201700  1
  H  H169  1  0.958500  0.868900  0.852600  1
  H  H170  1  0.041500  0.131100  0.147400  1
  H  H171  1  0.801600  0.887500  0.834800  1
  H  H172  1  0.198400  0.112500  0.165200  1
  H  H173  1  0.805700  0.942700  0.831800  1
  H  H174  1  0.194300  0.057300  0.168200  1
  H  H175  1  0.853000  0.341400  0.494500  1
  H  H176  1  0.147000  0.658600  0.505500  1
  H  H177  1  0.824800  0.356200  0.413400  1
  H  H178  1  0.175200  0.643800  0.586600  1
  H  H179  1  0.952900  0.339400  0.375600  1
  H  H180  1  0.047100  0.660600  0.624400  1
  H  H181  1  0.078300  0.228200  0.600400  1
  H  H182  1  0.921700  0.771800  0.399600  1
  H  H183  1  0.202600  0.173600  0.596900  1
  H  H184  1  0.797400  0.826400  0.403100  1
  H  H185  1  0.239800  0.203700  0.511800  1
  H  H186  1  0.760200  0.796300  0.488200  1
  H  H187  1  0.012000  0.408200  0.550600  1
  H  H188  1  0.988000  0.591800  0.449400  1
  H  H189  1  0.100800  0.460800  0.511000  1
  H  H190  1  0.899200  0.539200  0.489000  1
  H  H191  1  0.155500  0.432100  0.447400  1
  H  H192  1  0.844500  0.567900  0.552600  1
  H  H193  1  0.011600  0.317900  0.590900  1
  H  H194  1  0.988400  0.682100  0.409100  1
  H  H195  1  0.934300  0.356300  0.555300  1
  H  H196  1  0.065700  0.643700  0.444700  1
  H  H197  1  0.853300  0.256200  0.610100  1
  H  H198  1  0.146700  0.743800  0.389900  1
  H  H199  1  0.841700  0.315800  0.597100  1
  H  H200  1  0.158300  0.684200  0.402900  1
  H  H201  1  0.974000  0.198500  0.662800  1
  H  H202  1  0.026000  0.801500  0.337200  1
  H  H203  1  0.042100  0.177400  0.737600  1
  H  H204  1  0.957900  0.822600  0.262400  1
  H  H205  1  0.942400  0.321200  0.735300  1
  H  H206  1  0.057600  0.678800  0.264700  1
  H  H207  1  0.874300  0.342300  0.660600  1
  H  H208  1  0.125700  0.657700  0.339400  1
  H  H209  1  0.040700  0.267800  0.797200  1
  H  H210  1  0.959300  0.732200  0.202800  1
  H  H211  1  0.102600  0.219200  0.790800  1
  H  H212  1  0.897400  0.780800  0.209200  1
  H  H213  1  0.130600  0.087000  0.901500  1
  H  H214  1  0.869400  0.913000  0.098500  1
  H  H215  1  0.184400  0.078900  0.948400  1
  H  H216  1  0.815600  0.921100  0.051600  1
  H  H217  1  0.217900  0.096100  0.897400  1
  H  H218  1  0.782100  0.903900  0.102600  1
  H  H219  1  0.233400  0.338300  0.070300  1
  H  H220  1  0.766600  0.661700  0.929700  1
  H  H221  1  0.309500  0.359700  0.065600  1
  H  H222  1  0.690500  0.640300  0.934400  1
  H  H223  1  0.260400  0.415700  0.991700  1
  H  H224  1  0.739600  0.584300  0.008300  1
  H  H225  1  0.197600  0.422700  0.029600  1
  H  H226  1  0.802400  0.577300  0.970400  1
  H  H227  1  0.627300  0.024800  0.336100  1
  H  H228  1  0.372700  0.975200  0.663900  1
  H  H229  1  0.515200  0.055400  0.271700  1
  H  H230  1  0.484800  0.944600  0.728300  1
  H  H231  1  0.438500  0.141500  0.270100  1
  H  H232  1  0.561500  0.858500  0.729900  1
  H  H233  1  0.780300  0.115400  0.383400  1
  H  H234  1  0.219700  0.884600  0.616600  1
  H  H235  1  0.773000  0.205000  0.358600  1
  H  H236  1  0.227000  0.795000  0.641400  1
  H  H237  1  0.620200  0.255300  0.339400  1
  H  H238  1  0.379800  0.744700  0.660600  1
  H  H239  1  0.625200  0.025900  0.478900  1
  H  H240  1  0.374800  0.974100  0.521100  1
  H  H241  1  0.508700  0.057700  0.521400  1
  H  H242  1  0.491300  0.942300  0.478600  1
  H  H243  1  0.425600  0.138300  0.460800  1
  H  H244  1  0.574400  0.861700  0.539200  1
  H  H245  1  0.735700  0.050600  0.426900  1
  H  H246  1  0.264300  0.949400  0.573100  1
  H  H247  1  0.688100  0.014500  0.416000  1
  H  H248  1  0.311900  0.985500  0.584000  1
  H  H249  1  0.861800  0.012400  0.390700  1
  H  H250  1  0.138200  0.987600  0.609300  1
  H  H251  1  0.809100  0.973300  0.396500  1
  H  H252  1  0.190900  0.026700  0.603500  1
  H  H253  1  0.886300  0.058100  0.301200  1
  H  H254  1  0.113700  0.941900  0.698800  1
  H  H255  1  0.930700  0.036500  0.235200  1
  H  H256  1  0.069300  0.963500  0.764800  1
  H  H257  1  0.866000  0.905700  0.288200  1
  H  H258  1  0.134000  0.094300  0.711800  1
  H  H259  1  0.821600  0.927300  0.354300  1
  H  H260  1  0.178400  0.072700  0.645700  1
  H  H261  1  0.962900  0.922800  0.220100  1
  H  H262  1  0.037100  0.077200  0.779900  1
  H  H263  1  0.973600  0.979300  0.199800  1
  H  H264  1  0.026400  0.020700  0.800200  1
  H  H265  1  0.686600  0.036300  0.245400  1
  H  H266  1  0.313400  0.963700  0.754600  1
  H  H267  1  0.623400  0.041900  0.203700  1
  H  H268  1  0.376600  0.958100  0.796300  1
  H  H269  1  0.711200  0.047800  0.192000  1
  H  H270  1  0.288800  0.952200  0.808000  1
  H  H271  1  0.785200  0.675900  0.447700  1
  H  H272  1  0.214800  0.324100  0.552300  1
  H  H273  1  0.711500  0.651700  0.456700  1
  H  H274  1  0.288500  0.348300  0.543300  1
  H  H275  1  0.710700  0.654800  0.375500  1
  H  H276  1  0.289300  0.345200  0.624500  1
  H  H277  1  0.788000  0.615000  0.410000  1
  H  H278  1  0.212000  0.385000  0.590000  1
  H  H279  1  0.599800  0.532500  0.243000  1
  H  H280  1  0.400200  0.467500  0.757000  1
  H  H281  1  0.672200  0.439900  0.271700  1
  H  H282  1  0.327800  0.560100  0.728300  1
  H  H283  1  0.565800  0.393400  0.299600  1
  H  H284  1  0.434200  0.606600  0.700400  1
  H  H285  1  0.380500  0.620200  0.147000  1
  H  H286  1  0.619500  0.379800  0.853000  1
  H  H287  1  0.292100  0.588000  0.104200  1
  H  H288  1  0.707900  0.412000  0.895800  1
  H  H289  1  0.272700  0.506500  0.163000  1
  H  H290  1  0.727300  0.493500  0.837000  1
  H  H291  1  0.402400  0.608900  0.310800  1
  H  H292  1  0.597600  0.391100  0.689200  1
  H  H293  1  0.322300  0.578900  0.375200  1
  H  H294  1  0.677700  0.421100  0.624800  1
  H  H295  1  0.291600  0.501200  0.368100  1
  H  H296  1  0.708400  0.498800  0.631900  1
  H  H297  1  0.500900  0.600600  0.254300  1
  H  H298  1  0.499100  0.399400  0.745700  1
  H  H299  1  0.490500  0.603600  0.199900  1
  H  H300  1  0.509500  0.396400  0.800100  1
  H  H301  1  0.458300  0.690500  0.232500  1
  H  H302  1  0.541700  0.309500  0.767500  1
  H  H303  1  0.447100  0.697700  0.176900  1
  H  H304  1  0.552900  0.302300  0.823100  1
  H  H305  1  0.297600  0.700000  0.261100  1
  H  H306  1  0.702400  0.300000  0.738900  1
  H  H307  1  0.182900  0.768600  0.250000  1
  H  H308  1  0.817100  0.231400  0.750000  1
  H  H309  1  0.257400  0.848100  0.126900  1
  H  H310  1  0.742600  0.151900  0.873100  1
  H  H311  1  0.372100  0.779600  0.138000  1
  H  H312  1  0.627900  0.220400  0.862000  1
  H  H313  1  0.095400  0.855600  0.200600  1
  H  H314  1  0.904600  0.144400  0.799400  1
  H  H315  1  0.114100  0.878900  0.146400  1
  H  H316  1  0.885900  0.121100  0.853600  1
  H  H317  1  0.354500  0.807100  0.260400  1
  H  H318  1  0.645500  0.192900  0.739600  1
  H  H319  1  0.388700  0.848100  0.272200  1
  H  H320  1  0.611300  0.151900  0.727800  1
  H  H321  1  0.334800  0.864100  0.223200  1
  H  H322  1  0.665200  0.135900  0.776800  1
  H  H323  1  0.039000  0.759100  0.531700  1
  H  H324  1  0.961000  0.240900  0.468300  1
  H  H325  1  0.033000  0.773000  0.578800  1
  H  H326  1  0.967000  0.227000  0.421200  1
  H  H327  1  0.942000  0.838300  0.549200  1
  H  H328  1  0.058000  0.161700  0.450800  1
  H  H329  1  0.924400  0.806700  0.518400  1
  H  H330  1  0.075600  0.193300  0.481600  1
  H  H331  1  0.621700  0.317700  0.966000  1
  H  H332  1  0.378300  0.682300  0.034000  1
  H  H333  1  0.664400  0.393400  0.970000  1
  H  H334  1  0.335600  0.606600  0.030000  1
  H  H335  1  0.612800  0.411400  0.043400  1
  H  H336  1  0.387200  0.588600  0.956600  1
  C  C337  1  0.165900  0.248000  0.291100  1
  C  C338  1  0.834100  0.752000  0.708900  1
  C  C339  1  0.085900  0.420400  0.243600  1
  C  C340  1  0.914100  0.579600  0.756400  1
  C  C341  1  0.092100  0.413800  0.334700  1
  C  C342  1  0.907900  0.586200  0.665300  1
  C  C343  1  0.162500  0.241600  0.383400  1
  C  C344  1  0.837500  0.758400  0.616600  1
  C  C345  1  0.296300  0.191600  0.353000  1
  C  C346  1  0.703700  0.808400  0.647000  1
  C  C347  1  0.449300  0.269300  0.408700  1
  C  C348  1  0.550700  0.730700  0.591300  1
  C  C349  1  0.316300  0.318000  0.438600  1
  C  C350  1  0.683700  0.682000  0.561400  1
  C  C351  1  0.445700  0.279500  0.250600  1
  C  C352  1  0.554300  0.720500  0.749400  1
  C  C353  1  0.313300  0.335700  0.188300  1
  C  C354  1  0.686700  0.664300  0.811700  1
  C  C355  1  0.402000  0.380200  0.220700  1
  C  C356  1  0.598000  0.619800  0.779300  1
  C  C357  1  0.181200  0.464500  0.274100  1
  C  C358  1  0.818800  0.535500  0.725900  1
  C  C359  1  0.407200  0.371600  0.380800  1
  C  C360  1  0.592800  0.628400  0.619200  1
  C  C361  1  0.218600  0.074600  0.302800  1
  C  C362  1  0.781400  0.925400  0.697200  1
  C  C363  1  0.265200  0.094300  0.270400  1
  C  C364  1  0.734800  0.905700  0.729600  1
  C  C365  1  0.255100  0.140200  0.283900  1
  C  C366  1  0.744900  0.859800  0.716100  1
  C  C367  1  0.977100  0.148800  0.349400  1
  C  C368  1  0.022900  0.851200  0.650600  1
  C  C369  1  0.940800  0.201000  0.338500  1
  C  C370  1  0.059200  0.799000  0.661500  1
  C  C371  1  0.001700  0.221300  0.335100  1
  C  C372  1  0.998300  0.778700  0.664900  1
  C  C373  1  0.196100  0.060300  0.461400  1
  C  C374  1  0.803900  0.939700  0.538600  1
  C  C375  1  0.236700  0.079100  0.488100  1
  C  C376  1  0.763300  0.920900  0.511900  1
  C  C377  1  0.246700  0.121900  0.454600  1
  C  C378  1  0.753300  0.878100  0.545400  1
  C  C379  1  0.051100  0.040200  0.348800  1
  C  C380  1  0.948900  0.959800  0.651200  1
  C  C381  1  0.056600  0.987400  0.364600  1
  C  C382  1  0.943400  0.012600  0.635400  1
  C  C383  1  0.106300  0.965900  0.404500  1
  C  C384  1  0.893700  0.034100  0.595500  1
  C  C385  1  0.819700  0.510500  0.268200  1
  C  C386  1  0.180300  0.489500  0.731800  1
  C  C387  1  0.831500  0.458000  0.286800  1
  C  C388  1  0.168500  0.542000  0.713200  1
  C  C389  1  0.912200  0.438400  0.288400  1
  C  C390  1  0.087800  0.561600  0.711600  1
  C  C391  1  0.984600  0.591200  0.318300  1
  C  C392  1  0.015400  0.408800  0.681700  1
  C  C393  1  0.050900  0.568600  0.351000  1
  C  C394  1  0.949100  0.431400  0.649000  1
  C  C395  1  0.089900  0.523800  0.342400  1
  C  C396  1  0.910100  0.476200  0.657600  1
  C  C397  1  0.967600  0.598100  0.163100  1
  C  C398  1  0.032400  0.401900  0.836900  1
  C  C399  1  0.025400  0.576900  0.141800  1
  C  C400  1  0.974600  0.423100  0.858200  1
  C  C401  1  0.073400  0.532400  0.174600  1
  C  C402  1  0.926600  0.467600  0.825400  1
  C  C403  1  0.865900  0.666200  0.210100  1
  C  C404  1  0.134100  0.333800  0.789900  1
  C  C405  1  0.791000  0.701300  0.210100  1
  C  C406  1  0.209000  0.298700  0.789900  1
  C  C407  1  0.740500  0.673300  0.237100  1
  C  C408  1  0.259500  0.326700  0.762900  1
  C  C409  1  0.517700  0.210800  0.573800  1
  C  C410  1  0.482300  0.789200  0.426200  1
  C  C411  1  0.475300  0.182900  0.563500  1
  C  C412  1  0.524700  0.817100  0.436500  1
  C  C413  1  0.435500  0.213500  0.518200  1
  C  C414  1  0.564500  0.786500  0.481800  1
  C  C415  1  0.435700  0.386800  0.536300  1
  C  C416  1  0.564300  0.613200  0.463700  1
  C  C417  1  0.368200  0.423200  0.510300  1
  C  C418  1  0.631800  0.576800  0.489700  1
  C  C419  1  0.353200  0.406600  0.473100  1
  C  C420  1  0.646800  0.593400  0.526900  1
  C  C421  1  0.660700  0.303800  0.480500  1
  C  C422  1  0.339300  0.696200  0.519500  1
  C  C423  1  0.670700  0.308300  0.434000  1
  C  C424  1  0.329300  0.691700  0.566000  1
  C  C425  1  0.598200  0.313000  0.413600  1
  C  C426  1  0.401800  0.687000  0.586400  1
  C  C427  1  0.655600  0.317800  0.620500  1
  C  C428  1  0.344400  0.682200  0.379500  1
  C  C429  1  0.603400  0.298900  0.648900  1
  C  C430  1  0.396600  0.701100  0.351100  1
  C  C431  1  0.553800  0.290000  0.618700  1
  C  C432  1  0.446200  0.710000  0.381300  1
  C  C433  1  0.507600  0.252300  0.102900  1
  C  C434  1  0.492400  0.747700  0.897100  1
  C  C435  1  0.468600  0.223600  0.127400  1
  C  C436  1  0.531400  0.776400  0.872600  1
  C  C437  1  0.431700  0.242800  0.161300  1
  C  C438  1  0.568300  0.757200  0.838700  1
  C  C439  1  0.648200  0.337000  0.150100  1
  C  C440  1  0.351800  0.663000  0.849900  1
  C  C441  1  0.665100  0.332500  0.198300  1
  C  C442  1  0.334900  0.667500  0.801700  1
  C  C443  1  0.593600  0.330000  0.220900  1
  C  C444  1  0.406400  0.670000  0.779100  1
  C  C445  1  0.421500  0.430000  0.049700  1
  C  C446  1  0.578500  0.570000  0.950300  1
  C  C447  1  0.349100  0.458600  0.061100  1
  C  C448  1  0.650900  0.541400  0.938900  1
  C  C449  1  0.336700  0.431700  0.108600  1
  C  C450  1  0.663300  0.568300  0.891400  1
  C  C451  1  0.119000  0.262600  0.098600  1
  C  C452  1  0.881000  0.737400  0.901400  1
  C  C453  1  0.191400  0.236700  0.120500  1
  C  C454  1  0.808600  0.763300  0.879500  1
  C  C455  1  0.198700  0.249700  0.157200  1
  C  C456  1  0.801300  0.750300  0.842800  1
  C  C457  1  0.898400  0.335700  0.149600  1
  C  C458  1  0.101600  0.664300  0.850400  1
  C  C459  1  0.882300  0.334600  0.197600  1
  C  C460  1  0.117700  0.665400  0.802400  1
  C  C461  1  0.954100  0.335400  0.216500  1
  C  C462  1  0.045900  0.664600  0.783500  1
  C  C463  1  0.022000  0.429300  0.052600  1
  C  C464  1  0.978000  0.570700  0.947400  1
  C  C465  1  0.060500  0.463700  0.060400  1
  C  C466  1  0.939500  0.536300  0.939600  1
  C  C467  1  0.106500  0.439200  0.105500  1
  C  C468  1  0.893500  0.560800  0.894500  1
  C  C469  1  0.020200  0.340000  0.107000  1
  C  C470  1  0.979800  0.660000  0.893000  1
  C  C471  1  0.968700  0.341300  0.064600  1
  C  C472  1  0.031300  0.658700  0.935400  1
  C  C473  1  0.902300  0.295800  0.038900  1
  C  C474  1  0.097700  0.704200  0.961100  1
  C  C475  1  0.885900  0.248600  0.050100  1
  C  C476  1  0.114100  0.751400  0.949900  1
  C  C477  1  0.943000  0.209300  0.041800  1
  C  C478  1  0.057000  0.790700  0.958200  1
  C  C479  1  0.933100  0.160700  0.056600  1
  C  C480  1  0.066900  0.839300  0.943400  1
  C  C481  1  0.866100  0.151300  0.079600  1
  C  C482  1  0.133900  0.848700  0.920400  1
  C  C483  1  0.809100  0.190600  0.087800  1
  C  C484  1  0.190900  0.809400  0.912200  1
  C  C485  1  0.819000  0.239300  0.073100  1
  C  C486  1  0.181000  0.760700  0.926900  1
  C  C487  1  0.826000  0.106000  0.093600  1
  C  C488  1  0.174000  0.894000  0.906400  1
  C  C489  1  0.814800  0.096100  0.001500  1
  C  C490  1  0.185200  0.903900  0.998500  1
  C  C491  1  0.860300  0.112400  0.967900  1
  C  C492  1  0.139700  0.887600  0.032100  1
  C  C493  1  0.851300  0.168900  0.953500  1
  C  C494  1  0.148700  0.831100  0.046500  1
  C  C495  1  0.896700  0.031300  0.962700  1
  C  C496  1  0.103300  0.968700  0.037300  1
  C  C497  1  0.920100  0.993400  0.945200  1
  C  C498  1  0.079900  0.006600  0.054800  1
  C  C499  1  0.922000  0.958900  0.878700  1
  C  C500  1  0.078000  0.041100  0.121300  1
  C  C501  1  0.877300  0.936500  0.911000  1
  C  C502  1  0.122700  0.063500  0.089000  1
  C  C503  1  0.917000  0.895600  0.828300  1
  C  C504  1  0.083000  0.104400  0.171700  1
  C  C505  1  0.833000  0.905800  0.846100  1
  C  C506  1  0.167000  0.094200  0.153900  1
  C  C507  1  0.891300  0.339300  0.472000  1
  C  C508  1  0.108700  0.660700  0.528000  1
  C  C509  1  0.877200  0.346200  0.429300  1
  C  C510  1  0.122800  0.653800  0.570700  1
  C  C511  1  0.948500  0.337300  0.407800  1
  C  C512  1  0.051500  0.662700  0.592200  1
  C  C513  1  0.109500  0.233500  0.574000  1
  C  C514  1  0.890500  0.766500  0.426000  1
  C  C515  1  0.173700  0.203400  0.571700  1
  C  C516  1  0.826300  0.796600  0.428300  1
  C  C517  1  0.196600  0.221000  0.525000  1
  C  C518  1  0.803400  0.779000  0.475000  1
  C  C519  1  0.046300  0.403400  0.526800  1
  C  C520  1  0.953700  0.596600  0.473200  1
  C  C521  1  0.092200  0.432900  0.504000  1
  C  C522  1  0.907800  0.567100  0.496000  1
  C  C523  1  0.123600  0.416100  0.470000  1
  C  C524  1  0.876400  0.583900  0.530000  1
  C  C525  1  0.023100  0.322600  0.521300  1
  C  C526  1  0.976900  0.677400  0.478700  1
  C  C527  1  0.975800  0.323200  0.562800  1
  C  C528  1  0.024200  0.676800  0.437200  1
  C  C529  1  0.882200  0.282000  0.607900  1
  C  C530  1  0.117800  0.718000  0.392100  1
  C  C531  1  0.917700  0.272400  0.654700  1
  C  C532  1  0.082300  0.727600  0.345300  1
  C  C533  1  0.967600  0.223400  0.677600  1
  C  C534  1  0.032400  0.776600  0.322400  1
  C  C535  1  0.008100  0.210800  0.721900  1
  C  C536  1  0.991900  0.789200  0.278100  1
  C  C537  1  0.998700  0.247300  0.743500  1
  C  C538  1  0.001300  0.752700  0.256500  1
  C  C539  1  0.948800  0.296300  0.720600  1
  C  C540  1  0.051200  0.703700  0.279400  1
  C  C541  1  0.908300  0.308800  0.676200  1
  C  C542  1  0.091700  0.691200  0.323800  1
  C  C543  1  0.045000  0.235600  0.791600  1
  C  C544  1  0.955000  0.764400  0.208400  1
  C  C545  1  0.073000  0.193800  0.886700  1
  C  C546  1  0.927000  0.806200  0.113300  1
  C  C547  1  0.133000  0.153900  0.908900  1
  C  C548  1  0.867000  0.846100  0.091100  1
  C  C549  1  0.170000  0.099300  0.914500  1
  C  C550  1  0.830000  0.900700  0.085500  1
  C  C551  1  0.132600  0.219500  0.947100  1
  C  C552  1  0.867400  0.780500  0.052900  1
  C  C553  1  0.153600  0.249400  0.968200  1
  C  C554  1  0.846400  0.750600  0.031800  1
  C  C555  1  0.245300  0.292000  0.999100  1
  C  C556  1  0.754700  0.708000  0.000900  1
  C  C557  1  0.180100  0.332500  0.980200  1
  C  C558  1  0.819900  0.667500  0.019800  1
  C  C559  1  0.270700  0.351400  0.047500  1
  C  C560  1  0.729300  0.648600  0.952500  1
  C  C561  1  0.223000  0.399800  0.012300  1
  C  C562  1  0.777000  0.600200  0.987700  1
  C  C563  1  0.587500  0.056800  0.326200  1
  C  C564  1  0.412500  0.943200  0.673800  1
  C  C565  1  0.526700  0.072800  0.291400  1
  C  C566  1  0.473300  0.927200  0.708600  1
  C  C567  1  0.485000  0.120600  0.291300  1
  C  C568  1  0.515000  0.879400  0.708700  1
  C  C569  1  0.732800  0.143200  0.373400  1
  C  C570  1  0.267200  0.856800  0.626600  1
  C  C571  1  0.729000  0.190900  0.360400  1
  C  C572  1  0.271000  0.809100  0.639600  1
  C  C573  1  0.642500  0.219400  0.348800  1
  C  C574  1  0.357500  0.780600  0.651200  1
  C  C575  1  0.583700  0.057100  0.466600  1
  C  C576  1  0.416300  0.942900  0.533400  1
  C  C577  1  0.519900  0.073500  0.489700  1
  C  C578  1  0.480100  0.926500  0.510300  1
  C  C579  1  0.475900  0.118400  0.455900  1
  C  C580  1  0.524100  0.881600  0.544100  1
  C  C581  1  0.627100  0.091500  0.385100  1
  C  C582  1  0.372900  0.908500  0.614900  1
  C  C583  1  0.703000  0.046700  0.402000  1
  C  C584  1  0.297000  0.953300  0.598000  1
  C  C585  1  0.820500  0.004200  0.374200  1
  C  C586  1  0.179500  0.995800  0.625800  1
  C  C587  1  0.849800  0.994700  0.334000  1
  C  C588  1  0.150200  0.005300  0.666000  1
  C  C589  1  0.882200  0.027200  0.298600  1
  C  C590  1  0.117800  0.972800  0.701400  1
  C  C591  1  0.908600  0.014300  0.259400  1
  C  C592  1  0.091400  0.985700  0.740600  1
  C  C593  1  0.902500  0.969100  0.255500  1
  C  C594  1  0.097500  0.030900  0.744500  1
  C  C595  1  0.870100  0.936600  0.290900  1
  C  C596  1  0.129900  0.063400  0.709100  1
  C  C597  1  0.843700  0.949400  0.330100  1
  C  C598  1  0.156300  0.050600  0.669900  1
  C  C599  1  0.935100  0.959400  0.212400  1
  C  C600  1  0.064900  0.040600  0.787600  1
  C  C601  1  0.762000  0.962300  0.193800  1
  C  C602  1  0.238000  0.037700  0.806200  1
  C  C603  1  0.711400  0.973000  0.225300  1
  C  C604  1  0.288600  0.027000  0.774700  1
  C  C605  1  0.680400  0.029800  0.215800  1
  C  C606  1  0.319600  0.970200  0.784200  1
  C  C607  1  0.723300  0.885400  0.257600  1
  C  C608  1  0.276700  0.114600  0.742400  1
  C  C609  1  0.719000  0.839300  0.287400  1
  C  C610  1  0.281000  0.160700  0.712600  1
  C  C611  1  0.700100  0.768700  0.358700  1
  C  C612  1  0.299900  0.231300  0.641300  1
  C  C613  1  0.763700  0.748300  0.339100  1
  C  C614  1  0.236300  0.251700  0.660900  1
  C  C615  1  0.735700  0.674600  0.432200  1
  C  C616  1  0.264300  0.325400  0.567800  1
  C  C617  1  0.759400  0.651700  0.394800  1
  C  C618  1  0.240600  0.348300  0.605200  1
  C  C619  1  0.576100  0.505300  0.254600  1
  C  C620  1  0.423900  0.494700  0.745400  1
  C  C621  1  0.615900  0.454900  0.270400  1
  C  C622  1  0.384100  0.545100  0.729600  1
  C  C623  1  0.555600  0.429200  0.284600  1
  C  C624  1  0.444400  0.570800  0.715400  1
  C  C625  1  0.363600  0.590300  0.160500  1
  C  C626  1  0.636400  0.409700  0.839500  1
  C  C627  1  0.314100  0.572300  0.136600  1
  C  C628  1  0.685900  0.427700  0.863400  1
  C  C629  1  0.303300  0.526600  0.169500  1
  C  C630  1  0.696700  0.473400  0.830500  1
  C  C631  1  0.380200  0.581300  0.315300  1
  C  C632  1  0.619800  0.418700  0.684700  1
  C  C633  1  0.337500  0.564700  0.351100  1
  C  C634  1  0.662500  0.435300  0.648900  1
  C  C635  1  0.319100  0.522200  0.346600  1
  C  C636  1  0.680900  0.477800  0.653400  1
  C  C637  1  0.430600  0.556900  0.244900  1
  C  C638  1  0.569400  0.443100  0.755100  1
  C  C639  1  0.462600  0.602100  0.229100  1
  C  C640  1  0.537400  0.397900  0.770900  1
  C  C641  1  0.420500  0.692300  0.206800  1
  C  C642  1  0.579500  0.307700  0.793200  1
  C  C643  1  0.345600  0.733400  0.200500  1
  C  C644  1  0.654400  0.266600  0.799500  1
  C  C645  1  0.289400  0.730100  0.233800  1
  C  C646  1  0.710600  0.269900  0.766200  1
  C  C647  1  0.221300  0.770800  0.227200  1
  C  C648  1  0.778700  0.229200  0.772800  1
  C  C649  1  0.209400  0.814800  0.187400  1
  C  C650  1  0.790600  0.185200  0.812600  1
  C  C651  1  0.265500  0.818100  0.154100  1
  C  C652  1  0.734500  0.181900  0.845900  1
  C  C653  1  0.333700  0.777300  0.160700  1
  C  C654  1  0.666300  0.222700  0.839300  1
  C  C655  1  0.137900  0.864400  0.180000  1
  C  C656  1  0.862100  0.135600  0.820000  1
  C  C657  1  0.199300  0.880600  0.256500  1
  C  C658  1  0.800700  0.119400  0.743500  1
  C  C659  1  0.271900  0.857400  0.279600  1
  C  C660  1  0.728100  0.142600  0.720400  1
  C  C661  1  0.343100  0.843000  0.257000  1
  C  C662  1  0.656900  0.157000  0.743000  1
  C  C663  1  0.168000  0.853200  0.344100  1
  C  C664  1  0.832000  0.146800  0.655900  1
  C  C665  1  0.131000  0.844300  0.386600  1
  C  C666  1  0.869000  0.155700  0.613400  1
  C  C667  1  0.108000  0.828900  0.473900  1
  C  C668  1  0.892000  0.171100  0.526100  1
  C  C669  1  0.038200  0.858200  0.448300  1
  C  C670  1  0.961800  0.141800  0.551700  1
  C  C671  1  0.035800  0.787100  0.544000  1
  C  C672  1  0.964200  0.212900  0.456000  1
  C  C673  1  0.962400  0.824800  0.523900  1
  C  C674  1  0.037600  0.175200  0.476100  1
  C  C675  1  0.610500  0.332700  0.989900  1
  C  C676  1  0.389500  0.667300  0.010100  1
  C  C677  1  0.634400  0.375000  0.992100  1
  C  C678  1  0.365600  0.625000  0.007900  1
  C  C679  1  0.605500  0.385100  0.033200  1
  C  C680  1  0.394500  0.614900  0.966800  1
  S  S681  1  0.760000  0.104700  0.046700  1
  S  S682  1  0.240000  0.895300  0.953300  1
  S  S683  1  0.852100  0.026400  0.016800  1
  S  S684  1  0.147900  0.973600  0.983200  1
  S  S685  1  0.936900  0.084900  0.943400  1
  S  S686  1  0.063100  0.915100  0.056600  1
  S  S687  1  0.969700  0.996800  0.893300  1
  S  S688  1  0.030300  0.003200  0.106700  1
  S  S689  1  0.889100  0.939500  0.969700  1
  S  S690  1  0.110900  0.060500  0.030300  1
  S  S691  1  0.920300  0.960600  0.819700  1
  S  S692  1  0.079700  0.039400  0.180300  1
  S  S693  1  0.834500  0.886700  0.911000  1
  S  S694  1  0.165500  0.113300  0.089000  1
  S  S695  1  0.005600  0.193800  0.840300  1
  S  S696  1  0.994400  0.806200  0.159700  1
  S  S697  1  0.044700  0.244800  0.906200  1
  S  S698  1  0.955300  0.755200  0.093800  1
  S  S699  1  0.186400  0.155400  0.960300  1
  S  S700  1  0.813600  0.844600  0.039700  1
  S  S701  1  0.243500  0.228900  0.007100  1
  S  S702  1  0.756500  0.771100  0.992900  1
  S  S703  1  0.099800  0.312200  0.959500  1
  S  S704  1  0.900200  0.687800  0.040500  1
  S  S705  1  0.326300  0.299600  0.031200  1
  S  S706  1  0.673700  0.700400  0.968800  1
  S  S707  1  0.147300  0.396600  0.975400  1
  S  S708  1  0.852700  0.603400  0.024600  1
  S  S709  1  0.843000  0.980600  0.166600  1
  S  S710  1  0.157000  0.019400  0.833400  1
  S  S711  1  0.780500  0.894300  0.208300  1
  S  S712  1  0.219500  0.105700  0.791700  1
  S  S713  1  0.652100  0.942100  0.258300  1
  S  S714  1  0.347900  0.057900  0.741700  1
  S  S715  1  0.645500  0.829400  0.327300  1
  S  S716  1  0.354500  0.170600  0.672700  1
  S  S717  1  0.778800  0.785400  0.279800  1
  S  S718  1  0.221200  0.214600  0.720200  1
  S  S719  1  0.667700  0.736200  0.412800  1
  S  S720  1  0.332300  0.263800  0.587200  1
  S  S721  1  0.822700  0.683400  0.357800  1
  S  S722  1  0.177300  0.316600  0.642200  1
  S  S723  1  0.176300  0.912800  0.195200  1
  S  S724  1  0.823700  0.087200  0.804800  1
  S  S725  1  0.114700  0.890800  0.289000  1
  S  S726  1  0.885300  0.109200  0.711000  1
  S  S727  1  0.272100  0.825300  0.342100  1
  S  S728  1  0.727900  0.174700  0.657900  1
  S  S729  1  0.188700  0.807300  0.440890  1
  S  S730  1  0.811300  0.192700  0.559110  1
  S  S731  1  0.029900  0.868070  0.387650  1
  S  S732  1  0.970100  0.131930  0.612350  1
  S  S733  1  0.128000  0.804000  0.534710  1
  S  S734  1  0.872000  0.196000  0.465290  1
  S  S735  1  0.951300  0.878040  0.471890  1
  S  S736  1  0.048700  0.121960  0.528110  1
  N  N737  1  0.151400  0.281800  0.256700  1
  N  N738  1  0.848600  0.718200  0.743300  1
  N  N739  1  0.101900  0.393900  0.222500  1
  N  N740  1  0.898100  0.606100  0.777500  1
  N  N741  1  0.106500  0.380200  0.368900  1
  N  N742  1  0.893500  0.619800  0.631100  1
  N  N743  1  0.148100  0.270100  0.402900  1
  N  N744  1  0.851900  0.729900  0.597100  1
  N  N745  1  0.362900  0.191300  0.350200  1
  N  N746  1  0.637100  0.808700  0.649800  1
  N  N747  1  0.459100  0.245000  0.384600  1
  N  N748  1  0.540900  0.755000  0.615400  1
  N  N749  1  0.249400  0.319900  0.436800  1
  N  N750  1  0.750600  0.680100  0.563200  1
  N  N751  1  0.459500  0.245900  0.285100  1
  N  N752  1  0.540500  0.754100  0.714900  1
  N  N753  1  0.245700  0.338300  0.190600  1
  N  N754  1  0.754300  0.661700  0.809400  1
  N  N755  1  0.391500  0.405500  0.243900  1
  N  N756  1  0.608500  0.594500  0.756100  1
  N  N757  1  0.248900  0.461100  0.278500  1
  N  N758  1  0.751100  0.538900  0.721500  1
  N  N759  1  0.394600  0.402100  0.344000  1
  N  N760  1  0.605400  0.597900  0.656000  1
  N  N761  1  0.212800  0.141200  0.319000  1
  N  N762  1  0.787200  0.858800  0.681000  1
  N  N763  1  0.185900  0.099700  0.331100  1
  N  N764  1  0.814100  0.900300  0.668900  1
  N  N765  1  0.076600  0.187800  0.348300  1
  N  N766  1  0.923400  0.812200  0.651700  1
  N  N767  1  0.059500  0.140900  0.357200  1
  N  N768  1  0.940500  0.859100  0.642800  1
  N  N769  1  0.209400  0.133000  0.411500  1
  N  N770  1  0.790600  0.867000  0.588500  1
  N  N771  1  0.177900  0.091400  0.416800  1
  N  N772  1  0.822100  0.908600  0.583200  1
  N  N773  1  0.105700  0.047600  0.379300  1
  N  N774  1  0.894300  0.952400  0.620700  1
  N  N775  1  0.133100  0.004700  0.409800  1
  N  N776  1  0.866900  0.995300  0.590200  1
  N  N777  1  0.950800  0.474300  0.275700  1
  N  N778  1  0.049200  0.525700  0.724300  1
  N  N779  1  0.895800  0.520000  0.264300  1
  N  N780  1  0.104200  0.480000  0.735700  1
  N  N781  1  0.048500  0.520800  0.306500  1
  N  N782  1  0.951500  0.479200  0.693500  1
  N  N783  1  0.982200  0.562700  0.292700  1
  N  N784  1  0.017800  0.437300  0.707300  1
  N  N785  1  0.037800  0.527200  0.212400  1
  N  N786  1  0.962200  0.472800  0.787600  1
  N  N787  1  0.973100  0.566300  0.208100  1
  N  N788  1  0.026900  0.433700  0.791900  1
  N  N789  1  0.861600  0.616500  0.237200  1
  N  N790  1  0.138400  0.383500  0.762800  1
  N  N791  1  0.784100  0.620900  0.253800  1
  N  N792  1  0.215900  0.379100  0.746200  1
  N  N793  1  0.453800  0.260300  0.503100  1
  N  N794  1  0.546200  0.739700  0.496900  1
  N  N795  1  0.505100  0.257200  0.539800  1
  N  N796  1  0.494900  0.742800  0.460200  1
  N  N797  1  0.410200  0.364200  0.477000  1
  N  N798  1  0.589800  0.635800  0.523000  1
  N  N799  1  0.462000  0.350500  0.517200  1
  N  N800  1  0.538000  0.649500  0.482800  1
  N  N801  1  0.542700  0.314200  0.445000  1
  N  N802  1  0.457300  0.685800  0.555000  1
  N  N803  1  0.583900  0.308500  0.488300  1
  N  N804  1  0.416100  0.691500  0.511700  1
  N  N805  1  0.581400  0.300700  0.576000  1
  N  N806  1  0.418600  0.699300  0.424000  1
  N  N807  1  0.639300  0.320600  0.577300  1
  N  N808  1  0.360700  0.679400  0.422700  1
  N  N809  1  0.449600  0.287600  0.153100  1
  N  N810  1  0.550400  0.712400  0.846900  1
  N  N811  1  0.496300  0.293300  0.117000  1
  N  N812  1  0.503700  0.706700  0.883000  1
  N  N813  1  0.537600  0.333000  0.186100  1
  N  N814  1  0.462400  0.667000  0.813900  1
  N  N815  1  0.574500  0.337700  0.144800  1
  N  N816  1  0.425500  0.662300  0.855200  1
  N  N817  1  0.401400  0.386500  0.126500  1
  N  N818  1  0.598600  0.613500  0.873500  1
  N  N819  1  0.453800  0.385400  0.090100  1
  N  N820  1  0.546200  0.614600  0.909900  1
  N  N821  1  0.142800  0.285600  0.158000  1
  N  N822  1  0.857200  0.714400  0.842000  1
  N  N823  1  0.095200  0.297600  0.117900  1
  N  N824  1  0.904800  0.702400  0.882100  1
  N  N825  1  0.009500  0.336600  0.189100  1
  N  N826  1  0.990500  0.663400  0.810900  1
  N  N827  1  0.976200  0.336600  0.147200  1
  N  N828  1  0.023800  0.663400  0.852800  1
  N  N829  1  0.096500  0.389600  0.125400  1
  N  N830  1  0.903500  0.610400  0.874600  1
  N  N831  1  0.044300  0.383500  0.092700  1
  N  N832  1  0.955700  0.616500  0.907300  1
  N  N833  1  0.008000  0.325700  0.439800  1
  N  N834  1  0.992000  0.674300  0.560200  1
  N  N835  1  0.977100  0.327500  0.480800  1
  N  N836  1  0.022900  0.672500  0.519200  1
  N  N837  1  0.145700  0.266600  0.503300  1
  N  N838  1  0.854300  0.733400  0.496700  1
  N  N839  1  0.090100  0.274500  0.534100  1
  N  N840  1  0.909900  0.725500  0.465900  1
  N  N841  1  0.105000  0.374500  0.471600  1
  N  N842  1  0.895000  0.625500  0.528400  1
  N  N843  1  0.059300  0.364800  0.508500  1
  N  N844  1  0.940700  0.635200  0.491500  1
  N  N845  1  0.514000  0.133900  0.321800  1
  N  N846  1  0.486000  0.866100  0.678200  1
  N  N847  1  0.582600  0.093000  0.343800  1
  N  N848  1  0.417400  0.907000  0.656200  1
  N  N849  1  0.602100  0.185200  0.354300  1
  N  N850  1  0.397900  0.814800  0.645700  1
  N  N851  1  0.656400  0.140200  0.370000  1
  N  N852  1  0.343600  0.859800  0.630000  1
  N  N853  1  0.510000  0.131000  0.416600  1
  N  N854  1  0.490000  0.869000  0.583400  1
  N  N855  1  0.577000  0.093300  0.423000  1
  N  N856  1  0.423000  0.906700  0.577000  1
  N  N857  1  0.485800  0.461100  0.274400  1
  N  N858  1  0.514200  0.538900  0.725600  1
  N  N859  1  0.502000  0.509600  0.257800  1
  N  N860  1  0.498000  0.490400  0.742200  1
  N  N861  1  0.346100  0.516400  0.213800  1
  N  N862  1  0.653900  0.483600  0.786200  1
  N  N863  1  0.383400  0.555800  0.208200  1
  N  N864  1  0.616600  0.444200  0.791800  1
  N  N865  1  0.348600  0.516300  0.304800  1
  N  N866  1  0.651400  0.483700  0.695200  1
  N  N867  1  0.388000  0.553900  0.285900  1
  N  N868  1  0.612000  0.446100  0.714100  1
  N  N869  1  0.563800  0.348900  0.056400  1
  N  N870  1  0.436200  0.651100  0.943600  1
  N  N871  1  0.566900  0.316500  0.029600  1
  N  N872  1  0.433100  0.683500  0.970400  1
  O  O873  1  0.949400  0.297600  0.078400  1
  O  O874  1  0.050600  0.702400  0.921600  1
  O  O875  1  0.937500  0.281100  0.572500  1
  O  O876  1  0.062500  0.718900  0.427500  1
  O  O877  1  0.750200  0.044800  0.361500  1
  O  O878  1  0.249800  0.955200  0.638500  1
  O  O879  1  0.394100  0.645200  0.219700  1
  O  O880  1  0.605900  0.354800  0.780300  1
  F  F881  1  0.703300  0.924800  0.400100  1
  F  F882  1  0.296700  0.075200  0.599900  1
  F  F883  1  0.646500  0.879300  0.458700  1
  F  F884  1  0.353500  0.120700  0.541300  1
  F  F885  1  0.575100  0.921400  0.383200  1
  F  F886  1  0.424900  0.078600  0.616800  1
  F  F887  1  0.595500  0.963000  0.429400  1
  F  F888  1  0.404500  0.037000  0.570600  1
  F  F889  1  0.806100  0.399700  0.959100  1
  F  F890  1  0.193900  0.600300  0.040900  1
  F  F891  1  0.915800  0.415600  0.962600  1
  F  F892  1  0.084200  0.584400  0.037400  1
  F  F893  1  0.811600  0.475100  0.912000  1
  F  F894  1  0.188400  0.524900  0.088000  1
  F  F895  1  0.823300  0.457000  0.990000  1
  F  F896  1  0.176700  0.543000  0.010000  1
  F  F897  1  0.814400  0.404700  0.587100  1
  F  F898  1  0.185600  0.595300  0.412900  1
  F  F899  1  0.790100  0.492400  0.566400  1
  F  F900  1  0.209900  0.507600  0.433600  1
  F  F901  1  0.733300  0.461500  0.520800  1
  F  F902  1  0.266700  0.538500  0.479200  1
  F  F903  1  0.858700  0.453500  0.520000  1
  F  F904  1  0.141300  0.546500  0.480000  1
  F  F905  1  0.715800  0.317200  0.304600  1
  F  F906  1  0.284200  0.682800  0.695400  1
  F  F907  1  0.818200  0.283400  0.360800  1
  F  F908  1  0.181800  0.716600  0.639200  1
  F  F909  1  0.744000  0.368600  0.343100  1
  F  F910  1  0.256000  0.631400  0.656900  1
  F  F911  1  0.827000  0.344100  0.294200  1
  F  F912  1  0.173000  0.655900  0.705800  1
