# generated using pymatgen
data_H54Pd3C52(N11O16)2
_symmetry_space_group_name_H-M   'P 1'
_cell_length_a   25.01300000
_cell_length_b   25.01300000
_cell_length_c   25.06300000
_cell_angle_alpha   90.00000000
_cell_angle_beta   90.00000000
_cell_angle_gamma   90.00000000
_symmetry_Int_Tables_number   1
_chemical_formula_structural   H54Pd3C52(N11O16)2
_chemical_formula_sum   'H432 Pd24 C416 N176 O256'
_cell_volume   15680.67018565
_cell_formula_units_Z   8
loop_
 _symmetry_equiv_pos_site_id
 _symmetry_equiv_pos_as_xyz
  1  'x, y, z'
loop_
 _atom_site_type_symbol
 _atom_site_label
 _atom_site_symmetry_multiplicity
 _atom_site_fract_x
 _atom_site_fract_y
 _atom_site_fract_z
 _atom_site_occupancy
  H  H1  1  0.075600  0.473500  0.966500  1.0
  H  H2  1  0.924400  0.526500  0.466500  1.0
  H  H3  1  0.026500  0.575600  0.716500  1.0
  H  H4  1  0.973500  0.424400  0.216500  1.0
  H  H5  1  0.424400  0.973500  0.783500  1.0
  H  H6  1  0.575600  0.026500  0.283500  1.0
  H  H7  1  0.473500  0.075600  0.033500  1.0
  H  H8  1  0.526500  0.924400  0.533500  1.0
  H  H9  1  0.230300  0.520500  0.970700  1.0
  H  H10  1  0.769700  0.479500  0.470700  1.0
  H  H11  1  0.979500  0.730300  0.720700  1.0
  H  H12  1  0.020500  0.269700  0.220700  1.0
  H  H13  1  0.269700  0.020500  0.779300  1.0
  H  H14  1  0.730300  0.979500  0.279300  1.0
  H  H15  1  0.520500  0.230300  0.029300  1.0
  H  H16  1  0.479500  0.769700  0.529300  1.0
  H  H17  1  0.209900  0.575300  0.044000  1.0
  H  H18  1  0.790100  0.424700  0.544000  1.0
  H  H19  1  0.924700  0.709900  0.794000  1.0
  H  H20  1  0.075300  0.290100  0.294000  1.0
  H  H21  1  0.290100  0.075300  0.706000  1.0
  H  H22  1  0.709900  0.924700  0.206000  1.0
  H  H23  1  0.575300  0.209900  0.956000  1.0
  H  H24  1  0.424700  0.790100  0.456000  1.0
  H  H25  1  0.116400  0.586900  0.066800  1.0
  H  H26  1  0.883600  0.413100  0.566800  1.0
  H  H27  1  0.913100  0.616400  0.816800  1.0
  H  H28  1  0.086900  0.383600  0.316800  1.0
  H  H29  1  0.383600  0.086900  0.683200  1.0
  H  H30  1  0.616400  0.913100  0.183200  1.0
  H  H31  1  0.586900  0.116400  0.933200  1.0
  H  H32  1  0.413100  0.883600  0.433200  1.0
  H  H33  1  0.253500  0.357900  0.777700  1.0
  H  H34  1  0.746500  0.642100  0.277700  1.0
  H  H35  1  0.142100  0.753500  0.527700  1.0
  H  H36  1  0.857900  0.246500  0.027700  1.0
  H  H37  1  0.246500  0.857900  0.972300  1.0
  H  H38  1  0.753500  0.142100  0.472300  1.0
  H  H39  1  0.357900  0.253500  0.222300  1.0
  H  H40  1  0.642100  0.746500  0.722300  1.0
  H  H41  1  0.312900  0.474200  0.879600  1.0
  H  H42  1  0.687100  0.525800  0.379600  1.0
  H  H43  1  0.025800  0.812900  0.629600  1.0
  H  H44  1  0.974200  0.187100  0.129600  1.0
  H  H45  1  0.187100  0.974200  0.870400  1.0
  H  H46  1  0.812900  0.025800  0.370400  1.0
  H  H47  1  0.474200  0.312900  0.120400  1.0
  H  H48  1  0.525800  0.687100  0.620400  1.0
  H  H49  1  0.392300  0.464600  0.834300  1.0
  H  H50  1  0.607700  0.535400  0.334300  1.0
  H  H51  1  0.035400  0.892300  0.584300  1.0
  H  H52  1  0.964600  0.107700  0.084300  1.0
  H  H53  1  0.107700  0.964600  0.915700  1.0
  H  H54  1  0.892300  0.035400  0.415700  1.0
  H  H55  1  0.464600  0.392300  0.165700  1.0
  H  H56  1  0.535400  0.607700  0.665700  1.0
  H  H57  1  0.400500  0.415700  0.757000  1.0
  H  H58  1  0.599500  0.584300  0.257000  1.0
  H  H59  1  0.084300  0.900500  0.507000  1.0
  H  H60  1  0.915700  0.099500  0.007000  1.0
  H  H61  1  0.099500  0.915700  0.993000  1.0
  H  H62  1  0.900500  0.084300  0.493000  1.0
  H  H63  1  0.415700  0.400500  0.243000  1.0
  H  H64  1  0.584300  0.599500  0.743000  1.0
  H  H65  1  0.140000  0.302100  0.799700  1.0
  H  H66  1  0.860000  0.697900  0.299700  1.0
  H  H67  1  0.197900  0.640000  0.549700  1.0
  H  H68  1  0.802100  0.360000  0.049700  1.0
  H  H69  1  0.360000  0.802100  0.950300  1.0
  H  H70  1  0.640000  0.197900  0.450300  1.0
  H  H71  1  0.302100  0.140000  0.200300  1.0
  H  H72  1  0.697900  0.860000  0.700300  1.0
  H  H73  1  0.042600  0.367900  0.910300  1.0
  H  H74  1  0.957400  0.632100  0.410300  1.0
  H  H75  1  0.132100  0.542600  0.660300  1.0
  H  H76  1  0.867900  0.457400  0.160300  1.0
  H  H77  1  0.457400  0.867900  0.839700  1.0
  H  H78  1  0.542600  0.132100  0.339700  1.0
  H  H79  1  0.367900  0.042600  0.089700  1.0
  H  H80  1  0.632100  0.957400  0.589700  1.0
  H  H81  1  0.976500  0.300900  0.890200  1.0
  H  H82  1  0.023500  0.699100  0.390200  1.0
  H  H83  1  0.199100  0.476500  0.640200  1.0
  H  H84  1  0.800900  0.523500  0.140200  1.0
  H  H85  1  0.523500  0.800900  0.859800  1.0
  H  H86  1  0.476500  0.199100  0.359800  1.0
  H  H87  1  0.300900  0.976500  0.109800  1.0
  H  H88  1  0.699100  0.023500  0.609800  1.0
  H  H89  1  0.000200  0.237300  0.825500  1.0
  H  H90  1  0.999800  0.762700  0.325500  1.0
  H  H91  1  0.262700  0.500200  0.575500  1.0
  H  H92  1  0.737300  0.499800  0.075500  1.0
  H  H93  1  0.499800  0.737300  0.924500  1.0
  H  H94  1  0.500200  0.262700  0.424500  1.0
  H  H95  1  0.237300  0.000200  0.174500  1.0
  H  H96  1  0.762700  0.999800  0.674500  1.0
  H  H97  1  0.260800  0.393900  0.670100  1.0
  H  H98  1  0.739200  0.606100  0.170100  1.0
  H  H99  1  0.106100  0.760800  0.420100  1.0
  H  H100  1  0.893900  0.239200  0.920100  1.0
  H  H101  1  0.239200  0.893900  0.079900  1.0
  H  H102  1  0.760800  0.106100  0.579900  1.0
  H  H103  1  0.393900  0.260800  0.329900  1.0
  H  H104  1  0.606100  0.739200  0.829900  1.0
  H  H105  1  0.311500  0.419000  0.651600  1.0
  H  H106  1  0.688500  0.581000  0.151600  1.0
  H  H107  1  0.081000  0.811500  0.401600  1.0
  H  H108  1  0.919000  0.188500  0.901600  1.0
  H  H109  1  0.188500  0.919000  0.098400  1.0
  H  H110  1  0.811500  0.081000  0.598400  1.0
  H  H111  1  0.419000  0.311500  0.348400  1.0
  H  H112  1  0.581000  0.688500  0.848400  1.0
  H  H113  1  0.371400  0.292300  0.613300  1.0
  H  H114  1  0.628600  0.707700  0.113300  1.0
  H  H115  1  0.207700  0.871400  0.363300  1.0
  H  H116  1  0.792300  0.128600  0.863300  1.0
  H  H117  1  0.128600  0.792300  0.136700  1.0
  H  H118  1  0.871400  0.207700  0.636700  1.0
  H  H119  1  0.292300  0.371400  0.386700  1.0
  H  H120  1  0.707700  0.628600  0.886700  1.0
  H  H121  1  0.325200  0.259100  0.631200  1.0
  H  H122  1  0.674800  0.740900  0.131200  1.0
  H  H123  1  0.240900  0.825200  0.381200  1.0
  H  H124  1  0.759100  0.174800  0.881200  1.0
  H  H125  1  0.174800  0.759100  0.118800  1.0
  H  H126  1  0.825200  0.240900  0.618800  1.0
  H  H127  1  0.259100  0.325200  0.368800  1.0
  H  H128  1  0.740900  0.674800  0.868800  1.0
  H  H129  1  0.244500  0.366600  0.595900  1.0
  H  H130  1  0.755500  0.633400  0.095900  1.0
  H  H131  1  0.133400  0.744500  0.345900  1.0
  H  H132  1  0.866600  0.255500  0.845900  1.0
  H  H133  1  0.255500  0.866600  0.154100  1.0
  H  H134  1  0.744500  0.133400  0.654100  1.0
  H  H135  1  0.366600  0.244500  0.404100  1.0
  H  H136  1  0.633400  0.755500  0.904100  1.0
  H  H137  1  0.298300  0.394100  0.576000  1.0
  H  H138  1  0.701700  0.605900  0.076000  1.0
  H  H139  1  0.105900  0.798300  0.326000  1.0
  H  H140  1  0.894100  0.201700  0.826000  1.0
  H  H141  1  0.201700  0.894100  0.174000  1.0
  H  H142  1  0.798300  0.105900  0.674000  1.0
  H  H143  1  0.394100  0.298300  0.424000  1.0
  H  H144  1  0.605900  0.701700  0.924000  1.0
  H  H145  1  0.322500  0.325400  0.553500  1.0
  H  H146  1  0.677500  0.674600  0.053500  1.0
  H  H147  1  0.174600  0.822500  0.303500  1.0
  H  H148  1  0.825400  0.177500  0.803500  1.0
  H  H149  1  0.177500  0.825400  0.196500  1.0
  H  H150  1  0.822500  0.174600  0.696500  1.0
  H  H151  1  0.325400  0.322500  0.446500  1.0
  H  H152  1  0.674600  0.677500  0.946500  1.0
  H  H153  1  0.271400  0.297300  0.579200  1.0
  H  H154  1  0.728600  0.702700  0.079200  1.0
  H  H155  1  0.202700  0.771400  0.329200  1.0
  H  H156  1  0.797300  0.228600  0.829200  1.0
  H  H157  1  0.228600  0.797300  0.170800  1.0
  H  H158  1  0.771400  0.202700  0.670800  1.0
  H  H159  1  0.297300  0.271400  0.420800  1.0
  H  H160  1  0.702700  0.728600  0.920800  1.0
  H  H161  1  0.201200  0.180100  0.789700  1.0
  H  H162  1  0.798800  0.819900  0.289700  1.0
  H  H163  1  0.319900  0.701200  0.539700  1.0
  H  H164  1  0.680100  0.298800  0.039700  1.0
  H  H165  1  0.298800  0.680100  0.960300  1.0
  H  H166  1  0.701200  0.319900  0.460300  1.0
  H  H167  1  0.180100  0.201200  0.210300  1.0
  H  H168  1  0.819900  0.798800  0.710300  1.0
  H  H169  1  0.192700  0.084900  0.918800  1.0
  H  H170  1  0.807300  0.915100  0.418800  1.0
  H  H171  1  0.415100  0.692700  0.668800  1.0
  H  H172  1  0.584900  0.307300  0.168800  1.0
  H  H173  1  0.307300  0.584900  0.831200  1.0
  H  H174  1  0.692700  0.415100  0.331200  1.0
  H  H175  1  0.084900  0.192700  0.081200  1.0
  H  H176  1  0.915100  0.807300  0.581200  1.0
  H  H177  1  0.099500  0.076500  0.905200  1.0
  H  H178  1  0.900500  0.923500  0.405200  1.0
  H  H179  1  0.423500  0.599500  0.655200  1.0
  H  H180  1  0.576500  0.400500  0.155200  1.0
  H  H181  1  0.400500  0.576500  0.844800  1.0
  H  H182  1  0.599500  0.423500  0.344800  1.0
  H  H183  1  0.076500  0.099500  0.094800  1.0
  H  H184  1  0.923500  0.900500  0.594800  1.0
  H  H185  1  0.060600  0.134400  0.845400  1.0
  H  H186  1  0.939400  0.865600  0.345400  1.0
  H  H187  1  0.365600  0.560600  0.595400  1.0
  H  H188  1  0.634400  0.439400  0.095400  1.0
  H  H189  1  0.439400  0.634400  0.904600  1.0
  H  H190  1  0.560600  0.365600  0.404600  1.0
  H  H191  1  0.134400  0.060600  0.154600  1.0
  H  H192  1  0.865600  0.939400  0.654600  1.0
  H  H193  1  0.070000  0.445400  0.106400  1.0
  H  H194  1  0.930000  0.554600  0.606400  1.0
  H  H195  1  0.054600  0.570000  0.856400  1.0
  H  H196  1  0.945400  0.430000  0.356400  1.0
  H  H197  1  0.430000  0.945400  0.643600  1.0
  H  H198  1  0.570000  0.054600  0.143600  1.0
  H  H199  1  0.445400  0.070000  0.893600  1.0
  H  H200  1  0.554600  0.930000  0.393600  1.0
  H  H201  1  0.017700  0.300700  0.052200  1.0
  H  H202  1  0.982300  0.699300  0.552200  1.0
  H  H203  1  0.199300  0.517700  0.802200  1.0
  H  H204  1  0.800700  0.482300  0.302200  1.0
  H  H205  1  0.482300  0.800700  0.697800  1.0
  H  H206  1  0.517700  0.199300  0.197800  1.0
  H  H207  1  0.300700  0.017700  0.947800  1.0
  H  H208  1  0.699300  0.982300  0.447800  1.0
  H  H209  1  0.958800  0.346900  0.994500  1.0
  H  H210  1  0.041200  0.653100  0.494500  1.0
  H  H211  1  0.153100  0.458800  0.744500  1.0
  H  H212  1  0.846900  0.541200  0.244500  1.0
  H  H213  1  0.541200  0.846900  0.755500  1.0
  H  H214  1  0.458800  0.153100  0.255500  1.0
  H  H215  1  0.346900  0.958800  0.005500  1.0
  H  H216  1  0.653100  0.041200  0.505500  1.0
  H  H217  1  0.954300  0.440300  0.000800  1.0
  H  H218  1  0.045700  0.559700  0.500800  1.0
  H  H219  1  0.059700  0.454300  0.750800  1.0
  H  H220  1  0.940300  0.545700  0.250800  1.0
  H  H221  1  0.545700  0.940300  0.749200  1.0
  H  H222  1  0.454300  0.059700  0.249200  1.0
  H  H223  1  0.440300  0.954300  0.999200  1.0
  H  H224  1  0.559700  0.045700  0.499200  1.0
  H  H225  1  0.311200  0.240900  0.769200  1.0
  H  H226  1  0.688800  0.759100  0.269200  1.0
  H  H227  1  0.259100  0.811200  0.519200  1.0
  H  H228  1  0.740900  0.188800  0.019200  1.0
  H  H229  1  0.188800  0.740900  0.980800  1.0
  H  H230  1  0.811200  0.259100  0.480800  1.0
  H  H231  1  0.240900  0.311200  0.230800  1.0
  H  H232  1  0.759100  0.688800  0.730800  1.0
  H  H233  1  0.451600  0.176900  0.817800  1.0
  H  H234  1  0.548400  0.823100  0.317800  1.0
  H  H235  1  0.323100  0.951600  0.567800  1.0
  H  H236  1  0.676900  0.048400  0.067800  1.0
  H  H237  1  0.048400  0.676900  0.932200  1.0
  H  H238  1  0.951600  0.323100  0.432200  1.0
  H  H239  1  0.176900  0.451600  0.182200  1.0
  H  H240  1  0.823100  0.548400  0.682200  1.0
  H  H241  1  0.495000  0.244700  0.771700  1.0
  H  H242  1  0.505000  0.755300  0.271700  1.0
  H  H243  1  0.255300  0.995000  0.521700  1.0
  H  H244  1  0.744700  0.005000  0.021700  1.0
  H  H245  1  0.005000  0.744700  0.978300  1.0
  H  H246  1  0.995000  0.255300  0.478300  1.0
  H  H247  1  0.244700  0.495000  0.228300  1.0
  H  H248  1  0.755300  0.505000  0.728300  1.0
  H  H249  1  0.450000  0.300800  0.719300  1.0
  H  H250  1  0.550000  0.699200  0.219300  1.0
  H  H251  1  0.199200  0.950000  0.469300  1.0
  H  H252  1  0.800800  0.050000  0.969300  1.0
  H  H253  1  0.050000  0.800800  0.030700  1.0
  H  H254  1  0.950000  0.199200  0.530700  1.0
  H  H255  1  0.300800  0.450000  0.280700  1.0
  H  H256  1  0.699200  0.550000  0.780700  1.0
  H  H257  1  0.146300  0.154500  0.688900  1.0
  H  H258  1  0.853700  0.845500  0.188900  1.0
  H  H259  1  0.345500  0.646300  0.438900  1.0
  H  H260  1  0.654500  0.353700  0.938900  1.0
  H  H261  1  0.353700  0.654500  0.061100  1.0
  H  H262  1  0.646300  0.345500  0.561100  1.0
  H  H263  1  0.154500  0.146300  0.311100  1.0
  H  H264  1  0.845500  0.853700  0.811100  1.0
  H  H265  1  0.106400  0.116700  0.712000  1.0
  H  H266  1  0.893600  0.883300  0.212000  1.0
  H  H267  1  0.383300  0.606400  0.462000  1.0
  H  H268  1  0.616700  0.393600  0.962000  1.0
  H  H269  1  0.393600  0.616700  0.038000  1.0
  H  H270  1  0.606400  0.383300  0.538000  1.0
  H  H271  1  0.116700  0.106400  0.288000  1.0
  H  H272  1  0.883300  0.893600  0.788000  1.0
  H  H273  1  0.019800  0.251600  0.693800  1.0
  H  H274  1  0.980200  0.748400  0.193800  1.0
  H  H275  1  0.248400  0.519800  0.443800  1.0
  H  H276  1  0.751600  0.480200  0.943800  1.0
  H  H277  1  0.480200  0.751600  0.056200  1.0
  H  H278  1  0.519800  0.248400  0.556200  1.0
  H  H279  1  0.251600  0.019800  0.306200  1.0
  H  H280  1  0.748400  0.980200  0.806200  1.0
  H  H281  1  0.070100  0.284200  0.689300  1.0
  H  H282  1  0.929900  0.715800  0.189300  1.0
  H  H283  1  0.215800  0.570100  0.439300  1.0
  H  H284  1  0.784200  0.429900  0.939300  1.0
  H  H285  1  0.429900  0.784200  0.060700  1.0
  H  H286  1  0.570100  0.215800  0.560700  1.0
  H  H287  1  0.284200  0.070100  0.310700  1.0
  H  H288  1  0.715800  0.929900  0.810700  1.0
  H  H289  1  0.042800  0.143000  0.661400  1.0
  H  H290  1  0.957200  0.857000  0.161400  1.0
  H  H291  1  0.357000  0.542800  0.411400  1.0
  H  H292  1  0.643000  0.457200  0.911400  1.0
  H  H293  1  0.457200  0.643000  0.088600  1.0
  H  H294  1  0.542800  0.357000  0.588600  1.0
  H  H295  1  0.143000  0.042800  0.338600  1.0
  H  H296  1  0.857000  0.957200  0.838600  1.0
  H  H297  1  0.094100  0.137500  0.623400  1.0
  H  H298  1  0.905900  0.862500  0.123400  1.0
  H  H299  1  0.362500  0.594100  0.373400  1.0
  H  H300  1  0.637500  0.405900  0.873400  1.0
  H  H301  1  0.405900  0.637500  0.126600  1.0
  H  H302  1  0.594100  0.362500  0.626600  1.0
  H  H303  1  0.137500  0.094100  0.376600  1.0
  H  H304  1  0.862500  0.905900  0.876600  1.0
  H  H305  1  0.050200  0.218700  0.611700  1.0
  H  H306  1  0.949800  0.781300  0.111700  1.0
  H  H307  1  0.281300  0.550200  0.361700  1.0
  H  H308  1  0.718700  0.449800  0.861700  1.0
  H  H309  1  0.449800  0.718700  0.138300  1.0
  H  H310  1  0.550200  0.281300  0.638300  1.0
  H  H311  1  0.218700  0.050200  0.388300  1.0
  H  H312  1  0.781300  0.949800  0.888300  1.0
  H  H313  1  0.111100  0.226300  0.629500  1.0
  H  H314  1  0.888900  0.773700  0.129500  1.0
  H  H315  1  0.273700  0.611100  0.379500  1.0
  H  H316  1  0.726300  0.388900  0.879500  1.0
  H  H317  1  0.388900  0.726300  0.120500  1.0
  H  H318  1  0.611100  0.273700  0.620500  1.0
  H  H319  1  0.226300  0.111100  0.370500  1.0
  H  H320  1  0.773700  0.888900  0.870500  1.0
  H  H321  1  0.037500  0.626800  0.052000  1.0
  H  H322  1  0.962500  0.373200  0.552000  1.0
  H  H323  1  0.873200  0.537500  0.802000  1.0
  H  H324  1  0.126800  0.462500  0.302000  1.0
  H  H325  1  0.462500  0.126800  0.698000  1.0
  H  H326  1  0.537500  0.873200  0.198000  1.0
  H  H327  1  0.626800  0.037500  0.948000  1.0
  H  H328  1  0.373200  0.962500  0.448000  1.0
  H  H329  1  0.005500  0.619500  0.002900  1.0
  H  H330  1  0.994500  0.380500  0.502900  1.0
  H  H331  1  0.880500  0.505500  0.752900  1.0
  H  H332  1  0.119500  0.494500  0.252900  1.0
  H  H333  1  0.494500  0.119500  0.747100  1.0
  H  H334  1  0.505500  0.880500  0.247100  1.0
  H  H335  1  0.619500  0.005500  0.997100  1.0
  H  H336  1  0.380500  0.994500  0.497100  1.0
  H  H337  1  0.915400  0.514500  0.055700  1.0
  H  H338  1  0.084600  0.485500  0.555700  1.0
  H  H339  1  0.985500  0.415400  0.805700  1.0
  H  H340  1  0.014500  0.584600  0.305700  1.0
  H  H341  1  0.584600  0.014500  0.694300  1.0
  H  H342  1  0.415400  0.985500  0.194300  1.0
  H  H343  1  0.514500  0.915400  0.944300  1.0
  H  H344  1  0.485500  0.084600  0.444300  1.0
  H  H345  1  0.934800  0.536700  0.107800  1.0
  H  H346  1  0.065200  0.463300  0.607800  1.0
  H  H347  1  0.963300  0.434800  0.857800  1.0
  H  H348  1  0.036700  0.565200  0.357800  1.0
  H  H349  1  0.565200  0.036700  0.642200  1.0
  H  H350  1  0.434800  0.963300  0.142200  1.0
  H  H351  1  0.536700  0.934800  0.892200  1.0
  H  H352  1  0.463300  0.065200  0.392200  1.0
  H  H353  1  0.956300  0.672200  0.045200  1.0
  H  H354  1  0.043700  0.327800  0.545200  1.0
  H  H355  1  0.827800  0.456300  0.795200  1.0
  H  H356  1  0.172200  0.543700  0.295200  1.0
  H  H357  1  0.543700  0.172200  0.704800  1.0
  H  H358  1  0.456300  0.827800  0.204800  1.0
  H  H359  1  0.672200  0.956300  0.954800  1.0
  H  H360  1  0.327800  0.043700  0.454800  1.0
  H  H361  1  0.969900  0.642700  0.101200  1.0
  H  H362  1  0.030100  0.357300  0.601200  1.0
  H  H363  1  0.857300  0.469900  0.851200  1.0
  H  H364  1  0.142700  0.530100  0.351200  1.0
  H  H365  1  0.530100  0.142700  0.648800  1.0
  H  H366  1  0.469900  0.857300  0.148800  1.0
  H  H367  1  0.642700  0.969900  0.898800  1.0
  H  H368  1  0.357300  0.030100  0.398800  1.0
  H  H369  1  0.918100  0.596900  0.012400  1.0
  H  H370  1  0.081900  0.403100  0.512400  1.0
  H  H371  1  0.903100  0.418100  0.762400  1.0
  H  H372  1  0.096900  0.581900  0.262400  1.0
  H  H373  1  0.581900  0.096900  0.737600  1.0
  H  H374  1  0.418100  0.903100  0.237600  1.0
  H  H375  1  0.596900  0.918100  0.987600  1.0
  H  H376  1  0.403100  0.081900  0.487600  1.0
  H  H377  1  0.890300  0.609600  0.068300  1.0
  H  H378  1  0.109700  0.390400  0.568300  1.0
  H  H379  1  0.890400  0.390300  0.818300  1.0
  H  H380  1  0.109600  0.609700  0.318300  1.0
  H  H381  1  0.609700  0.109600  0.681700  1.0
  H  H382  1  0.390300  0.890400  0.181700  1.0
  H  H383  1  0.609600  0.890300  0.931700  1.0
  H  H384  1  0.390400  0.109700  0.431700  1.0
  H  H385  1  0.916400  0.172900  0.254500  1.0
  H  H386  1  0.083600  0.827100  0.754500  1.0
  H  H387  1  0.327100  0.416400  0.004500  1.0
  H  H388  1  0.672900  0.583600  0.504500  1.0
  H  H389  1  0.583600  0.672900  0.495500  1.0
  H  H390  1  0.416400  0.327100  0.995500  1.0
  H  H391  1  0.172900  0.916400  0.745500  1.0
  H  H392  1  0.827100  0.083600  0.245500  1.0
  H  H393  1  0.864700  0.135900  0.178600  1.0
  H  H394  1  0.135300  0.864100  0.678600  1.0
  H  H395  1  0.364100  0.364700  0.928600  1.0
  H  H396  1  0.635900  0.635300  0.428600  1.0
  H  H397  1  0.635300  0.635900  0.571400  1.0
  H  H398  1  0.364700  0.364100  0.071400  1.0
  H  H399  1  0.135900  0.864700  0.821400  1.0
  H  H400  1  0.864100  0.135300  0.321400  1.0
  H  H401  1  0.780100  0.391100  0.245000  1.0
  H  H402  1  0.219900  0.608900  0.745000  1.0
  H  H403  1  0.108900  0.280100  0.995000  1.0
  H  H404  1  0.891100  0.719900  0.495000  1.0
  H  H405  1  0.719900  0.891100  0.505000  1.0
  H  H406  1  0.280100  0.108900  0.005000  1.0
  H  H407  1  0.391100  0.780100  0.755000  1.0
  H  H408  1  0.608900  0.219900  0.255000  1.0
  H  H409  1  0.847600  0.344200  0.275300  1.0
  H  H410  1  0.152400  0.655800  0.775300  1.0
  H  H411  1  0.155800  0.347600  0.025300  1.0
  H  H412  1  0.844200  0.652400  0.525300  1.0
  H  H413  1  0.652400  0.844200  0.474700  1.0
  H  H414  1  0.347600  0.155800  0.974700  1.0
  H  H415  1  0.344200  0.847600  0.724700  1.0
  H  H416  1  0.655800  0.152400  0.224700  1.0
  H  H417  1  0.719100  0.352800  0.182800  1.0
  H  H418  1  0.280900  0.647200  0.682800  1.0
  H  H419  1  0.147200  0.219100  0.932800  1.0
  H  H420  1  0.852800  0.780900  0.432800  1.0
  H  H421  1  0.780900  0.852800  0.567200  1.0
  H  H422  1  0.219100  0.147200  0.067200  1.0
  H  H423  1  0.352800  0.719100  0.817200  1.0
  H  H424  1  0.647200  0.280900  0.317200  1.0
  H  H425  1  0.739000  0.265200  0.145000  1.0
  H  H426  1  0.261000  0.734800  0.645000  1.0
  H  H427  1  0.234800  0.239000  0.895000  1.0
  H  H428  1  0.765200  0.761000  0.395000  1.0
  H  H429  1  0.761000  0.765200  0.605000  1.0
  H  H430  1  0.239000  0.234800  0.105000  1.0
  H  H431  1  0.265200  0.739000  0.855000  1.0
  H  H432  1  0.734800  0.261000  0.355000  1.0
  Pd  Pd433  1  0.012790  0.531440  0.046700  1.0
  Pd  Pd434  1  0.987210  0.468560  0.546700  1.0
  Pd  Pd435  1  0.968560  0.512790  0.796700  1.0
  Pd  Pd436  1  0.031440  0.487210  0.296700  1.0
  Pd  Pd437  1  0.487210  0.031440  0.703300  1.0
  Pd  Pd438  1  0.512790  0.968560  0.203300  1.0
  Pd  Pd439  1  0.531440  0.012790  0.953300  1.0
  Pd  Pd440  1  0.468560  0.987210  0.453300  1.0
  Pd  Pd441  1  0.334950  0.334580  0.696950  1.0
  Pd  Pd442  1  0.665050  0.665420  0.196950  1.0
  Pd  Pd443  1  0.165420  0.834950  0.446950  1.0
  Pd  Pd444  1  0.834580  0.165050  0.946950  1.0
  Pd  Pd445  1  0.165050  0.834580  0.053050  1.0
  Pd  Pd446  1  0.834950  0.165420  0.553050  1.0
  Pd  Pd447  1  0.334580  0.334950  0.303050  1.0
  Pd  Pd448  1  0.665420  0.665050  0.803050  1.0
  Pd  Pd449  1  0.090570  0.206210  0.753800  1.0
  Pd  Pd450  1  0.909430  0.793790  0.253800  1.0
  Pd  Pd451  1  0.293790  0.590570  0.503800  1.0
  Pd  Pd452  1  0.706210  0.409430  0.003800  1.0
  Pd  Pd453  1  0.409430  0.706210  0.996200  1.0
  Pd  Pd454  1  0.590570  0.293790  0.496200  1.0
  Pd  Pd455  1  0.206210  0.090570  0.246200  1.0
  Pd  Pd456  1  0.793790  0.909430  0.746200  1.0
  C  C457  1  0.102500  0.495700  0.981800  1.0
  C  C458  1  0.897500  0.504300  0.481800  1.0
  C  C459  1  0.004300  0.602500  0.731800  1.0
  C  C460  1  0.995700  0.397500  0.231800  1.0
  C  C461  1  0.397500  0.995700  0.768200  1.0
  C  C462  1  0.602500  0.004300  0.268200  1.0
  C  C463  1  0.495700  0.102500  0.018200  1.0
  C  C464  1  0.504300  0.897500  0.518200  1.0
  C  C465  1  0.154800  0.492400  0.963700  1.0
  C  C466  1  0.845200  0.507600  0.463700  1.0
  C  C467  1  0.007600  0.654800  0.713700  1.0
  C  C468  1  0.992400  0.345200  0.213700  1.0
  C  C469  1  0.345200  0.992400  0.786300  1.0
  C  C470  1  0.654800  0.007600  0.286300  1.0
  C  C471  1  0.492400  0.154800  0.036300  1.0
  C  C472  1  0.507600  0.845200  0.536300  1.0
  C  C473  1  0.195000  0.522500  0.984500  1.0
  C  C474  1  0.805000  0.477500  0.484500  1.0
  C  C475  1  0.977500  0.695000  0.734500  1.0
  C  C476  1  0.022500  0.305000  0.234500  1.0
  C  C477  1  0.305000  0.022500  0.765500  1.0
  C  C478  1  0.695000  0.977500  0.265500  1.0
  C  C479  1  0.522500  0.195000  0.015500  1.0
  C  C480  1  0.477500  0.805000  0.515500  1.0
  C  C481  1  0.182800  0.555800  0.025800  1.0
  C  C482  1  0.817200  0.444200  0.525800  1.0
  C  C483  1  0.944200  0.682800  0.775800  1.0
  C  C484  1  0.055800  0.317200  0.275800  1.0
  C  C485  1  0.317200  0.055800  0.724200  1.0
  C  C486  1  0.682800  0.944200  0.224200  1.0
  C  C487  1  0.555800  0.182800  0.974200  1.0
  C  C488  1  0.444200  0.817200  0.474200  1.0
  C  C489  1  0.126100  0.560600  0.041200  1.0
  C  C490  1  0.873900  0.439400  0.541200  1.0
  C  C491  1  0.939400  0.626100  0.791200  1.0
  C  C492  1  0.060600  0.373900  0.291200  1.0
  C  C493  1  0.373900  0.060600  0.708800  1.0
  C  C494  1  0.626100  0.939400  0.208800  1.0
  C  C495  1  0.560600  0.126100  0.958800  1.0
  C  C496  1  0.439400  0.873900  0.458800  1.0
  C  C497  1  0.281600  0.380300  0.790000  1.0
  C  C498  1  0.718400  0.619700  0.290000  1.0
  C  C499  1  0.119700  0.781600  0.540000  1.0
  C  C500  1  0.880300  0.218400  0.040000  1.0
  C  C501  1  0.218400  0.880300  0.960000  1.0
  C  C502  1  0.781600  0.119700  0.460000  1.0
  C  C503  1  0.380300  0.281600  0.210000  1.0
  C  C504  1  0.619700  0.718400  0.710000  1.0
  C  C505  1  0.274400  0.413000  0.834900  1.0
  C  C506  1  0.725600  0.587000  0.334900  1.0
  C  C507  1  0.087000  0.774400  0.584900  1.0
  C  C508  1  0.913000  0.225600  0.084900  1.0
  C  C509  1  0.225600  0.913000  0.915100  1.0
  C  C510  1  0.774400  0.087000  0.415100  1.0
  C  C511  1  0.413000  0.274400  0.165100  1.0
  C  C512  1  0.587000  0.725600  0.665100  1.0
  C  C513  1  0.316800  0.449300  0.851200  1.0
  C  C514  1  0.683200  0.550700  0.351200  1.0
  C  C515  1  0.050700  0.816800  0.601200  1.0
  C  C516  1  0.949300  0.183200  0.101200  1.0
  C  C517  1  0.183200  0.949300  0.898800  1.0
  C  C518  1  0.816800  0.050700  0.398800  1.0
  C  C519  1  0.449300  0.316800  0.148800  1.0
  C  C520  1  0.550700  0.683200  0.648800  1.0
  C  C521  1  0.362200  0.444700  0.822400  1.0
  C  C522  1  0.637800  0.555300  0.322400  1.0
  C  C523  1  0.055300  0.862200  0.572400  1.0
  C  C524  1  0.944700  0.137800  0.072400  1.0
  C  C525  1  0.137800  0.944700  0.927600  1.0
  C  C526  1  0.862200  0.055300  0.427600  1.0
  C  C527  1  0.444700  0.362200  0.177600  1.0
  C  C528  1  0.555300  0.637800  0.677600  1.0
  C  C529  1  0.368800  0.414000  0.777800  1.0
  C  C530  1  0.631200  0.586000  0.277800  1.0
  C  C531  1  0.086000  0.868800  0.527800  1.0
  C  C532  1  0.914000  0.131200  0.027800  1.0
  C  C533  1  0.131200  0.914000  0.972200  1.0
  C  C534  1  0.868800  0.086000  0.472200  1.0
  C  C535  1  0.414000  0.368800  0.222200  1.0
  C  C536  1  0.586000  0.631200  0.722200  1.0
  C  C537  1  0.107200  0.301100  0.818800  1.0
  C  C538  1  0.892800  0.698900  0.318800  1.0
  C  C539  1  0.198900  0.607200  0.568800  1.0
  C  C540  1  0.801100  0.392800  0.068800  1.0
  C  C541  1  0.392800  0.801100  0.931200  1.0
  C  C542  1  0.607200  0.198900  0.431200  1.0
  C  C543  1  0.301100  0.107200  0.181200  1.0
  C  C544  1  0.698900  0.892800  0.681200  1.0
  C  C545  1  0.098100  0.339700  0.857600  1.0
  C  C546  1  0.901900  0.660300  0.357600  1.0
  C  C547  1  0.160300  0.598100  0.607600  1.0
  C  C548  1  0.839700  0.401900  0.107600  1.0
  C  C549  1  0.401900  0.839700  0.892400  1.0
  C  C550  1  0.598100  0.160300  0.392400  1.0
  C  C551  1  0.339700  0.098100  0.142400  1.0
  C  C552  1  0.660300  0.901900  0.642400  1.0
  C  C553  1  0.049500  0.341000  0.884500  1.0
  C  C554  1  0.950500  0.659000  0.384500  1.0
  C  C555  1  0.159000  0.549500  0.634500  1.0
  C  C556  1  0.841000  0.450500  0.134500  1.0
  C  C557  1  0.450500  0.841000  0.865500  1.0
  C  C558  1  0.549500  0.159000  0.365500  1.0
  C  C559  1  0.341000  0.049500  0.115500  1.0
  C  C560  1  0.659000  0.950500  0.615500  1.0
  C  C561  1  0.010300  0.301800  0.872900  1.0
  C  C562  1  0.989700  0.698200  0.372900  1.0
  C  C563  1  0.198200  0.510300  0.622900  1.0
  C  C564  1  0.801800  0.489700  0.122900  1.0
  C  C565  1  0.489700  0.801800  0.877100  1.0
  C  C566  1  0.510300  0.198200  0.377100  1.0
  C  C567  1  0.301800  0.010300  0.127100  1.0
  C  C568  1  0.698200  0.989700  0.627100  1.0
  C  C569  1  0.025300  0.264400  0.834000  1.0
  C  C570  1  0.974700  0.735600  0.334000  1.0
  C  C571  1  0.235600  0.525300  0.584000  1.0
  C  C572  1  0.764400  0.474700  0.084000  1.0
  C  C573  1  0.474700  0.764400  0.916000  1.0
  C  C574  1  0.525300  0.235600  0.416000  1.0
  C  C575  1  0.264400  0.025300  0.166000  1.0
  C  C576  1  0.735600  0.974700  0.666000  1.0
  C  C577  1  0.284000  0.367000  0.601300  1.0
  C  C578  1  0.716000  0.633000  0.101300  1.0
  C  C579  1  0.133000  0.784000  0.351300  1.0
  C  C580  1  0.867000  0.216000  0.851300  1.0
  C  C581  1  0.216000  0.867000  0.148700  1.0
  C  C582  1  0.784000  0.133000  0.648700  1.0
  C  C583  1  0.367000  0.284000  0.398700  1.0
  C  C584  1  0.633000  0.716000  0.898700  1.0
  C  C585  1  0.302200  0.320900  0.587100  1.0
  C  C586  1  0.697800  0.679100  0.087100  1.0
  C  C587  1  0.179100  0.802200  0.337100  1.0
  C  C588  1  0.820900  0.197800  0.837100  1.0
  C  C589  1  0.197800  0.820900  0.162900  1.0
  C  C590  1  0.802200  0.179100  0.662900  1.0
  C  C591  1  0.320900  0.302200  0.412900  1.0
  C  C592  1  0.679100  0.697800  0.912900  1.0
  C  C593  1  0.180600  0.160500  0.814900  1.0
  C  C594  1  0.819400  0.839500  0.314900  1.0
  C  C595  1  0.339500  0.680600  0.564900  1.0
  C  C596  1  0.660500  0.319400  0.064900  1.0
  C  C597  1  0.319400  0.660500  0.935100  1.0
  C  C598  1  0.680600  0.339500  0.435100  1.0
  C  C599  1  0.160500  0.180600  0.185100  1.0
  C  C600  1  0.839500  0.819400  0.685100  1.0
  C  C601  1  0.207900  0.130200  0.853500  1.0
  C  C602  1  0.792100  0.869800  0.353500  1.0
  C  C603  1  0.369800  0.707900  0.603500  1.0
  C  C604  1  0.630200  0.292100  0.103500  1.0
  C  C605  1  0.292100  0.630200  0.896500  1.0
  C  C606  1  0.707900  0.369800  0.396500  1.0
  C  C607  1  0.130200  0.207900  0.146500  1.0
  C  C608  1  0.869800  0.792100  0.646500  1.0
  C  C609  1  0.176200  0.102600  0.889500  1.0
  C  C610  1  0.823800  0.897400  0.389500  1.0
  C  C611  1  0.397400  0.676200  0.639500  1.0
  C  C612  1  0.602600  0.323800  0.139500  1.0
  C  C613  1  0.323800  0.602600  0.860500  1.0
  C  C614  1  0.676200  0.397400  0.360500  1.0
  C  C615  1  0.102600  0.176200  0.110500  1.0
  C  C616  1  0.897400  0.823800  0.610500  1.0
  C  C617  1  0.120600  0.099900  0.884100  1.0
  C  C618  1  0.879400  0.900100  0.384100  1.0
  C  C619  1  0.400100  0.620600  0.634100  1.0
  C  C620  1  0.599900  0.379400  0.134100  1.0
  C  C621  1  0.379400  0.599900  0.865900  1.0
  C  C622  1  0.620600  0.400100  0.365900  1.0
  C  C623  1  0.099900  0.120600  0.115900  1.0
  C  C624  1  0.900100  0.879400  0.615900  1.0
  C  C625  1  0.098500  0.132600  0.847000  1.0
  C  C626  1  0.901500  0.867400  0.347000  1.0
  C  C627  1  0.367400  0.598500  0.597000  1.0
  C  C628  1  0.632600  0.401500  0.097000  1.0
  C  C629  1  0.401500  0.632600  0.903000  1.0
  C  C630  1  0.598500  0.367400  0.403000  1.0
  C  C631  1  0.132600  0.098500  0.153000  1.0
  C  C632  1  0.867400  0.901500  0.653000  1.0
  C  C633  1  0.047700  0.424800  0.083600  1.0
  C  C634  1  0.952300  0.575200  0.583600  1.0
  C  C635  1  0.075200  0.547700  0.833600  1.0
  C  C636  1  0.924800  0.452300  0.333600  1.0
  C  C637  1  0.452300  0.924800  0.666400  1.0
  C  C638  1  0.547700  0.075200  0.166400  1.0
  C  C639  1  0.424800  0.047700  0.916400  1.0
  C  C640  1  0.575200  0.952300  0.416400  1.0
  C  C641  1  0.052300  0.368800  0.083800  1.0
  C  C642  1  0.947700  0.631200  0.583800  1.0
  C  C643  1  0.131200  0.552300  0.833800  1.0
  C  C644  1  0.868800  0.447700  0.333800  1.0
  C  C645  1  0.447700  0.868800  0.666200  1.0
  C  C646  1  0.552300  0.131200  0.166200  1.0
  C  C647  1  0.368800  0.052300  0.916200  1.0
  C  C648  1  0.631200  0.947700  0.416200  1.0
  C  C649  1  0.017000  0.338700  0.051400  1.0
  C  C650  1  0.983000  0.661300  0.551400  1.0
  C  C651  1  0.161300  0.517000  0.801400  1.0
  C  C652  1  0.838700  0.483000  0.301400  1.0
  C  C653  1  0.483000  0.838700  0.698600  1.0
  C  C654  1  0.517000  0.161300  0.198600  1.0
  C  C655  1  0.338700  0.017000  0.948600  1.0
  C  C656  1  0.661300  0.983000  0.448600  1.0
  C  C657  1  0.981400  0.365700  0.018500  1.0
  C  C658  1  0.018600  0.634300  0.518500  1.0
  C  C659  1  0.134300  0.481400  0.768500  1.0
  C  C660  1  0.865700  0.518600  0.268500  1.0
  C  C661  1  0.518600  0.865700  0.731500  1.0
  C  C662  1  0.481400  0.134300  0.231500  1.0
  C  C663  1  0.365700  0.981400  0.981500  1.0
  C  C664  1  0.634300  0.018600  0.481500  1.0
  C  C665  1  0.980100  0.421900  0.021700  1.0
  C  C666  1  0.019900  0.578100  0.521700  1.0
  C  C667  1  0.078100  0.480100  0.771700  1.0
  C  C668  1  0.921900  0.519900  0.271700  1.0
  C  C669  1  0.519900  0.921900  0.728300  1.0
  C  C670  1  0.480100  0.078100  0.228300  1.0
  C  C671  1  0.421900  0.980100  0.978300  1.0
  C  C672  1  0.578100  0.019900  0.478300  1.0
  C  C673  1  0.349200  0.240300  0.768700  1.0
  C  C674  1  0.650800  0.759700  0.268700  1.0
  C  C675  1  0.259700  0.849200  0.518700  1.0
  C  C676  1  0.740300  0.150800  0.018700  1.0
  C  C677  1  0.150800  0.740300  0.981300  1.0
  C  C678  1  0.849200  0.259700  0.481300  1.0
  C  C679  1  0.240300  0.349200  0.231300  1.0
  C  C680  1  0.759700  0.650800  0.731300  1.0
  C  C681  1  0.375100  0.201900  0.797300  1.0
  C  C682  1  0.624900  0.798100  0.297300  1.0
  C  C683  1  0.298100  0.875100  0.547300  1.0
  C  C684  1  0.701900  0.124900  0.047300  1.0
  C  C685  1  0.124900  0.701900  0.952700  1.0
  C  C686  1  0.875100  0.298100  0.452700  1.0
  C  C687  1  0.201900  0.375100  0.202700  1.0
  C  C688  1  0.798100  0.624900  0.702700  1.0
  C  C689  1  0.431900  0.202800  0.798200  1.0
  C  C690  1  0.568100  0.797200  0.298200  1.0
  C  C691  1  0.297200  0.931900  0.548200  1.0
  C  C692  1  0.702800  0.068100  0.048200  1.0
  C  C693  1  0.068100  0.702800  0.951800  1.0
  C  C694  1  0.931900  0.297200  0.451800  1.0
  C  C695  1  0.202800  0.431900  0.201800  1.0
  C  C696  1  0.797200  0.568100  0.701800  1.0
  C  C697  1  0.457200  0.242000  0.770000  1.0
  C  C698  1  0.542800  0.758000  0.270000  1.0
  C  C699  1  0.258000  0.957200  0.520000  1.0
  C  C700  1  0.742000  0.042800  0.020000  1.0
  C  C701  1  0.042800  0.742000  0.980000  1.0
  C  C702  1  0.957200  0.258000  0.480000  1.0
  C  C703  1  0.242000  0.457200  0.230000  1.0
  C  C704  1  0.758000  0.542800  0.730000  1.0
  C  C705  1  0.430300  0.276300  0.740500  1.0
  C  C706  1  0.569700  0.723700  0.240500  1.0
  C  C707  1  0.223700  0.930300  0.490500  1.0
  C  C708  1  0.776300  0.069700  0.990500  1.0
  C  C709  1  0.069700  0.776300  0.009500  1.0
  C  C710  1  0.930300  0.223700  0.509500  1.0
  C  C711  1  0.276300  0.430300  0.259500  1.0
  C  C712  1  0.723700  0.569700  0.759500  1.0
  C  C713  1  0.079000  0.157000  0.654100  1.0
  C  C714  1  0.921000  0.843000  0.154100  1.0
  C  C715  1  0.343000  0.579000  0.404100  1.0
  C  C716  1  0.657000  0.421000  0.904100  1.0
  C  C717  1  0.421000  0.657000  0.095900  1.0
  C  C718  1  0.579000  0.343000  0.595900  1.0
  C  C719  1  0.157000  0.079000  0.345900  1.0
  C  C720  1  0.843000  0.921000  0.845900  1.0
  C  C721  1  0.076000  0.214000  0.641600  1.0
  C  C722  1  0.924000  0.786000  0.141600  1.0
  C  C723  1  0.286000  0.576000  0.391600  1.0
  C  C724  1  0.714000  0.424000  0.891600  1.0
  C  C725  1  0.424000  0.714000  0.108400  1.0
  C  C726  1  0.576000  0.286000  0.608400  1.0
  C  C727  1  0.214000  0.076000  0.358400  1.0
  C  C728  1  0.786000  0.924000  0.858400  1.0
  C  C729  1  0.964300  0.637400  0.062400  1.0
  C  C730  1  0.035700  0.362600  0.562400  1.0
  C  C731  1  0.862600  0.464300  0.812400  1.0
  C  C732  1  0.137400  0.535700  0.312400  1.0
  C  C733  1  0.535700  0.137400  0.687600  1.0
  C  C734  1  0.464300  0.862600  0.187600  1.0
  C  C735  1  0.637400  0.964300  0.937600  1.0
  C  C736  1  0.362600  0.035700  0.437600  1.0
  C  C737  1  0.924200  0.598000  0.051400  1.0
  C  C738  1  0.075800  0.402000  0.551400  1.0
  C  C739  1  0.902000  0.424200  0.801400  1.0
  C  C740  1  0.098000  0.575800  0.301400  1.0
  C  C741  1  0.575800  0.098000  0.698600  1.0
  C  C742  1  0.424200  0.902000  0.198600  1.0
  C  C743  1  0.598000  0.924200  0.948600  1.0
  C  C744  1  0.402000  0.075800  0.448600  1.0
  C  C745  1  0.166900  0.451700  0.919900  1.0
  C  C746  1  0.833100  0.548300  0.419900  1.0
  C  C747  1  0.048300  0.666900  0.669900  1.0
  C  C748  1  0.951700  0.333100  0.169900  1.0
  C  C749  1  0.333100  0.951700  0.830100  1.0
  C  C750  1  0.666900  0.048300  0.330100  1.0
  C  C751  1  0.451700  0.166900  0.080100  1.0
  C  C752  1  0.548300  0.833100  0.580100  1.0
  C  C753  1  0.221300  0.414400  0.862400  1.0
  C  C754  1  0.778700  0.585600  0.362400  1.0
  C  C755  1  0.085600  0.721300  0.612400  1.0
  C  C756  1  0.914400  0.278700  0.112400  1.0
  C  C757  1  0.278700  0.914400  0.887600  1.0
  C  C758  1  0.721300  0.085600  0.387600  1.0
  C  C759  1  0.414400  0.221300  0.137600  1.0
  C  C760  1  0.585600  0.778700  0.637600  1.0
  C  C761  1  0.138600  0.380800  0.870500  1.0
  C  C762  1  0.861400  0.619200  0.370500  1.0
  C  C763  1  0.119200  0.638600  0.620500  1.0
  C  C764  1  0.880800  0.361400  0.120500  1.0
  C  C765  1  0.361400  0.880800  0.879500  1.0
  C  C766  1  0.638600  0.119200  0.379500  1.0
  C  C767  1  0.380800  0.138600  0.129500  1.0
  C  C768  1  0.619200  0.861400  0.629500  1.0
  C  C769  1  0.263900  0.128300  0.854000  1.0
  C  C770  1  0.736100  0.871700  0.354000  1.0
  C  C771  1  0.371700  0.763900  0.604000  1.0
  C  C772  1  0.628300  0.236100  0.104000  1.0
  C  C773  1  0.236100  0.628300  0.896000  1.0
  C  C774  1  0.763900  0.371700  0.396000  1.0
  C  C775  1  0.128300  0.263900  0.146000  1.0
  C  C776  1  0.871700  0.736100  0.646000  1.0
  C  C777  1  0.091700  0.341300  0.115700  1.0
  C  C778  1  0.908300  0.658700  0.615700  1.0
  C  C779  1  0.158700  0.591700  0.865700  1.0
  C  C780  1  0.841300  0.408300  0.365700  1.0
  C  C781  1  0.408300  0.841300  0.634300  1.0
  C  C782  1  0.591700  0.158700  0.134300  1.0
  C  C783  1  0.341300  0.091700  0.884300  1.0
  C  C784  1  0.658700  0.908300  0.384300  1.0
  C  C785  1  0.344900  0.163400  0.829300  1.0
  C  C786  1  0.655100  0.836600  0.329300  1.0
  C  C787  1  0.336600  0.844900  0.579300  1.0
  C  C788  1  0.663400  0.155100  0.079300  1.0
  C  C789  1  0.155100  0.663400  0.920700  1.0
  C  C790  1  0.844900  0.336600  0.420700  1.0
  C  C791  1  0.163400  0.344900  0.170700  1.0
  C  C792  1  0.836600  0.655100  0.670700  1.0
  C  C793  1  0.877800  0.245200  0.257800  1.0
  C  C794  1  0.122200  0.754800  0.757800  1.0
  C  C795  1  0.254800  0.377800  0.007800  1.0
  C  C796  1  0.745200  0.622200  0.507800  1.0
  C  C797  1  0.622200  0.745200  0.492200  1.0
  C  C798  1  0.377800  0.254800  0.992200  1.0
  C  C799  1  0.245200  0.877800  0.742200  1.0
  C  C800  1  0.754800  0.122200  0.242200  1.0
  C  C801  1  0.879000  0.186800  0.253700  1.0
  C  C802  1  0.121000  0.813200  0.753700  1.0
  C  C803  1  0.313200  0.379000  0.003700  1.0
  C  C804  1  0.686800  0.621000  0.503700  1.0
  C  C805  1  0.621000  0.686800  0.496300  1.0
  C  C806  1  0.379000  0.313200  0.996300  1.0
  C  C807  1  0.186800  0.879000  0.746300  1.0
  C  C808  1  0.813200  0.121000  0.246300  1.0
  C  C809  1  0.842000  0.157200  0.203500  1.0
  C  C810  1  0.158000  0.842800  0.703500  1.0
  C  C811  1  0.342800  0.342000  0.953500  1.0
  C  C812  1  0.657200  0.658000  0.453500  1.0
  C  C813  1  0.658000  0.657200  0.546500  1.0
  C  C814  1  0.342000  0.342800  0.046500  1.0
  C  C815  1  0.157200  0.842000  0.796500  1.0
  C  C816  1  0.842800  0.158000  0.296500  1.0
  C  C817  1  0.809600  0.198500  0.175300  1.0
  C  C818  1  0.190400  0.801500  0.675300  1.0
  C  C819  1  0.301500  0.309600  0.925300  1.0
  C  C820  1  0.698500  0.690400  0.425300  1.0
  C  C821  1  0.690400  0.698500  0.574700  1.0
  C  C822  1  0.309600  0.301500  0.074700  1.0
  C  C823  1  0.198500  0.809600  0.824700  1.0
  C  C824  1  0.801500  0.190400  0.324700  1.0
  C  C825  1  0.802500  0.252500  0.194700  1.0
  C  C826  1  0.197500  0.747500  0.694700  1.0
  C  C827  1  0.247500  0.302500  0.944700  1.0
  C  C828  1  0.752500  0.697500  0.444700  1.0
  C  C829  1  0.697500  0.752500  0.555300  1.0
  C  C830  1  0.302500  0.247500  0.055300  1.0
  C  C831  1  0.252500  0.802500  0.805300  1.0
  C  C832  1  0.747500  0.197500  0.305300  1.0
  C  C833  1  0.834200  0.276100  0.233800  1.0
  C  C834  1  0.165800  0.723900  0.733800  1.0
  C  C835  1  0.223900  0.334200  0.983800  1.0
  C  C836  1  0.776100  0.665800  0.483800  1.0
  C  C837  1  0.665800  0.776100  0.516200  1.0
  C  C838  1  0.334200  0.223900  0.016200  1.0
  C  C839  1  0.276100  0.834200  0.766200  1.0
  C  C840  1  0.723900  0.165800  0.266200  1.0
  C  C841  1  0.785400  0.355600  0.232500  1.0
  C  C842  1  0.214600  0.644400  0.732500  1.0
  C  C843  1  0.144400  0.285400  0.982500  1.0
  C  C844  1  0.855600  0.714600  0.482500  1.0
  C  C845  1  0.714600  0.855600  0.517500  1.0
  C  C846  1  0.285400  0.144400  0.017500  1.0
  C  C847  1  0.355600  0.785400  0.767500  1.0
  C  C848  1  0.644400  0.214600  0.267500  1.0
  C  C849  1  0.824200  0.328300  0.250000  1.0
  C  C850  1  0.175800  0.671700  0.750000  1.0
  C  C851  1  0.171700  0.324200  0.000000  1.0
  C  C852  1  0.828300  0.675800  0.500000  1.0
  C  C853  1  0.675800  0.828300  0.500000  1.0
  C  C854  1  0.324200  0.171700  0.000000  1.0
  C  C855  1  0.328300  0.824200  0.750000  1.0
  C  C856  1  0.671700  0.175800  0.250000  1.0
  C  C857  1  0.749500  0.333200  0.194200  1.0
  C  C858  1  0.250500  0.666800  0.694200  1.0
  C  C859  1  0.166800  0.249500  0.944200  1.0
  C  C860  1  0.833200  0.750500  0.444200  1.0
  C  C861  1  0.750500  0.833200  0.555800  1.0
  C  C862  1  0.249500  0.166800  0.055800  1.0
  C  C863  1  0.333200  0.749500  0.805800  1.0
  C  C864  1  0.666800  0.250500  0.305800  1.0
  C  C865  1  0.760200  0.280100  0.172800  1.0
  C  C866  1  0.239800  0.719900  0.672800  1.0
  C  C867  1  0.219900  0.260200  0.922800  1.0
  C  C868  1  0.780100  0.739800  0.422800  1.0
  C  C869  1  0.739800  0.780100  0.577200  1.0
  C  C870  1  0.260200  0.219900  0.077200  1.0
  C  C871  1  0.280100  0.760200  0.827200  1.0
  C  C872  1  0.719900  0.239800  0.327200  1.0
  N  N873  1  0.515900  0.354200  0.025000  1
  N  N874  1  0.484100  0.645800  0.525000  1
  N  N875  1  0.145800  0.015900  0.775000  1
  N  N876  1  0.854200  0.984100  0.275000  1
  N  N877  1  0.984100  0.854200  0.725000  1
  N  N878  1  0.015900  0.145800  0.225000  1
  N  N879  1  0.354200  0.515900  0.975000  1
  N  N880  1  0.645800  0.484100  0.475000  1
  N  N881  1  0.142300  0.373300  0.676400  1
  N  N882  1  0.857700  0.626700  0.176400  1
  N  N883  1  0.126700  0.642300  0.426400  1
  N  N884  1  0.873300  0.357700  0.926400  1
  N  N885  1  0.357700  0.873300  0.073600  1
  N  N886  1  0.642300  0.126700  0.573600  1
  N  N887  1  0.373300  0.142300  0.323600  1
  N  N888  1  0.626700  0.857700  0.823600  1
  N  N889  1  0.014000  0.193900  0.968200  1
  N  N890  1  0.986000  0.806100  0.468200  1
  N  N891  1  0.306100  0.514000  0.718200  1
  N  N892  1  0.693900  0.486000  0.218200  1
  N  N893  1  0.486000  0.693900  0.781800  1
  N  N894  1  0.514000  0.306100  0.281800  1
  N  N895  1  0.193900  0.014000  0.031800  1
  N  N896  1  0.806100  0.986000  0.531800  1
  N  N897  1  0.964900  0.549400  0.919400  1
  N  N898  1  0.035100  0.450600  0.419400  1
  N  N899  1  0.950600  0.464900  0.669400  1
  N  N900  1  0.049400  0.535100  0.169400  1
  N  N901  1  0.535100  0.049400  0.830600  1
  N  N902  1  0.464900  0.950600  0.330600  1
  N  N903  1  0.549400  0.964900  0.080600  1
  N  N904  1  0.450600  0.035100  0.580600  1
  N  N905  1  0.089600  0.530700  0.021500  1.0
  N  N906  1  0.910400  0.469300  0.521500  1.0
  N  N907  1  0.969300  0.589600  0.771500  1.0
  N  N908  1  0.030700  0.410400  0.271500  1.0
  N  N909  1  0.410400  0.030700  0.728500  1.0
  N  N910  1  0.589600  0.969300  0.228500  1.0
  N  N911  1  0.530700  0.089600  0.978500  1.0
  N  N912  1  0.469300  0.910400  0.478500  1.0
  N  N913  1  0.328500  0.381300  0.765000  1.0
  N  N914  1  0.671500  0.618700  0.265000  1.0
  N  N915  1  0.118700  0.828500  0.515000  1.0
  N  N916  1  0.881300  0.171500  0.015000  1.0
  N  N917  1  0.171500  0.881300  0.985000  1.0
  N  N918  1  0.828500  0.118700  0.485000  1.0
  N  N919  1  0.381300  0.328500  0.235000  1.0
  N  N920  1  0.618700  0.671500  0.735000  1.0
  N  N921  1  0.072700  0.263500  0.807300  1.0
  N  N922  1  0.927300  0.736500  0.307300  1.0
  N  N923  1  0.236500  0.572700  0.557300  1.0
  N  N924  1  0.763500  0.427300  0.057300  1.0
  N  N925  1  0.427300  0.763500  0.942700  1.0
  N  N926  1  0.572700  0.236500  0.442700  1.0
  N  N927  1  0.263500  0.072700  0.192700  1.0
  N  N928  1  0.736500  0.927300  0.692700  1.0
  N  N929  1  0.293000  0.387300  0.653600  1.0
  N  N930  1  0.707000  0.612700  0.153600  1.0
  N  N931  1  0.112700  0.793000  0.403600  1.0
  N  N932  1  0.887300  0.207000  0.903600  1.0
  N  N933  1  0.207000  0.887300  0.096400  1.0
  N  N934  1  0.793000  0.112700  0.596400  1.0
  N  N935  1  0.387300  0.293000  0.346400  1.0
  N  N936  1  0.612700  0.707000  0.846400  1.0
  N  N937  1  0.336900  0.293600  0.626000  1.0
  N  N938  1  0.663100  0.706400  0.126000  1.0
  N  N939  1  0.206400  0.836900  0.376000  1.0
  N  N940  1  0.793600  0.163100  0.876000  1.0
  N  N941  1  0.163100  0.793600  0.124000  1.0
  N  N942  1  0.836900  0.206400  0.624000  1.0
  N  N943  1  0.293600  0.336900  0.374000  1.0
  N  N944  1  0.706400  0.663100  0.874000  1.0
  N  N945  1  0.214600  0.450600  0.900800  1.0
  N  N946  1  0.785400  0.549400  0.400800  1.0
  N  N947  1  0.049400  0.714600  0.650800  1.0
  N  N948  1  0.950600  0.285400  0.150800  1.0
  N  N949  1  0.285400  0.950600  0.849200  1.0
  N  N950  1  0.714600  0.049400  0.349200  1.0
  N  N951  1  0.450600  0.214600  0.099200  1.0
  N  N952  1  0.549400  0.785400  0.599200  1.0
  N  N953  1  0.187500  0.377900  0.846800  1.0
  N  N954  1  0.812500  0.622100  0.346800  1.0
  N  N955  1  0.122100  0.687500  0.596800  1.0
  N  N956  1  0.877900  0.312500  0.096800  1.0
  N  N957  1  0.312500  0.877900  0.903200  1.0
  N  N958  1  0.687500  0.122100  0.403200  1.0
  N  N959  1  0.377900  0.187500  0.153200  1.0
  N  N960  1  0.622100  0.812500  0.653200  1.0
  N  N961  1  0.126900  0.418400  0.908100  1.0
  N  N962  1  0.873100  0.581600  0.408100  1.0
  N  N963  1  0.081600  0.626900  0.658100  1.0
  N  N964  1  0.918400  0.373100  0.158100  1.0
  N  N965  1  0.373100  0.918400  0.841900  1.0
  N  N966  1  0.626900  0.081600  0.341900  1.0
  N  N967  1  0.418400  0.126900  0.091900  1.0
  N  N968  1  0.581600  0.873100  0.591900  1.0
  N  N969  1  0.127000  0.163400  0.811600  1.0
  N  N970  1  0.873000  0.836600  0.311600  1.0
  N  N971  1  0.336600  0.627000  0.561600  1.0
  N  N972  1  0.663400  0.373000  0.061600  1.0
  N  N973  1  0.373000  0.663400  0.938400  1.0
  N  N974  1  0.627000  0.336600  0.438400  1.0
  N  N975  1  0.163400  0.127000  0.188400  1.0
  N  N976  1  0.836600  0.873000  0.688400  1.0
  N  N977  1  0.012000  0.450300  0.051500  1.0
  N  N978  1  0.988000  0.549700  0.551500  1.0
  N  N979  1  0.049700  0.512000  0.801500  1.0
  N  N980  1  0.950300  0.488000  0.301500  1.0
  N  N981  1  0.488000  0.950300  0.698500  1.0
  N  N982  1  0.512000  0.049700  0.198500  1.0
  N  N983  1  0.450300  0.012000  0.948500  1.0
  N  N984  1  0.549700  0.988000  0.448500  1.0
  N  N985  1  0.376100  0.278700  0.738500  1.0
  N  N986  1  0.623900  0.721300  0.238500  1.0
  N  N987  1  0.221300  0.876100  0.488500  1.0
  N  N988  1  0.778700  0.123900  0.988500  1.0
  N  N989  1  0.123900  0.778700  0.011500  1.0
  N  N990  1  0.876100  0.221300  0.511500  1.0
  N  N991  1  0.278700  0.376100  0.261500  1.0
  N  N992  1  0.721300  0.623900  0.761500  1.0
  N  N993  1  0.111000  0.150500  0.698300  1.0
  N  N994  1  0.889000  0.849500  0.198300  1.0
  N  N995  1  0.349500  0.611000  0.448300  1.0
  N  N996  1  0.650500  0.389000  0.948300  1.0
  N  N997  1  0.389000  0.650500  0.051700  1.0
  N  N998  1  0.611000  0.349500  0.551700  1.0
  N  N999  1  0.150500  0.111000  0.301700  1.0
  N  N1000  1  0.849500  0.889000  0.801700  1.0
  N  N1001  1  0.056500  0.250100  0.691200  1.0
  N  N1002  1  0.943500  0.749900  0.191200  1.0
  N  N1003  1  0.249900  0.556500  0.441200  1.0
  N  N1004  1  0.750100  0.443500  0.941200  1.0
  N  N1005  1  0.443500  0.750100  0.058800  1.0
  N  N1006  1  0.556500  0.249900  0.558800  1.0
  N  N1007  1  0.250100  0.056500  0.308800  1.0
  N  N1008  1  0.749900  0.943500  0.808800  1.0
  N  N1009  1  0.287600  0.090300  0.883300  1.0
  N  N1010  1  0.712400  0.909700  0.383300  1.0
  N  N1011  1  0.409700  0.787600  0.633300  1.0
  N  N1012  1  0.590300  0.212400  0.133300  1.0
  N  N1013  1  0.212400  0.590300  0.866700  1.0
  N  N1014  1  0.787600  0.409700  0.366700  1.0
  N  N1015  1  0.090300  0.287600  0.116700  1.0
  N  N1016  1  0.909700  0.712400  0.616700  1.0
  N  N1017  1  0.127000  0.371600  0.144000  1.0
  N  N1018  1  0.873000  0.628400  0.644000  1.0
  N  N1019  1  0.128400  0.627000  0.894000  1.0
  N  N1020  1  0.871600  0.373000  0.394000  1.0
  N  N1021  1  0.373000  0.871600  0.606000  1.0
  N  N1022  1  0.627000  0.128400  0.106000  1.0
  N  N1023  1  0.371600  0.127000  0.856000  1.0
  N  N1024  1  0.628400  0.873000  0.356000  1.0
  N  N1025  1  0.290300  0.166000  0.826100  1.0
  N  N1026  1  0.709700  0.834000  0.326100  1.0
  N  N1027  1  0.334000  0.790300  0.576100  1.0
  N  N1028  1  0.666000  0.209700  0.076100  1.0
  N  N1029  1  0.209700  0.666000  0.923900  1.0
  N  N1030  1  0.790300  0.334000  0.423900  1.0
  N  N1031  1  0.166000  0.290300  0.173900  1.0
  N  N1032  1  0.834000  0.709700  0.673900  1.0
  N  N1033  1  0.006600  0.611900  0.038800  1.0
  N  N1034  1  0.993400  0.388100  0.538800  1.0
  N  N1035  1  0.888100  0.506600  0.788800  1.0
  N  N1036  1  0.111900  0.493400  0.288800  1.0
  N  N1037  1  0.493400  0.111900  0.711200  1.0
  N  N1038  1  0.506600  0.888100  0.211200  1.0
  N  N1039  1  0.611900  0.006600  0.961200  1.0
  N  N1040  1  0.388100  0.993400  0.461200  1.0
  N  N1041  1  0.937400  0.539400  0.071300  1.0
  N  N1042  1  0.062600  0.460600  0.571300  1.0
  N  N1043  1  0.960600  0.437400  0.821300  1.0
  N  N1044  1  0.039400  0.562600  0.321300  1.0
  N  N1045  1  0.562600  0.039400  0.678700  1.0
  N  N1046  1  0.437400  0.960600  0.178700  1.0
  N  N1047  1  0.539400  0.937400  0.928700  1.0
  N  N1048  1  0.460600  0.062600  0.428700  1.0
  O  O1049  1  0.547000  0.330200  0.004300  1
  O  O1050  1  0.453000  0.669800  0.504300  1
  O  O1051  1  0.169800  0.047000  0.754300  1
  O  O1052  1  0.830200  0.953000  0.254300  1
  O  O1053  1  0.953000  0.830200  0.745700  1
  O  O1054  1  0.047000  0.169800  0.245700  1
  O  O1055  1  0.330200  0.547000  0.995700  1
  O  O1056  1  0.669800  0.453000  0.495700  1
  O  O1057  1  0.542100  0.407100  0.998700  1
  O  O1058  1  0.457900  0.592900  0.498700  1
  O  O1059  1  0.092900  0.042100  0.748700  1
  O  O1060  1  0.907100  0.957900  0.248700  1
  O  O1061  1  0.957900  0.907100  0.751300  1
  O  O1062  1  0.042100  0.092900  0.251300  1
  O  O1063  1  0.407100  0.542100  0.001300  1
  O  O1064  1  0.592900  0.457900  0.501300  1
  O  O1065  1  0.486100  0.387600  0.046900  1
  O  O1066  1  0.513900  0.612400  0.546900  1
  O  O1067  1  0.112400  0.986100  0.796900  1
  O  O1068  1  0.887600  0.013900  0.296900  1
  O  O1069  1  0.013900  0.887600  0.703100  1
  O  O1070  1  0.986100  0.112400  0.203100  1
  O  O1071  1  0.387600  0.486100  0.953100  1
  O  O1072  1  0.612400  0.513900  0.453100  1
  O  O1073  1  0.128500  0.330600  0.656200  1
  O  O1074  1  0.871500  0.669400  0.156200  1
  O  O1075  1  0.169400  0.628500  0.406200  1
  O  O1076  1  0.830600  0.371500  0.906200  1
  O  O1077  1  0.371500  0.830600  0.093800  1
  O  O1078  1  0.628500  0.169400  0.593800  1
  O  O1079  1  0.330600  0.128500  0.343800  1
  O  O1080  1  0.669400  0.871500  0.843800  1
  O  O1081  1  0.111900  0.412800  0.669300  1
  O  O1082  1  0.888100  0.587200  0.169300  1
  O  O1083  1  0.087200  0.611900  0.419300  1
  O  O1084  1  0.912800  0.388100  0.919300  1
  O  O1085  1  0.388100  0.912800  0.080700  1
  O  O1086  1  0.611900  0.087200  0.580700  1
  O  O1087  1  0.412800  0.111900  0.330700  1
  O  O1088  1  0.587200  0.888100  0.830700  1
  O  O1089  1  0.183500  0.386300  0.693300  1
  O  O1090  1  0.816500  0.613700  0.193300  1
  O  O1091  1  0.113700  0.683500  0.443300  1
  O  O1092  1  0.886300  0.316500  0.943300  1
  O  O1093  1  0.316500  0.886300  0.056700  1
  O  O1094  1  0.683500  0.113700  0.556700  1
  O  O1095  1  0.386300  0.183500  0.306700  1
  O  O1096  1  0.613700  0.816500  0.806700  1
  O  O1097  1  0.994600  0.233600  0.977600  1
  O  O1098  1  0.005400  0.766400  0.477600  1
  O  O1099  1  0.266400  0.494600  0.727600  1
  O  O1100  1  0.733600  0.505400  0.227600  1
  O  O1101  1  0.505400  0.733600  0.772400  1
  O  O1102  1  0.494600  0.266400  0.272400  1
  O  O1103  1  0.233600  0.994600  0.022400  1
  O  O1104  1  0.766400  0.005400  0.522400  1
  O  O1105  1  0.053900  0.171900  0.989100  1
  O  O1106  1  0.946100  0.828100  0.489100  1
  O  O1107  1  0.328100  0.553900  0.739100  1
  O  O1108  1  0.671900  0.446100  0.239100  1
  O  O1109  1  0.446100  0.671900  0.760900  1
  O  O1110  1  0.553900  0.328100  0.260900  1
  O  O1111  1  0.171900  0.053900  0.010900  1
  O  O1112  1  0.828100  0.946100  0.510900  1
  O  O1113  1  0.995000  0.165900  0.927500  1
  O  O1114  1  0.005000  0.834100  0.427500  1
  O  O1115  1  0.334100  0.495000  0.677500  1
  O  O1116  1  0.665900  0.505000  0.177500  1
  O  O1117  1  0.505000  0.665900  0.822500  1
  O  O1118  1  0.495000  0.334100  0.322500  1
  O  O1119  1  0.165900  0.995000  0.072500  1
  O  O1120  1  0.834100  0.005000  0.572500  1
  O  O1121  1  0.991200  0.590700  0.922600  1
  O  O1122  1  0.008800  0.409300  0.422600  1
  O  O1123  1  0.909300  0.491200  0.672600  1
  O  O1124  1  0.090700  0.508800  0.172600  1
  O  O1125  1  0.508800  0.090700  0.827400  1
  O  O1126  1  0.491200  0.909300  0.327400  1
  O  O1127  1  0.590700  0.991200  0.077400  1
  O  O1128  1  0.409300  0.008800  0.577400  1
  O  O1129  1  0.916400  0.550500  0.910300  1
  O  O1130  1  0.083600  0.449500  0.410300  1
  O  O1131  1  0.949500  0.416400  0.660300  1
  O  O1132  1  0.050500  0.583600  0.160300  1
  O  O1133  1  0.583600  0.050500  0.839700  1
  O  O1134  1  0.416400  0.949500  0.339700  1
  O  O1135  1  0.550500  0.916400  0.089700  1
  O  O1136  1  0.449500  0.083600  0.589700  1
  O  O1137  1  0.985800  0.504700  0.927100  1
  O  O1138  1  0.014200  0.495300  0.427100  1
  O  O1139  1  0.995300  0.485800  0.677100  1
  O  O1140  1  0.004700  0.514200  0.177100  1
  O  O1141  1  0.514200  0.004700  0.822900  1
  O  O1142  1  0.485800  0.995300  0.322900  1
  O  O1143  1  0.504700  0.985800  0.072900  1
  O  O1144  1  0.495300  0.014200  0.572900  1
  O  O1145  1  0.819000  0.591300  0.840300  1
  O  O1146  1  0.181000  0.408700  0.340300  1
  O  O1147  1  0.908700  0.319000  0.590300  1
  O  O1148  1  0.091300  0.681000  0.090300  1
  O  O1149  1  0.681000  0.091300  0.909700  1
  O  O1150  1  0.319000  0.908700  0.409700  1
  O  O1151  1  0.591300  0.819000  0.159700  1
  O  O1152  1  0.408700  0.181000  0.659700  1
  O  O1153  1  0.795900  0.570500  0.013300  1
  O  O1154  1  0.204100  0.429500  0.513300  1
  O  O1155  1  0.929500  0.295900  0.763300  1
  O  O1156  1  0.070500  0.704100  0.263300  1
  O  O1157  1  0.704100  0.070500  0.736700  1
  O  O1158  1  0.295900  0.929500  0.236700  1
  O  O1159  1  0.570500  0.795900  0.986700  1
  O  O1160  1  0.429500  0.204100  0.486700  1
  O  O1161  1  0.013600  0.364900  0.743000  1
  O  O1162  1  0.986400  0.635100  0.243000  1
  O  O1163  1  0.135100  0.513600  0.493000  1
  O  O1164  1  0.864900  0.486400  0.993000  1
  O  O1165  1  0.486400  0.864900  0.007000  1
  O  O1166  1  0.513600  0.135100  0.507000  1
  O  O1167  1  0.364900  0.013600  0.257000  1
  O  O1168  1  0.635100  0.986400  0.757000  1
  O  O1169  1  0.286000  0.773700  0.016200  1
  O  O1170  1  0.714000  0.226300  0.516200  1
  O  O1171  1  0.726300  0.786000  0.766200  1
  O  O1172  1  0.273700  0.214000  0.266200  1
  O  O1173  1  0.214000  0.273700  0.733800  1
  O  O1174  1  0.786000  0.726300  0.233800  1
  O  O1175  1  0.773700  0.286000  0.983800  1
  O  O1176  1  0.226300  0.714000  0.483800  1
  O  O1177  1  0.509900  0.509900  0.000000  1
  O  O1178  1  0.490100  0.490100  0.500000  1
  O  O1179  1  0.990100  0.009900  0.750000  1
  O  O1180  1  0.009900  0.990100  0.250000  1
  O  O1181  1  0.482700  0.489000  0.101100  1
  O  O1182  1  0.517300  0.511000  0.601100  1
  O  O1183  1  0.011000  0.982700  0.851100  1
  O  O1184  1  0.989000  0.017300  0.351100  1
  O  O1185  1  0.017300  0.989000  0.648900  1
  O  O1186  1  0.982700  0.011000  0.148900  1
  O  O1187  1  0.489000  0.482700  0.898900  1
  O  O1188  1  0.511000  0.517300  0.398900  1
  O  O1189  1  0.242200  0.596300  0.241800  1
  O  O1190  1  0.757800  0.403700  0.741800  1
  O  O1191  1  0.903700  0.742200  0.991800  1
  O  O1192  1  0.096300  0.257800  0.491800  1
  O  O1193  1  0.257800  0.096300  0.508200  1
  O  O1194  1  0.742200  0.903700  0.008200  1
  O  O1195  1  0.596300  0.242200  0.758200  1
  O  O1196  1  0.403700  0.757800  0.258200  1
  O  O1197  1  0.827500  0.716600  0.848800  1
  O  O1198  1  0.172500  0.283400  0.348800  1
  O  O1199  1  0.783400  0.327500  0.598800  1
  O  O1200  1  0.216600  0.672500  0.098800  1
  O  O1201  1  0.672500  0.216600  0.901200  1
  O  O1202  1  0.327500  0.783400  0.401200  1
  O  O1203  1  0.716600  0.827500  0.151200  1
  O  O1204  1  0.283400  0.172500  0.651200  1
  O  O1205  1  0.167000  0.950000  0.274000  1
  O  O1206  1  0.833000  0.050000  0.774000  1
  O  O1207  1  0.550000  0.667000  0.024000  1
  O  O1208  1  0.450000  0.333000  0.524000  1
  O  O1209  1  0.333000  0.450000  0.476000  1
  O  O1210  1  0.667000  0.550000  0.976000  1
  O  O1211  1  0.950000  0.167000  0.726000  1
  O  O1212  1  0.050000  0.833000  0.226000  1
  O  O1213  1  0.876000  0.027000  0.126000  1
  O  O1214  1  0.124000  0.973000  0.626000  1
  O  O1215  1  0.473000  0.376000  0.876000  1
  O  O1216  1  0.527000  0.624000  0.376000  1
  O  O1217  1  0.624000  0.527000  0.624000  1
  O  O1218  1  0.376000  0.473000  0.124000  1
  O  O1219  1  0.027000  0.876000  0.874000  1
  O  O1220  1  0.973000  0.124000  0.374000  1
  O  O1221  1  0.385000  0.500000  0.270000  1
  O  O1222  1  0.615000  0.500000  0.770000  1
  O  O1223  1  0.000000  0.885000  0.020000  1
  O  O1224  1  0.000000  0.115000  0.520000  1
  O  O1225  1  0.115000  0.000000  0.480000  1
  O  O1226  1  0.885000  0.000000  0.980000  1
  O  O1227  1  0.500000  0.385000  0.730000  1
  O  O1228  1  0.500000  0.615000  0.230000  1
  O  O1229  1  0.935500  0.683100  0.931000  1
  O  O1230  1  0.064500  0.316900  0.431000  1
  O  O1231  1  0.816900  0.435500  0.681000  1
  O  O1232  1  0.183100  0.564500  0.181000  1
  O  O1233  1  0.564500  0.183100  0.819000  1
  O  O1234  1  0.435500  0.816900  0.319000  1
  O  O1235  1  0.683100  0.935500  0.069000  1
  O  O1236  1  0.316900  0.064500  0.569000  1
  O  O1237  1  0.169000  0.296000  0.529400  1
  O  O1238  1  0.831000  0.704000  0.029400  1
  O  O1239  1  0.204000  0.669000  0.279400  1
  O  O1240  1  0.796000  0.331000  0.779400  1
  O  O1241  1  0.331000  0.796000  0.220600  1
  O  O1242  1  0.669000  0.204000  0.720600  1
  O  O1243  1  0.296000  0.169000  0.470600  1
  O  O1244  1  0.704000  0.831000  0.970600  1
  O  O1245  1  0.061100  0.061100  0.000000  1
  O  O1246  1  0.938900  0.938900  0.500000  1
  O  O1247  1  0.438900  0.561100  0.750000  1
  O  O1248  1  0.561100  0.438900  0.250000  1
  O  O1249  1  0.791000  0.979000  0.136000  1
  O  O1250  1  0.209000  0.021000  0.636000  1
  O  O1251  1  0.521000  0.291000  0.886000  1
  O  O1252  1  0.479000  0.709000  0.386000  1
  O  O1253  1  0.709000  0.479000  0.614000  1
  O  O1254  1  0.291000  0.521000  0.114000  1
  O  O1255  1  0.979000  0.791000  0.864000  1
  O  O1256  1  0.021000  0.209000  0.364000  1
  O  O1257  1  0.000000  0.046000  0.939000  1
  O  O1258  1  0.000000  0.954000  0.439000  1
  O  O1259  1  0.454000  0.500000  0.689000  1
  O  O1260  1  0.546000  0.500000  0.189000  1
  O  O1261  1  0.500000  0.546000  0.811000  1
  O  O1262  1  0.500000  0.454000  0.311000  1
  O  O1263  1  0.046000  0.000000  0.061000  1
  O  O1264  1  0.954000  0.000000  0.561000  1
  O  O1265  1  0.777000  0.629000  0.966000  1
  O  O1266  1  0.223000  0.371000  0.466000  1
  O  O1267  1  0.871000  0.277000  0.716000  1
  O  O1268  1  0.129000  0.723000  0.216000  1
  O  O1269  1  0.723000  0.129000  0.784000  1
  O  O1270  1  0.277000  0.871000  0.284000  1
  O  O1271  1  0.629000  0.777000  0.034000  1
  O  O1272  1  0.371000  0.223000  0.534000  1
  O  O1273  1  0.836700  0.771300  0.810100  1
  O  O1274  1  0.163300  0.228700  0.310100  1
  O  O1275  1  0.728700  0.336700  0.560100  1
  O  O1276  1  0.271300  0.663300  0.060100  1
  O  O1277  1  0.663300  0.271300  0.939900  1
  O  O1278  1  0.336700  0.728700  0.439900  1
  O  O1279  1  0.771300  0.836700  0.189900  1
  O  O1280  1  0.228700  0.163300  0.689900  1
  O  O1281  1  0.129500  0.971000  0.232000  1
  O  O1282  1  0.870500  0.029000  0.732000  1
  O  O1283  1  0.529000  0.629500  0.982000  1
  O  O1284  1  0.471000  0.370500  0.482000  1
  O  O1285  1  0.370500  0.471000  0.518000  1
  O  O1286  1  0.629500  0.529000  0.018000  1
  O  O1287  1  0.971000  0.129500  0.768000  1
  O  O1288  1  0.029000  0.870500  0.268000  1
  O  O1289  1  0.912500  0.266700  0.281900  1.0
  O  O1290  1  0.087500  0.733300  0.781900  1.0
  O  O1291  1  0.233300  0.412500  0.031900  1.0
  O  O1292  1  0.766700  0.587500  0.531900  1.0
  O  O1293  1  0.587500  0.766700  0.468100  1.0
  O  O1294  1  0.412500  0.233300  0.968100  1.0
  O  O1295  1  0.266700  0.912500  0.718100  1.0
  O  O1296  1  0.733300  0.087500  0.218100  1.0
  O  O1297  1  0.784000  0.178900  0.135800  1.0
  O  O1298  1  0.216000  0.821100  0.635800  1.0
  O  O1299  1  0.321100  0.284000  0.885800  1.0
  O  O1300  1  0.678900  0.716000  0.385800  1.0
  O  O1301  1  0.716000  0.678900  0.614200  1.0
  O  O1302  1  0.284000  0.321100  0.114200  1.0
  O  O1303  1  0.178900  0.784000  0.864200  1.0
  O  O1304  1  0.821100  0.216000  0.364200  1.0
