
#######################################################################
#
#                 Cambridge Crystallographic Data Centre
#                                CCDC 
#
#######################################################################
#
# If this CIF has been generated from an entry in the Cambridge 
# Structural Database, then it will include bibliographic, chemical, 
# crystal, experimental, refinement or atomic coordinate data resulting 
# from the CCDC's data processing and validation procedures.
#
#######################################################################

data_AFIWAN
_chemical_formula_moiety         
'C84 H96 N36 Pd6 12+,C20 H12 O4,12(N1 O3 1-),4(H2 O1)'
_chemical_name_systematic        
'tetrakis(\m~3~-2,4,6-tris(3-Pyridyl)triazine)-hexakis(ethylenediamine-palladium) syn-5a,5b,11a,11b-tetrahydrodibenzo(b,h)biphenylene-5,6,11,12-tetrone clathrate dodecanitrate tetrahydrate'
_symmetry_cell_setting           tetragonal
_symmetry_space_group_name_H-M   'P 43 21 2'
_symmetry_Int_Tables_number      96
_space_group_name_Hall           'P 4nw 2abw'
loop_
_symmetry_equiv_pos_site_id
_symmetry_equiv_pos_as_xyz
1 x,y,z
2 -x,-y,1/2+z
3 1/2-y,1/2+x,3/4+z
4 1/2+y,1/2-x,1/4+z
5 1/2-x,1/2+y,3/4-z
6 1/2+x,1/2-y,1/4-z
7 y,x,-z
8 -y,-x,1/2-z
_cell_length_a                   25.013(3)
_cell_length_b                   25.013(3)
_cell_length_c                   25.063(5)
_cell_angle_alpha                90
_cell_angle_beta                 90
_cell_angle_gamma                90
_cell_volume                     15680.7
_cell_formula_units_Z            4
_exptl_crystal_recrystallization_method acetone
loop_
_atom_site_label
_atom_site_type_symbol
_atom_site_fract_x
_atom_site_fract_y
_atom_site_fract_z
Pd1 Pd 0.01279(4) 0.53144(4) 0.04670(4)
Pd2 Pd 0.33495(5) 0.33458(5) -0.30305(4)
Pd3 Pd 0.09057(6) 0.20621(5) -0.24620(5)
N1 N 0.0896(5) 0.5307(5) 0.0215(4)
C1 C 0.1025(5) 0.4957(5) -0.0182(5)
H1 H 0.0756 0.4735 -0.0335
C2 C 0.1548(6) 0.4924(6) -0.0363(5)
C3 C 0.1950(6) 0.5225(6) -0.0155(6)
H2 H 0.2303 0.5205 -0.0293
C4 C 0.1828(8) 0.5558(7) 0.0258(7)
H3 H 0.2099 0.5753 0.0440
C5 C 0.1261(7) 0.5606(7) 0.0412(7)
H4 H 0.1164 0.5869 0.0668
N2 N 0.3285(4) 0.3813(5) -0.2350(4)
C6 C 0.2816(6) 0.3803(6) -0.2100(5)
H5 H 0.2535 0.3579 -0.2223
C7 C 0.2744(6) 0.4130(6) -0.1651(5)
C8 C 0.3168(6) 0.4493(6) -0.1488(6)
H6 H 0.3129 0.4742 -0.1204
C9 C 0.3622(6) 0.4447(8) -0.1776(6)
H7 H 0.3923 0.4646 -0.1657
C10 C 0.3688(7) 0.4140(7) -0.2222(6)
H8 H 0.4005 0.4157 -0.2430
N3 N 0.0727(5) 0.2635(5) -0.1927(5)
C11 C 0.1072(6) 0.3011(6) -0.1812(5)
H9 H 0.1400 0.3021 -0.2003
C12 C 0.0981(5) 0.3397(5) -0.1424(4)
C13 C 0.0495(6) 0.3410(5) -0.1155(5)
H10 H 0.0426 0.3679 -0.0897
C14 C 0.0103(6) 0.3018(6) -0.1271(6)
H11 H -0.0235 0.3009 -0.1098
C15 C 0.0253(6) 0.2644(6) -0.1660(5)
H12 H 0.0002 0.2373 -0.1745
N4 N 0.2930(5) 0.3873(6) -0.3464(5)
H13 H 0.2608 0.3939 -0.3299
H14 H 0.3115 0.4190 -0.3484
N5 N 0.3369(7) 0.2936(9) -0.3740(6)
H15 H 0.3714 0.2923 -0.3867
H16 H 0.3252 0.2591 -0.3688
C16 C 0.2840(13) 0.367(2) -0.3987(11)
H17 H 0.2445 0.3666 -0.4041
H18 H 0.2983 0.3941 -0.4240
C17 C 0.3022(11) 0.3209(11) -0.4129(7)
H19 H 0.3225 0.3254 -0.4465
H20 H 0.2714 0.2973 -0.4208
N6 N 0.2146(5) 0.4506(5) -0.0992(4)
N7 N 0.1875(4) 0.3779(5) -0.1532(4)
N8 N 0.1269(4) 0.4184(4) -0.0919(4)
N9 N 0.1270(5) 0.1634(5) -0.1884(5)
C18 C 0.1806(6) 0.1605(6) -0.1851(6)
H21 H 0.2012 0.1801 -0.2103
C19 C 0.2079(5) 0.1302(6) -0.1465(8)
C20 C 0.1762(7) 0.1026(6) -0.1105(8)
H22 H 0.1927 0.0849 -0.0812
C21 C 0.1206(8) 0.0999(7) -0.1159(11)
H23 H 0.0995 0.0765 -0.0948
C22 C 0.0985(7) 0.1326(7) -0.1530(8)
H24 H 0.0606 0.1344 -0.1546
N10 N 0.0120(4) 0.4503(4) 0.0515(4)
C23 C 0.0477(5) 0.4248(5) 0.0836(4)
H25 H 0.0700 0.4454 0.1064
C24 C 0.0523(5) 0.3688(5) 0.0838(6)
C25 C 0.0170(5) 0.3387(6) 0.0514(6)
H26 H 0.0177 0.3007 0.0522
C26 C -0.0186(6) 0.3657(6) 0.0185(6)
H27 H -0.0412 0.3469 -0.0055
C27 C -0.0199(6) 0.4219(6) 0.0217(5)
H28 H -0.0457 0.4403 0.0008
N11 N 0.3761(5) 0.2787(5) -0.2615(5)
C28 C 0.3492(6) 0.2403(5) -0.2313(5)
H29 H 0.3112 0.2409 -0.2308
C29 C 0.3751(6) 0.2019(6) -0.2027(6)
C30 C 0.4319(5) 0.2028(6) -0.2018(6)
H30 H 0.4516 0.1769 -0.1822
C31 C 0.4572(7) 0.2420(6) -0.2300(6)
H31 H 0.4950 0.2447 -0.2283
C32 C 0.4303(6) 0.2763(6) -0.2595(6)
H32 H 0.4500 0.3008 -0.2807
N12 N 0.1110(8) 0.1505(9) -0.3017(7)
H33 H 0.1463 0.1545 -0.3111
H34 H 0.1064 0.1167 -0.2880
N13 N 0.0565(8) 0.2501(7) -0.3088(5)
H35 H 0.0198 0.2516 -0.3062
H36 H 0.0701 0.2842 -0.3107
C33 C 0.079(2) 0.1570(15) -0.3459(11)
H37 H 0.0428 0.1430 -0.3386
H38 H 0.0941 0.1375 -0.3766
C34 C 0.0760(16) 0.214(2) -0.3584(9)
H39 H 0.0502 0.2187 -0.3883
H40 H 0.1111 0.2263 -0.3705
N14 N 0.2876(5) 0.0903(4) -0.1167(4)
N15 N 0.1270(5) 0.3716(5) 0.1440(5)
N16 N 0.2903(5) 0.1660(5) -0.1739(5)
N17 N 0.0066(6) 0.6119(5) 0.0388(5)
H41 H 0.0375 0.6268 0.0520
H42 H 0.0055 0.6195 0.0029
N18 N -0.0626(6) 0.5394(7) 0.0713(5)
H43 H -0.0846 0.5145 0.0557
H44 H -0.0652 0.5367 0.1078
C35 C -0.0357(10) 0.6374(8) 0.0624(7)
H45 H -0.0437 0.6722 0.0452
H46 H -0.0301 0.6427 0.1012
C36 C -0.0758(7) 0.5980(8) 0.0514(8)
H47 H -0.0819 0.5969 0.0124
H48 H -0.1097 0.6096 0.0683
C37 C 0.1669(6) 0.4517(7) -0.0801(5)
C38 C 0.2213(5) 0.4144(6) -0.1376(5)
C39 C 0.1386(6) 0.3808(5) -0.1295(5)
C40 C 0.2639(6) 0.1283(6) -0.1460(6)
C41 C 0.0917(5) 0.3413(5) 0.1157(6)
C42 C 0.3449(6) 0.1634(5) -0.1707(6)
N15F N 0.3716(5) 0.1270(5) -0.1440(5)
C41F C 0.3413(5) 0.0917(5) -0.1157(6)
C24F C 0.3688(5) 0.0523(5) -0.0838(6)
C23F C 0.4248(5) 0.0477(5) -0.0836(4)
N10F N 0.4503(4) 0.0120(4) -0.0515(4)
Pd1F Pd 0.53144(4) 0.01279(4) -0.04670(4)
N1F N 0.5307(5) 0.0896(5) -0.0215(4)
C1F C 0.4957(5) 0.1025(5) 0.0182(5)
H1F H 0.4735 0.0756 0.0335
C2F C 0.4924(6) 0.1548(6) 0.0363(5)
C3F C 0.5225(6) 0.1950(6) 0.0155(6)
H2F H 0.5205 0.2303 0.0293
C4F C 0.5558(7) 0.1828(8) -0.0258(7)
H3F H 0.5753 0.2099 -0.0440
C5F C 0.5606(7) 0.1261(7) -0.0412(7)
H4F H 0.5869 0.1164 -0.0668
C37F C 0.4517(7) 0.1669(6) 0.0801(5)
N6F N 0.4506(5) 0.2146(5) 0.0992(4)
C38F C 0.4144(6) 0.2213(5) 0.1376(5)
C7F C 0.4130(6) 0.2744(6) 0.1651(5)
C6F C 0.3803(6) 0.2816(6) 0.2100(5)
N2F N 0.3813(5) 0.3285(4) 0.2350(4)
Pd2F Pd 0.33458(5) 0.33495(5) 0.30305(4)
N4F N 0.3873(6) 0.2930(5) 0.3464(5)
H13F H 0.3939 0.2608 0.3299
H14F H 0.4190 0.3115 0.3484
C16F C 0.367(2) 0.2840(13) 0.3987(11)
H17F H 0.3666 0.2445 0.4041
H18F H 0.3941 0.2983 0.4240
C17F C 0.3209(11) 0.3022(11) 0.4129(7)
N5F N 0.2936(9) 0.3369(7) 0.3740(6)
N11F N 0.2787(5) 0.3761(5) 0.2615(5)
C28F C 0.2403(5) 0.3492(6) 0.2313(5)
H29F H 0.2409 0.3112 0.2308
C29F C 0.2019(6) 0.3751(6) 0.2027(6)
C30F C 0.2028(6) 0.4319(5) 0.2018(6)
H30F H 0.1769 0.4516 0.1822
C31F C 0.2420(6) 0.4572(7) 0.2300(6)
H31F H 0.2447 0.4950 0.2283
C32F C 0.2763(6) 0.4303(6) 0.2595(6)
H32F H 0.3008 0.4500 0.2807
C42F C 0.1634(5) 0.3449(6) 0.1707(6)
N14F N 0.0903(4) 0.2876(5) 0.1167(4)
C40F C 0.1283(6) 0.2639(6) 0.1460(6)
C19F C 0.1302(6) 0.2079(5) 0.1465(8)
C18F C 0.1605(6) 0.1806(6) 0.1851(6)
N9F N 0.1634(5) 0.1270(5) 0.1884(5)
Pd3F Pd 0.20621(5) 0.09057(6) 0.24620(5)
N3F N 0.2635(5) 0.0727(5) 0.1927(5)
C11F C 0.3011(6) 0.1072(6) 0.1812(5)
H9F H 0.3021 0.1400 0.2003
C12F C 0.3397(5) 0.0981(5) 0.1424(4)
C13F C 0.3410(5) 0.0495(6) 0.1155(5)
H10F H 0.3679 0.0426 0.0897
C14F C 0.3018(6) 0.0103(6) 0.1271(6)
H11F H 0.3009 -0.0235 0.1098
C15F C 0.2644(6) 0.0253(6) 0.1660(5)
H12F H 0.2373 0.0002 0.1745
C39F C 0.3808(5) 0.1386(6) 0.1295(5)
N7F N 0.3779(5) 0.1875(4) 0.1532(4)
N8F N 0.4184(4) 0.1269(4) 0.0919(4)
N12F N 0.1505(9) 0.1110(8) 0.3017(7)
H33F H 0.1545 0.1463 0.3111
H34F H 0.1167 0.1064 0.2880
C33F C 0.1570(15) 0.079(2) 0.3459(11)
H37F H 0.1430 0.0428 0.3386
H38F H 0.1375 0.0941 0.3766
C34F C 0.214(2) 0.0760(16) 0.3584(9)
N13F N 0.2501(7) 0.0565(8) 0.3088(5)
H35F H 0.2516 0.0198 0.3062
H36F H 0.2842 0.0701 0.3107
H39F H 0.2187 0.0502 0.3883
H40F H 0.2263 0.1111 0.3705
C22F C 0.1326(7) 0.0985(7) 0.1530(8)
C21F C 0.0999(7) 0.1206(8) 0.1159(11)
C20F C 0.1026(6) 0.1762(7) 0.1105(8)
H22F H 0.0849 0.1927 0.0812
H23F H 0.0765 0.0995 0.0948
H24F H 0.1344 0.0606 0.1546
H21F H 0.1801 0.2012 0.2103
N16F N 0.1660(5) 0.2903(5) 0.1739(5)
H15F H 0.2923 0.3714 0.3867
H16F H 0.2591 0.3252 0.3688
H19F H 0.3254 0.3225 0.4465
H20F H 0.2973 0.2714 0.4208
C10F C 0.4140(7) 0.3688(7) 0.2222(6)
C9F C 0.4447(8) 0.3622(6) 0.1776(6)
C8F C 0.4493(6) 0.3168(6) 0.1488(6)
H6F H 0.4742 0.3129 0.1204
H7F H 0.4646 0.3923 0.1657
H8F H 0.4157 0.4005 0.2430
H5F H 0.3579 0.2535 0.2223
N17F N 0.6119(5) 0.0066(6) -0.0388(5)
H41F H 0.6268 0.0375 -0.0520
H42F H 0.6195 0.0055 -0.0029
C35F C 0.6374(8) -0.0357(10) -0.0624(7)
H45F H 0.6722 -0.0437 -0.0452
H46F H 0.6427 -0.0301 -0.1012
C36F C 0.5980(8) -0.0758(7) -0.0514(8)
N18F N 0.5394(7) -0.0626(6) -0.0713(5)
H43F H 0.5145 -0.0846 -0.0557
H44F H 0.5367 -0.0652 -0.1078
H47F H 0.5969 -0.0819 -0.0124
H48F H 0.6096 -0.1097 -0.0683
C27F C 0.4219(6) -0.0199(6) -0.0217(5)
C26F C 0.3657(6) -0.0186(6) -0.0185(6)
C25F C 0.3387(6) 0.0170(5) -0.0514(6)
H26F H 0.3007 0.0177 -0.0522
H27F H 0.3469 -0.0412 0.0055
H28F H 0.4403 -0.0457 -0.0008
H25F H 0.4454 0.0700 -0.1064
C43 C 0.8778(7) 0.2452(8) 0.2578(7)
C44 C 0.8790(8) 0.1868(10) 0.2537(7)
H49 H 0.9164 0.1729 0.2545
C45 C 0.8420(10) 0.1572(7) 0.2035(8)
H50 H 0.8647 0.1359 0.1786
C46 C 0.8096(7) 0.1985(8) 0.1753(6)
C47 C 0.8025(7) 0.2525(7) 0.1947(5)
C48 C 0.8342(6) 0.2761(6) 0.2338(5)
C49 C 0.7854(7) 0.3556(6) 0.2325(6)
H51 H 0.7801 0.3911 0.2450
C50 C 0.8242(6) 0.3283(6) 0.2500(6)
H52 H 0.8476 0.3442 0.2753
C51 C 0.7495(7) 0.3332(7) 0.1942(7)
H53 H 0.7191 0.3528 0.1828
C52 C 0.7602(7) 0.2801(7) 0.1728(6)
H54 H 0.7390 0.2652 0.1450
O1 O 0.9125(6) 0.2667(6) 0.2819(5)
O2 O 0.7840(6) 0.1789(5) 0.1358(4)
C44G C 0.8132(10) 0.1210(8) 0.2463(7)
C43G C 0.7548(8) 0.1222(7) 0.2422(7)
C48G C 0.7239(6) 0.1658(6) 0.2662(5)
C47G C 0.7475(7) 0.1975(7) 0.3053(5)
C46G C 0.8015(8) 0.1904(7) 0.3247(6)
C45G C 0.8428(7) 0.1580(10) 0.2965(8)
H49G H 0.8271 0.0836 0.2455
H50G H 0.8641 0.1353 0.3214
O2G O 0.8211(5) 0.2160(6) 0.3642(4)
C52G C 0.7199(7) 0.2398(7) 0.3272(6)
C51G C 0.6668(7) 0.2505(7) 0.3058(7)
C49G C 0.6444(6) 0.2146(7) 0.2675(6)
H51G H 0.6089 0.2199 0.2550
C50G C 0.6717(6) 0.1758(6) 0.2500(6)
H52G H 0.6558 0.1524 0.2247
H53G H 0.6472 0.2809 0.3172
H54G H 0.7348 0.2610 0.3550
O1G O 0.7333(6) 0.0875(6) 0.2181(5)
N19 N 0.5159(15) 0.3542(14) 0.0250(14)
O3 O 0.5470(16) 0.3302(15) 0.0043(16)
O4 O 0.5421(11) 0.4071(10) -0.0013(12)
O5 O 0.4861(16) 0.3876(16) 0.0469(16)
N20 N 0.1423(7) 0.3733(7) -0.3236(7)
O6 O 0.1285(7) 0.3306(7) -0.3438(7)
O7 O 0.1119(8) 0.4128(9) -0.3307(8)
O8 O 0.1835(6) 0.3863(6) -0.3067(7)
N21 N 0.0140(5) 1.1939(5) -0.0318(5)
O9 O -0.0054(5) 1.2336(5) -0.0224(5)
O10 O 0.0539(7) 1.1719(7) -0.0109(7)
O11 O -0.0050(5) 1.1659(5) -0.0725(5)
N22 N -0.0351(5) 0.5494(5) -0.0806(4)
O12 O -0.0088(5) 0.5907(5) -0.0774(5)
O13 O -0.0836(4) 0.5505(4) -0.0897(4)
O14 O -0.0142(4) 0.5047(4) -0.0729(4)
O15 O -0.1810(6) 0.5913(6) -0.1597(6)
O16 O -0.2041(7) 0.5705(7) 0.0133(8)
O17 O 0.0136(6) 0.3649(6) -0.2570(6)
O18 O 0.2860(7) 0.7737(7) 0.0162(7)
O19 O 0.5099(6) 0.5099(6) 0.0000
O20 O 0.4827(16) 0.4890(17) 0.1011(16)
O21 O 0.2422(15) 0.5963(16) 0.2418(18)
O22 O -0.1725(16) 0.7166(17) -0.1512(17)
O23 O 0.167(2) -0.050(2) 0.274(2)
O24 O 0.876(3) 0.027(3) 0.126(3)
O25 O 0.385(2) 0.500(2) 0.270(3)
O26 O -0.0645(17) 0.6831(16) -0.0690(18)
O27 O 0.169(2) 0.296(2) -0.4706(19)
O28 O 0.0611(16) 1.0611(16) 0.0000
O29 O 0.791(2) -0.021(2) 0.136(2)
O30 O 0.000(2) 1.046(2) -0.061(2)
O31? O -0.223(2) 0.629(2) -0.034(2)
O32? O -0.1633(14) 0.7713(14) -0.1899(14)
O33? O 0.1295(19) -0.029(2) 0.232(2)
loop_
_geom_bond_atom_site_label_1
_geom_bond_atom_site_label_2
_geom_bond_site_symmetry_1
_geom_bond_site_symmetry_2
Pd1 N1 1_555 1_555
Pd2 N2 1_555 1_555
Pd3 N3 1_555 1_555
N1 C1 1_555 1_555
C1 H1 1_555 1_555
C2 C1 1_555 1_555
C3 C2 1_555 1_555
H2 C3 1_555 1_555
C4 C3 1_555 1_555
H3 C4 1_555 1_555
C5 N1 1_555 1_555
H4 C5 1_555 1_555
N2 C6 1_555 1_555
C6 H5 1_555 1_555
C7 C6 1_555 1_555
C8 C7 1_555 1_555
H6 C8 1_555 1_555
C9 C8 1_555 1_555
H7 C9 1_555 1_555
C10 N2 1_555 1_555
H8 C10 1_555 1_555
N3 C11 1_555 1_555
C11 H9 1_555 1_555
C12 C11 1_555 1_555
C13 C12 1_555 1_555
H10 C13 1_555 1_555
C14 C13 1_555 1_555
H11 C14 1_555 1_555
C15 N3 1_555 1_555
H12 C15 1_555 1_555
N4 Pd2 1_555 1_555
H13 N4 1_555 1_555
H14 N4 1_555 1_555
N5 Pd2 1_555 1_555
H15 N5 1_555 1_555
H16 N5 1_555 1_555
C16 N4 1_555 1_555
H17 C16 1_555 1_555
H18 C16 1_555 1_555
C17 N5 1_555 1_555
H19 C17 1_555 1_555
H20 C17 1_555 1_555
N6 C37 1_555 1_555
N7 C38 1_555 1_555
N8 C37 1_555 1_555
N9 Pd3 1_555 1_555
C18 N9 1_555 1_555
H21 C18 1_555 1_555
C19 C18 1_555 1_555
C20 C19 1_555 1_555
H22 C20 1_555 1_555
C21 C20 1_555 1_555
H23 C21 1_555 1_555
C22 N9 1_555 1_555
H24 C22 1_555 1_555
N10 Pd1 1_555 1_555
C23 N10 1_555 1_555
H25 C23 1_555 1_555
C24 C23 1_555 1_555
C25 C24 1_555 1_555
H26 C25 1_555 1_555
C26 C25 1_555 1_555
H27 C26 1_555 1_555
C27 N10 1_555 1_555
H28 C27 1_555 1_555
N11 Pd2 1_555 1_555
C28 N11 1_555 1_555
H29 C28 1_555 1_555
C29 C28 1_555 1_555
C30 C29 1_555 1_555
H30 C30 1_555 1_555
C31 C30 1_555 1_555
H31 C31 1_555 1_555
C32 N11 1_555 1_555
H32 C32 1_555 1_555
N12 Pd3 1_555 1_555
H33 N12 1_555 1_555
H34 N12 1_555 1_555
N13 Pd3 1_555 1_555
H35 N13 1_555 1_555
H36 N13 1_555 1_555
C33 N12 1_555 1_555
H37 C33 1_555 1_555
H38 C33 1_555 1_555
C34 N13 1_555 1_555
H39 C34 1_555 1_555
H40 C34 1_555 1_555
N14 C40 1_555 1_555
N15 C41 1_555 1_555
N16 C40 1_555 1_555
N17 Pd1 1_555 1_555
H41 N17 1_555 1_555
H42 N17 1_555 1_555
N18 Pd1 1_555 1_555
H43 N18 1_555 1_555
H44 N18 1_555 1_555
C35 N17 1_555 1_555
H45 C35 1_555 1_555
H46 C35 1_555 1_555
C36 N18 1_555 1_555
H47 C36 1_555 1_555
H48 C36 1_555 1_555
C37 C2 1_555 1_555
C38 C7 1_555 1_555
C39 C12 1_555 1_555
C40 C19 1_555 1_555
C41 C24 1_555 1_555
C42 C29 1_555 1_555
C43 C44 1_555 1_555
C44 H49 1_555 1_555
C45 C44 1_555 1_555
H50 C45 1_555 1_555
C46 C45 1_555 1_555
C47 C46 1_555 1_555
C48 C43 1_555 1_555
C49 H51 1_555 1_555
C50 C48 1_555 1_555
H52 C50 1_555 1_555
C51 C49 1_555 1_555
H53 C51 1_555 1_555
C52 C47 1_555 1_555
H54 C52 1_555 1_555
O1 C43 1_555 1_555
O2 C46 1_555 1_555
N19 O3 1_555 1_555
O4 N19 1_555 1_555
O5 N19 1_555 1_555
N20 O6 1_555 1_555
O7 N20 1_555 1_555
O8 N20 1_555 1_555
N21 O9 1_555 1_555
O10 N21 1_555 1_555
O11 N21 1_555 1_555
N22 O12 1_555 1_555
O13 N22 1_555 1_555
O14 N22 1_555 1_555
N15F C42 1_555 1_555
C41F N14 1_555 1_555
C24F C41F 1_555 1_555
C23F C24F 1_555 1_555
N10F C23F 1_555 1_555
Pd1F N10F 1_555 1_555
N1F Pd1F 1_555 1_555
C1F N1F 1_555 1_555
H1F C1F 1_555 1_555
C2F C1F 1_555 1_555
C3F C2F 1_555 1_555
H2F C3F 1_555 1_555
C4F C3F 1_555 1_555
H3F C4F 1_555 1_555
C5F N1F 1_555 1_555
H4F C5F 1_555 1_555
C37F C2F 1_555 1_555
N6F C37F 1_555 1_555
C38F N6F 1_555 1_555
C7F C38F 1_555 1_555
C6F C7F 1_555 1_555
N2F C6F 1_555 1_555
Pd2F N2F 1_555 1_555
N4F Pd2F 1_555 1_555
H13F N4F 1_555 1_555
H14F N4F 1_555 1_555
C16F N4F 1_555 1_555
H17F C16F 1_555 1_555
H18F C16F 1_555 1_555
C17F C16F 1_555 1_555
N5F Pd2F 1_555 1_555
N11F Pd2F 1_555 1_555
C28F N11F 1_555 1_555
H29F C28F 1_555 1_555
C29F C28F 1_555 1_555
C30F C29F 1_555 1_555
H30F C30F 1_555 1_555
C31F C30F 1_555 1_555
H31F C31F 1_555 1_555
C32F N11F 1_555 1_555
H32F C32F 1_555 1_555
C42F N15 1_555 1_555
N14F C41 1_555 1_555
C40F N14F 1_555 1_555
C19F C40F 1_555 1_555
C18F C19F 1_555 1_555
N9F C18F 1_555 1_555
Pd3F N9F 1_555 1_555
N3F Pd3F 1_555 1_555
C11F N3F 1_555 1_555
H9F C11F 1_555 1_555
C12F C11F 1_555 1_555
C13F C12F 1_555 1_555
H10F C13F 1_555 1_555
C14F C13F 1_555 1_555
H11F C14F 1_555 1_555
C15F N3F 1_555 1_555
H12F C15F 1_555 1_555
C39F C12F 1_555 1_555
N7F C38F 1_555 1_555
N8F C37F 1_555 1_555
N12F Pd3F 1_555 1_555
H33F N12F 1_555 1_555
H34F N12F 1_555 1_555
C33F N12F 1_555 1_555
H37F C33F 1_555 1_555
H38F C33F 1_555 1_555
C34F C33F 1_555 1_555
N13F Pd3F 1_555 1_555
H35F N13F 1_555 1_555
H36F N13F 1_555 1_555
H39F C34F 1_555 1_555
H40F C34F 1_555 1_555
C22F N9F 1_555 1_555
C21F C22F 1_555 1_555
C20F C19F 1_555 1_555
H22F C20F 1_555 1_555
H23F C21F 1_555 1_555
H24F C22F 1_555 1_555
H21F C18F 1_555 1_555
N16F C42F 1_555 1_555
H15F N5F 1_555 1_555
H16F N5F 1_555 1_555
H19F C17F 1_555 1_555
H20F C17F 1_555 1_555
C10F N2F 1_555 1_555
C9F C10F 1_555 1_555
C8F C7F 1_555 1_555
H6F C8F 1_555 1_555
H7F C9F 1_555 1_555
H8F C10F 1_555 1_555
H5F C6F 1_555 1_555
N17F Pd1F 1_555 1_555
H41F N17F 1_555 1_555
H42F N17F 1_555 1_555
C35F N17F 1_555 1_555
H45F C35F 1_555 1_555
H46F C35F 1_555 1_555
C36F C35F 1_555 1_555
N18F Pd1F 1_555 1_555
H43F N18F 1_555 1_555
H44F N18F 1_555 1_555
H47F C36F 1_555 1_555
H48F C36F 1_555 1_555
C27F N10F 1_555 1_555
C26F C27F 1_555 1_555
C25F C24F 1_555 1_555
H26F C25F 1_555 1_555
H27F C26F 1_555 1_555
H28F C27F 1_555 1_555
H25F C23F 1_555 1_555
C44G C45 1_555 1_555
C43G C44G 1_555 1_555
C48G C43G 1_555 1_555
C47G C48G 1_555 1_555
C46G C47G 1_555 1_555
C45G C44 1_555 1_555
H49G C44G 1_555 1_555
H50G C45G 1_555 1_555
O2G C46G 1_555 1_555
C52G C47G 1_555 1_555
C51G C52G 1_555 1_555
C49G C51G 1_555 1_555
H51G C49G 1_555 1_555
C50G C48G 1_555 1_555
H52G C50G 1_555 1_555
H53G C51G 1_555 1_555
H54G C52G 1_555 1_555
O1G C43G 1_555 1_555
C4 C5 1_555 1_555
C9 C10 1_555 1_555
C14 C15 1_555 1_555
C16 C17 1_555 1_555
N6 C38 1_555 1_555
N7 C39 1_555 1_555
N8 C39 1_555 1_555
C21 C22 1_555 1_555
C26 C27 1_555 1_555
C31 C32 1_555 1_555
C33 C34 1_555 1_555
N16 C42 1_555 1_555
C35 C36 1_555 1_555
C47 C48 1_555 1_555
C49 C50 1_555 1_555
C51 C52 1_555 1_555
N15F C41F 1_555 1_555
C4F C5F 1_555 1_555
C17F N5F 1_555 1_555
C29F C42F 1_555 1_555
C31F C32F 1_555 1_555
C40F N16F 1_555 1_555
C14F C15F 1_555 1_555
C39F N7F 1_555 1_555
C39F N8F 1_555 1_555
C34F N13F 1_555 1_555
C21F C20F 1_555 1_555
C9F C8F 1_555 1_555
C36F N18F 1_555 1_555
C26F C25F 1_555 1_555
C44G C45G 1_555 1_555
C46G C45G 1_555 1_555
C49G C50G 1_555 1_555

#END
