
#######################################################################
#
#                 Cambridge Crystallographic Data Centre
#                                CCDC 
#
#######################################################################
#
# If this CIF has been generated from an entry in the Cambridge 
# Structural Database, then it will include bibliographic, chemical, 
# crystal, experimental, refinement or atomic coordinate data resulting 
# from the CCDC's data processing and validation procedures.
#
#######################################################################

data_AGEBET
_chemical_formula_moiety         
'C54 H84 N6 P6 Pt3 6+,2(C4 H22 B18 Co1 1-),4(C1 F3 O3 S1 1-),2(C1 H3 N1 O2),C4 H10 O1,2(H2 O1)'
_chemical_name_systematic        
"tris(\m~2~-1,2-bis(4-Pyridyl)ethene)-hexakis(trimethylphosphine)-tri-platinum bis(3,3'-commo-bis(3-cobalta-1,2-dicarba-closo-dodecaborate(11))) tetrakis(trifluoromethanesulfonate) nitromethane diethyl ether solvate dihydrate"
_symmetry_cell_setting           triclinic
_symmetry_space_group_name_H-M   'P -1'
_symmetry_Int_Tables_number      2
_space_group_name_Hall           '-P 1'
loop_
_symmetry_equiv_pos_site_id
_symmetry_equiv_pos_as_xyz
1 x,y,z
2 -x,-y,-z
_cell_length_a                   17.8621(4)
_cell_length_b                   18.1176(4)
_cell_length_c                   24.7289(5)
_cell_angle_alpha                79.2671(14)
_cell_angle_beta                 72.8745(12)
_cell_angle_gamma                62.5075(13)
_cell_volume                     6772.28
_exptl_crystal_colour            yellow
_exptl_crystal_description       prism
_cell_formula_units_Z            2
loop_
_atom_site_label
_atom_site_type_symbol
_atom_site_fract_x
_atom_site_fract_y
_atom_site_fract_z
Pt1 Pt 0.74438(3) 0.97401(3) 0.15904(2)
Pt2 Pt 1.12891(3) 0.13815(3) 0.23395(2)
Pt3 Pt 0.25731(3) 0.54351(3) 0.34961(2)
P1 P 0.8499(2) 1.0184(2) 0.12955(16)
P2 P 0.6360(2) 1.1003(2) 0.14746(17)
P3 P 1.2690(3) 0.1192(3) 0.2054(2)
P4 P 1.1633(3) 0.0023(3) 0.2334(3)
P5 P 0.2080(2) 0.4452(2) 0.38318(18)
P6 P 0.1249(2) 0.6510(2) 0.35187(18)
N1 N 0.8345(7) 0.8483(6) 0.1654(5)
N2 N 1.0885(8) 0.2683(7) 0.2270(6)
N3 N 0.9949(8) 0.1755(8) 0.2620(6)
N4 N 0.3865(7) 0.4501(7) 0.3398(5)
N5 N 0.3203(7) 0.6228(7) 0.3171(5)
N6 N 0.6551(7) 0.9218(7) 0.1954(5)
C1 C 0.8429(10) 0.8081(9) 0.2158(6)
H37 H 0.8170 0.8401 0.2482
C2 C 0.8867(10) 0.7229(9) 0.2235(8)
H38 H 0.8919 0.6970 0.2602
C3 C 0.9232(9) 0.6759(9) 0.1762(8)
C4 C 0.9185(10) 0.7159(9) 0.1240(7)
H39 H 0.9451 0.6854 0.0907
C5 C 0.8745(10) 0.8013(10) 0.1206(7)
H40 H 0.8724 0.8288 0.0840
C6 C 0.9667(12) 0.5823(10) 0.1793(11)
H41 H 0.9929 0.5575 0.1438
C7 C 0.9731(14) 0.5342(14) 0.2204(10)
H42 H 0.9478 0.5592 0.2558
C8 C 1.0161(13) 0.4384(12) 0.2239(10)
C9 C 1.0213(13) 0.3964(11) 0.2731(10)
H43 H 0.9982 0.4240 0.3074
C10 C 1.0619(13) 0.3097(10) 0.2731(10)
H44 H 1.0711 0.2787 0.3079
C11 C 1.0794(11) 0.3098(11) 0.1774(9)
H45 H 1.0964 0.2808 0.1444
C12 C 1.0428(12) 0.4008(14) 0.1741(10)
H46 H 1.0378 0.4324 0.1390
C13 C 0.9544(12) 0.1820(13) 0.3167(8)
H47 H 0.9873 0.1576 0.3447
C14 C 0.8640(13) 0.2243(17) 0.3332(9)
H48 H 0.8367 0.2284 0.3725
C15 C 0.8146(10) 0.2592(11) 0.2960(8)
C16 C 0.8560(9) 0.2436(9) 0.2410(7)
H49 H 0.8233 0.2617 0.2131
C17 C 0.9452(10) 0.2018(10) 0.2252(7)
H50 H 0.9724 0.1913 0.1864
C18 C 0.7179(10) 0.3051(13) 0.3163(8)
H51 H 0.6966 0.3276 0.3525
C19 C 0.6613(9) 0.3169(10) 0.2901(8)
H52 H 0.6830 0.2943 0.2540
C20 C 0.5658(10) 0.3615(9) 0.3094(8)
C21 C 0.5160(9) 0.3646(10) 0.2765(8)
H53 H 0.5417 0.3350 0.2429
C22 C 0.4264(10) 0.4118(9) 0.2924(8)
H54 H 0.3924 0.4164 0.2677
C23 C 0.4343(10) 0.4450(11) 0.3734(7)
H55 H 0.4065 0.4732 0.4076
C24 C 0.5244(10) 0.3994(12) 0.3601(8)
H56 H 0.5571 0.3946 0.3858
C25 C 0.3283(11) 0.6678(11) 0.3510(7)
H57 H 0.2996 0.6692 0.3901
C26 C 0.3768(11) 0.7114(10) 0.3301(7)
H58 H 0.3820 0.7418 0.3551
C27 C 0.4187(9) 0.7124(9) 0.2735(6)
C28 C 0.4099(9) 0.6655(10) 0.2391(7)
H59 H 0.4379 0.6632 0.1999
C29 C 0.3603(9) 0.6226(9) 0.2624(6)
H60 H 0.3542 0.5914 0.2384
C30 C 0.4709(10) 0.7579(10) 0.2470(7)
H61 H 0.4894 0.7593 0.2068
C31 C 0.4953(10) 0.7980(10) 0.2740(7)
H62 H 0.4746 0.7997 0.3140
C32 C 0.5520(9) 0.8395(8) 0.2458(6)
C33 C 0.5696(10) 0.8811(9) 0.2775(6)
H63 H 0.5465 0.8819 0.3173
C34 C 0.6213(9) 0.9224(9) 0.2513(6)
H64 H 0.6329 0.9515 0.2736
C35 C 0.6391(10) 0.8806(10) 0.1639(6)
H65 H 0.6636 0.8797 0.1241
C36 C 0.5884(11) 0.8397(10) 0.1877(6)
H66 H 0.5778 0.8111 0.1644
C37 C 0.8254(11) 1.1167(9) 0.1546(8)
H67 H 0.8003 1.1172 0.1956
H68 H 0.7838 1.1625 0.1354
H69 H 0.8790 1.1237 0.1465
C38 C 0.8917(11) 1.0249(11) 0.0542(7)
H70 H 0.9107 0.9712 0.0389
H71 H 0.9411 1.0386 0.0458
H72 H 0.8460 1.0684 0.0367
C39 C 0.9419(10) 0.9491(11) 0.1565(8)
H73 H 0.9885 0.9670 0.1411
H74 H 0.9619 0.8926 0.1454
H75 H 0.9260 0.9495 0.1980
C40 C 0.6549(10) 1.1583(10) 0.0810(8)
H76 H 0.6771 1.1221 0.0495
H77 H 0.6977 1.1781 0.0807
H78 H 0.6003 1.2061 0.0767
C41 C 0.6017(10) 1.1711(9) 0.2029(7)
H79 H 0.5460 1.2183 0.2001
H80 H 0.6455 1.1915 0.1982
H81 H 0.5952 1.1414 0.2401
C42 C 0.5382(9) 1.0939(10) 0.1487(8)
H82 H 0.5035 1.1419 0.1267
H83 H 0.5045 1.0940 0.1880
H84 H 0.5531 1.0423 0.1321
C43 C 1.2802(12) 0.2032(11) 0.2280(10)
H85 H 1.2619 0.2040 0.2694
H86 H 1.2437 0.2567 0.2113
H87 H 1.3411 0.1941 0.2154
C44 C 1.3050(14) 0.1317(19) 0.1307(9)
H88 H 1.3684 0.1101 0.1202
H89 H 1.2787 0.1910 0.1187
H90 H 1.2876 0.1008 0.1121
C45 C 1.3483(11) 0.0332(13) 0.2334(11)
H91 H 1.3573 -0.0179 0.2191
H92 H 1.3293 0.0306 0.2749
H93 H 1.4030 0.0388 0.2220
C46 C 1.2093(15) -0.0642(12) 0.2904(11)
H94 H 1.1644 -0.0523 0.3260
H95 H 1.2570 -0.0538 0.2936
H96 H 1.2316 -0.1227 0.2825
C47 C 1.0739(13) -0.0162(12) 0.2335(10)
H97 H 1.0947 -0.0748 0.2266
H98 H 1.0457 0.0196 0.2036
H99 H 1.0321 -0.0036 0.2704
C48 C 1.2388(15) -0.0473(14) 0.1662(11)
H100 H 1.2588 -0.1078 0.1716
H101 H 1.2889 -0.0343 0.1564
H102 H 1.2082 -0.0257 0.1356
C49 C 0.2786(11) 0.3623(10) 0.4233(7)
H103 H 0.2524 0.3241 0.4414
H104 H 0.2867 0.3861 0.4525
H105 H 0.3351 0.3319 0.3978
C50 C 0.2051(13) 0.3990(12) 0.3260(8)
H106 H 0.2581 0.3885 0.2958
H107 H 0.1542 0.4370 0.3111
H108 H 0.2014 0.3462 0.3399
C51 C 0.0994(12) 0.4738(13) 0.4313(9)
H109 H 0.0557 0.5181 0.4127
H110 H 0.0977 0.4936 0.4661
H111 H 0.0870 0.4250 0.4407
C52 C 0.0614(10) 0.6367(11) 0.3124(8)
H112 H 0.0128 0.6903 0.3066
H113 H 0.0389 0.5970 0.3337
H114 H 0.0985 0.6152 0.2755
C53 C 0.0582(11) 0.6801(12) 0.4225(8)
H115 H 0.0073 0.7332 0.4199
H116 H 0.0922 0.6861 0.4447
H117 H 0.0392 0.6369 0.4410
C54 C 0.1299(10) 0.7470(10) 0.3195(7)
H118 H 0.1683 0.7373 0.2814
H119 H 0.1526 0.7666 0.3426
H120 H 0.0715 0.7892 0.3171
Co1 Co 0.28504(12) 0.56678(11) 0.10195(8)
B1 B 0.3227(11) 0.6519(10) 0.1185(8)
H1 H 0.3891 0.6201 0.1270
B2 B 0.2295(11) 0.6466(10) 0.1692(8)
H2 H 0.2323 0.6126 0.2118
B3 B 0.1581(11) 0.6534(11) 0.1290(8)
H3 H 0.1132 0.6226 0.1444
B4 B 0.2884(11) 0.7522(11) 0.0801(9)
H4 H 0.3322 0.7841 0.0635
B5 B 0.2409(12) 0.7421(11) 0.1534(8)
H5 H 0.2537 0.7683 0.1855
B6 B 0.1378(11) 0.7445(11) 0.1610(8)
H6 H 0.0818 0.7721 0.1979
B7 B 0.1242(11) 0.7531(10) 0.0910(8)
H7 H 0.0587 0.7853 0.0811
B8 B 0.2172(13) 0.7583(11) 0.0419(8)
H8 H 0.2147 0.7933 -0.0004
B9 B 0.1728(11) 0.8084(10) 0.1070(8)
H9 H 0.1391 0.8779 0.1087
B10 B 0.3621(13) 0.4686(12) 0.1489(9)
H10 H 0.3745 0.4906 0.1834
B11 B 0.2581(13) 0.4731(11) 0.1550(9)
H11 H 0.2015 0.4971 0.1923
B12 B 0.2533(15) 0.4809(11) 0.0852(9)
H12 H 0.1875 0.5149 0.0758
B13 B 0.4327(13) 0.3918(12) 0.0408(10)
H13 H 0.4890 0.3674 0.0035
B14 B 0.4465(16) 0.3801(12) 0.1101(9)
H14 H 0.5130 0.3469 0.1184
B15 B 0.3521(14) 0.3755(11) 0.1584(9)
H15 H 0.3569 0.3375 0.1995
B16 B 0.2804(15) 0.3822(12) 0.1177(10)
H16 H 0.2362 0.3507 0.1308
B17 B 0.3320(16) 0.3904(12) 0.0449(10)
H17 H 0.3217 0.3659 0.0107
B18 B 0.3925(14) 0.3270(12) 0.0933(10)
H18 H 0.4226 0.2575 0.0920
C55 C 0.2995(9) 0.6664(9) 0.0541(7)
H121 H 0.3546 0.6412 0.0162
C56 C 0.2072(10) 0.6680(9) 0.0603(6)
H122 H 0.1948 0.6445 0.0266
C57 C 0.4086(12) 0.4752(11) 0.0761(8)
H123 H 0.4542 0.5052 0.0604
C58 C 0.3443(11) 0.4827(9) 0.0407(7)
H124 H 0.3426 0.5194 -0.0011
Co2 Co 0.67568(14) 0.06489(13) 0.43860(8)
B19 B 0.641(2) 0.1862(14) 0.4559(9)
H19 H 0.6830 0.2130 0.4244
B20 B 0.5558(15) 0.1740(12) 0.4378(9)
H20 H 0.5405 0.1932 0.3951
B21 B 0.5484(14) 0.0862(15) 0.4818(9)
H21 H 0.5289 0.0440 0.4673
B22 B 0.5909(15) 0.1285(12) 0.5712(9)
H22 H 0.6026 0.1146 0.6148
B23 B 0.606(2) 0.2097(17) 0.5287(10)
H23 H 0.6264 0.2502 0.5439
B24 B 0.525(2) 0.2491(15) 0.4864(10)
H24 H 0.4918 0.3172 0.4745
B25 B 0.4726(17) 0.1858(15) 0.5024(10)
H25 H 0.4035 0.2105 0.4998
B26 B 0.5118(14) 0.1125(15) 0.5550(10)
H26 H 0.4710 0.0862 0.5881
B27 B 0.496(2) 0.2081(17) 0.5566(10)
H27 H 0.4428 0.2484 0.5903
B28 B 0.7986(13) 0.0430(15) 0.3931(7)
H28 H 0.8161 0.0887 0.4051
B29 B 0.7257(14) 0.0793(13) 0.3509(7)
H29 H 0.6943 0.1449 0.3332
B30 B 0.6707(11) 0.0139(11) 0.3713(7)
H30 H 0.6025 0.0356 0.3678
B31 B 0.8814(14) -0.0574(19) 0.3807(9)
H31 H 0.9490 -0.0798 0.3855
B32 B 0.8393(14) 0.0144(17) 0.3248(9)
H32 H 0.8813 0.0395 0.2918
B33 B 0.7625(13) -0.0083(13) 0.3094(8)
H33 H 0.7533 0.0006 0.2653
B34 B 0.7531(13) -0.0913(13) 0.3548(7)
H34 H 0.7370 -0.1377 0.3425
B35 B 0.8291(17) -0.1210(17) 0.3978(9)
H35 H 0.8634 -0.1871 0.4139
B36 B 0.8547(11) -0.0880(15) 0.3258(8)
H36 H 0.9057 -0.1313 0.2927
C59 C 0.6726(14) 0.1148(13) 0.5088(7)
H125 H 0.7409 0.0907 0.5130
C60 C 0.6196(10) 0.0552(9) 0.5242(7)
H126 H 0.6507 -0.0120 0.5392
C61 C 0.7927(9) -0.0373(10) 0.4350(7)
H127 H 0.8056 -0.0503 0.4783
C62 C 0.7159(12) -0.0558(11) 0.4230(7)
H128 H 0.6750 -0.0821 0.4561
S1 S 1.0784(3) 0.1392(3) 0.06569(19)
O1 O 1.1183(12) 0.1643(12) 0.0949(7)
O2 O 1.1234(10) 0.1145(10) 0.0102(6)
O3 O 1.0382(12) 0.0857(11) 0.1031(7)
C63 C 0.9847(16) 0.2286(15) 0.0526(11)
F1 F 0.9366(11) 0.2725(11) 0.0985(7)
F2 F 0.9380(14) 0.2150(14) 0.0315(10)
F3 F 1.0063(15) 0.2809(14) 0.0163(9)
S2 S 0.1681(4) 0.1314(6) 0.3963(3)
O4 O 0.2235(13) 0.0693(12) 0.4276(8)
O5 O 0.1076(13) 0.1238(13) 0.3744(8)
O6 O 0.2148(19) 0.1776(18) 0.3525(11)
C64 C 0.0959(16) 0.2092(14) 0.4453(10)
F4 F 0.1383(16) 0.2397(16) 0.4635(10)
F5 F 0.0535(12) 0.1853(12) 0.4864(7)
F6 F 0.0440(17) 0.2744(15) 0.4208(11)
S3 S 0.6823(8) 0.3858(6) 0.1067(6)
O7 O 0.6788(11) 0.3263(10) 0.1516(6)
O8 O 0.637(3) 0.390(3) 0.0646(15)
O9 O 0.7647(16) 0.3880(19) 0.0723(12)
C65 C 0.6052(18) 0.4847(15) 0.1309(11)
F7 F 0.6301(18) 0.5459(15) 0.1143(12)
F8 F 0.5559(18) 0.4893(17) 0.1762(11)
F9 F 0.5517(19) 0.5112(18) 0.0960(13)
S4 S 0.1247(10) 0.4904(11) 0.6012(9)
O10 O 0.164(2) 0.527(2) 0.6251(13)
O11 O 0.0480(18) 0.483(2) 0.6322(15)
O12 O 0.132(2) 0.5242(19) 0.5389(11)
C66 C 0.193(2) 0.3822(18) 0.5978(15)
F10 F 0.156(2) 0.3497(18) 0.5766(14)
F11 F 0.269(2) 0.360(2) 0.5743(18)
F12 F 0.192(3) 0.349(2) 0.6488(15)
O13 O 0.4589(10) 0.0954(9) 0.2942(6)
O14 O 0.4084(11) 0.2201(9) 0.3098(7)
N7 N 0.4227(9) 0.1494(9) 0.3275(6)
C67 C 0.4001(12) 0.1296(13) 0.3894(8)
H129 H 0.3711 0.1812 0.4094
H130 H 0.4532 0.0919 0.4020
H131 H 0.3610 0.1027 0.3976
O15 O 0.7812(17) 0.4425(15) 0.4860(10)
O16 O 0.7750(17) 0.3523(16) 0.5267(10)
N8 N 0.7636(16) 0.387(2) 0.4807(12)
C68 C 0.742(2) 0.376(2) 0.4305(13)
H132 H 0.7400 0.3220 0.4349
H133 H 0.7867 0.3775 0.3964
H134 H 0.6854 0.4208 0.4268
O17 O 0.3950(18) 0.2133(19) 0.9458(12)
C69 C 0.229(3) 0.291(3) 0.956(2)
H135 H 0.1740 0.3001 0.9837
H136 H 0.2310 0.2702 0.9217
H137 H 0.2339 0.3441 0.9465
C70 C 0.304(2) 0.228(2) 0.9814(15)
H138 H 0.2971 0.2466 1.0186
H139 H 0.3007 0.1740 0.9885
C71 C 0.474(2) 0.184(3) 0.9696(11)
H140 H 0.4676 0.2226 0.9958
H141 H 0.4924 0.1264 0.9870
C72 C 0.5288(9) 0.1901(8) 0.9109(5)
H142 H 0.5881 0.1745 0.9133
H143 H 0.5040 0.2475 0.8948
H144 H 0.5298 0.1524 0.8867
O18 O 0.3079(9) 0.0293(8) 0.9619(5)
O19 O 0.5137(9) 0.0677(8) 0.9477(5)
loop_
_geom_bond_atom_site_label_1
_geom_bond_atom_site_label_2
_geom_bond_site_symmetry_1
_geom_bond_site_symmetry_2
Pt1 P1 1_555 1_555
Pt2 P3 1_555 1_555
Pt3 P5 1_555 1_555
Co1 B1 1_555 1_555
Co2 B19 1_555 1_555
P1 C37 1_555 1_555
P2 Pt1 1_555 1_555
P3 C43 1_555 1_555
P4 Pt2 1_555 1_555
P5 C49 1_555 1_555
P6 Pt3 1_555 1_555
N1 Pt1 1_555 1_555
N2 Pt2 1_555 1_555
N3 Pt2 1_555 1_555
N4 Pt3 1_555 1_555
N5 Pt3 1_555 1_555
N6 Pt1 1_555 1_555
B1 H1 1_555 1_555
B2 Co1 1_555 1_555
H2 B2 1_555 1_555
B3 Co1 1_555 1_555
H3 B3 1_555 1_555
B4 B1 1_555 1_555
H4 B4 1_555 1_555
B5 B1 1_555 1_555
H5 B5 1_555 1_555
B6 B2 1_555 1_555
H6 B6 1_555 1_555
B7 B3 1_555 1_555
H7 B7 1_555 1_555
B8 B4 1_555 1_555
H8 B8 1_555 1_555
B9 B4 1_555 1_555
H9 B9 1_555 1_555
B10 Co1 1_555 1_555
H10 B10 1_555 1_555
B11 Co1 1_555 1_555
H11 B11 1_555 1_555
B12 Co1 1_555 1_555
H12 B12 1_555 1_555
B13 H13 1_555 1_555
B14 B10 1_555 1_555
H14 B14 1_555 1_555
B15 B10 1_555 1_555
H15 B15 1_555 1_555
B16 B11 1_555 1_555
H16 B16 1_555 1_555
B17 B12 1_555 1_555
H17 B17 1_555 1_555
B18 B13 1_555 1_555
H18 B18 1_555 1_555
B19 H19 1_555 1_555
B20 Co2 1_555 1_555
H20 B20 1_555 1_555
B21 Co2 1_555 1_555
H21 B21 1_555 1_555
B22 H22 1_555 1_555
B23 B19 1_555 1_555
H23 B23 1_555 1_555
B24 B19 1_555 1_555
H24 B24 1_555 1_555
B25 B20 1_555 1_555
H25 B25 1_555 1_555
B26 B21 1_555 1_555
H26 B26 1_555 1_555
B27 B22 1_555 1_555
H27 B27 1_555 1_555
B28 Co2 1_555 1_555
H28 B28 1_555 1_555
B29 Co2 1_555 1_555
H29 B29 1_555 1_555
B30 Co2 1_555 1_555
H30 B30 1_555 1_555
B31 B28 1_555 1_555
H31 B31 1_555 1_555
B32 B28 1_555 1_555
H32 B32 1_555 1_555
B33 B29 1_555 1_555
H33 B33 1_555 1_555
B34 B30 1_555 1_555
H34 B34 1_555 1_555
B35 B31 1_555 1_555
H35 B35 1_555 1_555
B36 B31 1_555 1_555
H36 B36 1_555 1_555
C1 N1 1_555 1_555
H37 C1 1_555 1_555
C2 C1 1_555 1_555
H38 C2 1_555 1_555
C3 C2 1_555 1_555
C4 C3 1_555 1_555
H39 C4 1_555 1_555
C5 N1 1_555 1_555
H40 C5 1_555 1_555
C6 C3 1_555 1_555
H41 C6 1_555 1_555
C7 C6 1_555 1_555
H42 C7 1_555 1_555
C8 C7 1_555 1_555
C9 C8 1_555 1_555
H43 C9 1_555 1_555
C10 N2 1_555 1_555
H44 C10 1_555 1_555
C11 N2 1_555 1_555
H45 C11 1_555 1_555
C12 C8 1_555 1_555
H46 C12 1_555 1_555
C13 N3 1_555 1_555
H47 C13 1_555 1_555
C14 C13 1_555 1_555
H48 C14 1_555 1_555
C15 C14 1_555 1_555
C16 C15 1_555 1_555
H49 C16 1_555 1_555
C17 N3 1_555 1_555
H50 C17 1_555 1_555
C18 C15 1_555 1_555
H51 C18 1_555 1_555
C19 C18 1_555 1_555
H52 C19 1_555 1_555
C20 C19 1_555 1_555
C21 C20 1_555 1_555
H53 C21 1_555 1_555
C22 N4 1_555 1_555
H54 C22 1_555 1_555
C23 N4 1_555 1_555
H55 C23 1_555 1_555
C24 C20 1_555 1_555
H56 C24 1_555 1_555
C25 N5 1_555 1_555
H57 C25 1_555 1_555
C26 C25 1_555 1_555
H58 C26 1_555 1_555
C27 C26 1_555 1_555
C28 C27 1_555 1_555
H59 C28 1_555 1_555
C29 N5 1_555 1_555
H60 C29 1_555 1_555
C30 C27 1_555 1_555
H61 C30 1_555 1_555
C31 C30 1_555 1_555
H62 C31 1_555 1_555
C32 C31 1_555 1_555
C33 C32 1_555 1_555
H63 C33 1_555 1_555
C34 N6 1_555 1_555
H64 C34 1_555 1_555
C35 N6 1_555 1_555
H65 C35 1_555 1_555
C36 C32 1_555 1_555
H66 C36 1_555 1_555
C37 H67 1_555 1_555
H68 C37 1_555 1_555
H69 C37 1_555 1_555
C38 P1 1_555 1_555
H70 C38 1_555 1_555
H71 C38 1_555 1_555
H72 C38 1_555 1_555
C39 P1 1_555 1_555
H73 C39 1_555 1_555
H74 C39 1_555 1_555
H75 C39 1_555 1_555
C40 P2 1_555 1_555
H76 C40 1_555 1_555
H77 C40 1_555 1_555
H78 C40 1_555 1_555
C41 P2 1_555 1_555
H79 C41 1_555 1_555
H80 C41 1_555 1_555
H81 C41 1_555 1_555
C42 P2 1_555 1_555
H82 C42 1_555 1_555
H83 C42 1_555 1_555
H84 C42 1_555 1_555
C43 H85 1_555 1_555
H86 C43 1_555 1_555
H87 C43 1_555 1_555
C44 P3 1_555 1_555
H88 C44 1_555 1_555
H89 C44 1_555 1_555
H90 C44 1_555 1_555
C45 P3 1_555 1_555
H91 C45 1_555 1_555
H92 C45 1_555 1_555
H93 C45 1_555 1_555
C46 P4 1_555 1_555
H94 C46 1_555 1_555
H95 C46 1_555 1_555
H96 C46 1_555 1_555
C47 P4 1_555 1_555
H97 C47 1_555 1_555
H98 C47 1_555 1_555
H99 C47 1_555 1_555
C48 P4 1_555 1_555
H100 C48 1_555 1_555
H101 C48 1_555 1_555
H102 C48 1_555 1_555
C49 H103 1_555 1_555
H104 C49 1_555 1_555
H105 C49 1_555 1_555
C50 P5 1_555 1_555
H106 C50 1_555 1_555
H107 C50 1_555 1_555
H108 C50 1_555 1_555
C51 P5 1_555 1_555
H109 C51 1_555 1_555
H110 C51 1_555 1_555
H111 C51 1_555 1_555
C52 P6 1_555 1_555
H112 C52 1_555 1_555
H113 C52 1_555 1_555
H114 C52 1_555 1_555
C53 P6 1_555 1_555
H115 C53 1_555 1_555
H116 C53 1_555 1_555
H117 C53 1_555 1_555
C54 P6 1_555 1_555
H118 C54 1_555 1_555
H119 C54 1_555 1_555
H120 C54 1_555 1_555
C55 Co1 1_555 1_555
H121 C55 1_555 1_555
C56 Co1 1_555 1_555
H122 C56 1_555 1_555
C57 Co1 1_555 1_555
H123 C57 1_555 1_555
C58 Co1 1_555 1_555
H124 C58 1_555 1_555
C59 Co2 1_555 1_555
H125 C59 1_555 1_555
C60 Co2 1_555 1_555
H126 C60 1_555 1_555
C61 Co2 1_555 1_555
H127 C61 1_555 1_555
C62 Co2 1_555 1_555
H128 C62 1_555 1_555
S1 O1 1_555 1_555
O2 S1 1_555 1_555
O3 S1 1_555 1_555
C63 S1 1_555 1_555
F1 C63 1_555 1_555
F2 C63 1_555 1_555
F3 C63 1_555 1_555
S2 O4 1_555 1_555
O5 S2 1_555 1_555
O6 S2 1_555 1_555
C64 S2 1_555 1_555
F4 C64 1_555 1_555
F5 C64 1_555 1_555
F6 C64 1_555 1_555
S3 O7 1_555 1_555
O8 S3 1_555 1_555
O9 S3 1_555 1_555
C65 S3 1_555 1_555
F7 C65 1_555 1_555
F8 C65 1_555 1_555
F9 C65 1_555 1_555
S4 O10 1_555 1_555
O11 S4 1_555 1_555
O12 S4 1_555 1_555
C66 S4 1_555 1_555
F10 C66 1_555 1_555
F11 C66 1_555 1_555
F12 C66 1_555 1_555
O13 N7 1_555 1_555
O14 N7 1_555 1_555
N7 C67 1_555 1_555
C67 H129 1_555 1_555
H130 C67 1_555 1_555
H131 C67 1_555 1_555
O15 N8 1_555 1_555
O16 N8 1_555 1_555
N8 C68 1_555 1_555
C68 H132 1_555 1_555
H133 C68 1_555 1_555
H134 C68 1_555 1_555
O17 C70 1_555 1_555
C69 H135 1_555 1_555
H136 C69 1_555 1_555
H137 C69 1_555 1_555
C70 C69 1_555 1_555
H138 C70 1_555 1_555
H139 C70 1_555 1_555
C71 O17 1_555 1_555
H140 C71 1_555 1_555
H141 C71 1_555 1_555
C72 C71 1_555 1_555
H142 C72 1_555 1_555
H143 C72 1_555 1_555
H144 C72 1_555 1_555
B1 B2 1_555 1_555
B1 C55 1_555 1_555
B2 B5 1_555 1_555
B2 B3 1_555 1_555
B3 B6 1_555 1_555
B3 C56 1_555 1_555
B4 B5 1_555 1_555
B4 C55 1_555 1_555
B5 B6 1_555 1_555
B5 B9 1_555 1_555
B6 B9 1_555 1_555
B6 B7 1_555 1_555
B7 B8 1_555 1_555
B7 B9 1_555 1_555
B7 C56 1_555 1_555
B8 C55 1_555 1_555
B8 B9 1_555 1_555
B8 C56 1_555 1_555
B10 B11 1_555 1_555
B10 C57 1_555 1_555
B11 B15 1_555 1_555
B11 B12 1_555 1_555
B12 B16 1_555 1_555
B12 C58 1_555 1_555
B13 B14 1_555 1_555
B13 B17 1_555 1_555
B13 C57 1_555 1_555
B13 C58 1_555 1_555
B14 B18 1_555 1_555
B14 B15 1_555 1_555
B14 C57 1_555 1_555
B15 B16 1_555 1_555
B15 B18 1_555 1_555
B16 B17 1_555 1_555
B16 B18 1_555 1_555
B17 C58 1_555 1_555
B17 B18 1_555 1_555
B19 B20 1_555 1_555
B19 C59 1_555 1_555
B20 B24 1_555 1_555
B20 B21 1_555 1_555
B21 B25 1_555 1_555
B21 C60 1_555 1_555
B22 B23 1_555 1_555
B22 B26 1_555 1_555
B22 C59 1_555 1_555
B22 C60 1_555 1_555
B23 B27 1_555 1_555
B23 B24 1_555 1_555
B23 C59 1_555 1_555
B24 B25 1_555 1_555
B24 B27 1_555 1_555
B25 B26 1_555 1_555
B25 B27 1_555 1_555
B26 C60 1_555 1_555
B26 B27 1_555 1_555
B28 B29 1_555 1_555
B28 C61 1_555 1_555
B29 B32 1_555 1_555
B29 B30 1_555 1_555
B30 B33 1_555 1_555
B30 C62 1_555 1_555
B31 B32 1_555 1_555
B31 C61 1_555 1_555
B32 B33 1_555 1_555
B32 B36 1_555 1_555
B33 B36 1_555 1_555
B33 B34 1_555 1_555
B34 B35 1_555 1_555
B34 B36 1_555 1_555
B34 C62 1_555 1_555
B35 C61 1_555 1_555
B35 B36 1_555 1_555
B35 C62 1_555 1_555
C4 C5 1_555 1_555
C9 C10 1_555 1_555
C11 C12 1_555 1_555
C16 C17 1_555 1_555
C21 C22 1_555 1_555
C23 C24 1_555 1_555
C28 C29 1_555 1_555
C33 C34 1_555 1_555
C35 C36 1_555 1_555
C55 C56 1_555 1_555
C57 C58 1_555 1_555
C59 C60 1_555 1_555
C61 C62 1_555 1_555

#END
