
#######################################################################
#
#                 Cambridge Crystallographic Data Centre
#                                CCDC 
#
#######################################################################
#
# If this CIF has been generated from an entry in the Cambridge 
# Structural Database, then it will include bibliographic, chemical, 
# crystal, experimental, refinement or atomic coordinate data resulting 
# from the CCDC's data processing and validation procedures.
#
#######################################################################

data_AGEBAP
_chemical_formula_moiety         
'C72 H112 N8 P8 Pt4 8+,8(C1 F3 O3 S1 1-),6(C1 H3 N1 O2)'
_chemical_name_systematic        
'tetrakis(\m~2~-trans-1,2-bis(4-Pyridyl)ethene)-octakis(trimethylphosphine)-tetra-platinum(ii) octakis(trifluoromethanesulfonate) nitromethane solvate'
_symmetry_cell_setting           triclinic
_symmetry_space_group_name_H-M   'P -1'
_symmetry_Int_Tables_number      2
_space_group_name_Hall           '-P 1'
loop_
_symmetry_equiv_pos_site_id
_symmetry_equiv_pos_as_xyz
1 x,y,z
2 -x,-y,-z
_cell_length_a                   11.5726(16)
_cell_length_b                   17.160(3)
_cell_length_c                   21.568(4)
_cell_angle_alpha                80.901(7)
_cell_angle_beta                 74.906(10)
_cell_angle_gamma                87.888(13)
_cell_volume                     4083.25
_exptl_crystal_colour            colorless
_exptl_crystal_description       plate
_cell_formula_units_Z            1
_exptl_crystal_recrystallization_method 'diethyl ether'
loop_
_atom_site_label
_atom_site_type_symbol
_atom_site_fract_x
_atom_site_fract_y
_atom_site_fract_z
Pt1 Pt 1.03689(8) 0.73274(6) 0.08163(4)
Pt2 Pt 0.25811(9) 0.12011(6) 0.29928(4)
P1 P 1.1256(6) 0.8535(4) 0.0539(3)
P2 P 1.0973(7) 0.7006(4) -0.0188(3)
P3 P 0.2903(6) 0.1092(4) 0.1939(3)
P4 P 0.1383(8) 0.0130(5) 0.3352(4)
N1 N 0.9336(18) 0.6266(12) 0.1163(9)
N2 N 0.369(2) 0.2199(13) 0.2727(8)
N3 N 0.2286(16) 0.1414(11) 0.3954(8)
N4 N 0.9869(17) 0.7487(13) 0.1793(8)
C1 C 0.824(2) 0.6282(15) 0.1120(13)
H1 H 0.7941 0.6747 0.0912
C2 C 0.751(2) 0.5644(16) 0.1366(11)
H2 H 0.6710 0.5666 0.1321
C3 C 0.791(2) 0.4959(15) 0.1683(11)
C4 C 0.911(2) 0.4920(15) 0.1708(12)
H3 H 0.9426 0.4452 0.1900
C5 C 0.980(3) 0.5569(17) 0.1449(11)
H4 H 1.0613 0.5555 0.1461
C6 C 0.713(3) 0.4256(15) 0.1960(12)
H5 H 0.7493 0.3793 0.2126
C7 C 0.600(2) 0.4211(17) 0.1997(12)
H6 H 0.5614 0.4676 0.1847
C8 C 0.525(3) 0.3491(18) 0.2256(12)
C9 C 0.405(3) 0.3584(18) 0.2282(15)
H7 H 0.3743 0.4084 0.2146
C10 C 0.330(2) 0.2915(17) 0.2516(13)
H8 H 0.2477 0.2973 0.2525
C11 C 0.490(2) 0.2124(16) 0.2718(11)
H9 H 0.5204 0.1627 0.2867
C12 C 0.565(2) 0.2747(16) 0.2502(11)
H10 H 0.6460 0.2685 0.2515
C13 C 0.147(3) 0.1923(18) 0.4189(14)
H11 H 0.1002 0.2189 0.3917
C14 C 0.127(3) 0.207(2) 0.4793(13)
H12 H 0.0653 0.2435 0.4938
C15 C 0.188(3) 0.175(2) 0.5200(13)
C16 C 0.285(3) 0.1267(19) 0.4935(14)
H13 H 0.3380 0.1051 0.5188
C17 C 0.301(3) 0.1117(16) 0.4327(12)
H14 H 0.3659 0.0791 0.4154
C18 C 0.178(3) 0.1869(19) 0.5880(14)
H15 H 0.2387 0.1654 0.6080
C19 C 0.092(3) 0.2247(19) 0.6211(14)
H16 H 0.0389 0.2499 0.5974
C20 C 0.062(2) 0.2352(16) 0.6906(12)
C21 C -0.038(3) 0.2739(19) 0.7180(14)
H17 H -0.0901 0.2974 0.6931
C22 C 1.060(3) 0.7226(17) 0.2166(13)
H18 H 1.1332 0.6996 0.1964
C23 C 0.145(2) 0.2087(13) 0.7261(12)
H19 H 0.2185 0.1854 0.7065
C24 C 0.885(2) 0.7821(14) 0.2080(12)
H20 H 0.8307 0.8004 0.1828
C25 C 1.061(3) 0.9176(17) 0.1101(15)
H21 H 1.0624 0.8928 0.1540
H22 H 0.9775 0.9284 0.1087
H23 H 1.1059 0.9673 0.0988
C26 C 1.280(2) 0.854(2) 0.0552(17)
H24 H 1.2892 0.8231 0.0957
H25 H 1.3054 0.9088 0.0525
H26 H 1.3285 0.8316 0.0181
C27 C 1.110(2) 0.9111(16) -0.0211(12)
H27 H 1.0260 0.9116 -0.0222
H28 H 1.1589 0.8878 -0.0580
H29 H 1.1371 0.9653 -0.0239
C28 C 1.255(3) 0.723(2) -0.0622(14)
H30 H 1.3065 0.7000 -0.0346
H31 H 1.2666 0.7799 -0.0727
H32 H 1.2747 0.6995 -0.1024
C29 C 1.014(3) 0.746(2) -0.0738(14)
H33 H 1.0150 0.8038 -0.0751
H34 H 0.9316 0.7270 -0.0591
H35 H 1.0510 0.7337 -0.1173
C30 C 1.100(3) 0.5940(17) -0.0159(15)
H36 H 1.1462 0.5701 0.0144
H37 H 1.1373 0.5813 -0.0593
H38 H 1.0180 0.5734 -0.0011
C31 C 0.320(3) 0.0109(17) 0.1715(14)
H39 H 0.2541 -0.0247 0.1962
H40 H 0.3949 -0.0091 0.1813
H41 H 0.3276 0.0136 0.1249
C32 C 0.423(3) 0.161(2) 0.1412(13)
H42 H 0.4205 0.2162 0.1488
H43 H 0.4244 0.1601 0.0957
H44 H 0.4946 0.1356 0.1507
C33 C 0.166(3) 0.155(2) 0.1616(13)
H45 H 0.1495 0.2073 0.1739
H46 H 0.0940 0.1216 0.1797
H47 H 0.1882 0.1589 0.1141
C34 C 0.026(4) -0.001(2) 0.2935(18)
H48 H -0.0203 0.0471 0.2888
H49 H -0.0278 -0.0446 0.3187
H50 H 0.0648 -0.0148 0.2504
C35 C 0.051(3) 0.010(2) 0.4162(14)
H51 H 0.0066 0.0592 0.4205
H52 H 0.1032 0.0026 0.4457
H53 H -0.0058 -0.0345 0.4272
C36 C 0.223(4) -0.078(2) 0.341(2)
H54 H 0.2748 -0.0836 0.2982
H55 H 0.1682 -0.1227 0.3571
H56 H 0.2730 -0.0758 0.3715
C22A C -0.060(3) 0.2774(17) 0.7834(13)
N4A N 0.0131(17) 0.2513(13) 0.8207(8)
Pt1A Pt -0.03689(8) 0.26726(6) 0.91837(4)
P1A P -0.1256(6) 0.1465(4) 0.9461(3)
C25A C -0.061(3) 0.0824(17) 0.8899(15)
H21A H -0.0624 0.1072 0.8460
H22A H 0.0225 0.0716 0.8913
H23A H -0.1059 0.0327 0.9012
C26A C -0.280(2) 0.146(2) 0.9448(17)
H24A H -0.2892 0.1769 0.9043
H25A H -0.3054 0.0912 0.9475
H26A H -0.3285 0.1684 0.9819
C27A C -0.110(2) 0.0889(16) 1.0211(12)
H27A H -0.0260 0.0884 1.0222
H28A H -0.1589 0.1122 1.0580
H29A H -0.1371 0.0347 1.0239
P2A P -0.0973(7) 0.2994(4) 1.0188(3)
C28A C -0.255(3) 0.277(2) 1.0622(14)
H30A H -0.3065 0.3000 1.0346
H31A H -0.2666 0.2201 1.0727
H32A H -0.2747 0.3005 1.1024
C29A C -0.014(3) 0.254(2) 1.0738(14)
H33A H -0.0150 0.1962 1.0751
H34A H 0.0684 0.2730 1.0591
H35A H -0.0510 0.2663 1.1173
C30A C -0.100(3) 0.4060(17) 1.0159(15)
H36A H -0.1462 0.4299 0.9856
H37A H -0.1373 0.4187 1.0593
H38A H -0.0180 0.4266 1.0011
N1A N 0.0664(18) 0.3734(12) 0.8837(9)
C1A C 0.176(2) 0.3718(15) 0.8880(13)
H1A H 0.2059 0.3253 0.9088
C2A C 0.249(2) 0.4356(16) 0.8634(11)
H2A H 0.3290 0.4334 0.8679
C3A C 0.209(2) 0.5041(15) 0.8317(11)
C4A C 0.089(2) 0.5080(15) 0.8292(12)
H3A H 0.0574 0.5548 0.8100
C5A C 0.020(3) 0.4431(17) 0.8551(11)
H4A H -0.0613 0.4445 0.8539
C6A C 0.287(3) 0.5744(15) 0.8040(12)
H5A H 0.2507 0.6207 0.7874
C7A C 0.400(2) 0.5789(17) 0.8003(12)
H6A H 0.4386 0.5324 0.8153
C8A C 0.475(3) 0.6509(18) 0.7744(12)
C9A C 0.595(3) 0.6416(18) 0.7718(15)
H7A H 0.6257 0.5916 0.7854
C10A C 0.670(2) 0.7085(17) 0.7484(13)
N2A N 0.631(2) 0.7801(13) 0.7273(8)
Pt2A Pt 0.74189(9) 0.87989(6) 0.70072(4)
P3A P 0.7097(6) 0.8908(4) 0.8061(3)
C31A C 0.680(3) 0.9891(17) 0.8285(14)
H39A H 0.7459 1.0247 0.8038
H40A H 0.6051 1.0091 0.8187
H41A H 0.6724 0.9864 0.8751
C32A C 0.577(3) 0.839(2) 0.8588(13)
H42A H 0.5795 0.7838 0.8512
H43A H 0.5756 0.8399 0.9043
H44A H 0.5054 0.8644 0.8493
C33A C 0.834(3) 0.845(2) 0.8384(13)
H45A H 0.8505 0.7927 0.8261
H46A H 0.9060 0.8784 0.8203
H47A H 0.8118 0.8411 0.8859
P4A P 0.8617(8) 0.9870(5) 0.6648(4)
C34A C 0.974(4) 1.001(2) 0.7065(18)
H48A H 1.0203 0.9529 0.7112
H49A H 1.0278 1.0446 0.6813
H50A H 0.9352 1.0148 0.7496
C35A C 0.949(3) 0.990(2) 0.5838(14)
H51A H 0.9934 0.9408 0.5795
H52A H 0.8968 0.9974 0.5543
H53A H 1.0058 1.0345 0.5728
C36A C 0.777(4) 1.078(2) 0.659(2)
H54A H 0.7252 1.0836 0.7018
H55A H 0.8318 1.1227 0.6429
H56A H 0.7270 1.0758 0.6285
N3A N 0.7714(16) 0.8586(11) 0.6046(8)
C13A C 0.853(3) 0.8077(18) 0.5811(14)
H11A H 0.8998 0.7811 0.6083
C14A C 0.873(3) 0.793(2) 0.5207(13)
H12A H 0.9347 0.7565 0.5062
C15A C 0.812(3) 0.825(2) 0.4800(13)
C16A C 0.715(3) 0.8733(19) 0.5065(14)
H13A H 0.6620 0.8949 0.4812
C17A C 0.699(3) 0.8883(16) 0.5673(12)
H14A H 0.6341 0.9209 0.5846
C18A C 0.822(3) 0.8131(19) 0.4120(14)
H15A H 0.7613 0.8346 0.3920
C19A C 0.908(3) 0.7753(19) 0.3789(14)
H16A H 0.9611 0.7501 0.4026
C20A C 0.938(2) 0.7648(16) 0.3094(12)
C21A C 1.038(3) 0.7261(19) 0.2820(14)
H17A H 1.0901 0.7026 0.3069
C23A C 0.855(2) 0.7913(13) 0.2739(12)
H19A H 0.7815 0.8146 0.2935
C11A C 0.510(2) 0.7876(16) 0.7282(11)
H9A H 0.4796 0.8373 0.7133
C12A C 0.435(2) 0.7253(16) 0.7498(11)
H10A H 0.3540 0.7315 0.7485
H8A H 0.7523 0.7027 0.7475
C24A C 0.115(2) 0.2179(14) 0.7920(12)
H20A H 0.1693 0.1996 0.8172
H18A H -0.1332 0.3004 0.8036
S1 S 0.9350(8) 0.2602(6) 0.2909(4)
F1 F 0.835(2) 0.3922(14) 0.3295(13)
F2 F 0.884(3) 0.3069(17) 0.4022(11)
F3 F 0.733(2) 0.2895(18) 0.3680(14)
O1 O 0.867(2) 0.2676(15) 0.2451(10)
O2 O 1.0444(18) 0.3016(18) 0.2749(14)
O3 O 0.941(3) 0.1850(13) 0.3262(11)
C37 C 0.843(2) 0.3154(17) 0.3473(12)
S2 S 0.3565(10) 0.5876(6) 0.1265(6)
F4 F 0.524(3) 0.682(2) 0.1320(17)
F5 F 0.346(3) 0.7047(18) 0.1905(18)
F6 F 0.448(3) 0.6038(19) 0.2188(14)
O4 O 0.322(3) 0.6490(17) 0.0846(15)
O5 O 0.447(2) 0.5325(16) 0.1099(15)
O6 O 0.258(3) 0.555(2) 0.1774(14)
C38 C 0.4239(18) 0.6463(12) 0.1679(9)
S3 S 0.6019(17) -0.0294(10) 0.3019(9)
F7 F 0.660(3) 0.062(2) 0.1862(15)
F8 F 0.794(3) -0.0202(18) 0.2081(15)
F9 F 0.754(3) 0.0862(18) 0.2481(16)
O7 O 0.570(4) -0.084(3) 0.266(2)
O8 O 0.677(5) -0.056(4) 0.343(2)
O9 O 0.512(2) 0.0225(15) 0.3259(13)
C39 C 0.702(3) 0.0274(19) 0.2351(15)
S4 S 0.7425(7) 0.8598(5) 0.0294(3)
F10 F 0.531(2) 0.8649(15) 0.1086(13)
F11 F 0.547(2) 0.925(2) 0.0106(14)
F12 F 0.6185(19) 0.9730(14) 0.0789(13)
O10 O 0.793(2) 0.9175(11) -0.0247(9)
O11 O 0.796(2) 0.8530(18) 0.0825(11)
O12 O 0.710(2) 0.7890(11) 0.0133(10)
C40 C 0.606(2) 0.9068(15) 0.0593(13)
O13 O 0.241(3) 0.350(2) 0.1223(16)
O14 O 0.184(3) 0.433(2) 0.040(2)
N5 N 0.261(4) 0.393(3) 0.0672(19)
C41 C 0.388(3) 0.377(3) 0.030(2)
H57 H 0.4301 0.3471 0.0602
H58 H 0.4289 0.4269 0.0107
H59 H 0.3857 0.3458 -0.0040
O15 O 0.753(4) 0.088(3) 0.491(2)
O16 O 0.648(5) 0.105(4) 0.412(2)
N6 N 0.654(5) 0.092(3) 0.474(3)
C42 C 0.585(2) 0.1510(14) 0.5165(10)
H60 H 0.6159 0.1488 0.5551
H61 H 0.5000 0.1375 0.5300
H62 H 0.5964 0.2045 0.4918
O17 O 0.156(5) 0.702(4) 0.439(3)
O18 O 0.205(11) 0.585(5) 0.491(6)
N7 N 0.233(7) 0.651(5) 0.450(4)
C43 C 0.333(10) 0.702(9) 0.457(10)
H63 H 0.3795 0.6712 0.4844
H64 H 0.2974 0.7476 0.4781
H65 H 0.3854 0.7212 0.4144
O19 O 0.592(8) 0.691(3) 0.601(3)
O20 O 0.623(3) 0.6440(18) 0.5043(13)
N8 N 0.571(5) 0.641(3) 0.567(2)
C44 C 0.573(4) 0.563(2) 0.6118(18)
H66 H 0.5588 0.5192 0.5904
H67 H 0.5110 0.5630 0.6524
H68 H 0.6518 0.5561 0.6213
loop_
_geom_bond_atom_site_label_1
_geom_bond_atom_site_label_2
_geom_bond_site_symmetry_1
_geom_bond_site_symmetry_2
Pt1 P1 1_555 1_555
Pt2 P3 1_555 1_555
P1 C25 1_555 1_555
P2 Pt1 1_555 1_555
P3 C31 1_555 1_555
P4 Pt2 1_555 1_555
N1 Pt1 1_555 1_555
N2 Pt2 1_555 1_555
N3 Pt2 1_555 1_555
N4 Pt1 1_555 1_555
C1 N1 1_555 1_555
H1 C1 1_555 1_555
C2 C1 1_555 1_555
H2 C2 1_555 1_555
C3 C2 1_555 1_555
C4 C3 1_555 1_555
H3 C4 1_555 1_555
C5 N1 1_555 1_555
H4 C5 1_555 1_555
C6 C3 1_555 1_555
H5 C6 1_555 1_555
C7 C6 1_555 1_555
H6 C7 1_555 1_555
C8 C7 1_555 1_555
C9 C8 1_555 1_555
H7 C9 1_555 1_555
C10 N2 1_555 1_555
H8 C10 1_555 1_555
C11 N2 1_555 1_555
H9 C11 1_555 1_555
C12 C8 1_555 1_555
H10 C12 1_555 1_555
C13 N3 1_555 1_555
H11 C13 1_555 1_555
C14 C13 1_555 1_555
H12 C14 1_555 1_555
C15 C14 1_555 1_555
C16 C15 1_555 1_555
H13 C16 1_555 1_555
C17 N3 1_555 1_555
H14 C17 1_555 1_555
C18 C15 1_555 1_555
H15 C18 1_555 1_555
C19 C18 1_555 1_555
H16 C19 1_555 1_555
C20 C19 1_555 1_555
C21 C20 1_555 1_555
H17 C21 1_555 1_555
C22 N4 1_555 1_555
H18 C22 1_555 1_555
C23 C20 1_555 1_555
H19 C23 1_555 1_555
C24 N4 1_555 1_555
H20 C24 1_555 1_555
C25 H21 1_555 1_555
H22 C25 1_555 1_555
H23 C25 1_555 1_555
C26 P1 1_555 1_555
H24 C26 1_555 1_555
H25 C26 1_555 1_555
H26 C26 1_555 1_555
C27 P1 1_555 1_555
H27 C27 1_555 1_555
H28 C27 1_555 1_555
H29 C27 1_555 1_555
C28 P2 1_555 1_555
H30 C28 1_555 1_555
H31 C28 1_555 1_555
H32 C28 1_555 1_555
C29 P2 1_555 1_555
H33 C29 1_555 1_555
H34 C29 1_555 1_555
H35 C29 1_555 1_555
C30 P2 1_555 1_555
H36 C30 1_555 1_555
H37 C30 1_555 1_555
H38 C30 1_555 1_555
C31 H39 1_555 1_555
H40 C31 1_555 1_555
H41 C31 1_555 1_555
C32 P3 1_555 1_555
H42 C32 1_555 1_555
H43 C32 1_555 1_555
H44 C32 1_555 1_555
C33 P3 1_555 1_555
H45 C33 1_555 1_555
H46 C33 1_555 1_555
H47 C33 1_555 1_555
C34 P4 1_555 1_555
H48 C34 1_555 1_555
H49 C34 1_555 1_555
H50 C34 1_555 1_555
C35 P4 1_555 1_555
H51 C35 1_555 1_555
H52 C35 1_555 1_555
H53 C35 1_555 1_555
C36 P4 1_555 1_555
H54 C36 1_555 1_555
H55 C36 1_555 1_555
H56 C36 1_555 1_555
S1 O1 1_555 1_555
F1 C37 1_555 1_555
F2 C37 1_555 1_555
F3 C37 1_555 1_555
O2 S1 1_555 1_555
O3 S1 1_555 1_555
C37 S1 1_555 1_555
S2 O4 1_555 1_555
F4 C38 1_555 1_555
F5 C38 1_555 1_555
F6 C38 1_555 1_555
O5 S2 1_555 1_555
O6 S2 1_555 1_555
C38 S2 1_555 1_555
S3 O7 1_555 1_555
F7 C39 1_555 1_555
F8 C39 1_555 1_555
F9 C39 1_555 1_555
O8 S3 1_555 1_555
O9 S3 1_555 1_555
C39 S3 1_555 1_555
S4 O10 1_555 1_555
F10 C40 1_555 1_555
F11 C40 1_555 1_555
F12 C40 1_555 1_555
O11 S4 1_555 1_555
O12 S4 1_555 1_555
C40 S4 1_555 1_555
O13 N5 1_555 1_555
O14 N5 1_555 1_555
N5 C41 1_555 1_555
C41 H57 1_555 1_555
H58 C41 1_555 1_555
H59 C41 1_555 1_555
O15 N6 1_555 1_555
O16 N6 1_555 1_555
N6 C42 1_555 1_555
C42 H60 1_555 1_555
H61 C42 1_555 1_555
H62 C42 1_555 1_555
O17 N7 1_555 1_555
O18 N7 1_555 1_555
N7 C43 1_555 1_555
C43 H63 1_555 1_555
H64 C43 1_555 1_555
H65 C43 1_555 1_555
O19 N8 1_555 1_555
O20 N8 1_555 1_555
N8 C44 1_555 1_555
C44 H66 1_555 1_555
H67 C44 1_555 1_555
H68 C44 1_555 1_555
C22A C21 1_555 1_555
N4A C22A 1_555 1_555
Pt1A N4A 1_555 1_555
P1A Pt1A 1_555 1_555
C25A P1A 1_555 1_555
H21A C25A 1_555 1_555
H22A C25A 1_555 1_555
H23A C25A 1_555 1_555
C26A P1A 1_555 1_555
H24A C26A 1_555 1_555
H25A C26A 1_555 1_555
H26A C26A 1_555 1_555
C27A P1A 1_555 1_555
H27A C27A 1_555 1_555
H28A C27A 1_555 1_555
H29A C27A 1_555 1_555
P2A Pt1A 1_555 1_555
C28A P2A 1_555 1_555
H30A C28A 1_555 1_555
H31A C28A 1_555 1_555
H32A C28A 1_555 1_555
C29A P2A 1_555 1_555
H33A C29A 1_555 1_555
H34A C29A 1_555 1_555
H35A C29A 1_555 1_555
C30A P2A 1_555 1_555
H36A C30A 1_555 1_555
H37A C30A 1_555 1_555
H38A C30A 1_555 1_555
N1A Pt1A 1_555 1_555
C1A N1A 1_555 1_555
H1A C1A 1_555 1_555
C2A C1A 1_555 1_555
H2A C2A 1_555 1_555
C3A C2A 1_555 1_555
C4A C3A 1_555 1_555
H3A C4A 1_555 1_555
C5A N1A 1_555 1_555
H4A C5A 1_555 1_555
C6A C3A 1_555 1_555
H5A C6A 1_555 1_555
C7A C6A 1_555 1_555
H6A C7A 1_555 1_555
C8A C7A 1_555 1_555
C9A C8A 1_555 1_555
H7A C9A 1_555 1_555
C10A C9A 1_555 1_555
N2A C10A 1_555 1_555
Pt2A N2A 1_555 1_555
P3A Pt2A 1_555 1_555
C31A P3A 1_555 1_555
H39A C31A 1_555 1_555
H40A C31A 1_555 1_555
H41A C31A 1_555 1_555
C32A P3A 1_555 1_555
H42A C32A 1_555 1_555
H43A C32A 1_555 1_555
H44A C32A 1_555 1_555
C33A P3A 1_555 1_555
H45A C33A 1_555 1_555
H46A C33A 1_555 1_555
H47A C33A 1_555 1_555
P4A Pt2A 1_555 1_555
C34A P4A 1_555 1_555
H48A C34A 1_555 1_555
H49A C34A 1_555 1_555
H50A C34A 1_555 1_555
C35A P4A 1_555 1_555
H51A C35A 1_555 1_555
H52A C35A 1_555 1_555
H53A C35A 1_555 1_555
C36A P4A 1_555 1_555
H54A C36A 1_555 1_555
H55A C36A 1_555 1_555
H56A C36A 1_555 1_555
N3A Pt2A 1_555 1_555
C13A N3A 1_555 1_555
H11A C13A 1_555 1_555
C14A C13A 1_555 1_555
H12A C14A 1_555 1_555
C15A C14A 1_555 1_555
C16A C15A 1_555 1_555
H13A C16A 1_555 1_555
C17A N3A 1_555 1_555
H14A C17A 1_555 1_555
C18A C15A 1_555 1_555
H15A C18A 1_555 1_555
C19A C18A 1_555 1_555
H16A C19A 1_555 1_555
C20A C19A 1_555 1_555
C21A C22 1_555 1_555
H17A C21A 1_555 1_555
C23A C24 1_555 1_555
H19A C23A 1_555 1_555
C11A N2A 1_555 1_555
H9A C11A 1_555 1_555
C12A C8A 1_555 1_555
H10A C12A 1_555 1_555
H8A C10A 1_555 1_555
C24A C23 1_555 1_555
H20A C24A 1_555 1_555
H18A C22A 1_555 1_555
C4 C5 1_555 1_555
C9 C10 1_555 1_555
C11 C12 1_555 1_555
C16 C17 1_555 1_555
N4A C24A 1_555 1_555
C4A C5A 1_555 1_555
C16A C17A 1_555 1_555
C20A C21A 1_555 1_555
C20A C23A 1_555 1_555
C11A C12A 1_555 1_555

#END
