
#######################################################################
#
#                 Cambridge Crystallographic Data Centre
#                                CCDC 
#
#######################################################################
#
# If this CIF has been generated from an entry in the Cambridge 
# Structural Database, then it will include bibliographic, chemical, 
# crystal, experimental, refinement or atomic coordinate data resulting 
# from the CCDC's data processing and validation procedures.
#
#######################################################################

data_AHABIU
_chemical_formula_moiety         
'C78 H88 Cu2 Fe2 N18 O4 4+,4(Cl1 O4 1-),C6 H6,2(C1 H4 O1)'
_chemical_name_systematic        
"tetrakis((\m~2~-Cyano)-tetrakis(4,4'-dimethyl-2,2'-bipyridine))-bis((methanol)-(2-(2-pyridyl)-4,4,5,5-tetramethyl-4,5-dihydro-1H-imidazolyl-1-oxy)-copper(ii)-iron(ii)) tetraperchlorate methanol benzene solvate"
_symmetry_cell_setting           triclinic
_symmetry_space_group_name_H-M   'P -1'
_symmetry_Int_Tables_number      2
_space_group_name_Hall           '-P 1'
loop_
_symmetry_equiv_pos_site_id
_symmetry_equiv_pos_as_xyz
1 x,y,z
2 -x,-y,-z
_cell_length_a                   11.9749(14)
_cell_length_b                   13.6852(16)
_cell_length_c                   17.163(2)
_cell_angle_alpha                113.078(3)
_cell_angle_beta                 94.366(3)
_cell_angle_gamma                92.654(4)
_cell_volume                     2571.15
_exptl_crystal_colour            'dark red'
_exptl_crystal_description       tablet
_cell_formula_units_Z            1
loop_
_atom_site_label
_atom_site_type_symbol
_atom_site_fract_x
_atom_site_fract_y
_atom_site_fract_z
Fe1 Fe 0.06475(4) 0.04961(4) 0.21729(3)
Cu1 Cu 0.17187(3) 0.22863(3) 0.02658(2)
O1 O 0.4003(3) 0.5929(2) 0.1277(2)
O2 O 0.3215(2) 0.1312(2) -0.0050(2)
H1 H 0.3839 0.1527 -0.0130
N1 N 0.1290(3) 0.1664(2) 0.10565(19)
N2 N 0.0653(3) 0.1301(2) -0.06462(19)
N3 N 0.0117(2) -0.0191(2) 0.29341(17)
N4 N -0.0773(2) 0.1148(2) 0.24059(18)
N5 N 0.1537(2) 0.1618(2) 0.31839(17)
N6 N 0.2085(2) -0.0150(2) 0.20817(18)
N7 N 0.2259(2) 0.2984(2) -0.05070(17)
N8 N 0.2415(2) 0.3696(2) 0.11569(17)
N9 N 0.3422(3) 0.5226(2) 0.1428(2)
C1 C 0.1052(3) 0.1204(3) 0.1468(2)
C2 C -0.0127(3) -0.0624(3) 0.1209(2)
C3 C 0.0636(3) -0.0902(3) 0.3176(2)
H2 H 0.1329 -0.1122 0.2974
C4 C 0.0173(4) -0.1320(3) 0.3715(3)
H3 H 0.0555 -0.1810 0.3873
C5 C -0.0847(4) -0.1011(3) 0.4017(3)
C6 C -0.1372(3) -0.0296(3) 0.3770(2)
H4 H -0.2065 -0.0070 0.3965
C7 C -0.0890(3) 0.0090(3) 0.3238(2)
C8 C -0.1397(3) 0.0853(3) 0.2918(2)
C9 C -0.2438(3) 0.1244(3) 0.3127(3)
H5 H -0.2857 0.1015 0.3475
C10 C -0.2859(4) 0.1978(4) 0.2818(3)
C11 C -0.2208(4) 0.2241(4) 0.2291(3)
H6 H -0.2460 0.2724 0.2063
C12 C -0.1201(3) 0.1818(3) 0.2088(3)
H7 H -0.0796 0.2006 0.1713
C13 C -0.1351(4) -0.1450(4) 0.4610(3)
H8 H -0.0958 -0.1100 0.5177
H9 H -0.1279 -0.2211 0.4402
H10 H -0.2140 -0.1319 0.4631
C14 C -0.3975(4) 0.2419(5) 0.3056(4)
H11 H -0.3850 0.3160 0.3451
H12 H -0.4360 0.2012 0.3323
H13 H -0.4432 0.2368 0.2548
C15 C 0.1180(4) 0.2537(3) 0.3697(2)
H14 H 0.0443 0.2696 0.3591
C16 C 0.1897(4) 0.3285(3) 0.4405(3)
H15 H 0.1633 0.3929 0.4761
C17 C 0.2959(4) 0.3056(3) 0.4557(3)
C18 C 0.3318(3) 0.2106(3) 0.4034(3)
H16 H 0.4048 0.1931 0.4138
C19 C 0.2599(3) 0.1401(3) 0.3348(2)
C20 C 0.2922(3) 0.0360(3) 0.2724(2)
C21 C 0.3949(3) -0.0039(4) 0.2760(3)
H17 H 0.4500 0.0344 0.3212
C22 C 0.4182(4) -0.0996(3) 0.2140(3)
C23 C 0.3369(3) -0.1500(3) 0.1495(3)
H18 H 0.3501 -0.2146 0.1056
C24 C 0.2352(3) -0.1084(3) 0.1468(3)
H19 H 0.1811 -0.1458 0.1006
C25 C 0.3731(5) 0.3865(5) 0.5323(4)
H20 H 0.3491 0.4575 0.5458
H21 H 0.4500 0.3847 0.5180
H22 H 0.3686 0.3680 0.5811
C26 C 0.5293(4) -0.1430(4) 0.2161(4)
H23 H 0.5416 -0.1915 0.1591
H24 H 0.5309 -0.1809 0.2534
H25 H 0.5880 -0.0849 0.2371
C27 C 0.2123(3) 0.2574(3) -0.1356(2)
H26 H 0.1702 0.1914 -0.1643
C28 C 0.2572(3) 0.3078(3) -0.1832(2)
H27 H 0.2441 0.2773 -0.2430
C29 C 0.3218(3) 0.4036(3) -0.1420(3)
H28 H 0.3542 0.4388 -0.1732
C30 C 0.3379(3) 0.4471(3) -0.0530(2)
H29 H 0.3818 0.5119 -0.0232
C31 C 0.2884(3) 0.3937(2) -0.0102(2)
C32 C 0.2916(3) 0.4284(2) 0.0832(2)
C33 C 0.2563(3) 0.4219(3) 0.2109(2)
C34 C 0.3129(3) 0.5375(3) 0.2292(2)
C35 C 0.3304(3) 0.3553(3) 0.2422(2)
H30 H 0.2947 0.2836 0.2230
H31 H 0.3415 0.3870 0.3039
H32 H 0.4026 0.3527 0.2196
C36 C 0.1411(3) 0.4247(3) 0.2437(3)
H33 H 0.0910 0.4581 0.2163
H34 H 0.1484 0.4653 0.3048
H35 H 0.1105 0.3525 0.2308
C37 C 0.2338(4) 0.6260(3) 0.2548(3)
H36 H 0.2718 0.6910 0.2564
H37 H 0.2112 0.6378 0.3107
H38 H 0.1678 0.6056 0.2137
C38 C 0.4208(4) 0.5717(3) 0.2919(3)
H39 H 0.4749 0.5191 0.2714
H40 H 0.4027 0.5774 0.3475
H41 H 0.4527 0.6403 0.2960
C39 C 0.3234(5) 0.0248(4) -0.0147(5)
H42 H 0.3542 0.0223 0.0384
H43 H 0.3698 -0.0122 -0.0594
H44 H 0.2475 -0.0093 -0.0297
C2A C 0.0127(3) 0.0624(3) -0.1209(2)
Fe1A Fe -0.06475(4) -0.04961(4) -0.21729(3)
N3A N -0.0117(2) 0.0191(2) -0.29341(17)
C3A C -0.0636(3) 0.0902(3) -0.3176(2)
H2A H -0.1329 0.1122 -0.2974
C4A C -0.0173(4) 0.1320(3) -0.3715(3)
H3A H -0.0555 0.1810 -0.3873
C5A C 0.0847(4) 0.1011(3) -0.4017(3)
C6A C 0.1372(3) 0.0296(3) -0.3770(2)
H4A H 0.2065 0.0070 -0.3965
C7A C 0.0890(3) -0.0090(3) -0.3238(2)
C8A C 0.1397(3) -0.0853(3) -0.2918(2)
N4A N 0.0773(2) -0.1148(2) -0.24059(18)
N5A N -0.1537(2) -0.1618(2) -0.31839(17)
C15A C -0.1180(4) -0.2537(3) -0.3697(2)
H14A H -0.0443 -0.2696 -0.3591
C16A C -0.1897(4) -0.3285(3) -0.4405(3)
H15A H -0.1633 -0.3929 -0.4761
C17A C -0.2959(4) -0.3056(3) -0.4557(3)
C18A C -0.3318(3) -0.2106(3) -0.4034(3)
H16A H -0.4048 -0.1931 -0.4138
C19A C -0.2599(3) -0.1401(3) -0.3348(2)
C20A C -0.2922(3) -0.0360(3) -0.2724(2)
N6A N -0.2085(2) 0.0150(2) -0.20817(18)
C1A C -0.1052(3) -0.1204(3) -0.1468(2)
N1A N -0.1290(3) -0.1664(2) -0.10565(19)
Cu1A Cu -0.17187(3) -0.22863(3) -0.02658(2)
O2A O -0.3215(2) -0.1312(2) 0.0050(2)
H1A H -0.3839 -0.1527 0.0130
C39A C -0.3234(5) -0.0248(4) 0.0147(5)
H42A H -0.3542 -0.0223 -0.0384
H43A H -0.3698 0.0122 0.0594
H44A H -0.2475 0.0093 0.0297
N2A N -0.0653(3) -0.1301(2) 0.06462(19)
N7A N -0.2259(2) -0.2984(2) 0.05070(17)
C27A C -0.2123(3) -0.2574(3) 0.1356(2)
H26A H -0.1702 -0.1914 0.1643
C28A C -0.2572(3) -0.3078(3) 0.1832(2)
H27A H -0.2441 -0.2773 0.2430
C29A C -0.3218(3) -0.4036(3) 0.1420(3)
H28A H -0.3542 -0.4388 0.1732
C30A C -0.3379(3) -0.4471(3) 0.0530(2)
H29A H -0.3818 -0.5119 0.0232
C31A C -0.2884(3) -0.3937(2) 0.0102(2)
C32A C -0.2916(3) -0.4284(2) -0.0832(2)
N8A N -0.2415(2) -0.3696(2) -0.11569(17)
C33A C -0.2563(3) -0.4219(3) -0.2109(2)
C34A C -0.3129(3) -0.5375(3) -0.2292(2)
N9A N -0.3422(3) -0.5226(2) -0.1428(2)
O1A O -0.4003(3) -0.5929(2) -0.1277(2)
C37A C -0.2338(4) -0.6260(3) -0.2548(3)
H36A H -0.2718 -0.6910 -0.2564
H37A H -0.2112 -0.6378 -0.3107
H38A H -0.1678 -0.6056 -0.2137
C38A C -0.4208(4) -0.5717(3) -0.2919(3)
H39A H -0.4749 -0.5191 -0.2714
H40A H -0.4027 -0.5774 -0.3475
H41A H -0.4527 -0.6403 -0.2960
C35A C -0.3304(3) -0.3553(3) -0.2422(2)
H30A H -0.2947 -0.2836 -0.2230
H31A H -0.3415 -0.3870 -0.3039
H32A H -0.4026 -0.3527 -0.2196
C36A C -0.1411(3) -0.4247(3) -0.2437(3)
H33A H -0.0910 -0.4581 -0.2163
H34A H -0.1484 -0.4653 -0.3048
H35A H -0.1105 -0.3525 -0.2308
C24A C -0.2352(3) 0.1084(3) -0.1468(3)
C23A C -0.3369(3) 0.1500(3) -0.1495(3)
C22A C -0.4182(4) 0.0996(3) -0.2140(3)
C21A C -0.3949(3) 0.0039(4) -0.2760(3)
H17A H -0.4500 -0.0344 -0.3212
C26A C -0.5293(4) 0.1430(4) -0.2161(4)
H23A H -0.5416 0.1915 -0.1591
H24A H -0.5309 0.1809 -0.2534
H25A H -0.5880 0.0849 -0.2371
H18A H -0.3501 0.2146 -0.1056
H19A H -0.1811 0.1458 -0.1006
C25A C -0.3731(5) -0.3865(5) -0.5323(4)
H20A H -0.3491 -0.4575 -0.5458
H21A H -0.4500 -0.3847 -0.5180
H22A H -0.3686 -0.3680 -0.5811
C12A C 0.1201(3) -0.1818(3) -0.2088(3)
C11A C 0.2208(4) -0.2241(4) -0.2291(3)
C10A C 0.2859(4) -0.1978(4) -0.2818(3)
C9A C 0.2438(3) -0.1244(3) -0.3127(3)
H5A H 0.2857 -0.1015 -0.3475
C14A C 0.3975(4) -0.2419(5) -0.3056(4)
H11A H 0.3850 -0.3160 -0.3451
H12A H 0.4360 -0.2012 -0.3323
H13A H 0.4432 -0.2368 -0.2548
H6A H 0.2460 -0.2724 -0.2063
H7A H 0.0796 -0.2006 -0.1713
C13A C 0.1351(4) 0.1450(4) -0.4610(3)
H8A H 0.0958 0.1100 -0.5177
H9A H 0.1279 0.2211 -0.4402
H10A H 0.2140 0.1319 -0.4631
Cl1 Cl 0.58549(9) 0.29682(9) 0.08347(8)
O4 O 0.5127(3) 0.3185(3) 0.0245(3)
O5 O 0.5902(4) 0.3813(3) 0.1669(3)
O6 O 0.5432(3) 0.2016(2) 0.0889(3)
O7 O 0.6965(3) 0.2913(3) 0.0605(2)
Cl2 Cl 0.8737(2) 0.3719(2) 0.50952(14)
O8 O 0.8996(8) 0.2776(8) 0.5099(6)
O9 O 0.7689(6) 0.3987(6) 0.5344(5)
O10 O 0.9557(6) 0.4409(7) 0.5647(5)
O11 O 0.8797(7) 0.3737(7) 0.4302(5)
Cl3 Cl 0.6145(2) 0.1261(2) 0.52303(16)
O12 O 0.5964(4) 0.0491(4) 0.4481(3)
O13 O 0.5357(9) 0.1366(7) 0.5722(6)
O14 O 0.7057(8) 0.1187(10) 0.5621(7)
O15 O 0.6172(10) 0.2080(8) 0.5027(7)
O3 O 0.1014(11) 0.4017(6) 0.6818(6)
C43 C 0.1600(8) 0.5002(7) 0.7130(7)
H48 H 0.1317 0.5458 0.7654
H49 H 0.1507 0.5318 0.6714
H50 H 0.2391 0.4927 0.7240
C40 C 0.9371(5) 0.4308(7) 1.0248(7)
H45 H 0.8939 0.3850 1.0419
C41 C 0.9647(6) 0.3979(6) 0.9436(6)
H46 H 0.9424 0.3282 0.9041
C42 C 0.9735(6) 0.5315(8) 1.0809(5)
H47 H 0.9565 0.5542 1.1376
C42A C 1.0265(6) 0.4685(8) 0.9191(5)
C40A C 1.0629(5) 0.5692(7) 0.9752(7)
H45A H 1.1061 0.6150 0.9581
C41A C 1.0353(6) 0.6021(6) 1.0564(6)
H46A H 1.0576 0.6718 1.0959
H47A H 1.0435 0.4458 0.8624
loop_
_geom_bond_atom_site_label_1
_geom_bond_atom_site_label_2
_geom_bond_site_symmetry_1
_geom_bond_site_symmetry_2
Fe1 N3 1_555 1_555
Cu1 O2 1_555 1_555
Cl1 O4 1_555 1_555
Cl2 O8 1_555 1_555
Cl3 O12 1_555 1_555
O1 N9 1_555 1_555
O2 H1 1_555 1_555
O3 C43 1_555 1_555
O5 Cl1 1_555 1_555
O6 Cl1 1_555 1_555
O7 Cl1 1_555 1_555
O9 Cl2 1_555 1_555
O10 Cl2 1_555 1_555
O11 Cl2 1_555 1_555
O13 Cl3 1_555 1_555
O14 Cl3 1_555 1_555
O15 Cl3 1_555 1_555
N1 Cu1 1_555 1_555
N2 Cu1 1_555 1_555
N3 C3 1_555 1_555
N4 Fe1 1_555 1_555
N5 Fe1 1_555 1_555
N6 Fe1 1_555 1_555
N7 Cu1 1_555 1_555
N8 Cu1 1_555 1_555
N9 C32 1_555 1_555
C1 Fe1 1_555 1_555
C2 Fe1 1_555 1_555
C3 H2 1_555 1_555
C4 C3 1_555 1_555
H3 C4 1_555 1_555
C5 C4 1_555 1_555
C6 C5 1_555 1_555
H4 C6 1_555 1_555
C7 N3 1_555 1_555
C8 N4 1_555 1_555
C9 C8 1_555 1_555
H5 C9 1_555 1_555
C10 C9 1_555 1_555
C11 C10 1_555 1_555
H6 C11 1_555 1_555
C12 N4 1_555 1_555
H7 C12 1_555 1_555
C13 C5 1_555 1_555
H8 C13 1_555 1_555
H9 C13 1_555 1_555
H10 C13 1_555 1_555
C14 C10 1_555 1_555
H11 C14 1_555 1_555
H12 C14 1_555 1_555
H13 C14 1_555 1_555
C15 N5 1_555 1_555
H14 C15 1_555 1_555
C16 C15 1_555 1_555
H15 C16 1_555 1_555
C17 C16 1_555 1_555
C18 C17 1_555 1_555
H16 C18 1_555 1_555
C19 N5 1_555 1_555
C20 N6 1_555 1_555
C21 C20 1_555 1_555
H17 C21 1_555 1_555
C22 C21 1_555 1_555
C23 C22 1_555 1_555
H18 C23 1_555 1_555
C24 N6 1_555 1_555
H19 C24 1_555 1_555
C25 C17 1_555 1_555
H20 C25 1_555 1_555
H21 C25 1_555 1_555
H22 C25 1_555 1_555
C26 C22 1_555 1_555
H23 C26 1_555 1_555
H24 C26 1_555 1_555
H25 C26 1_555 1_555
C27 N7 1_555 1_555
H26 C27 1_555 1_555
C28 C27 1_555 1_555
H27 C28 1_555 1_555
C29 C28 1_555 1_555
H28 C29 1_555 1_555
C30 C29 1_555 1_555
H29 C30 1_555 1_555
C31 N7 1_555 1_555
C32 N8 1_555 1_555
C33 N8 1_555 1_555
C34 N9 1_555 1_555
C35 C33 1_555 1_555
H30 C35 1_555 1_555
H31 C35 1_555 1_555
H32 C35 1_555 1_555
C36 C33 1_555 1_555
H33 C36 1_555 1_555
H34 C36 1_555 1_555
H35 C36 1_555 1_555
C37 C34 1_555 1_555
H36 C37 1_555 1_555
H37 C37 1_555 1_555
H38 C37 1_555 1_555
C38 C34 1_555 1_555
H39 C38 1_555 1_555
H40 C38 1_555 1_555
H41 C38 1_555 1_555
C39 O2 1_555 1_555
H42 C39 1_555 1_555
H43 C39 1_555 1_555
H44 C39 1_555 1_555
C40 H45 1_555 1_555
C41 C40 1_555 1_555
H46 C41 1_555 1_555
C42 C40 1_555 1_555
H47 C42 1_555 1_555
C43 H48 1_555 1_555
H49 C43 1_555 1_555
H50 C43 1_555 1_555
C2A N2 1_555 1_555
Fe1A C2A 1_555 1_555
N3A Fe1A 1_555 1_555
C3A N3A 1_555 1_555
H2A C3A 1_555 1_555
C4A C3A 1_555 1_555
H3A C4A 1_555 1_555
C5A C4A 1_555 1_555
C6A C5A 1_555 1_555
H4A C6A 1_555 1_555
C7A N3A 1_555 1_555
C8A C7A 1_555 1_555
N4A Fe1A 1_555 1_555
N5A Fe1A 1_555 1_555
C15A N5A 1_555 1_555
H14A C15A 1_555 1_555
C16A C15A 1_555 1_555
H15A C16A 1_555 1_555
C17A C16A 1_555 1_555
C18A C17A 1_555 1_555
H16A C18A 1_555 1_555
C19A N5A 1_555 1_555
C20A C19A 1_555 1_555
N6A Fe1A 1_555 1_555
C1A Fe1A 1_555 1_555
N1A C1A 1_555 1_555
Cu1A N1A 1_555 1_555
O2A Cu1A 1_555 1_555
H1A O2A 1_555 1_555
C39A O2A 1_555 1_555
H42A C39A 1_555 1_555
H43A C39A 1_555 1_555
H44A C39A 1_555 1_555
N2A C2 1_555 1_555
N7A Cu1A 1_555 1_555
C27A N7A 1_555 1_555
H26A C27A 1_555 1_555
C28A C27A 1_555 1_555
H27A C28A 1_555 1_555
C29A C28A 1_555 1_555
H28A C29A 1_555 1_555
C30A C29A 1_555 1_555
H29A C30A 1_555 1_555
C31A N7A 1_555 1_555
C32A C31A 1_555 1_555
N8A Cu1A 1_555 1_555
C33A N8A 1_555 1_555
C34A C33A 1_555 1_555
N9A C32A 1_555 1_555
O1A N9A 1_555 1_555
C37A C34A 1_555 1_555
H36A C37A 1_555 1_555
H37A C37A 1_555 1_555
H38A C37A 1_555 1_555
C38A C34A 1_555 1_555
H39A C38A 1_555 1_555
H40A C38A 1_555 1_555
H41A C38A 1_555 1_555
C35A C33A 1_555 1_555
H30A C35A 1_555 1_555
H31A C35A 1_555 1_555
H32A C35A 1_555 1_555
C36A C33A 1_555 1_555
H33A C36A 1_555 1_555
H34A C36A 1_555 1_555
H35A C36A 1_555 1_555
C24A N6A 1_555 1_555
C23A C24A 1_555 1_555
C22A C23A 1_555 1_555
C21A C20A 1_555 1_555
H17A C21A 1_555 1_555
C26A C22A 1_555 1_555
H23A C26A 1_555 1_555
H24A C26A 1_555 1_555
H25A C26A 1_555 1_555
H18A C23A 1_555 1_555
H19A C24A 1_555 1_555
C25A C17A 1_555 1_555
H20A C25A 1_555 1_555
H21A C25A 1_555 1_555
H22A C25A 1_555 1_555
C12A N4A 1_555 1_555
C11A C12A 1_555 1_555
C10A C11A 1_555 1_555
C9A C8A 1_555 1_555
H5A C9A 1_555 1_555
C14A C10A 1_555 1_555
H11A C14A 1_555 1_555
H12A C14A 1_555 1_555
H13A C14A 1_555 1_555
H6A C11A 1_555 1_555
H7A C12A 1_555 1_555
C13A C5A 1_555 1_555
H8A C13A 1_555 1_555
H9A C13A 1_555 1_555
H10A C13A 1_555 1_555
C42A C41 1_555 1_555
C40A C42A 1_555 1_555
H45A C40A 1_555 1_555
C41A C42 1_555 1_555
H46A C41A 1_555 1_555
H47A C42A 1_555 1_555
N1 C1 1_555 1_555
C6 C7 1_555 1_555
C7 C8 1_555 1_555
C11 C12 1_555 1_555
C18 C19 1_555 1_555
C19 C20 1_555 1_555
C23 C24 1_555 1_555
C30 C31 1_555 1_555
C31 C32 1_555 1_555
C33 C34 1_555 1_555
C6A C7A 1_555 1_555
C8A N4A 1_555 1_555
C18A C19A 1_555 1_555
C20A N6A 1_555 1_555
Cu1A N2A 1_555 1_555
C30A C31A 1_555 1_555
C32A N8A 1_555 1_555
C34A N9A 1_555 1_555
C22A C21A 1_555 1_555
C10A C9A 1_555 1_555
C40A C41A 1_555 1_555

#END
