
#######################################################################
#
#                 Cambridge Crystallographic Data Centre
#                                CCDC 
#
#######################################################################
#
# If this CIF has been generated from an entry in the Cambridge 
# Structural Database, then it will include bibliographic, chemical, 
# crystal, experimental, refinement or atomic coordinate data resulting 
# from the CCDC's data processing and validation procedures.
#
#######################################################################

data_AHABOA
_chemical_formula_moiety         
'C78 H88 Cl2 Cu2 Fe2 N18 O12 4+,4(Cl1 O4 1-),2(C1 H4 O1),4(H2 O1)'
_chemical_name_systematic        
"tetrakis((\m~2~-Cyano)-(4,4'-dimethyl-2,2'-bipyridine))-bis((methanol)-(2-(2-pyridyl)-4,4,5,5-tetramethyl-4,5-dihydro-1H-imidazolyl-1-oxy)-(perchlorate-O)-copper(ii)-iron(ii)) tetraperchlorate methanol solvate tetrahydrate"
_symmetry_cell_setting           triclinic
_symmetry_space_group_name_H-M   'P -1'
_symmetry_Int_Tables_number      2
_space_group_name_Hall           '-P 1'
loop_
_symmetry_equiv_pos_site_id
_symmetry_equiv_pos_as_xyz
1 x,y,z
2 -x,-y,-z
_cell_length_a                   13.3088(4)
_cell_length_b                   14.5290(4)
_cell_length_c                   17.1359(5)
_cell_angle_alpha                69.3510(10)
_cell_angle_beta                 70.7150(10)
_cell_angle_gamma                66.2150(10)
_cell_volume                     2767.99
_exptl_crystal_colour            'bright red'
_exptl_crystal_description       tablet
_cell_formula_units_Z            1
loop_
_atom_site_label
_atom_site_type_symbol
_atom_site_fract_x
_atom_site_fract_y
_atom_site_fract_z
Fe1 Fe 1.04241(10) 1.03582(10) 0.77945(7)
Cu1 Cu 0.82068(11) 0.85092(11) 1.03974(7)
O1 O 0.5351(8) 0.6586(8) 1.1524(6)
N1 N 0.9173(8) 0.9139(8) 0.9391(6)
N2 N 0.8644(7) 0.9041(7) 1.1105(5)
N3 N 1.1183(6) 1.1198(6) 0.6772(4)
N4 N 0.9233(6) 1.1705(7) 0.7766(5)
N5 N 0.9869(6) 0.9988(5) 0.7051(4)
N6 N 1.1575(6) 0.8995(6) 0.7742(5)
N7 N 0.7815(8) 0.7857(7) 0.9717(6)
N8 N 0.7035(6) 0.7947(6) 1.1310(5)
N9 N 0.5838(8) 0.7107(7) 1.1631(6)
C1 C 0.9633(9) 0.9604(8) 0.8806(6)
C2 C 1.1005(8) 1.0712(8) 0.8515(5)
C3 C 1.2244(7) 1.0837(7) 0.6292(5)
H1 H 1.2658 1.0135 0.6440
C4 C 1.2694(8) 1.1473(9) 0.5615(5)
H2 H 1.3414 1.1204 0.5302
C5 C 1.2105(9) 1.2529(8) 0.5373(6)
C6 C 1.1023(8) 1.2869(8) 0.5864(6)
H3 H 1.0584 1.3564 0.5722
C7 C 1.0609(7) 1.2198(8) 0.6541(6)
C8 C 0.9468(8) 1.2500(9) 0.7129(6)
C9 C 0.8741(9) 1.3482(9) 0.7040(7)
H4 H 0.8931 1.4015 0.6591
C10 C 0.7714(10) 1.3698(11) 0.7616(10)
C11 C 0.7479(9) 1.2901(12) 0.8249(8)
H5 H 0.6792 1.3021 0.8640
C12 C 0.8222(9) 1.1928(10) 0.8327(7)
H6 H 0.8038 1.1394 0.8779
C13 C 1.2597(11) 1.3254(10) 0.4612(7)
H7 H 1.2207 1.3957 0.4659
H8 H 1.2518 1.3189 0.4099
H9 H 1.3380 1.3079 0.4593
C14 C 0.6908(12) 1.4813(12) 0.7551(11)
H10 H 0.6577 1.5038 0.7067
H11 H 0.7315 1.5262 0.7482
H12 H 0.6326 1.4839 0.8062
C15 C 0.8966(7) 1.0533(7) 0.6722(6)
H13 H 0.8527 1.1172 0.6843
C16 C 0.8645(8) 1.0207(8) 0.6217(6)
H14 H 0.7998 1.0620 0.6008
C17 C 0.9265(9) 0.9275(9) 0.6011(6)
C18 C 1.0205(9) 0.8677(8) 0.6358(6)
H15 H 1.0638 0.8030 0.6250
C19 C 1.0500(7) 0.9054(7) 0.6876(5)
C20 C 1.1436(8) 0.8498(8) 0.7274(6)
C21 C 1.2169(12) 0.7519(11) 0.7216(9)
H16 H 1.2070 0.7182 0.6890
C22 C 1.3054(12) 0.7025(12) 0.7638(12)
C23 C 1.3158(11) 0.7548(13) 0.8081(10)
H17 H 1.3752 0.7239 0.8359
C24 C 1.2443(9) 0.8522(10) 0.8157(6)
H18 H 1.2548 0.8854 0.8485
C25 C 0.8931(11) 0.8898(11) 0.5454(8)
H19 H 0.8557 0.8399 0.5805
H20 H 0.9591 0.8578 0.5072
H21 H 0.8432 0.9476 0.5129
C26 C 1.3879(16) 0.5943(13) 0.7556(15)
H22 H 1.3760 0.5765 0.7112
H23 H 1.3755 0.5439 0.8088
H24 H 1.4637 0.5948 0.7417
C27 C 0.8301(15) 0.7793(14) 0.8882(8)
H25 H 0.8842 0.8117 0.8577
C28 C 0.8056(16) 0.7306(15) 0.8482(10)
H26 H 0.8364 0.7334 0.7905
C29 C 0.7290(13) 0.6733(13) 0.8982(10)
H27 H 0.7139 0.6327 0.8747
C30 C 0.6783(10) 0.6796(9) 0.9813(9)
H28 H 0.6255 0.6463 1.0141
C31 C 0.7081(8) 0.7371(8) 1.0149(7)
C32 C 0.6648(8) 0.7465(8) 1.1036(7)
C33 C 0.6524(10) 0.7925(10) 1.2208(7)
C34 C 0.5545(10) 0.7464(12) 1.2387(8)
C35 C 0.6104(13) 0.8989(11) 1.2336(9)
H29 H 0.6720 0.9256 1.2158
H30 H 0.5772 0.8963 1.2930
H31 H 0.5550 0.9436 1.2004
C36 C 0.7401(12) 0.7274(13) 1.2679(8)
H32 H 0.7735 0.6608 1.2551
H33 H 0.7082 0.7185 1.3281
H34 H 0.7966 0.7599 1.2518
C37 C 0.4382(12) 0.8285(18) 1.2408(16)
H35 H 0.4054 0.8379 1.2976
H36 H 0.3911 0.8062 1.2243
H37 H 0.4449 0.8931 1.2018
C38 C 0.5567(18) 0.6538(16) 1.3166(10)
H38 H 0.4913 0.6341 1.3285
H39 H 0.5567 0.6725 1.3650
H40 H 0.6233 0.5964 1.3054
C39 C 1.0770(15) 0.6763(16) 1.0644(15)
H41 H 1.0931 0.7404 1.0368
H42 H 1.1296 0.6240 1.0354
H43 H 1.0835 0.6544 1.1228
Cl4 Cl 0.6116(13) 1.0419(10) 0.9907(9)
O14 O 0.6910(13) 1.0069(12) 1.0115(12)
O15 O 0.562(2) 0.9732(17) 0.990(3)
O16 O 0.523(2) 1.088(3) 1.057(2)
O17 O 0.589(3) 1.122(3) 0.921(2)
O18 O 0.9706(8) 0.6905(7) 1.0618(6)
H47 H 0.9642 0.6340 1.0691
C2A C 0.8995(8) 0.9288(8) 1.1485(5)
Fe1A Fe 0.95759(10) 0.96418(10) 1.22055(7)
N3A N 0.8817(6) 0.8802(6) 1.3228(4)
C3A C 0.7756(7) 0.9163(7) 1.3708(5)
H1A H 0.7342 0.9865 1.3560
C4A C 0.7306(8) 0.8527(9) 1.4385(5)
H2A H 0.6586 0.8796 1.4698
C5A C 0.7895(9) 0.7471(8) 1.4627(6)
C6A C 0.8977(8) 0.7131(8) 1.4136(6)
H3A H 0.9416 0.6436 1.4278
C7A C 0.9391(7) 0.7802(8) 1.3459(6)
C8A C 1.0532(8) 0.7500(9) 1.2871(6)
N4A N 1.0767(6) 0.8295(7) 1.2234(5)
N5A N 1.0131(6) 1.0012(5) 1.2949(4)
C15A C 1.1034(7) 0.9467(7) 1.3278(6)
H13A H 1.1473 0.8828 1.3157
C16A C 1.1355(8) 0.9793(8) 1.3783(6)
H14A H 1.2002 0.9380 1.3992
C17A C 1.0735(9) 1.0725(9) 1.3989(6)
C18A C 0.9795(9) 1.1323(8) 1.3642(6)
H15A H 0.9362 1.1970 1.3750
C19A C 0.9500(7) 1.0946(7) 1.3124(5)
C20A C 0.8564(8) 1.1502(8) 1.2726(6)
N6A N 0.8425(6) 1.1005(6) 1.2258(5)
C1A C 1.0367(9) 1.0396(8) 1.1194(6)
N1A N 1.0827(8) 1.0861(8) 1.0609(6)
Cu1A Cu 1.17932(11) 1.14908(11) 0.96026(7)
N2A N 1.1356(7) 1.0959(7) 0.8895(5)
N7A N 1.2185(8) 1.2143(7) 1.0283(6)
C27A C 1.1699(15) 1.2207(14) 1.1118(8)
H25A H 1.1158 1.1883 1.1423
C28A C 1.1944(16) 1.2694(15) 1.1518(10)
H26A H 1.1636 1.2666 1.2095
C29A C 1.2710(13) 1.3267(13) 1.1018(10)
H27A H 1.2861 1.3673 1.1253
C30A C 1.3217(10) 1.3204(9) 1.0187(9)
H28A H 1.3745 1.3537 0.9859
C31A C 1.2919(8) 1.2629(8) 0.9851(7)
C32A C 1.3352(8) 1.2535(8) 0.8964(7)
N8A N 1.2965(6) 1.2053(6) 0.8690(5)
O14A O 1.3090(13) 0.9931(12) 0.9885(12)
Cl4A Cl 1.3884(13) 0.9581(10) 1.0093(9)
O15A O 1.438(2) 1.0268(17) 1.010(3)
O16A O 1.477(2) 0.912(3) 0.943(2)
O17A O 1.411(3) 0.878(3) 1.079(2)
O18A O 1.0294(8) 1.3095(7) 0.9382(6)
C39A C 0.9230(15) 1.3237(16) 0.9356(15)
H41A H 0.9069 1.2596 0.9632
H42A H 0.8704 1.3760 0.9646
H43A H 0.9165 1.3456 0.8772
H47A H 1.0358 1.3660 0.9309
C33A C 1.3476(10) 1.2075(10) 0.7792(7)
C34A C 1.4455(10) 1.2536(12) 0.7613(8)
N9A N 1.4162(8) 1.2893(7) 0.8369(6)
O1A O 1.4649(8) 1.3414(8) 0.8476(6)
C37A C 1.5618(12) 1.1715(18) 0.7592(16)
H35A H 1.5946 1.1621 0.7024
H36A H 1.6089 1.1938 0.7757
H37A H 1.5551 1.1069 0.7982
C38A C 1.4433(18) 1.3462(16) 0.6834(10)
H38A H 1.5087 1.3659 0.6715
H39A H 1.4433 1.3275 0.6350
H40A H 1.3767 1.4036 0.6946
C35A C 1.3896(13) 1.1011(11) 0.7664(9)
H29A H 1.3280 1.0744 0.7842
H30A H 1.4228 1.1037 0.7070
H31A H 1.4450 1.0564 0.7996
C36A C 1.2599(12) 1.2726(13) 0.7321(8)
H32A H 1.2265 1.3392 0.7449
H33A H 1.2918 1.2815 0.6719
H34A H 1.2034 1.2401 0.7482
C24A C 0.7557(9) 1.1478(10) 1.1843(6)
C23A C 0.6842(11) 1.2452(13) 1.1919(10)
C22A C 0.6946(12) 1.2975(12) 1.2362(12)
C21A C 0.7831(12) 1.2481(11) 1.2784(9)
H16A H 0.7930 1.2818 1.3110
C26A C 0.6121(16) 1.4057(13) 1.2444(15)
H22A H 0.6240 1.4235 1.2888
H23A H 0.6245 1.4561 1.1912
H24A H 0.5363 1.4052 1.2583
H17A H 0.6248 1.2761 1.1641
H18A H 0.7452 1.1146 1.1515
C25A C 1.1069(11) 1.1102(11) 1.4546(8)
H19A H 1.1443 1.1601 1.4195
H20A H 1.0409 1.1422 1.4928
H21A H 1.1568 1.0524 1.4871
C12A C 1.1778(9) 0.8072(10) 1.1673(7)
C11A C 1.2521(9) 0.7099(12) 1.1751(8)
C10A C 1.2286(10) 0.6302(11) 1.2384(10)
C9A C 1.1259(9) 0.6518(9) 1.2960(7)
H4A H 1.1069 0.5985 1.3409
C14A C 1.3092(12) 0.5187(12) 1.2449(11)
H10A H 1.3423 0.4962 1.2933
H11A H 1.2685 0.4738 1.2518
H12A H 1.3674 0.5161 1.1938
H5A H 1.3208 0.6979 1.1360
H6A H 1.1962 0.8606 1.1221
C13A C 0.7403(11) 0.6746(10) 1.5388(7)
H7A H 0.7793 0.6043 1.5341
H8A H 0.7482 0.6811 1.5901
H9A H 0.6620 0.6921 1.5407
C40 C 0.889(3) 0.4581(18) 0.110(2)
H44 H 0.8708 0.4024 0.1558
H45 H 0.9654 0.4327 0.0789
H46 H 0.8390 0.4848 0.0720
O19 O 0.8804(15) 0.5296(10) 0.1396(10)
H48 H 0.9296 0.5093 0.1663
Cl1 Cl 0.4009(3) 0.8456(5) 0.5123(3)
O2 O 0.4244(12) 0.8744(15) 0.5703(13)
O3 O 0.2906(9) 0.8742(12) 0.5348(8)
O4 O 0.465(2) 0.753(2) 0.518(2)
O5 O 0.431(2) 0.887(3) 0.4345(15)
Cl2 Cl 0.9941(4) 0.4353(4) 0.3287(4)
O6 O 0.9202(13) 0.4032(11) 0.3103(9)
O7 O 1.009(2) 0.5199(17) 0.2614(14)
O8 O 0.9695(14) 0.4568(12) 0.4047(9)
O9 O 1.0957(19) 0.3618(19) 0.3275(15)
Cl3 Cl 0.5000 0.5000 1.0000
O12 O 0.635(3) 0.473(2) 0.984(4)
O13 O 0.465(3) 0.427(4) 1.0742(16)
O12A O 0.365(3) 0.527(2) 1.016(4)
O13A O 0.535(3) 0.573(4) 0.9258(16)
O20 O 0.250(3) 0.651(3) 0.4671(17)
O21 O 0.405(3) 0.152(3) 0.3007(18)
loop_
_geom_bond_atom_site_label_1
_geom_bond_atom_site_label_2
_geom_bond_site_symmetry_1
_geom_bond_site_symmetry_2
Fe1 N3 1_555 1_555
Cu1 N1 1_555 1_555
O1 N9 1_555 1_555
N1 C1 1_555 1_555
N2 Cu1 1_555 1_555
N3 C3 1_555 1_555
N4 Fe1 1_555 1_555
N5 Fe1 1_555 1_555
N6 Fe1 1_555 1_555
N7 Cu1 1_555 1_555
N8 Cu1 1_555 1_555
N9 C32 1_555 1_555
C1 Fe1 1_555 1_555
C2 Fe1 1_555 1_555
C3 H1 1_555 1_555
C4 C3 1_555 1_555
H2 C4 1_555 1_555
C5 C4 1_555 1_555
C6 C5 1_555 1_555
H3 C6 1_555 1_555
C7 N3 1_555 1_555
C8 N4 1_555 1_555
C9 C8 1_555 1_555
H4 C9 1_555 1_555
C10 C9 1_555 1_555
C11 C10 1_555 1_555
H5 C11 1_555 1_555
C12 N4 1_555 1_555
H6 C12 1_555 1_555
C13 C5 1_555 1_555
H7 C13 1_555 1_555
H8 C13 1_555 1_555
H9 C13 1_555 1_555
C14 C10 1_555 1_555
H10 C14 1_555 1_555
H11 C14 1_555 1_555
H12 C14 1_555 1_555
C15 N5 1_555 1_555
H13 C15 1_555 1_555
C16 C15 1_555 1_555
H14 C16 1_555 1_555
C17 C16 1_555 1_555
C18 C17 1_555 1_555
H15 C18 1_555 1_555
C19 N5 1_555 1_555
C20 N6 1_555 1_555
C21 C20 1_555 1_555
H16 C21 1_555 1_555
C22 C21 1_555 1_555
C23 C22 1_555 1_555
H17 C23 1_555 1_555
C24 N6 1_555 1_555
H18 C24 1_555 1_555
C25 C17 1_555 1_555
H19 C25 1_555 1_555
H20 C25 1_555 1_555
H21 C25 1_555 1_555
C26 C22 1_555 1_555
H22 C26 1_555 1_555
H23 C26 1_555 1_555
H24 C26 1_555 1_555
C27 N7 1_555 1_555
H25 C27 1_555 1_555
C28 C27 1_555 1_555
H26 C28 1_555 1_555
C29 C28 1_555 1_555
H27 C29 1_555 1_555
C30 C29 1_555 1_555
H28 C30 1_555 1_555
C31 N7 1_555 1_555
C32 N8 1_555 1_555
C33 N8 1_555 1_555
C34 N9 1_555 1_555
C35 C33 1_555 1_555
H29 C35 1_555 1_555
H30 C35 1_555 1_555
H31 C35 1_555 1_555
C36 C33 1_555 1_555
H32 C36 1_555 1_555
H33 C36 1_555 1_555
H34 C36 1_555 1_555
C37 C34 1_555 1_555
H35 C37 1_555 1_555
H36 C37 1_555 1_555
H37 C37 1_555 1_555
C38 C34 1_555 1_555
H38 C38 1_555 1_555
H39 C38 1_555 1_555
H40 C38 1_555 1_555
C39 H41 1_555 1_555
H42 C39 1_555 1_555
H43 C39 1_555 1_555
C40 H44 1_555 1_555
H45 C40 1_555 1_555
H46 C40 1_555 1_555
Cl1 O2 1_555 1_555
Cl2 O6 1_555 1_555
Cl3 O12 1_555 1_555
Cl4 O14 1_555 1_555
O3 Cl1 1_555 1_555
O4 Cl1 1_555 1_555
O5 Cl1 1_555 1_555
O7 Cl2 1_555 1_555
O8 Cl2 1_555 1_555
O9 Cl2 1_555 1_555
O13 Cl3 1_555 1_555
O14 Cu1 1_555 1_555
O15 Cl4 1_555 1_555
O16 Cl4 1_555 1_555
O17 Cl4 1_555 1_555
O18 Cu1 1_555 1_555
H47 O18 1_555 1_555
O19 C40 1_555 1_555
H48 O19 1_555 1_555
C2A N2 1_555 1_555
Fe1A C2A 1_555 1_555
N3A Fe1A 1_555 1_555
C3A N3A 1_555 1_555
H1A C3A 1_555 1_555
C4A C3A 1_555 1_555
H2A C4A 1_555 1_555
C5A C4A 1_555 1_555
C6A C5A 1_555 1_555
H3A C6A 1_555 1_555
C7A N3A 1_555 1_555
C8A C7A 1_555 1_555
N4A Fe1A 1_555 1_555
N5A Fe1A 1_555 1_555
C15A N5A 1_555 1_555
H13A C15A 1_555 1_555
C16A C15A 1_555 1_555
H14A C16A 1_555 1_555
C17A C16A 1_555 1_555
C18A C17A 1_555 1_555
H15A C18A 1_555 1_555
C19A N5A 1_555 1_555
C20A C19A 1_555 1_555
N6A Fe1A 1_555 1_555
C1A Fe1A 1_555 1_555
N1A C1A 1_555 1_555
Cu1A N1A 1_555 1_555
N2A C2 1_555 1_555
N7A Cu1A 1_555 1_555
C27A N7A 1_555 1_555
H25A C27A 1_555 1_555
C28A C27A 1_555 1_555
H26A C28A 1_555 1_555
C29A C28A 1_555 1_555
H27A C29A 1_555 1_555
C30A C29A 1_555 1_555
H28A C30A 1_555 1_555
C31A N7A 1_555 1_555
C32A C31A 1_555 1_555
N8A Cu1A 1_555 1_555
O14A Cu1A 1_555 1_555
Cl4A O14A 1_555 1_555
O15A Cl4A 1_555 1_555
O16A Cl4A 1_555 1_555
O17A Cl4A 1_555 1_555
O18A Cu1A 1_555 1_555
C39A O18A 1_555 1_555
H41A C39A 1_555 1_555
H42A C39A 1_555 1_555
H43A C39A 1_555 1_555
H47A O18A 1_555 1_555
C33A N8A 1_555 1_555
C34A C33A 1_555 1_555
N9A C32A 1_555 1_555
O1A N9A 1_555 1_555
C37A C34A 1_555 1_555
H35A C37A 1_555 1_555
H36A C37A 1_555 1_555
H37A C37A 1_555 1_555
C38A C34A 1_555 1_555
H38A C38A 1_555 1_555
H39A C38A 1_555 1_555
H40A C38A 1_555 1_555
C35A C33A 1_555 1_555
H29A C35A 1_555 1_555
H30A C35A 1_555 1_555
H31A C35A 1_555 1_555
C36A C33A 1_555 1_555
H32A C36A 1_555 1_555
H33A C36A 1_555 1_555
H34A C36A 1_555 1_555
C24A N6A 1_555 1_555
C23A C24A 1_555 1_555
C22A C23A 1_555 1_555
C21A C20A 1_555 1_555
H16A C21A 1_555 1_555
C26A C22A 1_555 1_555
H22A C26A 1_555 1_555
H23A C26A 1_555 1_555
H24A C26A 1_555 1_555
H17A C23A 1_555 1_555
H18A C24A 1_555 1_555
C25A C17A 1_555 1_555
H19A C25A 1_555 1_555
H20A C25A 1_555 1_555
H21A C25A 1_555 1_555
C12A N4A 1_555 1_555
C11A C12A 1_555 1_555
C10A C11A 1_555 1_555
C9A C8A 1_555 1_555
H4A C9A 1_555 1_555
C14A C10A 1_555 1_555
H10A C14A 1_555 1_555
H11A C14A 1_555 1_555
H12A C14A 1_555 1_555
H5A C11A 1_555 1_555
H6A C12A 1_555 1_555
C13A C5A 1_555 1_555
H7A C13A 1_555 1_555
H8A C13A 1_555 1_555
H9A C13A 1_555 1_555
O12A Cl3 1_555 1_555
O13A Cl3 1_555 1_555
C6 C7 1_555 1_555
C7 C8 1_555 1_555
C11 C12 1_555 1_555
C18 C19 1_555 1_555
C19 C20 1_555 1_555
C23 C24 1_555 1_555
C30 C31 1_555 1_555
C31 C32 1_555 1_555
C33 C34 1_555 1_555
C39 O18 1_555 1_555
C6A C7A 1_555 1_555
C8A N4A 1_555 1_555
C18A C19A 1_555 1_555
C20A N6A 1_555 1_555
Cu1A N2A 1_555 1_555
C30A C31A 1_555 1_555
C32A N8A 1_555 1_555
C34A N9A 1_555 1_555
C22A C21A 1_555 1_555
C10A C9A 1_555 1_555

#END
