
#######################################################################
#
#                 Cambridge Crystallographic Data Centre
#                                CCDC 
#
#######################################################################
#
# If this CIF has been generated from an entry in the Cambridge 
# Structural Database, then it will include bibliographic, chemical, 
# crystal, experimental, refinement or atomic coordinate data resulting 
# from the CCDC's data processing and validation procedures.
#
#######################################################################

data_AHUBIP
_chemical_formula_moiety         
'C138 H120 N36 Ni4 O6 8+,4(O4 S1 2-),4(C1 H4 O1),22(H2 O1)'
_chemical_name_systematic        
"hexakis(\m~2~-1,3-bis(2,2'-bipyridin-5-ylmethyl)urea)-tetra-nickel(ii) sulfate clathrate trisulfate methanol solvate docosahydrate"
_symmetry_cell_setting           rhombohedral
_symmetry_space_group_name_H-M   'R 3'
_symmetry_Int_Tables_number      146
_space_group_name_Hall           'R 3'
loop_
_symmetry_equiv_pos_site_id
_symmetry_equiv_pos_as_xyz
1 x,y,z
2 -y,x-y,z
3 -x+y,-x,z
4 2/3+x,1/3+y,1/3+z
5 2/3-y,1/3+x-y,1/3+z
6 2/3-x+y,1/3-x,1/3+z
7 1/3+x,2/3+y,2/3+z
8 1/3-y,2/3+x-y,2/3+z
9 1/3-x+y,2/3-x,2/3+z
_cell_length_a                   20.094(2)
_cell_length_b                   20.094(2)
_cell_length_c                   38.045(4)
_cell_angle_alpha                90
_cell_angle_beta                 90
_cell_angle_gamma                120
_cell_volume                     13303.3
_exptl_crystal_colour            orange
_exptl_crystal_description       prism
_cell_formula_units_Z            3
loop_
_atom_site_label
_atom_site_type_symbol
_atom_site_fract_x
_atom_site_fract_y
_atom_site_fract_z
Ni1 Ni 0.0000 0.0000 0.08427(4)
Ni2 Ni -0.37467(6) -0.09822(5) 0.33117(4)
O1 O -0.2498(4) -0.0504(4) 0.1796(2)
O3 O -0.1845(3) -0.2610(3) 0.35514(17)
N1 N 0.0670(4) 0.1004(4) 0.05648(18)
N2 N -0.0171(4) 0.0788(4) 0.11366(17)
N3 N -0.1381(4) 0.0292(5) 0.20789(18)
H1 H -0.1053 0.0350 0.2246
N4 N -0.1983(4) -0.1006(5) 0.2173(2)
H2 H -0.1583 -0.0920 0.2301
N5 N -0.3565(4) -0.1708(4) 0.2996(2)
N6 N -0.4426(4) -0.2029(4) 0.3566(3)
N7 N -0.3901(4) -0.0328(4) 0.3698(3)
N8 N -0.2848(4) -0.0750(4) 0.3651(2)
N9 N -0.1130(4) -0.1332(4) 0.3478(2)
H3 H -0.0822 -0.0961 0.3335
N10 N -0.1389(4) -0.2112(4) 0.30163(19)
H4 H -0.1140 -0.1694 0.2888
N11 N -0.3133(4) -0.0034(4) 0.2983(2)
N12 N -0.4607(4) -0.1081(4) 0.2975(2)
C2 C 0.0705(5) 0.1647(5) 0.0695(2)
C3 C 0.1122(5) 0.1102(6) 0.0291(2)
H5 H 0.1116 0.0661 0.0197
C4 C 0.1599(5) 0.1800(6) 0.0134(3)
H6 H 0.1906 0.1837 -0.0063
C5 C 0.1616(6) 0.2436(6) 0.0270(3)
H7 H 0.1933 0.2926 0.0167
C6 C 0.1168(5) 0.2366(5) 0.0560(2)
H8 H 0.1182 0.2804 0.0663
C7 C 0.0207(5) 0.1516(5) 0.1005(2)
C8 C -0.0620(5) 0.0635(4) 0.14154(19)
H9 H -0.0870 0.0126 0.1505
C9 C -0.0748(5) 0.1175(6) 0.1584(2)
C10 C -0.0372(5) 0.1911(5) 0.1441(2)
H10 H -0.0450 0.2299 0.1543
C11 C 0.0096(6) 0.2087(5) 0.1163(2)
H11 H 0.0354 0.2596 0.1073
C12 C -0.1271(6) 0.0965(5) 0.1884(2)
H12 H -0.1070 0.1408 0.2047
H13 H -0.1777 0.0867 0.1798
C14 C -0.1969(6) -0.0414(6) 0.2010(2)
C15 C -0.2618(5) -0.1784(5) 0.2150(3)
H14 H -0.2420 -0.2135 0.2094
H15 H -0.2966 -0.1819 0.1958
C16 C -0.3918(5) -0.2444(4) 0.3108(3)
C17 C -0.3162(5) -0.1526(5) 0.2702(3)
H16 H -0.2919 -0.1006 0.2627
C18 C -0.3072(5) -0.2037(5) 0.2500(3)
C19 C -0.3416(6) -0.2772(6) 0.2605(3)
H17 H -0.3355 -0.3139 0.2472
C20 C -0.3846(6) -0.2989(6) 0.2897(4)
H18 H -0.4107 -0.3514 0.2964
C21 C -0.4398(5) -0.2625(5) 0.3425(3)
C22 C -0.4826(6) -0.2137(6) 0.3864(3)
H19 H -0.4825 -0.1706 0.3967
C23 C -0.5253(7) -0.2867(6) 0.4034(4)
H20 H -0.5546 -0.2935 0.4241
C24 C -0.5212(7) -0.3436(7) 0.3888(4)
H21 H -0.5464 -0.3924 0.4000
C25 C -0.4820(7) -0.3358(6) 0.3579(5)
H22 H -0.4835 -0.3792 0.3471
C26 C -0.3408(6) -0.0112(5) 0.3969(3)
C27 C -0.4458(6) -0.0123(5) 0.3676(3)
H23 H -0.4777 -0.0265 0.3474
C28 C -0.4563(7) 0.0280(6) 0.3940(4)
H24 H -0.4941 0.0431 0.3927
C29 C -0.4071(9) 0.0454(8) 0.4230(4)
H25 H -0.4150 0.0690 0.4430
C30 C -0.3484(7) 0.0297(7) 0.4238(3)
H26 H -0.3131 0.0471 0.4429
C31 C -0.2833(6) -0.0350(5) 0.3947(3)
C32 C -0.2334(5) -0.0986(4) 0.3628(2)
H27 H -0.2358 -0.1278 0.3427
C33 C -0.1770(5) -0.0841(5) 0.3873(3)
C34 C -0.1735(8) -0.0404(8) 0.4168(3)
H28 H -0.1348 -0.0272 0.4341
C35 C -0.2287(6) -0.0163(7) 0.4203(3)
H29 H -0.2277 0.0126 0.4402
C36 C -0.1236(6) -0.1129(6) 0.3837(3)
H30 H -0.1418 -0.1590 0.3987
H31 H -0.0729 -0.0733 0.3928
C37 C -0.1474(4) -0.2039(4) 0.3362(2)
C38 C -0.1697(5) -0.2867(5) 0.2845(2)
H32 H -0.1903 -0.2844 0.2611
H33 H -0.2131 -0.3255 0.2987
C39 C -0.3555(5) 0.0064(4) 0.2730(3)
C40 C -0.2378(4) 0.0472(4) 0.3005(2)
H34 H -0.2086 0.0376 0.3173
C41 C -0.1129(4) -0.3123(5) 0.2798(2)
C42 C -0.1206(5) -0.3656(5) 0.2545(3)
H35 H -0.1637 -0.3856 0.2392
C43 C -0.3205(5) 0.0698(5) 0.2508(3)
H36 H -0.3495 0.0773 0.2332
C44 C -0.4357(6) -0.0518(5) 0.2717(3)
C45 C -0.5320(6) -0.1649(6) 0.2987(4)
H37 H -0.5480 -0.2041 0.3160
C46 C -0.5854(8) -0.1663(7) 0.2729(4)
H38 H -0.6378 -0.2059 0.2736
C47 C -0.5598(8) -0.1085(7) 0.2466(4)
H39 H -0.5946 -0.1100 0.2293
C48 C -0.4877(6) -0.0529(6) 0.2464(3)
H40 H -0.4705 -0.0134 0.2292
Ni2B Ni 0.27645(8) 0.37467(6) 0.33117(4)
Ni2A Ni 0.09822(5) -0.27645(8) 0.33117(4)
O1B O 0.1994(6) 0.2498(4) 0.1796(2)
O1A O 0.0504(4) -0.1994(6) 0.1796(2)
O3A O 0.2610(3) 0.0765(4) 0.35514(17)
O3B O -0.0765(4) 0.1845(3) 0.35514(17)
N1A N -0.1004(4) -0.0334(6) 0.05648(18)
N1B N 0.0334(6) -0.0670(4) 0.05648(18)
N2A N -0.0788(4) -0.0959(6) 0.11366(17)
N2B N 0.0959(6) 0.0171(4) 0.11366(17)
N3B N 0.1673(6) 0.1381(4) 0.20789(18)
N3A N -0.0292(5) -0.1673(6) 0.20789(18)
H1B H 0.1403 0.1053 0.2246
H1A H -0.0350 -0.1403 0.2246
N4B N 0.0977(6) 0.1983(4) 0.2173(2)
N4A N 0.1006(5) -0.0977(6) 0.2173(2)
H2B H 0.0663 0.1583 0.2301
H2A H 0.0920 -0.0663 0.2301
N5B N 0.1857(6) 0.3565(4) 0.2996(2)
N5A N 0.1708(4) -0.1857(6) 0.2996(2)
N6B N 0.2397(6) 0.4426(4) 0.3566(3)
N6A N 0.2029(4) -0.2397(6) 0.3566(3)
N7B N 0.3573(6) 0.3901(4) 0.3698(3)
N7A N 0.0328(4) -0.3573(6) 0.3698(3)
N8B N 0.2098(6) 0.2848(4) 0.3651(2)
N8A N 0.0750(4) -0.2098(6) 0.3651(2)
N9A N 0.1332(4) 0.0202(6) 0.3478(2)
N9B N -0.0202(6) 0.1130(4) 0.3478(2)
H3A H 0.0961 0.0139 0.3335
H3B H -0.0139 0.0822 0.3335
N10A N 0.2112(4) 0.0723(6) 0.30163(19)
N10B N -0.0723(6) 0.1389(4) 0.30163(19)
H4A H 0.1694 0.0554 0.2888
H4B H -0.0554 0.1140 0.2888
N11B N 0.3099(6) 0.3133(4) 0.2983(2)
N11A N 0.0034(4) -0.3099(6) 0.2983(2)
N12A N 0.1081(4) -0.3526(6) 0.2975(2)
N12B N 0.3526(6) 0.4607(4) 0.2975(2)
C2A C -0.1647(5) -0.0942(7) 0.0695(2)
C2B C 0.0942(7) -0.0705(5) 0.0695(2)
C3A C -0.1102(6) 0.0020(8) 0.0291(2)
C3B C -0.0020(8) -0.1122(5) 0.0291(2)
H5A H -0.0661 0.0455 0.0197
H5B H -0.0455 -0.1116 0.0197
C4A C -0.1800(6) -0.0201(8) 0.0134(3)
C4B C 0.0201(8) -0.1599(5) 0.0134(3)
H6A H -0.1837 0.0069 -0.0063
H6B H -0.0069 -0.1906 -0.0063
C5A C -0.2436(6) -0.0820(8) 0.0270(3)
C5B C 0.0820(8) -0.1616(6) 0.0270(3)
H7A H -0.2926 -0.0993 0.0167
H7B H 0.0993 -0.1933 0.0167
C6A C -0.2366(5) -0.1198(7) 0.0560(2)
C6B C 0.1198(7) -0.1168(5) 0.0560(2)
H8A H -0.2804 -0.1622 0.0663
H8B H 0.1622 -0.1182 0.0663
C7A C -0.1516(5) -0.1309(7) 0.1005(2)
C7B C 0.1309(7) -0.0207(5) 0.1005(2)
C8B C 0.1255(6) 0.0620(5) 0.14154(19)
C8A C -0.0635(4) -0.1255(6) 0.14154(19)
H9B H 0.0996 0.0870 0.1505
H9A H -0.0126 -0.0996 0.1505
C9B C 0.1923(8) 0.0748(5) 0.1584(2)
C9A C -0.1175(6) -0.1923(8) 0.1584(2)
C10B C 0.2283(7) 0.0372(5) 0.1441(2)
C10A C -0.1911(5) -0.2283(7) 0.1441(2)
H10B H 0.2749 0.0450 0.1543
H10A H -0.2299 -0.2749 0.1543
C11B C 0.1991(8) -0.0096(6) 0.1163(2)
C11A C -0.2087(5) -0.1991(8) 0.1163(2)
H11B H 0.2242 -0.0354 0.1073
H11A H -0.2596 -0.2242 0.1073
C12B C 0.2236(8) 0.1271(6) 0.1884(2)
C12A C -0.0965(5) -0.2236(8) 0.1884(2)
H12A H -0.1408 -0.2478 0.2047
H12B H 0.2478 0.1070 0.2047
H13A H -0.0867 -0.2644 0.1798
H13B H 0.2644 0.1777 0.1798
C14B C 0.1555(8) 0.1969(6) 0.2010(2)
C14A C 0.0414(6) -0.1555(8) 0.2010(2)
C15B C 0.0834(7) 0.2618(5) 0.2150(3)
C15A C 0.1784(5) -0.0834(7) 0.2150(3)
H14B H 0.0285 0.2420 0.2094
H14A H 0.2135 -0.0285 0.2094
H15B H 0.1147 0.2966 0.1958
H15A H 0.1819 -0.1147 0.1958
C16B C 0.1474(6) 0.3918(5) 0.3108(3)
C16A C 0.2444(4) -0.1474(6) 0.3108(3)
C17B C 0.1636(7) 0.3162(5) 0.2702(3)
C17A C 0.1526(5) -0.1636(7) 0.2702(3)
H16A H 0.1006 -0.1913 0.2627
H16B H 0.1913 0.2919 0.2627
C18B C 0.1035(7) 0.3072(5) 0.2500(3)
C18A C 0.2037(5) -0.1035(7) 0.2500(3)
C19B C 0.0644(8) 0.3416(6) 0.2605(3)
C19A C 0.2772(6) -0.0644(8) 0.2605(3)
H17B H 0.0216 0.3355 0.2472
H17A H 0.3139 -0.0216 0.2472
C20B C 0.0857(8) 0.3846(6) 0.2897(4)
C20A C 0.2989(6) -0.0857(8) 0.2897(4)
H18B H 0.0593 0.4107 0.2964
H18A H 0.3514 -0.0593 0.2964
C21B C 0.1773(7) 0.4398(5) 0.3425(3)
C21A C 0.2625(5) -0.1773(7) 0.3425(3)
C22B C 0.2689(8) 0.4826(6) 0.3864(3)
C22A C 0.2137(6) -0.2689(8) 0.3864(3)
H19B H 0.3119 0.4825 0.3967
H19A H 0.1706 -0.3119 0.3967
C23B C 0.2386(9) 0.5253(7) 0.4034(4)
C23A C 0.2867(6) -0.2386(9) 0.4034(4)
H20B H 0.2611 0.5546 0.4241
H20A H 0.2935 -0.2611 0.4241
C24B C 0.1776(10) 0.5212(7) 0.3888(4)
C24A C 0.3436(7) -0.1776(10) 0.3888(4)
H21B H 0.1540 0.5464 0.4000
H21A H 0.3924 -0.1540 0.4000
C25B C 0.1462(9) 0.4820(7) 0.3579(5)
C25A C 0.3358(6) -0.1462(9) 0.3579(5)
H22B H 0.1043 0.4835 0.3471
H22A H 0.3792 -0.1043 0.3471
C26B C 0.3296(8) 0.3408(6) 0.3969(3)
C26A C 0.0112(5) -0.3296(8) 0.3969(3)
C27B C 0.4335(8) 0.4458(6) 0.3676(3)
C27A C 0.0123(5) -0.4335(8) 0.3676(3)
H23B H 0.4512 0.4777 0.3474
H23A H 0.0265 -0.4512 0.3474
C28B C 0.4843(9) 0.4563(7) 0.3940(4)
C28A C -0.0280(6) -0.4843(9) 0.3940(4)
H24B H 0.5372 0.4941 0.3927
H24A H -0.0431 -0.5372 0.3927
C29B C 0.4525(12) 0.4071(9) 0.4230(4)
C29A C -0.0454(8) -0.4525(12) 0.4230(4)
H25B H 0.4840 0.4150 0.4430
H25A H -0.0690 -0.4840 0.4430
C30B C 0.3781(10) 0.3484(7) 0.4238(3)
C30A C -0.0297(7) -0.3781(10) 0.4238(3)
H26B H 0.3602 0.3131 0.4429
H26A H -0.0471 -0.3602 0.4429
C31B C 0.2483(8) 0.2833(6) 0.3947(3)
C31A C 0.0350(5) -0.2483(8) 0.3947(3)
C32A C 0.0986(4) -0.1348(6) 0.3628(2)
C32B C 0.1348(6) 0.2334(5) 0.3628(2)
H27B H 0.1080 0.2358 0.3427
H27A H 0.1278 -0.1080 0.3427
C33A C 0.0841(5) -0.0929(7) 0.3873(3)
C33B C 0.0929(7) 0.1770(5) 0.3873(3)
C34A C 0.0404(8) -0.1331(11) 0.4168(3)
C34B C 0.1331(11) 0.1735(8) 0.4168(3)
H28A H 0.0272 -0.1076 0.4341
H28B H 0.1076 0.1348 0.4341
C35A C 0.0163(7) -0.2124(9) 0.4203(3)
C35B C 0.2124(9) 0.2287(6) 0.4203(3)
H29A H -0.0126 -0.2403 0.4402
H29B H 0.2403 0.2277 0.4402
C36A C 0.1129(6) -0.0107(8) 0.3837(3)
C36B C 0.0107(8) 0.1236(6) 0.3837(3)
H30B H -0.0172 0.1418 0.3987
H30A H 0.1590 0.0172 0.3987
H31B H -0.0004 0.0729 0.3928
H31A H 0.0733 0.0004 0.3928
C37A C 0.2039(4) 0.0565(6) 0.3362(2)
C37B C -0.0565(6) 0.1474(4) 0.3362(2)
C38A C 0.2867(5) 0.1170(7) 0.2845(2)
C38B C -0.1170(7) 0.1697(5) 0.2845(2)
H32B H -0.0941 0.1903 0.2611
H32A H 0.2844 0.0941 0.2611
H33B H -0.1124 0.2131 0.2987
H33A H 0.3255 0.1124 0.2987
C39B C 0.3619(6) 0.3555(5) 0.2730(3)
C39A C -0.0064(4) -0.3619(6) 0.2730(3)
C40A C -0.0472(4) -0.2850(6) 0.3005(2)
C40B C 0.2850(6) 0.2378(4) 0.3005(2)
H34A H -0.0376 -0.2462 0.3173
H34B H 0.2462 0.2086 0.3173
C41A C 0.3123(5) 0.1994(6) 0.2798(2)
C41B C -0.1994(6) 0.1129(4) 0.2798(2)
C42A C 0.3656(5) 0.2450(7) 0.2545(3)
C42B C -0.2450(7) 0.1206(5) 0.2545(3)
H35B H -0.2219 0.1637 0.2392
H35A H 0.3856 0.2219 0.2392
C43B C 0.3903(7) 0.3205(5) 0.2508(3)
C43A C -0.0698(5) -0.3903(7) 0.2508(3)
H36A H -0.0773 -0.4268 0.2332
H36B H 0.4268 0.3495 0.2332
C44A C 0.0518(5) -0.3839(8) 0.2717(3)
C44B C 0.3839(8) 0.4357(6) 0.2717(3)
C45A C 0.1649(6) -0.3671(8) 0.2987(4)
C45B C 0.3671(8) 0.5320(6) 0.2987(4)
H37A H 0.2041 -0.3439 0.3160
H37B H 0.3439 0.5480 0.3160
C46A C 0.1663(7) -0.4191(11) 0.2729(4)
C46B C 0.4191(11) 0.5854(8) 0.2729(4)
H38A H 0.2059 -0.4319 0.2736
H38B H 0.4319 0.6378 0.2736
C47A C 0.1085(7) -0.4513(11) 0.2466(4)
C47B C 0.4513(11) 0.5598(8) 0.2466(4)
H39A H 0.1100 -0.4846 0.2293
H39B H 0.4846 0.5946 0.2293
C48A C 0.0529(6) -0.4348(8) 0.2464(3)
C48B C 0.4348(8) 0.4877(6) 0.2464(3)
H40A H 0.0134 -0.4571 0.2292
H40B H 0.4571 0.4705 0.2292
S1 S 0.0000 0.0000 0.26908(8)
O5 O 0.0000 0.0000 0.3070(2)
O7 O 0.0749(3) 0.0136(3) 0.25615(14)
O7A O -0.0136(3) 0.0613(4) 0.25615(14)
O7B O -0.0613(4) -0.0749(3) 0.25615(14)
S2 S -0.44380(15) -0.27903(14) 0.62181(8)
O9 O -0.5153(6) -0.3421(5) 0.6365(3)
O11 O -0.4223(5) -0.3149(6) 0.5966(3)
O13 O -0.3885(5) -0.2485(4) 0.6506(2)
O15 O -0.4630(5) -0.2255(5) 0.6100(3)
O2 O -0.4261(9) -0.3733(12) 0.5386(4)
O4 O -0.6260(5) -0.4072(5) 0.5912(3)
O6 O -0.5881(12) -0.4525(11) 0.4830(5)
C1 C -0.6327(10) -0.4645(14) 0.4531(5)
O8 O -0.3882(11) -0.0671(18) 0.1795(4)
O10 O -0.6659(10) -0.1259(12) 0.1508(3)
O12 O -0.7427(12) -0.2527(9) 0.2195(4)
O14 O -0.6667 -0.3333 0.5038(3)
O16 O -0.3793(9) -0.3209(11) 0.4310(4)
O17 O -0.3349(5) -0.3631(6) 0.3697(2)
O18 O 0.0000 0.0000 0.4611(5)
C13 C 0.0000 0.0000 0.4990(5)
loop_
_geom_bond_atom_site_label_1
_geom_bond_atom_site_label_2
_geom_bond_site_symmetry_1
_geom_bond_site_symmetry_2
Ni1 N1 1_555 1_555
Ni2 N5 1_555 1_555
S1 O5 1_555 1_555
S2 O9 1_555 1_555
O1 C14 1_555 1_555
O3 C37 1_555 1_555
O6 C1 1_555 1_555
O7 S1 1_555 1_555
O11 S2 1_555 1_555
O13 S2 1_555 1_555
O15 S2 1_555 1_555
O18 C13 1_555 1_555
N1 C2 1_555 1_555
N2 Ni1 1_555 1_555
N3 H1 1_555 1_555
N4 H2 1_555 1_555
N5 C16 1_555 1_555
N6 Ni2 1_555 1_555
N7 Ni2 1_555 1_555
N8 Ni2 1_555 1_555
N9 H3 1_555 1_555
N10 H4 1_555 1_555
N11 Ni2 1_555 1_555
N12 Ni2 1_555 1_555
C2 C6 1_555 1_555
C3 N1 1_555 1_555
H5 C3 1_555 1_555
C4 C3 1_555 1_555
H6 C4 1_555 1_555
C5 C4 1_555 1_555
H7 C5 1_555 1_555
C6 C5 1_555 1_555
H8 C6 1_555 1_555
C7 N2 1_555 1_555
C8 N2 1_555 1_555
H9 C8 1_555 1_555
C9 C8 1_555 1_555
C10 C9 1_555 1_555
H10 C10 1_555 1_555
C11 C7 1_555 1_555
H11 C11 1_555 1_555
C12 N3 1_555 1_555
H12 C12 1_555 1_555
H13 C12 1_555 1_555
C14 N3 1_555 1_555
C15 N4 1_555 1_555
H14 C15 1_555 1_555
H15 C15 1_555 1_555
C16 C20 1_555 1_555
C17 N5 1_555 1_555
H16 C17 1_555 1_555
C18 C15 1_555 1_555
C19 C18 1_555 1_555
H17 C19 1_555 1_555
C20 C19 1_555 1_555
H18 C20 1_555 1_555
C21 N6 1_555 1_555
C22 N6 1_555 1_555
H19 C22 1_555 1_555
C23 C22 1_555 1_555
H20 C23 1_555 1_555
C24 C23 1_555 1_555
H21 C24 1_555 1_555
C25 C21 1_555 1_555
H22 C25 1_555 1_555
C26 N7 1_555 1_555
C27 N7 1_555 1_555
H23 C27 1_555 1_555
C28 C27 1_555 1_555
H24 C28 1_555 1_555
C29 C28 1_555 1_555
H25 C29 1_555 1_555
C30 C26 1_555 1_555
H26 C30 1_555 1_555
C31 N8 1_555 1_555
C32 N8 1_555 1_555
H27 C32 1_555 1_555
C33 C32 1_555 1_555
C34 C33 1_555 1_555
H28 C34 1_555 1_555
C35 C31 1_555 1_555
H29 C35 1_555 1_555
C36 N9 1_555 1_555
H30 C36 1_555 1_555
H31 C36 1_555 1_555
C37 N9 1_555 1_555
C38 N10 1_555 1_555
H32 C38 1_555 1_555
H33 C38 1_555 1_555
C39 N11 1_555 1_555
C40 N11 1_555 1_555
H34 C40 1_555 1_555
C41 C38 1_555 1_555
C42 C41 1_555 1_555
H35 C42 1_555 1_555
C43 C39 1_555 1_555
H36 C43 1_555 1_555
C44 N12 1_555 1_555
C45 N12 1_555 1_555
H37 C45 1_555 1_555
C46 C45 1_555 1_555
H38 C46 1_555 1_555
C47 C46 1_555 1_555
H39 C47 1_555 1_555
C48 C44 1_555 1_555
H40 C48 1_555 1_555
Ni2B N5B 1_555 1_555
Ni2A N5A 1_555 1_555
O1B C14B 1_555 1_555
O1A C14A 1_555 1_555
O3A C37A 1_555 1_555
O3B C37B 1_555 1_555
O7A S1 1_555 1_555
O7B S1 1_555 1_555
N1A Ni1 1_555 1_555
N1B Ni1 1_555 1_555
N2A Ni1 1_555 1_555
N2B Ni1 1_555 1_555
N3B H1B 1_555 1_555
N3A H1A 1_555 1_555
N4B H2B 1_555 1_555
N4A H2A 1_555 1_555
N5B C16B 1_555 1_555
N5A C16A 1_555 1_555
N6B Ni2B 1_555 1_555
N6A Ni2A 1_555 1_555
N7B Ni2B 1_555 1_555
N7A Ni2A 1_555 1_555
N8B Ni2B 1_555 1_555
N8A Ni2A 1_555 1_555
N9A H3A 1_555 1_555
N9B H3B 1_555 1_555
N10A H4A 1_555 1_555
N10B H4B 1_555 1_555
N11B Ni2B 1_555 1_555
N11A Ni2A 1_555 1_555
N12A Ni2A 1_555 1_555
N12B Ni2B 1_555 1_555
C2A N1A 1_555 1_555
C2B N1B 1_555 1_555
C3A N1A 1_555 1_555
C3B N1B 1_555 1_555
H5A C3A 1_555 1_555
H5B C3B 1_555 1_555
C4A C3A 1_555 1_555
C4B C3B 1_555 1_555
H6A C4A 1_555 1_555
H6B C4B 1_555 1_555
C5A C4A 1_555 1_555
C5B C4B 1_555 1_555
H7A C5A 1_555 1_555
H7B C5B 1_555 1_555
C6A C2A 1_555 1_555
C6B C2B 1_555 1_555
H8A C6A 1_555 1_555
H8B C6B 1_555 1_555
C7A N2A 1_555 1_555
C7B N2B 1_555 1_555
C8B N2B 1_555 1_555
C8A N2A 1_555 1_555
H9B C8B 1_555 1_555
H9A C8A 1_555 1_555
C9B C8B 1_555 1_555
C9A C8A 1_555 1_555
C10B C9B 1_555 1_555
C10A C9A 1_555 1_555
H10B C10B 1_555 1_555
H10A C10A 1_555 1_555
C11B C7B 1_555 1_555
C11A C7A 1_555 1_555
H11B C11B 1_555 1_555
H11A C11A 1_555 1_555
C12B N3B 1_555 1_555
C12A N3A 1_555 1_555
H12A C12A 1_555 1_555
H12B C12B 1_555 1_555
H13A C12A 1_555 1_555
H13B C12B 1_555 1_555
C14B N3B 1_555 1_555
C14A N3A 1_555 1_555
C15B N4B 1_555 1_555
C15A N4A 1_555 1_555
H14B C15B 1_555 1_555
H14A C15A 1_555 1_555
H15B C15B 1_555 1_555
H15A C15A 1_555 1_555
C16B C20B 1_555 1_555
C16A C20A 1_555 1_555
C17B N5B 1_555 1_555
C17A N5A 1_555 1_555
H16A C17A 1_555 1_555
H16B C17B 1_555 1_555
C18B C15B 1_555 1_555
C18A C15A 1_555 1_555
C19B C18B 1_555 1_555
C19A C18A 1_555 1_555
H17B C19B 1_555 1_555
H17A C19A 1_555 1_555
C20B C19B 1_555 1_555
C20A C19A 1_555 1_555
H18B C20B 1_555 1_555
H18A C20A 1_555 1_555
C21B N6B 1_555 1_555
C21A N6A 1_555 1_555
C22B N6B 1_555 1_555
C22A N6A 1_555 1_555
H19B C22B 1_555 1_555
H19A C22A 1_555 1_555
C23B C22B 1_555 1_555
C23A C22A 1_555 1_555
H20B C23B 1_555 1_555
H20A C23A 1_555 1_555
C24B C23B 1_555 1_555
C24A C23A 1_555 1_555
H21B C24B 1_555 1_555
H21A C24A 1_555 1_555
C25B C21B 1_555 1_555
C25A C21A 1_555 1_555
H22B C25B 1_555 1_555
H22A C25A 1_555 1_555
C26B N7B 1_555 1_555
C26A N7A 1_555 1_555
C27B N7B 1_555 1_555
C27A N7A 1_555 1_555
H23B C27B 1_555 1_555
H23A C27A 1_555 1_555
C28B C27B 1_555 1_555
C28A C27A 1_555 1_555
H24B C28B 1_555 1_555
H24A C28A 1_555 1_555
C29B C28B 1_555 1_555
C29A C28A 1_555 1_555
H25B C29B 1_555 1_555
H25A C29A 1_555 1_555
C30B C26B 1_555 1_555
C30A C26A 1_555 1_555
H26B C30B 1_555 1_555
H26A C30A 1_555 1_555
C31B N8B 1_555 1_555
C31A N8A 1_555 1_555
C32A N8A 1_555 1_555
C32B N8B 1_555 1_555
H27B C32B 1_555 1_555
H27A C32A 1_555 1_555
C33A C32A 1_555 1_555
C33B C32B 1_555 1_555
C34A C33A 1_555 1_555
C34B C33B 1_555 1_555
H28A C34A 1_555 1_555
H28B C34B 1_555 1_555
C35A C31A 1_555 1_555
C35B C31B 1_555 1_555
H29A C35A 1_555 1_555
H29B C35B 1_555 1_555
C36A N9A 1_555 1_555
C36B N9B 1_555 1_555
H30B C36B 1_555 1_555
H30A C36A 1_555 1_555
H31B C36B 1_555 1_555
H31A C36A 1_555 1_555
C37A N9A 1_555 1_555
C37B N9B 1_555 1_555
C38A N10A 1_555 1_555
C38B N10B 1_555 1_555
H32B C38B 1_555 1_555
H32A C38A 1_555 1_555
H33B C38B 1_555 1_555
H33A C38A 1_555 1_555
C39B N11B 1_555 1_555
C39A N11A 1_555 1_555
C40A C41 1_555 1_555
C40B N11B 1_555 1_555
H34A C40A 1_555 1_555
H34B C40B 1_555 1_555
C41A C38A 1_555 1_555
C41B C40 1_555 1_555
C42A C41A 1_555 1_555
C42B C43 1_555 1_555
H35B C42B 1_555 1_555
H35A C42A 1_555 1_555
C43B C39B 1_555 1_555
C43A C42 1_555 1_555
H36A C43A 1_555 1_555
H36B C43B 1_555 1_555
C44A N12A 1_555 1_555
C44B N12B 1_555 1_555
C45A N12A 1_555 1_555
C45B N12B 1_555 1_555
H37A C45A 1_555 1_555
H37B C45B 1_555 1_555
C46A C45A 1_555 1_555
C46B C45B 1_555 1_555
H38A C46A 1_555 1_555
H38B C46B 1_555 1_555
C47A C46A 1_555 1_555
C47B C46B 1_555 1_555
H39A C47A 1_555 1_555
H39B C47B 1_555 1_555
C48A C44A 1_555 1_555
C48B C44B 1_555 1_555
H40A C48A 1_555 1_555
H40B C48B 1_555 1_555
N4 C14 1_555 1_555
N10 C37 1_555 1_555
C2 C7 1_555 1_555
C9 C12 1_555 1_555
C10 C11 1_555 1_555
C16 C21 1_555 1_555
C17 C18 1_555 1_555
C24 C25 1_555 1_555
C26 C31 1_555 1_555
C29 C30 1_555 1_555
C33 C36 1_555 1_555
C34 C35 1_555 1_555
C39 C44 1_555 1_555
C47 C48 1_555 1_555
N4B C14B 1_555 1_555
N4A C14A 1_555 1_555
N10A C37A 1_555 1_555
N10B C37B 1_555 1_555
N11A C40A 1_555 1_555
C2A C7A 1_555 1_555
C2B C7B 1_555 1_555
C5A C6A 1_555 1_555
C5B C6B 1_555 1_555
C9B C12B 1_555 1_555
C9A C12A 1_555 1_555
C10B C11B 1_555 1_555
C10A C11A 1_555 1_555
C16B C21B 1_555 1_555
C16A C21A 1_555 1_555
C17B C18B 1_555 1_555
C17A C18A 1_555 1_555
C24B C25B 1_555 1_555
C24A C25A 1_555 1_555
C26B C31B 1_555 1_555
C26A C31A 1_555 1_555
C29B C30B 1_555 1_555
C29A C30A 1_555 1_555
C33A C36A 1_555 1_555
C33B C36B 1_555 1_555
C34A C35A 1_555 1_555
C34B C35B 1_555 1_555
C38B C41B 1_555 1_555
C39B C44B 1_555 1_555
C39A C43A 1_555 1_555
C39A C44A 1_555 1_555
C40B C41A 1_555 1_555
C41B C42B 1_555 1_555
C42A C43B 1_555 1_555
C47A C48A 1_555 1_555
C47B C48B 1_555 1_555

#END
