
#######################################################################
#
#                 Cambridge Crystallographic Data Centre
#                                CCDC 
#
#######################################################################
#
# If this CIF has been generated from an entry in the Cambridge 
# Structural Database, then it will include bibliographic, chemical, 
# crystal, experimental, refinement or atomic coordinate data resulting 
# from the CCDC's data processing and validation procedures.
#
#######################################################################

data_AJAREI
_chemical_formula_moiety         
'C100 H128 N32 Pd8 16+,C1 Br4,16(N1 O3 1-),25(H2 O1)'
_chemical_name_systematic        
'tetrakis(\m~4~-1-(2-Methyl-5-pyrimidinyl)-3,5-bis(3-pyridyl)benzene)-octakis((1,2-diaminoethane)-palladium) tetrabromomethane clathrate hexadecanitrate hydrate'
_symmetry_cell_setting           monoclinic
_symmetry_space_group_name_H-M   'C 2/c'
_symmetry_Int_Tables_number      15
_space_group_name_Hall           '-C 2yn'
loop_
_symmetry_equiv_pos_site_id
_symmetry_equiv_pos_as_xyz
1 x,y,z
2 1/2+x,1/2+y,z
3 x,-y,1/2+z
4 1/2+x,1/2-y,1/2+z
5 -x,-y,-z
6 1/2-x,1/2-y,-z
7 -x,y,1/2-z
8 1/2-x,1/2+y,1/2-z
_cell_length_a                   31.439(4)
_cell_length_b                   44.137(6)
_cell_length_c                   27.987(4)
_cell_angle_alpha                90
_cell_angle_beta                 107.253(3)
_cell_angle_gamma                90
_cell_volume                     37088
_cell_formula_units_Z            8
loop_
_atom_site_label
_atom_site_type_symbol
_atom_site_fract_x
_atom_site_fract_y
_atom_site_fract_z
Pd1 Pd 0.29735(6) -0.03802(3) 0.24205(6)
Pd2 Pd 0.39489(6) 0.07832(4) 0.08903(6)
Pd3 Pd 0.19309(7) 0.02030(4) 0.36360(7)
Pd4 Pd 0.02864(5) 0.14276(3) -0.06408(5)
Pd5 Pd -0.01283(5) 0.23633(3) 0.06764(5)
Pd6 Pd 0.26475(5) 0.14031(3) -0.07976(5)
Pd7 Pd 0.24856(5) 0.17965(3) 0.44621(5)
Pd8 Pd 0.17262(5) 0.27416(3) 0.29407(5)
C2 C 0.2284(6) 0.2123(4) 0.0581(6)
C3 C 0.2446(6) 0.2258(4) 0.1039(6)
H1 H 0.2750 0.2294 0.1174
C4 C 0.2141(5) 0.2342(4) 0.1308(5)
C5 C 0.1721(5) 0.2248(4) 0.1118(6)
H2 H 0.1538 0.2271 0.1322
C6 C 0.1516(6) 0.2112(4) 0.0628(6)
C7 C 0.1826(5) 0.2066(3) 0.0379(6)
H3 H 0.1726 0.1991 0.0054
N15 N 0.2776(5) 0.1756(3) -0.0332(5)
C8 C 0.2507(6) 0.1824(4) -0.0052(6)
H4 H 0.2255 0.1706 -0.0083
C9 C 0.2599(6) 0.2069(4) 0.0289(6)
C10 C 0.2931(6) 0.2265(4) 0.0302(6)
H5 H 0.2970 0.2440 0.0496
C11 C 0.3217(7) 0.2195(4) 0.0010(7)
H6 H 0.3464 0.2314 0.0019
C12 C 0.3104(6) 0.1930(4) -0.0303(6)
H7 H 0.3287 0.1882 -0.0499
N16 N 0.2184(5) 0.2674(3) 0.2567(5)
C13 C 0.2050(7) 0.2528(4) 0.2129(7)
H8 H 0.1762 0.2450 0.2028
C14 C 0.2311(6) 0.2486(4) 0.1818(7)
C15 C 0.2716(7) 0.2600(5) 0.1995(7)
H9 H 0.2905 0.2592 0.1796
C16 C 0.2870(6) 0.2731(5) 0.2459(8)
H10 H 0.3167 0.2786 0.2590
C17 C 0.2576(6) 0.2777(5) 0.2721(6)
H11 H 0.2665 0.2886 0.3019
N17 N 0.0490(5) 0.1778(3) -0.0108(4)
N18 N 0.0304(4) 0.2142(3) 0.0382(5)
C18 C 0.1062(6) 0.2039(4) 0.0426(7)
C19 C 0.0922(6) 0.1817(4) 0.0091(6)
H12 H 0.1125 0.1694 0.0000
C20 C 0.0176(5) 0.1929(4) 0.0012(6)
C21 C 0.0715(6) 0.2201(4) 0.0578(6)
H13 H 0.0797 0.2350 0.0823
C22 C -0.0280(6) 0.1880(4) -0.0214(6)
H14 H -0.0449 0.2015 -0.0073
H15 H -0.0352 0.1674 -0.0158
H16 H -0.0350 0.1916 -0.0567
C23 C 0.1415(6) 0.0609(5) 0.0484(6)
C24 C 0.1499(6) 0.0327(4) 0.0720(6)
H17 H 0.1268 0.0223 0.0793
C25 C 0.1907(6) 0.0205(4) 0.0844(6)
C26 C 0.2225(5) 0.0343(4) 0.0696(6)
H18 H 0.2502 0.0250 0.0765
C27 C 0.2165(7) 0.0611(4) 0.0452(6)
C28 C 0.1776(6) 0.0753(4) 0.0362(6)
H19 H 0.1740 0.0945 0.0221
N19 N 0.0456(5) 0.1118(3) -0.0073(5)
C29 C 0.0813(7) 0.0988(4) 0.0006(6)
H20 H 0.0981 0.1027 -0.0210
C30 C 0.0992(6) 0.0779(4) 0.0406(6)
C31 C 0.0748(6) 0.0737(4) 0.0745(8)
H21 H 0.0845 0.0612 0.1023
C32 C 0.0391(7) 0.0879(4) 0.0644(6)
H22 H 0.0226 0.0854 0.0868
C33 C 0.0194(6) 0.1081(4) 0.0220(7)
H23 H -0.0083 0.1173 0.0163
N20 N 0.2438(5) -0.0362(3) 0.1807(5)
C34 C 0.2363(7) -0.0126(4) 0.1529(6)
H24 H 0.2575 0.0027 0.1607
C35 C 0.2004(7) -0.0084(4) 0.1133(8)
C36 C 0.1704(8) -0.0311(5) 0.0996(7)
H25 H 0.1453 -0.0290 0.0720
C37 C 0.1777(7) -0.0570(5) 0.1266(8)
H26 H 0.1576 -0.0730 0.1172
C38 C 0.2135(7) -0.0601(4) 0.1671(7)
H27 H 0.2180 -0.0779 0.1858
N21 N 0.2773(5) 0.1098(3) -0.0210(5)
N22 N 0.3319(5) 0.0850(3) 0.0436(5)
C39 C 0.2515(6) 0.0775(4) 0.0301(6)
C40 C 0.2955(8) 0.0721(4) 0.0542(7)
H28 H 0.3017 0.0584 0.0806
C41 C 0.3198(6) 0.1043(4) 0.0030(6)
C42 C 0.2438(7) 0.0973(4) -0.0093(6)
H29 H 0.2147 0.1019 -0.0278
C43 C 0.3565(5) 0.1170(4) -0.0123(6)
H30 H 0.3449 0.1298 -0.0409
H31 H 0.3735 0.1008 -0.0207
H32 H 0.3754 0.1286 0.0147
C44 C 0.3354(8) 0.1183(4) 0.2404(7)
C45 C 0.3424(7) 0.1366(4) 0.2811(6)
H33 H 0.3581 0.1546 0.2820
C46 C 0.3274(6) 0.1295(4) 0.3200(7)
C47 C 0.3062(7) 0.1037(4) 0.3219(6)
H34 H 0.2949 0.0997 0.3485
C48 C 0.3011(8) 0.0824(4) 0.2827(7)
C49 C 0.3158(9) 0.0887(4) 0.2413(7)
H35 H 0.3132 0.0747 0.2158
N23 N 0.3813(5) 0.1120(2) 0.1309(4)
C50 C 0.3667(5) 0.1044(2) 0.1716(4)
H36 H 0.3692 0.0846 0.1832
C51 C 0.3482(5) 0.1265(3) 0.1948(4)
C52 C 0.3444(5) 0.1561(3) 0.1774(6)
H37 H 0.3321 0.1709 0.1930
C53 C 0.3591(6) 0.1638(2) 0.1368(6)
H38 H 0.3565 0.1836 0.1251
C54 C 0.3775(6) 0.1417(3) 0.1135(5)
H39 H 0.3873 0.1468 0.0863
N24 N 0.2990(5) 0.1763(3) 0.4179(5)
C55 C 0.2967(6) 0.1568(4) 0.3821(6)
H40 H 0.2707 0.1455 0.3701
C56 C 0.3295(7) 0.1524(4) 0.3619(6)
C57 C 0.3708(7) 0.1689(4) 0.3817(8)
H41 H 0.3947 0.1659 0.3691
C58 C 0.3736(7) 0.1899(4) 0.4211(7)
H42 H 0.3991 0.2011 0.4361
C59 C 0.3356(7) 0.1922(4) 0.4351(7)
H43 H 0.3357 0.2066 0.4594
N25 N 0.2744(5) -0.0010(3) 0.2713(5)
N26 N 0.2328(5) 0.0204(3) 0.3176(5)
C60 C 0.2794(7) 0.0523(4) 0.2837(7)
C61 C 0.2914(7) 0.0246(4) 0.2649(6)
H44 H 0.3122 0.0251 0.2473
C62 C 0.2435(7) -0.0042(4) 0.2962(7)
C63 C 0.2529(7) 0.0489(4) 0.3127(6)
H45 H 0.2472 0.0655 0.3302
C64 C 0.2278(7) -0.0324(3) 0.3052(7)
H46 H 0.2066 -0.0299 0.3234
H47 H 0.2523 -0.0445 0.3244
H48 H 0.2139 -0.0422 0.2739
C65 C 0.0435(6) 0.1508(4) 0.2091(6)
C66 C 0.0495(6) 0.1195(5) 0.2163(6)
H49 H 0.0292 0.1059 0.1963
C67 C 0.0848(7) 0.1094(4) 0.2523(7)
C68 C 0.1173(6) 0.1274(4) 0.2846(6)
H50 H 0.1407 0.1196 0.3103
C69 C 0.1113(6) 0.1600(4) 0.2740(6)
C70 C 0.0742(6) 0.1701(4) 0.2396(6)
H51 H 0.0691 0.1909 0.2364
N27 N -0.0219(5) 0.1976(3) 0.1050(5)
C71 C 0.0119(6) 0.1871(4) 0.1430(6)
H52 H 0.0385 0.1979 0.1520
C72 C 0.0092(6) 0.1616(4) 0.1690(7)
C73 C -0.0291(8) 0.1471(4) 0.1551(7)
H53 H -0.0319 0.1294 0.1719
C74 C -0.0681(8) 0.1575(5) 0.1141(7)
H54 H -0.0944 0.1464 0.1037
C75 C -0.0626(7) 0.1864(5) 0.0911(7)
H55 H -0.0862 0.1962 0.0681
N28 N 0.1395(5) 0.0344(4) 0.3090(5)
C76 C 0.1321(7) 0.0634(4) 0.2973(6)
H56 H 0.1554 0.0768 0.3105
C77 C 0.0930(7) 0.0753(5) 0.2672(7)
C78 C 0.0576(7) 0.0548(4) 0.2473(8)
H57 H 0.0297 0.0608 0.2271
C79 C 0.0689(9) 0.0227(5) 0.2615(12)
H58 H 0.0472 0.0082 0.2479
C80 C 0.1049(8) 0.0135(5) 0.2901(10)
H59 H 0.1089 -0.0068 0.2988
N29 N 0.1762(5) 0.2307(3) 0.3183(5)
N30 N 0.2065(4) 0.1933(3) 0.3803(5)
C81 C 0.1448(6) 0.1804(4) 0.3064(6)
C82 C 0.1489(6) 0.2114(4) 0.2926(6)
H60 H 0.1298 0.2179 0.2621
C83 C 0.2071(7) 0.2233(4) 0.3619(6)
C84 C 0.1742(6) 0.1733(4) 0.3528(6)
H61 H 0.1723 0.1542 0.3661
C85 C 0.2424(6) 0.2436(4) 0.3941(6)
H62 H 0.2595 0.2326 0.4231
H63 H 0.2286 0.2608 0.4044
H64 H 0.2617 0.2504 0.3754
N31 N 0.3503(6) -0.0399(3) 0.2969(6)
H65 H 0.3652 -0.0223 0.2990
H66 H 0.3430 -0.0422 0.3255
N32 N 0.3216(6) -0.0740(3) 0.2156(6)
H67 H 0.3054 -0.0906 0.2175
H68 H 0.3201 -0.0710 0.1834
C86 C 0.3777(9) -0.0636(9) 0.2923(11)
H69 H 0.4078 -0.0560 0.2986
H70 H 0.3781 -0.0787 0.3176
C87 C 0.3639(11) -0.0780(8) 0.2430(14)
H71 H 0.3829 -0.0706 0.2239
H72 H 0.3692 -0.0996 0.2476
N33 N 0.4542(7) 0.0712(5) 0.1344(8)
H73 H 0.4685 0.0890 0.1428
H74 H 0.4522 0.0622 0.1625
N34 N 0.4113(6) 0.0445(4) 0.0510(6)
H75 H 0.3889 0.0311 0.0420
H76 H 0.4161 0.0518 0.0230
C88 C 0.4787(9) 0.0521(8) 0.1102(14)
H77 H 0.4905 0.0644 0.0883
H78 H 0.5037 0.0432 0.1354
C89 C 0.4524(14) 0.0293(8) 0.0826(12)
H79 H 0.4451 0.0145 0.1045
H80 H 0.4678 0.0191 0.0618
N35 N 0.2444(8) 0.0101(4) 0.4236(8)
H81 H 0.2557 -0.0081 0.4192
H82 H 0.2659 0.0241 0.4276
N36 N 0.1571(7) 0.0206(4) 0.4133(7)
H83 H 0.1436 0.0386 0.4126
H84 H 0.1362 0.0060 0.4057
C90 C 0.2297(11) 0.0092(10) 0.4661(9)
H85 H 0.2359 -0.0109 0.4806
H86 H 0.2477 0.0234 0.4902
C91 C 0.1872(12) 0.0154(7) 0.4608(11)
H87 H 0.1865 0.0331 0.4810
H88 H 0.1754 -0.0013 0.4756
N37 N 0.0152(5) 0.1709(3) -0.1225(5)
H89 H -0.0107 0.1805 -0.1256
H90 H 0.0369 0.1849 -0.1178
N38 N 0.0113(5) 0.1097(3) -0.1159(5)
H91 H 0.0356 0.0994 -0.1176
H92 H -0.0077 0.0966 -0.1083
C92 C 0.0121(8) 0.1534(4) -0.1685(6)
H93 H -0.0041 0.1648 -0.1978
H94 H 0.0417 0.1490 -0.1709
C93 C -0.0110(10) 0.1256(5) -0.1655(8)
H95 H -0.0106 0.1124 -0.1930
H96 H -0.0418 0.1300 -0.1679
N39 N -0.0540(5) 0.2613(4) 0.0947(5)
H97 H -0.0803 0.2517 0.0886
H98 H -0.0423 0.2631 0.1280
N40 N -0.0058(5) 0.2755(4) 0.0339(5)
H99 H 0.0232 0.2803 0.0406
H100 H -0.0178 0.2740 0.0006
C94 C -0.0608(8) 0.2903(7) 0.0727(10)
H101 H -0.0887 0.2903 0.0460
H102 H -0.0636 0.3048 0.0977
C95 C -0.0298(9) 0.2995(5) 0.0546(9)
H103 H -0.0078 0.3104 0.0807
H104 H -0.0428 0.3139 0.0281
N41 N 0.2492(5) 0.1675(3) -0.1394(5)
H105 H 0.2305 0.1821 -0.1358
H106 H 0.2740 0.1763 -0.1427
N42 N 0.2510(5) 0.1079(3) -0.1294(4)
H107 H 0.2714 0.0930 -0.1198
H108 H 0.2241 0.1000 -0.1313
C96 C 0.2276(8) 0.1489(5) -0.1847(7)
H109 H 0.2297 0.1593 -0.2145
H110 H 0.1964 0.1459 -0.1877
C97 C 0.2507(8) 0.1193(4) -0.1798(7)
H111 H 0.2348 0.1054 -0.2059
H112 H 0.2808 0.1217 -0.1816
N43 N 0.2898(5) 0.1665(3) 0.5126(5)
H113 H 0.3056 0.1502 0.5088
H114 H 0.3089 0.1815 0.5264
N44 N 0.2012(5) 0.1802(3) 0.4809(5)
H115 H 0.1849 0.1973 0.4735
H116 H 0.1830 0.1642 0.4716
C98 C 0.2618(7) 0.1592(4) 0.5443(7)
H117 H 0.2510 0.1386 0.5375
H118 H 0.2796 0.1603 0.5791
C99 C 0.2257(7) 0.1788(4) 0.5363(6)
H119 H 0.2360 0.1989 0.5485
H120 H 0.2057 0.1717 0.5545
N45 N 0.1658(5) 0.3176(3) 0.2743(5)
H121 H 0.1911 0.3276 0.2896
H122 H 0.1610 0.3191 0.2410
N46 N 0.1272(5) 0.2833(3) 0.3281(5)
H123 H 0.1016 0.2737 0.3125
H124 H 0.1366 0.2768 0.3600
C100 C 0.1292(10) 0.3311(5) 0.2877(11)
H125 H 0.1364 0.3520 0.2973
H126 H 0.1030 0.3309 0.2588
C101 C 0.1200(8) 0.3158(5) 0.3269(8)
H127 H 0.0891 0.3195 0.3251
H128 H 0.1383 0.3243 0.3582
C1 C 0.8163(8) 0.1340(4) 0.3365(9)
Br1 Br 0.78703(10) 0.15804(6) 0.27789(12)
Br2 Br 0.78268(12) 0.13837(6) 0.38216(13)
Br3 Br 0.87573(10) 0.14837(6) 0.36342(11)
Br4 Br 0.81769(9) 0.09209(5) 0.31700(9)
N1 N 0.4267(7) 0.2605(9) 0.0876(9)
O1 O 0.4558(6) 0.2635(3) 0.0704(6)
O2 O 0.4088(6) 0.2851(4) 0.0968(7)
O3 O 0.4105(9) 0.2358(6) 0.1022(9)
N2 N 0.2383(6) 0.1405(4) 0.6833(6)
O4 O 0.1992(6) 0.1326(3) 0.6789(6)
O5 O 0.2688(5) 0.1273(3) 0.7159(6)
O6 O 0.2438(5) 0.1621(3) 0.6584(5)
N3 N 0.8726(6) 0.2265(4) 0.9586(6)
O7 O 0.8488(5) 0.2294(3) 0.9143(5)
O8 O 0.8958(5) 0.2463(3) 0.9812(5)
O9 O 0.8712(5) 0.2008(3) 0.9784(5)
N4 N 0.7158(9) 0.2074(5) 0.2070(7)
O10 O 0.6901(7) 0.2239(4) 0.1749(7)
O11 O 0.7506(9) 0.1974(7) 0.2054(12)
O12 O 0.6991(6) 0.1998(4) 0.2431(8)
N5 N 0.1694(5) 0.2564(4) 0.4530(6)
O13 O 0.1974(4) 0.2522(3) 0.4913(5)
O14 O 0.1594(4) 0.2834(3) 0.4369(4)
O15 O 0.1486(4) 0.2354(3) 0.4262(4)
N6 N 1.0821(5) 0.2609(4) 1.1798(6)
O16 O 1.0820(6) 0.2715(4) 1.2189(5)
O17 O 1.0973(4) 0.2351(3) 1.1785(4)
O18 O 1.0667(6) 0.2740(3) 1.1401(6)
N7 N 0.6421(6) 0.1645(5) 0.6505(6)
O19 O 0.6290(6) 0.1610(3) 0.6048(6)
O20 O 0.6229(6) 0.1513(4) 0.6733(5)
O21 O 0.6718(5) 0.1823(4) 0.6678(6)
N8 N 0.6625(7) 0.4392(5) 0.3837(9)
O22 O 0.7001(7) 0.4434(4) 0.4126(7)
O23 O 0.6617(9) 0.4205(6) 0.3556(12)
O24 O 0.6307(7) 0.4532(6) 0.3848(13)
N9 N 0.6505(6) 0.5137(5) 0.1964(6)
O25 O 0.6831(5) 0.5311(3) 0.2079(5)
O26 O 0.6546(6) 0.4869(3) 0.2117(6)
O27 O 0.6145(6) 0.5235(4) 0.1694(7)
N10 N 1.3204(13) 0.0489(10) 0.9048(15)
O28 O 1.3238(8) 0.0158(8) 0.8862(9)
O29 O 1.3273(7) 0.0691(4) 0.8824(8)
O30 O 1.3078(8) 0.0465(3) 0.9406(8)
N11 N 0.1446(5) 0.1413(3) -0.0735(7)
O31 O 0.1081(6) 0.1321(7) -0.0960(6)
O32 O 0.1616(4) 0.1415(3) -0.0304(4)
O33 O 0.1614(6) 0.1481(5) -0.1111(6)
N13 N 1.2251(8) -0.1051(6) 0.9209(8)
O37 O 1.2413(11) -0.0800(7) 0.9267(11)
O38 O 1.1955(9) -0.1174(6) 0.9320(9)
O39 O 1.2156(4) -0.1048(3) 0.8687(5)
N14 N 1.3471(9) 0.0160(7) 1.1635(12)
O40 O 1.3218(5) 0.0335(3) 1.1626(5)
O41 O 1.3582(8) -0.0066(4) 1.1918(10)
O42 O 1.3782(10) 0.0203(6) 1.1506(10)
O43 O 0.6041(6) 0.3686(4) 0.2932(7)
O44 O 0.3866(5) 0.2162(4) 0.2698(6)
O45 O 0.9206(5) 0.1916(3) 0.8428(5)
O46 O 0.4022(4) 0.2498(3) 0.3564(5)
O47 O 0.4126(5) 0.2113(3) -0.0390(5)
O48 O 0.3121(5) 0.2912(4) 0.1115(6)
O49 O 0.6301(9) 0.2477(6) 0.3339(10)
O50 O 0.0559(5) 0.0720(3) 0.5956(6)
O51 O 0.5250(17) 0.5031(11) 0.1161(19)
O52 O 1.3490(10) -0.1175(7) 0.9924(11)
O53 O 1.2922(10) -0.0724(7) 1.0994(11)
O54 O 0.7783(10) 0.0824(7) 0.9640(11)
O55 O 1.1441(10) -0.1234(7) 0.9792(11)
O56 O 0.5634(8) 0.4193(5) 0.3218(9)
O57 O 0.0888(5) 0.1190(4) 0.5498(6)
O58 O 1.0168(10) 0.3203(6) 1.1886(10)
O59 O 0.5924(7) 0.3123(5) 0.2575(8)
O60 O 1.0334(6) -0.0700(4) 0.8580(6)
O61 O 0.1347(6) 0.1642(4) 0.6091(6)
O62 O 0.6430(7) 0.3970(5) 0.2303(7)
O63 O 0.5930(6) 0.4450(4) 0.1927(6)
O64 O 0.4745(5) 0.2245(3) 0.4227(6)
O65 O 0.4210(7) 0.1854(4) 0.0495(7)
O66 O 1.1325(15) -0.0710(11) 0.9816(17)
O67 O 0.5552(14) 0.0659(9) 0.5351(15)
N12? N 0.4706(9) 0.2589(6) 0.7098(10)
O34? O 0.4368(9) 0.2742(6) 0.6921(11)
O35? O 0.4732(9) 0.2321(6) 0.7039(10)
O36? O 0.5000 0.2751(6) 0.7500
C102? C 1.3656(12) -0.1147(8) 1.1135(13)
C103? C 0.4438(19) 0.5210(13) 0.106(2)
C104? C 0.9958(10) 0.0385(7) 0.8002(11)
C105? C 1.353(2) -0.0142(17) 1.030(3)
C106? C 0.9881(14) 0.3720(10) 1.1269(16)
C107? C 0.5595(13) 0.1163(9) 0.5774(14)
C108? C 0.5000(16) 0.1639(11) 0.4132(17)
C109? C 0.4452(11) 0.1669(8) 0.2862(13)
C110? C 1.374(2) -0.0361(14) 0.891(2)
C111? C 1.4180(13) 0.0574(9) 1.2695(15)
C112? C 0.5042(14) 0.2511(9) 0.2146(14)
loop_
_geom_bond_atom_site_label_1
_geom_bond_atom_site_label_2
_geom_bond_site_symmetry_1
_geom_bond_site_symmetry_2
Pd1 N20 1_555 1_555
Pd2 N22 1_555 1_555
Pd3 N26 1_555 1_555
Pd4 N17 1_555 1_555
Pd5 N18 1_555 1_555
Pd6 N15 1_555 1_555
Pd7 N24 1_555 1_555
Pd8 N16 1_555 1_555
C1 Br1 1_555 1_555
Br2 C1 1_555 1_555
Br3 C1 1_555 1_555
Br4 C1 1_555 1_555
N1 O1 1_555 1_555
O2 N1 1_555 1_555
O3 N1 1_555 1_555
N2 O4 1_555 1_555
O5 N2 1_555 1_555
O6 N2 1_555 1_555
N3 O7 1_555 1_555
O8 N3 1_555 1_555
O9 N3 1_555 1_555
N4 O10 1_555 1_555
O11 N4 1_555 1_555
O12 N4 1_555 1_555
N5 O13 1_555 1_555
O14 N5 1_555 1_555
O15 N5 1_555 1_555
N6 O16 1_555 1_555
O17 N6 1_555 1_555
O18 N6 1_555 1_555
N7 O19 1_555 1_555
O20 N7 1_555 1_555
O21 N7 1_555 1_555
N8 O22 1_555 1_555
O23 N8 1_555 1_555
O24 N8 1_555 1_555
N9 O25 1_555 1_555
O26 N9 1_555 1_555
O27 N9 1_555 1_555
N10 O28 1_555 1_555
O29 N10 1_555 1_555
O30 N10 1_555 1_555
N11 O31 1_555 1_555
O32 N11 1_555 1_555
O33 N11 1_555 1_555
N13 O37 1_555 1_555
O38 N13 1_555 1_555
O39 N13 1_555 1_555
N14 O40 1_555 1_555
O41 N14 1_555 1_555
O42 N14 1_555 1_555
C2 C3 1_555 1_555
C3 H1 1_555 1_555
C4 C3 1_555 1_555
C5 C4 1_555 1_555
H2 C5 1_555 1_555
C6 C5 1_555 1_555
C7 C2 1_555 1_555
H3 C7 1_555 1_555
N15 C8 1_555 1_555
C8 H4 1_555 1_555
C9 C2 1_555 1_555
C10 C9 1_555 1_555
H5 C10 1_555 1_555
C11 C10 1_555 1_555
H6 C11 1_555 1_555
C12 N15 1_555 1_555
H7 C12 1_555 1_555
N16 C13 1_555 1_555
C13 H8 1_555 1_555
C14 C4 1_555 1_555
C15 C14 1_555 1_555
H9 C15 1_555 1_555
C16 C15 1_555 1_555
H10 C16 1_555 1_555
C17 N16 1_555 1_555
H11 C17 1_555 1_555
N17 C19 1_555 1_555
N18 C20 1_555 1_555
C18 C6 1_555 1_555
C19 C18 1_555 1_555
H12 C19 1_555 1_555
C20 N17 1_555 1_555
C21 N18 1_555 1_555
H13 C21 1_555 1_555
C22 C20 1_555 1_555
H14 C22 1_555 1_555
H15 C22 1_555 1_555
H16 C22 1_555 1_555
C23 C24 1_555 1_555
C24 H17 1_555 1_555
C25 C24 1_555 1_555
C26 C25 1_555 1_555
H18 C26 1_555 1_555
C27 C26 1_555 1_555
C28 C23 1_555 1_555
H19 C28 1_555 1_555
N19 Pd4 1_555 1_555
C29 N19 1_555 1_555
H20 C29 1_555 1_555
C30 C23 1_555 1_555
C31 C30 1_555 1_555
H21 C31 1_555 1_555
C32 C31 1_555 1_555
H22 C32 1_555 1_555
C33 N19 1_555 1_555
H23 C33 1_555 1_555
N20 C34 1_555 1_555
C34 H24 1_555 1_555
C35 C25 1_555 1_555
C36 C35 1_555 1_555
H25 C36 1_555 1_555
C37 C36 1_555 1_555
H26 C37 1_555 1_555
C38 N20 1_555 1_555
H27 C38 1_555 1_555
N21 Pd6 1_555 1_555
N22 C40 1_555 1_555
C39 C27 1_555 1_555
C40 C39 1_555 1_555
H28 C40 1_555 1_555
C41 N21 1_555 1_555
C42 N21 1_555 1_555
H29 C42 1_555 1_555
C43 C41 1_555 1_555
H30 C43 1_555 1_555
H31 C43 1_555 1_555
H32 C43 1_555 1_555
C44 C45 1_555 1_555
C45 H33 1_555 1_555
C46 C45 1_555 1_555
C47 C46 1_555 1_555
H34 C47 1_555 1_555
C48 C47 1_555 1_555
C49 C44 1_555 1_555
H35 C49 1_555 1_555
N23 Pd2 1_555 1_555
C50 N23 1_555 1_555
H36 C50 1_555 1_555
C51 C44 1_555 1_555
C52 C51 1_555 1_555
H37 C52 1_555 1_555
C53 C52 1_555 1_555
H38 C53 1_555 1_555
C54 N23 1_555 1_555
H39 C54 1_555 1_555
N24 C55 1_555 1_555
C55 H40 1_555 1_555
C56 C46 1_555 1_555
C57 C56 1_555 1_555
H41 C57 1_555 1_555
C58 C57 1_555 1_555
H42 C58 1_555 1_555
C59 N24 1_555 1_555
H43 C59 1_555 1_555
N25 Pd1 1_555 1_555
N26 C62 1_555 1_555
C60 C48 1_555 1_555
C61 N25 1_555 1_555
H44 C61 1_555 1_555
C62 N25 1_555 1_555
C63 N26 1_555 1_555
H45 C63 1_555 1_555
C64 C62 1_555 1_555
H46 C64 1_555 1_555
H47 C64 1_555 1_555
H48 C64 1_555 1_555
C65 C66 1_555 1_555
C66 H49 1_555 1_555
C67 C66 1_555 1_555
C68 C67 1_555 1_555
H50 C68 1_555 1_555
C69 C68 1_555 1_555
C70 C65 1_555 1_555
H51 C70 1_555 1_555
N27 Pd5 1_555 1_555
C71 N27 1_555 1_555
H52 C71 1_555 1_555
C72 C65 1_555 1_555
C73 C72 1_555 1_555
H53 C73 1_555 1_555
C74 C73 1_555 1_555
H54 C74 1_555 1_555
C75 N27 1_555 1_555
H55 C75 1_555 1_555
N28 Pd3 1_555 1_555
C76 N28 1_555 1_555
H56 C76 1_555 1_555
C77 C67 1_555 1_555
C78 C77 1_555 1_555
H57 C78 1_555 1_555
C79 C78 1_555 1_555
H58 C79 1_555 1_555
C80 N28 1_555 1_555
H59 C80 1_555 1_555
N29 Pd8 1_555 1_555
N30 Pd7 1_555 1_555
C81 C69 1_555 1_555
C82 N29 1_555 1_555
H60 C82 1_555 1_555
C83 N29 1_555 1_555
C84 N30 1_555 1_555
H61 C84 1_555 1_555
C85 C83 1_555 1_555
H62 C85 1_555 1_555
H63 C85 1_555 1_555
H64 C85 1_555 1_555
N31 Pd1 1_555 1_555
H65 N31 1_555 1_555
H66 N31 1_555 1_555
N32 Pd1 1_555 1_555
H67 N32 1_555 1_555
H68 N32 1_555 1_555
C86 N31 1_555 1_555
H69 C86 1_555 1_555
H70 C86 1_555 1_555
C87 N32 1_555 1_555
H71 C87 1_555 1_555
H72 C87 1_555 1_555
N33 Pd2 1_555 1_555
H73 N33 1_555 1_555
H74 N33 1_555 1_555
N34 Pd2 1_555 1_555
H75 N34 1_555 1_555
H76 N34 1_555 1_555
C88 N33 1_555 1_555
H77 C88 1_555 1_555
H78 C88 1_555 1_555
C89 N34 1_555 1_555
H79 C89 1_555 1_555
H80 C89 1_555 1_555
N35 Pd3 1_555 1_555
H81 N35 1_555 1_555
H82 N35 1_555 1_555
N36 Pd3 1_555 1_555
H83 N36 1_555 1_555
H84 N36 1_555 1_555
C90 N35 1_555 1_555
H85 C90 1_555 1_555
H86 C90 1_555 1_555
C91 N36 1_555 1_555
H87 C91 1_555 1_555
H88 C91 1_555 1_555
N37 Pd4 1_555 1_555
H89 N37 1_555 1_555
H90 N37 1_555 1_555
N38 Pd4 1_555 1_555
H91 N38 1_555 1_555
H92 N38 1_555 1_555
C92 N37 1_555 1_555
H93 C92 1_555 1_555
H94 C92 1_555 1_555
C93 N38 1_555 1_555
H95 C93 1_555 1_555
H96 C93 1_555 1_555
N39 Pd5 1_555 1_555
H97 N39 1_555 1_555
H98 N39 1_555 1_555
N40 Pd5 1_555 1_555
H99 N40 1_555 1_555
H100 N40 1_555 1_555
C94 N39 1_555 1_555
H101 C94 1_555 1_555
H102 C94 1_555 1_555
C95 N40 1_555 1_555
H103 C95 1_555 1_555
H104 C95 1_555 1_555
N41 Pd6 1_555 1_555
H105 N41 1_555 1_555
H106 N41 1_555 1_555
N42 Pd6 1_555 1_555
H107 N42 1_555 1_555
H108 N42 1_555 1_555
C96 N41 1_555 1_555
H109 C96 1_555 1_555
H110 C96 1_555 1_555
C97 N42 1_555 1_555
H111 C97 1_555 1_555
H112 C97 1_555 1_555
N43 Pd7 1_555 1_555
H113 N43 1_555 1_555
H114 N43 1_555 1_555
N44 Pd7 1_555 1_555
H115 N44 1_555 1_555
H116 N44 1_555 1_555
C98 N43 1_555 1_555
H117 C98 1_555 1_555
H118 C98 1_555 1_555
C99 N44 1_555 1_555
H119 C99 1_555 1_555
H120 C99 1_555 1_555
N45 Pd8 1_555 1_555
H121 N45 1_555 1_555
H122 N45 1_555 1_555
N46 Pd8 1_555 1_555
H123 N46 1_555 1_555
H124 N46 1_555 1_555
C100 N45 1_555 1_555
H125 C100 1_555 1_555
H126 C100 1_555 1_555
C101 N46 1_555 1_555
H127 C101 1_555 1_555
H128 C101 1_555 1_555
C6 C7 1_555 1_555
C8 C9 1_555 1_555
C11 C12 1_555 1_555
C13 C14 1_555 1_555
C16 C17 1_555 1_555
C18 C21 1_555 1_555
C27 C28 1_555 1_555
C29 C30 1_555 1_555
C32 C33 1_555 1_555
C34 C35 1_555 1_555
C37 C38 1_555 1_555
N22 C41 1_555 1_555
C39 C42 1_555 1_555
C48 C49 1_555 1_555
C50 C51 1_555 1_555
C53 C54 1_555 1_555
C55 C56 1_555 1_555
C58 C59 1_555 1_555
C60 C61 1_555 1_555
C60 C63 1_555 1_555
C69 C70 1_555 1_555
C71 C72 1_555 1_555
C74 C75 1_555 1_555
C76 C77 1_555 1_555
C79 C80 1_555 1_555
N30 C83 1_555 1_555
C81 C82 1_555 1_555
C81 C84 1_555 1_555
C86 C87 1_555 1_555
C88 C89 1_555 1_555
C90 C91 1_555 1_555
C92 C93 1_555 1_555
C94 C95 1_555 1_555
C96 C97 1_555 1_555
C98 C99 1_555 1_555
C100 C101 1_555 1_555

#END
