# generated using pymatgen
data_H256Pd16C224Br8N92O133
_symmetry_space_group_name_H-M   'P 1'
_cell_length_a   27.09467425
_cell_length_b   27.09467425
_cell_length_c   27.98700000
_cell_angle_alpha   99.90838986
_cell_angle_beta   99.90838986
_cell_angle_gamma   109.07508825
_symmetry_Int_Tables_number   1
_chemical_formula_structural   H256Pd16C224Br8N92O133
_chemical_formula_sum   'H512 Pd32 C448 Br16 N184 O266'
_cell_volume   18543.99350503
_cell_formula_units_Z   2
loop_
 _symmetry_equiv_pos_site_id
 _symmetry_equiv_pos_as_xyz
  1  'x, y, z'
loop_
 _atom_site_type_symbol
 _atom_site_label
 _atom_site_symmetry_multiplicity
 _atom_site_fract_x
 _atom_site_fract_y
 _atom_site_fract_z
 _atom_site_occupancy
  Br  Br1  1  0.054930  0.371010  0.722110  1
  Br  Br2  1  0.371010  0.054930  0.222110  1
  Br  Br3  1  0.945070  0.628990  0.277890  1
  Br  Br4  1  0.628990  0.945070  0.777890  1
  Br  Br5  1  0.078950  0.355690  0.617840  1
  Br  Br6  1  0.355690  0.078950  0.117840  1
  Br  Br7  1  0.921050  0.644310  0.382160  1
  Br  Br8  1  0.644310  0.921050  0.882160  1
  Br  Br9  1  0.975900  0.272640  0.636580  1
  Br  Br10  1  0.272640  0.975900  0.136580  1
  Br  Br11  1  0.024100  0.727360  0.363420  1
  Br  Br12  1  0.727360  0.024100  0.863420  1
  Br  Br13  1  0.090220  0.274400  0.683000  1
  Br  Br14  1  0.274400  0.090220  0.183000  1
  Br  Br15  1  0.909780  0.725600  0.317000  1
  Br  Br16  1  0.725600  0.909780  0.817000  1
  C  C17  1  0.559300  0.983900  0.941900  1
  C  C18  1  0.983900  0.559300  0.441900  1
  C  C19  1  0.440700  0.016100  0.058100  1
  C  C20  1  0.016100  0.440700  0.558100  1
  C  C21  1  0.529600  0.981200  0.896100  1
  C  C22  1  0.981200  0.529600  0.396100  1
  C  C23  1  0.470400  0.018800  0.103900  1
  C  C24  1  0.018800  0.470400  0.603900  1
  C  C25  1  0.551700  0.020100  0.869200  1
  C  C26  1  0.020100  0.551700  0.369200  1
  C  C27  1  0.448300  0.979900  0.130800  1
  C  C28  1  0.979900  0.448300  0.630800  1
  C  C29  1  0.603100  0.052700  0.888200  1
  C  C30  1  0.052700  0.603100  0.388200  1
  C  C31  1  0.396900  0.947300  0.111800  1
  C  C32  1  0.947300  0.396900  0.611800  1
  C  C33  1  0.637200  0.059600  0.937200  1
  C  C34  1  0.059600  0.637200  0.437200  1
  C  C35  1  0.362800  0.940400  0.062800  1
  C  C36  1  0.940400  0.362800  0.562800  1
  C  C37  1  0.610800  0.024000  0.962100  1
  C  C38  1  0.024000  0.610800  0.462100  1
  C  C39  1  0.389200  0.976000  0.037900  1
  C  C40  1  0.976000  0.389200  0.537900  1
  C  C41  1  0.566900  0.931700  0.005200  1
  C  C42  1  0.931700  0.566900  0.505200  1
  C  C43  1  0.433100  0.068300  0.994800  1
  C  C44  1  0.068300  0.433100  0.494800  1
  C  C45  1  0.533200  0.947000  0.971100  1
  C  C46  1  0.947000  0.533200  0.471100  1
  C  C47  1  0.466800  0.053000  0.028900  1
  C  C48  1  0.053000  0.466800  0.528900  1
  C  C49  1  0.480400  0.933400  0.969800  1
  C  C50  1  0.933400  0.480400  0.469800  1
  C  C51  1  0.519600  0.066600  0.030200  1
  C  C52  1  0.066600  0.519600  0.530200  1
  C  C53  1  0.458800  0.897800  0.999000  1
  C  C54  1  0.897800  0.458800  0.499000  1
  C  C55  1  0.541200  0.102200  0.001000  1
  C  C56  1  0.102200  0.541200  0.501000  1
  C  C57  1  0.496600  0.882600  0.030300  1
  C  C58  1  0.882600  0.496600  0.530300  1
  C  C59  1  0.503400  0.117400  0.969700  1
  C  C60  1  0.117400  0.503400  0.469700  1
  C  C61  1  0.542200  0.047800  0.787100  1
  C  C62  1  0.047800  0.542200  0.287100  1
  C  C63  1  0.457800  0.952200  0.212900  1
  C  C64  1  0.952200  0.457800  0.712900  1
  C  C65  1  0.520300  0.017500  0.818200  1
  C  C66  1  0.017500  0.520300  0.318200  1
  C  C67  1  0.479700  0.982500  0.181800  1
  C  C68  1  0.982500  0.479700  0.681800  1
  C  C69  1  0.468400  0.988400  0.800500  1
  C  C70  1  0.988400  0.468400  0.300500  1
  C  C71  1  0.531600  0.011600  0.199500  1
  C  C72  1  0.011600  0.531600  0.699500  1
  C  C73  1  0.439900  0.986100  0.754100  1
  C  C74  1  0.986100  0.439900  0.254100  1
  C  C75  1  0.560100  0.013900  0.245900  1
  C  C76  1  0.013900  0.560100  0.745900  1
  C  C77  1  0.464700  0.020100  0.727900  1
  C  C78  1  0.020100  0.464700  0.227900  1
  C  C79  1  0.535300  0.979900  0.272100  1
  C  C80  1  0.979900  0.535300  0.772100  1
  C  C81  1  0.689900  0.097700  0.957400  1
  C  C82  1  0.097700  0.689900  0.457400  1
  C  C83  1  0.310100  0.902300  0.042600  1
  C  C84  1  0.902300  0.310100  0.542600  1
  C  C85  1  0.726100  0.089500  0.990900  1
  C  C86  1  0.089500  0.726100  0.490900  1
  C  C87  1  0.273900  0.910500  0.009100  1
  C  C88  1  0.910500  0.273900  0.509100  1
  C  C89  1  0.789500  0.175300  0.998800  1
  C  C90  1  0.175300  0.789500  0.498800  1
  C  C91  1  0.210500  0.824700  0.001200  1
  C  C92  1  0.824700  0.210500  0.501200  1
  C  C93  1  0.708400  0.148600  0.942200  1
  C  C94  1  0.148600  0.708400  0.442200  1
  C  C95  1  0.291600  0.851400  0.057800  1
  C  C96  1  0.851400  0.291600  0.557800  1
  C  C97  1  0.840000  0.216000  0.021400  1
  C  C98  1  0.216000  0.840000  0.521400  1
  C  C99  1  0.160000  0.784000  0.978600  1
  C  C100  1  0.784000  0.160000  0.478600  1
  C  C101  1  0.797600  0.919400  0.951600  1
  C  C102  1  0.919400  0.797600  0.451600  1
  C  C103  1  0.202400  0.080600  0.048400  1
  C  C104  1  0.080600  0.202400  0.548400  1
  C  C105  1  0.817400  0.882800  0.928000  1
  C  C106  1  0.882800  0.817400  0.428000  1
  C  C107  1  0.182600  0.117200  0.072000  1
  C  C108  1  0.117200  0.182600  0.572000  1
  C  C109  1  0.788800  0.829800  0.915600  1
  C  C110  1  0.829800  0.788800  0.415600  1
  C  C111  1  0.211200  0.170200  0.084400  1
  C  C112  1  0.170200  0.211200  0.584400  1
  C  C113  1  0.743200  0.811800  0.930400  1
  C  C114  1  0.811800  0.743200  0.430400  1
  C  C115  1  0.256800  0.188200  0.069600  1
  C  C116  1  0.188200  0.256800  0.569600  1
  C  C117  1  0.722400  0.844600  0.954800  1
  C  C118  1  0.844600  0.722400  0.454800  1
  C  C119  1  0.277600  0.155400  0.045200  1
  C  C120  1  0.155400  0.277600  0.545200  1
  C  C121  1  0.747100  0.897700  0.963800  1
  C  C122  1  0.897700  0.747100  0.463800  1
  C  C123  1  0.252900  0.102300  0.036200  1
  C  C124  1  0.102300  0.252900  0.536200  1
  C  C125  1  0.819900  0.017500  0.999400  1
  C  C126  1  0.017500  0.819900  0.499400  1
  C  C127  1  0.180100  0.982500  0.000600  1
  C  C128  1  0.982500  0.180100  0.500600  1
  C  C129  1  0.822900  0.978700  0.959400  1
  C  C130  1  0.978700  0.822900  0.459400  1
  C  C131  1  0.177100  0.021300  0.040600  1
  C  C132  1  0.021300  0.177100  0.540600  1
  C  C133  1  0.851500  0.998900  0.925500  1
  C  C134  1  0.998900  0.851500  0.425500  1
  C  C135  1  0.148500  0.001100  0.074500  1
  C  C136  1  0.001100  0.148500  0.574500  1
  C  C137  1  0.873000  0.048800  0.935600  1
  C  C138  1  0.048800  0.873000  0.435600  1
  C  C139  1  0.127000  0.951200  0.064400  1
  C  C140  1  0.951200  0.127000  0.564400  1
  C  C141  1  0.872500  0.088700  0.978000  1
  C  C142  1  0.088700  0.872500  0.478000  1
  C  C143  1  0.127500  0.911300  0.022000  1
  C  C144  1  0.911300  0.127500  0.522000  1
  C  C145  1  0.776300  0.751100  0.847100  1
  C  C146  1  0.751100  0.776300  0.347100  1
  C  C147  1  0.223700  0.248900  0.152900  1
  C  C148  1  0.248900  0.223700  0.652900  1
  C  C149  1  0.808000  0.791200  0.886700  1
  C  C150  1  0.791200  0.808000  0.386700  1
  C  C151  1  0.192000  0.208800  0.113300  1
  C  C152  1  0.208800  0.192000  0.613300  1
  C  C153  1  0.860700  0.798500  0.900400  1
  C  C154  1  0.798500  0.860700  0.400400  1
  C  C155  1  0.139300  0.201500  0.099600  1
  C  C156  1  0.201500  0.139300  0.599600  1
  C  C157  1  0.879300  0.765300  0.873400  1
  C  C158  1  0.765300  0.879300  0.373400  1
  C  C159  1  0.120700  0.234700  0.126600  1
  C  C160  1  0.234700  0.120700  0.626600  1
  C  C161  1  0.846600  0.726400  0.832900  1
  C  C162  1  0.726400  0.846600  0.332900  1
  C  C163  1  0.153400  0.273600  0.167100  1
  C  C164  1  0.273600  0.153400  0.667100  1
  C  C165  1  0.671000  0.826000  0.969900  1
  C  C166  1  0.826000  0.671000  0.469900  1
  C  C167  1  0.329000  0.174000  0.030100  1
  C  C168  1  0.174000  0.329000  0.530100  1
  C  C169  1  0.632400  0.776600  0.945800  1
  C  C170  1  0.776600  0.632400  0.445800  1
  C  C171  1  0.367600  0.223400  0.054200  1
  C  C172  1  0.223400  0.367600  0.554200  1
  C  C173  1  0.575900  0.784500  0.997000  1
  C  C174  1  0.784500  0.575900  0.497000  1
  C  C175  1  0.424100  0.215500  0.003000  1
  C  C176  1  0.215500  0.424100  0.503000  1
  C  C177  1  0.658900  0.853500  0.009300  1
  C  C178  1  0.853500  0.658900  0.509300  1
  C  C179  1  0.341100  0.146500  0.990700  1
  C  C180  1  0.146500  0.341100  0.490700  1
  C  C181  1  0.526500  0.760500  0.012300  1
  C  C182  1  0.760500  0.526500  0.512300  1
  C  C183  1  0.473500  0.239500  0.987700  1
  C  C184  1  0.239500  0.473500  0.487700  1
  C  C185  1  0.546300  0.782900  0.759600  1
  C  C186  1  0.782900  0.546300  0.259600  1
  C  C187  1  0.453700  0.217100  0.240400  1
  C  C188  1  0.217100  0.453700  0.740400  1
  C  C189  1  0.521000  0.794200  0.718900  1
  C  C190  1  0.794200  0.521000  0.218900  1
  C  C191  1  0.479000  0.205800  0.281100  1
  C  C192  1  0.205800  0.479000  0.781100  1
  C  C193  1  0.543100  0.802100  0.680000  1
  C  C194  1  0.802100  0.543100  0.180000  1
  C  C195  1  0.456900  0.197900  0.320000  1
  C  C196  1  0.197900  0.456900  0.820000  1
  C  C197  1  0.590100  0.797500  0.678100  1
  C  C198  1  0.797500  0.590100  0.178100  1
  C  C199  1  0.409900  0.202500  0.321900  1
  C  C200  1  0.202500  0.409900  0.821900  1
  C  C201  1  0.616500  0.781300  0.717300  1
  C  C202  1  0.781300  0.616500  0.217300  1
  C  C203  1  0.383500  0.218700  0.282700  1
  C  C204  1  0.218700  0.383500  0.782700  1
  C  C205  1  0.595500  0.772900  0.758700  1
  C  C206  1  0.772900  0.595500  0.258700  1
  C  C207  1  0.404500  0.227100  0.241300  1
  C  C208  1  0.227100  0.404500  0.741300  1
  C  C209  1  0.528900  0.737700  0.828400  1
  C  C210  1  0.737700  0.528900  0.328400  1
  C  C211  1  0.471100  0.262300  0.171600  1
  C  C212  1  0.262300  0.471100  0.671600  1
  C  C213  1  0.525300  0.778300  0.805200  1
  C  C214  1  0.778300  0.525300  0.305200  1
  C  C215  1  0.474700  0.221700  0.194800  1
  C  C216  1  0.221700  0.474700  0.694800  1
  C  C217  1  0.499500  0.811700  0.822600  1
  C  C218  1  0.811700  0.499500  0.322600  1
  C  C219  1  0.500500  0.188300  0.177400  1
  C  C220  1  0.188300  0.500500  0.677400  1
  C  C221  1  0.477100  0.804700  0.863200  1
  C  C222  1  0.804700  0.477100  0.363200  1
  C  C223  1  0.522900  0.195300  0.136800  1
  C  C224  1  0.195300  0.522900  0.636800  1
  C  C225  1  0.480800  0.764200  0.886500  1
  C  C226  1  0.764200  0.480800  0.386500  1
  C  C227  1  0.519200  0.235800  0.113500  1
  C  C228  1  0.235800  0.519200  0.613500  1
  C  C229  1  0.546500  0.860100  0.617900  1
  C  C230  1  0.860100  0.546500  0.117900  1
  C  C231  1  0.453500  0.139900  0.382100  1
  C  C232  1  0.139900  0.453500  0.882100  1
  C  C233  1  0.518100  0.822900  0.638100  1
  C  C234  1  0.822900  0.518100  0.138100  1
  C  C235  1  0.481900  0.177100  0.361900  1
  C  C236  1  0.177100  0.481900  0.861900  1
  C  C237  1  0.460300  0.798100  0.618300  1
  C  C238  1  0.798100  0.460300  0.118300  1
  C  C239  1  0.539700  0.201900  0.381700  1
  C  C240  1  0.201900  0.539700  0.881700  1
  C  C241  1  0.436500  0.816300  0.578900  1
  C  C242  1  0.816300  0.436500  0.078900  1
  C  C243  1  0.563500  0.183700  0.421100  1
  C  C244  1  0.183700  0.563500  0.921100  1
  C  C245  1  0.472200  0.856600  0.564900  1
  C  C246  1  0.856600  0.472200  0.064900  1
  C  C247  1  0.527800  0.143400  0.435100  1
  C  C248  1  0.143400  0.527800  0.935100  1
  C  C249  1  0.668300  0.772900  0.716300  1
  C  C250  1  0.772900  0.668300  0.216300  1
  C  C251  1  0.331700  0.227100  0.283700  1
  C  C252  1  0.227100  0.331700  0.783700  1
  C  C253  1  0.684000  0.733200  0.735100  1
  C  C254  1  0.733200  0.684000  0.235100  1
  C  C255  1  0.316000  0.266800  0.264900  1
  C  C256  1  0.266800  0.316000  0.764900  1
  C  C257  1  0.760700  0.752300  0.703800  1
  C  C258  1  0.752300  0.760700  0.203800  1
  C  C259  1  0.239300  0.247700  0.296200  1
  C  C260  1  0.247700  0.239300  0.796200  1
  C  C261  1  0.698200  0.796000  0.687300  1
  C  C262  1  0.796000  0.698200  0.187300  1
  C  C263  1  0.301800  0.204000  0.312700  1
  C  C264  1  0.204000  0.301800  0.812700  1
  C  C265  1  0.804600  0.739800  0.694800  1
  C  C266  1  0.739800  0.804600  0.194800  1
  C  C267  1  0.195400  0.260200  0.305200  1
  C  C268  1  0.260200  0.195400  0.805200  1
  C  C269  1  0.805700  0.107300  0.790900  1
  C  C270  1  0.107300  0.805700  0.290900  1
  C  C271  1  0.194300  0.892700  0.209100  1
  C  C272  1  0.892700  0.194300  0.709100  1
  C  C273  1  0.831000  0.070000  0.783700  1
  C  C274  1  0.070000  0.831000  0.283700  1
  C  C275  1  0.169000  0.930000  0.216300  1
  C  C276  1  0.930000  0.169000  0.716300  1
  C  C277  1  0.805800  0.024600  0.747700  1
  C  C278  1  0.024600  0.805800  0.247700  1
  C  C279  1  0.194200  0.975400  0.252300  1
  C  C280  1  0.975400  0.194200  0.752300  1
  C  C281  1  0.755300  0.010100  0.715400  1
  C  C282  1  0.010100  0.755300  0.215400  1
  C  C283  1  0.244700  0.989900  0.284600  1
  C  C284  1  0.989900  0.244700  0.784600  1
  C  C285  1  0.728700  0.048700  0.726000  1
  C  C286  1  0.048700  0.728700  0.226000  1
  C  C287  1  0.271300  0.951300  0.274000  1
  C  C288  1  0.951300  0.271300  0.774000  1
  C  C289  1  0.755700  0.095900  0.760400  1
  C  C290  1  0.095900  0.755700  0.260400  1
  C  C291  1  0.244300  0.904100  0.239600  1
  C  C292  1  0.904100  0.244300  0.739600  1
  C  C293  1  0.801000  0.175200  0.857000  1
  C  C294  1  0.175200  0.801000  0.357000  1
  C  C295  1  0.199000  0.824800  0.143000  1
  C  C296  1  0.824800  0.199000  0.643000  1
  C  C297  1  0.829200  0.152400  0.831000  1
  C  C298  1  0.152400  0.829200  0.331000  1
  C  C299  1  0.170800  0.847600  0.169000  1
  C  C300  1  0.847600  0.170800  0.669000  1
  C  C301  1  0.882000  0.176200  0.844900  1
  C  C302  1  0.176200  0.882000  0.344900  1
  C  C303  1  0.118000  0.823800  0.155100  1
  C  C304  1  0.823800  0.118000  0.655100  1
  C  C305  1  0.910600  0.225600  0.885900  1
  C  C306  1  0.225600  0.910600  0.385900  1
  C  C307  1  0.089400  0.774400  0.114100  1
  C  C308  1  0.774400  0.089400  0.614100  1
  C  C309  1  0.876200  0.249000  0.908900  1
  C  C310  1  0.249000  0.876200  0.408900  1
  C  C311  1  0.123800  0.751000  0.091100  1
  C  C312  1  0.751000  0.123800  0.591100  1
  C  C313  1  0.804500  0.931300  0.702700  1
  C  C314  1  0.931300  0.804500  0.202700  1
  C  C315  1  0.195500  0.068700  0.297300  1
  C  C316  1  0.068700  0.195500  0.797300  1
  C  C317  1  0.831700  0.982300  0.732800  1
  C  C318  1  0.982300  0.831700  0.232800  1
  C  C319  1  0.168300  0.017700  0.267200  1
  C  C320  1  0.017700  0.168300  0.767200  1
  C  C321  1  0.887600  0.997200  0.752700  1
  C  C322  1  0.997200  0.887600  0.252700  1
  C  C323  1  0.112400  0.002800  0.247300  1
  C  C324  1  0.002800  0.112400  0.747300  1
  C  C325  1  0.908400  0.953800  0.738500  1
  C  C326  1  0.953800  0.908400  0.238500  1
  C  C327  1  0.091600  0.046200  0.261500  1
  C  C328  1  0.046200  0.091600  0.761500  1
  C  C329  1  0.881600  0.908600  0.709900  1
  C  C330  1  0.908600  0.881600  0.209900  1
  C  C331  1  0.118400  0.091400  0.290100  1
  C  C332  1  0.091400  0.118400  0.790100  1
  C  C333  1  0.674800  0.035600  0.693600  1
  C  C334  1  0.035600  0.674800  0.193600  1
  C  C335  1  0.325200  0.964400  0.306400  1
  C  C336  1  0.964400  0.325200  0.806400  1
  C  C337  1  0.639700  0.062500  0.707400  1
  C  C338  1  0.062500  0.639700  0.207400  1
  C  C339  1  0.360300  0.937500  0.292600  1
  C  C340  1  0.937500  0.360300  0.792600  1
  C  C341  1  0.569600  0.016200  0.638100  1
  C  C342  1  0.016200  0.569600  0.138100  1
  C  C343  1  0.430400  0.983800  0.361900  1
  C  C344  1  0.983800  0.430400  0.861900  1
  C  C345  1  0.652500  0.999100  0.647200  1
  C  C346  1  0.999100  0.652500  0.147200  1
  C  C347  1  0.347500  0.000900  0.352800  1
  C  C348  1  0.000900  0.347500  0.852800  1
  C  C349  1  0.514000  0.001200  0.605900  1
  C  C350  1  0.001200  0.514000  0.105900  1
  C  C351  1  0.486000  0.998800  0.394100  1
  C  C352  1  0.998800  0.486000  0.894100  1
  C  C353  1  0.685900  0.558700  0.707700  1
  C  C354  1  0.558700  0.685900  0.207700  1
  C  C355  1  0.314100  0.441300  0.292300  1
  C  C356  1  0.441300  0.314100  0.792300  1
  C  C357  1  0.714100  0.558100  0.757000  1
  C  C358  1  0.558100  0.714100  0.257000  1
  C  C359  1  0.285900  0.441900  0.243000  1
  C  C360  1  0.441900  0.285900  0.743000  1
  C  C361  1  0.469200  0.573400  0.889800  1
  C  C362  1  0.573400  0.469200  0.389800  1
  C  C363  1  0.530800  0.426600  0.110200  1
  C  C364  1  0.426600  0.530800  0.610200  1
  C  C365  1  0.518300  0.576900  0.917400  1
  C  C366  1  0.576900  0.518300  0.417400  1
  C  C367  1  0.481700  0.423100  0.082600  1
  C  C368  1  0.423100  0.481700  0.582600  1
  C  C369  1  0.761100  0.779500  0.533900  1
  C  C370  1  0.779500  0.761100  0.033900  1
  C  C371  1  0.238900  0.220500  0.466100  1
  C  C372  1  0.220500  0.238900  0.966100  1
  C  C373  1  0.797400  0.828200  0.539200  1
  C  C374  1  0.828200  0.797400  0.039200  1
  C  C375  1  0.202600  0.171800  0.460800  1
  C  C376  1  0.171800  0.202600  0.960800  1
  C  C377  1  0.834500  0.141300  0.168500  1
  C  C378  1  0.141300  0.834500  0.668500  1
  C  C379  1  0.165500  0.858700  0.831500  1
  C  C380  1  0.858700  0.165500  0.331500  1
  C  C381  1  0.885400  0.136600  0.165500  1
  C  C382  1  0.136600  0.885400  0.665500  1
  C  C383  1  0.114600  0.863400  0.834500  1
  C  C384  1  0.863400  0.114600  0.334500  1
  C  C385  1  0.770500  0.351100  0.927300  1
  C  C386  1  0.351100  0.770500  0.427300  1
  C  C387  1  0.229500  0.648900  0.072700  1
  C  C388  1  0.648900  0.229500  0.572700  1
  C  C389  1  0.730300  0.329300  0.945400  1
  C  C390  1  0.329300  0.730300  0.445400  1
  C  C391  1  0.269700  0.670700  0.054600  1
  C  C392  1  0.670700  0.269700  0.554600  1
  C  C393  1  0.623500  0.921300  0.184700  1
  C  C394  1  0.921300  0.623500  0.684700  1
  C  C395  1  0.376500  0.078700  0.815300  1
  C  C396  1  0.078700  0.376500  0.315300  1
  C  C397  1  0.630000  0.868600  0.179800  1
  C  C398  1  0.868600  0.630000  0.679800  1
  C  C399  1  0.370000  0.131400  0.820200  1
  C  C400  1  0.131400  0.370000  0.320200  1
  C  C401  1  0.579000  0.897400  0.455700  1
  C  C402  1  0.897400  0.579000  0.955700  1
  C  C403  1  0.421000  0.102600  0.544300  1
  C  C404  1  0.102600  0.421000  0.044300  1
  C  C405  1  0.595500  0.953100  0.463700  1
  C  C406  1  0.953100  0.595500  0.963700  1
  C  C407  1  0.404500  0.046900  0.536300  1
  C  C408  1  0.046900  0.404500  0.036300  1
  C  C409  1  0.539700  0.201900  0.712300  1
  C  C410  1  0.201900  0.539700  0.212300  1
  C  C411  1  0.460300  0.798100  0.287700  1
  C  C412  1  0.798100  0.460300  0.787700  1
  C  C413  1  0.564200  0.195800  0.673100  1
  C  C414  1  0.195800  0.564200  0.173100  1
  C  C415  1  0.435800  0.804200  0.326900  1
  C  C416  1  0.804200  0.435800  0.826900  1
  C  C417  1  0.049700  0.317700  0.663500  1
  C  C418  1  0.317700  0.049700  0.163500  1
  C  C419  1  0.950300  0.682300  0.336500  1
  C  C420  1  0.682300  0.950300  0.836500  1
  C  C421  1  0.749100  0.519700  0.886500  1
  C  C422  1  0.519700  0.749100  0.386500  1
  C  C423  1  0.250900  0.480300  0.113500  1
  C  C424  1  0.480300  0.250900  0.613500  1
  C  C425  1  0.035200  0.077200  0.894000  1
  C  C426  1  0.077200  0.035200  0.394000  1
  C  C427  1  0.964800  0.922800  0.106000  1
  C  C428  1  0.922800  0.964800  0.606000  1
  C  C429  1  0.965700  0.042700  0.199800  1
  C  C430  1  0.042700  0.965700  0.699800  1
  C  C431  1  0.034300  0.957300  0.800200  1
  C  C432  1  0.957300  0.034300  0.300200  1
  C  C433  1  0.661200  0.632800  0.970000  1
  C  C434  1  0.632800  0.661200  0.470000  1
  C  C435  1  0.338800  0.367200  0.030000  1
  C  C436  1  0.367200  0.338800  0.530000  1
  C  C437  1  0.639900  0.383900  0.873100  1
  C  C438  1  0.383900  0.639900  0.373100  1
  C  C439  1  0.360100  0.616100  0.126900  1
  C  C440  1  0.616100  0.360100  0.626900  1
  C  C441  1  0.324200  0.556800  0.422600  1
  C  C442  1  0.556800  0.324200  0.922600  1
  C  C443  1  0.675800  0.443200  0.577400  1
  C  C444  1  0.443200  0.675800  0.077400  1
  C  C445  1  0.336100  0.663900  0.586800  1
  C  C446  1  0.663900  0.336100  0.086800  1
  C  C447  1  0.663900  0.336100  0.413200  1
  C  C448  1  0.336100  0.663900  0.913200  1
  C  C449  1  0.387900  0.721700  0.713800  1
  C  C450  1  0.721700  0.387900  0.213800  1
  C  C451  1  0.612100  0.278300  0.286200  1
  C  C452  1  0.278300  0.612100  0.786200  1
  C  C453  1  0.662100  0.589900  0.109000  1
  C  C454  1  0.589900  0.662100  0.609000  1
  C  C455  1  0.337900  0.410100  0.891000  1
  C  C456  1  0.410100  0.337900  0.391000  1
  C  C457  1  0.524600  0.639400  0.730500  1
  C  C458  1  0.639400  0.524600  0.230500  1
  C  C459  1  0.475400  0.360600  0.269500  1
  C  C460  1  0.360600  0.475400  0.769500  1
  C  C461  1  0.244700  0.746900  0.785400  1
  C  C462  1  0.746900  0.244700  0.285400  1
  C  C463  1  0.755300  0.253100  0.214600  1
  C  C464  1  0.253100  0.755300  0.714600  1
  H  H465  1  0.495600  0.954400  0.882600  1
  H  H466  1  0.954400  0.495600  0.382600  1
  H  H467  1  0.504400  0.045600  0.117400  1
  H  H468  1  0.045600  0.504400  0.617400  1
  H  H469  1  0.619100  0.073300  0.867800  1
  H  H470  1  0.073300  0.619100  0.367800  1
  H  H471  1  0.380900  0.926700  0.132200  1
  H  H472  1  0.926700  0.380900  0.632200  1
  H  H473  1  0.628300  0.026500  0.994600  1
  H  H474  1  0.026500  0.628300  0.494600  1
  H  H475  1  0.371700  0.973500  0.005400  1
  H  H476  1  0.973500  0.371700  0.505400  1
  H  H477  1  0.603900  0.945100  0.008300  1
  H  H478  1  0.945100  0.603900  0.508300  1
  H  H479  1  0.396100  0.054900  0.991700  1
  H  H480  1  0.054900  0.396100  0.491700  1
  H  H481  1  0.459000  0.947000  0.950400  1
  H  H482  1  0.947000  0.459000  0.450400  1
  H  H483  1  0.541000  0.053000  0.049600  1
  H  H484  1  0.053000  0.541000  0.549600  1
  H  H485  1  0.422200  0.885000  0.998100  1
  H  H486  1  0.885000  0.422200  0.498100  1
  H  H487  1  0.577800  0.115000  0.001900  1
  H  H488  1  0.115000  0.577800  0.501900  1
  H  H489  1  0.483100  0.859500  0.049900  1
  H  H490  1  0.859500  0.483100  0.549900  1
  H  H491  1  0.516900  0.140500  0.950100  1
  H  H492  1  0.140500  0.516900  0.450100  1
  H  H493  1  0.578800  0.068800  0.797200  1
  H  H494  1  0.068800  0.578800  0.297200  1
  H  H495  1  0.421200  0.931200  0.202800  1
  H  H496  1  0.931200  0.421200  0.702800  1
  H  H497  1  0.450300  0.968700  0.820400  1
  H  H498  1  0.968700  0.450300  0.320400  1
  H  H499  1  0.549700  0.031300  0.179600  1
  H  H500  1  0.031300  0.549700  0.679600  1
  H  H501  1  0.404700  0.961900  0.741000  1
  H  H502  1  0.961900  0.404700  0.241000  1
  H  H503  1  0.595300  0.038100  0.259000  1
  H  H504  1  0.038100  0.595300  0.759000  1
  H  H505  1  0.444900  0.022100  0.698100  1
  H  H506  1  0.022100  0.444900  0.198100  1
  H  H507  1  0.555100  0.977900  0.301900  1
  H  H508  1  0.977900  0.555100  0.801900  1
  H  H509  1  0.718100  0.056900  0.000000  1
  H  H510  1  0.056900  0.718100  0.500000  1
  H  H511  1  0.281900  0.943100  0.000000  1
  H  H512  1  0.943100  0.281900  0.500000  1
  H  H513  1  0.685300  0.155300  0.917700  1
  H  H514  1  0.155300  0.685300  0.417700  1
  H  H515  1  0.314700  0.844700  0.082300  1
  H  H516  1  0.844700  0.314700  0.582300  1
  H  H517  1  0.843400  0.246400  0.007300  1
  H  H518  1  0.246400  0.843400  0.507300  1
  H  H519  1  0.156600  0.753600  0.992700  1
  H  H520  1  0.753600  0.156600  0.492700  1
  H  H521  1  0.867800  0.202600  0.015800  1
  H  H522  1  0.202600  0.867800  0.515800  1
  H  H523  1  0.132200  0.797400  0.984200  1
  H  H524  1  0.797400  0.132200  0.484200  1
  H  H525  1  0.843400  0.226600  0.056700  1
  H  H526  1  0.226600  0.843400  0.556700  1
  H  H527  1  0.156600  0.773400  0.943300  1
  H  H528  1  0.773400  0.156600  0.443300  1
  H  H529  1  0.850900  0.895500  0.920700  1
  H  H530  1  0.895500  0.850900  0.420700  1
  H  H531  1  0.149100  0.104500  0.079300  1
  H  H532  1  0.104500  0.149100  0.579300  1
  H  H533  1  0.724800  0.774800  0.923500  1
  H  H534  1  0.774800  0.724800  0.423500  1
  H  H535  1  0.275200  0.225200  0.076500  1
  H  H536  1  0.225200  0.275200  0.576500  1
  H  H537  1  0.731500  0.920500  0.977900  1
  H  H538  1  0.920500  0.731500  0.477900  1
  H  H539  1  0.268500  0.079500  0.022100  1
  H  H540  1  0.079500  0.268500  0.522100  1
  H  H541  1  0.799200  0.004600  0.021000  1
  H  H542  1  0.004600  0.799200  0.521000  1
  H  H543  1  0.200800  0.995400  0.979000  1
  H  H544  1  0.995400  0.200800  0.479000  1
  H  H545  1  0.854300  0.976700  0.897700  1
  H  H546  1  0.976700  0.854300  0.397700  1
  H  H547  1  0.145700  0.023300  0.102300  1
  H  H548  1  0.023300  0.145700  0.602300  1
  H  H549  1  0.892000  0.062800  0.913200  1
  H  H550  1  0.062800  0.892000  0.413200  1
  H  H551  1  0.108000  0.937200  0.086800  1
  H  H552  1  0.937200  0.108000  0.586800  1
  H  H553  1  0.891000  0.125600  0.983700  1
  H  H554  1  0.125600  0.891000  0.483700  1
  H  H555  1  0.109000  0.874400  0.016300  1
  H  H556  1  0.874400  0.109000  0.516300  1
  H  H557  1  0.739800  0.745200  0.839300  1
  H  H558  1  0.745200  0.739800  0.339300  1
  H  H559  1  0.260200  0.254800  0.160700  1
  H  H560  1  0.254800  0.260200  0.660700  1
  H  H561  1  0.883700  0.825700  0.928000  1
  H  H562  1  0.825700  0.883700  0.428000  1
  H  H563  1  0.116300  0.174300  0.072000  1
  H  H564  1  0.174300  0.116300  0.572000  1
  H  H565  1  0.915400  0.769400  0.882800  1
  H  H566  1  0.769400  0.915400  0.382800  1
  H  H567  1  0.084600  0.230600  0.117200  1
  H  H568  1  0.230600  0.084600  0.617200  1
  H  H569  1  0.859900  0.704100  0.814200  1
  H  H570  1  0.704100  0.859900  0.314200  1
  H  H571  1  0.140100  0.295900  0.185800  1
  H  H572  1  0.295900  0.140100  0.685800  1
  H  H573  1  0.639900  0.756700  0.919400  1
  H  H574  1  0.756700  0.639900  0.419400  1
  H  H575  1  0.360100  0.243300  0.080600  1
  H  H576  1  0.243300  0.360100  0.580600  1
  H  H577  1  0.683400  0.887200  0.027800  1
  H  H578  1  0.887200  0.683400  0.527800  1
  H  H579  1  0.316600  0.112800  0.972200  1
  H  H580  1  0.112800  0.316600  0.472200  1
  H  H581  1  0.525300  0.784900  0.040900  1
  H  H582  1  0.784900  0.525300  0.540900  1
  H  H583  1  0.474700  0.215100  0.959100  1
  H  H584  1  0.215100  0.474700  0.459100  1
  H  H585  1  0.525700  0.727300  0.020700  1
  H  H586  1  0.727300  0.525700  0.520700  1
  H  H587  1  0.474300  0.272700  0.979300  1
  H  H588  1  0.272700  0.474300  0.479300  1
  H  H589  1  0.496000  0.753200  0.985300  1
  H  H590  1  0.753200  0.496000  0.485300  1
  H  H591  1  0.504000  0.246800  0.014700  1
  H  H592  1  0.246800  0.504000  0.514700  1
  H  H593  1  0.487300  0.796500  0.718000  1
  H  H594  1  0.796500  0.487300  0.218000  1
  H  H595  1  0.512700  0.203500  0.282000  1
  H  H596  1  0.203500  0.512700  0.782000  1
  H  H597  1  0.605400  0.804800  0.651500  1
  H  H598  1  0.804800  0.605400  0.151500  1
  H  H599  1  0.394600  0.195200  0.348500  1
  H  H600  1  0.195200  0.394600  0.848500  1
  H  H601  1  0.612100  0.761500  0.784200  1
  H  H602  1  0.761500  0.612100  0.284200  1
  H  H603  1  0.387900  0.238500  0.215800  1
  H  H604  1  0.238500  0.387900  0.715800  1
  H  H605  1  0.546200  0.715400  0.816800  1
  H  H606  1  0.715400  0.546200  0.316800  1
  H  H607  1  0.453800  0.284600  0.183200  1
  H  H608  1  0.284600  0.453800  0.683200  1
  H  H609  1  0.497000  0.838800  0.807000  1
  H  H610  1  0.838800  0.497000  0.307000  1
  H  H611  1  0.503000  0.161200  0.193000  1
  H  H612  1  0.161200  0.503000  0.693000  1
  H  H613  1  0.459900  0.827100  0.874900  1
  H  H614  1  0.827100  0.459900  0.374900  1
  H  H615  1  0.540100  0.172900  0.125100  1
  H  H616  1  0.172900  0.540100  0.625100  1
  H  H617  1  0.465900  0.759500  0.913700  1
  H  H618  1  0.759500  0.465900  0.413700  1
  H  H619  1  0.534100  0.240500  0.086300  1
  H  H620  1  0.240500  0.534100  0.586300  1
  H  H621  1  0.583800  0.874800  0.629900  1
  H  H622  1  0.874800  0.583800  0.129900  1
  H  H623  1  0.416200  0.125200  0.370100  1
  H  H624  1  0.125200  0.416200  0.870100  1
  H  H625  1  0.439400  0.771200  0.630900  1
  H  H626  1  0.771200  0.439400  0.130900  1
  H  H627  1  0.560600  0.228800  0.369100  1
  H  H628  1  0.228800  0.560600  0.869100  1
  H  H629  1  0.399800  0.802000  0.563900  1
  H  H630  1  0.802000  0.399800  0.063900  1
  H  H631  1  0.600200  0.198000  0.436100  1
  H  H632  1  0.198000  0.600200  0.936100  1
  H  H633  1  0.457700  0.870900  0.540600  1
  H  H634  1  0.870900  0.457700  0.040600  1
  H  H635  1  0.542300  0.129100  0.459400  1
  H  H636  1  0.129100  0.542300  0.959400  1
  H  H637  1  0.662700  0.712900  0.752700  1
  H  H638  1  0.712900  0.662700  0.252700  1
  H  H639  1  0.337300  0.287100  0.247300  1
  H  H640  1  0.287100  0.337300  0.747300  1
  H  H641  1  0.687300  0.818300  0.669800  1
  H  H642  1  0.818300  0.687300  0.169800  1
  H  H643  1  0.312700  0.181700  0.330200  1
  H  H644  1  0.181700  0.312700  0.830200  1
  H  H645  1  0.823300  0.763500  0.676600  1
  H  H646  1  0.763500  0.823300  0.176600  1
  H  H647  1  0.176700  0.236500  0.323400  1
  H  H648  1  0.236500  0.176700  0.823400  1
  H  H649  1  0.792200  0.703200  0.675600  1
  H  H650  1  0.703200  0.792200  0.175600  1
  H  H651  1  0.207800  0.296800  0.324400  1
  H  H652  1  0.296800  0.207800  0.824400  1
  H  H653  1  0.828300  0.743900  0.726100  1
  H  H654  1  0.743900  0.828300  0.226100  1
  H  H655  1  0.171700  0.256100  0.273900  1
  H  H656  1  0.256100  0.171700  0.773900  1
  H  H657  1  0.864900  0.076700  0.803700  1
  H  H658  1  0.076700  0.864900  0.303700  1
  H  H659  1  0.135100  0.923300  0.196300  1
  H  H660  1  0.923300  0.135100  0.696300  1
  H  H661  1  0.739700  0.978900  0.689700  1
  H  H662  1  0.978900  0.739700  0.189700  1
  H  H663  1  0.260300  0.021100  0.310300  1
  H  H664  1  0.021100  0.260300  0.810300  1
  H  H665  1  0.740000  0.121800  0.763600  1
  H  H666  1  0.121800  0.740000  0.263600  1
  H  H667  1  0.260000  0.878200  0.236400  1
  H  H668  1  0.878200  0.260000  0.736400  1
  H  H669  1  0.763600  0.159400  0.848000  1
  H  H670  1  0.159400  0.763600  0.348000  1
  H  H671  1  0.236400  0.840600  0.152000  1
  H  H672  1  0.840600  0.236400  0.652000  1
  H  H673  1  0.902500  0.161300  0.828100  1
  H  H674  1  0.161300  0.902500  0.328100  1
  H  H675  1  0.097500  0.838700  0.171900  1
  H  H676  1  0.838700  0.097500  0.671900  1
  H  H677  1  0.948000  0.240800  0.896300  1
  H  H678  1  0.240800  0.948000  0.396300  1
  H  H679  1  0.052000  0.759200  0.103700  1
  H  H680  1  0.759200  0.052000  0.603700  1
  H  H681  1  0.890000  0.282400  0.931900  1
  H  H682  1  0.282400  0.890000  0.431900  1
  H  H683  1  0.110000  0.717600  0.068100  1
  H  H684  1  0.717600  0.110000  0.568100  1
  H  H685  1  0.767800  0.921400  0.689500  1
  H  H686  1  0.921400  0.767800  0.189500  1
  H  H687  1  0.232200  0.078600  0.310500  1
  H  H688  1  0.078600  0.232200  0.810500  1
  H  H689  1  0.909500  0.031100  0.772900  1
  H  H690  1  0.031100  0.909500  0.272900  1
  H  H691  1  0.090500  0.968900  0.227100  1
  H  H692  1  0.968900  0.090500  0.727100  1
  H  H693  1  0.944600  0.961000  0.752100  1
  H  H694  1  0.961000  0.944600  0.252100  1
  H  H695  1  0.055400  0.039000  0.247900  1
  H  H696  1  0.039000  0.055400  0.747900  1
  H  H697  1  0.897900  0.884300  0.701200  1
  H  H698  1  0.884300  0.897900  0.201200  1
  H  H699  1  0.102100  0.115700  0.298800  1
  H  H700  1  0.115700  0.102100  0.798800  1
  H  H701  1  0.652300  0.088100  0.737900  1
  H  H702  1  0.088100  0.652300  0.237900  1
  H  H703  1  0.347700  0.911900  0.262100  1
  H  H704  1  0.911900  0.347700  0.762100  1
  H  H705  1  0.673500  0.981900  0.633900  1
  H  H706  1  0.981900  0.673500  0.133900  1
  H  H707  1  0.326500  0.018100  0.366100  1
  H  H708  1  0.018100  0.326500  0.866100  1
  H  H709  1  0.507900  0.973100  0.576900  1
  H  H710  1  0.973100  0.507900  0.076900  1
  H  H711  1  0.492100  0.026900  0.423100  1
  H  H712  1  0.026900  0.492100  0.923100  1
  H  H713  1  0.510600  0.032200  0.595600  1
  H  H714  1  0.032200  0.510600  0.095600  1
  H  H715  1  0.489400  0.967800  0.404400  1
  H  H716  1  0.967800  0.489400  0.904400  1
  H  H717  1  0.487900  0.988700  0.624600  1
  H  H718  1  0.988700  0.487900  0.124600  1
  H  H719  1  0.512100  0.011300  0.375400  1
  H  H720  1  0.011300  0.512100  0.875400  1
  H  H721  1  0.657100  0.612500  0.701000  1
  H  H722  1  0.612500  0.657100  0.201000  1
  H  H723  1  0.342900  0.387500  0.299000  1
  H  H724  1  0.387500  0.342900  0.799000  1
  H  H725  1  0.699200  0.614800  0.674500  1
  H  H726  1  0.614800  0.699200  0.174500  1
  H  H727  1  0.300800  0.385200  0.325500  1
  H  H728  1  0.385200  0.300800  0.825500  1
  H  H729  1  0.785200  0.604000  0.782500  1
  H  H730  1  0.604000  0.785200  0.282500  1
  H  H731  1  0.214800  0.396000  0.217500  1
  H  H732  1  0.396000  0.214800  0.717500  1
  H  H733  1  0.750900  0.608900  0.816600  1
  H  H734  1  0.608900  0.750900  0.316600  1
  H  H735  1  0.249100  0.391100  0.183400  1
  H  H736  1  0.391100  0.249100  0.683400  1
  H  H737  1  0.648200  0.536200  0.701400  1
  H  H738  1  0.536200  0.648200  0.201400  1
  H  H739  1  0.351800  0.463800  0.298600  1
  H  H740  1  0.463800  0.351800  0.798600  1
  H  H741  1  0.700600  0.543200  0.682400  1
  H  H742  1  0.543200  0.700600  0.182400  1
  H  H743  1  0.299400  0.456800  0.317600  1
  H  H744  1  0.456800  0.299400  0.817600  1
  H  H745  1  0.687700  0.546500  0.776100  1
  H  H746  1  0.546500  0.687700  0.276100  1
  H  H747  1  0.312300  0.453500  0.223900  1
  H  H748  1  0.453500  0.312300  0.723900  1
  H  H749  1  0.730400  0.531200  0.752400  1
  H  H750  1  0.531200  0.730400  0.252400  1
  H  H751  1  0.269600  0.468800  0.247600  1
  H  H752  1  0.468800  0.269600  0.747600  1
  H  H753  1  0.442500  0.620500  0.857200  1
  H  H754  1  0.620500  0.442500  0.357200  1
  H  H755  1  0.557500  0.379500  0.142800  1
  H  H756  1  0.379500  0.557500  0.642800  1
  H  H757  1  0.485600  0.610000  0.837500  1
  H  H758  1  0.610000  0.485600  0.337500  1
  H  H759  1  0.514400  0.390000  0.162500  1
  H  H760  1  0.390000  0.514400  0.662500  1
  H  H761  1  0.580000  0.642200  0.958000  1
  H  H762  1  0.642200  0.580000  0.458000  1
  H  H763  1  0.420000  0.357800  0.042000  1
  H  H764  1  0.357800  0.420000  0.542000  1
  H  H765  1  0.532100  0.635700  0.977000  1
  H  H766  1  0.635700  0.532100  0.477000  1
  H  H767  1  0.467900  0.364300  0.023000  1
  H  H768  1  0.364300  0.467900  0.523000  1
  H  H769  1  0.445100  0.573900  0.911700  1
  H  H770  1  0.573900  0.445100  0.411700  1
  H  H771  1  0.554900  0.426100  0.088300  1
  H  H772  1  0.426100  0.554900  0.588300  1
  H  H773  1  0.453100  0.539500  0.864600  1
  H  H774  1  0.539500  0.453100  0.364600  1
  H  H775  1  0.546900  0.460500  0.135400  1
  H  H776  1  0.460500  0.546900  0.635400  1
  H  H777  1  0.540400  0.569400  0.895500  1
  H  H778  1  0.569400  0.540400  0.395500  1
  H  H779  1  0.459600  0.430600  0.104500  1
  H  H780  1  0.430600  0.459600  0.604500  1
  H  H781  1  0.513100  0.551300  0.938200  1
  H  H782  1  0.551300  0.513100  0.438200  1
  H  H783  1  0.486900  0.448700  0.061800  1
  H  H784  1  0.448700  0.486900  0.561800  1
  H  H785  1  0.752400  0.736200  0.580800  1
  H  H786  1  0.736200  0.752400  0.080800  1
  H  H787  1  0.247600  0.263800  0.419200  1
  H  H788  1  0.263800  0.247600  0.919200  1
  H  H789  1  0.710000  0.758200  0.572400  1
  H  H790  1  0.758200  0.710000  0.072400  1
  H  H791  1  0.290000  0.241800  0.427600  1
  H  H792  1  0.241800  0.290000  0.927600  1
  H  H793  1  0.817800  0.895000  0.587400  1
  H  H794  1  0.895000  0.817800  0.087400  1
  H  H795  1  0.182200  0.105000  0.412600  1
  H  H796  1  0.105000  0.182200  0.912600  1
  H  H797  1  0.857800  0.869800  0.594300  1
  H  H798  1  0.869800  0.857800  0.094300  1
  H  H799  1  0.142200  0.130200  0.405700  1
  H  H800  1  0.130200  0.142200  0.905700  1
  H  H801  1  0.775000  0.753200  0.519400  1
  H  H802  1  0.753200  0.775000  0.019400  1
  H  H803  1  0.225000  0.246800  0.480600  1
  H  H804  1  0.246800  0.225000  0.980600  1
  H  H805  1  0.728900  0.775700  0.509800  1
  H  H806  1  0.775700  0.728900  0.009800  1
  H  H807  1  0.271100  0.224300  0.490200  1
  H  H808  1  0.224300  0.271100  0.990200  1
  H  H809  1  0.780400  0.846600  0.519000  1
  H  H810  1  0.846600  0.780400  0.019000  1
  H  H811  1  0.219600  0.153400  0.481000  1
  H  H812  1  0.153400  0.219600  0.981000  1
  H  H813  1  0.825900  0.823300  0.524400  1
  H  H814  1  0.823300  0.825900  0.024400  1
  H  H815  1  0.174100  0.176700  0.475600  1
  H  H816  1  0.176700  0.174100  0.975600  1
  H  H817  1  0.830200  0.191200  0.125600  1
  H  H818  1  0.191200  0.830200  0.625600  1
  H  H819  1  0.169800  0.808800  0.874400  1
  H  H820  1  0.808800  0.169800  0.374400  1
  H  H821  1  0.778200  0.148000  0.117800  1
  H  H822  1  0.148000  0.778200  0.617800  1
  H  H823  1  0.221800  0.852000  0.882200  1
  H  H824  1  0.852000  0.221800  0.382200  1
  H  H825  1  0.865000  0.063800  0.117600  1
  H  H826  1  0.063800  0.865000  0.617600  1
  H  H827  1  0.135000  0.936200  0.882400  1
  H  H828  1  0.936200  0.135000  0.382400  1
  H  H829  1  0.911100  0.104300  0.108300  1
  H  H830  1  0.104300  0.911100  0.608300  1
  H  H831  1  0.088900  0.895700  0.891700  1
  H  H832  1  0.895700  0.088900  0.391700  1
  H  H833  1  0.839300  0.168900  0.197800  1
  H  H834  1  0.168900  0.839300  0.697800  1
  H  H835  1  0.160700  0.831100  0.802200  1
  H  H836  1  0.831100  0.160700  0.302200  1
  H  H837  1  0.809300  0.107300  0.170900  1
  H  H838  1  0.107300  0.809300  0.670900  1
  H  H839  1  0.190700  0.892700  0.829100  1
  H  H840  1  0.892700  0.190700  0.329100  1
  H  H841  1  0.898200  0.123000  0.193000  1
  H  H842  1  0.123000  0.898200  0.693000  1
  H  H843  1  0.101800  0.877000  0.807000  1
  H  H844  1  0.877000  0.101800  0.307000  1
  H  H845  1  0.911800  0.171800  0.167900  1
  H  H846  1  0.171800  0.911800  0.667900  1
  H  H847  1  0.088200  0.828200  0.832100  1
  H  H848  1  0.828200  0.088200  0.332100  1
  H  H849  1  0.828600  0.332000  0.911400  1
  H  H850  1  0.332000  0.828600  0.411400  1
  H  H851  1  0.171400  0.668000  0.088600  1
  H  H852  1  0.668000  0.171400  0.588600  1
  H  H853  1  0.779200  0.305400  0.872000  1
  H  H854  1  0.305400  0.779200  0.372000  1
  H  H855  1  0.220800  0.694600  0.128000  1
  H  H856  1  0.694600  0.220800  0.628000  1
  H  H857  1  0.696500  0.257100  0.959400  1
  H  H858  1  0.257100  0.696500  0.459400  1
  H  H859  1  0.303500  0.742900  0.040600  1
  H  H860  1  0.742900  0.303500  0.540600  1
  H  H861  1  0.743800  0.291800  0.999400  1
  H  H862  1  0.291800  0.743800  0.499400  1
  H  H863  1  0.256200  0.708200  0.000600  1
  H  H864  1  0.708200  0.256200  0.500600  1
  H  H865  1  0.798400  0.379000  0.954000  1
  H  H866  1  0.379000  0.798400  0.454000  1
  H  H867  1  0.201600  0.621000  0.046000  1
  H  H868  1  0.621000  0.201600  0.546000  1
  H  H869  1  0.758800  0.368400  0.902300  1
  H  H870  1  0.368400  0.758800  0.402300  1
  H  H871  1  0.241200  0.631600  0.097700  1
  H  H872  1  0.631600  0.241200  0.597700  1
  H  H873  1  0.697400  0.318200  0.919300  1
  H  H874  1  0.318200  0.697400  0.419300  1
  H  H875  1  0.302600  0.681800  0.080700  1
  H  H876  1  0.681800  0.302600  0.580700  1
  H  H877  1  0.728900  0.356700  0.971900  1
  H  H878  1  0.356700  0.728900  0.471900  1
  H  H879  1  0.271100  0.643300  0.028100  1
  H  H880  1  0.643300  0.271100  0.528100  1
  H  H881  1  0.587400  0.951600  0.135800  1
  H  H882  1  0.951600  0.587400  0.635800  1
  H  H883  1  0.412600  0.048400  0.864200  1
  H  H884  1  0.048400  0.412600  0.364200  1
  H  H885  1  0.549700  0.902300  0.142700  1
  H  H886  1  0.902300  0.549700  0.642700  1
  H  H887  1  0.450300  0.097700  0.857300  1
  H  H888  1  0.097700  0.450300  0.357300  1
  H  H889  1  0.635600  0.821600  0.119800  1
  H  H890  1  0.821600  0.635600  0.619800  1
  H  H891  1  0.364400  0.178400  0.880200  1
  H  H892  1  0.178400  0.364400  0.380200  1
  H  H893  1  0.675900  0.875900  0.131300  1
  H  H894  1  0.875900  0.675900  0.631300  1
  H  H895  1  0.324100  0.124100  0.868700  1
  H  H896  1  0.124100  0.324100  0.368700  1
  H  H897  1  0.611000  0.929600  0.214500  1
  H  H898  1  0.929600  0.611000  0.714500  1
  H  H899  1  0.389000  0.070400  0.785500  1
  H  H900  1  0.070400  0.389000  0.285500  1
  H  H901  1  0.657700  0.949500  0.187700  1
  H  H902  1  0.949500  0.657700  0.687700  1
  H  H903  1  0.342300  0.050500  0.812300  1
  H  H904  1  0.050500  0.342300  0.312300  1
  H  H905  1  0.659800  0.870600  0.205900  1
  H  H906  1  0.870600  0.659800  0.705900  1
  H  H907  1  0.340200  0.129400  0.794100  1
  H  H908  1  0.129400  0.340200  0.294100  1
  H  H909  1  0.597500  0.840900  0.181600  1
  H  H910  1  0.840900  0.597500  0.681600  1
  H  H911  1  0.402500  0.159100  0.818400  1
  H  H912  1  0.159100  0.402500  0.318400  1
  H  H913  1  0.544200  0.844600  0.491200  1
  H  H914  1  0.844600  0.544200  0.991200  1
  H  H915  1  0.455800  0.155400  0.508800  1
  H  H916  1  0.155400  0.455800  0.008800  1
  H  H917  1  0.509600  0.872600  0.473600  1
  H  H918  1  0.872600  0.509600  0.973600  1
  H  H919  1  0.490400  0.127400  0.526400  1
  H  H920  1  0.127400  0.490400  0.026400  1
  H  H921  1  0.617800  0.012400  0.526500  1
  H  H922  1  0.012400  0.617800  0.026500  1
  H  H923  1  0.382200  0.987600  0.473500  1
  H  H924  1  0.987600  0.382200  0.973500  1
  H  H925  1  0.652800  0.981200  0.528400  1
  H  H926  1  0.981200  0.652800  0.028400  1
  H  H927  1  0.347200  0.018800  0.471600  1
  H  H928  1  0.018800  0.347200  0.971600  1
  H  H929  1  0.610400  0.887600  0.462500  1
  H  H930  1  0.887600  0.610400  0.962500  1
  H  H931  1  0.389600  0.112400  0.537500  1
  H  H932  1  0.112400  0.389600  0.037500  1
  H  H933  1  0.560100  0.880700  0.420900  1
  H  H934  1  0.880700  0.560100  0.920900  1
  H  H935  1  0.439900  0.119300  0.579100  1
  H  H936  1  0.119300  0.439900  0.079100  1
  H  H937  1  0.565100  0.962900  0.451500  1
  H  H938  1  0.962900  0.565100  0.951500  1
  H  H939  1  0.434900  0.037100  0.548500  1
  H  H940  1  0.037100  0.434900  0.048500  1
  H  H941  1  0.622600  0.966000  0.445500  1
  H  H942  1  0.966000  0.622600  0.945500  1
  H  H943  1  0.377400  0.034000  0.554500  1
  H  H944  1  0.034000  0.377400  0.054500  1
  H  H945  1  0.481300  0.136500  0.710400  1
  H  H946  1  0.136500  0.481300  0.210400  1
  H  H947  1  0.518700  0.863500  0.289600  1
  H  H948  1  0.863500  0.518700  0.789600  1
  H  H949  1  0.519900  0.158100  0.759000  1
  H  H950  1  0.158100  0.519900  0.259000  1
  H  H951  1  0.480100  0.841900  0.241000  1
  H  H952  1  0.841900  0.480100  0.741000  1
  H  H953  1  0.624700  0.172100  0.687500  1
  H  H954  1  0.172100  0.624700  0.187500  1
  H  H955  1  0.375300  0.827900  0.312500  1
  H  H956  1  0.827900  0.375300  0.812500  1
  H  H957  1  0.586600  0.140200  0.640000  1
  H  H958  1  0.140200  0.586600  0.140000  1
  H  H959  1  0.413400  0.859800  0.360000  1
  H  H960  1  0.859800  0.413400  0.860000  1
  H  H961  1  0.511600  0.215600  0.702700  1
  H  H962  1  0.215600  0.511600  0.202700  1
  H  H963  1  0.488400  0.784400  0.297300  1
  H  H964  1  0.784400  0.488400  0.797300  1
  H  H965  1  0.566100  0.227900  0.741200  1
  H  H966  1  0.227900  0.566100  0.241200  1
  H  H967  1  0.433900  0.772100  0.258800  1
  H  H968  1  0.772100  0.433900  0.758800  1
  H  H969  1  0.591400  0.230400  0.674900  1
  H  H970  1  0.230400  0.591400  0.174900  1
  H  H971  1  0.408600  0.769600  0.325100  1
  H  H972  1  0.769600  0.408600  0.825100  1
  H  H973  1  0.537400  0.186000  0.641800  1
  H  H974  1  0.186000  0.537400  0.141800  1
  H  H975  1  0.462600  0.814000  0.358200  1
  H  H976  1  0.814000  0.462600  0.858200  1
  N  N977  1  0.546800  0.898000  0.033200  1
  N  N978  1  0.898000  0.546800  0.533200  1
  N  N979  1  0.453200  0.102000  0.966800  1
  N  N980  1  0.102000  0.453200  0.466800  1
  N  N981  1  0.514200  0.049000  0.743300  1
  N  N982  1  0.049000  0.514200  0.243300  1
  N  N983  1  0.485800  0.951000  0.256700  1
  N  N984  1  0.951000  0.485800  0.756700  1
  N  N985  1  0.773200  0.128800  0.010800  1
  N  N986  1  0.128800  0.773200  0.510800  1
  N  N987  1  0.226800  0.871200  0.989200  1
  N  N988  1  0.871200  0.226800  0.489200  1
  N  N989  1  0.755400  0.183800  0.961800  1
  N  N990  1  0.183800  0.755400  0.461800  1
  N  N991  1  0.244600  0.816200  0.038200  1
  N  N992  1  0.816200  0.244600  0.538200  1
  N  N993  1  0.842600  0.066200  0.007300  1
  N  N994  1  0.066200  0.842600  0.507300  1
  N  N995  1  0.157400  0.933800  0.992700  1
  N  N996  1  0.933800  0.157400  0.492700  1
  N  N997  1  0.792400  0.720000  0.819300  1
  N  N998  1  0.720000  0.792400  0.319300  1
  N  N999  1  0.207600  0.280000  0.180700  1
  N  N1000  1  0.280000  0.207600  0.680700  1
  N  N1001  1  0.612900  0.832500  0.021000  1
  N  N1002  1  0.832500  0.612900  0.521000  1
  N  N1003  1  0.387100  0.167500  0.979000  1
  N  N1004  1  0.167500  0.387100  0.479000  1
  N  N1005  1  0.583100  0.753100  0.956400  1
  N  N1006  1  0.753100  0.583100  0.456400  1
  N  N1007  1  0.416900  0.246900  0.043600  1
  N  N1008  1  0.246900  0.416900  0.543600  1
  N  N1009  1  0.506700  0.730700  0.869100  1
  N  N1010  1  0.730700  0.506700  0.369100  1
  N  N1011  1  0.493300  0.269300  0.130900  1
  N  N1012  1  0.269300  0.493300  0.630900  1
  N  N1013  1  0.524700  0.877300  0.582100  1
  N  N1014  1  0.877300  0.524700  0.082100  1
  N  N1015  1  0.475300  0.122700  0.417900  1
  N  N1016  1  0.122700  0.475300  0.917900  1
  N  N1017  1  0.726600  0.724600  0.728700  1
  N  N1018  1  0.724600  0.726600  0.228700  1
  N  N1019  1  0.273400  0.275400  0.271300  1
  N  N1020  1  0.275400  0.273400  0.771300  1
  N  N1021  1  0.746800  0.787600  0.682400  1
  N  N1022  1  0.787600  0.746800  0.182400  1
  N  N1023  1  0.253200  0.212400  0.317600  1
  N  N1024  1  0.212400  0.253200  0.817600  1
  N  N1025  1  0.824300  0.219500  0.895000  1
  N  N1026  1  0.219500  0.824300  0.395000  1
  N  N1027  1  0.175700  0.780500  0.105000  1
  N  N1028  1  0.780500  0.175700  0.605000  1
  N  N1029  1  0.826100  0.894900  0.691000  1
  N  N1030  1  0.894900  0.826100  0.191000  1
  N  N1031  1  0.173900  0.105100  0.309000  1
  N  N1032  1  0.105100  0.173900  0.809000  1
  N  N1033  1  0.593100  0.054500  0.681700  1
  N  N1034  1  0.054500  0.593100  0.181700  1
  N  N1035  1  0.406900  0.945500  0.318300  1
  N  N1036  1  0.945500  0.406900  0.818300  1
  N  N1037  1  0.600200  0.986800  0.619700  1
  N  N1038  1  0.986800  0.600200  0.119700  1
  N  N1039  1  0.399800  0.013200  0.380300  1
  N  N1040  1  0.013200  0.399800  0.880300  1
  N  N1041  1  0.689600  0.609800  0.703100  1
  N  N1042  1  0.609800  0.689600  0.203100  1
  N  N1043  1  0.310400  0.390200  0.296900  1
  N  N1044  1  0.390200  0.310400  0.796900  1
  N  N1045  1  0.752400  0.604400  0.784400  1
  N  N1046  1  0.604400  0.752400  0.284400  1
  N  N1047  1  0.247600  0.395600  0.215600  1
  N  N1048  1  0.395600  0.247600  0.715600  1
  N  N1049  1  0.474600  0.617000  0.865600  1
  N  N1050  1  0.617000  0.474600  0.365600  1
  N  N1051  1  0.525400  0.383000  0.134400  1
  N  N1052  1  0.383000  0.525400  0.634400  1
  N  N1053  1  0.544200  0.633200  0.949000  1
  N  N1054  1  0.633200  0.544200  0.449000  1
  N  N1055  1  0.455800  0.366800  0.051000  1
  N  N1056  1  0.366800  0.455800  0.551000  1
  N  N1057  1  0.745500  0.765700  0.576400  1
  N  N1058  1  0.765700  0.745500  0.076400  1
  N  N1059  1  0.254500  0.234300  0.423600  1
  N  N1060  1  0.234300  0.254500  0.923600  1
  N  N1061  1  0.822300  0.863500  0.586700  1
  N  N1062  1  0.863500  0.822300  0.086700  1
  N  N1063  1  0.177700  0.136500  0.413300  1
  N  N1064  1  0.136500  0.177700  0.913300  1
  N  N1065  1  0.813900  0.155700  0.122500  1
  N  N1066  1  0.155700  0.813900  0.622500  1
  N  N1067  1  0.186100  0.844300  0.877500  1
  N  N1068  1  0.844300  0.186100  0.377500  1
  N  N1069  1  0.879000  0.098400  0.115900  1
  N  N1070  1  0.098400  0.879000  0.615900  1
  N  N1071  1  0.121000  0.901600  0.884100  1
  N  N1072  1  0.901600  0.121000  0.384100  1
  N  N1073  1  0.792700  0.315300  0.905300  1
  N  N1074  1  0.315300  0.792700  0.405300  1
  N  N1075  1  0.207300  0.684700  0.094700  1
  N  N1076  1  0.684700  0.207300  0.594700  1
  N  N1077  1  0.730300  0.281300  0.966100  1
  N  N1078  1  0.281300  0.730300  0.466100  1
  N  N1079  1  0.269700  0.718700  0.033900  1
  N  N1080  1  0.718700  0.269700  0.533900  1
  N  N1081  1  0.583300  0.918300  0.139400  1
  N  N1082  1  0.918300  0.583300  0.639400  1
  N  N1083  1  0.416700  0.081700  0.860600  1
  N  N1084  1  0.081700  0.416700  0.360600  1
  N  N1085  1  0.641100  0.856900  0.129400  1
  N  N1086  1  0.856900  0.641100  0.629400  1
  N  N1087  1  0.358900  0.143100  0.870600  1
  N  N1088  1  0.143100  0.358900  0.370600  1
  N  N1089  1  0.543700  0.876700  0.487400  1
  N  N1090  1  0.876700  0.543700  0.987400  1
  N  N1091  1  0.456300  0.123300  0.512600  1
  N  N1092  1  0.123300  0.456300  0.012600  1
  N  N1093  1  0.618600  0.979000  0.519100  1
  N  N1094  1  0.979000  0.618600  0.019100  1
  N  N1095  1  0.381400  0.021000  0.480900  1
  N  N1096  1  0.021000  0.381400  0.980900  1
  N  N1097  1  0.516600  0.151800  0.725700  1
  N  N1098  1  0.151800  0.516600  0.225700  1
  N  N1099  1  0.483400  0.848200  0.274300  1
  N  N1100  1  0.848200  0.483400  0.774300  1
  N  N1101  1  0.589500  0.156100  0.671900  1
  N  N1102  1  0.156100  0.589500  0.171900  1
  N  N1103  1  0.410500  0.843900  0.328100  1
  N  N1104  1  0.843900  0.410500  0.828100  1
  N  N1105  1  0.312800  0.833800  0.912400  1
  N  N1106  1  0.833800  0.312800  0.412400  1
  N  N1107  1  0.687200  0.166200  0.087600  1
  N  N1108  1  0.166200  0.687200  0.587600  1
  N  N1109  1  0.621200  0.902200  0.316700  1
  N  N1110  1  0.902200  0.621200  0.816700  1
  N  N1111  1  0.378800  0.097800  0.683300  1
  N  N1112  1  0.097800  0.378800  0.183300  1
  N  N1113  1  0.900900  0.353900  0.041400  1
  N  N1114  1  0.353900  0.900900  0.541400  1
  N  N1115  1  0.099100  0.646100  0.958600  1
  N  N1116  1  0.646100  0.099100  0.458600  1
  N  N1117  1  0.076800  0.491600  0.793000  1
  N  N1118  1  0.491600  0.076800  0.293000  1
  N  N1119  1  0.923200  0.508400  0.207000  1
  N  N1120  1  0.508400  0.923200  0.707000  1
  N  N1121  1  0.574200  0.087000  0.547000  1
  N  N1122  1  0.087000  0.574200  0.047000  1
  N  N1123  1  0.425800  0.913000  0.453000  1
  N  N1124  1  0.913000  0.425800  0.953000  1
  N  N1125  1  0.657000  0.178800  0.820200  1
  N  N1126  1  0.178800  0.657000  0.320200  1
  N  N1127  1  0.343000  0.821200  0.179800  1
  N  N1128  1  0.821200  0.343000  0.679800  1
  N  N1129  1  0.193400  0.522400  0.349500  1
  N  N1130  1  0.522400  0.193400  0.849500  1
  N  N1131  1  0.806600  0.477600  0.650500  1
  N  N1132  1  0.477600  0.806600  0.150500  1
  N  N1133  1  0.898300  0.776700  0.616300  1
  N  N1134  1  0.776700  0.898300  0.116300  1
  N  N1135  1  0.101700  0.223300  0.383700  1
  N  N1136  1  0.223300  0.101700  0.883700  1
  N  N1137  1  0.835800  0.863200  0.803600  1
  N  N1138  1  0.863200  0.835800  0.303600  1
  N  N1139  1  0.164200  0.136800  0.196400  1
  N  N1140  1  0.136800  0.164200  0.696400  1
  N  N1141  1  0.630700  0.728500  0.095200  1
  N  N1142  1  0.728500  0.630700  0.595200  1
  N  N1143  1  0.369300  0.271500  0.904800  1
  N  N1144  1  0.271500  0.369300  0.404800  1
  N  N1145  1  0.714100  0.996700  0.073500  1
  N  N1146  1  0.996700  0.714100  0.573500  1
  N  N1147  1  0.285900  0.003300  0.926500  1
  N  N1148  1  0.003300  0.285900  0.426500  1
  N  N1149  1  0.880000  0.669800  0.079100  1
  N  N1150  1  0.669800  0.880000  0.579100  1
  N  N1151  1  0.120000  0.330200  0.920900  1
  N  N1152  1  0.330200  0.120000  0.420900  1
  N  N1153  1  0.636900  0.668900  0.836500  1
  N  N1154  1  0.668900  0.636900  0.336500  1
  N  N1155  1  0.363100  0.331100  0.163500  1
  N  N1156  1  0.331100  0.363100  0.663500  1
  N  N1157  1  0.270500  0.788300  0.290200  1
  N  N1158  1  0.788300  0.270500  0.790200  1
  N  N1159  1  0.729500  0.211700  0.709800  1
  N  N1160  1  0.211700  0.729500  0.209800  1
  O  O1161  1  0.280700  0.807700  0.929600  1
  O  O1162  1  0.807700  0.280700  0.429600  1
  O  O1163  1  0.719300  0.192300  0.070400  1
  O  O1164  1  0.192300  0.719300  0.570400  1
  O  O1165  1  0.306100  0.876300  0.903200  1
  O  O1166  1  0.876300  0.306100  0.403200  1
  O  O1167  1  0.693900  0.123700  0.096800  1
  O  O1168  1  0.123700  0.693900  0.596800  1
  O  O1169  1  0.353700  0.825300  0.897800  1
  O  O1170  1  0.825300  0.353700  0.397800  1
  O  O1171  1  0.646300  0.174700  0.102200  1
  O  O1172  1  0.174700  0.646300  0.602200  1
  O  O1173  1  0.668200  0.933400  0.321100  1
  O  O1174  1  0.933400  0.668200  0.821100  1
  O  O1175  1  0.331800  0.066600  0.678900  1
  O  O1176  1  0.066600  0.331800  0.178900  1
  O  O1177  1  0.603900  0.858500  0.284100  1
  O  O1178  1  0.858500  0.603900  0.784100  1
  O  O1179  1  0.396100  0.141500  0.715900  1
  O  O1180  1  0.141500  0.396100  0.215900  1
  O  O1181  1  0.594100  0.918300  0.341600  1
  O  O1182  1  0.918300  0.594100  0.841600  1
  O  O1183  1  0.405900  0.081700  0.658400  1
  O  O1184  1  0.081700  0.405900  0.158400  1
  O  O1185  1  0.921800  0.380600  0.085700  1
  O  O1186  1  0.380600  0.921800  0.585700  1
  O  O1187  1  0.078200  0.619400  0.914300  1
  O  O1188  1  0.619400  0.078200  0.414300  1
  O  O1189  1  0.857900  0.350500  0.018800  1
  O  O1190  1  0.350500  0.857900  0.518800  1
  O  O1191  1  0.142100  0.649500  0.981200  1
  O  O1192  1  0.649500  0.142100  0.481200  1
  O  O1193  1  0.928000  0.329600  0.021600  1
  O  O1194  1  0.329600  0.928000  0.521600  1
  O  O1195  1  0.072000  0.670400  0.978400  1
  O  O1196  1  0.670400  0.072000  0.478400  1
  O  O1197  1  0.086000  0.533800  0.825100  1
  O  O1198  1  0.533800  0.086000  0.325100  1
  O  O1199  1  0.914000  0.466200  0.174900  1
  O  O1200  1  0.466200  0.914000  0.674900  1
  O  O1201  1  0.052000  0.446800  0.794600  1
  O  O1202  1  0.446800  0.052000  0.294600  1
  O  O1203  1  0.948000  0.553200  0.205400  1
  O  O1204  1  0.553200  0.948000  0.705400  1
  O  O1205  1  0.101100  0.500700  0.756900  1
  O  O1206  1  0.500700  0.101100  0.256900  1
  O  O1207  1  0.898900  0.499300  0.243100  1
  O  O1208  1  0.499300  0.898900  0.743100  1
  O  O1209  1  0.550400  0.054800  0.508700  1
  O  O1210  1  0.054800  0.550400  0.008700  1
  O  O1211  1  0.449600  0.945200  0.491300  1
  O  O1212  1  0.945200  0.449600  0.991300  1
  O  O1213  1  0.557200  0.124000  0.563100  1
  O  O1214  1  0.124000  0.557200  0.063100  1
  O  O1215  1  0.442800  0.876000  0.436900  1
  O  O1216  1  0.876000  0.442800  0.936900  1
  O  O1217  1  0.616000  0.086800  0.573800  1
  O  O1218  1  0.086800  0.616000  0.073800  1
  O  O1219  1  0.384000  0.913200  0.426200  1
  O  O1220  1  0.913200  0.384000  0.926200  1
  O  O1221  1  0.646500  0.189500  0.781100  1
  O  O1222  1  0.189500  0.646500  0.281100  1
  O  O1223  1  0.353500  0.810500  0.218900  1
  O  O1224  1  0.810500  0.353500  0.718900  1
  O  O1225  1  0.667600  0.137800  0.821500  1
  O  O1226  1  0.137800  0.667600  0.321500  1
  O  O1227  1  0.332400  0.862200  0.178500  1
  O  O1228  1  0.862200  0.332400  0.678500  1
  O  O1229  1  0.659300  0.207300  0.859900  1
  O  O1230  1  0.207300  0.659300  0.359900  1
  O  O1231  1  0.340700  0.792700  0.140100  1
  O  O1232  1  0.792700  0.340700  0.640100  1
  O  O1233  1  0.210000  0.532000  0.395200  1
  O  O1234  1  0.532000  0.210000  0.895200  1
  O  O1235  1  0.790000  0.468000  0.604800  1
  O  O1236  1  0.468000  0.790000  0.104800  1
  O  O1237  1  0.225800  0.528400  0.326700  1
  O  O1238  1  0.528400  0.225800  0.826700  1
  O  O1239  1  0.774200  0.471600  0.673300  1
  O  O1240  1  0.471600  0.774200  0.173300  1
  O  O1241  1  0.145900  0.510500  0.332200  1
  O  O1242  1  0.510500  0.145900  0.832200  1
  O  O1243  1  0.854100  0.489500  0.667800  1
  O  O1244  1  0.489500  0.854100  0.167800  1
  O  O1245  1  0.856500  0.743300  0.587400  1
  O  O1246  1  0.743300  0.856500  0.087400  1
  O  O1247  1  0.143500  0.256700  0.412600  1
  O  O1248  1  0.256700  0.143500  0.912600  1
  O  O1249  1  0.917800  0.758800  0.644400  1
  O  O1250  1  0.758800  0.917800  0.144400  1
  O  O1251  1  0.082200  0.241200  0.355600  1
  O  O1252  1  0.241200  0.082200  0.855600  1
  O  O1253  1  0.916100  0.822500  0.615200  1
  O  O1254  1  0.822500  0.916100  0.115200  1
  O  O1255  1  0.083900  0.177500  0.384800  1
  O  O1256  1  0.177500  0.083900  0.884800  1
  O  O1257  1  0.785800  0.848000  0.792100  1
  O  O1258  1  0.848000  0.785800  0.292100  1
  O  O1259  1  0.214200  0.152000  0.207900  1
  O  O1260  1  0.152000  0.214200  0.707900  1
  O  O1261  1  0.858500  0.832300  0.788300  1
  O  O1262  1  0.832300  0.858500  0.288300  1
  O  O1263  1  0.141500  0.167700  0.211700  1
  O  O1264  1  0.167700  0.141500  0.711700  1
  O  O1265  1  0.862000  0.909000  0.830600  1
  O  O1266  1  0.909000  0.862000  0.330600  1
  O  O1267  1  0.138000  0.091000  0.169400  1
  O  O1268  1  0.091000  0.138000  0.669400  1
  O  O1269  1  0.660400  0.692000  0.113800  1
  O  O1270  1  0.692000  0.660400  0.613800  1
  O  O1271  1  0.339600  0.308000  0.886200  1
  O  O1272  1  0.308000  0.339600  0.386200  1
  O  O1273  1  0.603600  0.741800  0.117600  1
  O  O1274  1  0.741800  0.603600  0.617600  1
  O  O1275  1  0.396400  0.258200  0.882400  1
  O  O1276  1  0.258200  0.396400  0.382400  1
  O  O1277  1  0.645700  0.738700  0.059400  1
  O  O1278  1  0.738700  0.645700  0.559400  1
  O  O1279  1  0.354300  0.261300  0.940600  1
  O  O1280  1  0.261300  0.354300  0.440600  1
  O  O1281  1  0.759800  0.024000  0.096000  1
  O  O1282  1  0.024000  0.759800  0.596000  1
  O  O1283  1  0.240200  0.976000  0.904000  1
  O  O1284  1  0.976000  0.240200  0.404000  1
  O  O1285  1  0.696900  0.979900  0.030400  1
  O  O1286  1  0.979900  0.696900  0.530400  1
  O  O1287  1  0.303100  0.020100  0.969600  1
  O  O1288  1  0.020100  0.303100  0.469600  1
  O  O1289  1  0.690500  0.986700  0.111100  1
  O  O1290  1  0.986700  0.690500  0.611100  1
  O  O1291  1  0.309500  0.013300  0.888900  1
  O  O1292  1  0.013300  0.309500  0.388900  1
  O  O1293  1  0.838700  0.678700  0.073300  1
  O  O1294  1  0.678700  0.838700  0.573300  1
  O  O1295  1  0.161300  0.321300  0.926700  1
  O  O1296  1  0.321300  0.161300  0.426700  1
  O  O1297  1  0.921900  0.687100  0.068000  1
  O  O1298  1  0.687100  0.921900  0.568000  1
  O  O1299  1  0.078100  0.312900  0.932000  1
  O  O1300  1  0.312900  0.078100  0.432000  1
  O  O1301  1  0.889200  0.679600  0.131300  1
  O  O1302  1  0.679600  0.889200  0.631300  1
  O  O1303  1  0.110800  0.320400  0.868700  1
  O  O1304  1  0.320400  0.110800  0.368700  1
  O  O1305  1  0.644700  0.711700  0.837400  1
  O  O1306  1  0.711700  0.644700  0.337400  1
  O  O1307  1  0.355300  0.288300  0.162600  1
  O  O1308  1  0.288300  0.355300  0.662600  1
  O  O1309  1  0.648400  0.635200  0.808200  1
  O  O1310  1  0.635200  0.648400  0.308200  1
  O  O1311  1  0.351600  0.364800  0.191800  1
  O  O1312  1  0.364800  0.351600  0.691800  1
  O  O1313  1  0.601500  0.642100  0.849400  1
  O  O1314  1  0.642100  0.601500  0.349400  1
  O  O1315  1  0.398500  0.357900  0.150600  1
  O  O1316  1  0.357900  0.398500  0.650600  1
  O  O1317  1  0.027300  0.764500  0.706800  1
  O  O1318  1  0.764500  0.027300  0.206800  1
  O  O1319  1  0.972700  0.235500  0.293200  1
  O  O1320  1  0.235500  0.972700  0.793200  1
  O  O1321  1  0.397200  0.829600  0.730200  1
  O  O1322  1  0.829600  0.397200  0.230200  1
  O  O1323  1  0.602800  0.170400  0.269800  1
  O  O1324  1  0.170400  0.602800  0.769800  1
  O  O1325  1  0.887800  0.271000  0.157200  1
  O  O1326  1  0.271000  0.887800  0.657200  1
  O  O1327  1  0.112200  0.729000  0.842800  1
  O  O1328  1  0.729000  0.112200  0.342800  1
  O  O1329  1  0.348000  0.847600  0.643600  1
  O  O1330  1  0.847600  0.348000  0.143600  1
  O  O1331  1  0.652000  0.152400  0.356400  1
  O  O1332  1  0.152400  0.652000  0.856400  1
  O  O1333  1  0.376100  0.798700  0.039000  1
  O  O1334  1  0.798700  0.376100  0.539000  1
  O  O1335  1  0.623900  0.201300  0.961000  1
  O  O1336  1  0.201300  0.623900  0.461000  1
  O  O1337  1  0.396700  0.979100  0.888500  1
  O  O1338  1  0.979100  0.396700  0.388500  1
  O  O1339  1  0.603300  0.020900  0.111500  1
  O  O1340  1  0.020900  0.603300  0.611500  1
  O  O1341  1  0.122200  0.617600  0.666100  1
  O  O1342  1  0.617600  0.122200  0.166100  1
  O  O1343  1  0.877800  0.382400  0.333900  1
  O  O1344  1  0.382400  0.877800  0.833900  1
  O  O1345  1  0.872100  0.016100  0.404400  1
  O  O1346  1  0.016100  0.872100  0.904400  1
  O  O1347  1  0.127900  0.983900  0.595600  1
  O  O1348  1  0.983900  0.127900  0.095600  1
  O  O1349  1  0.971900  0.978100  0.883900  1
  O  O1350  1  0.978100  0.971900  0.383900  1
  O  O1351  1  0.028100  0.021900  0.116100  1
  O  O1352  1  0.021900  0.028100  0.616100  1
  O  O1353  1  0.768500  0.533500  0.007600  1
  O  O1354  1  0.533500  0.768500  0.507600  1
  O  O1355  1  0.231500  0.466500  0.992400  1
  O  O1356  1  0.466500  0.231500  0.492400  1
  O  O1357  1  0.780200  0.635400  0.900600  1
  O  O1358  1  0.635400  0.780200  0.400600  1
  O  O1359  1  0.219800  0.364600  0.099400  1
  O  O1360  1  0.364600  0.219800  0.599400  1
  O  O1361  1  0.139300  0.304100  0.036000  1
  O  O1362  1  0.304100  0.139300  0.536000  1
  O  O1363  1  0.860700  0.695900  0.964000  1
  O  O1364  1  0.695900  0.860700  0.464000  1
  O  O1365  1  0.979300  0.732500  0.020800  1
  O  O1366  1  0.732500  0.979300  0.520800  1
  O  O1367  1  0.020700  0.267500  0.979200  1
  O  O1368  1  0.267500  0.020700  0.479200  1
  O  O1369  1  0.017300  0.855900  0.678200  1
  O  O1370  1  0.855900  0.017300  0.178200  1
  O  O1371  1  0.982700  0.144100  0.321800  1
  O  O1372  1  0.144100  0.982700  0.821800  1
  O  O1373  1  0.792200  0.030200  0.450200  1
  O  O1374  1  0.030200  0.792200  0.950200  1
  O  O1375  1  0.207800  0.969800  0.549800  1
  O  O1376  1  0.969800  0.207800  0.049800  1
  O  O1377  1  0.662900  0.303500  0.811400  1
  O  O1378  1  0.303500  0.662900  0.311400  1
  O  O1379  1  0.337100  0.696500  0.188600  1
  O  O1380  1  0.696500  0.337100  0.688600  1
  O  O1381  1  0.095300  0.719900  0.742500  1
  O  O1382  1  0.719900  0.095300  0.242500  1
  O  O1383  1  0.904700  0.280100  0.257500  1
  O  O1384  1  0.280100  0.904700  0.757500  1
  O  O1385  1  0.036600  0.896600  0.142000  1
  O  O1386  1  0.896600  0.036600  0.642000  1
  O  O1387  1  0.963400  0.103400  0.858000  1
  O  O1388  1  0.103400  0.963400  0.358000  1
  O  O1389  1  0.701100  0.029500  0.390900  1
  O  O1390  1  0.029500  0.701100  0.890900  1
  O  O1391  1  0.298900  0.970500  0.609100  1
  O  O1392  1  0.970500  0.298900  0.109100  1
  O  O1393  1  0.960000  0.754000  0.769700  1
  O  O1394  1  0.754000  0.960000  0.269700  1
  O  O1395  1  0.040000  0.246000  0.230300  1
  O  O1396  1  0.246000  0.040000  0.730300  1
  O  O1397  1  0.962000  0.852000  0.807300  1
  O  O1398  1  0.852000  0.962000  0.307300  1
  O  O1399  1  0.038000  0.148000  0.192700  1
  O  O1400  1  0.148000  0.038000  0.692700  1
  O  O1401  1  0.301000  0.750000  0.577300  1
  O  O1402  1  0.750000  0.301000  0.077300  1
  O  O1403  1  0.699000  0.250000  0.422700  1
  O  O1404  1  0.250000  0.699000  0.922700  1
  O  O1405  1  0.393600  0.764400  0.950500  1
  O  O1406  1  0.764400  0.393600  0.450500  1
  O  O1407  1  0.606400  0.235600  0.049500  1
  O  O1408  1  0.235600  0.606400  0.549500  1
  O  O1409  1  0.938500  0.796500  0.018400  1
  O  O1410  1  0.796500  0.938500  0.518400  1
  O  O1411  1  0.061500  0.203500  0.981600  1
  O  O1412  1  0.203500  0.061500  0.481600  1
  O  O1413  1  0.378900  0.510700  0.464900  1
  O  O1414  1  0.510700  0.378900  0.964900  1
  O  O1415  1  0.621100  0.489300  0.535100  1
  O  O1416  1  0.489300  0.621100  0.035100  1
  O  O1417  1  0.289000  0.837400  0.307900  1
  O  O1418  1  0.837400  0.289000  0.807900  1
  O  O1419  1  0.711000  0.162600  0.692100  1
  O  O1420  1  0.162600  0.711000  0.192100  1
  O  O1421  1  0.294700  0.758900  0.296100  1
  O  O1422  1  0.758900  0.294700  0.796100  1
  O  O1423  1  0.705300  0.241100  0.703900  1
  O  O1424  1  0.241100  0.705300  0.203900  1
  O  O1425  1  0.224900  0.775100  0.250000  1
  O  O1426  1  0.775100  0.224900  0.750000  1
  Pd  Pd1427  1  0.740670  0.664630  0.757950  1
  Pd  Pd1428  1  0.664630  0.740670  0.257950  1
  Pd  Pd1429  1  0.259330  0.335370  0.242050  1
  Pd  Pd1430  1  0.335370  0.259330  0.742050  1
  Pd  Pd1431  1  0.526790  0.683430  0.910970  1
  Pd  Pd1432  1  0.683430  0.526790  0.410970  1
  Pd  Pd1433  1  0.473210  0.316570  0.089030  1
  Pd  Pd1434  1  0.316570  0.473210  0.589030  1
  Pd  Pd1435  1  0.786610  0.827210  0.636400  1
  Pd  Pd1436  1  0.827210  0.786610  0.136400  1
  Pd  Pd1437  1  0.213390  0.172790  0.363600  1
  Pd  Pd1438  1  0.172790  0.213390  0.863600  1
  Pd  Pd1439  1  0.828600  0.114120  0.064080  1
  Pd  Pd1440  1  0.114120  0.828600  0.564080  1
  Pd  Pd1441  1  0.171400  0.885880  0.935920  1
  Pd  Pd1442  1  0.885880  0.171400  0.435920  1
  Pd  Pd1443  1  0.776500  0.249160  0.932360  1
  Pd  Pd1444  1  0.249160  0.776500  0.432360  1
  Pd  Pd1445  1  0.223500  0.750840  0.067640  1
  Pd  Pd1446  1  0.750840  0.223500  0.567640  1
  Pd  Pd1447  1  0.594940  0.875560  0.079760  1
  Pd  Pd1448  1  0.875560  0.594940  0.579760  1
  Pd  Pd1449  1  0.405060  0.124440  0.920240  1
  Pd  Pd1450  1  0.124440  0.405060  0.420240  1
  Pd  Pd1451  1  0.571790  0.931090  0.553790  1
  Pd  Pd1452  1  0.931090  0.571790  0.053790  1
  Pd  Pd1453  1  0.428210  0.068910  0.446210  1
  Pd  Pd1454  1  0.068910  0.428210  0.946210  1
  Pd  Pd1455  1  0.553220  0.101540  0.705930  1
  Pd  Pd1456  1  0.101540  0.553220  0.205930  1
  Pd  Pd1457  1  0.446780  0.898460  0.294070  1
  Pd  Pd1458  1  0.898460  0.446780  0.794070  1
