# generated using pymatgen
data_H144Pd6C124I4N49(O33F8)4
_symmetry_space_group_name_H-M   'P 1'
_cell_length_a   24.50300000
_cell_length_b   24.75300000
_cell_length_c   24.89600000
_cell_angle_alpha   113.61800000
_cell_angle_beta   111.77000000
_cell_angle_gamma   95.54700000
_symmetry_Int_Tables_number   1
_chemical_formula_structural   H144Pd6C124I4N49(O33F8)4
_chemical_formula_sum   'H288 Pd12 C248 I8 N98 O264 F64'
_cell_volume   12303.17949155
_cell_formula_units_Z   2
loop_
 _symmetry_equiv_pos_site_id
 _symmetry_equiv_pos_as_xyz
  1  'x, y, z'
loop_
 _atom_site_type_symbol
 _atom_site_label
 _atom_site_symmetry_multiplicity
 _atom_site_fract_x
 _atom_site_fract_y
 _atom_site_fract_z
 _atom_site_occupancy
  H  H1  1  0.010800  0.617600  0.889200  1
  H  H2  1  0.989200  0.382400  0.110800  1
  H  H3  1  0.891500  0.616700  0.907800  1
  H  H4  1  0.108500  0.383300  0.092200  1
  H  H5  1  0.109900  0.820100  0.964200  1
  H  H6  1  0.890100  0.179900  0.035800  1
  H  H7  1  0.007500  0.776400  0.889500  1
  H  H8  1  0.992500  0.223600  0.110500  1
  H  H9  1  0.421300  0.735400  0.246800  1
  H  H10  1  0.578700  0.264600  0.753200  1
  H  H11  1  0.379500  0.793300  0.197900  1
  H  H12  1  0.620500  0.206700  0.802100  1
  H  H13  1  0.233000  0.644600  0.063000  1
  H  H14  1  0.767000  0.355400  0.937000  1
  H  H15  1  0.277600  0.589400  0.114600  1
  H  H16  1  0.722400  0.410600  0.885400  1
  H  H17  1  0.287500  0.037500  0.099800  1
  H  H18  1  0.712500  0.962500  0.900200  1
  H  H19  1  0.237500  0.933700  0.052700  1
  H  H20  1  0.762500  0.066300  0.947300  1
  H  H21  1  0.384100  0.920600  0.187200  1
  H  H22  1  0.615900  0.079400  0.812800  1
  H  H23  1  0.430300  0.024400  0.230000  1
  H  H24  1  0.569700  0.975600  0.770000  1
  H  H25  1  0.888800  0.772000  0.900700  1
  H  H26  1  0.111200  0.228000  0.099300  1
  H  H27  1  0.874400  0.813600  0.992500  1
  H  H28  1  0.125600  0.186400  0.007500  1
  H  H29  1  0.881800  0.655100  0.004700  1
  H  H30  1  0.118200  0.344900  0.995300  1
  H  H31  1  0.112500  0.658400  0.966400  1
  H  H32  1  0.887500  0.341600  0.033600  1
  H  H33  1  0.891600  0.024700  0.324200  1
  H  H34  1  0.108400  0.975300  0.675800  1
  H  H35  1  0.883500  0.921400  0.275000  1
  H  H36  1  0.116500  0.078600  0.725000  1
  H  H37  1  0.873600  0.932200  0.113600  1
  H  H38  1  0.126400  0.067800  0.886400  1
  H  H39  1  0.884500  0.037500  0.168600  1
  H  H40  1  0.115500  0.962500  0.831400  1
  H  H41  1  0.873600  0.587200  0.181300  1
  H  H42  1  0.126400  0.412800  0.818700  1
  H  H43  1  0.869100  0.641300  0.122000  1
  H  H44  1  0.130900  0.358700  0.878000  1
  H  H45  1  0.867600  0.788900  0.273400  1
  H  H46  1  0.132400  0.211100  0.726600  1
  H  H47  1  0.870300  0.728500  0.326100  1
  H  H48  1  0.129700  0.271500  0.673900  1
  H  H49  1  0.263100  0.592400  0.229000  1
  H  H50  1  0.736900  0.407600  0.771000  1
  H  H51  1  0.209400  0.640500  0.284500  1
  H  H52  1  0.790600  0.359500  0.715500  1
  H  H53  1  0.367700  0.776400  0.420100  1
  H  H54  1  0.632300  0.223600  0.579900  1
  H  H55  1  0.416800  0.725900  0.361100  1
  H  H56  1  0.583200  0.274100  0.638900  1
  H  H57  1  0.988000  0.722600  0.428000  1
  H  H58  1  0.012000  0.277400  0.572000  1
  H  H59  1  0.090000  0.772400  0.465800  1
  H  H60  1  0.910000  0.227600  0.534200  1
  H  H61  1  0.089800  0.636400  0.306200  1
  H  H62  1  0.910200  0.363600  0.693800  1
  H  H63  1  0.989600  0.588100  0.274900  1
  H  H64  1  0.010400  0.411900  0.725100  1
  H  H65  1  0.414900  0.986400  0.635100  1
  H  H66  1  0.585100  0.013600  0.364900  1
  H  H67  1  0.367500  0.886300  0.547700  1
  H  H68  1  0.632500  0.113700  0.452300  1
  H  H69  1  0.208600  0.899200  0.558800  1
  H  H70  1  0.791400  0.100800  0.441200  1
  H  H71  1  0.260600  0.995500  0.648500  1
  H  H72  1  0.739400  0.004500  0.351500  1
  H  H73  1  0.267200  0.111300  0.641900  1
  H  H74  1  0.732800  0.888700  0.358100  1
  H  H75  1  0.219500  0.119300  0.546400  1
  H  H76  1  0.780500  0.880700  0.453600  1
  H  H77  1  0.375100  0.117100  0.525400  1
  H  H78  1  0.624900  0.882900  0.474600  1
  H  H79  1  0.418500  0.108500  0.620900  1
  H  H80  1  0.581500  0.891500  0.379100  1
  H  H81  1  0.999800  0.130800  0.250100  1
  H  H82  1  0.000200  0.869200  0.749900  1
  H  H83  1  0.100600  0.128700  0.281500  1
  H  H84  1  0.899400  0.871300  0.718500  1
  H  H85  1  0.109300  0.143400  0.452900  1
  H  H86  1  0.890700  0.856600  0.547100  1
  H  H87  1  0.008700  0.148400  0.418200  1
  H  H88  1  0.991300  0.851600  0.581800  1
  H  H89  1  0.429400  0.129600  0.337600  1
  H  H90  1  0.570600  0.870400  0.662400  1
  H  H91  1  0.380800  0.130200  0.400800  1
  H  H92  1  0.619200  0.869800  0.599200  1
  H  H93  1  0.233600  0.150600  0.273800  1
  H  H94  1  0.766400  0.849400  0.726200  1
  H  H95  1  0.289000  0.150900  0.215000  1
  H  H96  1  0.711000  0.849100  0.785000  1
  H  H97  1  0.517200  0.227700  0.336100  1
  H  H98  1  0.482800  0.772300  0.663900  1
  H  H99  1  0.459400  0.244100  0.347300  1
  H  H100  1  0.540600  0.755900  0.652700  1
  H  H101  1  0.506100  0.293100  0.346200  1
  H  H102  1  0.493900  0.706900  0.653800  1
  H  H103  1  0.381500  0.238500  0.197500  1
  H  H104  1  0.618500  0.761500  0.802500  1
  H  H105  1  0.433400  0.300000  0.257300  1
  H  H106  1  0.566600  0.700000  0.742700  1
  H  H107  1  0.385900  0.263200  0.269500  1
  H  H108  1  0.614100  0.736800  0.730500  1
  H  H109  1  0.508100  0.270100  0.241400  1
  H  H110  1  0.491900  0.729900  0.758600  1
  H  H111  1  0.534000  0.222600  0.265000  1
  H  H112  1  0.466000  0.777400  0.735000  1
  H  H113  1  0.516900  0.183000  0.164400  1
  H  H114  1  0.483100  0.817000  0.835600  1
  H  H115  1  0.454000  0.200300  0.141700  1
  H  H116  1  0.546000  0.799700  0.858300  1
  H  H117  1  0.418500  0.097100  0.054000  1
  H  H118  1  0.581500  0.902900  0.946000  1
  H  H119  1  0.370000  0.122500  0.078700  1
  H  H120  1  0.630000  0.877500  0.921300  1
  H  H121  1  0.375000  0.054700  0.065500  1
  H  H122  1  0.625000  0.945300  0.934500  1
  H  H123  1  0.460700  0.040500  0.137300  1
  H  H124  1  0.539300  0.959500  0.862700  1
  H  H125  1  0.515200  0.098100  0.200200  1
  H  H126  1  0.484800  0.901900  0.799800  1
  H  H127  1  0.507000  0.082300  0.128200  1
  H  H128  1  0.493000  0.917700  0.871800  1
  H  H129  1  0.448200  0.000100  0.754900  1
  H  H130  1  0.551800  0.999900  0.245100  1
  H  H131  1  0.489200  0.042300  0.832200  1
  H  H132  1  0.510800  0.957700  0.167800  1
  H  H133  1  0.495300  0.065100  0.782400  1
  H  H134  1  0.504700  0.934900  0.217600  1
  H  H135  1  0.338300  0.056700  0.799000  1
  H  H136  1  0.661700  0.943300  0.201000  1
  H  H137  1  0.388200  0.031900  0.838100  1
  H  H138  1  0.611800  0.968100  0.161900  1
  H  H139  1  0.352100  0.994800  0.759700  1
  H  H140  1  0.647900  0.005200  0.240300  1
  H  H141  1  0.416300  0.140600  0.872200  1
  H  H142  1  0.583700  0.859400  0.127800  1
  H  H143  1  0.483400  0.132700  0.886500  1
  H  H144  1  0.516600  0.867300  0.113500  1
  H  H145  1  0.501700  0.184400  0.846600  1
  H  H146  1  0.498300  0.815600  0.153400  1
  H  H147  1  0.463200  0.218300  0.881500  1
  H  H148  1  0.536800  0.781700  0.118500  1
  H  H149  1  0.355100  0.215000  0.746300  1
  H  H150  1  0.644900  0.785000  0.253700  1
  H  H151  1  0.395400  0.255300  0.824000  1
  H  H152  1  0.604600  0.744700  0.176000  1
  H  H153  1  0.345700  0.191400  0.794300  1
  H  H154  1  0.654300  0.808600  0.205700  1
  H  H155  1  0.487000  0.187700  0.754800  1
  H  H156  1  0.513000  0.812300  0.245200  1
  H  H157  1  0.491400  0.252200  0.810500  1
  H  H158  1  0.508600  0.747800  0.189500  1
  H  H159  1  0.439700  0.225200  0.736500  1
  H  H160  1  0.560300  0.774800  0.263500  1
  H  H161  1  0.343200  0.485900  0.227900  1
  H  H162  1  0.656800  0.514100  0.772100  1
  H  H163  1  0.333300  0.538800  0.283900  1
  H  H164  1  0.666700  0.461200  0.716100  1
  H  H165  1  0.377000  0.498400  0.302200  1
  H  H166  1  0.623000  0.501600  0.697800  1
  H  H167  1  0.489700  0.628300  0.368000  1
  H  H168  1  0.510300  0.371700  0.632000  1
  H  H169  1  0.458700  0.576700  0.379500  1
  H  H170  1  0.541300  0.423300  0.620500  1
  H  H171  1  0.426600  0.628600  0.373400  1
  H  H172  1  0.573400  0.371400  0.626600  1
  H  H173  1  0.500100  0.563200  0.294600  1
  H  H174  1  0.499900  0.436800  0.705400  1
  H  H175  1  0.457100  0.496600  0.268600  1
  H  H176  1  0.542900  0.503400  0.731400  1
  H  H177  1  0.416900  0.479600  0.172900  1
  H  H178  1  0.583100  0.520400  0.827100  1
  H  H179  1  0.485900  0.517200  0.199100  1
  H  H180  1  0.514100  0.482800  0.800900  1
  H  H181  1  0.364700  0.556100  0.092400  1
  H  H182  1  0.635300  0.443900  0.907600  1
  H  H183  1  0.348100  0.498100  0.102900  1
  H  H184  1  0.651900  0.501900  0.897100  1
  H  H185  1  0.402900  0.506900  0.084100  1
  H  H186  1  0.597100  0.493100  0.915900  1
  H  H187  1  0.503600  0.584600  0.171900  1
  H  H188  1  0.496400  0.415400  0.828100  1
  H  H189  1  0.499200  0.639000  0.231300  1
  H  H190  1  0.500800  0.361000  0.768700  1
  H  H191  1  0.460200  0.626500  0.157700  1
  H  H192  1  0.539800  0.373500  0.842300  1
  H  H193  1  0.765600  0.631300  0.282400  1
  H  H194  1  0.234400  0.368700  0.717600  1
  H  H195  1  0.788100  0.621300  0.345900  1
  H  H196  1  0.211900  0.378700  0.654100  1
  H  H197  1  0.725300  0.576300  0.282300  1
  H  H198  1  0.274700  0.423700  0.717700  1
  H  H199  1  0.793200  0.503000  0.182300  1
  H  H200  1  0.206800  0.497000  0.817700  1
  H  H201  1  0.768000  0.560800  0.184900  1
  H  H202  1  0.232000  0.439200  0.815100  1
  H  H203  1  0.728300  0.504100  0.182900  1
  H  H204  1  0.271700  0.495900  0.817100  1
  H  H205  1  0.761900  0.492300  0.287000  1
  H  H206  1  0.238100  0.507700  0.713000  1
  H  H207  1  0.811100  0.474200  0.260000  1
  H  H208  1  0.188900  0.525800  0.740000  1
  H  H209  1  0.852000  0.496500  0.368000  1
  H  H210  1  0.148000  0.503500  0.632000  1
  H  H211  1  0.838500  0.562100  0.388500  1
  H  H212  1  0.161500  0.437900  0.611500  1
  H  H213  1  0.918500  0.487000  0.293600  1
  H  H214  1  0.081500  0.513000  0.706400  1
  H  H215  1  0.950400  0.490800  0.364400  1
  H  H216  1  0.049600  0.509200  0.635600  1
  H  H217  1  0.982900  0.537400  0.348200  1
  H  H218  1  0.017100  0.462600  0.651800  1
  H  H219  1  0.990800  0.618100  0.444700  1
  H  H220  1  0.009200  0.381900  0.555300  1
  H  H221  1  0.951600  0.575400  0.459600  1
  H  H222  1  0.048400  0.424600  0.540400  1
  H  H223  1  0.931200  0.632700  0.452700  1
  H  H224  1  0.068800  0.367300  0.547300  1
  H  H225  1  0.816400  0.704400  0.748200  1
  H  H226  1  0.183600  0.295600  0.251800  1
  H  H227  1  0.787400  0.694500  0.792800  1
  H  H228  1  0.212600  0.305500  0.207200  1
  H  H229  1  0.749400  0.657900  0.714500  1
  H  H230  1  0.250600  0.342100  0.285500  1
  H  H231  1  0.738200  0.571900  0.734000  1
  H  H232  1  0.261800  0.428100  0.266000  1
  H  H233  1  0.789600  0.602700  0.808600  1
  H  H234  1  0.210400  0.397300  0.191400  1
  H  H235  1  0.794500  0.544200  0.753500  1
  H  H236  1  0.205500  0.455800  0.246500  1
  H  H237  1  0.810600  0.542500  0.678000  1
  H  H238  1  0.189400  0.457500  0.322000  1
  H  H239  1  0.781000  0.586800  0.651600  1
  H  H240  1  0.219000  0.413200  0.348400  1
  H  H241  1  0.861100  0.633000  0.664300  1
  H  H242  1  0.138900  0.367000  0.335700  1
  H  H243  1  0.865600  0.564300  0.641900  1
  H  H244  1  0.134400  0.435700  0.358100  1
  H  H245  1  0.927800  0.541400  0.735200  1
  H  H246  1  0.072200  0.458600  0.264800  1
  H  H247  1  0.994700  0.587200  0.766600  1
  H  H248  1  0.005300  0.412800  0.233400  1
  H  H249  1  0.953500  0.552300  0.688800  1
  H  H250  1  0.046500  0.447700  0.311200  1
  H  H251  1  0.968100  0.652200  0.692100  1
  H  H252  1  0.031900  0.347800  0.307900  1
  H  H253  1  0.006700  0.685300  0.770300  1
  H  H254  1  0.993300  0.314700  0.229700  1
  H  H255  1  0.948000  0.704900  0.737100  1
  H  H256  1  0.052000  0.295100  0.262900  1
  H  H257  1  0.938500  0.240700  0.277700  1
  H  H258  1  0.061500  0.759300  0.722300  1
  H  H259  1  0.998800  0.250600  0.339700  1
  H  H260  1  0.001200  0.749400  0.660300  1
  H  H261  1  0.963300  0.302000  0.346200  1
  H  H262  1  0.036700  0.698000  0.653800  1
  H  H263  1  0.924300  0.228900  0.428100  1
  H  H264  1  0.075700  0.771100  0.571900  1
  H  H265  1  0.949700  0.295200  0.436400  1
  H  H266  1  0.050300  0.704800  0.563600  1
  H  H267  1  0.990100  0.248000  0.431000  1
  H  H268  1  0.009900  0.752000  0.569000  1
  H  H269  1  0.859100  0.276200  0.354700  1
  H  H270  1  0.140900  0.723800  0.645300  1
  H  H271  1  0.848800  0.239300  0.280600  1
  H  H272  1  0.151200  0.760700  0.719400  1
  H  H273  1  0.771400  0.195100  0.287500  1
  H  H274  1  0.228600  0.804900  0.712500  1
  H  H275  1  0.816000  0.192500  0.351800  1
  H  H276  1  0.184000  0.807500  0.648200  1
  H  H277  1  0.737500  0.082300  0.267100  1
  H  H278  1  0.262500  0.917700  0.732900  1
  H  H279  1  0.800900  0.088200  0.323000  1
  H  H280  1  0.199100  0.911800  0.677000  1
  H  H281  1  0.778500  0.038400  0.248100  1
  H  H282  1  0.221500  0.961600  0.751900  1
  H  H283  1  0.782000  0.066600  0.172600  1
  H  H284  1  0.218000  0.933400  0.827400  1
  H  H285  1  0.805700  0.136800  0.189800  1
  H  H286  1  0.194300  0.863200  0.810200  1
  H  H287  1  0.740800  0.112100  0.186000  1
  H  H288  1  0.259200  0.887900  0.814000  1
  Pd  Pd289  1  0.404930  0.131500  0.212080  1
  Pd  Pd290  1  0.595070  0.868500  0.787920  1
  Pd  Pd291  1  0.385650  0.610580  0.235300  1
  Pd  Pd292  1  0.614350  0.389420  0.764700  1
  Pd  Pd293  1  0.904580  0.132540  0.298440  1
  Pd  Pd294  1  0.095420  0.867460  0.701560  1
  Pd  Pd295  1  0.381820  0.090140  0.716060  1
  Pd  Pd296  1  0.618180  0.909860  0.283940  1
  Pd  Pd297  1  0.890730  0.607210  0.311970  1
  Pd  Pd298  1  0.109270  0.392790  0.688030  1
  Pd  Pd299  1  0.909750  0.657910  0.817040  1
  Pd  Pd300  1  0.090250  0.342090  0.182960  1
  C  C301  1  0.035200  0.987600  0.121500  1
  C  C302  1  0.964800  0.012400  0.878500  1
  C  C303  1  0.068800  0.941000  0.128200  1
  C  C304  1  0.931200  0.059000  0.871800  1
  C  C305  1  0.126600  0.963300  0.191300  1
  C  C306  1  0.873400  0.036700  0.808700  1
  C  C307  1  0.169400  0.924000  0.195600  1
  C  C308  1  0.830600  0.076000  0.804400  1
  C  C309  1  0.220300  0.937000  0.261900  1
  C  C310  1  0.779700  0.063000  0.738100  1
  C  C311  1  0.268700  0.902500  0.262100  1
  C  C312  1  0.731300  0.097500  0.737900  1
  C  C313  1  0.307900  0.900700  0.325100  1
  C  C314  1  0.692100  0.099300  0.674900  1
  C  C315  1  0.337200  0.957400  0.386400  1
  C  C316  1  0.662800  0.042600  0.613600  1
  C  C317  1  0.031400  0.659300  0.904800  1
  C  C318  1  0.968600  0.340700  0.095200  1
  C  C319  1  0.889100  0.657600  0.926700  1
  C  C320  1  0.110900  0.342400  0.073300  1
  C  C321  1  0.122700  0.743200  0.973700  1
  C  C322  1  0.877300  0.256800  0.026300  1
  C  C323  1  0.090300  0.778400  0.949600  1
  C  C324  1  0.909700  0.221600  0.050400  1
  C  C325  1  0.029700  0.751900  0.904700  1
  C  C326  1  0.970300  0.248100  0.095300  1
  C  C327  1  0.382600  0.716900  0.209000  1
  C  C328  1  0.617400  0.283100  0.791000  1
  C  C329  1  0.357800  0.751600  0.180600  1
  C  C330  1  0.642200  0.248400  0.819400  1
  C  C331  1  0.300200  0.725100  0.126000  1
  C  C332  1  0.699800  0.274900  0.874000  1
  C  C333  1  0.271400  0.664200  0.101100  1
  C  C334  1  0.728600  0.335800  0.898900  1
  C  C335  1  0.298400  0.631300  0.131500  1
  C  C336  1  0.701600  0.368700  0.868500  1
  C  C337  1  0.307300  0.013200  0.117400  1
  C  C338  1  0.692700  0.986800  0.882600  1
  C  C339  1  0.276800  0.951600  0.089500  1
  C  C340  1  0.723200  0.048400  0.910500  1
  C  C341  1  0.304800  0.916600  0.116500  1
  C  C342  1  0.695200  0.083400  0.883500  1
  C  C343  1  0.363300  0.944000  0.168800  1
  C  C344  1  0.636700  0.056000  0.831200  1
  C  C345  1  0.390700  0.005500  0.193500  1
  C  C346  1  0.609300  0.994500  0.806500  1
  C  C347  1  0.187300  0.770900  0.025100  1
  C  C348  1  0.812700  0.229100  0.974900  1
  C  C349  1  0.271100  0.762200  0.097300  1
  C  C350  1  0.728900  0.237800  0.902700  1
  C  C351  1  0.273200  0.851100  0.091900  1
  C  C352  1  0.726800  0.148900  0.908100  1
  C  C353  1  0.886900  0.748200  0.922200  1
  C  C354  1  0.113100  0.251800  0.077800  1
  C  C355  1  0.878900  0.773200  0.976800  1
  C  C356  1  0.121100  0.226800  0.023200  1
  C  C357  1  0.877200  0.739800  0.010500  1
  C  C358  1  0.122800  0.260200  0.989500  1
  C  C359  1  0.882600  0.679900  0.983900  1
  C  C360  1  0.117400  0.320100  0.016100  1
  C  C361  1  0.091900  0.683400  0.950600  1
  C  C362  1  0.908100  0.316600  0.049400  1
  C  C363  1  0.888400  0.005400  0.281100  1
  C  C364  1  0.111600  0.994600  0.718900  1
  C  C365  1  0.883400  0.944300  0.252100  1
  C  C366  1  0.116600  0.055700  0.747900  1
  C  C367  1  0.878100  0.915300  0.188900  1
  C  C368  1  0.121900  0.084700  0.811100  1
  C  C369  1  0.877900  0.950600  0.157000  1
  C  C370  1  0.122100  0.049400  0.843000  1
  C  C371  1  0.883900  0.013100  0.189900  1
  C  C372  1  0.116100  0.986900  0.810100  1
  C  C373  1  0.872500  0.628700  0.200000  1
  C  C374  1  0.127500  0.371300  0.800000  1
  C  C375  1  0.869700  0.660300  0.163900  1
  C  C376  1  0.130300  0.339700  0.836100  1
  C  C377  1  0.867900  0.721300  0.192100  1
  C  C378  1  0.132100  0.278700  0.807900  1
  C  C379  1  0.868600  0.747600  0.253400  1
  C  C380  1  0.131400  0.252400  0.746600  1
  C  C381  1  0.870800  0.711400  0.284700  1
  C  C382  1  0.129200  0.288600  0.715300  1
  C  C383  1  0.873000  0.766400  0.072500  1
  C  C384  1  0.127000  0.233600  0.927500  1
  C  C385  1  0.874500  0.848700  0.156300  1
  C  C386  1  0.125500  0.151300  0.843700  1
  C  C387  1  0.868500  0.758500  0.158100  1
  C  C388  1  0.131500  0.241500  0.841900  1
  C  C389  1  0.284300  0.630100  0.268600  1
  C  C390  1  0.715700  0.369900  0.731400  1
  C  C391  1  0.252100  0.658400  0.301400  1
  C  C392  1  0.747900  0.341600  0.698600  1
  C  C393  1  0.283100  0.713500  0.359600  1
  C  C394  1  0.716900  0.286500  0.640400  1
  C  C395  1  0.345400  0.738300  0.381000  1
  C  C396  1  0.654600  0.261700  0.619000  1
  C  C397  1  0.374500  0.708300  0.346200  1
  C  C398  1  0.625500  0.291700  0.653800  1
  C  C399  1  0.009500  0.704700  0.403800  1
  C  C400  1  0.990500  0.295300  0.596200  1
  C  C401  1  0.069900  0.734600  0.426200  1
  C  C402  1  0.930100  0.265400  0.573800  1
  C  C403  1  0.100700  0.709800  0.391300  1
  C  C404  1  0.899300  0.290200  0.608700  1
  C  C405  1  0.069800  0.654100  0.332400  1
  C  C406  1  0.930200  0.345900  0.667600  1
  C  C407  1  0.010400  0.626300  0.313900  1
  C  C408  1  0.989600  0.373700  0.686100  1
  C  C409  1  0.372600  0.968200  0.619600  1
  C  C410  1  0.627400  0.031800  0.380400  1
  C  C411  1  0.344500  0.908700  0.566800  1
  C  C412  1  0.655500  0.091300  0.433200  1
  C  C413  1  0.282600  0.883200  0.543100  1
  C  C414  1  0.717400  0.116800  0.456900  1
  C  C415  1  0.251200  0.916100  0.574000  1
  C  C416  1  0.748800  0.083900  0.426000  1
  C  C417  1  0.282200  0.973500  0.626700  1
  C  C418  1  0.717800  0.026500  0.373300  1
  C  C419  1  0.250800  0.743700  0.397900  1
  C  C420  1  0.749200  0.256300  0.602100  1
  C  C421  1  0.166000  0.741800  0.412600  1
  C  C422  1  0.834000  0.258200  0.587400  1
  C  C423  1  0.251000  0.821900  0.483200  1
  C  C424  1  0.749000  0.178100  0.516800  1
  C  C425  1  0.289100  0.112100  0.617600  1
  C  C426  1  0.710900  0.887900  0.382400  1
  C  C427  1  0.260700  0.117600  0.561300  1
  C  C428  1  0.739300  0.882400  0.438700  1
  C  C429  1  0.292700  0.120600  0.527300  1
  C  C430  1  0.707300  0.879400  0.472700  1
  C  C431  1  0.352300  0.116200  0.548800  1
  C  C432  1  0.647700  0.883800  0.451200  1
  C  C433  1  0.377400  0.110500  0.605200  1
  C  C434  1  0.622600  0.889500  0.394800  1
  C  C435  1  0.022700  0.133500  0.291800  1
  C  C436  1  0.977300  0.866500  0.708200  1
  C  C437  1  0.082500  0.132300  0.310200  1
  C  C438  1  0.917500  0.867700  0.689800  1
  C  C439  1  0.116200  0.136500  0.371000  1
  C  C440  1  0.883800  0.863500  0.629000  1
  C  C441  1  0.087700  0.141400  0.411300  1
  C  C442  1  0.912300  0.858600  0.588700  1
  C  C443  1  0.027700  0.143400  0.390100  1
  C  C444  1  0.972300  0.856600  0.609900  1
  C  C445  1  0.264000  0.127100  0.466400  1
  C  C446  1  0.736000  0.872900  0.533600  1
  C  C447  1  0.181300  0.134600  0.393700  1
  C  C448  1  0.818700  0.865400  0.606300  1
  C  C449  1  0.266500  0.135600  0.381300  1
  C  C450  1  0.733500  0.864400  0.618700  1
  C  C451  1  0.389200  0.134100  0.324600  1
  C  C452  1  0.610800  0.865900  0.675400  1
  C  C453  1  0.360500  0.133800  0.362200  1
  C  C454  1  0.639500  0.866200  0.637800  1
  C  C455  1  0.301300  0.138900  0.343300  1
  C  C456  1  0.698700  0.861100  0.656700  1
  C  C457  1  0.273800  0.146000  0.287800  1
  C  C458  1  0.726200  0.854000  0.712200  1
  C  C459  1  0.307400  0.146200  0.253300  1
  C  C460  1  0.692600  0.853800  0.746700  1
  C  C461  1  0.486000  0.249200  0.327400  1
  C  C462  1  0.514000  0.750800  0.672600  1
  C  C463  1  0.409600  0.259100  0.244500  1
  C  C464  1  0.590400  0.740900  0.755500  1
  C  C465  1  0.496900  0.228200  0.236200  1
  C  C466  1  0.503100  0.771800  0.763800  1
  C  C467  1  0.479500  0.185200  0.170800  1
  C  C468  1  0.520500  0.814800  0.829200  1
  C  C469  1  0.398100  0.097000  0.081300  1
  C  C470  1  0.601900  0.903000  0.918700  1
  C  C471  1  0.485300  0.082500  0.154400  1
  C  C472  1  0.514700  0.917500  0.845600  1
  C  C473  1  0.466800  0.042500  0.790600  1
  C  C474  1  0.533200  0.957500  0.209400  1
  C  C475  1  0.370200  0.035800  0.798000  1
  C  C476  1  0.629800  0.964200  0.202000  1
  C  C477  1  0.445800  0.133600  0.853500  1
  C  C478  1  0.554200  0.866400  0.146500  1
  C  C479  1  0.460100  0.180800  0.844000  1
  C  C480  1  0.539900  0.819200  0.156000  1
  C  C481  1  0.375800  0.213400  0.787500  1
  C  C482  1  0.624200  0.786600  0.212500  1
  C  C483  1  0.463300  0.214500  0.770300  1
  C  C484  1  0.536700  0.785500  0.229700  1
  C  C485  1  0.362900  0.517700  0.274000  1
  C  C486  1  0.637100  0.482300  0.726000  1
  C  C487  1  0.450600  0.602400  0.357800  1
  C  C488  1  0.549400  0.397600  0.642200  1
  C  C489  1  0.458100  0.534800  0.264500  1
  C  C490  1  0.541900  0.465200  0.735500  1
  C  C491  1  0.447300  0.520700  0.202700  1
  C  C492  1  0.552700  0.479300  0.797300  1
  C  C493  1  0.381600  0.528300  0.108700  1
  C  C494  1  0.618400  0.471700  0.891300  1
  C  C495  1  0.476300  0.607200  0.185400  1
  C  C496  1  0.523700  0.392800  0.814600  1
  C  C497  1  0.767200  0.600500  0.297900  1
  C  C498  1  0.232800  0.399500  0.702100  1
  C  C499  1  0.770000  0.529300  0.199400  1
  C  C500  1  0.230000  0.470700  0.800600  1
  C  C501  1  0.802400  0.508400  0.290700  1
  C  C502  1  0.197600  0.491600  0.709300  1
  C  C503  1  0.849400  0.530900  0.357400  1
  C  C504  1  0.150600  0.469100  0.642600  1
  C  C505  1  0.943400  0.514800  0.340600  1
  C  C506  1  0.056600  0.485200  0.659400  1
  C  C507  1  0.949400  0.599800  0.436600  1
  C  C508  1  0.050600  0.400200  0.563400  1
  C  C509  1  0.790400  0.674400  0.751600  1
  C  C510  1  0.209600  0.325600  0.248400  1
  C  C511  1  0.782000  0.582100  0.762700  1
  C  C512  1  0.218000  0.417900  0.237300  1
  C  C513  1  0.817100  0.585700  0.686000  1
  C  C514  1  0.182900  0.414300  0.314000  1
  C  C515  1  0.865500  0.600800  0.678200  1
  C  C516  1  0.134500  0.399200  0.321800  1
  C  C517  1  0.952800  0.571700  0.731300  1
  C  C518  1  0.047200  0.428300  0.268700  1
  C  C519  1  0.965500  0.670400  0.733700  1
  C  C520  1  0.034500  0.329600  0.266300  1
  C  C521  1  0.958400  0.257700  0.325500  1
  C  C522  1  0.041600  0.742300  0.674500  1
  C  C523  1  0.948200  0.251700  0.415900  1
  C  C524  1  0.051800  0.748300  0.584100  1
  C  C525  1  0.858300  0.236500  0.321600  1
  C  C526  1  0.141700  0.763500  0.678400  1
  C  C527  1  0.811600  0.189400  0.309400  1
  C  C528  1  0.188400  0.810600  0.690600  1
  C  C529  1  0.779500  0.079800  0.277200  1
  C  C530  1  0.220500  0.920200  0.722800  1
  C  C531  1  0.782900  0.109100  0.198400  1
  C  C532  1  0.217100  0.890900  0.801600  1
  C  C533  1  0.079400  0.623700  0.113000  1
  C  C534  1  0.920600  0.376300  0.887000  1
  C  C535  1  0.057300  0.672300  0.101400  1
  C  C536  1  0.942700  0.327700  0.898600  1
  C  C537  1  0.037500  0.716000  0.148400  1
  C  C538  1  0.962500  0.284000  0.851600  1
  C  C539  1  0.080500  0.755900  0.221100  1
  C  C540  1  0.919500  0.244100  0.778900  1
  C  C541  1  0.059900  0.808800  0.256700  1
  C  C542  1  0.940100  0.191200  0.743300  1
  C  C543  1  0.091800  0.843000  0.330800  1
  C  C544  1  0.908200  0.157000  0.669200  1
  C  C545  1  0.099100  0.907100  0.381800  1
  C  C546  1  0.900900  0.092900  0.618200  1
  C  C547  1  0.039900  0.919400  0.367800  1
  C  C548  1  0.960100  0.080600  0.632200  1
  I  I549  1  0.952810  0.949770  0.032900  1
  I  I550  1  0.047190  0.050230  0.967100  1
  I  I551  1  0.408140  0.957260  0.472340  1
  I  I552  1  0.591860  0.042740  0.527660  1
  I  I553  1  0.093360  0.557350  0.034220  1
  I  I554  1  0.906640  0.442650  0.965780  1
  I  I555  1  0.043860  0.008440  0.441790  1
  I  I556  1  0.956140  0.991560  0.558210  1
  N  N557  1  0.178600  0.493900  0.964300  1
  N  N558  1  0.821400  0.506100  0.035700  1
  N  N559  1  0.268400  0.189300  0.104500  1
  N  N560  1  0.731600  0.810700  0.895500  1
  N  N561  1  0.101100  0.509100  0.184400  1
  N  N562  1  0.898900  0.490900  0.815600  1
  N  N563  1  0.360400  0.778600  0.030600  1
  N  N564  1  0.639600  0.221400  0.969400  1
  N  N565  1  0.528000  0.065700  0.680300  1
  N  N566  1  0.472000  0.934300  0.319700  1
  N  N567  1  0.091200  0.173400  0.181400  1
  N  N568  1  0.908800  0.826600  0.818600  1
  N  N569  1  0.729700  0.784200  0.126800  1
  N  N570  1  0.270300  0.215800  0.873200  1
  N  N571  1  0.155800  0.266300  0.559900  1
  N  N572  1  0.844200  0.733700  0.440100  1
  N  N573  1  0.067400  0.887400  0.539800  1
  N  N574  1  0.932600  0.112600  0.460200  1
  N  N575  1  0.143100  0.639600  0.479000  1
  N  N576  1  0.856900  0.360400  0.521000  1
  N  N577  1  0.433300  0.271900  0.642900  1
  N  N578  1  0.566700  0.728100  0.357100  1
  N  N579  1  0.000700  0.693000  0.881500  1
  N  N580  1  0.999300  0.307000  0.118500  1
  N  N581  1  0.353600  0.657100  0.184600  1
  N  N582  1  0.646400  0.342900  0.815400  1
  N  N583  1  0.363200  0.039800  0.167600  1
  N  N584  1  0.636800  0.960200  0.832400  1
  N  N585  1  0.213100  0.735500  0.049300  1
  N  N586  1  0.786900  0.264500  0.950700  1
  N  N587  1  0.302100  0.820100  0.119700  1
  N  N588  1  0.697900  0.179900  0.880300  1
  N  N589  1  0.215500  0.828700  0.043500  1
  N  N590  1  0.784500  0.171300  0.956500  1
  N  N591  1  0.892100  0.691400  0.897000  1
  N  N592  1  0.107900  0.308600  0.103000  1
  N  N593  1  0.888900  0.039400  0.250000  1
  N  N594  1  0.111100  0.960600  0.750000  1
  N  N595  1  0.873700  0.652800  0.258100  1
  N  N596  1  0.126300  0.347200  0.741900  1
  N  N597  1  0.875600  0.826900  0.099800  1
  N  N598  1  0.124400  0.173100  0.900200  1
  N  N599  1  0.871000  0.817400  0.189000  1
  N  N600  1  0.129000  0.182600  0.811000  1
  N  N601  1  0.868800  0.730600  0.100500  1
  N  N602  1  0.131200  0.269400  0.899500  1
  N  N603  1  0.344000  0.653900  0.290800  1
  N  N604  1  0.656000  0.346100  0.709200  1
  N  N605  1  0.980400  0.650500  0.348200  1
  N  N606  1  0.019600  0.349500  0.651800  1
  N  N607  1  0.342500  0.000000  0.648900  1
  N  N608  1  0.657500  0.000000  0.351100  1
  N  N609  1  0.192800  0.713200  0.375000  1
  N  N610  1  0.807200  0.286800  0.625000  1
  N  N611  1  0.192600  0.796000  0.467200  1
  N  N612  1  0.807400  0.204000  0.532800  1
  N  N613  1  0.282200  0.798300  0.451500  1
  N  N614  1  0.717800  0.201700  0.548500  1
  N  N615  1  0.346200  0.107800  0.638600  1
  N  N616  1  0.653800  0.892200  0.361400  1
  N  N617  1  0.995400  0.138300  0.330100  1
  N  N618  1  0.004600  0.861700  0.669900  1
  N  N619  1  0.364100  0.140200  0.271200  1
  N  N620  1  0.635900  0.859800  0.728800  1
  N  N621  1  0.205900  0.128700  0.448000  1
  N  N622  1  0.794100  0.871300  0.552000  1
  N  N623  1  0.209500  0.137800  0.357600  1
  N  N624  1  0.790500  0.862200  0.642400  1
  N  N625  1  0.296700  0.129300  0.435200  1
  N  N626  1  0.703300  0.870700  0.564800  1
  N  N627  1  0.449900  0.223800  0.258100  1
  N  N628  1  0.550100  0.776200  0.741900  1
  N  N629  1  0.444900  0.122400  0.150400  1
  N  N630  1  0.555100  0.877600  0.849600  1
  N  N631  1  0.418800  0.072400  0.793900  1
  N  N632  1  0.581200  0.927600  0.206100  1
  N  N633  1  0.421000  0.182100  0.784300  1
  N  N634  1  0.579000  0.817900  0.215700  1
  N  N635  1  0.415900  0.562700  0.286000  1
  N  N636  1  0.584100  0.437300  0.714000  1
  N  N637  1  0.424700  0.563900  0.178100  1
  N  N638  1  0.575300  0.436100  0.821900  1
  N  N639  1  0.800900  0.559500  0.272300  1
  N  N640  1  0.199100  0.440500  0.727700  1
  N  N641  1  0.910500  0.559300  0.364500  1
  N  N642  1  0.089500  0.440700  0.635500  1
  N  N643  1  0.817900  0.623400  0.750400  1
  N  N644  1  0.182100  0.376600  0.249600  1
  N  N645  1  0.926000  0.623400  0.736200  1
  N  N646  1  0.074000  0.376600  0.263800  1
  N  N647  1  0.919700  0.226800  0.345300  1
  N  N648  1  0.080300  0.773200  0.654700  1
  N  N649  1  0.812700  0.126300  0.267400  1
  N  N650  1  0.187300  0.873700  0.732600  1
  N  N651  1  0.525900  0.094700  0.676700  1
  N  N652  1  0.474100  0.905300  0.323300  1
  N  N653  1  0.560100  0.163900  0.378100  1
  N  N654  1  0.439900  0.836100  0.621900  1
  O  O655  1  0.224000  0.650000  0.739000  1
  O  O656  1  0.776000  0.350000  0.261000  1
  O  O657  1  0.626900  0.012600  0.089500  1
  O  O658  1  0.373100  0.987400  0.910500  1
  O  O659  1  0.753500  0.982700  0.044500  1
  O  O660  1  0.246500  0.017300  0.955500  1
  O  O661  1  0.718800  0.933700  0.125000  1
  O  O662  1  0.281200  0.066300  0.875000  1
  O  O663  1  0.925600  0.126500  0.139100  1
  O  O664  1  0.074400  0.873500  0.860900  1
  O  O665  1  0.911000  0.451000  0.483000  1
  O  O666  1  0.089000  0.549000  0.517000  1
  O  O667  1  0.061700  0.422500  0.432900  1
  O  O668  1  0.938300  0.577500  0.567100  1
  O  O669  1  0.680300  0.056500  0.034200  1
  O  O670  1  0.319700  0.943500  0.965800  1
  O  O671  1  0.377900  0.397800  0.324500  1
  O  O672  1  0.622100  0.602200  0.675500  1
  O  O673  1  0.331100  0.349000  0.188200  1
  O  O674  1  0.668900  0.651000  0.811800  1
  O  O675  1  0.158600  0.268500  0.345100  1
  O  O676  1  0.841400  0.731500  0.654900  1
  O  O677  1  0.363400  0.306000  0.363500  1
  O  O678  1  0.636600  0.694000  0.636500  1
  O  O679  1  0.312100  0.434300  0.468800  1
  O  O680  1  0.687900  0.565700  0.531200  1
  O  O681  1  0.353400  0.491700  0.409900  1
  O  O682  1  0.646600  0.508300  0.590100  1
  O  O683  1  0.309600  0.584500  0.389200  1
  O  O684  1  0.690400  0.415500  0.610800  1
  O  O685  1  0.186000  0.566300  0.350100  1
  O  O686  1  0.814000  0.433700  0.649900  1
  O  O687  1  0.214900  0.488200  0.118300  1
  O  O688  1  0.785100  0.511800  0.881700  1
  O  O689  1  0.282000  0.405200  0.112600  1
  O  O690  1  0.718000  0.594800  0.887400  1
  O  O691  1  0.508200  0.933400  0.018700  1
  O  O692  1  0.491800  0.066600  0.981300  1
  O  O693  1  0.417300  0.931700  0.057500  1
  O  O694  1  0.582700  0.068300  0.942500  1
  O  O695  1  0.416100  0.655500  0.072300  1
  O  O696  1  0.583900  0.344500  0.927700  1
  O  O697  1  0.317100  0.561400  0.971000  1
  O  O698  1  0.682900  0.438600  0.029000  1
  O  O699  1  0.137700  0.582300  0.828900  1
  O  O700  1  0.862300  0.417700  0.171100  1
  O  O701  1  0.143200  0.780500  0.837500  1
  O  O702  1  0.856800  0.219500  0.162500  1
  O  O703  1  0.946100  0.497700  0.165000  1
  O  O704  1  0.053900  0.502300  0.835000  1
  O  O705  1  0.636500  0.119500  0.193200  1
  O  O706  1  0.363500  0.880500  0.806800  1
  O  O707  1  0.279100  0.306200  0.410900  1
  O  O708  1  0.720900  0.693800  0.589100  1
  O  O709  1  0.111400  0.307900  0.430800  1
  O  O710  1  0.888600  0.692100  0.569200  1
  O  O711  1  0.718200  0.654700  0.171900  1
  O  O712  1  0.281800  0.345300  0.828100  1
  O  O713  1  0.526100  0.639500  0.082300  1
  O  O714  1  0.473900  0.360500  0.917700  1
  O  O715  1  0.620700  0.637800  0.196200  1
  O  O716  1  0.379300  0.362200  0.803800  1
  O  O717  1  0.648100  0.131300  0.311100  1
  O  O718  1  0.351900  0.868700  0.688900  1
  O  O719  1  0.092100  0.143100  0.572100  1
  O  O720  1  0.907900  0.856900  0.427900  1
  O  O721  1  0.728100  0.179000  0.091700  1
  O  O722  1  0.271900  0.821000  0.908300  1
  O  O723  1  0.418200  0.440600  0.563400  1
  O  O724  1  0.581800  0.559400  0.436600  1
  O  O725  1  0.459500  0.348200  0.479900  1
  O  O726  1  0.540500  0.651800  0.520100  1
  O  O727  1  0.494500  0.555400  0.622900  1
  O  O728  1  0.505500  0.444600  0.377100  1
  O  O729  1  0.112800  0.655600  0.768600  1
  O  O730  1  0.887200  0.344400  0.231400  1
  O  O731  1  0.264500  0.631900  0.913800  1
  O  O732  1  0.735500  0.368100  0.086200  1
  O  O733  1  0.139200  0.067400  0.624500  1
  O  O734  1  0.860800  0.932600  0.375500  1
  O  O735  1  0.836700  0.910500  0.904700  1
  O  O736  1  0.163300  0.089500  0.095300  1
  O  O737  1  0.702600  0.630500  0.001900  1
  O  O738  1  0.297400  0.369500  0.998100  1
  O  O739  1  0.839600  0.019600  0.997000  1
  O  O740  1  0.160400  0.980400  0.003000  1
  O  O741  1  0.507600  0.160700  0.586000  1
  O  O742  1  0.492400  0.839300  0.414000  1
  O  O743  1  0.434200  0.353000  0.162600  1
  O  O744  1  0.565800  0.647000  0.837400  1
  O  O745  1  0.404000  0.544000  0.851000  1
  O  O746  1  0.596000  0.456000  0.149000  1
  O  O747  1  0.570000  0.712000  0.030000  1
  O  O748  1  0.430000  0.288000  0.970000  1
  O  O749  1  0.276500  0.494100  0.624900  1
  O  O750  1  0.723500  0.505900  0.375100  1
  O  O751  1  0.216000  0.600000  0.626000  1
  O  O752  1  0.784000  0.400000  0.374000  1
  O  O753  1  0.341600  0.630100  0.564300  1
  O  O754  1  0.658400  0.369900  0.435700  1
  O  O755  1  0.587300  0.273900  0.132700  1
  O  O756  1  0.412700  0.726100  0.867300  1
  O  O757  1  0.539000  0.397000  0.266000  1
  O  O758  1  0.461000  0.603000  0.734000  1
  O  O759  1  0.413000  0.233000  0.053000  1
  O  O760  1  0.587000  0.767000  0.947000  1
  O  O761  1  0.365600  0.420600  0.637600  1
  O  O762  1  0.634400  0.579400  0.362400  1
  O  O763  1  0.242000  0.486000  0.522000  1
  O  O764  1  0.758000  0.514000  0.478000  1
  O  O765  1  0.682000  0.311000  0.351000  1
  O  O766  1  0.318000  0.689000  0.649000  1
  O  O767  1  0.675300  0.373300  0.159900  1
  O  O768  1  0.324700  0.626700  0.840100  1
  O  O769  1  0.508000  0.187000  0.040000  1
  O  O770  1  0.492000  0.813000  0.960000  1
  O  O771  1  0.369000  0.487000  0.936000  1
  O  O772  1  0.631000  0.513000  0.064000  1
  O  O773  1  0.623600  0.306600  0.492600  1
  O  O774  1  0.376400  0.693400  0.507400  1
  O  O775  1  0.550300  0.412300  0.473500  1
  O  O776  1  0.449700  0.587700  0.526500  1
  O  O777  1  0.582000  0.378000  0.332000  1
  O  O778  1  0.418000  0.622000  0.668000  1
  O  O779  1  0.317000  0.298000  0.678000  1
  O  O780  1  0.683000  0.702000  0.322000  1
  O  O781  1  0.696300  0.850300  0.030400  1
  O  O782  1  0.303700  0.149700  0.969600  1
  O  O783  1  0.468100  0.451900  0.027600  1
  O  O784  1  0.531900  0.548100  0.972400  1
  O  O785  1  0.458600  0.252300  0.524200  1
  O  O786  1  0.541400  0.747700  0.475800  1
  O  O787  1  0.501000  0.160600  0.488200  1
  O  O788  1  0.499000  0.839400  0.511800  1
  O  O789  1  0.246000  0.539000  0.480000  1
  O  O790  1  0.754000  0.461000  0.520000  1
  O  O791  1  0.295000  0.758000  0.573000  1
  O  O792  1  0.705000  0.242000  0.427000  1
  O  O793  1  0.601500  0.555500  0.240000  1
  O  O794  1  0.398500  0.444500  0.760000  1
  O  O795  1  0.585000  0.625000  0.947000  1
  O  O796  1  0.415000  0.375000  0.053000  1
  O  O797  1  0.308000  0.436000  0.945000  1
  O  O798  1  0.692000  0.564000  0.055000  1
  O  O799  1  0.222600  0.488000  0.004700  1
  O  O800  1  0.777400  0.512000  0.995300  1
  O  O801  1  0.126400  0.470500  0.952000  1
  O  O802  1  0.873600  0.529500  0.048000  1
  O  O803  1  0.186400  0.516700  0.930500  1
  O  O804  1  0.813600  0.483300  0.069500  1
  O  O805  1  0.295000  0.217900  0.085600  1
  O  O806  1  0.705000  0.782100  0.914400  1
  O  O807  1  0.269200  0.136500  0.094600  1
  O  O808  1  0.730800  0.863500  0.905400  1
  O  O809  1  0.251400  0.220000  0.145900  1
  O  O810  1  0.748600  0.780000  0.854100  1
  O  O811  1  0.065700  0.463200  0.132200  1
  O  O812  1  0.934300  0.536800  0.867800  1
  O  O813  1  0.155300  0.525200  0.196300  1
  O  O814  1  0.844700  0.474800  0.803700  1
  O  O815  1  0.081500  0.537500  0.222900  1
  O  O816  1  0.918500  0.462500  0.777100  1
  O  O817  1  0.307100  0.766400  0.987100  1
  O  O818  1  0.692900  0.233600  0.012900  1
  O  O819  1  0.371100  0.739200  0.048900  1
  O  O820  1  0.628900  0.260800  0.951100  1
  O  O821  1  0.399200  0.826900  0.053300  1
  O  O822  1  0.600800  0.173100  0.946700  1
  O  O823  1  0.534100  0.018100  0.685500  1
  O  O824  1  0.465900  0.981900  0.314500  1
  O  O825  1  0.508000  0.061900  0.624800  1
  O  O826  1  0.492000  0.938100  0.375200  1
  O  O827  1  0.538500  0.114000  0.729400  1
  O  O828  1  0.461500  0.886000  0.270600  1
  O  O829  1  0.488200  0.914900  0.560900  1
  O  O830  1  0.511800  0.085100  0.439100  1
  O  O831  1  0.069900  0.151300  0.121200  1
  O  O832  1  0.930100  0.848700  0.878800  1
  O  O833  1  0.139900  0.170700  0.215200  1
  O  O834  1  0.860100  0.829300  0.784800  1
  O  O835  1  0.058300  0.195900  0.206500  1
  O  O836  1  0.941700  0.804100  0.793500  1
  O  O837  1  0.726600  0.839000  0.144200  1
  O  O838  1  0.273400  0.161000  0.855800  1
  O  O839  1  0.733000  0.762300  0.164500  1
  O  O840  1  0.267000  0.237700  0.835500  1
  O  O841  1  0.733600  0.755500  0.074700  1
  O  O842  1  0.266400  0.244500  0.925300  1
  O  O843  1  0.752100  0.915100  0.275300  1
  O  O844  1  0.247900  0.084900  0.724700  1
  O  O845  1  0.180900  0.236500  0.587300  1
  O  O846  1  0.819100  0.763500  0.412700  1
  O  O847  1  0.182000  0.291700  0.538100  1
  O  O848  1  0.818000  0.708300  0.461900  1
  O  O849  1  0.105000  0.271200  0.554700  1
  O  O850  1  0.895000  0.728800  0.445300  1
  O  O851  1  0.064200  0.937400  0.548200  1
  O  O852  1  0.935800  0.062600  0.451800  1
  O  O853  1  0.019700  0.840700  0.496600  1
  O  O854  1  0.980300  0.159300  0.503400  1
  O  O855  1  0.110300  0.875300  0.571300  1
  O  O856  1  0.889700  0.124700  0.428700  1
  O  O857  1  0.100300  0.593100  0.435800  1
  O  O858  1  0.899700  0.406900  0.564200  1
  O  O859  1  0.186000  0.655300  0.467700  1
  O  O860  1  0.814000  0.344700  0.532300  1
  O  O861  1  0.143400  0.671600  0.532200  1
  O  O862  1  0.856600  0.328400  0.467800  1
  O  O863  1  0.537400  0.112600  0.308400  1
  O  O864  1  0.462600  0.887400  0.691600  1
  O  O865  1  0.293000  0.273900  0.512500  1
  O  O866  1  0.707000  0.726100  0.487500  1
  O  O867  1  0.408800  0.282000  0.595300  1
  O  O868  1  0.591200  0.718000  0.404700  1
  O  O869  1  0.401400  0.268200  0.673100  1
  O  O870  1  0.598600  0.731800  0.326900  1
  O  O871  1  0.486900  0.271900  0.662700  1
  O  O872  1  0.513100  0.728100  0.337300  1
  O  O873  1  0.671200  0.220900  0.178400  1
  O  O874  1  0.328800  0.779100  0.821600  1
  O  O875  1  0.155000  0.628000  0.693000  1
  O  O876  1  0.845000  0.372000  0.307000  1
  O  O877  1  0.265000  0.683000  0.708000  1
  O  O878  1  0.735000  0.317000  0.292000  1
  O  O879  1  0.583000  0.031700  0.069600  1
  O  O880  1  0.417000  0.968300  0.930400  1
  O  O881  1  0.785900  0.025000  0.047200  1
  O  O882  1  0.214100  0.975000  0.952800  1
  O  O883  1  0.718100  0.963900  0.089100  1
  O  O884  1  0.281900  0.036100  0.910900  1
  O  O885  1  0.947500  0.107800  0.069900  1
  O  O886  1  0.052500  0.892200  0.930100  1
  O  O887  1  0.898700  0.126200  0.151000  1
  O  O888  1  0.101300  0.873800  0.849000  1
  O  O889  1  0.953800  0.405000  0.388000  1
  O  O890  1  0.046200  0.595000  0.612000  1
  O  O891  1  0.128100  0.423900  0.468800  1
  O  O892  1  0.871900  0.576100  0.531200  1
  O  O893  1  0.422000  0.499000  0.868000  1
  O  O894  1  0.578000  0.501000  0.132000  1
  O  O895  1  0.260000  0.720000  0.605000  1
  O  O896  1  0.740000  0.280000  0.395000  1
  O  O897  1  0.410000  0.769000  0.029000  1
  O  O898  1  0.590000  0.231000  0.971000  1
  O  O899  1  0.529600  0.144700  0.674600  1
  O  O900  1  0.470400  0.855300  0.325400  1
  O  O901  1  0.510000  0.045800  0.625500  1
  O  O902  1  0.490000  0.954200  0.374500  1
  O  O903  1  0.539000  0.095000  0.729700  1
  O  O904  1  0.461000  0.905000  0.270300  1
  O  O905  1  0.508700  0.938500  0.632000  1
  O  O906  1  0.491300  0.061500  0.368000  1
  O  O907  1  0.742000  0.896000  0.227000  1
  O  O908  1  0.258000  0.104000  0.773000  1
  O  O909  1  0.525200  0.114700  0.327700  1
  O  O910  1  0.474800  0.885300  0.672300  1
  O  O911  1  0.551400  0.186100  0.428600  1
  O  O912  1  0.448600  0.813900  0.571400  1
  O  O913  1  0.605300  0.193000  0.378600  1
  O  O914  1  0.394700  0.807000  0.621400  1
  O  O915  1  0.293800  0.294200  0.582000  1
  O  O916  1  0.706200  0.705800  0.418000  1
  O  O917  1  0.938300  0.413900  0.425600  1
  O  O918  1  0.061700  0.586100  0.574400  1
  F  F919  1  0.023600  0.011100  0.171500  1
  F  F920  1  0.976400  0.988900  0.828500  1
  F  F921  1  0.073500  0.031200  0.124400  1
  F  F922  1  0.926500  0.968800  0.875600  1
  F  F923  1  0.028500  0.894200  0.121200  1
  F  F924  1  0.971500  0.105800  0.878800  1
  F  F925  1  0.080300  0.916100  0.076800  1
  F  F926  1  0.919700  0.083900  0.923200  1
  F  F927  1  0.111400  0.974000  0.240000  1
  F  F928  1  0.888600  0.026000  0.760000  1
  F  F929  1  0.159500  0.018600  0.206900  1
  F  F930  1  0.840500  0.981400  0.793100  1
  F  F931  1  0.134100  0.864700  0.164200  1
  F  F932  1  0.865900  0.135300  0.835800  1
  F  F933  1  0.197100  0.925300  0.157700  1
  F  F934  1  0.802900  0.074700  0.842300  1
  F  F935  1  0.192400  0.918100  0.291400  1
  F  F936  1  0.807600  0.081900  0.708600  1
  F  F937  1  0.244900  0.996600  0.293000  1
  F  F938  1  0.755100  0.003400  0.707000  1
  F  F939  1  0.240600  0.844800  0.211700  1
  F  F940  1  0.759400  0.155200  0.788300  1
  F  F941  1  0.304100  0.928300  0.245800  1
  F  F942  1  0.695900  0.071700  0.754200  1
  F  F943  1  0.272400  0.862400  0.332600  1
  F  F944  1  0.727600  0.137600  0.667400  1
  F  F945  1  0.350800  0.873200  0.316500  1
  F  F946  1  0.649200  0.126800  0.683500  1
  F  F947  1  0.296000  0.982500  0.403000  1
  F  F948  1  0.704000  0.017500  0.597000  1
  F  F949  1  0.363900  0.000100  0.375400  1
  F  F950  1  0.636100  0.999900  0.624600  1
  F  F951  1  0.041300  0.592700  0.125000  1
  F  F952  1  0.958700  0.407300  0.875000  1
  F  F953  1  0.131400  0.653000  0.169700  1
  F  F954  1  0.868600  0.347000  0.830300  1
  F  F955  1  0.009000  0.639200  0.039800  1
  F  F956  1  0.991000  0.360800  0.960200  1
  F  F957  1  0.100300  0.703800  0.098500  1
  F  F958  1  0.899700  0.296200  0.901500  1
  F  F959  1  0.020100  0.753900  0.122700  1
  F  F960  1  0.979900  0.246100  0.877300  1
  F  F961  1  0.987200  0.684900  0.141600  1
  F  F962  1  0.012800  0.315100  0.858400  1
  F  F963  1  0.134100  0.779600  0.225200  1
  F  F964  1  0.865900  0.220400  0.774800  1
  F  F965  1  0.092100  0.725400  0.254000  1
  F  F966  1  0.907900  0.274600  0.746000  1
  F  F967  1  0.069200  0.854600  0.240600  1
  F  F968  1  0.930800  0.145400  0.759400  1
  F  F969  1  0.000600  0.791400  0.235900  1
  F  F970  1  0.999400  0.208600  0.764100  1
  F  F971  1  0.151600  0.849800  0.350600  1
  F  F972  1  0.848400  0.150200  0.649400  1
  F  F973  1  0.076100  0.807000  0.353200  1
  F  F974  1  0.923900  0.193000  0.646800  1
  F  F975  1  0.129500  0.953900  0.379200  1
  F  F976  1  0.870500  0.046100  0.620800  1
  F  F977  1  0.124300  0.922200  0.447100  1
  F  F978  1  0.875700  0.077800  0.552900  1
  F  F979  1  0.014500  0.912900  0.308500  1
  F  F980  1  0.985500  0.087100  0.691500  1
  F  F981  1  0.003100  0.875000  0.366600  1
  F  F982  1  0.996900  0.125000  0.633400  1
