
#######################################################################
#
#                 Cambridge Crystallographic Data Centre
#                                CCDC 
#
#######################################################################
#
# If this CIF has been generated from an entry in the Cambridge 
# Structural Database, then it will include bibliographic, chemical, 
# crystal, experimental, refinement or atomic coordinate data resulting 
# from the CCDC's data processing and validation procedures.
#
#######################################################################

data_AJEMUZ
_chemical_formula_moiety         
'C108 H144 N36 Pd6 8+,2(C8 F16 I2),10.57(N1 O3 1-),66.77(H2 O1),2.57(H3 O1 1+)'
_chemical_name_systematic        
"tetrakis(\m-2,4,6-tri(pyridin-4-yl)-1,3,5-triazine)-hexakis(\m-N,N,N',N'-tetramethylethane-1,2-diamine)-hexa-palladium oxonium nitrate 1,1,2,2,3,3,4,4,5,5,6,6,7,7,8,8-hexadecafluoro-1,8-diiodooctane hydrate"
_symmetry_cell_setting           triclinic
_symmetry_space_group_name_H-M   'P -1'
_symmetry_Int_Tables_number      2
_space_group_name_Hall           '-P 1'
loop_
_symmetry_equiv_pos_site_id
_symmetry_equiv_pos_as_xyz
1 x,y,z
2 -x,-y,-z
_cell_length_a                   24.503(9)
_cell_length_b                   24.753(9)
_cell_length_c                   24.896(9)
_cell_angle_alpha                113.618(4)
_cell_angle_beta                 111.770(4)
_cell_angle_gamma                95.547(4)
_cell_volume                     12303.2
_exptl_crystal_colour            colorless
_exptl_crystal_description       Block
_cell_formula_units_Z            2
loop_
_atom_site_label
_atom_site_type_symbol
_atom_site_fract_x
_atom_site_fract_y
_atom_site_fract_z
I3 I 0.95281(6) -0.05023(7) 0.03290(8)
I4 I 1.40814(7) -0.04274(10) 0.47234(8)
F17 F 1.0236(7) 0.0111(8) 0.1715(6)
F18 F 1.0735(7) 0.0312(7) 0.1244(9)
F19 F 1.0285(6) -0.1058(6) 0.1212(7)
F20 F 1.0803(6) -0.0839(8) 0.0768(6)
F21 F 1.1114(7) -0.0260(7) 0.2400(6)
F22 F 1.1595(6) 0.0186(4) 0.2069(6)
F23 F 1.1341(5) -0.1353(4) 0.1642(5)
F24 F 1.1971(5) -0.0747(5) 0.1577(5)
F25 F 1.1924(7) -0.0819(8) 0.2914(6)
F26 F 1.2449(6) -0.0034(5) 0.2930(6)
F27 F 1.2406(5) -0.1552(6) 0.2117(6)
F28 F 1.3041(6) -0.0717(6) 0.2458(6)
F29 F 1.2724(8) -0.1376(6) 0.3326(11)
F30 F 1.3508(6) -0.1268(6) 0.3165(9)
F31 F 1.2960(5) -0.0175(5) 0.4030(5)
F32 F 1.3639(5) 0.0001(5) 0.3754(5)
C9 C 1.0352(7) -0.0124(8) 0.1215(8)
C10 C 1.0688(6) -0.0590(6) 0.1282(6)
C11 C 1.1266(7) -0.0367(7) 0.1913(7)
C12 C 1.1694(6) -0.0760(7) 0.1956(7)
C13 C 1.2203(7) -0.0630(7) 0.2619(8)
C14 C 1.2687(6) -0.0975(6) 0.2621(8)
C15 C 1.3079(7) -0.0993(8) 0.3251(7)
C16 C 1.3372(7) -0.0426(6) 0.3864(7)
O1 O 1.224(2) -0.350(2) -0.261(2)
O2 O 0.6269(11) 0.0126(10) 0.0895(9)
O3 O 0.7535(14) -0.0173(15) 0.0445(14)
O4 O 0.7188(19) -0.0663(19) 0.125(2)
O5 O 0.9256(13) 0.1265(11) 0.1391(12)
O6 O 0.911(3) 0.451(3) 0.483(3)
O7 O 1.0617(19) 0.4225(18) 0.4329(19)
O8 O 0.6803(6) 0.0565(7) 0.0342(6)
O9 O 1.3779(5) 0.3978(5) 0.3245(6)
O10 O 1.3311(7) 0.3490(6) 0.1882(7)
O11 O 1.1586(6) 0.2685(5) 0.3451(6)
O12 O 1.3634(6) 0.3060(6) 0.3635(7)
O13 O 1.3121(6) 0.4343(6) 0.4688(6)
O14 O 1.3534(5) 0.4917(5) 0.4099(5)
O15 O 1.3096(6) 0.5845(6) 0.3892(6)
O16 O 1.1860(6) 0.5663(5) 0.3501(6)
O17 O 1.2149(5) -0.5118(5) 0.1183(6)
O18 O 1.2820(6) 0.4052(6) 0.1126(7)
O19 O 1.5082(7) -0.0666(10) 0.0187(8)
O20 O 1.4173(7) -0.0683(8) 0.0575(7)
O21 O 1.4161(7) -0.3445(7) 0.0723(7)
O22 O 1.3171(9) -0.4386(9) -0.0290(9)
O23 O 1.1377(7) -0.4177(7) -0.1711(7)
O24 O 1.1432(6) -0.2195(7) -0.1625(7)
O25 O 0.9461(6) -0.5023(5) 0.1650(6)
O26 O 0.6365(5) 0.1195(6) 0.1932(6)
O27 O 1.2791(7) 0.3062(7) 0.4109(8)
O28 O 1.1114(6) 0.3079(9) 0.4308(7)
O29 O 0.7182(7) -0.3453(11) 0.1719(12)
O30 O 1.5261(8) -0.3605(9) 0.0823(10)
O31 O 1.6207(9) -0.3622(9) 0.1962(10)
O32 O 1.6481(11) 0.1313(10) 0.3111(8)
O33 O 1.0921(8) 0.1431(7) 0.5721(11)
O34 O 0.7281(7) 0.1790(8) 0.0917(9)
O35 O 1.4182(8) 0.4406(11) 0.5634(9)
O36 O 1.4595(9) 0.3482(11) 0.4799(8)
O37 O 1.4945(9) 0.5554(10) 0.6229(11)
O38 O 1.1128(8) -0.3444(8) -0.2314(14)
O39 O 1.2645(11) -0.3681(10) -0.0862(10)
O40 O 1.1392(8) 0.0674(9) 0.6245(7)
O41 O 0.8367(9) -0.0895(13) -0.0953(12)
O42 O 0.7026(14) -0.3695(9) 0.0019(10)
O43 O 0.8396(11) 0.0196(16) -0.0030(18)
O44 O 1.5076(10) 0.1607(9) 0.586(2)
O45 O 1.4342(11) 0.3530(13) 0.1626(15)
O46 O 0.404(3) -0.456(3) -0.149(3)
O47 O 0.570(3) -0.288(3) 0.030(3)
O48 O 1.2765(13) 0.4941(13) 0.6249(14)
O49 O 1.216(3) -0.400(3) -0.374(4)
O50 O 1.3416(17) -0.3699(17) 0.5643(18)
O51 O 0.5873(17) 0.2739(17) 0.1327(18)
O52 O 1.539(2) 0.397(2) 0.266(2)
O53 O 1.413(3) 0.233(3) 0.053(3)
O54 O 1.3656(13) 0.4206(13) 0.6376(14)
O55 O 1.242(3) 0.486(3) 0.522(3)
O56 O 0.682(3) 0.311(3) 0.351(3)
O57 O 0.6753(16) 0.3733(16) 0.1599(17)
O58 O 0.508(3) 0.187(3) 0.040(3)
O59 O 1.369(2) -0.513(2) -0.064(2)
O60 O 1.6236(17) 0.3066(17) 0.4926(18)
O61 O 1.5503(14) 0.4123(14) 0.4735(14)
O62 O 1.582(3) 0.378(3) 0.332(3)
O63 O 1.317(3) 0.298(3) 0.678(3)
O64 O 0.6963(14) -0.1497(15) 0.0304(15)
O65 O 1.4681(18) -0.5481(18) 0.0276(19)
O66 O 1.4586(13) 0.2523(13) 0.5242(14)
O67 O 1.5010(17) 0.1606(18) 0.4882(19)
O68 O 1.246(3) -0.461(3) 0.480(3)
O69 O 1.295(2) -0.242(2) 0.573(3)
O70 O 1.6015(16) -0.4445(16) 0.2400(17)
O71 O 0.585(2) -0.375(2) -0.053(2)
O72 O 1.308(3) -0.564(3) -0.055(3)
N1 N 1.1786(9) -0.5061(8) -0.0357(10)
O73 O 1.2226(13) -0.5120(18) 0.0047(14)
O74 O 1.1264(9) -0.5295(10) -0.0480(12)
O75 O 1.1864(10) -0.4833(10) -0.0695(9)
N2 N 1.2684(10) 0.1893(8) 0.1045(11)
O76 O 1.2950(10) 0.2179(8) 0.0856(9)
O77 O 1.2692(8) 0.1365(6) 0.0946(8)
O78 O 1.2514(9) 0.2200(9) 0.1459(9)
N3 N 1.1011(5) -0.4909(4) 0.1844(5)
O79 O 1.0657(4) -0.5368(4) 0.1322(5)
O80 O 1.1553(4) -0.4748(5) 0.1963(6)
O81 O 1.0815(7) -0.4625(5) 0.2229(6)
N4 N 1.3604(8) -0.2214(8) 0.0306(9)
O82 O 1.3071(7) -0.2336(9) -0.0129(8)
O83 O 1.3711(12) -0.2608(11) 0.0489(13)
O84 O 1.3992(9) -0.1731(10) 0.0533(12)
N5 N 1.5280(9) 0.0657(7) 0.6803(9)
O85 O 1.5341(7) 0.0181(6) 0.6855(8)
O86 O 1.508(2) 0.0619(11) 0.6248(8)
O87 O 1.5385(18) 0.1140(9) 0.7294(11)
O88 O 1.4882(8) -0.0851(9) 0.5609(13)
N6 N 1.0912(6) 0.1734(6) 0.1814(5)
O89 O 1.0699(8) 0.1513(9) 0.1212(6)
O90 O 1.1399(5) 0.1707(6) 0.2152(6)
O91 O 1.0583(8) 0.1959(10) 0.2065(7)
N7 N 0.7297(11) -0.2158(9) 0.1268(9)
O92 O 0.7266(8) -0.1610(7) 0.1442(8)
O93 O 0.7330(9) -0.2377(9) 0.1645(11)
O94 O 0.7336(9) -0.2445(9) 0.0747(8)
O95 O 0.7521(7) -0.0849(8) 0.2753(8)
N8 N 1.1558(6) 0.2663(6) 0.5599(6)
O96 O 1.1809(6) 0.2365(6) 0.5873(6)
O97 O 1.1820(6) 0.2917(6) 0.5381(6)
O98 O 1.1050(5) 0.2712(6) 0.5547(6)
N9 N 1.0674(6) -0.1126(6) 0.5398(6)
O99 O 1.0642(8) -0.0626(6) 0.5482(10)
O100 O 1.0197(5) -0.1593(5) 0.4966(5)
O101 O 1.1103(6) -0.1247(6) 0.5713(6)
N10 N 1.1431(11) -0.3604(13) 0.4790(12)
O102 O 1.1003(9) -0.4069(13) 0.4358(15)
O103 O 1.1860(8) -0.3447(10) 0.4677(9)
O104 O 1.1434(15) -0.3284(17) 0.5322(14)
O105 O 1.5374(13) 0.1126(13) 0.3084(15)
O106 O 1.2930(10) 0.2739(10) 0.5125(11)
N11 N 1.4333(10) 0.2719(15) 0.6429(13)
O107 O 1.4088(16) 0.282(3) 0.5953(19)
O108 O 1.4014(10) 0.2682(14) 0.6731(13)
O109 O 1.4869(7) 0.2719(7) 0.6627(7)
O110 O 0.6712(16) 0.2209(16) 0.1784(17)
Pd1 Pd 1.40493(3) 0.13150(3) 0.21208(4)
Pd2 Pd 1.38565(4) -0.38942(4) 0.23530(4)
Pd3 Pd 0.90458(3) 0.13254(3) 0.29844(4)
Pd4 Pd 1.38182(4) 0.09014(4) 0.71606(4)
Pd5 Pd 0.89073(4) -0.39279(4) 0.31197(4)
Pd6 Pd 0.90975(3) -0.34209(3) -0.18296(4)
N12 N 1.0007(4) -0.3070(4) -0.1185(4)
N13 N 1.3536(4) -0.3429(4) 0.1846(5)
N14 N 1.3632(4) 0.0398(4) 0.1676(4)
N15 N 1.2131(4) -0.2645(4) 0.0493(5)
N16 N 1.3021(4) -0.1799(4) 0.1197(4)
N17 N 1.2155(4) -0.1713(4) 0.0435(4)
N18 N 0.8921(4) -0.3086(4) -0.1030(4)
N19 N 0.8889(4) 0.0394(4) 0.2500(4)
N20 N 0.8737(4) -0.3472(4) 0.2581(4)
N21 N 0.8756(4) -0.1731(4) 0.0998(4)
N22 N 0.8710(4) -0.1826(4) 0.1890(4)
N23 N 0.8688(4) -0.2694(4) 0.1005(4)
N24 N 1.3440(4) -0.3461(4) 0.2908(4)
N25 N 0.9804(4) -0.3495(4) 0.3482(4)
N26 N 1.3425(4) 0.0000(4) 0.6489(4)
N27 N 1.1928(4) -0.2868(4) 0.3750(5)
N28 N 1.1926(4) -0.2040(4) 0.4672(5)
N29 N 1.2822(4) -0.2017(4) 0.4515(4)
N30 N 1.3462(4) 0.1078(4) 0.6386(4)
N31 N 0.9954(4) 0.1383(4) 0.3301(4)
N32 N 1.3641(3) 0.1402(4) 0.2712(4)
N33 N 1.2059(4) 0.1287(4) 0.4480(4)
N34 N 1.2095(4) 0.1378(4) 0.3576(4)
N35 N 1.2967(4) 0.1293(4) 0.4352(4)
N36 N 1.4499(5) 0.2238(5) 0.2581(6)
N37 N 1.4449(5) 0.1224(5) 0.1504(6)
N38 N 1.4188(5) 0.0724(5) 0.7939(5)
N39 N 1.4210(5) 0.1821(5) 0.7843(5)
N40 N 1.4159(5) -0.4373(5) 0.2860(5)
N41 N 1.4247(5) -0.4361(5) 0.1781(6)
N42 N 0.8009(4) -0.4405(5) 0.2723(5)
N43 N 0.9105(5) -0.4407(5) 0.3645(6)
N44 N 0.8179(4) -0.3766(4) -0.2496(4)
N45 N 0.9260(4) -0.3766(4) -0.2638(5)
N46 N 0.9197(4) 0.2268(4) 0.3453(5)
N47 N 0.8127(4) 0.1263(4) 0.2674(5)
C17 C 1.0314(5) -0.3407(5) -0.0952(5)
H1 H 1.0108 -0.3824 -0.1108
C18 C 0.8891(5) -0.3424(5) -0.0733(5)
H2 H 0.8915 -0.3833 -0.0922
C19 C 1.1227(4) -0.2568(5) -0.0263(5)
C20 C 1.0903(5) -0.2216(5) -0.0504(6)
H3 H 1.1099 -0.1799 -0.0358
C21 C 1.0297(5) -0.2481(5) -0.0953(6)
H4 H 1.0075 -0.2236 -0.1105
C22 C 1.3826(5) -0.2831(5) 0.2090(5)
H5 H 1.4213 -0.2646 0.2468
C23 C 1.3578(4) -0.2484(5) 0.1806(5)
H6 H 1.3795 -0.2067 0.1979
C24 C 1.3002(5) -0.2749(5) 0.1260(5)
C25 C 1.2714(5) -0.3358(5) 0.1011(6)
H7 H 1.2330 -0.3554 0.0630
C26 C 1.2984(5) -0.3687(5) 0.1315(6)
H8 H 1.2776 -0.4106 0.1146
C27 C 1.3073(4) 0.0132(5) 0.1174(5)
H9 H 1.2875 0.0375 0.0998
C28 C 1.2768(5) -0.0484(4) 0.0895(5)
H10 H 1.2375 -0.0663 0.0527
C29 C 1.3048(4) -0.0834(5) 0.1165(5)
C30 C 1.3633(5) -0.0560(5) 0.1688(6)
H11 H 1.3841 -0.0794 0.1872
C31 C 1.3907(4) 0.0055(5) 0.1935(6)
H12 H 1.4303 0.0244 0.2300
C32 C 1.1873(4) -0.2291(4) 0.0251(5)
C33 C 1.2711(5) -0.2378(5) 0.0973(6)
C34 C 1.2732(4) -0.1489(5) 0.0919(5)
C35 C 0.8869(6) -0.2518(5) -0.0778(5)
H13 H 0.8888 -0.2280 -0.0993
C36 C 0.8789(6) -0.2268(5) -0.0232(6)
H14 H 0.8744 -0.1864 -0.0075
C37 C 0.8772(5) -0.2602(5) 0.0105(5)
C38 C 0.8826(5) -0.3201(5) -0.0161(5)
H15 H 0.8818 -0.3449 0.0047
C39 C 1.0919(5) -0.3166(5) -0.0494(5)
H16 H 1.1125 -0.3416 -0.0336
C40 C 0.8884(5) 0.0054(5) 0.2811(5)
H17 H 0.8916 0.0247 0.3242
C41 C 0.8834(5) -0.0557(5) 0.2521(5)
H18 H 0.8835 -0.0786 0.2750
C42 C 0.8781(5) -0.0847(5) 0.1889(5)
C43 C 0.8779(5) -0.0494(5) 0.1570(5)
H19 H 0.8736 -0.0678 0.1136
C44 C 0.8839(5) 0.0131(5) 0.1899(6)
H20 H 0.8845 0.0375 0.1686
C45 C 0.8725(5) -0.3713(5) 0.2000(6)
H21 H 0.8736 -0.4128 0.1813
C46 C 0.8697(5) -0.3397(5) 0.1639(5)
H22 H 0.8691 -0.3587 0.1220
C47 C 0.8679(5) -0.2787(5) 0.1921(5)
C48 C 0.8686(5) -0.2524(5) 0.2534(5)
H23 H 0.8676 -0.2111 0.2734
C49 C 0.8708(5) -0.2886(5) 0.2847(5)
H24 H 0.8703 -0.2715 0.3261
C50 C 0.8730(5) -0.2336(5) 0.0725(6)
C51 C 0.8745(5) -0.1513(5) 0.1563(5)
C52 C 0.8685(5) -0.2415(5) 0.1581(5)
C53 C 1.2843(5) -0.3699(5) 0.2686(6)
H25 H 1.2631 -0.4076 0.2290
C54 C 1.2521(5) -0.3416(5) 0.3014(6)
H26 H 1.2094 -0.3595 0.2845
C55 C 1.2831(5) -0.2865(5) 0.3596(5)
C56 C 1.3454(5) -0.2617(5) 0.3810(6)
H27 H 1.3677 -0.2236 0.4201
C57 C 1.3745(5) -0.2917(5) 0.3462(6)
H28 H 1.4168 -0.2741 0.3611
C58 C 1.0095(5) -0.2953(5) 0.4038(5)
H29 H 0.9880 -0.2774 0.4280
C59 C 1.0699(5) -0.2654(5) 0.4262(5)
H30 H 1.0900 -0.2276 0.4658
C60 C 1.1007(5) -0.2902(5) 0.3913(6)
C61 C 1.0698(5) -0.3459(5) 0.3324(6)
H31 H 1.0898 -0.3636 0.3062
C62 C 1.0104(5) -0.3737(5) 0.3139(5)
H32 H 0.9896 -0.4119 0.2749
C63 C 1.3726(5) -0.0318(5) 0.6196(5)
H33 H 1.4149 -0.0136 0.6351
C64 C 1.3445(5) -0.0913(5) 0.5668(5)
H34 H 1.3675 -0.1137 0.5477
C65 C 1.2826(5) -0.1168(5) 0.5431(5)
C66 C 1.2512(5) -0.0839(5) 0.5740(6)
H35 H 1.2086 -0.1008 0.5588
C67 C 1.2822(5) -0.0265(5) 0.6267(5)
H36 H 1.2606 -0.0045 0.6485
C68 C 1.2508(5) -0.2563(5) 0.3979(5)
C69 C 1.1660(5) -0.2582(5) 0.4126(6)
C70 C 1.2510(5) -0.1781(5) 0.4832(6)
C71 C 1.2891(5) 0.1121(6) 0.6176(6)
H37 H 1.2672 0.1113 0.6419
C72 C 1.2607(5) 0.1176(6) 0.5613(5)
H38 H 1.2195 0.1193 0.5464
C73 C 1.2927(5) 0.1206(5) 0.5273(5)
C74 C 1.3523(5) 0.1162(5) 0.5488(5)
H39 H 1.3751 0.1171 0.5254
C75 C 1.3774(5) 0.1105(6) 0.6052(6)
H40 H 1.4185 0.1085 0.6209
C76 C 1.0227(5) 0.1335(5) 0.2918(5)
H41 H 0.9998 0.1308 0.2501
C77 C 1.0825(4) 0.1323(5) 0.3102(5)
H42 H 1.1006 0.1287 0.2815
C78 C 1.1162(4) 0.1365(4) 0.3710(5)
C79 C 1.0877(4) 0.1414(5) 0.4113(5)
H43 H 1.1093 0.1434 0.4529
C80 C 1.0277(4) 0.1434(5) 0.3901(5)
H44 H 1.0087 0.1484 0.4182
C81 C 1.2640(5) 0.1271(5) 0.4664(5)
C82 C 1.1813(4) 0.1346(4) 0.3937(5)
C83 C 1.2665(5) 0.1356(5) 0.3813(5)
C84 C 1.3892(5) 0.1341(6) 0.3246(5)
H45 H 1.4294 0.1296 0.3376
C85 C 1.3605(5) 0.1338(6) 0.3622(6)
H46 H 1.3808 0.1302 0.4008
C86 C 1.3013(5) 0.1389(5) 0.3433(5)
C87 C 1.2738(5) 0.1460(5) 0.2878(5)
H47 H 1.2336 0.1506 0.2738
C88 C 1.3074(5) 0.1462(5) 0.2533(5)
H48 H 1.2890 0.1509 0.2150
C89 C 1.4860(8) 0.2492(7) 0.3274(8)
H49 H 1.5172 0.2277 0.3361
H50 H 1.4594 0.2441 0.3473
H51 H 1.5061 0.2931 0.3462
C90 C 1.4096(10) 0.2591(7) 0.2445(10)
H52 H 1.3815 0.2385 0.1975
H53 H 1.4334 0.3000 0.2573
H54 H 1.3859 0.2632 0.2695
C91 C 1.4969(12) 0.2282(9) 0.2362(13)
H55 H 1.5081 0.2701 0.2414
H56 H 1.5340 0.2226 0.2650
C92 C 1.4795(10) 0.1852(9) 0.1708(11)
H57 H 1.5169 0.1830 0.1644
H58 H 1.4540 0.2003 0.1417
C93 C 1.3981(8) 0.0970(8) 0.0813(7)
H59 H 1.4185 0.0971 0.0540
H60 H 1.3700 0.1225 0.0787
H61 H 1.3750 0.0547 0.0655
C94 C 1.4853(8) 0.0825(10) 0.1544(11)
H62 H 1.4607 0.0405 0.1373
H63 H 1.5152 0.0981 0.2002
H64 H 1.5070 0.0823 0.1282
C95 C 1.4668(9) 0.0425(8) 0.7906(8)
H65 H 1.4482 0.0001 0.7549
H66 H 1.4892 0.0423 0.8322
H67 H 1.4953 0.0651 0.7824
C96 C 1.3702(9) 0.0358(11) 0.7980(9)
H68 H 1.3383 0.0567 0.7990
H69 H 1.3882 0.0319 0.8381
H70 H 1.3521 -0.0052 0.7597
C97 C 1.4458(8) 0.1336(6) 0.8535(6)
H71 H 1.4163 0.1406 0.8722
H72 H 1.4834 0.1327 0.8865
C98 C 1.4601(14) 0.1808(8) 0.8440(8)
H73 H 1.5017 0.1844 0.8466
H74 H 1.4632 0.2183 0.8815
C99 C 1.3758(8) 0.2134(8) 0.7875(9)
H75 H 1.3551 0.2150 0.7463
H76 H 1.3954 0.2553 0.8240
H77 H 1.3457 0.1914 0.7943
C100 C 1.4633(8) 0.2145(6) 0.7703(10)
H78 H 1.4870 0.1877 0.7548
H79 H 1.4914 0.2522 0.8105
H80 H 1.4397 0.2252 0.7365
C101 C 1.3629(7) -0.4823(7) 0.2740(8)
H81 H 1.3432 -0.5141 0.2279
H82 H 1.3333 -0.4612 0.2839
H83 H 1.3770 -0.5016 0.3022
C102 C 1.4506(9) -0.3976(8) 0.3578(9)
H84 H 1.4897 -0.3717 0.3680
H85 H 1.4587 -0.4233 0.3795
H86 H 1.4266 -0.3714 0.3734
C103 C 1.4581(10) -0.4652(10) 0.2645(12)
H87 H 1.5001 -0.4368 0.2946
H88 H 1.4571 -0.5034 0.2686
C104 C 1.4473(13) -0.4793(11) 0.2027(11)
H89 H 1.4169 -0.5204 0.1729
H90 H 1.4859 -0.4828 0.1991
C105 C 1.3816(8) -0.4717(7) 0.1087(7)
H91 H 1.3647 -0.4439 0.0924
H92 H 1.3481 -0.5019 0.1029
H93 H 1.4029 -0.4931 0.0841
C106 C 1.4763(8) -0.3928(9) 0.1854(11)
H94 H 1.5036 -0.4154 0.1719
H95 H 1.4992 -0.3610 0.2313
H96 H 1.4602 -0.3735 0.1577
C107 C 0.7672(8) -0.3995(9) 0.2979(10)
H97 H 0.7656 -0.3687 0.2824
H98 H 0.7881 -0.3787 0.3459
H99 H 0.7253 -0.4237 0.2823
C108 C 0.7700(6) -0.4707(7) 0.1994(6)
H100 H 0.7932 -0.4970 0.1823
H101 H 0.7680 -0.4392 0.1849
H102 H 0.7283 -0.4959 0.1829
C109 C 0.8024(8) -0.4916(7) 0.2907(8)
H103 H 0.7619 -0.5077 0.2870
H104 H 0.8111 -0.5258 0.2600
C110 C 0.8494(8) -0.4691(9) 0.3574(9)
H105 H 0.8520 -0.5035 0.3680
H106 H 0.8385 -0.4379 0.3885
C111 C 0.9434(9) -0.4852(7) 0.3406(8)
H107 H 0.9185 -0.5130 0.2936
H108 H 0.9504 -0.5092 0.3644
H109 H 0.9829 -0.4626 0.3482
C112 C 0.9494(7) -0.4002(7) 0.4366(6)
H110 H 0.9908 -0.3819 0.4447
H111 H 0.9516 -0.4246 0.4596
H112 H 0.9312 -0.3673 0.4527
C113 C 0.7904(6) -0.3256(6) -0.2484(7)
H113 H 0.8164 -0.2956 -0.2518
H114 H 0.7874 -0.3055 -0.2072
H115 H 0.7494 -0.3421 -0.2855
C114 C 0.7820(6) -0.4179(7) -0.2373(8)
H116 H 0.7382 -0.4281 -0.2660
H117 H 0.7896 -0.3973 -0.1914
H118 H 0.7945 -0.4558 -0.2465
C115 C 0.8171(7) -0.4143(11) -0.3140(7)
H119 H 0.8106 -0.4575 -0.3220
H120 H 0.7810 -0.4132 -0.3484
C116 C 0.8655(7) -0.3992(12) -0.3218(7)
H121 H 0.8611 -0.3670 -0.3357
H122 H 0.8656 -0.4357 -0.3581
C117 C 0.9528(8) -0.4283(7) -0.2687(8)
H123 H 0.9278 -0.4586 -0.2648
H124 H 0.9947 -0.4128 -0.2334
H125 H 0.9535 -0.4477 -0.3112
C118 C 0.9655(8) -0.3296(7) -0.2663(8)
H126 H 0.9681 -0.3478 -0.3079
H127 H 1.0067 -0.3147 -0.2297
H128 H 0.9480 -0.2951 -0.2629
C119 C 0.9584(7) 0.2577(6) 0.3255(7)
H129 H 0.9385 0.2407 0.2777
H130 H 0.9988 0.2506 0.3397
H131 H 0.9633 0.3020 0.3462
C120 C 0.9482(6) 0.2517(6) 0.4159(6)
H132 H 0.9243 0.2289 0.4281
H133 H 0.9497 0.2952 0.4364
H134 H 0.9901 0.2480 0.4310
C121 C 0.8583(6) 0.2365(6) 0.3216(9)
H135 H 0.8591 0.2762 0.3547
H136 H 0.8488 0.2393 0.2806
C122 C 0.8116(6) 0.1894(6) 0.3094(9)
H137 H 0.7714 0.1951 0.2875
H138 H 0.8160 0.1925 0.3518
C123 C 0.7795(5) 0.0798(7) 0.2772(8)
H139 H 0.7375 0.0823 0.2671
H140 H 0.8009 0.0882 0.3230
H141 H 0.7785 0.0384 0.2481
C124 C 0.7829(6) 0.1091(8) 0.1984(7)
H142 H 0.7820 0.0666 0.1726
H143 H 0.8057 0.1368 0.1898
H144 H 0.7408 0.1121 0.1860
I1 I 1.09336(8) -0.44265(7) 0.03422(9)
I2 I 1.04386(9) 0.00844(6) 0.44179(7)
F1 F 1.0413(7) -0.4073(8) 0.1250(9)
F2 F 1.1314(5) -0.3470(6) 0.1697(5)
F3 F 1.0090(6) -0.3608(8) 0.0398(6)
F4 F 1.1003(6) -0.2962(6) 0.0985(6)
F5 F 1.0201(7) -0.2461(7) 0.1227(7)
F6 F 0.9872(5) -0.3151(5) 0.1416(7)
F7 F 1.1341(4) -0.2204(4) 0.2252(5)
F8 F 1.0921(8) -0.2746(5) 0.2540(7)
F9 F 1.0692(6) -0.1454(5) 0.2406(7)
F10 F 1.0006(5) -0.2086(5) 0.2359(7)
F11 F 1.1516(6) -0.1502(7) 0.3506(6)
F12 F 1.0761(7) -0.1930(6) 0.3532(6)
F13 F 1.1295(8) -0.0461(8) 0.3792(10)
F14 F 1.1243(7) -0.0778(7) 0.4471(5)
F15 F 1.0145(6) -0.0871(5) 0.3085(5)
F16 F 1.0031(7) -0.1250(5) 0.3666(9)
C1 C 1.0794(9) -0.3763(8) 0.1130(8)
C2 C 1.0573(8) -0.3277(7) 0.1014(9)
C3 C 1.0375(7) -0.2840(7) 0.1484(9)
C4 C 1.0805(6) -0.2441(6) 0.2211(6)
C5 C 1.0599(6) -0.1912(7) 0.2567(8)
C6 C 1.0918(7) -0.1570(7) 0.3308(8)
C7 C 1.0991(9) -0.0929(8) 0.3818(8)
C8 C 1.0399(9) -0.0806(7) 0.3678(8)
O111? O 1.155(2) -0.372(2) -0.307(2)
O112? O 1.265(3) -0.317(3) -0.292(3)
O113? O 0.583(2) 0.0317(17) 0.0696(19)
O114? O 0.7859(13) 0.0250(13) 0.0472(13)
O115? O 0.7181(17) -0.0361(17) 0.0891(19)
O116? O 0.9475(10) 0.1078(10) 0.0699(11)
O117? O 0.8987(13) 0.1262(11) 0.1510(13)
O118? O 0.9538(18) 0.4050(18) 0.388(2)
O119? O 1.1281(17) 0.4239(16) 0.4688(18)
O120? O 0.422(2) -0.501(2) -0.132(2)
O121? O 1.260(3) -0.280(3) 0.605(3)
O122? O 1.410(2) -0.231(3) 0.029(3)
N48? N 1.5259(13) 0.0947(10) 0.6767(11)
O123? O 1.5296(9) 0.1447(9) 0.6746(12)
O124? O 1.510(6) 0.0458(17) 0.6255(19)
O125? O 1.539(3) 0.095(2) 0.7297(16)
O126? O 1.5087(17) -0.0615(17) 0.632(2)
O127? O 0.742(3) -0.104(3) 0.227(3)
N49? N 1.5601(11) 0.1639(11) 0.3781(11)
O128? O 1.5252(10) 0.1147(9) 0.3277(10)
O129? O 1.5514(11) 0.1861(11) 0.4286(10)
O130? O 1.6053(13) 0.1930(14) 0.3786(15)
O131? O 1.2938(19) 0.2942(19) 0.582(2)
O132? O 0.9383(16) 0.4139(16) 0.4256(19)
loop_
_geom_bond_atom_site_label_1
_geom_bond_atom_site_label_2
_geom_bond_site_symmetry_1
_geom_bond_site_symmetry_2
I1 C1 1_555 1_555
I2 C8 1_555 1_555
F1 C1 1_555 1_555
F2 C1 1_555 1_555
F3 C2 1_555 1_555
F4 C2 1_555 1_555
F5 C3 1_555 1_555
F6 C3 1_555 1_555
F7 C4 1_555 1_555
F8 C4 1_555 1_555
F9 C5 1_555 1_555
F10 C5 1_555 1_555
F11 C6 1_555 1_555
F12 C6 1_555 1_555
F13 C7 1_555 1_555
F14 C7 1_555 1_555
F15 C8 1_555 1_555
F16 C8 1_555 1_555
C1 C2 1_555 1_555
C2 C3 1_555 1_555
C3 C4 1_555 1_555
C4 C5 1_555 1_555
C5 C6 1_555 1_555
C6 C7 1_555 1_555
C7 C8 1_555 1_555
I3 C9 1_555 1_555
I4 C16 1_555 1_555
F17 C9 1_555 1_555
F18 C9 1_555 1_555
F19 C10 1_555 1_555
F20 C10 1_555 1_555
F21 C11 1_555 1_555
F22 C11 1_555 1_555
F23 C12 1_555 1_555
F24 C12 1_555 1_555
F25 C13 1_555 1_555
F26 C13 1_555 1_555
F27 C14 1_555 1_555
F28 C14 1_555 1_555
F29 C15 1_555 1_555
F30 C15 1_555 1_555
F31 C16 1_555 1_555
F32 C16 1_555 1_555
C9 C10 1_555 1_555
C10 C11 1_555 1_555
C11 C12 1_555 1_555
C12 C13 1_555 1_555
C13 C14 1_555 1_555
C14 C15 1_555 1_555
C15 C16 1_555 1_555
N1 O73 1_555 1_555
O74 N1 1_555 1_555
O75 N1 1_555 1_555
N2 O76 1_555 1_555
O77 N2 1_555 1_555
O78 N2 1_555 1_555
N3 O79 1_555 1_555
O80 N3 1_555 1_555
O81 N3 1_555 1_555
N4 O82 1_555 1_555
O83 N4 1_555 1_555
O84 N4 1_555 1_555
N5 O85 1_555 1_555
O86 N5 1_555 1_555
O87 N5 1_555 1_555
N6 O89 1_555 1_555
O90 N6 1_555 1_555
O91 N6 1_555 1_555
N7 O92 1_555 1_555
O93 N7 1_555 1_555
O94 N7 1_555 1_555
N8 O96 1_555 1_555
O97 N8 1_555 1_555
O98 N8 1_555 1_555
N9 O99 1_555 1_555
O100 N9 1_555 1_555
O101 N9 1_555 1_555
N10 O102 1_555 1_555
O103 N10 1_555 1_555
O104 N10 1_555 1_555
N11 O107 1_555 1_555
O108 N11 1_555 1_555
O109 N11 1_555 1_555
Pd1 N14 1_555 1_555
Pd2 N13 1_555 1_555
Pd3 N19 1_555 1_555
Pd4 N26 1_555 1_555
Pd5 N20 1_555 1_555
Pd6 N12 1_555 1_555
N12 C17 1_555 1_555
N13 C22 1_555 1_555
N14 C27 1_555 1_555
N15 C32 1_555 1_555
N16 C33 1_555 1_555
N17 C32 1_555 1_555
N18 Pd6 1_555 1_555
N19 C40 1_555 1_555
N20 C45 1_555 1_555
N21 C50 1_555 1_555
N22 C51 1_555 1_555
N23 C50 1_555 1_555
N24 Pd2 1_555 1_555
N25 Pd5 1_555 1_555
N26 C63 1_555 1_555
N27 C68 1_555 1_555
N28 C69 1_555 1_555
N29 C68 1_555 1_555
N30 Pd4 1_555 1_555
N31 Pd3 1_555 1_555
N32 Pd1 1_555 1_555
N33 C81 1_555 1_555
N34 C82 1_555 1_555
N35 C81 1_555 1_555
N36 Pd1 1_555 1_555
N37 Pd1 1_555 1_555
N38 Pd4 1_555 1_555
N39 Pd4 1_555 1_555
N40 Pd2 1_555 1_555
N41 Pd2 1_555 1_555
N42 Pd5 1_555 1_555
N43 Pd5 1_555 1_555
N44 Pd6 1_555 1_555
N45 Pd6 1_555 1_555
N46 Pd3 1_555 1_555
N47 Pd3 1_555 1_555
C17 H1 1_555 1_555
C18 N18 1_555 1_555
H2 C18 1_555 1_555
C19 C20 1_555 1_555
C20 H3 1_555 1_555
C21 N12 1_555 1_555
H4 C21 1_555 1_555
C22 H5 1_555 1_555
C23 C22 1_555 1_555
H6 C23 1_555 1_555
C24 C23 1_555 1_555
C25 C24 1_555 1_555
H7 C25 1_555 1_555
C26 N13 1_555 1_555
H8 C26 1_555 1_555
C27 H9 1_555 1_555
C28 C27 1_555 1_555
H10 C28 1_555 1_555
C29 C28 1_555 1_555
C30 C29 1_555 1_555
H11 C30 1_555 1_555
C31 N14 1_555 1_555
H12 C31 1_555 1_555
C32 C19 1_555 1_555
C33 N15 1_555 1_555
C34 N16 1_555 1_555
C35 N18 1_555 1_555
H13 C35 1_555 1_555
C36 C35 1_555 1_555
H14 C36 1_555 1_555
C37 C36 1_555 1_555
C38 C18 1_555 1_555
H15 C38 1_555 1_555
C39 C17 1_555 1_555
H16 C39 1_555 1_555
C40 H17 1_555 1_555
C41 C40 1_555 1_555
H18 C41 1_555 1_555
C42 C41 1_555 1_555
C43 C42 1_555 1_555
H19 C43 1_555 1_555
C44 N19 1_555 1_555
H20 C44 1_555 1_555
C45 H21 1_555 1_555
C46 C45 1_555 1_555
H22 C46 1_555 1_555
C47 C46 1_555 1_555
C48 C47 1_555 1_555
H23 C48 1_555 1_555
C49 N20 1_555 1_555
H24 C49 1_555 1_555
C50 C37 1_555 1_555
C51 N21 1_555 1_555
C52 N22 1_555 1_555
C53 N24 1_555 1_555
H25 C53 1_555 1_555
C54 C53 1_555 1_555
H26 C54 1_555 1_555
C55 C54 1_555 1_555
C56 C55 1_555 1_555
H27 C56 1_555 1_555
C57 N24 1_555 1_555
H28 C57 1_555 1_555
C58 N25 1_555 1_555
H29 C58 1_555 1_555
C59 C58 1_555 1_555
H30 C59 1_555 1_555
C60 C59 1_555 1_555
C61 C60 1_555 1_555
H31 C61 1_555 1_555
C62 N25 1_555 1_555
H32 C62 1_555 1_555
C63 H33 1_555 1_555
C64 C63 1_555 1_555
H34 C64 1_555 1_555
C65 C64 1_555 1_555
C66 C65 1_555 1_555
H35 C66 1_555 1_555
C67 N26 1_555 1_555
H36 C67 1_555 1_555
C68 C55 1_555 1_555
C69 N27 1_555 1_555
C70 N28 1_555 1_555
C71 N30 1_555 1_555
H37 C71 1_555 1_555
C72 C71 1_555 1_555
H38 C72 1_555 1_555
C73 C72 1_555 1_555
C74 C73 1_555 1_555
H39 C74 1_555 1_555
C75 N30 1_555 1_555
H40 C75 1_555 1_555
C76 N31 1_555 1_555
H41 C76 1_555 1_555
C77 C76 1_555 1_555
H42 C77 1_555 1_555
C78 C77 1_555 1_555
C79 C78 1_555 1_555
H43 C79 1_555 1_555
C80 N31 1_555 1_555
H44 C80 1_555 1_555
C81 C73 1_555 1_555
C82 N33 1_555 1_555
C83 N34 1_555 1_555
C84 N32 1_555 1_555
H45 C84 1_555 1_555
C85 C84 1_555 1_555
H46 C85 1_555 1_555
C86 C83 1_555 1_555
C87 C86 1_555 1_555
H47 C87 1_555 1_555
C88 N32 1_555 1_555
H48 C88 1_555 1_555
C89 N36 1_555 1_555
H49 C89 1_555 1_555
H50 C89 1_555 1_555
H51 C89 1_555 1_555
C90 N36 1_555 1_555
H52 C90 1_555 1_555
H53 C90 1_555 1_555
H54 C90 1_555 1_555
C91 N36 1_555 1_555
H55 C91 1_555 1_555
H56 C91 1_555 1_555
C92 N37 1_555 1_555
H57 C92 1_555 1_555
H58 C92 1_555 1_555
C93 N37 1_555 1_555
H59 C93 1_555 1_555
H60 C93 1_555 1_555
H61 C93 1_555 1_555
C94 N37 1_555 1_555
H62 C94 1_555 1_555
H63 C94 1_555 1_555
H64 C94 1_555 1_555
C95 N38 1_555 1_555
H65 C95 1_555 1_555
H66 C95 1_555 1_555
H67 C95 1_555 1_555
C96 N38 1_555 1_555
H68 C96 1_555 1_555
H69 C96 1_555 1_555
H70 C96 1_555 1_555
C97 N38 1_555 1_555
H71 C97 1_555 1_555
H72 C97 1_555 1_555
C98 N39 1_555 1_555
H73 C98 1_555 1_555
H74 C98 1_555 1_555
C99 N39 1_555 1_555
H75 C99 1_555 1_555
H76 C99 1_555 1_555
H77 C99 1_555 1_555
C100 N39 1_555 1_555
H78 C100 1_555 1_555
H79 C100 1_555 1_555
H80 C100 1_555 1_555
C101 N40 1_555 1_555
H81 C101 1_555 1_555
H82 C101 1_555 1_555
H83 C101 1_555 1_555
C102 N40 1_555 1_555
H84 C102 1_555 1_555
H85 C102 1_555 1_555
H86 C102 1_555 1_555
C103 N40 1_555 1_555
H87 C103 1_555 1_555
H88 C103 1_555 1_555
C104 N41 1_555 1_555
H89 C104 1_555 1_555
H90 C104 1_555 1_555
C105 N41 1_555 1_555
H91 C105 1_555 1_555
H92 C105 1_555 1_555
H93 C105 1_555 1_555
C106 N41 1_555 1_555
H94 C106 1_555 1_555
H95 C106 1_555 1_555
H96 C106 1_555 1_555
C107 N42 1_555 1_555
H97 C107 1_555 1_555
H98 C107 1_555 1_555
H99 C107 1_555 1_555
C108 N42 1_555 1_555
H100 C108 1_555 1_555
H101 C108 1_555 1_555
H102 C108 1_555 1_555
C109 N42 1_555 1_555
H103 C109 1_555 1_555
H104 C109 1_555 1_555
C110 N43 1_555 1_555
H105 C110 1_555 1_555
H106 C110 1_555 1_555
C111 N43 1_555 1_555
H107 C111 1_555 1_555
H108 C111 1_555 1_555
H109 C111 1_555 1_555
C112 N43 1_555 1_555
H110 C112 1_555 1_555
H111 C112 1_555 1_555
H112 C112 1_555 1_555
C113 N44 1_555 1_555
H113 C113 1_555 1_555
H114 C113 1_555 1_555
H115 C113 1_555 1_555
C114 N44 1_555 1_555
H116 C114 1_555 1_555
H117 C114 1_555 1_555
H118 C114 1_555 1_555
C115 N44 1_555 1_555
H119 C115 1_555 1_555
H120 C115 1_555 1_555
C116 N45 1_555 1_555
H121 C116 1_555 1_555
H122 C116 1_555 1_555
C117 N45 1_555 1_555
H123 C117 1_555 1_555
H124 C117 1_555 1_555
H125 C117 1_555 1_555
C118 N45 1_555 1_555
H126 C118 1_555 1_555
H127 C118 1_555 1_555
H128 C118 1_555 1_555
C119 N46 1_555 1_555
H129 C119 1_555 1_555
H130 C119 1_555 1_555
H131 C119 1_555 1_555
C120 N46 1_555 1_555
H132 C120 1_555 1_555
H133 C120 1_555 1_555
H134 C120 1_555 1_555
C121 N46 1_555 1_555
H135 C121 1_555 1_555
H136 C121 1_555 1_555
C122 N47 1_555 1_555
H137 C122 1_555 1_555
H138 C122 1_555 1_555
C123 N47 1_555 1_555
H139 C123 1_555 1_555
H140 C123 1_555 1_555
H141 C123 1_555 1_555
C124 N47 1_555 1_555
H142 C124 1_555 1_555
H143 C124 1_555 1_555
H144 C124 1_555 1_555
N17 C34 1_555 1_555
N23 C52 1_555 1_555
N29 C70 1_555 1_555
N35 C83 1_555 1_555
C19 C39 1_555 1_555
C20 C21 1_555 1_555
C24 C33 1_555 1_555
C25 C26 1_555 1_555
C29 C34 1_555 1_555
C30 C31 1_555 1_555
C37 C38 1_555 1_555
C42 C51 1_555 1_555
C43 C44 1_555 1_555
C47 C52 1_555 1_555
C48 C49 1_555 1_555
C56 C57 1_555 1_555
C60 C69 1_555 1_555
C61 C62 1_555 1_555
C65 C70 1_555 1_555
C66 C67 1_555 1_555
C74 C75 1_555 1_555
C78 C82 1_555 1_555
C79 C80 1_555 1_555
C85 C86 1_555 1_555
C87 C88 1_555 1_555
C91 C92 1_555 1_555
C97 C98 1_555 1_555
C103 C104 1_555 1_555
C109 C110 1_555 1_555
C115 C116 1_555 1_555
C121 C122 1_555 1_555

#END
