# generated using pymatgen
data_H282Pd12C239I10N90(O143F25)2
_symmetry_space_group_name_H-M   'P 1'
_cell_length_a   24.64900000
_cell_length_b   24.68200000
_cell_length_c   24.74400000
_cell_angle_alpha   66.49900000
_cell_angle_beta   60.34200000
_cell_angle_gamma   65.75000000
_symmetry_Int_Tables_number   1
_chemical_formula_structural   H282Pd12C239I10N90(O143F25)2
_chemical_formula_sum   'H282 Pd12 C239 I10 N90 O286 F50'
_cell_volume   11558.54710543
_cell_formula_units_Z   1
loop_
 _symmetry_equiv_pos_site_id
 _symmetry_equiv_pos_as_xyz
  1  'x, y, z'
loop_
 _atom_site_type_symbol
 _atom_site_label
 _atom_site_symmetry_multiplicity
 _atom_site_fract_x
 _atom_site_fract_y
 _atom_site_fract_z
 _atom_site_occupancy
  H  H1  1  0.577400  0.228500  0.478200  1
  H  H2  1  0.422600  0.771500  0.521800  1
  H  H3  1  0.639000  0.276700  0.375400  1
  H  H4  1  0.361000  0.723300  0.624600  1
  H  H5  1  0.791600  0.126400  0.375000  1
  H  H6  1  0.208400  0.873600  0.625000  1
  H  H7  1  0.725500  0.082600  0.476000  1
  H  H8  1  0.274500  0.917400  0.524000  1
  H  H9  1  0.782100  0.496400  0.059600  1
  H  H10  1  0.217900  0.503600  0.940400  1
  H  H11  1  0.828500  0.399300  0.102200  1
  H  H12  1  0.171500  0.600700  0.897800  1
  H  H13  1  0.659000  0.400500  0.258400  1
  H  H14  1  0.341000  0.599500  0.741600  1
  H  H15  1  0.619600  0.501200  0.208000  1
  H  H16  1  0.380400  0.498800  0.792000  1
  H  H17  1  0.037600  0.081900  0.204700  1
  H  H18  1  0.962400  0.918100  0.795300  1
  H  H19  1  0.931000  0.128400  0.256400  1
  H  H20  1  0.069000  0.871600  0.743600  1
  H  H21  1  0.949900  0.277100  0.103900  1
  H  H22  1  0.050100  0.722900  0.896100  1
  H  H23  1  0.056300  0.225200  0.055900  1
  H  H24  1  0.943700  0.774800  0.944100  1
  H  H25  1  0.563300  0.229200  0.601900  1
  H  H26  1  0.436700  0.770800  0.398100  1
  H  H27  1  0.610400  0.281200  0.620900  1
  H  H28  1  0.389600  0.718800  0.379100  1
  H  H29  1  0.706400  0.080900  0.606300  1
  H  H30  1  0.293600  0.919100  0.393700  1
  H  H31  1  0.757500  0.128600  0.624900  1
  H  H32  1  0.242500  0.871400  0.375100  1
  H  H33  1  0.163500  0.231300  0.075900  1
  H  H34  1  0.836500  0.768700  0.924100  1
  H  H35  1  0.159800  0.282500  0.138300  1
  H  H36  1  0.840200  0.717500  0.861700  1
  H  H37  1  0.149800  0.128800  0.282800  1
  H  H38  1  0.850200  0.871200  0.717200  1
  H  H39  1  0.154300  0.080900  0.215000  1
  H  H40  1  0.845700  0.919100  0.785000  1
  H  H41  1  0.620400  0.609600  0.226800  1
  H  H42  1  0.379600  0.390400  0.773200  1
  H  H43  1  0.661500  0.615100  0.290800  1
  H  H44  1  0.338500  0.384900  0.709200  1
  H  H45  1  0.834100  0.606400  0.147700  1
  H  H46  1  0.165900  0.393600  0.852300  1
  H  H47  1  0.788400  0.616500  0.079400  1
  H  H48  1  0.211600  0.383500  0.920600  1
  H  H49  1  0.265700  0.079000  0.954200  1
  H  H50  1  0.734300  0.921000  0.045800  1
  H  H51  1  0.302600  0.013500  0.986500  1
  H  H52  1  0.697400  0.986500  0.013500  1
  H  H53  1  0.211800  0.986500  0.048600  1
  H  H54  1  0.788200  0.013500  0.951400  1
  H  H55  1  0.217200  0.011100  0.976100  1
  H  H56  1  0.782800  0.988900  0.023900  1
  H  H57  1  0.547600  0.738800  0.097900  1
  H  H58  1  0.452400  0.261200  0.902100  1
  H  H59  1  0.594700  0.717500  0.136200  1
  H  H60  1  0.405300  0.282500  0.863800  1
  H  H61  1  0.730300  0.703200  0.989300  1
  H  H62  1  0.269700  0.296800  0.010700  1
  H  H63  1  0.711000  0.712800  0.057400  1
  H  H64  1  0.289000  0.287200  0.942600  1
  H  H65  1  0.680200  0.765400  0.008700  1
  H  H66  1  0.319800  0.234600  0.991300  1
  H  H67  1  0.595800  0.735100  0.989700  1
  H  H68  1  0.404200  0.264900  0.010300  1
  H  H69  1  0.666100  0.689600  0.963100  1
  H  H70  1  0.333900  0.310400  0.036900  1
  H  H71  1  0.590600  0.650300  0.978200  1
  H  H72  1  0.409400  0.349700  0.021800  1
  H  H73  1  0.552200  0.655600  0.051200  1
  H  H74  1  0.447800  0.344400  0.948800  1
  H  H75  1  0.579400  0.544100  0.043300  1
  H  H76  1  0.420600  0.455900  0.956700  1
  H  H77  1  0.563600  0.554400  0.110100  1
  H  H78  1  0.436400  0.445600  0.889900  1
  H  H79  1  0.626400  0.502700  0.080500  1
  H  H80  1  0.373600  0.497300  0.919500  1
  H  H81  1  0.678100  0.560800  0.953500  1
  H  H82  1  0.321900  0.439200  0.046500  1
  H  H83  1  0.717600  0.523600  0.998700  1
  H  H84  1  0.282400  0.476400  0.001300  1
  H  H85  1  0.720300  0.592400  0.958300  1
  H  H86  1  0.279700  0.407600  0.041700  1
  H  H87  1  0.161700  0.405900  0.157800  1
  H  H88  1  0.838300  0.594100  0.842200  1
  H  H89  1  0.148300  0.402000  0.330300  1
  H  H90  1  0.851700  0.598000  0.669700  1
  H  H91  1  0.929700  0.617900  0.333500  1
  H  H92  1  0.070300  0.382100  0.666500  1
  H  H93  1  0.955900  0.610100  0.163900  1
  H  H94  1  0.044100  0.389900  0.836100  1
  H  H95  1  0.760200  0.406000  0.662500  1
  H  H96  1  0.239800  0.594000  0.337500  1
  H  H97  1  0.607000  0.403400  0.642500  1
  H  H98  1  0.393000  0.596600  0.357500  1
  H  H99  1  0.880200  0.285100  0.660600  1
  H  H100  1  0.119800  0.714900  0.339400  1
  H  H101  1  0.876000  0.129900  0.644700  1
  H  H102  1  0.124000  0.870100  0.355300  1
  H  H103  1  0.977300  0.081800  0.650500  1
  H  H104  1  0.022700  0.918200  0.349500  1
  H  H105  1  0.981900  0.233900  0.666100  1
  H  H106  1  0.018100  0.766100  0.333900  1
  H  H107  1  0.169300  0.504900  0.121600  1
  H  H108  1  0.830700  0.495100  0.878400  1
  H  H109  1  0.709300  0.507500  0.665800  1
  H  H110  1  0.290700  0.492500  0.334200  1
  H  H111  1  0.156900  0.501600  0.285800  1
  H  H112  1  0.843100  0.498400  0.714200  1
  H  H113  1  0.063100  0.611800  0.123600  1
  H  H114  1  0.936900  0.388200  0.876400  1
  H  H115  1  0.034500  0.623800  0.289900  1
  H  H116  1  0.965500  0.376200  0.710100  1
  H  H117  1  0.134200  0.128400  0.422100  1
  H  H118  1  0.865800  0.871600  0.577900  1
  H  H119  1  0.120700  0.284700  0.449300  1
  H  H120  1  0.879300  0.715300  0.550700  1
  H  H121  1  0.104700  0.234800  0.554800  1
  H  H122  1  0.895300  0.765200  0.445200  1
  H  H123  1  0.115300  0.082600  0.526600  1
  H  H124  1  0.884700  0.917400  0.473400  1
  H  H125  1  0.590400  0.999400  0.508700  1
  H  H126  1  0.409600  0.000600  0.491300  1
  H  H127  1  0.639400  0.002200  0.531600  1
  H  H128  1  0.360600  0.997800  0.468400  1
  H  H129  1  0.631100  0.049300  0.467500  1
  H  H130  1  0.368900  0.950700  0.532500  1
  H  H131  1  0.551700  0.127800  0.466400  1
  H  H132  1  0.448300  0.872200  0.533600  1
  H  H133  1  0.493100  0.148900  0.528900  1
  H  H134  1  0.506900  0.851100  0.471100  1
  H  H135  1  0.494500  0.094600  0.508000  1
  H  H136  1  0.505500  0.905400  0.492000  1
  H  H137  1  0.464000  0.074900  0.615000  1
  H  H138  1  0.536000  0.925100  0.385000  1
  H  H139  1  0.503300  0.007900  0.602600  1
  H  H140  1  0.496700  0.992100  0.397400  1
  H  H141  1  0.556500  0.988000  0.659300  1
  H  H142  1  0.443500  0.012000  0.340700  1
  H  H143  1  0.482600  0.017500  0.700200  1
  H  H144  1  0.517400  0.982500  0.299800  1
  H  H145  1  0.509200  0.133600  0.717400  1
  H  H146  1  0.490800  0.866400  0.282600  1
  H  H147  1  0.455900  0.099200  0.740300  1
  H  H148  1  0.544100  0.900800  0.259700  1
  H  H149  1  0.470300  0.150900  0.674200  1
  H  H150  1  0.529700  0.849100  0.325800  1
  H  H151  1  0.609200  0.995100  0.691300  1
  H  H152  1  0.390800  0.004900  0.308700  1
  H  H153  1  0.555200  0.023700  0.750900  1
  H  H154  1  0.444800  0.976300  0.249100  1
  H  H155  1  0.610400  0.057000  0.696700  1
  H  H156  1  0.389600  0.943000  0.303300  1
  H  H157  1  0.641400  0.617400  0.430100  1
  H  H158  1  0.358600  0.382600  0.569900  1
  H  H159  1  0.577600  0.619900  0.534400  1
  H  H160  1  0.422400  0.380100  0.465600  1
  H  H161  1  0.724500  0.610400  0.562000  1
  H  H162  1  0.275500  0.389600  0.438000  1
  H  H163  1  0.790700  0.610100  0.458600  1
  H  H164  1  0.209300  0.389900  0.541400  1
  H  H165  1  0.455100  0.599400  0.741600  1
  H  H166  1  0.544900  0.400600  0.258400  1
  H  H167  1  0.447800  0.576300  0.814600  1
  H  H168  1  0.552200  0.423700  0.185400  1
  H  H169  1  0.492400  0.530900  0.767900  1
  H  H170  1  0.507600  0.469100  0.232100  1
  H  H171  1  0.475100  0.658900  0.803800  1
  H  H172  1  0.524900  0.341100  0.196200  1
  H  H173  1  0.548700  0.662800  0.764000  1
  H  H174  1  0.451300  0.337200  0.236000  1
  H  H175  1  0.485500  0.744500  0.715600  1
  H  H176  1  0.514500  0.255500  0.284400  1
  H  H177  1  0.455800  0.699900  0.711900  1
  H  H178  1  0.544200  0.300100  0.288100  1
  H  H179  1  0.559200  0.722300  0.556000  1
  H  H180  1  0.440800  0.277700  0.444000  1
  H  H181  1  0.509000  0.773300  0.595200  1
  H  H182  1  0.491000  0.226700  0.404800  1
  H  H183  1  0.488800  0.714300  0.607000  1
  H  H184  1  0.511200  0.285700  0.393000  1
  H  H185  1  0.634100  0.719300  0.592600  1
  H  H186  1  0.365900  0.280700  0.407400  1
  H  H187  1  0.612400  0.708200  0.667900  1
  H  H188  1  0.387600  0.291800  0.332100  1
  H  H189  1  0.577600  0.770200  0.629200  1
  H  H190  1  0.422400  0.229800  0.370800  1
  H  H191  1  0.581400  0.507600  0.787600  1
  H  H192  1  0.418600  0.492400  0.212400  1
  H  H193  1  0.542200  0.549100  0.838100  1
  H  H194  1  0.457800  0.450900  0.161900  1
  H  H195  1  0.608900  0.560000  0.779800  1
  H  H196  1  0.391100  0.440000  0.220200  1
  H  H197  1  0.059800  0.051800  0.089000  1
  H  H198  1  0.940200  0.948200  0.911000  1
  H  H199  1  0.116200  0.004300  0.112500  1
  H  H200  1  0.883800  0.995700  0.887500  1
  H  H201  1  0.112500  0.000100  0.051500  1
  H  H202  1  0.887500  0.999900  0.948500  1
  H  H203  1  0.168100  0.129800  0.945600  1
  H  H204  1  0.831900  0.870200  0.054400  1
  H  H205  1  0.095700  0.151800  0.995500  1
  H  H206  1  0.904300  0.848200  0.004500  1
  H  H207  1  0.113900  0.098900  0.962800  1
  H  H208  1  0.886100  0.901100  0.037200  1
  H  H209  1  0.322000  0.021700  0.083800  1
  H  H210  1  0.678000  0.978300  0.916200  1
  H  H211  1  0.270100  0.986400  0.104700  1
  H  H212  1  0.729900  0.013600  0.895300  1
  H  H213  1  0.251200  0.038900  0.138200  1
  H  H214  1  0.748800  0.961100  0.861800  1
  H  H215  1  0.333500  0.105000  0.983900  1
  H  H216  1  0.666500  0.895000  0.016100  1
  H  H217  1  0.296300  0.127800  0.048600  1
  H  H218  1  0.703700  0.872200  0.951400  1
  H  H219  1  0.267800  0.159200  0.994200  1
  H  H220  1  0.732200  0.840800  0.005800  1
  H  H221  1  0.284500  0.560700  0.062200  1
  H  H222  1  0.715500  0.439300  0.937800  1
  H  H223  1  0.287200  0.505400  0.123900  1
  H  H224  1  0.712800  0.494600  0.876100  1
  H  H225  1  0.341000  0.542600  0.085700  1
  H  H226  1  0.659000  0.457400  0.914300  1
  H  H227  1  0.320400  0.558900  0.178200  1
  H  H228  1  0.679600  0.441100  0.821800  1
  H  H229  1  0.264100  0.524500  0.218600  1
  H  H230  1  0.735900  0.475500  0.781400  1
  H  H231  1  0.250300  0.592100  0.223300  1
  H  H232  1  0.749700  0.407900  0.776700  1
  H  H233  1  0.301200  0.652300  0.114100  1
  H  H234  1  0.698800  0.347700  0.885900  1
  H  H235  1  0.278000  0.657100  0.062100  1
  H  H236  1  0.722000  0.342900  0.937900  1
  H  H237  1  0.222000  0.736700  0.091900  1
  H  H238  1  0.778000  0.263300  0.908100  1
  H  H239  1  0.213700  0.704900  0.164700  1
  H  H240  1  0.786300  0.295100  0.835300  1
  H  H241  1  0.087400  0.758900  0.099200  1
  H  H242  1  0.912600  0.241100  0.900800  1
  H  H243  1  0.147300  0.711500  0.056000  1
  H  H244  1  0.852700  0.288500  0.944000  1
  H  H245  1  0.113600  0.765700  0.185400  1
  H  H246  1  0.886400  0.234300  0.814600  1
  H  H247  1  0.115100  0.699900  0.235300  1
  H  H248  1  0.884900  0.300100  0.764700  1
  H  H249  1  0.060500  0.731700  0.206700  1
  H  H250  1  0.939500  0.268300  0.793300  1
  H  H251  1  0.223300  0.067300  0.548200  1
  H  H252  1  0.776700  0.932700  0.451800  1
  H  H253  1  0.198300  0.009000  0.599800  1
  H  H254  1  0.801700  0.991000  0.400200  1
  H  H255  1  0.261200  0.020100  0.593100  1
  H  H256  1  0.738800  0.979900  0.406900  1
  H  H257  1  0.246400  0.126300  0.587300  1
  H  H258  1  0.753600  0.873700  0.412700  1
  H  H259  1  0.186300  0.150500  0.650200  1
  H  H260  1  0.813700  0.849500  0.349800  1
  H  H261  1  0.177300  0.995700  0.708600  1
  H  H262  1  0.822700  0.004300  0.291400  1
  H  H263  1  0.208800  0.038600  0.711800  1
  H  H264  1  0.791200  0.961400  0.288200  1
  H  H265  1  0.121500  0.089000  0.764200  1
  H  H266  1  0.878500  0.911000  0.235800  1
  H  H267  1  0.115300  0.020200  0.792900  1
  H  H268  1  0.884700  0.979800  0.207100  1
  H  H269  1  0.028100  0.153800  0.769000  1
  H  H270  1  0.971900  0.846200  0.231000  1
  H  H271  1  0.000600  0.099500  0.826800  1
  H  H272  1  0.999400  0.900500  0.173200  1
  H  H273  1  0.971500  0.134400  0.772900  1
  H  H274  1  0.028500  0.865600  0.227100  1
  H  H275  1  0.987400  0.036500  0.765700  1
  H  H276  1  0.012600  0.963500  0.234300  1
  H  H277  1  0.029600  0.997200  0.808100  1
  H  H278  1  0.970400  0.002800  0.191900  1
  H  H279  1  0.059200  0.994900  0.734800  1
  H  H280  1  0.940800  0.005100  0.265200  1
  H  H281  1  0.558000  0.501800  0.656000  1
  H  H282  1  0.442000  0.498200  0.344000  1
  Pd  Pd283  1  0.153190  0.111320  0.086770  1
  Pd  Pd284  1  0.846810  0.888680  0.913230  1
  Pd  Pd285  1  0.083580  0.114620  0.647450  1
  Pd  Pd286  1  0.916420  0.885380  0.352550  1
  Pd  Pd287  1  0.593460  0.110620  0.576110  1
  Pd  Pd288  1  0.406540  0.889380  0.423890  1
  Pd  Pd289  1  0.589340  0.604900  0.654760  1
  Pd  Pd290  1  0.410660  0.395100  0.345240  1
  Pd  Pd291  1  0.669340  0.598380  0.092400  1
  Pd  Pd292  1  0.330660  0.401620  0.907600  1
  Pd  Pd293  1  0.155890  0.602980  0.172760  1
  Pd  Pd294  1  0.844110  0.397020  0.827240  1
  C  C295  1  0.956300  0.395800  0.178400  1
  C  C296  1  0.043700  0.604200  0.821600  1
  C  C297  1  0.957800  0.439400  0.205400  1
  C  C298  1  0.042200  0.560600  0.794600  1
  C  C299  1  0.973400  0.419400  0.261600  1
  C  C300  1  0.026600  0.580600  0.738400  1
  C  C301  1  0.908400  0.446100  0.455400  1
  C  C302  1  0.091600  0.553900  0.544600  1
  C  C303  1  0.932700  0.375100  0.465600  1
  C  C304  1  0.067300  0.624900  0.534400  1
  C  C305  1  0.878700  0.348800  0.478600  1
  C  C306  1  0.121300  0.651200  0.521400  1
  C  C307  1  0.672700  0.402700  0.451900  1
  C  C308  1  0.327300  0.597300  0.548100  1
  C  C309  1  0.710400  0.437300  0.384800  1
  C  C310  1  0.289600  0.562700  0.615200  1
  C  C311  1  0.766300  0.405300  0.337600  1
  C  C312  1  0.233700  0.594700  0.662400  1
  C  C313  1  0.000000  0.000000  0.000000  1
  C  C314  1  0.620800  0.207300  0.456400  1
  C  C315  1  0.379200  0.792700  0.543600  1
  C  C316  1  0.657700  0.236700  0.395900  1
  C  C317  1  0.342300  0.763300  0.604100  1
  C  C318  1  0.721100  0.207400  0.366100  1
  C  C319  1  0.278900  0.792600  0.633900  1
  C  C320  1  0.747900  0.148000  0.395200  1
  C  C321  1  0.252100  0.852000  0.604800  1
  C  C322  1  0.707900  0.122500  0.454500  1
  C  C323  1  0.292100  0.877500  0.545500  1
  C  C324  1  0.757300  0.476200  0.101200  1
  C  C325  1  0.242700  0.523800  0.898800  1
  C  C326  1  0.784800  0.418900  0.125100  1
  C  C327  1  0.215200  0.581100  0.874900  1
  C  C328  1  0.745600  0.386500  0.188100  1
  C  C329  1  0.254400  0.613500  0.811900  1
  C  C330  1  0.686100  0.418800  0.216900  1
  C  C331  1  0.313900  0.581200  0.783100  1
  C  C332  1  0.662800  0.479100  0.187100  1
  C  C333  1  0.337200  0.520900  0.812900  1
  C  C334  1  0.018900  0.121800  0.184100  1
  C  C335  1  0.981100  0.878200  0.815900  1
  C  C336  1  0.955600  0.148700  0.214600  1
  C  C337  1  0.044400  0.851300  0.785400  1
  C  C338  1  0.927300  0.205000  0.184800  1
  C  C339  1  0.072700  0.795000  0.815200  1
  C  C340  1  0.967000  0.236300  0.124300  1
  C  C341  1  0.033000  0.763700  0.875700  1
  C  C342  1  0.030000  0.205700  0.097100  1
  C  C343  1  0.970000  0.794300  0.902900  1
  C  C344  1  0.761800  0.240900  0.301400  1
  C  C345  1  0.238200  0.759100  0.698600  1
  C  C346  1  0.774200  0.321000  0.219200  1
  C  C347  1  0.225800  0.679000  0.780800  1
  C  C348  1  0.858000  0.238600  0.216900  1
  C  C349  1  0.142000  0.761400  0.783100  1
  C  C350  1  0.603300  0.208500  0.606800  1
  C  C351  1  0.396700  0.791500  0.393200  1
  C  C352  1  0.631400  0.239900  0.617900  1
  C  C353  1  0.368600  0.760100  0.382100  1
  C  C354  1  0.689100  0.210800  0.624300  1
  C  C355  1  0.310900  0.789200  0.375700  1
  C  C356  1  0.149700  0.242800  0.260000  1
  C  C357  1  0.850300  0.757200  0.740000  1
  C  C358  1  0.686500  0.122300  0.609300  1
  C  C359  1  0.313500  0.877700  0.390700  1
  C  C360  1  0.717500  0.150500  0.620300  1
  C  C361  1  0.282500  0.849500  0.379700  1
  C  C362  1  0.161100  0.210100  0.118200  1
  C  C363  1  0.838900  0.789900  0.881800  1
  C  C364  1  0.158700  0.240800  0.155100  1
  C  C365  1  0.841300  0.759200  0.844900  1
  C  C366  1  0.154500  0.210000  0.218500  1
  C  C367  1  0.845500  0.790000  0.781500  1
  C  C368  1  0.152800  0.150900  0.240400  1
  C  C369  1  0.847200  0.849100  0.759600  1
  C  C370  1  0.155700  0.122500  0.199500  1
  C  C371  1  0.844300  0.877500  0.800500  1
  C  C372  1  0.664200  0.610700  0.209000  1
  C  C373  1  0.335800  0.389300  0.791000  1
  C  C374  1  0.688800  0.612900  0.247600  1
  C  C375  1  0.311200  0.387100  0.752400  1
  C  C376  1  0.752600  0.611800  0.223500  1
  C  C377  1  0.247400  0.388200  0.776500  1
  C  C378  1  0.789200  0.609800  0.164100  1
  C  C379  1  0.210800  0.390200  0.835900  1
  C  C380  1  0.762500  0.612700  0.123900  1
  C  C381  1  0.237500  0.387300  0.876100  1
  C  C382  1  0.721800  0.242200  0.635100  1
  C  C383  1  0.278200  0.757800  0.364900  1
  C  C384  1  0.719900  0.327200  0.650000  1
  C  C385  1  0.280100  0.672800  0.350000  1
  C  C386  1  0.803800  0.243400  0.648700  1
  C  C387  1  0.196200  0.756600  0.351300  1
  C  C388  1  0.261700  0.046600  0.994700  1
  C  C389  1  0.738300  0.953400  0.005300  1
  C  C390  1  0.211200  0.023500  0.012600  1
  C  C391  1  0.788800  0.976500  0.987400  1
  C  C392  1  0.778900  0.615100  0.266100  1
  C  C393  1  0.221100  0.384900  0.733900  1
  C  C394  1  0.688400  0.392600  0.655100  1
  C  C395  1  0.311600  0.607400  0.344900  1
  C  C396  1  0.867900  0.212000  0.653100  1
  C  C397  1  0.132100  0.788000  0.346900  1
  C  C398  1  0.588600  0.718400  0.100800  1
  C  C399  1  0.411400  0.281600  0.899200  1
  C  C400  1  0.695200  0.721000  0.024800  1
  C  C401  1  0.304800  0.279000  0.975200  1
  C  C402  1  0.624600  0.694400  0.001000  1
  C  C403  1  0.375400  0.305600  0.999000  1
  C  C404  1  0.595700  0.648400  0.016200  1
  C  C405  1  0.404300  0.351600  0.983800  1
  C  C406  1  0.598300  0.543700  0.070300  1
  C  C407  1  0.401700  0.456300  0.929700  1
  C  C408  1  0.692800  0.564100  0.982200  1
  C  C409  1  0.307200  0.435900  0.017800  1
  C  C410  1  0.137000  0.244200  0.356100  1
  C  C411  1  0.863000  0.755800  0.643900  1
  C  C412  1  0.128600  0.212500  0.424500  1
  C  C413  1  0.871400  0.787500  0.575500  1
  C  C414  1  0.150500  0.327500  0.274300  1
  C  C415  1  0.849500  0.672500  0.725700  1
  C  C416  1  0.155900  0.391400  0.248700  1
  C  C417  1  0.844100  0.608600  0.751300  1
  C  C418  1  0.161000  0.424500  0.185300  1
  C  C419  1  0.839000  0.575500  0.814700  1
  C  C420  1  0.153100  0.421600  0.287100  1
  C  C421  1  0.846900  0.578400  0.712900  1
  C  C422  1  0.863900  0.614200  0.279200  1
  C  C423  1  0.136100  0.385800  0.720800  1
  C  C424  1  0.931000  0.615200  0.251800  1
  C  C425  1  0.069000  0.384800  0.748200  1
  C  C426  1  0.956100  0.617600  0.289700  1
  C  C427  1  0.043900  0.382400  0.710300  1
  C  C428  1  0.971400  0.612500  0.191000  1
  C  C429  1  0.028600  0.387500  0.809000  1
  C  C430  1  0.718800  0.424900  0.660500  1
  C  C431  1  0.281200  0.575100  0.339500  1
  C  C432  1  0.627700  0.423200  0.649900  1
  C  C433  1  0.372300  0.576800  0.350100  1
  C  C434  1  0.899600  0.243400  0.658500  1
  C  C435  1  0.100400  0.756600  0.341500  1
  C  C436  1  0.897000  0.151700  0.649100  1
  C  C437  1  0.103000  0.848300  0.350900  1
  C  C438  1  0.957800  0.123700  0.651800  1
  C  C439  1  0.042200  0.876300  0.348200  1
  C  C440  1  0.960600  0.213000  0.660900  1
  C  C441  1  0.039400  0.787000  0.339100  1
  C  C442  1  0.165000  0.483300  0.164400  1
  C  C443  1  0.835000  0.516700  0.835600  1
  C  C444  1  0.688000  0.484800  0.663000  1
  C  C445  1  0.312000  0.515200  0.337000  1
  C  C446  1  0.157700  0.481100  0.259900  1
  C  C447  1  0.842300  0.518900  0.740100  1
  C  C448  1  0.035700  0.613200  0.166900  1
  C  C449  1  0.964300  0.386800  0.833100  1
  C  C450  1  0.018800  0.619600  0.264000  1
  C  C451  1  0.981200  0.380400  0.736000  1
  C  C452  1  0.127400  0.151000  0.449300  1
  C  C453  1  0.872600  0.849000  0.550700  1
  C  C454  1  0.119900  0.242900  0.464700  1
  C  C455  1  0.880100  0.757100  0.535300  1
  C  C456  1  0.110100  0.213100  0.527600  1
  C  C457  1  0.889900  0.786900  0.472400  1
  C  C458  1  0.116700  0.124200  0.510800  1
  C  C459  1  0.883300  0.875800  0.489200  1
  C  C460  1  0.765300  0.614500  0.363700  1
  C  C461  1  0.234700  0.385500  0.636300  1
  C  C462  1  0.723800  0.615900  0.431300  1
  C  C463  1  0.276200  0.384100  0.568700  1
  C  C464  1  0.608600  0.026600  0.511000  1
  C  C465  1  0.391400  0.973400  0.489000  1
  C  C466  1  0.521100  0.113800  0.509900  1
  C  C467  1  0.478900  0.886200  0.490100  1
  C  C468  1  0.506600  0.044000  0.607800  1
  C  C469  1  0.493400  0.956000  0.392200  1
  C  C470  1  0.521200  0.026600  0.661200  1
  C  C471  1  0.478800  0.973400  0.338800  1
  C  C472  1  0.489600  0.117400  0.703000  1
  C  C473  1  0.510400  0.882600  0.297000  1
  C  C474  1  0.582400  0.033300  0.704900  1
  C  C475  1  0.417600  0.966700  0.295100  1
  C  C476  1  0.659400  0.617100  0.456500  1
  C  C477  1  0.340600  0.382900  0.543500  1
  C  C478  1  0.622000  0.617900  0.518500  1
  C  C479  1  0.378000  0.382100  0.481500  1
  C  C480  1  0.706800  0.612800  0.534400  1
  C  C481  1  0.293200  0.387200  0.465600  1
  C  C482  1  0.746400  0.612600  0.473100  1
  C  C483  1  0.253600  0.387400  0.526900  1
  C  C484  1  0.477600  0.573600  0.770500  1
  C  C485  1  0.522400  0.426400  0.229500  1
  C  C486  1  0.512700  0.656200  0.762300  1
  C  C487  1  0.487300  0.343800  0.237700  1
  C  C488  1  0.495200  0.703500  0.710200  1
  C  C489  1  0.504800  0.296500  0.289800  1
  C  C490  1  0.524600  0.729300  0.597300  1
  C  C491  1  0.475400  0.270700  0.402700  1
  C  C492  1  0.597300  0.726100  0.633000  1
  C  C493  1  0.402700  0.273900  0.367000  1
  C  C494  1  0.569600  0.548700  0.792900  1
  C  C495  1  0.430400  0.451300  0.207100  1
  C  C496  1  0.105400  0.028100  0.074900  1
  C  C497  1  0.894600  0.971900  0.925100  1
  C  C498  1  0.129700  0.116500  0.979700  1
  C  C499  1  0.870300  0.883500  0.020300  1
  C  C500  1  0.275900  0.025900  0.098000  1
  C  C501  1  0.724100  0.974100  0.902000  1
  C  C502  1  0.290900  0.120600  0.015600  1
  C  C503  1  0.709100  0.879400  0.984400  1
  C  C504  1  0.295200  0.545800  0.099800  1
  C  C505  1  0.704800  0.454200  0.900200  1
  C  C506  1  0.273700  0.564300  0.194700  1
  C  C507  1  0.726300  0.435700  0.805300  1
  C  C508  1  0.264500  0.651300  0.108500  1
  C  C509  1  0.735500  0.348700  0.891500  1
  C  C510  1  0.214100  0.699500  0.126900  1
  C  C511  1  0.785900  0.300500  0.873100  1
  C  C512  1  0.125200  0.725400  0.094300  1
  C  C513  1  0.874800  0.274600  0.905700  1
  C  C514  1  0.105900  0.725800  0.197200  1
  C  C515  1  0.894100  0.274200  0.802800  1
  C  C516  1  0.218500  0.040200  0.591100  1
  C  C517  1  0.781500  0.959800  0.408900  1
  C  C518  1  0.206900  0.122800  0.623500  1
  C  C519  1  0.793100  0.877200  0.376500  1
  C  C520  1  0.171900  0.038600  0.705800  1
  C  C521  1  0.828100  0.961400  0.294200  1
  C  C522  1  0.118400  0.055300  0.754700  1
  C  C523  1  0.881600  0.944700  0.245300  1
  C  C524  1  0.010900  0.119300  0.781100  1
  C  C525  1  0.989100  0.880700  0.218900  1
  C  C526  1  0.031200  0.021100  0.765000  1
  C  C527  1  0.968800  0.978900  0.235000  1
  C  C528  1  0.600200  0.482200  0.655900  1
  C  C529  1  0.399800  0.517800  0.344100  1
  C  C530  1  0.959700  0.163900  0.415200  1
  C  C531  1  0.040300  0.836100  0.584800  1
  C  C532  1  0.889600  0.188700  0.428000  1
  C  C533  1  0.110400  0.811300  0.572000  1
  I  I534  1  0.939700  0.447000  0.092100  1
  I  I535  1  0.060300  0.553000  0.907900  1
  I  I536  1  0.986640  0.479740  0.430640  1
  I  I537  1  0.013360  0.520260  0.569360  1
  I  I538  1  0.594750  0.478460  0.491800  1
  I  I539  1  0.405250  0.521540  0.508200  1
  I  I540  1  0.978300  0.090800  0.492920  1
  I  I541  1  0.021700  0.909200  0.507080  1
  I  I542  1  0.934000  0.482100  0.093400  1
  I  I543  1  0.066000  0.517900  0.906600  1
  N  N544  1  0.681100  0.147800  0.304600  1
  N  N545  1  0.318900  0.852200  0.695400  1
  N  N546  1  0.853500  0.573100  0.960800  1
  N  N547  1  0.146500  0.426900  0.039200  1
  N  N548  1  0.122800  0.563200  0.363900  1
  N  N549  1  0.877200  0.436800  0.636100  1
  N  N550  1  0.460400  0.576700  0.621800  1
  N  N551  1  0.539600  0.423300  0.378200  1
  N  N552  1  0.063400  0.974800  0.621200  1
  N  N553  1  0.936600  0.025200  0.378800  1
  N  N554  1  0.645000  0.150200  0.484400  1
  N  N555  1  0.355000  0.849800  0.515600  1
  N  N556  1  0.734000  0.296700  0.275800  1
  N  N557  1  0.266000  0.703300  0.724200  1
  N  N558  1  0.836900  0.295600  0.185100  1
  N  N559  1  0.163100  0.704400  0.814900  1
  N  N560  1  0.824900  0.207000  0.274800  1
  N  N561  1  0.175100  0.793000  0.725200  1
  N  N562  1  0.700100  0.506200  0.130000  1
  N  N563  1  0.299900  0.493800  0.870000  1
  N  N564  1  0.056800  0.149200  0.125600  1
  N  N565  1  0.943200  0.850800  0.874400  1
  N  N566  1  0.160200  0.151700  0.139600  1
  N  N567  1  0.839800  0.848300  0.860400  1
  N  N568  1  0.700300  0.610200  0.147700  1
  N  N569  1  0.299700  0.389800  0.852300  1
  N  N570  1  0.630800  0.150500  0.602700  1
  N  N571  1  0.369200  0.849500  0.397300  1
  N  N572  1  0.690200  0.300800  0.639800  1
  N  N573  1  0.309800  0.699200  0.360200  1
  N  N574  1  0.777000  0.300900  0.653800  1
  N  N575  1  0.223000  0.699100  0.346200  1
  N  N576  1  0.777700  0.211100  0.641200  1
  N  N577  1  0.222300  0.788900  0.358800  1
  N  N578  1  0.251800  0.073800  0.046700  1
  N  N579  1  0.748200  0.926200  0.953300  1
  N  N580  1  0.146700  0.070100  0.032700  1
  N  N581  1  0.853300  0.929900  0.967300  1
  N  N582  1  0.556400  0.069900  0.548500  1
  N  N583  1  0.443600  0.930100  0.451500  1
  N  N584  1  0.540400  0.069800  0.668300  1
  N  N585  1  0.459600  0.930200  0.331700  1
  N  N586  1  0.644500  0.616100  0.558700  1
  N  N587  1  0.355500  0.383900  0.441300  1
  N  N588  1  0.628200  0.513300  0.661600  1
  N  N589  1  0.371800  0.486700  0.338400  1
  N  N590  1  0.739500  0.613100  0.328200  1
  N  N591  1  0.260500  0.386900  0.671800  1
  N  N592  1  0.155500  0.300900  0.234700  1
  N  N593  1  0.844500  0.699100  0.765300  1
  N  N594  1  0.840100  0.614800  0.239800  1
  N  N595  1  0.159900  0.385200  0.760200  1
  N  N596  1  0.635800  0.587500  0.036500  1
  N  N597  1  0.364200  0.412500  0.963500  1
  N  N598  1  0.636900  0.691500  0.055600  1
  N  N599  1  0.363100  0.308500  0.944400  1
  N  N600  1  0.141200  0.301600  0.335800  1
  N  N601  1  0.858800  0.698400  0.664200  1
  N  N602  1  0.142500  0.211800  0.319900  1
  N  N603  1  0.857500  0.788200  0.680100  1
  N  N604  1  0.827300  0.614600  0.341600  1
  N  N605  1  0.172700  0.385400  0.658400  1
  N  N606  1  0.990300  0.153500  0.656000  1
  N  N607  1  0.009700  0.846500  0.344000  1
  N  N608  1  0.107600  0.153600  0.552500  1
  N  N609  1  0.892400  0.846400  0.447500  1
  N  N610  1  0.059400  0.615900  0.203200  1
  N  N611  1  0.940600  0.384100  0.796800  1
  N  N612  1  0.549100  0.697000  0.646700  1
  N  N613  1  0.450900  0.303000  0.353300  1
  N  N614  1  0.163200  0.511700  0.201000  1
  N  N615  1  0.836800  0.488300  0.799000  1
  N  N616  1  0.058600  0.075700  0.743800  1
  N  N617  1  0.941400  0.924300  0.256200  1
  N  N618  1  0.178400  0.075700  0.638100  1
  N  N619  1  0.821600  0.924300  0.361900  1
  N  N620  1  0.148400  0.696000  0.143700  1
  N  N621  1  0.851600  0.304000  0.856300  1
  N  N622  1  0.532700  0.594400  0.751700  1
  N  N623  1  0.467300  0.405600  0.248300  1
  N  N624  1  0.253700  0.589900  0.142000  1
  N  N625  1  0.746300  0.410100  0.858000  1
  N  N626  1  0.856000  0.601100  0.964000  1
  N  N627  1  0.144000  0.398900  0.036000  1
  N  N628  1  0.086100  0.597700  0.365500  1
  N  N629  1  0.913900  0.402300  0.634500  1
  N  N630  1  0.462400  0.600800  0.591700  1
  N  N631  1  0.537600  0.399200  0.408300  1
  N  N632  1  0.093500  0.972700  0.595000  1
  N  N633  1  0.906500  0.027300  0.405000  1
  O  O634  1  0.718700  0.845100  0.551100  1
  O  O635  1  0.281300  0.154900  0.448900  1
  O  O636  1  0.621700  0.170800  0.328600  1
  O  O637  1  0.378300  0.829200  0.671400  1
  O  O638  1  0.718200  0.179600  0.260700  1
  O  O639  1  0.281800  0.820400  0.739300  1
  O  O640  1  0.704000  0.092100  0.322800  1
  O  O641  1  0.296000  0.907900  0.677200  1
  O  O642  1  0.882000  0.566800  0.994000  1
  O  O643  1  0.118000  0.433200  0.006000  1
  O  O644  1  0.817900  0.624300  0.946000  1
  O  O645  1  0.182100  0.375700  0.054000  1
  O  O646  1  0.858400  0.527700  0.946300  1
  O  O647  1  0.141600  0.472300  0.053700  1
  O  O648  1  0.945000  0.419300  0.975000  1
  O  O649  1  0.055000  0.580700  0.025000  1
  O  O650  1  0.068100  0.554600  0.397100  1
  O  O651  1  0.931900  0.445400  0.602900  1
  O  O652  1  0.128400  0.614200  0.326100  1
  O  O653  1  0.871600  0.385800  0.673900  1
  O  O654  1  0.170600  0.519800  0.366800  1
  O  O655  1  0.829400  0.480200  0.633200  1
  O  O656  1  0.968000  0.678000  0.395000  1
  O  O657  1  0.032000  0.322000  0.605000  1
  O  O658  1  0.891000  0.648000  0.468000  1
  O  O659  1  0.109000  0.352000  0.532000  1
  O  O660  1  0.877000  0.689000  0.999000  1
  O  O661  1  0.123000  0.311000  0.001000  1
  O  O662  1  0.494100  0.566100  0.568000  1
  O  O663  1  0.505900  0.433900  0.432000  1
  O  O664  1  0.442600  0.628500  0.630200  1
  O  O665  1  0.557400  0.371500  0.369800  1
  O  O666  1  0.444100  0.533900  0.669400  1
  O  O667  1  0.555900  0.466100  0.330600  1
  O  O668  1  0.488800  0.684600  0.470900  1
  O  O669  1  0.511200  0.315400  0.529100  1
  O  O670  1  0.531000  0.658000  0.357000  1
  O  O671  1  0.469000  0.342000  0.643000  1
  O  O672  1  0.621900  0.778500  0.367600  1
  O  O673  1  0.378100  0.221500  0.632400  1
  O  O674  1  0.581100  0.731000  0.349400  1
  O  O675  1  0.418900  0.269000  0.650600  1
  O  O676  1  0.059100  0.001900  0.568200  1
  O  O677  1  0.940900  0.998100  0.431800  1
  O  O678  1  0.115900  0.963000  0.624400  1
  O  O679  1  0.884100  0.037000  0.375600  1
  O  O680  1  0.014200  0.964500  0.669200  1
  O  O681  1  0.985800  0.035500  0.330800  1
  O  O682  1  0.197600  0.986500  0.471700  1
  O  O683  1  0.802400  0.013500  0.528300  1
  O  O684  1  0.903600  0.006400  0.651200  1
  O  O685  1  0.096400  0.993600  0.348800  1
  O  O686  1  0.285400  0.053800  0.400300  1
  O  O687  1  0.714600  0.946200  0.599700  1
  O  O688  1  0.191000  0.005000  0.338000  1
  O  O689  1  0.809000  0.995000  0.662000  1
  O  O690  1  0.150000  0.006000  0.424000  1
  O  O691  1  0.850000  0.994000  0.576000  1
  O  O692  1  0.270000  0.019000  0.267000  1
  O  O693  1  0.730000  0.981000  0.733000  1
  O  O694  1  0.305900  0.333000  0.269100  1
  O  O695  1  0.694100  0.667000  0.730900  1
  O  O696  1  0.288600  0.400800  0.313800  1
  O  O697  1  0.711400  0.599200  0.686200  1
  O  O698  1  0.315000  0.397600  0.192600  1
  O  O699  1  0.685000  0.602400  0.807400  1
  O  O700  1  0.174300  0.245100  0.967300  1
  O  O701  1  0.825700  0.754900  0.032700  1
  O  O702  1  0.227700  0.647000  0.961000  1
  O  O703  1  0.772300  0.353000  0.039000  1
  O  O704  1  0.807300  0.725800  0.422000  1
  O  O705  1  0.192700  0.274200  0.578000  1
  O  O706  1  0.929400  0.752900  0.324400  1
  O  O707  1  0.070600  0.247100  0.675600  1
  O  O708  1  0.860600  0.767000  0.286900  1
  O  O709  1  0.139400  0.233000  0.713100  1
  O  O710  1  0.166000  0.009000  0.898000  1
  O  O711  1  0.834000  0.991000  0.102000  1
  O  O712  1  0.212000  0.103000  0.800000  1
  O  O713  1  0.788000  0.897000  0.200000  1
  O  O714  1  0.631500  0.961900  0.391000  1
  O  O715  1  0.368500  0.038100  0.609000  1
  O  O716  1  0.675000  0.896000  0.296000  1
  O  O717  1  0.325000  0.104000  0.704000  1
  O  O718  1  0.146100  0.872700  0.179800  1
  O  O719  1  0.853900  0.127300  0.820200  1
  O  O720  1  0.141900  0.972500  0.210100  1
  O  O721  1  0.858100  0.027500  0.789900  1
  O  O722  1  0.281200  0.891400  0.183700  1
  O  O723  1  0.718800  0.108600  0.816300  1
  O  O724  1  0.959000  0.870000  0.090000  1
  O  O725  1  0.041000  0.130000  0.910000  1
  O  O726  1  0.690900  0.237200  0.784700  1
  O  O727  1  0.309100  0.762800  0.215300  1
  O  O728  1  0.093000  0.686500  0.995200  1
  O  O729  1  0.907000  0.313500  0.004800  1
  O  O730  1  0.763600  0.217000  0.819700  1
  O  O731  1  0.236400  0.783000  0.180300  1
  O  O732  1  0.686200  0.306800  0.814500  1
  O  O733  1  0.313800  0.693200  0.185500  1
  O  O734  1  0.524000  0.891200  0.617800  1
  O  O735  1  0.476000  0.108800  0.382200  1
  O  O736  1  0.528100  0.801500  0.911900  1
  O  O737  1  0.471900  0.198500  0.088100  1
  O  O738  1  0.518300  0.595000  0.214000  1
  O  O739  1  0.481700  0.405000  0.786000  1
  O  O740  1  0.156300  0.421700  0.433000  1
  O  O741  1  0.843700  0.578300  0.567000  1
  O  O742  1  0.571600  0.401000  0.812600  1
  O  O743  1  0.428400  0.599000  0.187400  1
  O  O744  1  0.403400  0.613400  0.932200  1
  O  O745  1  0.596600  0.386600  0.067800  1
  O  O746  1  0.663000  0.770800  0.459200  1
  O  O747  1  0.337000  0.229200  0.540800  1
  O  O748  1  0.434500  0.139600  0.874500  1
  O  O749  1  0.565500  0.860400  0.125500  1
  O  O750  1  0.444700  0.121500  0.990500  1
  O  O751  1  0.555300  0.878500  0.009500  1
  O  O752  1  0.446200  0.948500  0.027900  1
  O  O753  1  0.553800  0.051500  0.972100  1
  O  O754  1  0.408300  0.939700  0.651100  1
  O  O755  1  0.591700  0.060300  0.348900  1
  O  O756  1  0.475300  0.425700  0.667300  1
  O  O757  1  0.524700  0.574300  0.332700  1
  O  O758  1  0.567200  0.401500  0.919800  1
  O  O759  1  0.432800  0.598500  0.080200  1
  O  O760  1  0.566900  0.612000  0.906600  1
  O  O761  1  0.433100  0.388000  0.093400  1
  O  O762  1  0.509500  0.757600  0.812000  1
  O  O763  1  0.490500  0.242400  0.188000  1
  O  O764  1  0.319100  0.601700  0.921100  1
  O  O765  1  0.680900  0.398300  0.078900  1
  O  O766  1  0.650000  0.076000  0.789000  1
  O  O767  1  0.350000  0.924000  0.211000  1
  O  O768  1  0.283000  0.237000  0.243000  1
  O  O769  1  0.717000  0.763000  0.757000  1
  O  O770  1  0.433000  0.864000  0.041000  1
  O  O771  1  0.567000  0.136000  0.959000  1
  O  O772  1  0.323900  0.899700  0.986600  1
  O  O773  1  0.676100  0.100300  0.013400  1
  O  O774  1  0.937100  0.091600  0.114300  1
  O  O775  1  0.062900  0.908400  0.885700  1
  O  O776  1  0.656400  0.285400  0.189600  1
  O  O777  1  0.343600  0.714600  0.810400  1
  O  O778  1  0.608400  0.215200  0.163300  1
  O  O779  1  0.391600  0.784800  0.836700  1
  O  O780  1  0.354900  0.912500  0.787500  1
  O  O781  1  0.645100  0.087500  0.212500  1
  O  O782  1  0.829100  0.109800  0.191000  1
  O  O783  1  0.170900  0.890200  0.809000  1
  O  O784  1  0.627100  0.871700  0.503900  1
  O  O785  1  0.372900  0.128300  0.496100  1
  O  O786  1  0.818000  0.594000  0.949000  1
  O  O787  1  0.182000  0.406000  0.051000  1
  O  O788  1  0.852000  0.652300  0.964400  1
  O  O789  1  0.148000  0.347700  0.035600  1
  O  O790  1  0.900000  0.445000  0.953000  1
  O  O791  1  0.100000  0.555000  0.047000  1
  O  O792  1  0.077000  0.553200  0.414000  1
  O  O793  1  0.923000  0.446800  0.586000  1
  O  O794  1  0.141300  0.596000  0.322000  1
  O  O795  1  0.858700  0.404000  0.678000  1
  O  O796  1  0.044500  0.647800  0.366600  1
  O  O797  1  0.955500  0.352200  0.633400  1
  O  O798  1  0.942600  0.637700  0.436300  1
  O  O799  1  0.057400  0.362300  0.563700  1
  O  O800  1  0.937000  0.633000  0.020000  1
  O  O801  1  0.063000  0.367000  0.980000  1
  O  O802  1  0.481000  0.551100  0.577600  1
  O  O803  1  0.519000  0.448900  0.422400  1
  O  O804  1  0.454000  0.601400  0.645400  1
  O  O805  1  0.546000  0.398600  0.354600  1
  O  O806  1  0.464200  0.649300  0.548200  1
  O  O807  1  0.535800  0.350700  0.451800  1
  O  O808  1  0.503000  0.645000  0.427000  1
  O  O809  1  0.497000  0.355000  0.573000  1
  O  O810  1  0.536900  0.760600  0.430300  1
  O  O811  1  0.463100  0.239400  0.569700  1
  O  O812  1  0.579100  0.758500  0.385100  1
  O  O813  1  0.420900  0.241500  0.614900  1
  O  O814  1  0.043100  0.996000  0.584900  1
  O  O815  1  0.956900  0.004000  0.415100  1
  O  O816  1  0.089000  0.963000  0.650200  1
  O  O817  1  0.911000  0.037000  0.349800  1
  O  O818  1  0.147300  0.966900  0.550300  1
  O  O819  1  0.852700  0.033100  0.449700  1
  O  O820  1  0.930900  0.986500  0.689200  1
  O  O821  1  0.069100  0.013500  0.310800  1
  O  O822  1  0.269900  0.020500  0.435200  1
  O  O823  1  0.730100  0.979500  0.564800  1
  O  O824  1  0.301000  0.089000  0.383000  1
  O  O825  1  0.699000  0.911000  0.617000  1
  O  O826  1  0.308000  0.389000  0.258000  1
  O  O827  1  0.692000  0.611000  0.742000  1
  O  O828  1  0.191100  0.239500  0.913200  1
  O  O829  1  0.808900  0.760500  0.086800  1
  O  O830  1  0.196000  0.596600  0.017200  1
  O  O831  1  0.804000  0.403400  0.982800  1
  O  O832  1  0.864000  0.743000  0.353000  1
  O  O833  1  0.136000  0.257000  0.647000  1
  O  O834  1  0.185000  0.066000  0.838000  1
  O  O835  1  0.815000  0.934000  0.162000  1
  O  O836  1  0.129700  0.877200  0.074900  1
  O  O837  1  0.870300  0.122800  0.925100  1
  O  O838  1  0.645400  0.927600  0.357300  1
  O  O839  1  0.354600  0.072400  0.642700  1
  O  O840  1  0.119000  0.989000  0.216000  1
  O  O841  1  0.881000  0.011000  0.784000  1
  O  O842  1  0.213000  0.875000  0.206000  1
  O  O843  1  0.787000  0.125000  0.794000  1
  O  O844  1  0.021000  0.869000  0.072000  1
  O  O845  1  0.979000  0.131000  0.928000  1
  O  O846  1  0.504100  0.323000  0.718300  1
  O  O847  1  0.495900  0.677000  0.281700  1
  O  O848  1  0.516000  0.908300  0.828000  1
  O  O849  1  0.484000  0.091700  0.172000  1
  O  O850  1  0.284000  0.239000  0.362000  1
  O  O851  1  0.716000  0.761000  0.638000  1
  O  O852  1  0.488000  0.537000  0.984000  1
  O  O853  1  0.512000  0.463000  0.016000  1
  O  O854  1  0.503000  0.725000  0.901000  1
  O  O855  1  0.497000  0.275000  0.099000  1
  O  O856  1  0.337000  0.748900  0.960000  1
  O  O857  1  0.663000  0.251100  0.040000  1
  O  O858  1  0.443000  0.255000  0.742000  1
  O  O859  1  0.557000  0.745000  0.258000  1
  O  O860  1  0.759800  0.749100  0.258500  1
  O  O861  1  0.240200  0.250900  0.741500  1
  O  O862  1  0.955600  0.772600  0.177300  1
  O  O863  1  0.044400  0.227400  0.822700  1
  O  O864  1  0.307900  0.309700  0.159400  1
  O  O865  1  0.692100  0.690300  0.840600  1
  O  O866  1  0.332600  0.143600  0.110100  1
  O  O867  1  0.667400  0.856400  0.889900  1
  O  O868  1  0.459800  0.016800  0.899000  1
  O  O869  1  0.540200  0.983200  0.101000  1
  O  O870  1  0.374500  0.966400  0.848000  1
  O  O871  1  0.625500  0.033600  0.152000  1
  O  O872  1  0.563000  0.850000  0.719000  1
  O  O873  1  0.437000  0.150000  0.281000  1
  O  O874  1  0.587400  0.328200  0.793000  1
  O  O875  1  0.412600  0.671800  0.207000  1
  O  O876  1  0.410000  0.709000  0.025000  1
  O  O877  1  0.590000  0.291000  0.975000  1
  O  O878  1  0.445900  0.781800  0.048700  1
  O  O879  1  0.554100  0.218200  0.951300  1
  O  O880  1  0.756200  0.692900  0.593300  1
  O  O881  1  0.243800  0.307100  0.406700  1
  O  O882  1  0.321400  0.084300  0.828900  1
  O  O883  1  0.678600  0.915700  0.171100  1
  O  O884  1  0.116000  0.250000  0.854000  1
  O  O885  1  0.884000  0.750000  0.146000  1
  O  O886  1  0.641000  0.155000  0.774000  1
  O  O887  1  0.359000  0.845000  0.226000  1
  O  O888  1  0.311000  0.217000  0.159000  1
  O  O889  1  0.689000  0.783000  0.841000  1
  O  O890  1  0.290000  0.187000  0.240000  1
  O  O891  1  0.710000  0.813000  0.760000  1
  O  O892  1  0.300000  0.103000  0.274000  1
  O  O893  1  0.700000  0.897000  0.726000  1
  O  O894  1  0.372000  0.876000  0.054000  1
  O  O895  1  0.628000  0.124000  0.946000  1
  O  O896  1  0.038400  0.268300  0.932900  1
  O  O897  1  0.961600  0.731700  0.067100  1
  O  O898  1  0.403000  0.002000  0.111000  1
  O  O899  1  0.597000  0.998000  0.889000  1
  O  O900  1  0.038000  0.825200  0.988600  1
  O  O901  1  0.962000  0.174800  0.011400  1
  O  O902  1  0.206000  0.955000  0.241000  1
  O  O903  1  0.794000  0.045000  0.759000  1
  O  O904  1  0.715000  0.770000  0.357000  1
  O  O905  1  0.285000  0.230000  0.643000  1
  O  O906  1  0.158000  0.789700  0.916000  1
  O  O907  1  0.842000  0.210300  0.084000  1
  O  O908  1  0.222000  0.930500  0.854000  1
  O  O909  1  0.778000  0.069500  0.146000  1
  O  O910  1  0.958600  0.993900  0.066800  1
  O  O911  1  0.041400  0.006100  0.933200  1
  O  O912  1  0.542800  0.177000  0.777600  1
  O  O913  1  0.457200  0.823000  0.222400  1
  O  O914  1  0.342000  0.199000  0.837000  1
  O  O915  1  0.658000  0.801000  0.163000  1
  O  O916  1  0.892000  0.554700  0.986000  1
  O  O917  1  0.108000  0.445300  0.014000  1
  O  O918  1  0.257800  0.055200  0.349900  1
  O  O919  1  0.742200  0.944800  0.650100  1
  F  F920  1  0.910600  0.369600  0.215400  1
  F  F921  1  0.089400  0.630400  0.784600  1
  F  F922  1  0.012600  0.355700  0.162300  1
  F  F923  1  0.987400  0.644300  0.837700  1
  F  F924  1  0.905300  0.482100  0.216800  1
  F  F925  1  0.094700  0.517900  0.783200  1
  F  F926  1  0.008200  0.462500  0.163300  1
  F  F927  1  0.991800  0.537500  0.836700  1
  F  F928  1  0.996200  0.459200  0.260900  1
  F  F929  1  0.003800  0.540800  0.739100  1
  F  F930  1  0.015600  0.365800  0.265100  1
  F  F931  1  0.984400  0.634200  0.734900  1
  F  F932  1  0.922100  0.414000  0.315900  1
  F  F933  1  0.077900  0.586000  0.684100  1
  F  F934  1  0.860700  0.453000  0.511800  1
  F  F935  1  0.139300  0.547000  0.488200  1
  F  F936  1  0.886900  0.467100  0.410500  1
  F  F937  1  0.113100  0.532900  0.589500  1
  F  F938  1  0.957100  0.358800  0.509800  1
  F  F939  1  0.042900  0.641200  0.490200  1
  F  F940  1  0.985500  0.366000  0.410900  1
  F  F941  1  0.014500  0.634000  0.589100  1
  F  F942  1  0.820700  0.381300  0.508200  1
  F  F943  1  0.179300  0.618700  0.491800  1
  F  F944  1  0.889300  0.294600  0.516600  1
  F  F945  1  0.110700  0.705400  0.483400  1
  F  F946  1  0.881900  0.349700  0.426600  1
  F  F947  1  0.118100  0.650300  0.573400  1
  F  F948  1  0.652200  0.365500  0.445900  1
  F  F949  1  0.347800  0.634500  0.554100  1
  F  F950  1  0.709200  0.372500  0.483600  1
  F  F951  1  0.290800  0.627500  0.516400  1
  F  F952  1  0.722900  0.478500  0.396600  1
  F  F953  1  0.277100  0.521500  0.603400  1
  F  F954  1  0.667900  0.466700  0.357800  1
  F  F955  1  0.332100  0.533300  0.642200  1
  F  F956  1  0.819700  0.391500  0.345400  1
  F  F957  1  0.180300  0.608500  0.654600  1
  F  F958  1  0.758800  0.358300  0.335400  1
  F  F959  1  0.241200  0.641700  0.664600  1
  F  F960  1  0.776100  0.443300  0.277100  1
  F  F961  1  0.223900  0.556700  0.722900  1
  F  F962  1  0.991800  0.138000  0.366400  1
  F  F963  1  0.008200  0.862000  0.633600  1
  F  F964  1  0.986200  0.207200  0.401200  1
  F  F965  1  0.013800  0.792800  0.598800  1
  F  F966  1  0.865100  0.141300  0.445600  1
  F  F967  1  0.134900  0.858700  0.554400  1
  F  F968  1  0.857300  0.211600  0.479100  1
  F  F969  1  0.142700  0.788400  0.520900  1
