
#######################################################################
#
#                 Cambridge Crystallographic Data Centre
#                                CCDC 
#
#######################################################################
#
# If this CIF has been generated from an entry in the Cambridge 
# Structural Database, then it will include bibliographic, chemical, 
# crystal, experimental, refinement or atomic coordinate data resulting 
# from the CCDC's data processing and validation procedures.
#
#######################################################################

data_AJENIO
_chemical_formula_moiety         
'C108 H144 N36 Pd6 8+,4(C6 F5 I1),2.62(H3 O1 1+),10.62(N1 O3 1-),50.57(H2 O1)'
_chemical_name_systematic        
"tetrakis(\m-2,4,6-tri(pyridin-4-yl)-1,3,5-triazine)-hexakis(\m-N,N,N',N'-tetramethylethane-1,2-diamine)-hexa-palladium oxonium nitrate 1,2,3,4,5-pentafluoro-6-iodobenzene hydrate"
_symmetry_cell_setting           tetragonal
_symmetry_space_group_name_H-M   'I 41/a'
_symmetry_Int_Tables_number      88
_space_group_name_Hall           '-I 4ad'
loop_
_symmetry_equiv_pos_site_id
_symmetry_equiv_pos_as_xyz
1 x,y,z
2 1/2-x,-y,1/2+z
3 3/4-y,1/4+x,1/4+z
4 3/4+y,3/4-x,3/4+z
5 1/2+x,1/2+y,1/2+z
6 -x,1/2-y,z
7 1/4-y,3/4+x,3/4+z
8 1/4+y,1/4-x,1/4+z
9 -x,-y,-z
10 1/2+x,y,1/2-z
11 1/4+y,3/4-x,3/4-z
12 1/4-y,1/4+x,1/4-z
13 1/2-x,1/2-y,1/2-z
14 x,1/2+y,-z
15 3/4+y,1/4-x,1/4-z
16 3/4-y,3/4+x,3/4-z
_cell_length_a                   26.992(2)
_cell_length_b                   26.992(2)
_cell_length_c                   30.755(3)
_cell_angle_alpha                90
_cell_angle_beta                 90
_cell_angle_gamma                90
_cell_volume                     22407.1
_exptl_crystal_colour            colorless
_exptl_crystal_description       block
_cell_formula_units_Z            4
loop_
_atom_site_label
_atom_site_type_symbol
_atom_site_fract_x
_atom_site_fract_y
_atom_site_fract_z
C1 C 0.3584(3) 0.4703(3) 0.3103(2)
H1 H 0.3259 0.4610 0.3015
C2 C 0.6731(3) 0.4714(2) 0.3538(2)
H2 H 0.6769 0.4924 0.3784
C3 C 0.7073(2) 0.4167(3) 0.3048(2)
H3 H 0.7354 0.3991 0.2944
C4 C 0.6630(2) 0.4112(3) 0.2834(2)
H4 H 0.6604 0.3899 0.2589
C5 C 0.4678(2) 0.3198(3) 0.1376(2)
H5 H 0.4358 0.3115 0.1271
C6 C 0.4095(3) 0.5133(3) 0.3573(2)
H6 H 0.4133 0.5349 0.3816
C7 C 0.4514(3) 0.4951(3) 0.3367(2)
H7 H 0.4835 0.5039 0.3468
C8 C 0.4458(2) 0.4638(2) 0.3013(2)
C9 C 0.3984(2) 0.4516(3) 0.2882(2)
H8 H 0.3935 0.4303 0.2640
C10 C 0.4890(2) 0.4433(2) 0.2797(2)
C11 C 0.2268(5) 0.5976(5) 0.3852(4)
H9 H 0.2012 0.5876 0.3639
H10 H 0.2109 0.6206 0.4060
C12 C 0.6275(2) 0.4684(3) 0.3341(2)
H11 H 0.6004 0.4873 0.3447
C13 C 0.6218(2) 0.4375(2) 0.2984(2)
C14 C 0.5724(2) 0.4308(2) 0.2774(2)
C15 C 0.4719(3) 0.3510(3) 0.1725(2)
H12 H 0.4431 0.3643 0.1857
C16 C 0.5185(2) 0.3628(3) 0.1886(2)
C17 C 0.5598(2) 0.3437(3) 0.1678(2)
H13 H 0.5922 0.3519 0.1776
C18 C 0.5533(2) 0.3124(3) 0.1324(2)
H14 H 0.5816 0.2988 0.1184
C19 C 0.5238(2) 0.3952(2) 0.2273(2)
C20 C 0.4401(4) 0.1819(5) 0.0173(4)
H15 H 0.4316 0.1636 0.0438
H16 H 0.4361 0.1601 -0.0080
H17 H 0.4182 0.2106 0.0143
C21 C 0.2009(4) 0.5180(6) 0.4114(6)
H18 H 0.2141 0.4851 0.4186
H19 H 0.1839 0.5165 0.3833
H20 H 0.1774 0.5283 0.4340
C22 C 0.2546(4) 0.5661(4) 0.4543(3)
H21 H 0.2601 0.5355 0.4707
H22 H 0.2273 0.5847 0.4675
H23 H 0.2848 0.5862 0.4548
C23 C 0.2928(6) 0.5847(4) 0.2962(3)
H24 H 0.2598 0.5702 0.2922
H25 H 0.3179 0.5618 0.2848
H26 H 0.2947 0.6162 0.2804
C24 C 0.3469(4) 0.6226(3) 0.3490(4)
H27 H 0.3550 0.6245 0.3801
H28 H 0.3417 0.6561 0.3376
H29 H 0.3743 0.6068 0.3334
C25 C 0.2615(4) 0.6227(4) 0.3638(5)
H30 H 0.2769 0.6464 0.3844
H31 H 0.2451 0.6424 0.3409
C26 C 0.5086(6) 0.2241(5) -0.0204(3)
H32 H 0.5452 0.2233 -0.0223
H33 H 0.4950 0.2066 -0.0460
C27 C 0.5244(5) 0.1547(5) 0.0265(4)
H34 H 0.5592 0.1650 0.0271
H35 H 0.5192 0.1312 0.0026
H36 H 0.5158 0.1388 0.0541
N1 N 0.4923(3) 0.1989(3) 0.0199(2)
N2 N 0.5080(2) 0.3007(2) 0.11746(18)
N3 N 0.3018(2) 0.5935(2) 0.3432(2)
N4 N 0.2419(2) 0.5539(2) 0.40902(19)
N5 N 0.7122(2) 0.4458(2) 0.33972(17)
N6 N 0.3638(2) 0.50144(19) 0.34394(17)
N7 N 0.4827(2) 0.4143(2) 0.24409(19)
N8 N 0.5343(2) 0.4530(2) 0.29672(19)
N9 N 0.5698(2) 0.4012(2) 0.24317(19)
Pd1 Pd 0.30314(2) 0.52713(2) 0.37651(2)
Pd2 Pd 0.5000 0.2500 0.06893(2)
C20E C 0.5599(4) 0.3181(5) 0.0173(4)
H15E H 0.5684 0.3364 0.0438
H16E H 0.5639 0.3399 -0.0080
H17E H 0.5818 0.2894 0.0143
C26E C 0.4914(6) 0.2759(5) -0.0204(3)
H32E H 0.4548 0.2767 -0.0223
H33E H 0.5050 0.2934 -0.0460
C27E C 0.4756(5) 0.3453(5) 0.0265(4)
H34E H 0.4408 0.3350 0.0271
H35E H 0.4808 0.3688 0.0026
H36E H 0.4842 0.3612 0.0541
N1E N 0.5077(3) 0.3011(3) 0.0199(2)
C1E C 0.6416(3) 0.0297(3) 0.3103(2)
H1E H 0.6741 0.0390 0.3015
C2E C 0.3269(3) 0.0286(2) 0.3538(2)
H2E H 0.3231 0.0076 0.3784
C3E C 0.2927(2) 0.0833(3) 0.3048(2)
H3E H 0.2646 0.1009 0.2944
C4E C 0.3370(2) 0.0888(3) 0.2834(2)
H4E H 0.3396 0.1101 0.2589
C5E C 0.5322(2) 0.1802(3) 0.1376(2)
H5E H 0.5642 0.1885 0.1271
C6E C 0.5905(3) -0.0133(3) 0.3573(2)
H6E H 0.5867 -0.0349 0.3816
C7E C 0.5486(3) 0.0049(3) 0.3367(2)
H7E H 0.5165 -0.0039 0.3468
C8E C 0.5542(2) 0.0362(2) 0.3013(2)
C9E C 0.6016(2) 0.0484(3) 0.2882(2)
H8E H 0.6065 0.0697 0.2640
C10E C 0.5110(2) 0.0567(2) 0.2797(2)
C11E C 0.7732(5) -0.0976(5) 0.3852(4)
H9E H 0.7988 -0.0876 0.3639
H10E H 0.7891 -0.1206 0.4060
C12E C 0.3725(2) 0.0316(3) 0.3341(2)
H11E H 0.3996 0.0127 0.3447
C13E C 0.3782(2) 0.0625(2) 0.2984(2)
C14E C 0.4276(2) 0.0692(2) 0.2774(2)
C15E C 0.5281(3) 0.1490(3) 0.1725(2)
H12E H 0.5569 0.1357 0.1857
C16E C 0.4815(2) 0.1372(3) 0.1886(2)
C17E C 0.4402(2) 0.1563(3) 0.1678(2)
H13E H 0.4078 0.1481 0.1776
C18E C 0.4467(2) 0.1876(3) 0.1324(2)
H14E H 0.4184 0.2012 0.1184
C19E C 0.4762(2) 0.1048(2) 0.2273(2)
C21E C 0.7991(4) -0.0180(6) 0.4114(6)
H18E H 0.7859 0.0149 0.4186
H19E H 0.8161 -0.0165 0.3833
H20E H 0.8226 -0.0283 0.4340
C22E C 0.7454(4) -0.0661(4) 0.4543(3)
H21E H 0.7399 -0.0355 0.4707
H22E H 0.7727 -0.0847 0.4675
H23E H 0.7152 -0.0862 0.4548
C23E C 0.7072(6) -0.0847(4) 0.2962(3)
H24E H 0.7402 -0.0702 0.2922
H25E H 0.6821 -0.0618 0.2848
H26E H 0.7053 -0.1162 0.2804
C24E C 0.6531(4) -0.1226(3) 0.3490(4)
H27E H 0.6450 -0.1245 0.3801
H28E H 0.6583 -0.1561 0.3376
H29E H 0.6257 -0.1068 0.3334
C25E C 0.7385(4) -0.1227(4) 0.3638(5)
H30E H 0.7231 -0.1464 0.3844
H31E H 0.7549 -0.1424 0.3409
N2E N 0.4920(2) 0.1993(2) 0.11746(18)
N3E N 0.6982(2) -0.0935(2) 0.3432(2)
N4E N 0.7581(2) -0.0539(2) 0.40902(19)
N5E N 0.2878(2) 0.0542(2) 0.33972(17)
N6E N 0.6362(2) -0.00144(19) 0.34394(17)
N7E N 0.5173(2) 0.0857(2) 0.24409(19)
N8E N 0.4657(2) 0.0470(2) 0.29672(19)
N9E N 0.4302(2) 0.0988(2) 0.24317(19)
Pd1E Pd 0.69686(2) -0.02713(2) 0.37651(2)
C1J C 0.7203(3) 0.3916(3) 0.4397(2)
H1J H 0.7110 0.4241 0.4485
C2J C 0.7214(2) 0.0769(3) 0.3962(2)
H2J H 0.7424 0.0731 0.3716
C3J C 0.6667(3) 0.0427(2) 0.4452(2)
H3J H 0.6491 0.0146 0.4556
C4J C 0.6612(3) 0.0870(2) 0.4666(2)
H4J H 0.6399 0.0896 0.4911
C5J C 0.5698(3) 0.2822(2) 0.6124(2)
H5J H 0.5615 0.3142 0.6229
C6J C 0.7633(3) 0.3405(3) 0.3927(2)
H6J H 0.7849 0.3367 0.3684
C7J C 0.7451(3) 0.2986(3) 0.4133(2)
H7J H 0.7539 0.2665 0.4032
C8J C 0.7138(2) 0.3042(2) 0.4487(2)
C9J C 0.7016(3) 0.3516(2) 0.4618(2)
H8J H 0.6803 0.3565 0.4860
C10J C 0.6933(2) 0.2610(2) 0.4703(2)
C11J C 0.8476(5) 0.5232(5) 0.3648(4)
H9J H 0.8376 0.5488 0.3861
H10J H 0.8706 0.5391 0.3440
C12J C 0.7184(3) 0.1225(2) 0.4159(2)
H11J H 0.7373 0.1496 0.4053
C13J C 0.6875(2) 0.1282(2) 0.4516(2)
C14J C 0.6808(2) 0.1776(2) 0.4726(2)
C15J C 0.6010(3) 0.2781(3) 0.5775(2)
H12J H 0.6143 0.3069 0.5643
C16J C 0.6128(3) 0.2315(2) 0.5614(2)
C17J C 0.5937(3) 0.1902(2) 0.5822(2)
H13J H 0.6019 0.1578 0.5724
C18J C 0.5624(3) 0.1967(2) 0.6176(2)
H14J H 0.5488 0.1684 0.6316
C19J C 0.6452(2) 0.2262(2) 0.5227(2)
C20J C 0.4319(5) 0.3099(4) 0.7327(4)
H15J H 0.4136 0.3184 0.7062
H16J H 0.4101 0.3139 0.7580
H17J H 0.4606 0.3318 0.7357
C21J C 0.7680(6) 0.5491(4) 0.3386(6)
H18J H 0.7351 0.5359 0.3314
H19J H 0.7665 0.5661 0.3667
H20J H 0.7783 0.5726 0.3160
C22J C 0.8161(4) 0.4954(4) 0.2957(3)
H21J H 0.7855 0.4899 0.2793
H22J H 0.8347 0.5227 0.2825
H23J H 0.8362 0.4652 0.2952
C23J C 0.8347(4) 0.4572(6) 0.4538(3)
H24J H 0.8202 0.4902 0.4578
H25J H 0.8118 0.4321 0.4652
H26J H 0.8662 0.4553 0.4696
C24J C 0.8726(3) 0.4031(4) 0.4010(4)
H27J H 0.8745 0.3950 0.3699
H28J H 0.9061 0.4083 0.4124
H29J H 0.8568 0.3757 0.4166
C25J C 0.8727(4) 0.4885(4) 0.3862(5)
H30J H 0.8964 0.4731 0.3656
H31J H 0.8924 0.5049 0.4091
C26J C 0.4741(5) 0.2414(6) 0.7704(3)
H32J H 0.4733 0.2048 0.7723
H33J H 0.4566 0.2550 0.7960
C27J C 0.4047(5) 0.2256(5) 0.7235(4)
H34J H 0.4150 0.1908 0.7229
H35J H 0.3812 0.2308 0.7474
H36J H 0.3888 0.2342 0.6959
N1J N 0.4489(3) 0.2577(3) 0.7301(2)
N2J N 0.5507(2) 0.2420(2) 0.63254(18)
N3J N 0.8435(2) 0.4482(2) 0.4068(2)
N4J N 0.8039(2) 0.5081(2) 0.34098(19)
N5J N 0.6958(2) 0.0378(2) 0.41028(17)
N6J N 0.75144(19) 0.3862(2) 0.40606(17)
N7J N 0.6643(2) 0.2673(2) 0.50591(19)
N8J N 0.7030(2) 0.2157(2) 0.45328(19)
N9J N 0.6512(2) 0.1802(2) 0.50683(19)
Pd1J Pd 0.77713(2) 0.44686(2) 0.37349(2)
Pd2J Pd 0.5000 0.2500 0.68107(2)
C20O C 0.5681(5) 0.1901(4) 0.7327(4)
H15O H 0.5864 0.1816 0.7062
H16O H 0.5899 0.1861 0.7580
H17O H 0.5394 0.1682 0.7357
C26O C 0.5259(5) 0.2586(6) 0.7704(3)
H32O H 0.5267 0.2952 0.7723
H33O H 0.5434 0.2450 0.7960
C27O C 0.5953(5) 0.2744(5) 0.7235(4)
H34O H 0.5850 0.3092 0.7229
H35O H 0.6188 0.2692 0.7474
H36O H 0.6112 0.2658 0.6959
N1O N 0.5511(3) 0.2423(3) 0.7301(2)
C1O C 0.2797(3) 0.1084(3) 0.4397(2)
H1O H 0.2890 0.0759 0.4485
C2O C 0.2786(2) 0.4231(3) 0.3962(2)
H2O H 0.2576 0.4269 0.3716
C3O C 0.3333(3) 0.4573(2) 0.4452(2)
H3O H 0.3509 0.4854 0.4556
C4O C 0.3388(3) 0.4130(2) 0.4666(2)
H4O H 0.3601 0.4104 0.4911
C5O C 0.4302(3) 0.2178(2) 0.6124(2)
H5O H 0.4385 0.1858 0.6229
C6O C 0.2367(3) 0.1595(3) 0.3927(2)
H6O H 0.2151 0.1633 0.3684
C7O C 0.2549(3) 0.2014(3) 0.4133(2)
H7O H 0.2461 0.2335 0.4032
C8O C 0.2862(2) 0.1958(2) 0.4487(2)
C9O C 0.2984(3) 0.1484(2) 0.4618(2)
H8O H 0.3197 0.1435 0.4860
C10O C 0.3067(2) 0.2390(2) 0.4703(2)
C11O C 0.1524(5) -0.0232(5) 0.3648(4)
H9O H 0.1624 -0.0488 0.3861
H10O H 0.1294 -0.0391 0.3440
C12O C 0.2816(3) 0.3775(2) 0.4159(2)
H11O H 0.2627 0.3504 0.4053
C13O C 0.3125(2) 0.3718(2) 0.4516(2)
C14O C 0.3192(2) 0.3224(2) 0.4726(2)
C15O C 0.3990(3) 0.2219(3) 0.5775(2)
H12O H 0.3857 0.1931 0.5643
C16O C 0.3872(3) 0.2685(2) 0.5614(2)
C17O C 0.4063(3) 0.3098(2) 0.5822(2)
H13O H 0.3981 0.3422 0.5724
C18O C 0.4376(3) 0.3033(2) 0.6176(2)
H14O H 0.4512 0.3316 0.6316
C19O C 0.3548(2) 0.2738(2) 0.5227(2)
C21O C 0.2320(6) -0.0491(4) 0.3386(6)
H18O H 0.2649 -0.0359 0.3314
H19O H 0.2335 -0.0661 0.3667
H20O H 0.2217 -0.0726 0.3160
C22O C 0.1839(4) 0.0046(4) 0.2957(3)
H21O H 0.2145 0.0101 0.2793
H22O H 0.1653 -0.0227 0.2825
H23O H 0.1638 0.0348 0.2952
C23O C 0.1653(4) 0.0428(6) 0.4538(3)
H24O H 0.1798 0.0098 0.4578
H25O H 0.1882 0.0679 0.4652
H26O H 0.1338 0.0447 0.4696
C24O C 0.1274(3) 0.0969(4) 0.4010(4)
H27O H 0.1255 0.1050 0.3699
H28O H 0.0939 0.0917 0.4124
H29O H 0.1432 0.1243 0.4166
C25O C 0.1273(4) 0.0115(4) 0.3862(5)
H30O H 0.1036 0.0269 0.3656
H31O H 0.1076 -0.0049 0.4091
N2O N 0.4493(2) 0.2580(2) 0.63254(18)
N3O N 0.1565(2) 0.0518(2) 0.4068(2)
N4O N 0.1961(2) -0.0081(2) 0.34098(19)
N5O N 0.3042(2) 0.4622(2) 0.41028(17)
N6O N 0.24856(19) 0.1138(2) 0.40606(17)
N7O N 0.3357(2) 0.2327(2) 0.50591(19)
N8O N 0.2970(2) 0.2843(2) 0.45328(19)
N9O N 0.3488(2) 0.3198(2) 0.50683(19)
Pd1O Pd 0.22287(2) 0.05314(2) 0.37349(2)
I1 I 0.47779(5) 0.44795(6) 0.46254(5)
C28 C 0.5200(3) 0.3845(3) 0.4499(3)
C29 C 0.5182(4) 0.3421(4) 0.4738(4)
C30 C 0.5488(7) 0.3022(5) 0.4629(6)
C31 C 0.5787(5) 0.3055(4) 0.4261(4)
C32 C 0.5812(4) 0.3479(4) 0.4021(3)
C33 C 0.5526(7) 0.3873(5) 0.4142(6)
F1 F 0.4889(6) 0.3394(6) 0.5093(4)
F2 F 0.5425(7) 0.2609(5) 0.4843(5)
F3 F 0.6066(5) 0.2673(4) 0.4146(4)
F4 F 0.6143(7) 0.3560(6) 0.3694(6)
F5 F 0.5503(9) 0.4283(7) 0.3911(8)
O1 O 0.5138(12) 0.4021(14) 0.5995(8)
O2 O 0.416(2) 0.4398(11) 0.5981(19)
O3 O 0.3842(12) 0.5029(16) 0.5479(8)
N10 N 0.6069(5) 0.4267(5) 0.5247(5)
O4 O 0.5760(16) 0.4552(12) 0.5411(11)
O5 O 0.6273(5) 0.4376(5) 0.4896(4)
O6 O 0.6208(8) 0.3905(8) 0.5455(9)
O7 O 0.0079(12) 0.4395(8) 0.4078(10)
O8 O 0.0856(14) 0.6609(14) 0.3740(11)
O9 O 0.2541(15) 0.7412(10) 0.3975(13)
N11 N 0.1835(10) 0.7013(8) 0.4846(8)
O10 O 0.2087(11) 0.6903(10) 0.4501(8)
O11 O 0.1930(8) 0.7442(7) 0.4994(7)
O12 O 0.1660(5) 0.6686(5) 0.5049(5)
O13 O 0.2499(13) 0.7953(13) 0.4275(11)
O14 O 0.088(2) 0.7532(14) 0.3921(12)
O15 O 0.2004(19) 0.6543(18) 0.1764(16)
O16 O 0.2937(7) 0.7008(7) 0.2503(6)
O17 O 0.1182(14) 0.5943(13) 0.1638(11)
O18 O 0.1512(7) 0.6481(8) 0.3125(7)
O19 O 0.1548(13) 0.5866(13) 0.2375(11)
N12 N 0.2772(9) 0.4430(9) 0.5544(13)
O20 O 0.3126(8) 0.4249(6) 0.5745(6)
O21 O 0.2790(6) 0.4874(6) 0.5438(8)
O22 O 0.241(4) 0.417(2) 0.544(7)
O23 O 0.1174(9) 0.6183(9) 0.4470(7)
O24 O 0.1229(4) 0.7252(4) 0.5747(4)
I2? I 0.60181(6) 0.32559(8) 0.37404(5)
C34? C 0.5531(3) 0.3475(4) 0.4220(3)
C35? C 0.5306(5) 0.3936(5) 0.4189(4)
C36? C 0.4967(7) 0.4096(5) 0.4487(5)
C37? C 0.4864(6) 0.3803(6) 0.4841(5)
C38? C 0.5089(10) 0.3342(7) 0.4893(6)
C39? C 0.5413(11) 0.3176(7) 0.4580(7)
F6? F 0.5439(7) 0.4226(5) 0.3860(5)
F7? F 0.4756(13) 0.4547(9) 0.4428(9)
F8? F 0.4571(5) 0.3979(6) 0.5138(4)
F9? F 0.4979(9) 0.3052(7) 0.5234(6)
F10? F 0.5618(7) 0.2728(6) 0.4620(6)
N13? N 0.5900(7) 0.4161(6) 0.5444(5)
O25? O 0.5759(18) 0.4560(13) 0.5284(14)
O26? O 0.5615(6) 0.3933(5) 0.5693(6)
O27? O 0.6336(8) 0.4035(13) 0.5400(10)
O28? O 0.4740(13) 0.4332(8) 0.6015(7)
O29? O 0.3959(11) 0.4743(10) 0.5577(13)
O30? O 0.2109(19) 0.7667(19) 0.4647(17)
O31? O 0.2729(13) 0.8362(13) 0.3971(12)
O32? O 0.177(2) 0.672(2) 0.1597(17)
O33? O 0.0714(9) 0.5816(9) 0.1859(8)
O34? O 0.1667(16) 0.6130(19) 0.127(3)
O35? O 0.1720(19) 0.7109(19) 0.3211(17)
O36? O 0.0977(15) 0.5651(15) 0.2501(13)
O37? O 0.1982(12) 0.6925(12) 0.2518(10)
N14? N 0.2652(17) 0.4490(8) 0.5394(11)
O38? O 0.2294(11) 0.4521(10) 0.5053(8)
O39? O 0.286(2) 0.4880(17) 0.5482(13)
O40? O 0.256(6) 0.404(4) 0.548(9)
O41? O 0.1084(8) 0.5978(8) 0.4519(7)
O42? O 0.1328(19) 0.7193(19) 0.5481(18)
loop_
_geom_bond_atom_site_label_1
_geom_bond_atom_site_label_2
_geom_bond_site_symmetry_1
_geom_bond_site_symmetry_2
C1 H1 1_555 1_555
C2 H2 1_555 1_555
C3 H3 1_555 1_555
C4 C3 1_555 1_555
H4 C4 1_555 1_555
C5 H5 1_555 1_555
C6 H6 1_555 1_555
C7 C6 1_555 1_555
H7 C7 1_555 1_555
C8 C7 1_555 1_555
C9 C1 1_555 1_555
H8 C9 1_555 1_555
C10 C8 1_555 1_555
C11 H9 1_555 1_555
H10 C11 1_555 1_555
C12 C2 1_555 1_555
H11 C12 1_555 1_555
C13 C4 1_555 1_555
C14 C13 1_555 1_555
C15 C5 1_555 1_555
H12 C15 1_555 1_555
C16 C15 1_555 1_555
C17 C16 1_555 1_555
H13 C17 1_555 1_555
C18 C17 1_555 1_555
H14 C18 1_555 1_555
C19 C16 1_555 1_555
C20 H15 1_555 1_555
H16 C20 1_555 1_555
H17 C20 1_555 1_555
C21 H18 1_555 1_555
H19 C21 1_555 1_555
H20 C21 1_555 1_555
C22 H21 1_555 1_555
H22 C22 1_555 1_555
H23 C22 1_555 1_555
C23 H24 1_555 1_555
H25 C23 1_555 1_555
H26 C23 1_555 1_555
C24 H27 1_555 1_555
H28 C24 1_555 1_555
H29 C24 1_555 1_555
C25 C11 1_555 1_555
H30 C25 1_555 1_555
H31 C25 1_555 1_555
C26 H32 1_555 1_555
H33 C26 1_555 1_555
C27 H34 1_555 1_555
H35 C27 1_555 1_555
H36 C27 1_555 1_555
N1 C20 1_555 1_555
N2 C5 1_555 1_555
N3 C23 1_555 1_555
N4 C11 1_555 1_555
N5 C2 1_555 1_555
N6 C1 1_555 1_555
N7 C10 1_555 1_555
N8 C10 1_555 1_555
N9 C14 1_555 1_555
Pd1 N3 1_555 1_555
Pd2 N1 1_555 1_555
I1 C28 1_555 1_555
C28 C29 1_555 1_555
C29 C30 1_555 1_555
C30 C31 1_555 1_555
C31 C32 1_555 1_555
C32 C33 1_555 1_555
C33 C28 1_555 1_555
F1 C29 1_555 1_555
F2 C30 1_555 1_555
F3 C31 1_555 1_555
F4 C32 1_555 1_555
F5 C33 1_555 1_555
N10 O4 1_555 1_555
O5 N10 1_555 1_555
O6 N10 1_555 1_555
N11 O10 1_555 1_555
O11 N11 1_555 1_555
O12 N11 1_555 1_555
N12 O20 1_555 1_555
O21 N12 1_555 1_555
O22 N12 1_555 1_555
C20E H15E 1_555 1_555
H16E C20E 1_555 1_555
H17E C20E 1_555 1_555
C26E C26 1_555 1_555
H32E C26E 1_555 1_555
H33E C26E 1_555 1_555
C27E H34E 1_555 1_555
H35E C27E 1_555 1_555
H36E C27E 1_555 1_555
N1E Pd2 1_555 1_555
C1E H1E 1_555 1_555
C2E H2E 1_555 1_555
C3E H3E 1_555 1_555
C4E C3E 1_555 1_555
H4E C4E 1_555 1_555
C5E H5E 1_555 1_555
C6E H6E 1_555 1_555
C7E C6E 1_555 1_555
H7E C7E 1_555 1_555
C8E C7E 1_555 1_555
C9E C1E 1_555 1_555
H8E C9E 1_555 1_555
C10E C8E 1_555 1_555
C11E H9E 1_555 1_555
H10E C11E 1_555 1_555
C12E C2E 1_555 1_555
H11E C12E 1_555 1_555
C13E C4E 1_555 1_555
C14E C13E 1_555 1_555
C15E C5E 1_555 1_555
H12E C15E 1_555 1_555
C16E C15E 1_555 1_555
C17E C16E 1_555 1_555
H13E C17E 1_555 1_555
C18E C17E 1_555 1_555
H14E C18E 1_555 1_555
C19E C16E 1_555 1_555
C21E H18E 1_555 1_555
H19E C21E 1_555 1_555
H20E C21E 1_555 1_555
C22E H21E 1_555 1_555
H22E C22E 1_555 1_555
H23E C22E 1_555 1_555
C23E H24E 1_555 1_555
H25E C23E 1_555 1_555
H26E C23E 1_555 1_555
C24E H27E 1_555 1_555
H28E C24E 1_555 1_555
H29E C24E 1_555 1_555
C25E C11E 1_555 1_555
H30E C25E 1_555 1_555
H31E C25E 1_555 1_555
N2E Pd2 1_555 1_555
N3E C23E 1_555 1_555
N4E C11E 1_555 1_555
N5E C2E 1_555 1_555
N6E C1E 1_555 1_555
N7E C10E 1_555 1_555
N8E C10E 1_555 1_555
N9E C14E 1_555 1_555
Pd1E N3E 1_555 1_555
C1J H1J 1_555 1_555
C2J H2J 1_555 1_555
C3J H3J 1_555 1_555
C4J C3J 1_555 1_555
H4J C4J 1_555 1_555
C5J H5J 1_555 1_555
C6J H6J 1_555 1_555
C7J C6J 1_555 1_555
H7J C7J 1_555 1_555
C8J C7J 1_555 1_555
C9J C1J 1_555 1_555
H8J C9J 1_555 1_555
C10J C8J 1_555 1_555
C11J H9J 1_555 1_555
H10J C11J 1_555 1_555
C12J C2J 1_555 1_555
H11J C12J 1_555 1_555
C13J C4J 1_555 1_555
C14J C13J 1_555 1_555
C15J C5J 1_555 1_555
H12J C15J 1_555 1_555
C16J C15J 1_555 1_555
C17J C16J 1_555 1_555
H13J C17J 1_555 1_555
C18J C17J 1_555 1_555
H14J C18J 1_555 1_555
C19J C16J 1_555 1_555
C20J H15J 1_555 1_555
H16J C20J 1_555 1_555
H17J C20J 1_555 1_555
C21J H18J 1_555 1_555
H19J C21J 1_555 1_555
H20J C21J 1_555 1_555
C22J H21J 1_555 1_555
H22J C22J 1_555 1_555
H23J C22J 1_555 1_555
C23J H24J 1_555 1_555
H25J C23J 1_555 1_555
H26J C23J 1_555 1_555
C24J H27J 1_555 1_555
H28J C24J 1_555 1_555
H29J C24J 1_555 1_555
C25J C11J 1_555 1_555
H30J C25J 1_555 1_555
H31J C25J 1_555 1_555
C26J H32J 1_555 1_555
H33J C26J 1_555 1_555
C27J H34J 1_555 1_555
H35J C27J 1_555 1_555
H36J C27J 1_555 1_555
N1J C20J 1_555 1_555
N2J C5J 1_555 1_555
N3J C23J 1_555 1_555
N4J C11J 1_555 1_555
N5J Pd1E 1_555 1_555
N6J C1J 1_555 1_555
N7J C10J 1_555 1_555
N8J C10J 1_555 1_555
N9J C14J 1_555 1_555
Pd1J N5 1_555 1_555
Pd2J N1J 1_555 1_555
C20O H15O 1_555 1_555
H16O C20O 1_555 1_555
H17O C20O 1_555 1_555
C26O C26J 1_555 1_555
H32O C26O 1_555 1_555
H33O C26O 1_555 1_555
C27O H34O 1_555 1_555
H35O C27O 1_555 1_555
H36O C27O 1_555 1_555
N1O Pd2J 1_555 1_555
C1O H1O 1_555 1_555
C2O H2O 1_555 1_555
C3O H3O 1_555 1_555
C4O C3O 1_555 1_555
H4O C4O 1_555 1_555
C5O H5O 1_555 1_555
C6O H6O 1_555 1_555
C7O C6O 1_555 1_555
H7O C7O 1_555 1_555
C8O C7O 1_555 1_555
C9O C1O 1_555 1_555
H8O C9O 1_555 1_555
C10O C8O 1_555 1_555
C11O H9O 1_555 1_555
H10O C11O 1_555 1_555
C12O C2O 1_555 1_555
H11O C12O 1_555 1_555
C13O C4O 1_555 1_555
C14O C13O 1_555 1_555
C15O C5O 1_555 1_555
H12O C15O 1_555 1_555
C16O C15O 1_555 1_555
C17O C16O 1_555 1_555
H13O C17O 1_555 1_555
C18O C17O 1_555 1_555
H14O C18O 1_555 1_555
C19O C16O 1_555 1_555
C21O H18O 1_555 1_555
H19O C21O 1_555 1_555
H20O C21O 1_555 1_555
C22O H21O 1_555 1_555
H22O C22O 1_555 1_555
H23O C22O 1_555 1_555
C23O H24O 1_555 1_555
H25O C23O 1_555 1_555
H26O C23O 1_555 1_555
C24O H27O 1_555 1_555
H28O C24O 1_555 1_555
H29O C24O 1_555 1_555
C25O C11O 1_555 1_555
H30O C25O 1_555 1_555
H31O C25O 1_555 1_555
N2O Pd2J 1_555 1_555
N3O C23O 1_555 1_555
N4O C11O 1_555 1_555
N5O Pd1 1_555 1_555
N6O C1O 1_555 1_555
N7O C10O 1_555 1_555
N8O C10O 1_555 1_555
N9O C14O 1_555 1_555
Pd1O N5E 1_555 1_555
C3 N5 1_555 1_555
C6 N6 1_555 1_555
C8 C9 1_555 1_555
C12 C13 1_555 1_555
C14 N8 1_555 1_555
C18 N2 1_555 1_555
C19 N7 1_555 1_555
C19 N9 1_555 1_555
C21 N4 1_555 1_555
C22 N4 1_555 1_555
C24 N3 1_555 1_555
C25 N3 1_555 1_555
C26 N1 1_555 1_555
C27 N1 1_555 1_555
N2 Pd2 1_555 1_555
N4 Pd1 1_555 1_555
N6 Pd1 1_555 1_555
C20E N1E 1_555 1_555
C26E N1E 1_555 1_555
C27E N1E 1_555 1_555
C3E N5E 1_555 1_555
C5E N2E 1_555 1_555
C6E N6E 1_555 1_555
C8E C9E 1_555 1_555
C12E C13E 1_555 1_555
C14E N8E 1_555 1_555
C18E N2E 1_555 1_555
C19E N7E 1_555 1_555
C19E N9E 1_555 1_555
C21E N4E 1_555 1_555
C22E N4E 1_555 1_555
C24E N3E 1_555 1_555
C25E N3E 1_555 1_555
N4E Pd1E 1_555 1_555
N6E Pd1E 1_555 1_555
C2J N5J 1_555 1_555
C3J N5J 1_555 1_555
C6J N6J 1_555 1_555
C8J C9J 1_555 1_555
C12J C13J 1_555 1_555
C14J N8J 1_555 1_555
C18J N2J 1_555 1_555
C19J N7J 1_555 1_555
C19J N9J 1_555 1_555
C21J N4J 1_555 1_555
C22J N4J 1_555 1_555
C24J N3J 1_555 1_555
C25J N3J 1_555 1_555
C26J N1J 1_555 1_555
C27J N1J 1_555 1_555
N2J Pd2J 1_555 1_555
N3J Pd1J 1_555 1_555
N4J Pd1J 1_555 1_555
N6J Pd1J 1_555 1_555
C20O N1O 1_555 1_555
C26O N1O 1_555 1_555
C27O N1O 1_555 1_555
C2O N5O 1_555 1_555
C3O N5O 1_555 1_555
C5O N2O 1_555 1_555
C6O N6O 1_555 1_555
C8O C9O 1_555 1_555
C12O C13O 1_555 1_555
C14O N8O 1_555 1_555
C18O N2O 1_555 1_555
C19O N7O 1_555 1_555
C19O N9O 1_555 1_555
C21O N4O 1_555 1_555
C22O N4O 1_555 1_555
C24O N3O 1_555 1_555
C25O N3O 1_555 1_555
N3O Pd1O 1_555 1_555
N4O Pd1O 1_555 1_555
N6O Pd1O 1_555 1_555

#END
