# generated using pymatgen
data_H72Pd3C78I4N28(O21F5)4
_symmetry_space_group_name_H-M   'P 1'
_cell_length_a   26.99200000
_cell_length_b   26.99200000
_cell_length_c   30.75500000
_cell_angle_alpha   90.00000000
_cell_angle_beta   90.00000000
_cell_angle_gamma   90.00000000
_symmetry_Int_Tables_number   1
_chemical_formula_structural   H72Pd3C78I4N28(O21F5)4
_chemical_formula_sum   'H576 Pd24 C624 I32 N224 O672 F160'
_cell_volume   22407.11080832
_cell_formula_units_Z   8
loop_
 _symmetry_equiv_pos_site_id
 _symmetry_equiv_pos_as_xyz
  1  'x, y, z'
loop_
 _atom_site_type_symbol
 _atom_site_label
 _atom_site_symmetry_multiplicity
 _atom_site_fract_x
 _atom_site_fract_y
 _atom_site_fract_z
 _atom_site_occupancy
  H  H1  1  0.325900  0.461000  0.301500  1.0
  H  H2  1  0.174100  0.539000  0.801500  1.0
  H  H3  1  0.289000  0.575900  0.551500  1.0
  H  H4  1  0.211000  0.424100  0.051500  1.0
  H  H5  1  0.825900  0.961000  0.801500  1.0
  H  H6  1  0.674100  0.039000  0.301500  1.0
  H  H7  1  0.789000  0.075900  0.051500  1.0
  H  H8  1  0.711000  0.924100  0.551500  1.0
  H  H9  1  0.674100  0.539000  0.698500  1.0
  H  H10  1  0.825900  0.461000  0.198500  1.0
  H  H11  1  0.711000  0.424100  0.448500  1.0
  H  H12  1  0.789000  0.575900  0.948500  1.0
  H  H13  1  0.174100  0.039000  0.198500  1.0
  H  H14  1  0.325900  0.961000  0.698500  1.0
  H  H15  1  0.211000  0.924100  0.948500  1.0
  H  H16  1  0.289000  0.075900  0.448500  1.0
  H  H17  1  0.676900  0.492400  0.378400  1.0
  H  H18  1  0.823100  0.507600  0.878400  1.0
  H  H19  1  0.257600  0.926900  0.628400  1.0
  H  H20  1  0.242400  0.073100  0.128400  1.0
  H  H21  1  0.176900  0.992400  0.878400  1.0
  H  H22  1  0.323100  0.007600  0.378400  1.0
  H  H23  1  0.757600  0.426900  0.128400  1.0
  H  H24  1  0.742400  0.573100  0.628400  1.0
  H  H25  1  0.323100  0.507600  0.621600  1.0
  H  H26  1  0.176900  0.492400  0.121600  1.0
  H  H27  1  0.742400  0.073100  0.371600  1.0
  H  H28  1  0.757600  0.926900  0.871600  1.0
  H  H29  1  0.823100  0.007600  0.121600  1.0
  H  H30  1  0.676900  0.992400  0.621600  1.0
  H  H31  1  0.242400  0.573100  0.871600  1.0
  H  H32  1  0.257600  0.426900  0.371600  1.0
  H  H33  1  0.735400  0.399100  0.294400  1.0
  H  H34  1  0.764600  0.600900  0.794400  1.0
  H  H35  1  0.350900  0.985400  0.544400  1.0
  H  H36  1  0.149100  0.014600  0.044400  1.0
  H  H37  1  0.235400  0.899100  0.794400  1.0
  H  H38  1  0.264600  0.100900  0.294400  1.0
  H  H39  1  0.850900  0.485400  0.044400  1.0
  H  H40  1  0.649100  0.514600  0.544400  1.0
  H  H41  1  0.264600  0.600900  0.705600  1.0
  H  H42  1  0.235400  0.399100  0.205600  1.0
  H  H43  1  0.649100  0.014600  0.455600  1.0
  H  H44  1  0.850900  0.985400  0.955600  1.0
  H  H45  1  0.764600  0.100900  0.205600  1.0
  H  H46  1  0.735400  0.899100  0.705600  1.0
  H  H47  1  0.149100  0.514600  0.955600  1.0
  H  H48  1  0.350900  0.485400  0.455600  1.0
  H  H49  1  0.660400  0.389900  0.258900  1.0
  H  H50  1  0.839600  0.610100  0.758900  1.0
  H  H51  1  0.360100  0.910400  0.508900  1.0
  H  H52  1  0.139900  0.089600  0.008900  1.0
  H  H53  1  0.160400  0.889900  0.758900  1.0
  H  H54  1  0.339600  0.110100  0.258900  1.0
  H  H55  1  0.860100  0.410400  0.008900  1.0
  H  H56  1  0.639900  0.589600  0.508900  1.0
  H  H57  1  0.339600  0.610100  0.741100  1.0
  H  H58  1  0.160400  0.389900  0.241100  1.0
  H  H59  1  0.639900  0.089600  0.491100  1.0
  H  H60  1  0.860100  0.910400  0.991100  1.0
  H  H61  1  0.839600  0.110100  0.241100  1.0
  H  H62  1  0.660400  0.889900  0.741100  1.0
  H  H63  1  0.139900  0.589600  0.991100  1.0
  H  H64  1  0.360100  0.410400  0.491100  1.0
  H  H65  1  0.435800  0.311500  0.127100  1.0
  H  H66  1  0.064200  0.688500  0.627100  1.0
  H  H67  1  0.438500  0.685800  0.377100  1.0
  H  H68  1  0.061500  0.314200  0.877100  1.0
  H  H69  1  0.935800  0.811500  0.627100  1.0
  H  H70  1  0.564200  0.188500  0.127100  1.0
  H  H71  1  0.938500  0.185800  0.877100  1.0
  H  H72  1  0.561500  0.814200  0.377100  1.0
  H  H73  1  0.564200  0.688500  0.872900  1.0
  H  H74  1  0.935800  0.311500  0.372900  1.0
  H  H75  1  0.561500  0.314200  0.622900  1.0
  H  H76  1  0.938500  0.685800  0.122900  1.0
  H  H77  1  0.064200  0.188500  0.372900  1.0
  H  H78  1  0.435800  0.811500  0.872900  1.0
  H  H79  1  0.061500  0.814200  0.122900  1.0
  H  H80  1  0.438500  0.185800  0.622900  1.0
  H  H81  1  0.413300  0.534900  0.381600  1.0
  H  H82  1  0.086700  0.465100  0.881600  1.0
  H  H83  1  0.215100  0.663300  0.631600  1.0
  H  H84  1  0.284900  0.336700  0.131600  1.0
  H  H85  1  0.913300  0.034900  0.881600  1.0
  H  H86  1  0.586700  0.965100  0.381600  1.0
  H  H87  1  0.715100  0.163300  0.131600  1.0
  H  H88  1  0.784900  0.836700  0.631600  1.0
  H  H89  1  0.586700  0.465100  0.618400  1.0
  H  H90  1  0.913300  0.534900  0.118400  1.0
  H  H91  1  0.784900  0.336700  0.368400  1.0
  H  H92  1  0.715100  0.663300  0.868400  1.0
  H  H93  1  0.086700  0.965100  0.118400  1.0
  H  H94  1  0.413300  0.034900  0.618400  1.0
  H  H95  1  0.284900  0.836700  0.868400  1.0
  H  H96  1  0.215100  0.163300  0.368400  1.0
  H  H97  1  0.483500  0.503900  0.346800  1.0
  H  H98  1  0.016500  0.496100  0.846800  1.0
  H  H99  1  0.246100  0.733500  0.596800  1.0
  H  H100  1  0.253900  0.266500  0.096800  1.0
  H  H101  1  0.983500  0.003900  0.846800  1.0
  H  H102  1  0.516500  0.996100  0.346800  1.0
  H  H103  1  0.746100  0.233500  0.096800  1.0
  H  H104  1  0.753900  0.766500  0.596800  1.0
  H  H105  1  0.516500  0.496100  0.653200  1.0
  H  H106  1  0.983500  0.503900  0.153200  1.0
  H  H107  1  0.753900  0.266500  0.403200  1.0
  H  H108  1  0.746100  0.733500  0.903200  1.0
  H  H109  1  0.016500  0.996100  0.153200  1.0
  H  H110  1  0.483500  0.003900  0.653200  1.0
  H  H111  1  0.253900  0.766500  0.903200  1.0
  H  H112  1  0.246100  0.233500  0.403200  1.0
  H  H113  1  0.393500  0.430300  0.264000  1.0
  H  H114  1  0.106500  0.569700  0.764000  1.0
  H  H115  1  0.319700  0.643500  0.514000  1.0
  H  H116  1  0.180300  0.356500  0.014000  1.0
  H  H117  1  0.893500  0.930300  0.764000  1.0
  H  H118  1  0.606500  0.069700  0.264000  1.0
  H  H119  1  0.819700  0.143500  0.014000  1.0
  H  H120  1  0.680300  0.856500  0.514000  1.0
  H  H121  1  0.606500  0.569700  0.736000  1.0
  H  H122  1  0.893500  0.430300  0.236000  1.0
  H  H123  1  0.680300  0.356500  0.486000  1.0
  H  H124  1  0.819700  0.643500  0.986000  1.0
  H  H125  1  0.106500  0.069700  0.236000  1.0
  H  H126  1  0.393500  0.930300  0.736000  1.0
  H  H127  1  0.180300  0.856500  0.986000  1.0
  H  H128  1  0.319700  0.143500  0.486000  1.0
  H  H129  1  0.201200  0.587600  0.363900  1.0
  H  H130  1  0.298800  0.412400  0.863900  1.0
  H  H131  1  0.162400  0.451200  0.613900  1.0
  H  H132  1  0.337600  0.548800  0.113900  1.0
  H  H133  1  0.701200  0.087600  0.863900  1.0
  H  H134  1  0.798800  0.912400  0.363900  1.0
  H  H135  1  0.662400  0.951200  0.113900  1.0
  H  H136  1  0.837600  0.048800  0.613900  1.0
  H  H137  1  0.798800  0.412400  0.636100  1.0
  H  H138  1  0.701200  0.587600  0.136100  1.0
  H  H139  1  0.837600  0.548800  0.386100  1.0
  H  H140  1  0.662400  0.451200  0.886100  1.0
  H  H141  1  0.298800  0.912400  0.136100  1.0
  H  H142  1  0.201200  0.087600  0.636100  1.0
  H  H143  1  0.337600  0.048800  0.886100  1.0
  H  H144  1  0.162400  0.951200  0.386100  1.0
  H  H145  1  0.210900  0.620600  0.406000  1.0
  H  H146  1  0.289100  0.379400  0.906000  1.0
  H  H147  1  0.129400  0.460900  0.656000  1.0
  H  H148  1  0.370600  0.539100  0.156000  1.0
  H  H149  1  0.710900  0.120600  0.906000  1.0
  H  H150  1  0.789100  0.879400  0.406000  1.0
  H  H151  1  0.629400  0.960900  0.156000  1.0
  H  H152  1  0.870600  0.039100  0.656000  1.0
  H  H153  1  0.789100  0.379400  0.594000  1.0
  H  H154  1  0.710900  0.620600  0.094000  1.0
  H  H155  1  0.870600  0.539100  0.344000  1.0
  H  H156  1  0.629400  0.460900  0.844000  1.0
  H  H157  1  0.289100  0.879400  0.094000  1.0
  H  H158  1  0.210900  0.120600  0.594000  1.0
  H  H159  1  0.370600  0.039100  0.844000  1.0
  H  H160  1  0.129400  0.960900  0.344000  1.0
  H  H161  1  0.600400  0.487300  0.344700  1.0
  H  H162  1  0.899600  0.512700  0.844700  1.0
  H  H163  1  0.262700  0.850400  0.594700  1.0
  H  H164  1  0.237300  0.149600  0.094700  1.0
  H  H165  1  0.100400  0.987300  0.844700  1.0
  H  H166  1  0.399600  0.012700  0.344700  1.0
  H  H167  1  0.762700  0.350400  0.094700  1.0
  H  H168  1  0.737300  0.649600  0.594700  1.0
  H  H169  1  0.399600  0.512700  0.655300  1.0
  H  H170  1  0.100400  0.487300  0.155300  1.0
  H  H171  1  0.737300  0.149600  0.405300  1.0
  H  H172  1  0.762700  0.850400  0.905300  1.0
  H  H173  1  0.899600  0.012700  0.155300  1.0
  H  H174  1  0.600400  0.987300  0.655300  1.0
  H  H175  1  0.237300  0.649600  0.905300  1.0
  H  H176  1  0.262700  0.350400  0.405300  1.0
  H  H177  1  0.443100  0.364300  0.185700  1.0
  H  H178  1  0.056900  0.635700  0.685700  1.0
  H  H179  1  0.385700  0.693100  0.435700  1.0
  H  H180  1  0.114300  0.306900  0.935700  1.0
  H  H181  1  0.943100  0.864300  0.685700  1.0
  H  H182  1  0.556900  0.135700  0.185700  1.0
  H  H183  1  0.885700  0.193100  0.935700  1.0
  H  H184  1  0.614300  0.806900  0.435700  1.0
  H  H185  1  0.556900  0.635700  0.814300  1.0
  H  H186  1  0.943100  0.364300  0.314300  1.0
  H  H187  1  0.614300  0.306900  0.564300  1.0
  H  H188  1  0.885700  0.693100  0.064300  1.0
  H  H189  1  0.056900  0.135700  0.314300  1.0
  H  H190  1  0.443100  0.864300  0.814300  1.0
  H  H191  1  0.114300  0.806900  0.064300  1.0
  H  H192  1  0.385700  0.193100  0.564300  1.0
  H  H193  1  0.592200  0.351900  0.177600  1.0
  H  H194  1  0.907800  0.648100  0.677600  1.0
  H  H195  1  0.398100  0.842200  0.427600  1.0
  H  H196  1  0.101900  0.157800  0.927600  1.0
  H  H197  1  0.092200  0.851900  0.677600  1.0
  H  H198  1  0.407800  0.148100  0.177600  1.0
  H  H199  1  0.898100  0.342200  0.927600  1.0
  H  H200  1  0.601900  0.657800  0.427600  1.0
  H  H201  1  0.407800  0.648100  0.822400  1.0
  H  H202  1  0.092200  0.351900  0.322400  1.0
  H  H203  1  0.601900  0.157800  0.572400  1.0
  H  H204  1  0.898100  0.842200  0.072400  1.0
  H  H205  1  0.907800  0.148100  0.322400  1.0
  H  H206  1  0.592200  0.851900  0.822400  1.0
  H  H207  1  0.101900  0.657800  0.072400  1.0
  H  H208  1  0.398100  0.342200  0.572400  1.0
  H  H209  1  0.581600  0.298800  0.118400  1.0
  H  H210  1  0.918400  0.701200  0.618400  1.0
  H  H211  1  0.451200  0.831600  0.368400  1.0
  H  H212  1  0.048800  0.168400  0.868400  1.0
  H  H213  1  0.081600  0.798800  0.618400  1.0
  H  H214  1  0.418400  0.201200  0.118400  1.0
  H  H215  1  0.951200  0.331600  0.868400  1.0
  H  H216  1  0.548800  0.668400  0.368400  1.0
  H  H217  1  0.418400  0.701200  0.881600  1.0
  H  H218  1  0.081600  0.298800  0.381600  1.0
  H  H219  1  0.548800  0.168400  0.631600  1.0
  H  H220  1  0.951200  0.831600  0.131600  1.0
  H  H221  1  0.918400  0.201200  0.381600  1.0
  H  H222  1  0.581600  0.798800  0.881600  1.0
  H  H223  1  0.048800  0.668400  0.131600  1.0
  H  H224  1  0.451200  0.331600  0.631600  1.0
  H  H225  1  0.431600  0.163600  0.043800  1.0
  H  H226  1  0.068400  0.836400  0.543800  1.0
  H  H227  1  0.586400  0.681600  0.293800  1.0
  H  H228  1  0.913600  0.318400  0.793800  1.0
  H  H229  1  0.931600  0.663600  0.543800  1.0
  H  H230  1  0.568400  0.336400  0.043800  1.0
  H  H231  1  0.086400  0.181600  0.793800  1.0
  H  H232  1  0.413600  0.818400  0.293800  1.0
  H  H233  1  0.568400  0.836400  0.956200  1.0
  H  H234  1  0.931600  0.163600  0.456200  1.0
  H  H235  1  0.413600  0.318400  0.706200  1.0
  H  H236  1  0.086400  0.681600  0.206200  1.0
  H  H237  1  0.068400  0.336400  0.456200  1.0
  H  H238  1  0.431600  0.663600  0.956200  1.0
  H  H239  1  0.913600  0.818400  0.206200  1.0
  H  H240  1  0.586400  0.181600  0.706200  1.0
  H  H241  1  0.436100  0.160100  0.992000  1.0
  H  H242  1  0.063900  0.839900  0.492000  1.0
  H  H243  1  0.589900  0.686100  0.242000  1.0
  H  H244  1  0.910100  0.313900  0.742000  1.0
  H  H245  1  0.936100  0.660100  0.492000  1.0
  H  H246  1  0.563900  0.339900  0.992000  1.0
  H  H247  1  0.089900  0.186100  0.742000  1.0
  H  H248  1  0.410100  0.813900  0.242000  1.0
  H  H249  1  0.563900  0.839900  0.008000  1.0
  H  H250  1  0.936100  0.160100  0.508000  1.0
  H  H251  1  0.410100  0.313900  0.758000  1.0
  H  H252  1  0.089900  0.686100  0.258000  1.0
  H  H253  1  0.063900  0.339900  0.508000  1.0
  H  H254  1  0.436100  0.660100  0.008000  1.0
  H  H255  1  0.910100  0.813900  0.258000  1.0
  H  H256  1  0.589900  0.186100  0.758000  1.0
  H  H257  1  0.418200  0.210600  0.014300  1.0
  H  H258  1  0.081800  0.789400  0.514300  1.0
  H  H259  1  0.539400  0.668200  0.264300  1.0
  H  H260  1  0.960600  0.331800  0.764300  1.0
  H  H261  1  0.918200  0.710600  0.514300  1.0
  H  H262  1  0.581800  0.289400  0.014300  1.0
  H  H263  1  0.039400  0.168200  0.764300  1.0
  H  H264  1  0.460600  0.831800  0.264300  1.0
  H  H265  1  0.581800  0.789400  0.985700  1.0
  H  H266  1  0.918200  0.210600  0.485700  1.0
  H  H267  1  0.460600  0.331800  0.735700  1.0
  H  H268  1  0.039400  0.668200  0.235700  1.0
  H  H269  1  0.081800  0.289400  0.485700  1.0
  H  H270  1  0.418200  0.710600  0.985700  1.0
  H  H271  1  0.960600  0.831800  0.235700  1.0
  H  H272  1  0.539400  0.168200  0.735700  1.0
  H  H273  1  0.214100  0.485100  0.418600  1.0
  H  H274  1  0.285900  0.514900  0.918600  1.0
  H  H275  1  0.264900  0.464100  0.668600  1.0
  H  H276  1  0.235100  0.535900  0.168600  1.0
  H  H277  1  0.714100  0.985100  0.918600  1.0
  H  H278  1  0.785900  0.014900  0.418600  1.0
  H  H279  1  0.764900  0.964100  0.168600  1.0
  H  H280  1  0.735100  0.035900  0.668600  1.0
  H  H281  1  0.785900  0.514900  0.581400  1.0
  H  H282  1  0.714100  0.485100  0.081400  1.0
  H  H283  1  0.735100  0.535900  0.331400  1.0
  H  H284  1  0.764900  0.464100  0.831400  1.0
  H  H285  1  0.285900  0.014900  0.081400  1.0
  H  H286  1  0.214100  0.985100  0.581400  1.0
  H  H287  1  0.235100  0.035900  0.831400  1.0
  H  H288  1  0.264900  0.964100  0.331400  1.0
  H  H289  1  0.183900  0.516500  0.383300  1.0
  H  H290  1  0.316100  0.483500  0.883300  1.0
  H  H291  1  0.233500  0.433900  0.633300  1.0
  H  H292  1  0.266500  0.566100  0.133300  1.0
  H  H293  1  0.683900  0.016500  0.883300  1.0
  H  H294  1  0.816100  0.983500  0.383300  1.0
  H  H295  1  0.733500  0.933900  0.133300  1.0
  H  H296  1  0.766500  0.066100  0.633300  1.0
  H  H297  1  0.816100  0.483500  0.616700  1.0
  H  H298  1  0.683900  0.516500  0.116700  1.0
  H  H299  1  0.766500  0.566100  0.366700  1.0
  H  H300  1  0.733500  0.433900  0.866700  1.0
  H  H301  1  0.316100  0.983500  0.116700  1.0
  H  H302  1  0.183900  0.016500  0.616700  1.0
  H  H303  1  0.266500  0.066100  0.866700  1.0
  H  H304  1  0.233500  0.933900  0.366700  1.0
  H  H305  1  0.177400  0.528300  0.434000  1.0
  H  H306  1  0.322600  0.471700  0.934000  1.0
  H  H307  1  0.221700  0.427400  0.684000  1.0
  H  H308  1  0.278300  0.572600  0.184000  1.0
  H  H309  1  0.677400  0.028300  0.934000  1.0
  H  H310  1  0.822600  0.971700  0.434000  1.0
  H  H311  1  0.721700  0.927400  0.184000  1.0
  H  H312  1  0.778300  0.072600  0.684000  1.0
  H  H313  1  0.822600  0.471700  0.566000  1.0
  H  H314  1  0.677400  0.528300  0.066000  1.0
  H  H315  1  0.778300  0.572600  0.316000  1.0
  H  H316  1  0.721700  0.427400  0.816000  1.0
  H  H317  1  0.322600  0.971700  0.066000  1.0
  H  H318  1  0.177400  0.028300  0.566000  1.0
  H  H319  1  0.278300  0.072600  0.816000  1.0
  H  H320  1  0.221700  0.927400  0.316000  1.0
  H  H321  1  0.260100  0.535500  0.470700  1.0
  H  H322  1  0.239900  0.464500  0.970700  1.0
  H  H323  1  0.214500  0.510100  0.720700  1.0
  H  H324  1  0.285500  0.489900  0.220700  1.0
  H  H325  1  0.760100  0.035500  0.970700  1.0
  H  H326  1  0.739900  0.964500  0.470700  1.0
  H  H327  1  0.714500  0.010100  0.220700  1.0
  H  H328  1  0.785500  0.989900  0.720700  1.0
  H  H329  1  0.739900  0.464500  0.529300  1.0
  H  H330  1  0.760100  0.535500  0.029300  1.0
  H  H331  1  0.785500  0.489900  0.279300  1.0
  H  H332  1  0.714500  0.510100  0.779300  1.0
  H  H333  1  0.239900  0.964500  0.029300  1.0
  H  H334  1  0.260100  0.035500  0.529300  1.0
  H  H335  1  0.285500  0.989900  0.779300  1.0
  H  H336  1  0.214500  0.010100  0.279300  1.0
  H  H337  1  0.227300  0.584700  0.467500  1.0
  H  H338  1  0.272700  0.415300  0.967500  1.0
  H  H339  1  0.165300  0.477300  0.717500  1.0
  H  H340  1  0.334700  0.522700  0.217500  1.0
  H  H341  1  0.727300  0.084700  0.967500  1.0
  H  H342  1  0.772700  0.915300  0.467500  1.0
  H  H343  1  0.665300  0.977300  0.217500  1.0
  H  H344  1  0.834700  0.022700  0.717500  1.0
  H  H345  1  0.772700  0.415300  0.532500  1.0
  H  H346  1  0.727300  0.584700  0.032500  1.0
  H  H347  1  0.834700  0.522700  0.282500  1.0
  H  H348  1  0.665300  0.477300  0.782500  1.0
  H  H349  1  0.272700  0.915300  0.032500  1.0
  H  H350  1  0.227300  0.084700  0.532500  1.0
  H  H351  1  0.334700  0.022700  0.782500  1.0
  H  H352  1  0.165300  0.977300  0.282500  1.0
  H  H353  1  0.284800  0.586200  0.454800  1.0
  H  H354  1  0.215200  0.413800  0.954800  1.0
  H  H355  1  0.163800  0.534800  0.704800  1.0
  H  H356  1  0.336200  0.465200  0.204800  1.0
  H  H357  1  0.784800  0.086200  0.954800  1.0
  H  H358  1  0.715200  0.913800  0.454800  1.0
  H  H359  1  0.663800  0.034800  0.204800  1.0
  H  H360  1  0.836200  0.965200  0.704800  1.0
  H  H361  1  0.715200  0.413800  0.545200  1.0
  H  H362  1  0.784800  0.586200  0.045200  1.0
  H  H363  1  0.836200  0.465200  0.295200  1.0
  H  H364  1  0.663800  0.534800  0.795200  1.0
  H  H365  1  0.215200  0.913800  0.045200  1.0
  H  H366  1  0.284800  0.086200  0.545200  1.0
  H  H367  1  0.336200  0.965200  0.795200  1.0
  H  H368  1  0.163800  0.034800  0.295200  1.0
  H  H369  1  0.259800  0.570200  0.292200  1.0
  H  H370  1  0.240200  0.429800  0.792200  1.0
  H  H371  1  0.179800  0.509800  0.542200  1.0
  H  H372  1  0.320200  0.490200  0.042200  1.0
  H  H373  1  0.759800  0.070200  0.792200  1.0
  H  H374  1  0.740200  0.929800  0.292200  1.0
  H  H375  1  0.679800  0.009800  0.042200  1.0
  H  H376  1  0.820200  0.990200  0.542200  1.0
  H  H377  1  0.740200  0.429800  0.707800  1.0
  H  H378  1  0.759800  0.570200  0.207800  1.0
  H  H379  1  0.820200  0.490200  0.457800  1.0
  H  H380  1  0.679800  0.509800  0.957800  1.0
  H  H381  1  0.240200  0.929800  0.207800  1.0
  H  H382  1  0.259800  0.070200  0.707800  1.0
  H  H383  1  0.320200  0.990200  0.957800  1.0
  H  H384  1  0.179800  0.009800  0.457800  1.0
  H  H385  1  0.317900  0.561800  0.284800  1.0
  H  H386  1  0.182100  0.438200  0.784800  1.0
  H  H387  1  0.188200  0.567900  0.534800  1.0
  H  H388  1  0.311800  0.432100  0.034800  1.0
  H  H389  1  0.817900  0.061800  0.784800  1.0
  H  H390  1  0.682100  0.938200  0.284800  1.0
  H  H391  1  0.688200  0.067900  0.034800  1.0
  H  H392  1  0.811800  0.932100  0.534800  1.0
  H  H393  1  0.682100  0.438200  0.715200  1.0
  H  H394  1  0.817900  0.561800  0.215200  1.0
  H  H395  1  0.811800  0.432100  0.465200  1.0
  H  H396  1  0.688200  0.567900  0.965200  1.0
  H  H397  1  0.182100  0.938200  0.215200  1.0
  H  H398  1  0.317900  0.061800  0.715200  1.0
  H  H399  1  0.311800  0.932100  0.965200  1.0
  H  H400  1  0.188200  0.067900  0.465200  1.0
  H  H401  1  0.294700  0.616200  0.280400  1.0
  H  H402  1  0.205300  0.383800  0.780400  1.0
  H  H403  1  0.133800  0.544700  0.530400  1.0
  H  H404  1  0.366200  0.455300  0.030400  1.0
  H  H405  1  0.794700  0.116200  0.780400  1.0
  H  H406  1  0.705300  0.883800  0.280400  1.0
  H  H407  1  0.633800  0.044700  0.030400  1.0
  H  H408  1  0.866200  0.955300  0.530400  1.0
  H  H409  1  0.705300  0.383800  0.719600  1.0
  H  H410  1  0.794700  0.616200  0.219600  1.0
  H  H411  1  0.866200  0.455300  0.469600  1.0
  H  H412  1  0.633800  0.544700  0.969600  1.0
  H  H413  1  0.205300  0.883800  0.219600  1.0
  H  H414  1  0.294700  0.116200  0.719600  1.0
  H  H415  1  0.366200  0.955300  0.969600  1.0
  H  H416  1  0.133800  0.044700  0.469600  1.0
  H  H417  1  0.355000  0.624500  0.380100  1.0
  H  H418  1  0.145000  0.375500  0.880100  1.0
  H  H419  1  0.125500  0.605000  0.630100  1.0
  H  H420  1  0.374500  0.395000  0.130100  1.0
  H  H421  1  0.855000  0.124500  0.880100  1.0
  H  H422  1  0.645000  0.875500  0.380100  1.0
  H  H423  1  0.625500  0.105000  0.130100  1.0
  H  H424  1  0.874500  0.895000  0.630100  1.0
  H  H425  1  0.645000  0.375500  0.619900  1.0
  H  H426  1  0.855000  0.624500  0.119900  1.0
  H  H427  1  0.874500  0.395000  0.369900  1.0
  H  H428  1  0.625500  0.605000  0.869900  1.0
  H  H429  1  0.145000  0.875500  0.119900  1.0
  H  H430  1  0.355000  0.124500  0.619900  1.0
  H  H431  1  0.374500  0.895000  0.869900  1.0
  H  H432  1  0.125500  0.105000  0.369900  1.0
  H  H433  1  0.341700  0.656100  0.337600  1.0
  H  H434  1  0.158300  0.343900  0.837600  1.0
  H  H435  1  0.093900  0.591700  0.587600  1.0
  H  H436  1  0.406100  0.408300  0.087600  1.0
  H  H437  1  0.841700  0.156100  0.837600  1.0
  H  H438  1  0.658300  0.843900  0.337600  1.0
  H  H439  1  0.593900  0.091700  0.087600  1.0
  H  H440  1  0.906100  0.908300  0.587600  1.0
  H  H441  1  0.658300  0.343900  0.662400  1.0
  H  H442  1  0.841700  0.656100  0.162400  1.0
  H  H443  1  0.906100  0.408300  0.412400  1.0
  H  H444  1  0.593900  0.591700  0.912400  1.0
  H  H445  1  0.158300  0.843900  0.162400  1.0
  H  H446  1  0.341700  0.156100  0.662400  1.0
  H  H447  1  0.406100  0.908300  0.912400  1.0
  H  H448  1  0.093900  0.091700  0.412400  1.0
  H  H449  1  0.374300  0.606800  0.333400  1.0
  H  H450  1  0.125700  0.393200  0.833400  1.0
  H  H451  1  0.143200  0.624300  0.583400  1.0
  H  H452  1  0.356800  0.375700  0.083400  1.0
  H  H453  1  0.874300  0.106800  0.833400  1.0
  H  H454  1  0.625700  0.893200  0.333400  1.0
  H  H455  1  0.643200  0.124300  0.083400  1.0
  H  H456  1  0.856800  0.875700  0.583400  1.0
  H  H457  1  0.625700  0.393200  0.666600  1.0
  H  H458  1  0.874300  0.606800  0.166600  1.0
  H  H459  1  0.856800  0.375700  0.416600  1.0
  H  H460  1  0.643200  0.624300  0.916600  1.0
  H  H461  1  0.125700  0.893200  0.166600  1.0
  H  H462  1  0.374300  0.106800  0.666600  1.0
  H  H463  1  0.356800  0.875700  0.916600  1.0
  H  H464  1  0.143200  0.124300  0.416600  1.0
  H  H465  1  0.276900  0.646400  0.384400  1.0
  H  H466  1  0.223100  0.353600  0.884400  1.0
  H  H467  1  0.103600  0.526900  0.634400  1.0
  H  H468  1  0.396400  0.473100  0.134400  1.0
  H  H469  1  0.776900  0.146400  0.884400  1.0
  H  H470  1  0.723100  0.853600  0.384400  1.0
  H  H471  1  0.603600  0.026900  0.134400  1.0
  H  H472  1  0.896400  0.973100  0.634400  1.0
  H  H473  1  0.723100  0.353600  0.615600  1.0
  H  H474  1  0.776900  0.646400  0.115600  1.0
  H  H475  1  0.896400  0.473100  0.365600  1.0
  H  H476  1  0.603600  0.526900  0.865600  1.0
  H  H477  1  0.223100  0.853600  0.115600  1.0
  H  H478  1  0.276900  0.146400  0.615600  1.0
  H  H479  1  0.396400  0.973100  0.865600  1.0
  H  H480  1  0.103600  0.026900  0.365600  1.0
  H  H481  1  0.245100  0.642400  0.340900  1.0
  H  H482  1  0.254900  0.357600  0.840900  1.0
  H  H483  1  0.107600  0.495100  0.590900  1.0
  H  H484  1  0.392400  0.504900  0.090900  1.0
  H  H485  1  0.745100  0.142400  0.840900  1.0
  H  H486  1  0.754900  0.857600  0.340900  1.0
  H  H487  1  0.607600  0.995100  0.090900  1.0
  H  H488  1  0.892400  0.004900  0.590900  1.0
  H  H489  1  0.754900  0.357600  0.659100  1.0
  H  H490  1  0.745100  0.642400  0.159100  1.0
  H  H491  1  0.892400  0.504900  0.409100  1.0
  H  H492  1  0.607600  0.495100  0.909100  1.0
  H  H493  1  0.254900  0.857600  0.159100  1.0
  H  H494  1  0.245100  0.142400  0.659100  1.0
  H  H495  1  0.392400  0.004900  0.909100  1.0
  H  H496  1  0.107600  0.995100  0.409100  1.0
  H  H497  1  0.545200  0.223300  0.977700  1.0
  H  H498  1  0.954800  0.776700  0.477700  1.0
  H  H499  1  0.526700  0.795200  0.227700  1.0
  H  H500  1  0.973300  0.204800  0.727700  1.0
  H  H501  1  0.045200  0.723300  0.477700  1.0
  H  H502  1  0.454800  0.276700  0.977700  1.0
  H  H503  1  0.026700  0.295200  0.727700  1.0
  H  H504  1  0.473300  0.704800  0.227700  1.0
  H  H505  1  0.454800  0.776700  0.022300  1.0
  H  H506  1  0.045200  0.223300  0.522300  1.0
  H  H507  1  0.473300  0.204800  0.772300  1.0
  H  H508  1  0.026700  0.795200  0.272300  1.0
  H  H509  1  0.954800  0.276700  0.522300  1.0
  H  H510  1  0.545200  0.723300  0.022300  1.0
  H  H511  1  0.973300  0.704800  0.272300  1.0
  H  H512  1  0.526700  0.295200  0.772300  1.0
  H  H513  1  0.495000  0.206600  0.954000  1.0
  H  H514  1  0.005000  0.793400  0.454000  1.0
  H  H515  1  0.543400  0.745000  0.204000  1.0
  H  H516  1  0.956600  0.255000  0.704000  1.0
  H  H517  1  0.995000  0.706600  0.454000  1.0
  H  H518  1  0.505000  0.293400  0.954000  1.0
  H  H519  1  0.043400  0.245000  0.704000  1.0
  H  H520  1  0.456600  0.755000  0.204000  1.0
  H  H521  1  0.505000  0.793400  0.046000  1.0
  H  H522  1  0.995000  0.206600  0.546000  1.0
  H  H523  1  0.456600  0.255000  0.796000  1.0
  H  H524  1  0.043400  0.745000  0.296000  1.0
  H  H525  1  0.005000  0.293400  0.546000  1.0
  H  H526  1  0.495000  0.706600  0.046000  1.0
  H  H527  1  0.956600  0.755000  0.296000  1.0
  H  H528  1  0.543400  0.245000  0.796000  1.0
  H  H529  1  0.559200  0.165000  0.027100  1.0
  H  H530  1  0.940800  0.835000  0.527100  1.0
  H  H531  1  0.585000  0.809200  0.277100  1.0
  H  H532  1  0.915000  0.190800  0.777100  1.0
  H  H533  1  0.059200  0.665000  0.527100  1.0
  H  H534  1  0.440800  0.335000  0.027100  1.0
  H  H535  1  0.085000  0.309200  0.777100  1.0
  H  H536  1  0.415000  0.690800  0.277100  1.0
  H  H537  1  0.440800  0.835000  0.972900  1.0
  H  H538  1  0.059200  0.165000  0.472900  1.0
  H  H539  1  0.415000  0.190800  0.722900  1.0
  H  H540  1  0.085000  0.809200  0.222900  1.0
  H  H541  1  0.940800  0.335000  0.472900  1.0
  H  H542  1  0.559200  0.665000  0.972900  1.0
  H  H543  1  0.915000  0.690800  0.222900  1.0
  H  H544  1  0.585000  0.309200  0.722900  1.0
  H  H545  1  0.519200  0.131200  0.002600  1.0
  H  H546  1  0.980800  0.868800  0.502600  1.0
  H  H547  1  0.618800  0.769200  0.252600  1.0
  H  H548  1  0.881200  0.230800  0.752600  1.0
  H  H549  1  0.019200  0.631200  0.502600  1.0
  H  H550  1  0.480800  0.368800  0.002600  1.0
  H  H551  1  0.118800  0.269200  0.752600  1.0
  H  H552  1  0.381200  0.730800  0.252600  1.0
  H  H553  1  0.480800  0.868800  0.997400  1.0
  H  H554  1  0.019200  0.131200  0.497400  1.0
  H  H555  1  0.381200  0.230800  0.747400  1.0
  H  H556  1  0.118800  0.769200  0.247400  1.0
  H  H557  1  0.980800  0.368800  0.497400  1.0
  H  H558  1  0.519200  0.631200  0.997400  1.0
  H  H559  1  0.881200  0.730800  0.247400  1.0
  H  H560  1  0.618800  0.269200  0.747400  1.0
  H  H561  1  0.515800  0.138800  0.054100  1.0
  H  H562  1  0.984200  0.861200  0.554100  1.0
  H  H563  1  0.611200  0.765800  0.304100  1.0
  H  H564  1  0.888800  0.234200  0.804100  1.0
  H  H565  1  0.015800  0.638800  0.554100  1.0
  H  H566  1  0.484200  0.361200  0.054100  1.0
  H  H567  1  0.111200  0.265800  0.804100  1.0
  H  H568  1  0.388800  0.734200  0.304100  1.0
  H  H569  1  0.484200  0.861200  0.945900  1.0
  H  H570  1  0.015800  0.138800  0.445900  1.0
  H  H571  1  0.388800  0.234200  0.695900  1.0
  H  H572  1  0.111200  0.765800  0.195900  1.0
  H  H573  1  0.984200  0.361200  0.445900  1.0
  H  H574  1  0.515800  0.638800  0.945900  1.0
  H  H575  1  0.888800  0.734200  0.195900  1.0
  H  H576  1  0.611200  0.265800  0.695900  1.0
  Pd  Pd577  1  0.500000  0.250000  0.068930  1.0
  Pd  Pd578  1  0.000000  0.750000  0.568930  1.0
  Pd  Pd579  1  0.500000  0.750000  0.318930  1.0
  Pd  Pd580  1  0.000000  0.250000  0.818930  1.0
  Pd  Pd581  1  0.500000  0.750000  0.931070  1.0
  Pd  Pd582  1  0.000000  0.250000  0.431070  1.0
  Pd  Pd583  1  0.500000  0.250000  0.681070  1.0
  Pd  Pd584  1  0.000000  0.750000  0.181070  1.0
  Pd  Pd585  1  0.303140  0.527130  0.376510  1.0
  Pd  Pd586  1  0.196860  0.472870  0.876510  1.0
  Pd  Pd587  1  0.222870  0.553140  0.626510  1.0
  Pd  Pd588  1  0.277130  0.446860  0.126510  1.0
  Pd  Pd589  1  0.803140  0.027130  0.876510  1.0
  Pd  Pd590  1  0.696860  0.972870  0.376510  1.0
  Pd  Pd591  1  0.722870  0.053140  0.126510  1.0
  Pd  Pd592  1  0.777130  0.946860  0.626510  1.0
  Pd  Pd593  1  0.696860  0.472870  0.623490  1.0
  Pd  Pd594  1  0.803140  0.527130  0.123490  1.0
  Pd  Pd595  1  0.777130  0.446860  0.373490  1.0
  Pd  Pd596  1  0.722870  0.553140  0.873490  1.0
  Pd  Pd597  1  0.196860  0.972870  0.123490  1.0
  Pd  Pd598  1  0.303140  0.027130  0.623490  1.0
  Pd  Pd599  1  0.277130  0.946860  0.873490  1.0
  Pd  Pd600  1  0.222870  0.053140  0.373490  1.0
  C  C601  1  0.520000  0.384500  0.449900  1
  C  C602  1  0.980000  0.615500  0.949900  1
  C  C603  1  0.365500  0.770000  0.699900  1
  C  C604  1  0.134500  0.230000  0.199900  1
  C  C605  1  0.020000  0.884500  0.949900  1
  C  C606  1  0.480000  0.115500  0.449900  1
  C  C607  1  0.865500  0.270000  0.199900  1
  C  C608  1  0.634500  0.730000  0.699900  1
  C  C609  1  0.480000  0.615500  0.550100  1
  C  C610  1  0.020000  0.384500  0.050100  1
  C  C611  1  0.634500  0.230000  0.300100  1
  C  C612  1  0.865500  0.770000  0.800100  1
  C  C613  1  0.980000  0.115500  0.050100  1
  C  C614  1  0.520000  0.884500  0.550100  1
  C  C615  1  0.134500  0.730000  0.800100  1
  C  C616  1  0.365500  0.270000  0.300100  1
  C  C617  1  0.518200  0.342100  0.473800  1
  C  C618  1  0.981800  0.657900  0.973800  1
  C  C619  1  0.407900  0.768200  0.723800  1
  C  C620  1  0.092100  0.231800  0.223800  1
  C  C621  1  0.018200  0.842100  0.973800  1
  C  C622  1  0.481800  0.157900  0.473800  1
  C  C623  1  0.907900  0.268200  0.223800  1
  C  C624  1  0.592100  0.731800  0.723800  1
  C  C625  1  0.481800  0.657900  0.526200  1
  C  C626  1  0.018200  0.342100  0.026200  1
  C  C627  1  0.592100  0.231800  0.276200  1
  C  C628  1  0.907900  0.768200  0.776200  1
  C  C629  1  0.981800  0.157900  0.026200  1
  C  C630  1  0.518200  0.842100  0.526200  1
  C  C631  1  0.092100  0.731800  0.776200  1
  C  C632  1  0.407900  0.268200  0.276200  1
  C  C633  1  0.548800  0.302200  0.462900  1
  C  C634  1  0.951200  0.697800  0.962900  1
  C  C635  1  0.447800  0.798800  0.712900  1
  C  C636  1  0.052200  0.201200  0.212900  1
  C  C637  1  0.048800  0.802200  0.962900  1
  C  C638  1  0.451200  0.197800  0.462900  1
  C  C639  1  0.947800  0.298800  0.212900  1
  C  C640  1  0.552200  0.701200  0.712900  1
  C  C641  1  0.451200  0.697800  0.537100  1
  C  C642  1  0.048800  0.302200  0.037100  1
  C  C643  1  0.552200  0.201200  0.287100  1
  C  C644  1  0.947800  0.798800  0.787100  1
  C  C645  1  0.951200  0.197800  0.037100  1
  C  C646  1  0.548800  0.802200  0.537100  1
  C  C647  1  0.052200  0.701200  0.787100  1
  C  C648  1  0.447800  0.298800  0.287100  1
  C  C649  1  0.578700  0.305500  0.426100  1
  C  C650  1  0.921300  0.694500  0.926100  1
  C  C651  1  0.444500  0.828700  0.676100  1
  C  C652  1  0.055500  0.171300  0.176100  1
  C  C653  1  0.078700  0.805500  0.926100  1
  C  C654  1  0.421300  0.194500  0.426100  1
  C  C655  1  0.944500  0.328700  0.176100  1
  C  C656  1  0.555500  0.671300  0.676100  1
  C  C657  1  0.421300  0.694500  0.573900  1
  C  C658  1  0.078700  0.305500  0.073900  1
  C  C659  1  0.555500  0.171300  0.323900  1
  C  C660  1  0.944500  0.828700  0.823900  1
  C  C661  1  0.921300  0.194500  0.073900  1
  C  C662  1  0.578700  0.805500  0.573900  1
  C  C663  1  0.055500  0.671300  0.823900  1
  C  C664  1  0.444500  0.328700  0.323900  1
  C  C665  1  0.581200  0.347900  0.402100  1
  C  C666  1  0.918800  0.652100  0.902100  1
  C  C667  1  0.402100  0.831200  0.652100  1
  C  C668  1  0.097900  0.168800  0.152100  1
  C  C669  1  0.081200  0.847900  0.902100  1
  C  C670  1  0.418800  0.152100  0.402100  1
  C  C671  1  0.902100  0.331200  0.152100  1
  C  C672  1  0.597900  0.668800  0.652100  1
  C  C673  1  0.418800  0.652100  0.597900  1
  C  C674  1  0.081200  0.347900  0.097900  1
  C  C675  1  0.597900  0.168800  0.347900  1
  C  C676  1  0.902100  0.831200  0.847900  1
  C  C677  1  0.918800  0.152100  0.097900  1
  C  C678  1  0.581200  0.847900  0.597900  1
  C  C679  1  0.097900  0.668800  0.847900  1
  C  C680  1  0.402100  0.331200  0.347900  1
  C  C681  1  0.552600  0.387300  0.414200  1
  C  C682  1  0.947400  0.612700  0.914200  1
  C  C683  1  0.362700  0.802600  0.664200  1
  C  C684  1  0.137300  0.197400  0.164200  1
  C  C685  1  0.052600  0.887300  0.914200  1
  C  C686  1  0.447400  0.112700  0.414200  1
  C  C687  1  0.862700  0.302600  0.164200  1
  C  C688  1  0.637300  0.697400  0.664200  1
  C  C689  1  0.447400  0.612700  0.585800  1
  C  C690  1  0.052600  0.387300  0.085800  1
  C  C691  1  0.637300  0.197400  0.335800  1
  C  C692  1  0.862700  0.802600  0.835800  1
  C  C693  1  0.947400  0.112700  0.085800  1
  C  C694  1  0.552600  0.887300  0.585800  1
  C  C695  1  0.137300  0.697400  0.835800  1
  C  C696  1  0.362700  0.302600  0.335800  1
  C  C697  1  0.553100  0.347500  0.422000  1
  C  C698  1  0.946900  0.652500  0.922000  1
  C  C699  1  0.402500  0.803100  0.672000  1
  C  C700  1  0.097500  0.196900  0.172000  1
  C  C701  1  0.053100  0.847500  0.922000  1
  C  C702  1  0.446900  0.152500  0.422000  1
  C  C703  1  0.902500  0.303100  0.172000  1
  C  C704  1  0.597500  0.696900  0.672000  1
  C  C705  1  0.446900  0.652500  0.578000  1
  C  C706  1  0.053100  0.347500  0.078000  1
  C  C707  1  0.597500  0.196900  0.328000  1
  C  C708  1  0.902500  0.803100  0.828000  1
  C  C709  1  0.946900  0.152500  0.078000  1
  C  C710  1  0.553100  0.847500  0.578000  1
  C  C711  1  0.097500  0.696900  0.828000  1
  C  C712  1  0.402500  0.303100  0.328000  1
  C  C713  1  0.530600  0.393600  0.418900  1
  C  C714  1  0.969400  0.606400  0.918900  1
  C  C715  1  0.356400  0.780600  0.668900  1
  C  C716  1  0.143600  0.219400  0.168900  1
  C  C717  1  0.030600  0.893600  0.918900  1
  C  C718  1  0.469400  0.106400  0.418900  1
  C  C719  1  0.856400  0.280600  0.168900  1
  C  C720  1  0.643600  0.719400  0.668900  1
  C  C721  1  0.469400  0.606400  0.581100  1
  C  C722  1  0.030600  0.393600  0.081100  1
  C  C723  1  0.643600  0.219400  0.331100  1
  C  C724  1  0.856400  0.780600  0.831100  1
  C  C725  1  0.969400  0.106400  0.081100  1
  C  C726  1  0.530600  0.893600  0.581100  1
  C  C727  1  0.143600  0.719400  0.831100  1
  C  C728  1  0.356400  0.280600  0.331100  1
  C  C729  1  0.496700  0.409600  0.448700  1
  C  C730  1  0.003300  0.590400  0.948700  1
  C  C731  1  0.340400  0.746700  0.698700  1
  C  C732  1  0.159600  0.253300  0.198700  1
  C  C733  1  0.996700  0.909600  0.948700  1
  C  C734  1  0.503300  0.090400  0.448700  1
  C  C735  1  0.840400  0.246700  0.198700  1
  C  C736  1  0.659600  0.753300  0.698700  1
  C  C737  1  0.503300  0.590400  0.551300  1
  C  C738  1  0.996700  0.409600  0.051300  1
  C  C739  1  0.659600  0.253300  0.301300  1
  C  C740  1  0.840400  0.746700  0.801300  1
  C  C741  1  0.003300  0.090400  0.051300  1
  C  C742  1  0.496700  0.909600  0.551300  1
  C  C743  1  0.159600  0.753300  0.801300  1
  C  C744  1  0.340400  0.246700  0.301300  1
  C  C745  1  0.486400  0.380300  0.484100  1
  C  C746  1  0.013600  0.619700  0.984100  1
  C  C747  1  0.369700  0.736400  0.734100  1
  C  C748  1  0.130300  0.263600  0.234100  1
  C  C749  1  0.986400  0.880300  0.984100  1
  C  C750  1  0.513600  0.119700  0.484100  1
  C  C751  1  0.869700  0.236400  0.234100  1
  C  C752  1  0.630300  0.763600  0.734100  1
  C  C753  1  0.513600  0.619700  0.515900  1
  C  C754  1  0.986400  0.380300  0.015900  1
  C  C755  1  0.630300  0.263600  0.265900  1
  C  C756  1  0.869700  0.736400  0.765900  1
  C  C757  1  0.013600  0.119700  0.015900  1
  C  C758  1  0.486400  0.880300  0.515900  1
  C  C759  1  0.130300  0.763600  0.765900  1
  C  C760  1  0.369700  0.236400  0.265900  1
  C  C761  1  0.508900  0.334200  0.489300  1
  C  C762  1  0.991100  0.665800  0.989300  1
  C  C763  1  0.415800  0.758900  0.739300  1
  C  C764  1  0.084200  0.241100  0.239300  1
  C  C765  1  0.008900  0.834200  0.989300  1
  C  C766  1  0.491100  0.165800  0.489300  1
  C  C767  1  0.915800  0.258900  0.239300  1
  C  C768  1  0.584200  0.741100  0.739300  1
  C  C769  1  0.491100  0.665800  0.510700  1
  C  C770  1  0.008900  0.334200  0.010700  1
  C  C771  1  0.584200  0.241100  0.260700  1
  C  C772  1  0.915800  0.758900  0.760700  1
  C  C773  1  0.991100  0.165800  0.010700  1
  C  C774  1  0.508900  0.834200  0.510700  1
  C  C775  1  0.084200  0.741100  0.760700  1
  C  C776  1  0.415800  0.258900  0.260700  1
  C  C777  1  0.541300  0.317600  0.458000  1
  C  C778  1  0.958700  0.682400  0.958000  1
  C  C779  1  0.432400  0.791300  0.708000  1
  C  C780  1  0.067600  0.208700  0.208000  1
  C  C781  1  0.041300  0.817600  0.958000  1
  C  C782  1  0.458700  0.182400  0.458000  1
  C  C783  1  0.932400  0.291300  0.208000  1
  C  C784  1  0.567600  0.708700  0.708000  1
  C  C785  1  0.458700  0.682400  0.542000  1
  C  C786  1  0.041300  0.317600  0.042000  1
  C  C787  1  0.567600  0.208700  0.292000  1
  C  C788  1  0.932400  0.791300  0.792000  1
  C  C789  1  0.958700  0.182400  0.042000  1
  C  C790  1  0.541300  0.817600  0.542000  1
  C  C791  1  0.067600  0.708700  0.792000  1
  C  C792  1  0.432400  0.291300  0.292000  1
  C  C793  1  0.358400  0.470300  0.310300  1.0
  C  C794  1  0.141600  0.529700  0.810300  1.0
  C  C795  1  0.279700  0.608400  0.560300  1.0
  C  C796  1  0.220300  0.391600  0.060300  1.0
  C  C797  1  0.858400  0.970300  0.810300  1.0
  C  C798  1  0.641600  0.029700  0.310300  1.0
  C  C799  1  0.779700  0.108400  0.060300  1.0
  C  C800  1  0.720300  0.891600  0.560300  1.0
  C  C801  1  0.641600  0.529700  0.689700  1.0
  C  C802  1  0.858400  0.470300  0.189700  1.0
  C  C803  1  0.720300  0.391600  0.439700  1.0
  C  C804  1  0.779700  0.608400  0.939700  1.0
  C  C805  1  0.141600  0.029700  0.189700  1.0
  C  C806  1  0.358400  0.970300  0.689700  1.0
  C  C807  1  0.220300  0.891600  0.939700  1.0
  C  C808  1  0.279700  0.108400  0.439700  1.0
  C  C809  1  0.673100  0.471400  0.353800  1.0
  C  C810  1  0.826900  0.528600  0.853800  1.0
  C  C811  1  0.278600  0.923100  0.603800  1.0
  C  C812  1  0.221400  0.076900  0.103800  1.0
  C  C813  1  0.173100  0.971400  0.853800  1.0
  C  C814  1  0.326900  0.028600  0.353800  1.0
  C  C815  1  0.778600  0.423100  0.103800  1.0
  C  C816  1  0.721400  0.576900  0.603800  1.0
  C  C817  1  0.326900  0.528600  0.646200  1.0
  C  C818  1  0.173100  0.471400  0.146200  1.0
  C  C819  1  0.721400  0.076900  0.396200  1.0
  C  C820  1  0.778600  0.923100  0.896200  1.0
  C  C821  1  0.826900  0.028600  0.146200  1.0
  C  C822  1  0.673100  0.971400  0.646200  1.0
  C  C823  1  0.221400  0.576900  0.896200  1.0
  C  C824  1  0.278600  0.423100  0.396200  1.0
  C  C825  1  0.707300  0.416700  0.304800  1.0
  C  C826  1  0.792700  0.583300  0.804800  1.0
  C  C827  1  0.333300  0.957300  0.554800  1.0
  C  C828  1  0.166700  0.042700  0.054800  1.0
  C  C829  1  0.207300  0.916700  0.804800  1.0
  C  C830  1  0.292700  0.083300  0.304800  1.0
  C  C831  1  0.833300  0.457300  0.054800  1.0
  C  C832  1  0.666700  0.542700  0.554800  1.0
  C  C833  1  0.292700  0.583300  0.695200  1.0
  C  C834  1  0.207300  0.416700  0.195200  1.0
  C  C835  1  0.666700  0.042700  0.445200  1.0
  C  C836  1  0.833300  0.957300  0.945200  1.0
  C  C837  1  0.792700  0.083300  0.195200  1.0
  C  C838  1  0.707300  0.916700  0.695200  1.0
  C  C839  1  0.166700  0.542700  0.945200  1.0
  C  C840  1  0.333300  0.457300  0.445200  1.0
  C  C841  1  0.663000  0.411200  0.283400  1.0
  C  C842  1  0.837000  0.588800  0.783400  1.0
  C  C843  1  0.338800  0.913000  0.533400  1.0
  C  C844  1  0.161200  0.087000  0.033400  1.0
  C  C845  1  0.163000  0.911200  0.783400  1.0
  C  C846  1  0.337000  0.088800  0.283400  1.0
  C  C847  1  0.838800  0.413000  0.033400  1.0
  C  C848  1  0.661200  0.587000  0.533400  1.0
  C  C849  1  0.337000  0.588800  0.716600  1.0
  C  C850  1  0.163000  0.411200  0.216600  1.0
  C  C851  1  0.661200  0.087000  0.466600  1.0
  C  C852  1  0.838800  0.913000  0.966600  1.0
  C  C853  1  0.837000  0.088800  0.216600  1.0
  C  C854  1  0.663000  0.911200  0.716600  1.0
  C  C855  1  0.161200  0.587000  0.966600  1.0
  C  C856  1  0.338800  0.413000  0.466600  1.0
  C  C857  1  0.467800  0.319800  0.137600  1.0
  C  C858  1  0.032200  0.680200  0.637600  1.0
  C  C859  1  0.430200  0.717800  0.387600  1.0
  C  C860  1  0.069800  0.282200  0.887600  1.0
  C  C861  1  0.967800  0.819800  0.637600  1.0
  C  C862  1  0.532200  0.180200  0.137600  1.0
  C  C863  1  0.930200  0.217800  0.887600  1.0
  C  C864  1  0.569800  0.782200  0.387600  1.0
  C  C865  1  0.532200  0.680200  0.862400  1.0
  C  C866  1  0.967800  0.319800  0.362400  1.0
  C  C867  1  0.569800  0.282200  0.612400  1.0
  C  C868  1  0.930200  0.717800  0.112400  1.0
  C  C869  1  0.032200  0.180200  0.362400  1.0
  C  C870  1  0.467800  0.819800  0.862400  1.0
  C  C871  1  0.069800  0.782200  0.112400  1.0
  C  C872  1  0.430200  0.217800  0.612400  1.0
  C  C873  1  0.409500  0.513300  0.357300  1.0
  C  C874  1  0.090500  0.486700  0.857300  1.0
  C  C875  1  0.236700  0.659500  0.607300  1.0
  C  C876  1  0.263300  0.340500  0.107300  1.0
  C  C877  1  0.909500  0.013300  0.857300  1.0
  C  C878  1  0.590500  0.986700  0.357300  1.0
  C  C879  1  0.736700  0.159500  0.107300  1.0
  C  C880  1  0.763300  0.840500  0.607300  1.0
  C  C881  1  0.590500  0.486700  0.642700  1.0
  C  C882  1  0.909500  0.513300  0.142700  1.0
  C  C883  1  0.763300  0.340500  0.392700  1.0
  C  C884  1  0.736700  0.659500  0.892700  1.0
  C  C885  1  0.090500  0.986700  0.142700  1.0
  C  C886  1  0.409500  0.013300  0.642700  1.0
  C  C887  1  0.263300  0.840500  0.892700  1.0
  C  C888  1  0.236700  0.159500  0.392700  1.0
  C  C889  1  0.451400  0.495100  0.336700  1.0
  C  C890  1  0.048600  0.504900  0.836700  1.0
  C  C891  1  0.254900  0.701400  0.586700  1.0
  C  C892  1  0.245100  0.298600  0.086700  1.0
  C  C893  1  0.951400  0.995100  0.836700  1.0
  C  C894  1  0.548600  0.004900  0.336700  1.0
  C  C895  1  0.754900  0.201400  0.086700  1.0
  C  C896  1  0.745100  0.798600  0.586700  1.0
  C  C897  1  0.548600  0.504900  0.663300  1.0
  C  C898  1  0.951400  0.495100  0.163300  1.0
  C  C899  1  0.745100  0.298600  0.413300  1.0
  C  C900  1  0.754900  0.701400  0.913300  1.0
  C  C901  1  0.048600  0.004900  0.163300  1.0
  C  C902  1  0.451400  0.995100  0.663300  1.0
  C  C903  1  0.245100  0.798600  0.913300  1.0
  C  C904  1  0.254900  0.201400  0.413300  1.0
  C  C905  1  0.445800  0.463800  0.301300  1.0
  C  C906  1  0.054200  0.536200  0.801300  1.0
  C  C907  1  0.286200  0.695800  0.551300  1.0
  C  C908  1  0.213800  0.304200  0.051300  1.0
  C  C909  1  0.945800  0.963800  0.801300  1.0
  C  C910  1  0.554200  0.036200  0.301300  1.0
  C  C911  1  0.786200  0.195800  0.051300  1.0
  C  C912  1  0.713800  0.804200  0.551300  1.0
  C  C913  1  0.554200  0.536200  0.698700  1.0
  C  C914  1  0.945800  0.463800  0.198700  1.0
  C  C915  1  0.713800  0.304200  0.448700  1.0
  C  C916  1  0.786200  0.695800  0.948700  1.0
  C  C917  1  0.054200  0.036200  0.198700  1.0
  C  C918  1  0.445800  0.963800  0.698700  1.0
  C  C919  1  0.213800  0.804200  0.948700  1.0
  C  C920  1  0.286200  0.195800  0.448700  1.0
  C  C921  1  0.398400  0.451600  0.288200  1.0
  C  C922  1  0.101600  0.548400  0.788200  1.0
  C  C923  1  0.298400  0.648400  0.538200  1.0
  C  C924  1  0.201600  0.351600  0.038200  1.0
  C  C925  1  0.898400  0.951600  0.788200  1.0
  C  C926  1  0.601600  0.048400  0.288200  1.0
  C  C927  1  0.798400  0.148400  0.038200  1.0
  C  C928  1  0.701600  0.851600  0.538200  1.0
  C  C929  1  0.601600  0.548400  0.711800  1.0
  C  C930  1  0.898400  0.451600  0.211800  1.0
  C  C931  1  0.701600  0.351600  0.461800  1.0
  C  C932  1  0.798400  0.648400  0.961800  1.0
  C  C933  1  0.101600  0.048400  0.211800  1.0
  C  C934  1  0.398400  0.951600  0.711800  1.0
  C  C935  1  0.201600  0.851600  0.961800  1.0
  C  C936  1  0.298400  0.148400  0.461800  1.0
  C  C937  1  0.489000  0.443300  0.279700  1.0
  C  C938  1  0.011000  0.556700  0.779700  1.0
  C  C939  1  0.306700  0.739000  0.529700  1.0
  C  C940  1  0.193300  0.261000  0.029700  1.0
  C  C941  1  0.989000  0.943300  0.779700  1.0
  C  C942  1  0.511000  0.056700  0.279700  1.0
  C  C943  1  0.806700  0.239000  0.029700  1.0
  C  C944  1  0.693300  0.761000  0.529700  1.0
  C  C945  1  0.511000  0.556700  0.720300  1.0
  C  C946  1  0.989000  0.443300  0.220300  1.0
  C  C947  1  0.693300  0.261000  0.470300  1.0
  C  C948  1  0.806700  0.739000  0.970300  1.0
  C  C949  1  0.011000  0.056700  0.220300  1.0
  C  C950  1  0.489000  0.943300  0.720300  1.0
  C  C951  1  0.193300  0.761000  0.970300  1.0
  C  C952  1  0.306700  0.239000  0.470300  1.0
  C  C953  1  0.226800  0.597600  0.385200  1.0
  C  C954  1  0.273200  0.402400  0.885200  1.0
  C  C955  1  0.152400  0.476800  0.635200  1.0
  C  C956  1  0.347600  0.523200  0.135200  1.0
  C  C957  1  0.726800  0.097600  0.885200  1.0
  C  C958  1  0.773200  0.902400  0.385200  1.0
  C  C959  1  0.652400  0.976800  0.135200  1.0
  C  C960  1  0.847600  0.023200  0.635200  1.0
  C  C961  1  0.773200  0.402400  0.614800  1.0
  C  C962  1  0.726800  0.597600  0.114800  1.0
  C  C963  1  0.847600  0.523200  0.364800  1.0
  C  C964  1  0.652400  0.476800  0.864800  1.0
  C  C965  1  0.273200  0.902400  0.114800  1.0
  C  C966  1  0.226800  0.097600  0.614800  1.0
  C  C967  1  0.347600  0.023200  0.864800  1.0
  C  C968  1  0.152400  0.976800  0.364800  1.0
  C  C969  1  0.627500  0.468400  0.334100  1.0
  C  C970  1  0.872500  0.531600  0.834100  1.0
  C  C971  1  0.281600  0.877500  0.584100  1.0
  C  C972  1  0.218400  0.122500  0.084100  1.0
  C  C973  1  0.127500  0.968400  0.834100  1.0
  C  C974  1  0.372500  0.031600  0.334100  1.0
  C  C975  1  0.781600  0.377500  0.084100  1.0
  C  C976  1  0.718400  0.622500  0.584100  1.0
  C  C977  1  0.372500  0.531600  0.665900  1.0
  C  C978  1  0.127500  0.468400  0.165900  1.0
  C  C979  1  0.718400  0.122500  0.415900  1.0
  C  C980  1  0.781600  0.877500  0.915900  1.0
  C  C981  1  0.872500  0.031600  0.165900  1.0
  C  C982  1  0.627500  0.968400  0.665900  1.0
  C  C983  1  0.218400  0.622500  0.915900  1.0
  C  C984  1  0.281600  0.377500  0.415900  1.0
  C  C985  1  0.621800  0.437500  0.298400  1.0
  C  C986  1  0.878200  0.562500  0.798400  1.0
  C  C987  1  0.312500  0.871800  0.548400  1.0
  C  C988  1  0.187500  0.128200  0.048400  1.0
  C  C989  1  0.121800  0.937500  0.798400  1.0
  C  C990  1  0.378200  0.062500  0.298400  1.0
  C  C991  1  0.812500  0.371800  0.048400  1.0
  C  C992  1  0.687500  0.628200  0.548400  1.0
  C  C993  1  0.378200  0.562500  0.701600  1.0
  C  C994  1  0.121800  0.437500  0.201600  1.0
  C  C995  1  0.687500  0.128200  0.451600  1.0
  C  C996  1  0.812500  0.871800  0.951600  1.0
  C  C997  1  0.878200  0.062500  0.201600  1.0
  C  C998  1  0.621800  0.937500  0.701600  1.0
  C  C999  1  0.187500  0.628200  0.951600  1.0
  C  C1000  1  0.312500  0.371800  0.451600  1.0
  C  C1001  1  0.572400  0.430800  0.277400  1.0
  C  C1002  1  0.927600  0.569200  0.777400  1.0
  C  C1003  1  0.319200  0.822400  0.527400  1.0
  C  C1004  1  0.180800  0.177600  0.027400  1.0
  C  C1005  1  0.072400  0.930800  0.777400  1.0
  C  C1006  1  0.427600  0.069200  0.277400  1.0
  C  C1007  1  0.819200  0.322400  0.027400  1.0
  C  C1008  1  0.680800  0.677600  0.527400  1.0
  C  C1009  1  0.427600  0.569200  0.722600  1.0
  C  C1010  1  0.072400  0.430800  0.222600  1.0
  C  C1011  1  0.680800  0.177600  0.472600  1.0
  C  C1012  1  0.819200  0.822400  0.972600  1.0
  C  C1013  1  0.927600  0.069200  0.222600  1.0
  C  C1014  1  0.572400  0.930800  0.722600  1.0
  C  C1015  1  0.180800  0.677600  0.972600  1.0
  C  C1016  1  0.319200  0.322400  0.472600  1.0
  C  C1017  1  0.471900  0.351000  0.172500  1.0
  C  C1018  1  0.028100  0.649000  0.672500  1.0
  C  C1019  1  0.399000  0.721900  0.422500  1.0
  C  C1020  1  0.101000  0.278100  0.922500  1.0
  C  C1021  1  0.971900  0.851000  0.672500  1.0
  C  C1022  1  0.528100  0.149000  0.172500  1.0
  C  C1023  1  0.899000  0.221900  0.922500  1.0
  C  C1024  1  0.601000  0.778100  0.422500  1.0
  C  C1025  1  0.528100  0.649000  0.827500  1.0
  C  C1026  1  0.971900  0.351000  0.327500  1.0
  C  C1027  1  0.601000  0.278100  0.577500  1.0
  C  C1028  1  0.899000  0.721900  0.077500  1.0
  C  C1029  1  0.028100  0.149000  0.327500  1.0
  C  C1030  1  0.471900  0.851000  0.827500  1.0
  C  C1031  1  0.101000  0.778100  0.077500  1.0
  C  C1032  1  0.399000  0.221900  0.577500  1.0
  C  C1033  1  0.518500  0.362800  0.188600  1.0
  C  C1034  1  0.981500  0.637200  0.688600  1.0
  C  C1035  1  0.387200  0.768500  0.438600  1.0
  C  C1036  1  0.112800  0.231500  0.938600  1.0
  C  C1037  1  0.018500  0.862800  0.688600  1.0
  C  C1038  1  0.481500  0.137200  0.188600  1.0
  C  C1039  1  0.887200  0.268500  0.938600  1.0
  C  C1040  1  0.612800  0.731500  0.438600  1.0
  C  C1041  1  0.481500  0.637200  0.811400  1.0
  C  C1042  1  0.018500  0.362800  0.311400  1.0
  C  C1043  1  0.612800  0.231500  0.561400  1.0
  C  C1044  1  0.887200  0.768500  0.061400  1.0
  C  C1045  1  0.981500  0.137200  0.311400  1.0
  C  C1046  1  0.518500  0.862800  0.811400  1.0
  C  C1047  1  0.112800  0.731500  0.061400  1.0
  C  C1048  1  0.387200  0.268500  0.561400  1.0
  C  C1049  1  0.559800  0.343700  0.167800  1.0
  C  C1050  1  0.940200  0.656300  0.667800  1.0
  C  C1051  1  0.406300  0.809800  0.417800  1.0
  C  C1052  1  0.093700  0.190200  0.917800  1.0
  C  C1053  1  0.059800  0.843700  0.667800  1.0
  C  C1054  1  0.440200  0.156300  0.167800  1.0
  C  C1055  1  0.906300  0.309800  0.917800  1.0
  C  C1056  1  0.593700  0.690200  0.417800  1.0
  C  C1057  1  0.440200  0.656300  0.832200  1.0
  C  C1058  1  0.059800  0.343700  0.332200  1.0
  C  C1059  1  0.593700  0.190200  0.582200  1.0
  C  C1060  1  0.906300  0.809800  0.082200  1.0
  C  C1061  1  0.940200  0.156300  0.332200  1.0
  C  C1062  1  0.559800  0.843700  0.832200  1.0
  C  C1063  1  0.093700  0.690200  0.082200  1.0
  C  C1064  1  0.406300  0.309800  0.582200  1.0
  C  C1065  1  0.553300  0.312400  0.132400  1.0
  C  C1066  1  0.946700  0.687600  0.632400  1.0
  C  C1067  1  0.437600  0.803300  0.382400  1.0
  C  C1068  1  0.062400  0.196700  0.882400  1.0
  C  C1069  1  0.053300  0.812400  0.632400  1.0
  C  C1070  1  0.446700  0.187600  0.132400  1.0
  C  C1071  1  0.937600  0.303300  0.882400  1.0
  C  C1072  1  0.562400  0.696700  0.382400  1.0
  C  C1073  1  0.446700  0.687600  0.867600  1.0
  C  C1074  1  0.053300  0.312400  0.367600  1.0
  C  C1075  1  0.562400  0.196700  0.617600  1.0
  C  C1076  1  0.937600  0.803300  0.117600  1.0
  C  C1077  1  0.946700  0.187600  0.367600  1.0
  C  C1078  1  0.553300  0.812400  0.867600  1.0
  C  C1079  1  0.062400  0.696700  0.117600  1.0
  C  C1080  1  0.437600  0.303300  0.617600  1.0
  C  C1081  1  0.523800  0.395200  0.227300  1.0
  C  C1082  1  0.976200  0.604800  0.727300  1.0
  C  C1083  1  0.354800  0.773800  0.477300  1.0
  C  C1084  1  0.145200  0.226200  0.977300  1.0
  C  C1085  1  0.023800  0.895200  0.727300  1.0
  C  C1086  1  0.476200  0.104800  0.227300  1.0
  C  C1087  1  0.854800  0.273800  0.977300  1.0
  C  C1088  1  0.645200  0.726200  0.477300  1.0
  C  C1089  1  0.476200  0.604800  0.772700  1.0
  C  C1090  1  0.023800  0.395200  0.272700  1.0
  C  C1091  1  0.645200  0.226200  0.522700  1.0
  C  C1092  1  0.854800  0.773800  0.022700  1.0
  C  C1093  1  0.976200  0.104800  0.272700  1.0
  C  C1094  1  0.523800  0.895200  0.772700  1.0
  C  C1095  1  0.145200  0.726200  0.022700  1.0
  C  C1096  1  0.354800  0.273800  0.522700  1.0
  C  C1097  1  0.440100  0.181900  0.017300  1.0
  C  C1098  1  0.059900  0.818100  0.517300  1.0
  C  C1099  1  0.568100  0.690100  0.267300  1.0
  C  C1100  1  0.931900  0.309900  0.767300  1.0
  C  C1101  1  0.940100  0.681900  0.517300  1.0
  C  C1102  1  0.559900  0.318100  0.017300  1.0
  C  C1103  1  0.068100  0.190100  0.767300  1.0
  C  C1104  1  0.431900  0.809900  0.267300  1.0
  C  C1105  1  0.559900  0.818100  0.982700  1.0
  C  C1106  1  0.940100  0.181900  0.482700  1.0
  C  C1107  1  0.431900  0.309900  0.732700  1.0
  C  C1108  1  0.068100  0.690100  0.232700  1.0
  C  C1109  1  0.059900  0.318100  0.482700  1.0
  C  C1110  1  0.440100  0.681900  0.982700  1.0
  C  C1111  1  0.931900  0.809900  0.232700  1.0
  C  C1112  1  0.568100  0.190100  0.732700  1.0
  C  C1113  1  0.200900  0.518000  0.411400  1.0
  C  C1114  1  0.299100  0.482000  0.911400  1.0
  C  C1115  1  0.232000  0.450900  0.661400  1.0
  C  C1116  1  0.268000  0.549100  0.161400  1.0
  C  C1117  1  0.700900  0.018000  0.911400  1.0
  C  C1118  1  0.799100  0.982000  0.411400  1.0
  C  C1119  1  0.732000  0.950900  0.161400  1.0
  C  C1120  1  0.768000  0.049100  0.661400  1.0
  C  C1121  1  0.799100  0.482000  0.588600  1.0
  C  C1122  1  0.700900  0.518000  0.088600  1.0
  C  C1123  1  0.768000  0.549100  0.338600  1.0
  C  C1124  1  0.732000  0.450900  0.838600  1.0
  C  C1125  1  0.299100  0.982000  0.088600  1.0
  C  C1126  1  0.200900  0.018000  0.588600  1.0
  C  C1127  1  0.268000  0.049100  0.838600  1.0
  C  C1128  1  0.232000  0.950900  0.338600  1.0
  C  C1129  1  0.254600  0.566100  0.454300  1.0
  C  C1130  1  0.245400  0.433900  0.954300  1.0
  C  C1131  1  0.183900  0.504600  0.704300  1.0
  C  C1132  1  0.316100  0.495400  0.204300  1.0
  C  C1133  1  0.754600  0.066100  0.954300  1.0
  C  C1134  1  0.745400  0.933900  0.454300  1.0
  C  C1135  1  0.683900  0.004600  0.204300  1.0
  C  C1136  1  0.816100  0.995400  0.704300  1.0
  C  C1137  1  0.745400  0.433900  0.545700  1.0
  C  C1138  1  0.754600  0.566100  0.045700  1.0
  C  C1139  1  0.816100  0.495400  0.295700  1.0
  C  C1140  1  0.683900  0.504600  0.795700  1.0
  C  C1141  1  0.245400  0.933900  0.045700  1.0
  C  C1142  1  0.254600  0.066100  0.545700  1.0
  C  C1143  1  0.316100  0.995400  0.795700  1.0
  C  C1144  1  0.183900  0.004600  0.295700  1.0
  C  C1145  1  0.292800  0.584700  0.296200  1.0
  C  C1146  1  0.207200  0.415300  0.796200  1.0
  C  C1147  1  0.165300  0.542800  0.546200  1.0
  C  C1148  1  0.334700  0.457200  0.046200  1.0
  C  C1149  1  0.792800  0.084700  0.796200  1.0
  C  C1150  1  0.707200  0.915300  0.296200  1.0
  C  C1151  1  0.665300  0.042800  0.046200  1.0
  C  C1152  1  0.834700  0.957200  0.546200  1.0
  C  C1153  1  0.707200  0.415300  0.703800  1.0
  C  C1154  1  0.792800  0.584700  0.203800  1.0
  C  C1155  1  0.834700  0.457200  0.453800  1.0
  C  C1156  1  0.665300  0.542800  0.953800  1.0
  C  C1157  1  0.207200  0.915300  0.203800  1.0
  C  C1158  1  0.292800  0.084700  0.703800  1.0
  C  C1159  1  0.334700  0.957200  0.953800  1.0
  C  C1160  1  0.165300  0.042800  0.453800  1.0
  C  C1161  1  0.346900  0.622600  0.349000  1.0
  C  C1162  1  0.153100  0.377400  0.849000  1.0
  C  C1163  1  0.127400  0.596900  0.599000  1.0
  C  C1164  1  0.372600  0.403100  0.099000  1.0
  C  C1165  1  0.846900  0.122600  0.849000  1.0
  C  C1166  1  0.653100  0.877400  0.349000  1.0
  C  C1167  1  0.627400  0.096900  0.099000  1.0
  C  C1168  1  0.872600  0.903100  0.599000  1.0
  C  C1169  1  0.653100  0.377400  0.651000  1.0
  C  C1170  1  0.846900  0.622600  0.151000  1.0
  C  C1171  1  0.872600  0.403100  0.401000  1.0
  C  C1172  1  0.627400  0.596900  0.901000  1.0
  C  C1173  1  0.153100  0.877400  0.151000  1.0
  C  C1174  1  0.346900  0.122600  0.651000  1.0
  C  C1175  1  0.372600  0.903100  0.901000  1.0
  C  C1176  1  0.127400  0.096900  0.401000  1.0
  C  C1177  1  0.261500  0.622700  0.363800  1.0
  C  C1178  1  0.238500  0.377300  0.863800  1.0
  C  C1179  1  0.127300  0.511500  0.613800  1.0
  C  C1180  1  0.372700  0.488500  0.113800  1.0
  C  C1181  1  0.761500  0.122700  0.863800  1.0
  C  C1182  1  0.738500  0.877300  0.363800  1.0
  C  C1183  1  0.627300  0.011500  0.113800  1.0
  C  C1184  1  0.872700  0.988500  0.613800  1.0
  C  C1185  1  0.738500  0.377300  0.636200  1.0
  C  C1186  1  0.761500  0.622700  0.136200  1.0
  C  C1187  1  0.872700  0.488500  0.386200  1.0
  C  C1188  1  0.627300  0.511500  0.886200  1.0
  C  C1189  1  0.238500  0.877300  0.136200  1.0
  C  C1190  1  0.261500  0.122700  0.636200  1.0
  C  C1191  1  0.372700  0.988500  0.886200  1.0
  C  C1192  1  0.127300  0.011500  0.386200  1.0
  C  C1193  1  0.508600  0.224100  0.979600  1.0
  C  C1194  1  0.991400  0.775900  0.479600  1.0
  C  C1195  1  0.525900  0.758600  0.229600  1.0
  C  C1196  1  0.974100  0.241400  0.729600  1.0
  C  C1197  1  0.008600  0.724100  0.479600  1.0
  C  C1198  1  0.491400  0.275900  0.979600  1.0
  C  C1199  1  0.025900  0.258600  0.729600  1.0
  C  C1200  1  0.474100  0.741400  0.229600  1.0
  C  C1201  1  0.491400  0.775900  0.020400  1.0
  C  C1202  1  0.008600  0.224100  0.520400  1.0
  C  C1203  1  0.474100  0.241400  0.770400  1.0
  C  C1204  1  0.025900  0.758600  0.270400  1.0
  C  C1205  1  0.991400  0.275900  0.520400  1.0
  C  C1206  1  0.508600  0.724100  0.020400  1.0
  C  C1207  1  0.974100  0.741400  0.270400  1.0
  C  C1208  1  0.525900  0.258600  0.770400  1.0
  C  C1209  1  0.524400  0.154700  0.026500  1.0
  C  C1210  1  0.975600  0.845300  0.526500  1.0
  C  C1211  1  0.595300  0.774400  0.276500  1.0
  C  C1212  1  0.904700  0.225600  0.776500  1.0
  C  C1213  1  0.024400  0.654700  0.526500  1.0
  C  C1214  1  0.475600  0.345300  0.026500  1.0
  C  C1215  1  0.095300  0.274400  0.776500  1.0
  C  C1216  1  0.404700  0.725600  0.276500  1.0
  C  C1217  1  0.475600  0.845300  0.973500  1.0
  C  C1218  1  0.024400  0.154700  0.473500  1.0
  C  C1219  1  0.404700  0.225600  0.723500  1.0
  C  C1220  1  0.095300  0.774400  0.223500  1.0
  C  C1221  1  0.975600  0.345300  0.473500  1.0
  C  C1222  1  0.524400  0.654700  0.973500  1.0
  C  C1223  1  0.904700  0.725600  0.223500  1.0
  C  C1224  1  0.595300  0.274400  0.723500  1.0
  I  I1225  1  0.477790  0.447950  0.462540  1
  I  I1226  1  0.022210  0.552050  0.962540  1
  I  I1227  1  0.302050  0.727790  0.712540  1
  I  I1228  1  0.197950  0.272210  0.212540  1
  I  I1229  1  0.977790  0.947950  0.962540  1
  I  I1230  1  0.522210  0.052050  0.462540  1
  I  I1231  1  0.802050  0.227790  0.212540  1
  I  I1232  1  0.697950  0.772210  0.712540  1
  I  I1233  1  0.522210  0.552050  0.537460  1
  I  I1234  1  0.977790  0.447950  0.037460  1
  I  I1235  1  0.697950  0.272210  0.287460  1
  I  I1236  1  0.802050  0.727790  0.787460  1
  I  I1237  1  0.022210  0.052050  0.037460  1
  I  I1238  1  0.477790  0.947950  0.537460  1
  I  I1239  1  0.197950  0.772210  0.787460  1
  I  I1240  1  0.302050  0.227790  0.287460  1
  I  I1241  1  0.601810  0.325590  0.374040  1
  I  I1242  1  0.898190  0.674410  0.874040  1
  I  I1243  1  0.424410  0.851810  0.624040  1
  I  I1244  1  0.075590  0.148190  0.124040  1
  I  I1245  1  0.101810  0.825590  0.874040  1
  I  I1246  1  0.398190  0.174410  0.374040  1
  I  I1247  1  0.924410  0.351810  0.124040  1
  I  I1248  1  0.575590  0.648190  0.624040  1
  I  I1249  1  0.398190  0.674410  0.625960  1
  I  I1250  1  0.101810  0.325590  0.125960  1
  I  I1251  1  0.575590  0.148190  0.375960  1
  I  I1252  1  0.924410  0.851810  0.875960  1
  I  I1253  1  0.898190  0.174410  0.125960  1
  I  I1254  1  0.601810  0.825590  0.625960  1
  I  I1255  1  0.075590  0.648190  0.875960  1
  I  I1256  1  0.424410  0.351810  0.375960  1
  N  N1257  1  0.606900  0.426700  0.524700  1
  N  N1258  1  0.893100  0.573300  0.024700  1
  N  N1259  1  0.323300  0.856900  0.774700  1
  N  N1260  1  0.176700  0.143100  0.274700  1
  N  N1261  1  0.106900  0.926700  0.024700  1
  N  N1262  1  0.393100  0.073300  0.524700  1
  N  N1263  1  0.823300  0.356900  0.274700  1
  N  N1264  1  0.676700  0.643100  0.774700  1
  N  N1265  1  0.393100  0.573300  0.475300  1
  N  N1266  1  0.106900  0.426700  0.975300  1
  N  N1267  1  0.676700  0.143100  0.225300  1
  N  N1268  1  0.823300  0.856900  0.725300  1
  N  N1269  1  0.893100  0.073300  0.975300  1
  N  N1270  1  0.606900  0.926700  0.475300  1
  N  N1271  1  0.176700  0.643100  0.725300  1
  N  N1272  1  0.323300  0.356900  0.225300  1
  N  N1273  1  0.183500  0.701300  0.484600  1
  N  N1274  1  0.316500  0.298700  0.984600  1
  N  N1275  1  0.048700  0.433500  0.734600  1
  N  N1276  1  0.451300  0.566500  0.234600  1
  N  N1277  1  0.683500  0.201300  0.984600  1
  N  N1278  1  0.816500  0.798700  0.484600  1
  N  N1279  1  0.548700  0.933500  0.234600  1
  N  N1280  1  0.951300  0.066500  0.734600  1
  N  N1281  1  0.816500  0.298700  0.515400  1
  N  N1282  1  0.683500  0.701300  0.015400  1
  N  N1283  1  0.951300  0.566500  0.265400  1
  N  N1284  1  0.548700  0.433500  0.765400  1
  N  N1285  1  0.316500  0.798700  0.015400  1
  N  N1286  1  0.183500  0.201300  0.515400  1
  N  N1287  1  0.451300  0.066500  0.765400  1
  N  N1288  1  0.048700  0.933500  0.265400  1
  N  N1289  1  0.277200  0.443000  0.554400  1
  N  N1290  1  0.222800  0.557000  0.054400  1
  N  N1291  1  0.307000  0.527200  0.804400  1
  N  N1292  1  0.193000  0.472800  0.304400  1
  N  N1293  1  0.777200  0.943000  0.054400  1
  N  N1294  1  0.722800  0.057000  0.554400  1
  N  N1295  1  0.807000  0.027200  0.304400  1
  N  N1296  1  0.693000  0.972800  0.804400  1
  N  N1297  1  0.722800  0.557000  0.445600  1
  N  N1298  1  0.777200  0.443000  0.945600  1
  N  N1299  1  0.693000  0.472800  0.195600  1
  N  N1300  1  0.807000  0.527200  0.695600  1
  N  N1301  1  0.222800  0.057000  0.945600  1
  N  N1302  1  0.277200  0.943000  0.445600  1
  N  N1303  1  0.193000  0.972800  0.695600  1
  N  N1304  1  0.307000  0.027200  0.195600  1
  N  N1305  1  0.590000  0.416100  0.544400  1
  N  N1306  1  0.910000  0.583900  0.044400  1
  N  N1307  1  0.333900  0.840000  0.794400  1
  N  N1308  1  0.166100  0.160000  0.294400  1
  N  N1309  1  0.090000  0.916100  0.044400  1
  N  N1310  1  0.410000  0.083900  0.544400  1
  N  N1311  1  0.833900  0.340000  0.294400  1
  N  N1312  1  0.666100  0.660000  0.794400  1
  N  N1313  1  0.410000  0.583900  0.455600  1
  N  N1314  1  0.090000  0.416100  0.955600  1
  N  N1315  1  0.666100  0.160000  0.205600  1
  N  N1316  1  0.833900  0.840000  0.705600  1
  N  N1317  1  0.910000  0.083900  0.955600  1
  N  N1318  1  0.590000  0.916100  0.455600  1
  N  N1319  1  0.166100  0.660000  0.705600  1
  N  N1320  1  0.333900  0.340000  0.205600  1
  N  N1321  1  0.265200  0.449000  0.539400  1
  N  N1322  1  0.234800  0.551000  0.039400  1
  N  N1323  1  0.301000  0.515200  0.789400  1
  N  N1324  1  0.199000  0.484800  0.289400  1
  N  N1325  1  0.765200  0.949000  0.039400  1
  N  N1326  1  0.734800  0.051000  0.539400  1
  N  N1327  1  0.801000  0.015200  0.289400  1
  N  N1328  1  0.699000  0.984800  0.789400  1
  N  N1329  1  0.734800  0.551000  0.460600  1
  N  N1330  1  0.765200  0.449000  0.960600  1
  N  N1331  1  0.699000  0.484800  0.210600  1
  N  N1332  1  0.801000  0.515200  0.710600  1
  N  N1333  1  0.234800  0.051000  0.960600  1
  N  N1334  1  0.265200  0.949000  0.460600  1
  N  N1335  1  0.199000  0.984800  0.710600  1
  N  N1336  1  0.301000  0.015200  0.210600  1
  N  N1337  1  0.492300  0.198900  0.019900  1.0
  N  N1338  1  0.007700  0.801100  0.519900  1.0
  N  N1339  1  0.551100  0.742300  0.269900  1.0
  N  N1340  1  0.948900  0.257700  0.769900  1.0
  N  N1341  1  0.992300  0.698900  0.519900  1.0
  N  N1342  1  0.507700  0.301100  0.019900  1.0
  N  N1343  1  0.051100  0.242300  0.769900  1.0
  N  N1344  1  0.448900  0.757700  0.269900  1.0
  N  N1345  1  0.507700  0.801100  0.980100  1.0
  N  N1346  1  0.992300  0.198900  0.480100  1.0
  N  N1347  1  0.448900  0.257700  0.730100  1.0
  N  N1348  1  0.051100  0.742300  0.230100  1.0
  N  N1349  1  0.007700  0.301100  0.480100  1.0
  N  N1350  1  0.492300  0.698900  0.980100  1.0
  N  N1351  1  0.948900  0.757700  0.230100  1.0
  N  N1352  1  0.551100  0.242300  0.730100  1.0
  N  N1353  1  0.508000  0.300700  0.117460  1.0
  N  N1354  1  0.992000  0.699300  0.617460  1.0
  N  N1355  1  0.449300  0.758000  0.367460  1.0
  N  N1356  1  0.050700  0.242000  0.867460  1.0
  N  N1357  1  0.008000  0.800700  0.617460  1.0
  N  N1358  1  0.492000  0.199300  0.117460  1.0
  N  N1359  1  0.949300  0.258000  0.867460  1.0
  N  N1360  1  0.550700  0.742000  0.367460  1.0
  N  N1361  1  0.492000  0.699300  0.882540  1.0
  N  N1362  1  0.008000  0.300700  0.382540  1.0
  N  N1363  1  0.550700  0.242000  0.632540  1.0
  N  N1364  1  0.949300  0.758000  0.132540  1.0
  N  N1365  1  0.992000  0.199300  0.382540  1.0
  N  N1366  1  0.508000  0.800700  0.882540  1.0
  N  N1367  1  0.050700  0.742000  0.132540  1.0
  N  N1368  1  0.449300  0.258000  0.632540  1.0
  N  N1369  1  0.301800  0.593500  0.343200  1.0
  N  N1370  1  0.198200  0.406500  0.843200  1.0
  N  N1371  1  0.156500  0.551800  0.593200  1.0
  N  N1372  1  0.343500  0.448200  0.093200  1.0
  N  N1373  1  0.801800  0.093500  0.843200  1.0
  N  N1374  1  0.698200  0.906500  0.343200  1.0
  N  N1375  1  0.656500  0.051800  0.093200  1.0
  N  N1376  1  0.843500  0.948200  0.593200  1.0
  N  N1377  1  0.698200  0.406500  0.656800  1.0
  N  N1378  1  0.801800  0.593500  0.156800  1.0
  N  N1379  1  0.843500  0.448200  0.406800  1.0
  N  N1380  1  0.656500  0.551800  0.906800  1.0
  N  N1381  1  0.198200  0.906500  0.156800  1.0
  N  N1382  1  0.301800  0.093500  0.656800  1.0
  N  N1383  1  0.343500  0.948200  0.906800  1.0
  N  N1384  1  0.156500  0.051800  0.406800  1.0
  N  N1385  1  0.241900  0.553900  0.409020  1.0
  N  N1386  1  0.258100  0.446100  0.909020  1.0
  N  N1387  1  0.196100  0.491900  0.659020  1.0
  N  N1388  1  0.303900  0.508100  0.159020  1.0
  N  N1389  1  0.741900  0.053900  0.909020  1.0
  N  N1390  1  0.758100  0.946100  0.409020  1.0
  N  N1391  1  0.696100  0.991900  0.159020  1.0
  N  N1392  1  0.803900  0.008100  0.659020  1.0
  N  N1393  1  0.758100  0.446100  0.590980  1.0
  N  N1394  1  0.741900  0.553900  0.090980  1.0
  N  N1395  1  0.803900  0.508100  0.340980  1.0
  N  N1396  1  0.696100  0.491900  0.840980  1.0
  N  N1397  1  0.258100  0.946100  0.090980  1.0
  N  N1398  1  0.241900  0.053900  0.590980  1.0
  N  N1399  1  0.303900  0.008100  0.840980  1.0
  N  N1400  1  0.196100  0.991900  0.340980  1.0
  N  N1401  1  0.712200  0.445800  0.339720  1.0
  N  N1402  1  0.787800  0.554200  0.839720  1.0
  N  N1403  1  0.304200  0.962200  0.589720  1.0
  N  N1404  1  0.195800  0.037800  0.089720  1.0
  N  N1405  1  0.212200  0.945800  0.839720  1.0
  N  N1406  1  0.287800  0.054200  0.339720  1.0
  N  N1407  1  0.804200  0.462200  0.089720  1.0
  N  N1408  1  0.695800  0.537800  0.589720  1.0
  N  N1409  1  0.287800  0.554200  0.660280  1.0
  N  N1410  1  0.212200  0.445800  0.160280  1.0
  N  N1411  1  0.695800  0.037800  0.410280  1.0
  N  N1412  1  0.804200  0.962200  0.910280  1.0
  N  N1413  1  0.787800  0.054200  0.160280  1.0
  N  N1414  1  0.712200  0.945800  0.660280  1.0
  N  N1415  1  0.195800  0.537800  0.910280  1.0
  N  N1416  1  0.304200  0.462200  0.410280  1.0
  N  N1417  1  0.363800  0.501440  0.343940  1.0
  N  N1418  1  0.136200  0.498560  0.843940  1.0
  N  N1419  1  0.248560  0.613800  0.593940  1.0
  N  N1420  1  0.251440  0.386200  0.093940  1.0
  N  N1421  1  0.863800  0.001440  0.843940  1.0
  N  N1422  1  0.636200  0.998560  0.343940  1.0
  N  N1423  1  0.748560  0.113800  0.093940  1.0
  N  N1424  1  0.751440  0.886200  0.593940  1.0
  N  N1425  1  0.636200  0.498560  0.656060  1.0
  N  N1426  1  0.863800  0.501440  0.156060  1.0
  N  N1427  1  0.751440  0.386200  0.406060  1.0
  N  N1428  1  0.748560  0.613800  0.906060  1.0
  N  N1429  1  0.136200  0.998560  0.156060  1.0
  N  N1430  1  0.363800  0.001440  0.656060  1.0
  N  N1431  1  0.251440  0.886200  0.906060  1.0
  N  N1432  1  0.248560  0.113800  0.406060  1.0
  N  N1433  1  0.482700  0.414300  0.244090  1.0
  N  N1434  1  0.017300  0.585700  0.744090  1.0
  N  N1435  1  0.335700  0.732700  0.494090  1.0
  N  N1436  1  0.164300  0.267300  0.994090  1.0
  N  N1437  1  0.982700  0.914300  0.744090  1.0
  N  N1438  1  0.517300  0.085700  0.244090  1.0
  N  N1439  1  0.835700  0.232700  0.994090  1.0
  N  N1440  1  0.664300  0.767300  0.494090  1.0
  N  N1441  1  0.517300  0.585700  0.755910  1.0
  N  N1442  1  0.982700  0.414300  0.255910  1.0
  N  N1443  1  0.664300  0.267300  0.505910  1.0
  N  N1444  1  0.835700  0.732700  0.005910  1.0
  N  N1445  1  0.017300  0.085700  0.255910  1.0
  N  N1446  1  0.482700  0.914300  0.755910  1.0
  N  N1447  1  0.164300  0.767300  0.005910  1.0
  N  N1448  1  0.335700  0.232700  0.505910  1.0
  N  N1449  1  0.534300  0.453000  0.296720  1.0
  N  N1450  1  0.965700  0.547000  0.796720  1.0
  N  N1451  1  0.297000  0.784300  0.546720  1.0
  N  N1452  1  0.203000  0.215700  0.046720  1.0
  N  N1453  1  0.034300  0.953000  0.796720  1.0
  N  N1454  1  0.465700  0.047000  0.296720  1.0
  N  N1455  1  0.797000  0.284300  0.046720  1.0
  N  N1456  1  0.703000  0.715700  0.546720  1.0
  N  N1457  1  0.465700  0.547000  0.703280  1.0
  N  N1458  1  0.034300  0.453000  0.203280  1.0
  N  N1459  1  0.703000  0.215700  0.453280  1.0
  N  N1460  1  0.797000  0.784300  0.953280  1.0
  N  N1461  1  0.965700  0.047000  0.203280  1.0
  N  N1462  1  0.534300  0.953000  0.703280  1.0
  N  N1463  1  0.203000  0.715700  0.953280  1.0
  N  N1464  1  0.297000  0.284300  0.453280  1.0
  N  N1465  1  0.569800  0.401200  0.243170  1.0
  N  N1466  1  0.930200  0.598800  0.743170  1.0
  N  N1467  1  0.348800  0.819800  0.493170  1.0
  N  N1468  1  0.151200  0.180200  0.993170  1.0
  N  N1469  1  0.069800  0.901200  0.743170  1.0
  N  N1470  1  0.430200  0.098800  0.243170  1.0
  N  N1471  1  0.848800  0.319800  0.993170  1.0
  N  N1472  1  0.651200  0.680200  0.493170  1.0
  N  N1473  1  0.430200  0.598800  0.756830  1.0
  N  N1474  1  0.069800  0.401200  0.256830  1.0
  N  N1475  1  0.651200  0.180200  0.506830  1.0
  N  N1476  1  0.848800  0.819800  0.006830  1.0
  N  N1477  1  0.930200  0.098800  0.256830  1.0
  N  N1478  1  0.569800  0.901200  0.756830  1.0
  N  N1479  1  0.151200  0.680200  0.006830  1.0
  N  N1480  1  0.348800  0.319800  0.506830  1.0
  O  O1481  1  0.513800  0.402100  0.599500  1
  O  O1482  1  0.986200  0.597900  0.099500  1
  O  O1483  1  0.347900  0.763800  0.849500  1
  O  O1484  1  0.152100  0.236200  0.349500  1
  O  O1485  1  0.013800  0.902100  0.099500  1
  O  O1486  1  0.486200  0.097900  0.599500  1
  O  O1487  1  0.847900  0.263800  0.349500  1
  O  O1488  1  0.652100  0.736200  0.849500  1
  O  O1489  1  0.486200  0.597900  0.400500  1
  O  O1490  1  0.013800  0.402100  0.900500  1
  O  O1491  1  0.652100  0.236200  0.150500  1
  O  O1492  1  0.847900  0.763800  0.650500  1
  O  O1493  1  0.986200  0.097900  0.900500  1
  O  O1494  1  0.513800  0.902100  0.400500  1
  O  O1495  1  0.152100  0.736200  0.650500  1
  O  O1496  1  0.347900  0.263800  0.150500  1
  O  O1497  1  0.416000  0.439800  0.598100  1
  O  O1498  1  0.084000  0.560200  0.098100  1
  O  O1499  1  0.310200  0.666000  0.848100  1
  O  O1500  1  0.189800  0.334000  0.348100  1
  O  O1501  1  0.916000  0.939800  0.098100  1
  O  O1502  1  0.584000  0.060200  0.598100  1
  O  O1503  1  0.810200  0.166000  0.348100  1
  O  O1504  1  0.689800  0.834000  0.848100  1
  O  O1505  1  0.584000  0.560200  0.401900  1
  O  O1506  1  0.916000  0.439800  0.901900  1
  O  O1507  1  0.689800  0.334000  0.151900  1
  O  O1508  1  0.810200  0.666000  0.651900  1
  O  O1509  1  0.084000  0.060200  0.901900  1
  O  O1510  1  0.416000  0.939800  0.401900  1
  O  O1511  1  0.189800  0.834000  0.651900  1
  O  O1512  1  0.310200  0.166000  0.151900  1
  O  O1513  1  0.384200  0.502900  0.547900  1
  O  O1514  1  0.115800  0.497100  0.047900  1
  O  O1515  1  0.247100  0.634200  0.797900  1
  O  O1516  1  0.252900  0.365800  0.297900  1
  O  O1517  1  0.884200  0.002900  0.047900  1
  O  O1518  1  0.615800  0.997100  0.547900  1
  O  O1519  1  0.747100  0.134200  0.297900  1
  O  O1520  1  0.752900  0.865800  0.797900  1
  O  O1521  1  0.615800  0.497100  0.452100  1
  O  O1522  1  0.884200  0.502900  0.952100  1
  O  O1523  1  0.752900  0.365800  0.202100  1
  O  O1524  1  0.747100  0.634200  0.702100  1
  O  O1525  1  0.115800  0.997100  0.952100  1
  O  O1526  1  0.384200  0.002900  0.452100  1
  O  O1527  1  0.252900  0.865800  0.702100  1
  O  O1528  1  0.247100  0.134200  0.202100  1
  O  O1529  1  0.576000  0.455200  0.541100  1
  O  O1530  1  0.924000  0.544800  0.041100  1
  O  O1531  1  0.294800  0.826000  0.791100  1
  O  O1532  1  0.205200  0.174000  0.291100  1
  O  O1533  1  0.076000  0.955200  0.041100  1
  O  O1534  1  0.424000  0.044800  0.541100  1
  O  O1535  1  0.794800  0.326000  0.291100  1
  O  O1536  1  0.705200  0.674000  0.791100  1
  O  O1537  1  0.424000  0.544800  0.458900  1
  O  O1538  1  0.076000  0.455200  0.958900  1
  O  O1539  1  0.705200  0.174000  0.208900  1
  O  O1540  1  0.794800  0.826000  0.708900  1
  O  O1541  1  0.924000  0.044800  0.958900  1
  O  O1542  1  0.576000  0.955200  0.458900  1
  O  O1543  1  0.205200  0.674000  0.708900  1
  O  O1544  1  0.294800  0.326000  0.208900  1
  O  O1545  1  0.627300  0.437600  0.489600  1
  O  O1546  1  0.872700  0.562400  0.989600  1
  O  O1547  1  0.312400  0.877300  0.739600  1
  O  O1548  1  0.187600  0.122700  0.239600  1
  O  O1549  1  0.127300  0.937600  0.989600  1
  O  O1550  1  0.372700  0.062400  0.489600  1
  O  O1551  1  0.812400  0.377300  0.239600  1
  O  O1552  1  0.687600  0.622700  0.739600  1
  O  O1553  1  0.372700  0.562400  0.510400  1
  O  O1554  1  0.127300  0.437600  0.010400  1
  O  O1555  1  0.687600  0.122700  0.260400  1
  O  O1556  1  0.812400  0.877300  0.760400  1
  O  O1557  1  0.872700  0.062400  0.010400  1
  O  O1558  1  0.627300  0.937600  0.510400  1
  O  O1559  1  0.187600  0.622700  0.760400  1
  O  O1560  1  0.312400  0.377300  0.260400  1
  O  O1561  1  0.620800  0.390500  0.545500  1
  O  O1562  1  0.879200  0.609500  0.045500  1
  O  O1563  1  0.359500  0.870800  0.795500  1
  O  O1564  1  0.140500  0.129200  0.295500  1
  O  O1565  1  0.120800  0.890500  0.045500  1
  O  O1566  1  0.379200  0.109500  0.545500  1
  O  O1567  1  0.859500  0.370800  0.295500  1
  O  O1568  1  0.640500  0.629200  0.795500  1
  O  O1569  1  0.379200  0.609500  0.454500  1
  O  O1570  1  0.120800  0.390500  0.954500  1
  O  O1571  1  0.640500  0.129200  0.204500  1
  O  O1572  1  0.859500  0.870800  0.704500  1
  O  O1573  1  0.879200  0.109500  0.954500  1
  O  O1574  1  0.620800  0.890500  0.454500  1
  O  O1575  1  0.140500  0.629200  0.704500  1
  O  O1576  1  0.359500  0.370800  0.204500  1
  O  O1577  1  0.007900  0.439500  0.407800  1
  O  O1578  1  0.492100  0.560500  0.907800  1
  O  O1579  1  0.310500  0.257900  0.657800  1
  O  O1580  1  0.189500  0.742100  0.157800  1
  O  O1581  1  0.507900  0.939500  0.907800  1
  O  O1582  1  0.992100  0.060500  0.407800  1
  O  O1583  1  0.810500  0.757900  0.157800  1
  O  O1584  1  0.689500  0.242100  0.657800  1
  O  O1585  1  0.992100  0.560500  0.592200  1
  O  O1586  1  0.507900  0.439500  0.092200  1
  O  O1587  1  0.689500  0.742100  0.342200  1
  O  O1588  1  0.810500  0.257900  0.842200  1
  O  O1589  1  0.492100  0.060500  0.092200  1
  O  O1590  1  0.007900  0.939500  0.592200  1
  O  O1591  1  0.189500  0.242100  0.842200  1
  O  O1592  1  0.310500  0.757900  0.342200  1
  O  O1593  1  0.085600  0.660900  0.374000  1
  O  O1594  1  0.414400  0.339100  0.874000  1
  O  O1595  1  0.089100  0.335600  0.624000  1
  O  O1596  1  0.410900  0.664400  0.124000  1
  O  O1597  1  0.585600  0.160900  0.874000  1
  O  O1598  1  0.914400  0.839100  0.374000  1
  O  O1599  1  0.589100  0.835600  0.124000  1
  O  O1600  1  0.910900  0.164400  0.624000  1
  O  O1601  1  0.914400  0.339100  0.626000  1
  O  O1602  1  0.585600  0.660900  0.126000  1
  O  O1603  1  0.910900  0.664400  0.376000  1
  O  O1604  1  0.589100  0.335600  0.876000  1
  O  O1605  1  0.414400  0.839100  0.126000  1
  O  O1606  1  0.085600  0.160900  0.626000  1
  O  O1607  1  0.410900  0.164400  0.876000  1
  O  O1608  1  0.089100  0.835600  0.376000  1
  O  O1609  1  0.254100  0.741200  0.397500  1
  O  O1610  1  0.245900  0.258800  0.897500  1
  O  O1611  1  0.008800  0.504100  0.647500  1
  O  O1612  1  0.491200  0.495900  0.147500  1
  O  O1613  1  0.754100  0.241200  0.897500  1
  O  O1614  1  0.745900  0.758800  0.397500  1
  O  O1615  1  0.508800  0.004100  0.147500  1
  O  O1616  1  0.991200  0.995900  0.647500  1
  O  O1617  1  0.745900  0.258800  0.602500  1
  O  O1618  1  0.754100  0.741200  0.102500  1
  O  O1619  1  0.991200  0.495900  0.352500  1
  O  O1620  1  0.508800  0.504100  0.852500  1
  O  O1621  1  0.245900  0.758800  0.102500  1
  O  O1622  1  0.254100  0.241200  0.602500  1
  O  O1623  1  0.491200  0.995900  0.852500  1
  O  O1624  1  0.008800  0.004100  0.352500  1
  O  O1625  1  0.208700  0.690300  0.450100  1
  O  O1626  1  0.291300  0.309700  0.950100  1
  O  O1627  1  0.059700  0.458700  0.700100  1
  O  O1628  1  0.440300  0.541300  0.200100  1
  O  O1629  1  0.708700  0.190300  0.950100  1
  O  O1630  1  0.791300  0.809700  0.450100  1
  O  O1631  1  0.559700  0.958700  0.200100  1
  O  O1632  1  0.940300  0.041300  0.700100  1
  O  O1633  1  0.791300  0.309700  0.549900  1
  O  O1634  1  0.708700  0.690300  0.049900  1
  O  O1635  1  0.940300  0.541300  0.299900  1
  O  O1636  1  0.559700  0.458700  0.799900  1
  O  O1637  1  0.291300  0.809700  0.049900  1
  O  O1638  1  0.208700  0.190300  0.549900  1
  O  O1639  1  0.440300  0.041300  0.799900  1
  O  O1640  1  0.059700  0.958700  0.299900  1
  O  O1641  1  0.193000  0.744200  0.499400  1
  O  O1642  1  0.307000  0.255800  0.999400  1
  O  O1643  1  0.005800  0.443000  0.749400  1
  O  O1644  1  0.494200  0.557000  0.249400  1
  O  O1645  1  0.693000  0.244200  0.999400  1
  O  O1646  1  0.807000  0.755800  0.499400  1
  O  O1647  1  0.505800  0.943000  0.249400  1
  O  O1648  1  0.994200  0.057000  0.749400  1
  O  O1649  1  0.807000  0.255800  0.500600  1
  O  O1650  1  0.693000  0.744200  0.000600  1
  O  O1651  1  0.994200  0.557000  0.250600  1
  O  O1652  1  0.505800  0.443000  0.750600  1
  O  O1653  1  0.307000  0.755800  0.000600  1
  O  O1654  1  0.193000  0.244200  0.500600  1
  O  O1655  1  0.494200  0.057000  0.750600  1
  O  O1656  1  0.005800  0.943000  0.250600  1
  O  O1657  1  0.166000  0.668600  0.504900  1
  O  O1658  1  0.334000  0.331400  0.004900  1
  O  O1659  1  0.081400  0.416000  0.754900  1
  O  O1660  1  0.418600  0.584000  0.254900  1
  O  O1661  1  0.666000  0.168600  0.004900  1
  O  O1662  1  0.834000  0.831400  0.504900  1
  O  O1663  1  0.581400  0.916000  0.254900  1
  O  O1664  1  0.918600  0.084000  0.754900  1
  O  O1665  1  0.834000  0.331400  0.495100  1
  O  O1666  1  0.666000  0.668600  0.995100  1
  O  O1667  1  0.918600  0.584000  0.245100  1
  O  O1668  1  0.581400  0.416000  0.745100  1
  O  O1669  1  0.334000  0.831400  0.995100  1
  O  O1670  1  0.166000  0.168600  0.495100  1
  O  O1671  1  0.418600  0.084000  0.745100  1
  O  O1672  1  0.081400  0.916000  0.245100  1
  O  O1673  1  0.249900  0.795300  0.427500  1
  O  O1674  1  0.250100  0.204700  0.927500  1
  O  O1675  1  0.954700  0.499900  0.677500  1
  O  O1676  1  0.545300  0.500100  0.177500  1
  O  O1677  1  0.749900  0.295300  0.927500  1
  O  O1678  1  0.750100  0.704700  0.427500  1
  O  O1679  1  0.454700  0.999900  0.177500  1
  O  O1680  1  0.045300  0.000100  0.677500  1
  O  O1681  1  0.750100  0.204700  0.572500  1
  O  O1682  1  0.749900  0.795300  0.072500  1
  O  O1683  1  0.045300  0.500100  0.322500  1
  O  O1684  1  0.454700  0.499900  0.822500  1
  O  O1685  1  0.250100  0.704700  0.072500  1
  O  O1686  1  0.249900  0.295300  0.572500  1
  O  O1687  1  0.545300  0.000100  0.822500  1
  O  O1688  1  0.954700  0.999900  0.322500  1
  O  O1689  1  0.088000  0.753200  0.392100  1
  O  O1690  1  0.412000  0.246800  0.892100  1
  O  O1691  1  0.996800  0.338000  0.642100  1
  O  O1692  1  0.503200  0.662000  0.142100  1
  O  O1693  1  0.588000  0.253200  0.892100  1
  O  O1694  1  0.912000  0.746800  0.392100  1
  O  O1695  1  0.496800  0.838000  0.142100  1
  O  O1696  1  0.003200  0.162000  0.642100  1
  O  O1697  1  0.912000  0.246800  0.607900  1
  O  O1698  1  0.588000  0.753200  0.107900  1
  O  O1699  1  0.003200  0.662000  0.357900  1
  O  O1700  1  0.496800  0.338000  0.857900  1
  O  O1701  1  0.412000  0.746800  0.107900  1
  O  O1702  1  0.088000  0.253200  0.607900  1
  O  O1703  1  0.503200  0.162000  0.857900  1
  O  O1704  1  0.996800  0.838000  0.357900  1
  O  O1705  1  0.200400  0.654300  0.176400  1
  O  O1706  1  0.299600  0.345700  0.676400  1
  O  O1707  1  0.095700  0.450400  0.426400  1
  O  O1708  1  0.404300  0.549600  0.926400  1
  O  O1709  1  0.700400  0.154300  0.676400  1
  O  O1710  1  0.799600  0.845700  0.176400  1
  O  O1711  1  0.595700  0.950400  0.926400  1
  O  O1712  1  0.904300  0.049600  0.426400  1
  O  O1713  1  0.799600  0.345700  0.823600  1
  O  O1714  1  0.700400  0.654300  0.323600  1
  O  O1715  1  0.904300  0.549600  0.573600  1
  O  O1716  1  0.595700  0.450400  0.073600  1
  O  O1717  1  0.299600  0.845700  0.323600  1
  O  O1718  1  0.200400  0.154300  0.823600  1
  O  O1719  1  0.404300  0.049600  0.073600  1
  O  O1720  1  0.095700  0.950400  0.573600  1
  O  O1721  1  0.293700  0.700800  0.250300  1
  O  O1722  1  0.206300  0.299200  0.750300  1
  O  O1723  1  0.049200  0.543700  0.500300  1
  O  O1724  1  0.450800  0.456300  0.000300  1
  O  O1725  1  0.793700  0.200800  0.750300  1
  O  O1726  1  0.706300  0.799200  0.250300  1
  O  O1727  1  0.549200  0.043700  0.000300  1
  O  O1728  1  0.950800  0.956300  0.500300  1
  O  O1729  1  0.706300  0.299200  0.749700  1
  O  O1730  1  0.793700  0.700800  0.249700  1
  O  O1731  1  0.950800  0.456300  0.499700  1
  O  O1732  1  0.549200  0.543700  0.999700  1
  O  O1733  1  0.206300  0.799200  0.249700  1
  O  O1734  1  0.293700  0.200800  0.749700  1
  O  O1735  1  0.450800  0.956300  0.999700  1
  O  O1736  1  0.049200  0.043700  0.499700  1
  O  O1737  1  0.118200  0.594300  0.163800  1
  O  O1738  1  0.381800  0.405700  0.663800  1
  O  O1739  1  0.155700  0.368200  0.413800  1
  O  O1740  1  0.344300  0.631800  0.913800  1
  O  O1741  1  0.618200  0.094300  0.663800  1
  O  O1742  1  0.881800  0.905700  0.163800  1
  O  O1743  1  0.655700  0.868200  0.913800  1
  O  O1744  1  0.844300  0.131800  0.413800  1
  O  O1745  1  0.881800  0.405700  0.836200  1
  O  O1746  1  0.618200  0.594300  0.336200  1
  O  O1747  1  0.844300  0.631800  0.586200  1
  O  O1748  1  0.655700  0.368200  0.086200  1
  O  O1749  1  0.381800  0.905700  0.336200  1
  O  O1750  1  0.118200  0.094300  0.836200  1
  O  O1751  1  0.344300  0.131800  0.086200  1
  O  O1752  1  0.155700  0.868200  0.586200  1
  O  O1753  1  0.151200  0.648100  0.312500  1
  O  O1754  1  0.348800  0.351900  0.812500  1
  O  O1755  1  0.101900  0.401200  0.562500  1
  O  O1756  1  0.398100  0.598800  0.062500  1
  O  O1757  1  0.651200  0.148100  0.812500  1
  O  O1758  1  0.848800  0.851900  0.312500  1
  O  O1759  1  0.601900  0.901200  0.062500  1
  O  O1760  1  0.898100  0.098800  0.562500  1
  O  O1761  1  0.848800  0.351900  0.687500  1
  O  O1762  1  0.651200  0.648100  0.187500  1
  O  O1763  1  0.898100  0.598800  0.437500  1
  O  O1764  1  0.601900  0.401200  0.937500  1
  O  O1765  1  0.348800  0.851900  0.187500  1
  O  O1766  1  0.151200  0.148100  0.687500  1
  O  O1767  1  0.398100  0.098800  0.937500  1
  O  O1768  1  0.101900  0.901200  0.437500  1
  O  O1769  1  0.154800  0.586600  0.237500  1
  O  O1770  1  0.345200  0.413400  0.737500  1
  O  O1771  1  0.163400  0.404800  0.487500  1
  O  O1772  1  0.336600  0.595200  0.987500  1
  O  O1773  1  0.654800  0.086600  0.737500  1
  O  O1774  1  0.845200  0.913400  0.237500  1
  O  O1775  1  0.663400  0.904800  0.987500  1
  O  O1776  1  0.836600  0.095200  0.487500  1
  O  O1777  1  0.845200  0.413400  0.762500  1
  O  O1778  1  0.654800  0.586600  0.262500  1
  O  O1779  1  0.836600  0.595200  0.512500  1
  O  O1780  1  0.663400  0.404800  0.012500  1
  O  O1781  1  0.345200  0.913400  0.262500  1
  O  O1782  1  0.154800  0.086600  0.762500  1
  O  O1783  1  0.336600  0.095200  0.012500  1
  O  O1784  1  0.163400  0.904800  0.512500  1
  O  O1785  1  0.312600  0.424900  0.574500  1
  O  O1786  1  0.187400  0.575100  0.074500  1
  O  O1787  1  0.325100  0.562600  0.824500  1
  O  O1788  1  0.174900  0.437400  0.324500  1
  O  O1789  1  0.812600  0.924900  0.074500  1
  O  O1790  1  0.687400  0.075100  0.574500  1
  O  O1791  1  0.825100  0.062600  0.324500  1
  O  O1792  1  0.674900  0.937400  0.824500  1
  O  O1793  1  0.687400  0.575100  0.425500  1
  O  O1794  1  0.812600  0.424900  0.925500  1
  O  O1795  1  0.674900  0.437400  0.175500  1
  O  O1796  1  0.825100  0.562600  0.675500  1
  O  O1797  1  0.187400  0.075100  0.925500  1
  O  O1798  1  0.312600  0.924900  0.425500  1
  O  O1799  1  0.174900  0.937400  0.675500  1
  O  O1800  1  0.325100  0.062600  0.175500  1
  O  O1801  1  0.279000  0.487400  0.543800  1
  O  O1802  1  0.221000  0.512600  0.043800  1
  O  O1803  1  0.262600  0.529000  0.793800  1
  O  O1804  1  0.237400  0.471000  0.293800  1
  O  O1805  1  0.779000  0.987400  0.043800  1
  O  O1806  1  0.721000  0.012600  0.543800  1
  O  O1807  1  0.762600  0.029000  0.293800  1
  O  O1808  1  0.737400  0.971000  0.793800  1
  O  O1809  1  0.721000  0.512600  0.456200  1
  O  O1810  1  0.779000  0.487400  0.956200  1
  O  O1811  1  0.737400  0.471000  0.206200  1
  O  O1812  1  0.762600  0.529000  0.706200  1
  O  O1813  1  0.221000  0.012600  0.956200  1
  O  O1814  1  0.279000  0.987400  0.456200  1
  O  O1815  1  0.237400  0.971000  0.706200  1
  O  O1816  1  0.262600  0.029000  0.206200  1
  O  O1817  1  0.241000  0.417000  0.544000  1
  O  O1818  1  0.259000  0.583000  0.044000  1
  O  O1819  1  0.333000  0.491000  0.794000  1
  O  O1820  1  0.167000  0.509000  0.294000  1
  O  O1821  1  0.741000  0.917000  0.044000  1
  O  O1822  1  0.759000  0.083000  0.544000  1
  O  O1823  1  0.833000  0.991000  0.294000  1
  O  O1824  1  0.667000  0.009000  0.794000  1
  O  O1825  1  0.759000  0.583000  0.456000  1
  O  O1826  1  0.741000  0.417000  0.956000  1
  O  O1827  1  0.667000  0.509000  0.206000  1
  O  O1828  1  0.833000  0.491000  0.706000  1
  O  O1829  1  0.259000  0.083000  0.956000  1
  O  O1830  1  0.241000  0.917000  0.456000  1
  O  O1831  1  0.167000  0.009000  0.706000  1
  O  O1832  1  0.333000  0.991000  0.206000  1
  O  O1833  1  0.117400  0.618300  0.447000  1
  O  O1834  1  0.382600  0.381700  0.947000  1
  O  O1835  1  0.131700  0.367400  0.697000  1
  O  O1836  1  0.368300  0.632600  0.197000  1
  O  O1837  1  0.617400  0.118300  0.947000  1
  O  O1838  1  0.882600  0.881700  0.447000  1
  O  O1839  1  0.631700  0.867400  0.197000  1
  O  O1840  1  0.868300  0.132600  0.697000  1
  O  O1841  1  0.882600  0.381700  0.553000  1
  O  O1842  1  0.617400  0.618300  0.053000  1
  O  O1843  1  0.868300  0.632600  0.303000  1
  O  O1844  1  0.631700  0.367400  0.803000  1
  O  O1845  1  0.382600  0.881700  0.053000  1
  O  O1846  1  0.117400  0.118300  0.553000  1
  O  O1847  1  0.368300  0.132600  0.803000  1
  O  O1848  1  0.131700  0.867400  0.303000  1
  O  O1849  1  0.122900  0.725200  0.574700  1
  O  O1850  1  0.377100  0.274800  0.074700  1
  O  O1851  1  0.024800  0.372900  0.824700  1
  O  O1852  1  0.475200  0.627100  0.324700  1
  O  O1853  1  0.622900  0.225200  0.074700  1
  O  O1854  1  0.877100  0.774800  0.574700  1
  O  O1855  1  0.524800  0.872900  0.324700  1
  O  O1856  1  0.975200  0.127100  0.824700  1
  O  O1857  1  0.877100  0.274800  0.425300  1
  O  O1858  1  0.622900  0.725200  0.925300  1
  O  O1859  1  0.975200  0.627100  0.175300  1
  O  O1860  1  0.524800  0.372900  0.675300  1
  O  O1861  1  0.377100  0.774800  0.925300  1
  O  O1862  1  0.122900  0.225200  0.425300  1
  O  O1863  1  0.475200  0.127100  0.675300  1
  O  O1864  1  0.024800  0.872900  0.175300  1
  O  O1865  1  0.575900  0.456000  0.528400  1
  O  O1866  1  0.924100  0.544000  0.028400  1
  O  O1867  1  0.294000  0.825900  0.778400  1
  O  O1868  1  0.206000  0.174100  0.278400  1
  O  O1869  1  0.075900  0.956000  0.028400  1
  O  O1870  1  0.424100  0.044000  0.528400  1
  O  O1871  1  0.794000  0.325900  0.278400  1
  O  O1872  1  0.706000  0.674100  0.778400  1
  O  O1873  1  0.424100  0.544000  0.471600  1
  O  O1874  1  0.075900  0.456000  0.971600  1
  O  O1875  1  0.706000  0.174100  0.221600  1
  O  O1876  1  0.794000  0.825900  0.721600  1
  O  O1877  1  0.924100  0.044000  0.971600  1
  O  O1878  1  0.575900  0.956000  0.471600  1
  O  O1879  1  0.206000  0.674100  0.721600  1
  O  O1880  1  0.294000  0.325900  0.221600  1
  O  O1881  1  0.561500  0.393300  0.569300  1
  O  O1882  1  0.938500  0.606700  0.069300  1
  O  O1883  1  0.356700  0.811500  0.819300  1
  O  O1884  1  0.143300  0.188500  0.319300  1
  O  O1885  1  0.061500  0.893300  0.069300  1
  O  O1886  1  0.438500  0.106700  0.569300  1
  O  O1887  1  0.856700  0.311500  0.319300  1
  O  O1888  1  0.643300  0.688500  0.819300  1
  O  O1889  1  0.438500  0.606700  0.430700  1
  O  O1890  1  0.061500  0.393300  0.930700  1
  O  O1891  1  0.643300  0.188500  0.180700  1
  O  O1892  1  0.856700  0.811500  0.680700  1
  O  O1893  1  0.938500  0.106700  0.930700  1
  O  O1894  1  0.561500  0.893300  0.430700  1
  O  O1895  1  0.143300  0.688500  0.680700  1
  O  O1896  1  0.356700  0.311500  0.180700  1
  O  O1897  1  0.633600  0.403500  0.540000  1
  O  O1898  1  0.866400  0.596500  0.040000  1
  O  O1899  1  0.346500  0.883600  0.790000  1
  O  O1900  1  0.153500  0.116400  0.290000  1
  O  O1901  1  0.133600  0.903500  0.040000  1
  O  O1902  1  0.366400  0.096500  0.540000  1
  O  O1903  1  0.846500  0.383600  0.290000  1
  O  O1904  1  0.653500  0.616400  0.790000  1
  O  O1905  1  0.366400  0.596500  0.460000  1
  O  O1906  1  0.133600  0.403500  0.960000  1
  O  O1907  1  0.653500  0.116400  0.210000  1
  O  O1908  1  0.846500  0.883600  0.710000  1
  O  O1909  1  0.866400  0.096500  0.960000  1
  O  O1910  1  0.633600  0.903500  0.460000  1
  O  O1911  1  0.153500  0.616400  0.710000  1
  O  O1912  1  0.346500  0.383600  0.210000  1
  O  O1913  1  0.474000  0.433200  0.601500  1
  O  O1914  1  0.026000  0.566800  0.101500  1
  O  O1915  1  0.316800  0.724000  0.851500  1
  O  O1916  1  0.183200  0.276000  0.351500  1
  O  O1917  1  0.974000  0.933200  0.101500  1
  O  O1918  1  0.526000  0.066800  0.601500  1
  O  O1919  1  0.816800  0.224000  0.351500  1
  O  O1920  1  0.683200  0.776000  0.851500  1
  O  O1921  1  0.526000  0.566800  0.398500  1
  O  O1922  1  0.974000  0.433200  0.898500  1
  O  O1923  1  0.683200  0.276000  0.148500  1
  O  O1924  1  0.816800  0.724000  0.648500  1
  O  O1925  1  0.026000  0.066800  0.898500  1
  O  O1926  1  0.474000  0.933200  0.398500  1
  O  O1927  1  0.183200  0.776000  0.648500  1
  O  O1928  1  0.316800  0.224000  0.148500  1
  O  O1929  1  0.395900  0.474300  0.557700  1
  O  O1930  1  0.104100  0.525700  0.057700  1
  O  O1931  1  0.275700  0.645900  0.807700  1
  O  O1932  1  0.224300  0.354100  0.307700  1
  O  O1933  1  0.895900  0.974300  0.057700  1
  O  O1934  1  0.604100  0.025700  0.557700  1
  O  O1935  1  0.775700  0.145900  0.307700  1
  O  O1936  1  0.724300  0.854100  0.807700  1
  O  O1937  1  0.604100  0.525700  0.442300  1
  O  O1938  1  0.895900  0.474300  0.942300  1
  O  O1939  1  0.724300  0.354100  0.192300  1
  O  O1940  1  0.775700  0.645900  0.692300  1
  O  O1941  1  0.104100  0.025700  0.942300  1
  O  O1942  1  0.395900  0.974300  0.442300  1
  O  O1943  1  0.224300  0.854100  0.692300  1
  O  O1944  1  0.275700  0.145900  0.192300  1
  O  O1945  1  0.210900  0.766700  0.464700  1
  O  O1946  1  0.289100  0.233300  0.964700  1
  O  O1947  1  0.983300  0.460900  0.714700  1
  O  O1948  1  0.516700  0.539100  0.214700  1
  O  O1949  1  0.710900  0.266700  0.964700  1
  O  O1950  1  0.789100  0.733300  0.464700  1
  O  O1951  1  0.483300  0.960900  0.214700  1
  O  O1952  1  0.016700  0.039100  0.714700  1
  O  O1953  1  0.789100  0.233300  0.535300  1
  O  O1954  1  0.710900  0.766700  0.035300  1
  O  O1955  1  0.016700  0.539100  0.285300  1
  O  O1956  1  0.483300  0.460900  0.785300  1
  O  O1957  1  0.289100  0.733300  0.035300  1
  O  O1958  1  0.210900  0.266700  0.535300  1
  O  O1959  1  0.516700  0.039100  0.785300  1
  O  O1960  1  0.983300  0.960900  0.285300  1
  O  O1961  1  0.272900  0.836200  0.397100  1
  O  O1962  1  0.227100  0.163800  0.897100  1
  O  O1963  1  0.913800  0.522900  0.647100  1
  O  O1964  1  0.586200  0.477100  0.147100  1
  O  O1965  1  0.772900  0.336200  0.897100  1
  O  O1966  1  0.727100  0.663800  0.397100  1
  O  O1967  1  0.413800  0.022900  0.147100  1
  O  O1968  1  0.086200  0.977100  0.647100  1
  O  O1969  1  0.727100  0.163800  0.602900  1
  O  O1970  1  0.772900  0.836200  0.102900  1
  O  O1971  1  0.086200  0.477100  0.352900  1
  O  O1972  1  0.413800  0.522900  0.852900  1
  O  O1973  1  0.227100  0.663800  0.102900  1
  O  O1974  1  0.272900  0.336200  0.602900  1
  O  O1975  1  0.586200  0.977100  0.852900  1
  O  O1976  1  0.913800  0.022900  0.352900  1
  O  O1977  1  0.177000  0.672000  0.159700  1
  O  O1978  1  0.323000  0.328000  0.659700  1
  O  O1979  1  0.078000  0.427000  0.409700  1
  O  O1980  1  0.422000  0.573000  0.909700  1
  O  O1981  1  0.677000  0.172000  0.659700  1
  O  O1982  1  0.823000  0.828000  0.159700  1
  O  O1983  1  0.578000  0.927000  0.909700  1
  O  O1984  1  0.922000  0.073000  0.409700  1
  O  O1985  1  0.823000  0.328000  0.840300  1
  O  O1986  1  0.677000  0.672000  0.340300  1
  O  O1987  1  0.922000  0.573000  0.590300  1
  O  O1988  1  0.578000  0.427000  0.090300  1
  O  O1989  1  0.323000  0.828000  0.340300  1
  O  O1990  1  0.177000  0.172000  0.840300  1
  O  O1991  1  0.422000  0.073000  0.090300  1
  O  O1992  1  0.078000  0.927000  0.590300  1
  O  O1993  1  0.071400  0.581600  0.185900  1
  O  O1994  1  0.428600  0.418400  0.685900  1
  O  O1995  1  0.168400  0.321400  0.435900  1
  O  O1996  1  0.331600  0.678600  0.935900  1
  O  O1997  1  0.571400  0.081600  0.685900  1
  O  O1998  1  0.928600  0.918400  0.185900  1
  O  O1999  1  0.668400  0.821400  0.935900  1
  O  O2000  1  0.831600  0.178600  0.435900  1
  O  O2001  1  0.928600  0.418400  0.814100  1
  O  O2002  1  0.571400  0.581600  0.314100  1
  O  O2003  1  0.831600  0.678600  0.564100  1
  O  O2004  1  0.668400  0.321400  0.064100  1
  O  O2005  1  0.428600  0.918400  0.314100  1
  O  O2006  1  0.071400  0.081600  0.814100  1
  O  O2007  1  0.331600  0.178600  0.064100  1
  O  O2008  1  0.168400  0.821400  0.564100  1
  O  O2009  1  0.166700  0.613000  0.127000  1
  O  O2010  1  0.333300  0.387000  0.627000  1
  O  O2011  1  0.137000  0.416700  0.377000  1
  O  O2012  1  0.363000  0.583300  0.877000  1
  O  O2013  1  0.666700  0.113000  0.627000  1
  O  O2014  1  0.833300  0.887000  0.127000  1
  O  O2015  1  0.637000  0.916700  0.877000  1
  O  O2016  1  0.863000  0.083300  0.377000  1
  O  O2017  1  0.833300  0.387000  0.873000  1
  O  O2018  1  0.666700  0.613000  0.373000  1
  O  O2019  1  0.863000  0.583300  0.623000  1
  O  O2020  1  0.637000  0.416700  0.123000  1
  O  O2021  1  0.333300  0.887000  0.373000  1
  O  O2022  1  0.166700  0.113000  0.873000  1
  O  O2023  1  0.363000  0.083300  0.123000  1
  O  O2024  1  0.137000  0.916700  0.623000  1
  O  O2025  1  0.172000  0.710900  0.321100  1
  O  O2026  1  0.328000  0.289100  0.821100  1
  O  O2027  1  0.039100  0.422000  0.571100  1
  O  O2028  1  0.460900  0.578000  0.071100  1
  O  O2029  1  0.672000  0.210900  0.821100  1
  O  O2030  1  0.828000  0.789100  0.321100  1
  O  O2031  1  0.539100  0.922000  0.071100  1
  O  O2032  1  0.960900  0.078000  0.571100  1
  O  O2033  1  0.828000  0.289100  0.678900  1
  O  O2034  1  0.672000  0.710900  0.178900  1
  O  O2035  1  0.960900  0.578000  0.428900  1
  O  O2036  1  0.539100  0.422000  0.928900  1
  O  O2037  1  0.328000  0.789100  0.178900  1
  O  O2038  1  0.172000  0.210900  0.678900  1
  O  O2039  1  0.460900  0.078000  0.928900  1
  O  O2040  1  0.039100  0.922000  0.428900  1
  O  O2041  1  0.097700  0.565100  0.250100  1
  O  O2042  1  0.402300  0.434900  0.750100  1
  O  O2043  1  0.184900  0.347700  0.500100  1
  O  O2044  1  0.315100  0.652300  0.000100  1
  O  O2045  1  0.597700  0.065100  0.750100  1
  O  O2046  1  0.902300  0.934900  0.250100  1
  O  O2047  1  0.684900  0.847700  0.000100  1
  O  O2048  1  0.815100  0.152300  0.500100  1
  O  O2049  1  0.902300  0.434900  0.749900  1
  O  O2050  1  0.597700  0.565100  0.249900  1
  O  O2051  1  0.815100  0.652300  0.499900  1
  O  O2052  1  0.684900  0.347700  0.999900  1
  O  O2053  1  0.402300  0.934900  0.249900  1
  O  O2054  1  0.097700  0.065100  0.749900  1
  O  O2055  1  0.315100  0.152300  0.999900  1
  O  O2056  1  0.184900  0.847700  0.499900  1
  O  O2057  1  0.198200  0.692500  0.251800  1
  O  O2058  1  0.301800  0.307500  0.751800  1
  O  O2059  1  0.057500  0.448200  0.501800  1
  O  O2060  1  0.442500  0.551800  0.001800  1
  O  O2061  1  0.698200  0.192500  0.751800  1
  O  O2062  1  0.801800  0.807500  0.251800  1
  O  O2063  1  0.557500  0.948200  0.001800  1
  O  O2064  1  0.942500  0.051800  0.501800  1
  O  O2065  1  0.801800  0.307500  0.748200  1
  O  O2066  1  0.698200  0.692500  0.248200  1
  O  O2067  1  0.942500  0.551800  0.498200  1
  O  O2068  1  0.557500  0.448200  0.998200  1
  O  O2069  1  0.301800  0.807500  0.248200  1
  O  O2070  1  0.198200  0.192500  0.748200  1
  O  O2071  1  0.442500  0.051800  0.998200  1
  O  O2072  1  0.057500  0.948200  0.498200  1
  O  O2073  1  0.229400  0.452100  0.505300  1
  O  O2074  1  0.270600  0.547900  0.005300  1
  O  O2075  1  0.297900  0.479400  0.755300  1
  O  O2076  1  0.202100  0.520600  0.255300  1
  O  O2077  1  0.729400  0.952100  0.005300  1
  O  O2078  1  0.770600  0.047900  0.505300  1
  O  O2079  1  0.797900  0.979400  0.255300  1
  O  O2080  1  0.702100  0.020600  0.755300  1
  O  O2081  1  0.770600  0.547900  0.494700  1
  O  O2082  1  0.729400  0.452100  0.994700  1
  O  O2083  1  0.702100  0.520600  0.244700  1
  O  O2084  1  0.797900  0.479400  0.744700  1
  O  O2085  1  0.270600  0.047900  0.994700  1
  O  O2086  1  0.229400  0.952100  0.494700  1
  O  O2087  1  0.202100  0.020600  0.744700  1
  O  O2088  1  0.297900  0.979400  0.244700  1
  O  O2089  1  0.286000  0.488000  0.548200  1
  O  O2090  1  0.214000  0.512000  0.048200  1
  O  O2091  1  0.262000  0.536000  0.798200  1
  O  O2092  1  0.238000  0.464000  0.298200  1
  O  O2093  1  0.786000  0.988000  0.048200  1
  O  O2094  1  0.714000  0.012000  0.548200  1
  O  O2095  1  0.762000  0.036000  0.298200  1
  O  O2096  1  0.738000  0.964000  0.798200  1
  O  O2097  1  0.714000  0.512000  0.451800  1
  O  O2098  1  0.786000  0.488000  0.951800  1
  O  O2099  1  0.738000  0.464000  0.201800  1
  O  O2100  1  0.762000  0.536000  0.701800  1
  O  O2101  1  0.214000  0.012000  0.951800  1
  O  O2102  1  0.286000  0.988000  0.451800  1
  O  O2103  1  0.238000  0.964000  0.701800  1
  O  O2104  1  0.262000  0.036000  0.201800  1
  O  O2105  1  0.256000  0.404000  0.548000  1
  O  O2106  1  0.244000  0.596000  0.048000  1
  O  O2107  1  0.346000  0.506000  0.798000  1
  O  O2108  1  0.154000  0.494000  0.298000  1
  O  O2109  1  0.756000  0.904000  0.048000  1
  O  O2110  1  0.744000  0.096000  0.548000  1
  O  O2111  1  0.846000  0.006000  0.298000  1
  O  O2112  1  0.654000  0.994000  0.798000  1
  O  O2113  1  0.744000  0.596000  0.452000  1
  O  O2114  1  0.756000  0.404000  0.952000  1
  O  O2115  1  0.654000  0.494000  0.202000  1
  O  O2116  1  0.846000  0.506000  0.702000  1
  O  O2117  1  0.244000  0.096000  0.952000  1
  O  O2118  1  0.256000  0.904000  0.452000  1
  O  O2119  1  0.154000  0.994000  0.702000  1
  O  O2120  1  0.346000  0.006000  0.202000  1
  O  O2121  1  0.108400  0.597800  0.451900  1
  O  O2122  1  0.391600  0.402200  0.951900  1
  O  O2123  1  0.152200  0.358400  0.701900  1
  O  O2124  1  0.347800  0.641600  0.201900  1
  O  O2125  1  0.608400  0.097800  0.951900  1
  O  O2126  1  0.891600  0.902200  0.451900  1
  O  O2127  1  0.652200  0.858400  0.201900  1
  O  O2128  1  0.847800  0.141600  0.701900  1
  O  O2129  1  0.891600  0.402200  0.548100  1
  O  O2130  1  0.608400  0.597800  0.048100  1
  O  O2131  1  0.847800  0.641600  0.298100  1
  O  O2132  1  0.652200  0.358400  0.798100  1
  O  O2133  1  0.391600  0.902200  0.048100  1
  O  O2134  1  0.108400  0.097800  0.548100  1
  O  O2135  1  0.347800  0.141600  0.798100  1
  O  O2136  1  0.152200  0.858400  0.298100  1
  O  O2137  1  0.132800  0.719300  0.548100  1
  O  O2138  1  0.367200  0.280700  0.048100  1
  O  O2139  1  0.030700  0.382800  0.798100  1
  O  O2140  1  0.469300  0.617200  0.298100  1
  O  O2141  1  0.632800  0.219300  0.048100  1
  O  O2142  1  0.867200  0.780700  0.548100  1
  O  O2143  1  0.530700  0.882800  0.298100  1
  O  O2144  1  0.969300  0.117200  0.798100  1
  O  O2145  1  0.867200  0.280700  0.451900  1
  O  O2146  1  0.632800  0.719300  0.951900  1
  O  O2147  1  0.969300  0.617200  0.201900  1
  O  O2148  1  0.530700  0.382800  0.701900  1
  O  O2149  1  0.367200  0.780700  0.951900  1
  O  O2150  1  0.132800  0.219300  0.451900  1
  O  O2151  1  0.469300  0.117200  0.701900  1
  O  O2152  1  0.030700  0.882800  0.201900  1
  F  F2153  1  0.488900  0.339400  0.509300  1
  F  F2154  1  0.011100  0.660600  0.009300  1
  F  F2155  1  0.410600  0.738900  0.759300  1
  F  F2156  1  0.089400  0.261100  0.259300  1
  F  F2157  1  0.988900  0.839400  0.009300  1
  F  F2158  1  0.511100  0.160600  0.509300  1
  F  F2159  1  0.910600  0.238900  0.259300  1
  F  F2160  1  0.589400  0.761100  0.759300  1
  F  F2161  1  0.511100  0.660600  0.490700  1
  F  F2162  1  0.988900  0.339400  0.990700  1
  F  F2163  1  0.589400  0.261100  0.240700  1
  F  F2164  1  0.910600  0.738900  0.740700  1
  F  F2165  1  0.011100  0.160600  0.990700  1
  F  F2166  1  0.488900  0.839400  0.490700  1
  F  F2167  1  0.089400  0.761100  0.740700  1
  F  F2168  1  0.410600  0.238900  0.240700  1
  F  F2169  1  0.542500  0.260900  0.484300  1
  F  F2170  1  0.957500  0.739100  0.984300  1
  F  F2171  1  0.489100  0.792500  0.734300  1
  F  F2172  1  0.010900  0.207500  0.234300  1
  F  F2173  1  0.042500  0.760900  0.984300  1
  F  F2174  1  0.457500  0.239100  0.484300  1
  F  F2175  1  0.989100  0.292500  0.234300  1
  F  F2176  1  0.510900  0.707500  0.734300  1
  F  F2177  1  0.457500  0.739100  0.515700  1
  F  F2178  1  0.042500  0.260900  0.015700  1
  F  F2179  1  0.510900  0.207500  0.265700  1
  F  F2180  1  0.989100  0.792500  0.765700  1
  F  F2181  1  0.957500  0.239100  0.015700  1
  F  F2182  1  0.542500  0.760900  0.515700  1
  F  F2183  1  0.010900  0.707500  0.765700  1
  F  F2184  1  0.489100  0.292500  0.265700  1
  F  F2185  1  0.606600  0.267300  0.414600  1
  F  F2186  1  0.893400  0.732700  0.914600  1
  F  F2187  1  0.482700  0.856600  0.664600  1
  F  F2188  1  0.017300  0.143400  0.164600  1
  F  F2189  1  0.106600  0.767300  0.914600  1
  F  F2190  1  0.393400  0.232700  0.414600  1
  F  F2191  1  0.982700  0.356600  0.164600  1
  F  F2192  1  0.517300  0.643400  0.664600  1
  F  F2193  1  0.393400  0.732700  0.585400  1
  F  F2194  1  0.106600  0.267300  0.085400  1
  F  F2195  1  0.517300  0.143400  0.335400  1
  F  F2196  1  0.982700  0.856600  0.835400  1
  F  F2197  1  0.893400  0.232700  0.085400  1
  F  F2198  1  0.606600  0.767300  0.585400  1
  F  F2199  1  0.017300  0.643400  0.835400  1
  F  F2200  1  0.482700  0.356600  0.335400  1
  F  F2201  1  0.614300  0.356000  0.369400  1
  F  F2202  1  0.885700  0.644000  0.869400  1
  F  F2203  1  0.394000  0.864300  0.619400  1
  F  F2204  1  0.106000  0.135700  0.119400  1
  F  F2205  1  0.114300  0.856000  0.869400  1
  F  F2206  1  0.385700  0.144000  0.369400  1
  F  F2207  1  0.894000  0.364300  0.119400  1
  F  F2208  1  0.606000  0.635700  0.619400  1
  F  F2209  1  0.385700  0.644000  0.630600  1
  F  F2210  1  0.114300  0.356000  0.130600  1
  F  F2211  1  0.606000  0.135700  0.380600  1
  F  F2212  1  0.894000  0.864300  0.880600  1
  F  F2213  1  0.885700  0.144000  0.130600  1
  F  F2214  1  0.614300  0.856000  0.630600  1
  F  F2215  1  0.106000  0.635700  0.880600  1
  F  F2216  1  0.394000  0.364300  0.380600  1
  F  F2217  1  0.550300  0.428300  0.391100  1
  F  F2218  1  0.949700  0.571700  0.891100  1
  F  F2219  1  0.321700  0.800300  0.641100  1
  F  F2220  1  0.178300  0.199700  0.141100  1
  F  F2221  1  0.050300  0.928300  0.891100  1
  F  F2222  1  0.449700  0.071700  0.391100  1
  F  F2223  1  0.821700  0.300300  0.141100  1
  F  F2224  1  0.678300  0.699700  0.641100  1
  F  F2225  1  0.449700  0.571700  0.608900  1
  F  F2226  1  0.050300  0.428300  0.108900  1
  F  F2227  1  0.678300  0.199700  0.358900  1
  F  F2228  1  0.821700  0.800300  0.858900  1
  F  F2229  1  0.949700  0.071700  0.108900  1
  F  F2230  1  0.550300  0.928300  0.608900  1
  F  F2231  1  0.178300  0.699700  0.858900  1
  F  F2232  1  0.321700  0.300300  0.358900  1
  F  F2233  1  0.543900  0.422600  0.386000  1
  F  F2234  1  0.956100  0.577400  0.886000  1
  F  F2235  1  0.327400  0.793900  0.636000  1
  F  F2236  1  0.172600  0.206100  0.136000  1
  F  F2237  1  0.043900  0.922600  0.886000  1
  F  F2238  1  0.456100  0.077400  0.386000  1
  F  F2239  1  0.827400  0.293900  0.136000  1
  F  F2240  1  0.672600  0.706100  0.636000  1
  F  F2241  1  0.456100  0.577400  0.614000  1
  F  F2242  1  0.043900  0.422600  0.114000  1
  F  F2243  1  0.672600  0.206100  0.364000  1
  F  F2244  1  0.827400  0.793900  0.864000  1
  F  F2245  1  0.956100  0.077400  0.114000  1
  F  F2246  1  0.543900  0.922600  0.614000  1
  F  F2247  1  0.172600  0.706100  0.864000  1
  F  F2248  1  0.327400  0.293900  0.364000  1
  F  F2249  1  0.475600  0.454700  0.442800  1
  F  F2250  1  0.024400  0.545300  0.942800  1
  F  F2251  1  0.295300  0.725600  0.692800  1
  F  F2252  1  0.204700  0.274400  0.192800  1
  F  F2253  1  0.975600  0.954700  0.942800  1
  F  F2254  1  0.524400  0.045300  0.442800  1
  F  F2255  1  0.795300  0.225600  0.192800  1
  F  F2256  1  0.704700  0.774400  0.692800  1
  F  F2257  1  0.524400  0.545300  0.557200  1
  F  F2258  1  0.975600  0.454700  0.057200  1
  F  F2259  1  0.704700  0.274400  0.307200  1
  F  F2260  1  0.795300  0.725600  0.807200  1
  F  F2261  1  0.024400  0.045300  0.057200  1
  F  F2262  1  0.475600  0.954700  0.557200  1
  F  F2263  1  0.204700  0.774400  0.807200  1
  F  F2264  1  0.295300  0.225600  0.307200  1
  F  F2265  1  0.457100  0.397900  0.513800  1
  F  F2266  1  0.042900  0.602100  0.013800  1
  F  F2267  1  0.352100  0.707100  0.763800  1
  F  F2268  1  0.147900  0.292900  0.263800  1
  F  F2269  1  0.957100  0.897900  0.013800  1
  F  F2270  1  0.542900  0.102100  0.513800  1
  F  F2271  1  0.852100  0.207100  0.263800  1
  F  F2272  1  0.647900  0.792900  0.763800  1
  F  F2273  1  0.542900  0.602100  0.486200  1
  F  F2274  1  0.957100  0.397900  0.986200  1
  F  F2275  1  0.647900  0.292900  0.236200  1
  F  F2276  1  0.852100  0.707100  0.736200  1
  F  F2277  1  0.042900  0.102100  0.986200  1
  F  F2278  1  0.457100  0.897900  0.486200  1
  F  F2279  1  0.147900  0.792900  0.736200  1
  F  F2280  1  0.352100  0.207100  0.236200  1
  F  F2281  1  0.497900  0.305200  0.523400  1
  F  F2282  1  0.002100  0.694800  0.023400  1
  F  F2283  1  0.444800  0.747900  0.773400  1
  F  F2284  1  0.055200  0.252100  0.273400  1
  F  F2285  1  0.997900  0.805200  0.023400  1
  F  F2286  1  0.502100  0.194800  0.523400  1
  F  F2287  1  0.944800  0.247900  0.273400  1
  F  F2288  1  0.555200  0.752100  0.773400  1
  F  F2289  1  0.502100  0.694800  0.476600  1
  F  F2290  1  0.997900  0.305200  0.976600  1
  F  F2291  1  0.555200  0.252100  0.226600  1
  F  F2292  1  0.944800  0.747900  0.726600  1
  F  F2293  1  0.002100  0.194800  0.976600  1
  F  F2294  1  0.497900  0.805200  0.476600  1
  F  F2295  1  0.055200  0.752100  0.726600  1
  F  F2296  1  0.444800  0.247900  0.226600  1
  F  F2297  1  0.561800  0.272800  0.462000  1
  F  F2298  1  0.938200  0.727200  0.962000  1
  F  F2299  1  0.477200  0.811800  0.712000  1
  F  F2300  1  0.022800  0.188200  0.212000  1
  F  F2301  1  0.061800  0.772800  0.962000  1
  F  F2302  1  0.438200  0.227200  0.462000  1
  F  F2303  1  0.977200  0.311800  0.212000  1
  F  F2304  1  0.522800  0.688200  0.712000  1
  F  F2305  1  0.438200  0.727200  0.538000  1
  F  F2306  1  0.061800  0.272800  0.038000  1
  F  F2307  1  0.522800  0.188200  0.288000  1
  F  F2308  1  0.977200  0.811800  0.788000  1
  F  F2309  1  0.938200  0.227200  0.038000  1
  F  F2310  1  0.561800  0.772800  0.538000  1
  F  F2311  1  0.022800  0.688200  0.788000  1
  F  F2312  1  0.477200  0.311800  0.288000  1
