
#######################################################################
#
#                 Cambridge Crystallographic Data Centre
#                                CCDC 
#
#######################################################################
#
# If this CIF has been generated from an entry in the Cambridge 
# Structural Database, then it will include bibliographic, chemical, 
# crystal, experimental, refinement or atomic coordinate data resulting 
# from the CCDC's data processing and validation procedures.
#
#######################################################################

data_AJENAG
_chemical_formula_moiety         
'C108 H144 N36 Pd6 5+,3.35(C3 F7 I1),5(N1 O3 1-),70.65(H2 O1),0.65(I1 1-),0.65(H3 O1 1+)'
_chemical_name_systematic        
"tetrakis(\m-2,4,6-tri(pyridin-4-yl)-1,3,5-triazine)-hexakis(\m-N,N,N',N'-tetramethylethane-1,2-diamine)-hexa-palladium oxonium nitrate 1,1,1,2,2,3,3-heptafluoro-3-iodopropane hydrate"
_symmetry_cell_setting           triclinic
_symmetry_space_group_name_H-M   'P -1'
_symmetry_Int_Tables_number      2
_space_group_name_Hall           '-P 1'
loop_
_symmetry_equiv_pos_site_id
_symmetry_equiv_pos_as_xyz
1 x,y,z
2 -x,-y,-z
_cell_length_a                   24.649(3)
_cell_length_b                   24.682(3)
_cell_length_c                   24.744(3)
_cell_angle_alpha                66.4990(10)
_cell_angle_beta                 60.3420(10)
_cell_angle_gamma                65.7500(10)
_cell_volume                     11558.5
_exptl_crystal_colour            colorless
_exptl_crystal_description       block
_cell_formula_units_Z            2
loop_
_atom_site_label
_atom_site_type_symbol
_atom_site_fract_x
_atom_site_fract_y
_atom_site_fract_z
I1 I -0.0603(3) 1.4470(5) 0.0921(2)
C109 C -0.0437(11) 1.3958(9) 0.1784(9)
C110 C -0.0422(12) 1.4394(9) 0.2054(10)
C111 C -0.0266(13) 1.4194(12) 0.2616(11)
F1 F -0.0894(11) 1.3696(10) 0.2154(8)
F2 F 0.0126(11) 1.3557(10) 0.1623(11)
F3 F -0.0947(13) 1.4821(12) 0.2168(14)
F4 F 0.0082(13) 1.4625(14) 0.1633(12)
F5 F -0.0038(14) 1.4592(12) 0.2609(13)
F6 F 0.0156(16) 1.3658(11) 0.2651(15)
F7 F -0.0779(15) 1.414(2) 0.3159(12)
I2 I -0.01336(12) 1.47974(12) 0.43064(7)
C112 C -0.0916(8) 1.4461(7) 0.4554(9)
C113 C -0.0673(8) 1.3751(7) 0.4656(9)
C114 C -0.1213(11) 1.3488(9) 0.4786(14)
F8 F -0.1393(7) 1.4530(11) 0.5118(9)
F9 F -0.1131(9) 1.4671(7) 0.4105(10)
F10 F -0.0429(13) 1.3588(8) 0.5098(10)
F11 F -0.0145(8) 1.3660(9) 0.4109(9)
F12 F -0.1793(9) 1.3813(11) 0.5082(11)
F13 F -0.1107(15) 1.2946(10) 0.5166(12)
F14 F -0.1181(11) 1.3497(10) 0.4266(8)
O1 O -0.2813(8) 0.8451(8) 0.5511(8)
I3 I -0.40525(10) 1.47846(13) 0.49180(14)
C115 C -0.3273(9) 1.4027(8) 0.4519(9)
C116 C -0.2896(9) 1.4373(8) 0.3848(8)
C117 C -0.2337(10) 1.4053(13) 0.3376(12)
F15 F -0.3478(9) 1.3655(8) 0.4459(13)
F16 F -0.2908(9) 1.3725(9) 0.4836(10)
F17 F -0.2771(13) 1.4785(11) 0.3966(14)
F18 F -0.3321(12) 1.4667(14) 0.3578(11)
F19 F -0.1803(11) 1.3915(16) 0.3454(17)
F20 F -0.2412(14) 1.3583(12) 0.3354(15)
F21 F -0.2239(16) 1.4433(14) 0.2771(9)
N37 N -0.3189(8) 1.1478(7) 0.3046(9)
O2 O -0.3783(7) 1.1708(8) 0.3286(9)
O3 O -0.2818(7) 1.1796(6) 0.2607(7)
O4 O -0.2960(8) 1.0921(6) 0.3228(9)
N38 N -0.1465(12) 1.5731(10) -0.0392(10)
O5 O -0.118(4) 1.5668(17) -0.006(4)
O6 O -0.1821(13) 1.6243(9) -0.0540(15)
O7 O -0.1416(9) 1.5277(9) -0.0537(8)
O8 O -0.0550(15) 1.4193(14) -0.0250(14)
N39 N 0.1228(9) 1.5632(9) 0.3639(10)
O9 O 0.0681(7) 1.5546(9) 0.3971(8)
O10 O 0.1284(13) 1.6142(10) 0.3261(17)
O11 O 0.1706(7) 1.5198(8) 0.3668(9)
O12 O -0.032(2) 1.678(2) 0.395(2)
O13 O -0.109(3) 1.648(2) 0.468(3)
O14 O -0.123(2) 1.689(2) -0.001(2)
N40 N -0.5396(11) 1.5767(9) 0.6218(10)
O15 O -0.5059(16) 1.5661(13) 0.5680(10)
O16 O -0.5574(14) 1.6285(9) 0.6302(13)
O17 O -0.5559(8) 1.5339(8) 0.6694(8)
O18 O -0.5112(18) 1.6846(18) 0.4709(18)
O19 O -0.469(2) 1.658(2) 0.357(2)
O20 O -0.3781(18) 1.7785(16) 0.3676(17)
O21 O -0.4189(14) 1.7310(13) 0.3494(14)
N41 N 0.0634(10) 0.9748(12) 0.6212(10)
O22 O 0.0591(15) 1.0019(16) 0.5682(11)
O23 O 0.1159(12) 0.963(2) 0.6244(16)
O24 O 0.0142(11) 0.9645(7) 0.6692(9)
O25 O 0.1976(14) 0.9865(13) 0.4717(14)
O26 O -0.0964(13) 1.0064(13) 0.6512(14)
O27 O 0.2854(14) 1.0538(16) 0.4003(15)
O28 O 0.191(3) 1.005(3) 0.338(3)
O29 O 0.150(3) 1.006(3) 0.424(3)
O30 O 0.270(3) 1.019(3) 0.267(3)
O31 O 0.3059(14) 1.3330(14) 0.2691(14)
O32 O 0.2886(6) 1.4008(6) 0.3138(6)
O33 O 0.3150(9) 1.3976(9) 0.1926(9)
O34 O 0.1743(13) 1.2451(10) -0.0327(10)
O35 O 0.2277(16) 1.647(2) -0.039(2)
O36 O -0.1927(14) 1.7258(13) 0.4220(14)
O37 O -0.0706(9) 1.7529(8) 0.3244(9)
O38 O -0.1394(15) 1.7670(14) 0.2869(16)
O39 O 0.166(2) 1.009(2) -0.102(2)
O40 O 0.212(2) 1.103(2) -0.200(2)
O41 O -0.3685(9) 0.9619(9) 0.3910(9)
O42 O -0.325(2) 0.896(2) 0.296(3)
O43 O 0.1461(11) 0.8727(10) 0.1798(11)
O44 O 0.1419(15) 0.9725(14) 0.2101(14)
O45 O 0.2812(17) 0.8914(15) 0.1837(16)
O46 O -0.041(2) 1.870(2) 0.090(2)
O47 O -0.3091(13) 1.2372(11) 0.7847(9)
O48 O 0.0930(11) 1.6865(10) -0.0048(11)
O49 O -0.2364(13) 1.2170(14) 0.8197(15)
O50 O -0.3138(15) 1.3068(15) 0.8145(15)
O51 O -0.4760(7) 0.8912(6) 0.6178(7)
O52 O -0.4719(13) 1.8015(13) -0.0881(14)
O53 O -0.4817(7) 1.5950(8) 0.2140(8)
O54 O 0.1563(12) 1.4217(11) 0.4330(12)
O55 O -0.4284(11) 1.4010(8) 0.8126(8)
O56 O -0.5966(13) 1.6134(15) 0.9322(8)
O57 O -0.3370(9) 0.7708(8) 0.4592(9)
O58 O 0.4345(12) 1.1396(15) -0.1255(13)
O59 O 0.4447(15) 1.1215(13) -0.0095(16)
O60 O 0.4462(13) 0.9485(14) 0.0279(11)
O61 O -0.5917(15) 0.9397(11) 0.6511(12)
O62 O -0.5247(10) 1.4257(11) 0.6673(12)
O63 O -0.4328(9) 1.4015(14) 0.9198(10)
O64 O -0.4331(14) 1.6120(18) 0.9066(15)
O65 O -0.4905(13) 1.7576(12) 0.8120(17)
O66 O 0.3191(14) 1.6017(10) -0.0789(13)
O67 O 0.650(2) 1.076(2) -0.211(2)
O68 O 0.283(2) 1.237(2) 0.243(2)
O69 O -0.567(5) 1.864(5) 1.041(5)
O70 O 0.3239(16) 0.8997(15) -0.0134(16)
O71 O -0.0629(14) 1.0916(11) 0.1143(9)
O72 O -0.3436(8) 1.2854(7) 0.1896(7)
O73 O -0.3916(9) 1.2152(7) 0.1633(8)
O74 O 0.3549(13) 0.9125(10) -0.2125(10)
O75 O -0.1709(12) 1.1098(7) 0.1910(12)
O76 O -0.3729(5) 0.8717(5) 0.5039(5)
C118 C 0.000000 0.000000 0.000000
C1 C -0.3792(6) 1.2073(5) 0.4564(6)
H1 H -0.4226 1.2285 0.4782
N1 N -0.3550(5) 1.1502(4) 0.4844(5)
Pd1 Pd 0.15319(6) 1.11132(4) 0.08677(5)
C2 C -0.3423(7) 1.2367(6) 0.3959(6)
H2 H -0.3610 1.2767 0.3754
N2 N -0.2660(6) 1.2967(5) 0.2758(5)
Pd2 Pd 0.08358(4) 1.11462(4) 0.64745(4)
C3 C -0.2789(7) 1.2074(6) 0.3661(6)
N3 N -0.1631(6) 1.2956(5) 0.1851(5)
Pd3 Pd -0.40654(4) 1.11062(4) 0.57611(5)
C4 C -0.2521(7) 1.1480(6) 0.3952(6)
H3 H -0.2084 1.1264 0.3750
N4 N -0.1751(6) 1.2070(5) 0.2748(5)
Pd4 Pd -0.41066(4) 1.60490(4) 0.65476(4)
C5 C -0.2921(6) 1.1225(5) 0.4545(6)
H4 H -0.2745 1.0826 0.4760
N5 N -0.2999(5) 1.5062(5) 0.1300(5)
Pd5 Pd -0.33066(5) 1.59838(5) 0.09240(5)
C6 C -0.2427(7) 1.4762(6) 0.1012(6)
H5 H -0.2179 1.4964 0.0596
N6 N 0.0568(5) 1.1492(5) 0.1256(5)
Pd6 Pd 0.15589(4) 1.60298(4) 0.17276(4)
C7 C -0.2152(7) 1.4189(7) 0.1251(6)
H6 H -0.1715 1.3993 0.1022
N7 N 0.1602(5) 1.1517(4) 0.1396(5)
C8 C -0.2544(7) 1.3865(6) 0.1881(7)
N8 N -0.2997(6) 1.6102(5) 0.1477(5)
C9 C -0.3139(7) 1.4188(6) 0.2169(7)
H7 H -0.3410 1.4005 0.2584
N9 N -0.3692(4) 1.1505(4) 0.6027(4)
C10 C -0.3372(7) 1.4791(6) 0.1871(7)
H8 H -0.3804 1.5012 0.2080
N10 N -0.3098(4) 1.3008(4) 0.6398(4)
C11 C 0.0189(8) 1.1218(6) 0.1841(7)
H9 H 0.0376 1.0819 0.2047
N11 N -0.2230(4) 1.3009(4) 0.6538(5)
C12 C -0.0444(7) 1.1487(6) 0.2146(6)
H10 H -0.0690 1.1284 0.2564
N12 N -0.2223(4) 1.2111(4) 0.6412(4)
C13 C -0.0727(7) 1.2050(6) 0.1848(6)
N13 N 0.2518(7) 1.0738(6) 0.0467(7)
C14 C -0.0330(8) 1.2363(8) 0.1243(6)
H11 H -0.0501 1.2771 0.1039
N14 N 0.1467(7) 1.0701(6) 0.0327(6)
C15 C 0.0300(8) 1.2057(6) 0.0971(7)
H12 H 0.0563 1.2252 0.0559
N15 N -0.4436(6) 1.0699(5) 0.5485(7)
C16 C -0.2382(7) 1.2409(6) 0.3014(6)
N16 N -0.4596(5) 1.0698(5) 0.6683(6)
C17 C -0.2258(8) 1.3210(7) 0.2192(7)
N17 N -0.3555(4) 1.6161(4) 0.5587(5)
C18 C -0.1420(7) 1.2386(7) 0.2169(7)
N18 N -0.3718(4) 1.5133(4) 0.6616(5)
C19 C -0.3967(5) 1.2085(5) 0.6068(6)
H13 H -0.4367 1.2292 0.6019
N19 N -0.2605(5) 1.6131(5) 0.3282(5)
C20 C -0.3686(5) 1.2399(5) 0.6179(6)
H14 H -0.3896 1.2812 0.6209
N20 N 0.1555(6) 1.3009(5) 0.2347(5)
C21 C -0.3109(5) 1.2108(5) 0.6243(5)
N21 N -0.1599(5) 1.6148(4) 0.2398(5)
C22 C 0.1497(7) 1.2428(5) 0.2600(6)
N22 N -0.3642(6) 1.5875(5) 0.0365(6)
C23 C -0.3135(6) 1.1223(5) 0.6093(6)
H15 H -0.2936 1.0809 0.6063
N23 N -0.3631(8) 1.6915(5) 0.0556(7)
C24 C -0.2825(5) 1.1505(5) 0.6203(6)
H16 H -0.2425 1.1286 0.6249
N24 N 0.1412(5) 1.3016(4) 0.3358(5)
C25 C 0.1611(7) 1.2101(6) 0.1182(6)
H17 H 0.1635 1.2313 0.0759
N25 N 0.1425(5) 1.2118(4) 0.3199(5)
C26 C 0.1587(7) 1.2408(6) 0.1551(6)
H18 H 0.1598 1.2825 0.1383
N26 N -0.1727(4) 1.6146(4) 0.3416(4)
C27 C 0.1545(7) 1.2100(6) 0.2185(6)
N27 N -0.0097(4) 1.1535(4) 0.6560(4)
C28 C 0.1528(8) 1.1509(6) 0.2404(7)
H19 H 0.1498 1.1288 0.2828
N28 N 0.1076(4) 1.1536(4) 0.5525(5)
C29 C 0.1557(8) 1.1225(6) 0.1995(7)
H20 H 0.1543 1.0809 0.2150
N29 N 0.0594(4) 1.6159(4) 0.2032(4)
C30 C -0.3358(6) 1.6107(7) 0.2090(7)
H21 H -0.3796 1.6096 0.2268
N30 N -0.4509(5) 1.6970(4) 0.6467(5)
C31 C -0.3112(7) 1.6129(6) 0.2476(6)
H22 H -0.3385 1.6151 0.2908
N31 N 0.1632(4) 1.5117(4) 0.2010(4)
C32 C -0.2474(6) 1.6118(6) 0.2235(6)
N32 N 0.0586(5) 1.0757(5) 0.7438(5)
C33 C -0.2108(7) 1.6098(6) 0.1641(7)
H23 H -0.1659 1.6064 0.1477
N33 N 0.1784(4) 1.0757(5) 0.6381(5)
C34 C -0.2375(7) 1.6127(7) 0.1239(7)
H24 H -0.2116 1.6165 0.0794
N34 N 0.1484(5) 1.6960(4) 0.1437(5)
C35 C -0.2782(5) 1.2422(5) 0.6351(5)
N35 N -0.4673(5) 1.5944(4) 0.7517(5)
C36 C -0.2801(5) 1.3272(5) 0.6500(5)
N36 N 0.2537(5) 1.5899(4) 0.1420(5)
C37 C -0.1962(5) 1.2434(5) 0.6487(5)
C38 C 0.2617(12) 1.0466(11) -0.0053(10)
H25 H 0.2657 1.0790 -0.0458
H26 H 0.3026 1.0135 -0.0135
C39 C 0.2112(13) 1.0235(14) 0.0126(14)
H27 H 0.2118 0.9865 0.0486
H28 H 0.2172 1.0111 -0.0239
C40 C -0.2211(6) 1.6151(5) 0.2661(6)
C41 C -0.3116(5) 1.3926(5) 0.6551(6)
C42 C -0.1321(5) 1.2120(5) 0.6531(5)
C43 C -0.4114(10) 1.7184(9) 0.1008(10)
H29 H -0.4524 1.7388 0.0979
H30 H -0.4053 1.7175 0.1362
C44 C -0.3048(9) 1.7210(7) 0.0248(10)
H31 H -0.2697 1.7032 -0.0107
H32 H -0.2890 1.7128 0.0574
H33 H -0.3198 1.7654 0.0087
C45 C -0.3754(12) 1.6944(7) 0.0010(12)
H34 H -0.4042 1.7351 -0.0103
H35 H -0.3339 1.6896 -0.0369
C46 C -0.4043(12) 1.6484(8) 0.0162(11)
H36 H -0.4094 1.6503 -0.0218
H37 H -0.4478 1.6556 0.0512
C47 C -0.4017(8) 1.5437(8) 0.0703(9)
H38 H -0.4206 1.5441 0.0433
H39 H -0.4364 1.5544 0.1101
H40 H -0.3736 1.5027 0.0805
C48 C -0.3072(8) 1.5641(8) -0.0178(7)
H41 H -0.3219 1.5608 -0.0465
H42 H -0.2824 1.5236 -0.0013
H43 H -0.2797 1.5924 -0.0417
C49 C 0.1370(5) 1.2442(5) 0.3561(6)
C50 C 0.1286(6) 1.2125(5) 0.4245(6)
C51 C 0.1505(6) 1.3275(5) 0.2743(6)
C52 C 0.1559(6) 1.3914(5) 0.2487(6)
C53 C 0.1610(6) 1.4245(5) 0.1853(6)
H44 H 0.1617 1.4059 0.1578
C54 C 0.1531(6) 1.4216(5) 0.2871(6)
H45 H 0.1483 1.4020 0.3303
C55 C -0.1361(6) 1.6142(5) 0.2792(6)
C56 C -0.0690(6) 1.6152(5) 0.2518(6)
C57 C -0.0439(6) 1.6176(6) 0.2897(6)
H46 H -0.0703 1.6179 0.3335
C58 C -0.0286(6) 1.6125(5) 0.1910(6)
H47 H -0.0441 1.6101 0.1639
C59 C -0.2812(5) 1.4249(5) 0.6605(5)
H48 H -0.2398 1.4060 0.6625
C60 C -0.3723(6) 1.4232(5) 0.6499(6)
H49 H -0.3930 1.4034 0.6425
C61 C -0.1004(5) 1.2434(5) 0.6585(6)
H50 H -0.1198 1.2851 0.6606
C62 C -0.1030(5) 1.1517(5) 0.6491(6)
H51 H -0.1240 1.1299 0.6447
C63 C -0.0422(5) 1.1237(5) 0.6518(6)
H52 H -0.0227 1.0818 0.6505
C64 C -0.0394(5) 1.2130(5) 0.6609(6)
H53 H -0.0181 1.2339 0.6661
C65 C 0.1650(6) 1.4833(5) 0.1644(5)
H54 H 0.1693 1.5049 0.1216
C66 C -0.3120(6) 1.4848(5) 0.6630(6)
H55 H -0.2907 1.5075 0.6658
C67 C 0.1577(6) 1.4811(6) 0.2599(6)
H56 H 0.1569 1.5016 0.2858
C68 C 0.0357(6) 1.6132(5) 0.1669(6)
H57 H 0.0631 1.6118 0.1236
C69 C 0.0188(7) 1.6196(6) 0.2640(7)
H58 H 0.0345 1.6238 0.2899
C70 C 0.1274(6) 1.1510(5) 0.4493(6)
H59 H 0.1342 1.1284 0.4221
C71 C 0.1199(6) 1.2429(5) 0.4647(6)
H60 H 0.1207 1.2847 0.4493
C72 C 0.1101(6) 1.2131(5) 0.5276(6)
H61 H 0.1047 1.2348 0.5548
C73 C 0.1167(6) 1.1242(5) 0.5108(6)
H62 H 0.1153 1.0826 0.5266
C74 C -0.2347(5) 1.6145(5) 0.3637(5)
C75 C -0.2762(6) 1.6159(5) 0.4313(6)
C76 C -0.3914(8) 1.0266(6) 0.5110(10)
H63 H -0.4096 0.9994 0.5087
H64 H -0.3606 1.0022 0.5316
H65 H -0.3689 1.0493 0.4675
C77 C -0.4789(9) 1.1138(8) 0.5099(11)
H66 H -0.4483 1.1278 0.4664
H67 H -0.5069 1.1489 0.5289
H68 H -0.5055 1.0946 0.5080
C78 C -0.4934(12) 1.0440(11) 0.6078(12)
H69 H -0.5360 1.0749 0.6150
H70 H -0.4967 1.0079 0.6026
C79 C -0.4788(13) 1.0266(11) 0.6612(10)
H71 H -0.4435 0.9880 0.6593
H72 H -0.5174 1.0175 0.7002
C80 C -0.5104(9) 1.1174(9) 0.7030(9)
H73 H -0.4908 1.1336 0.7174
H74 H -0.5441 1.0992 0.7403
H75 H -0.5297 1.1509 0.6742
C81 C -0.4176(9) 1.0333(10) 0.7049(8)
H76 H -0.3908 0.9951 0.6913
H77 H -0.4448 1.0237 0.7509
H78 H -0.3896 1.0570 0.6967
C82 C -0.3406(6) 1.6171(6) 0.4565(6)
H79 H -0.3586 1.6174 0.4301
C83 C -0.3780(6) 1.6179(6) 0.5185(7)
H80 H -0.4224 1.6199 0.5344
C84 C -0.2932(6) 1.6128(5) 0.5344(6)
H81 H -0.2755 1.6104 0.5620
C85 C -0.2536(6) 1.6126(5) 0.4731(6)
H82 H -0.2093 1.6101 0.4586
C86 C -0.5224(7) 1.5736(7) 0.7705(7)
H83 H -0.5449 1.5994 0.7416
H84 H -0.5522 1.5763 0.8146
H85 H -0.5076 1.5309 0.7679
C87 C -0.4873(8) 1.6562(6) 0.7623(7)
H86 H -0.5249 1.6589 0.8038
H87 H -0.4513 1.6628 0.7640
C88 C -0.5048(8) 1.7035(6) 0.7102(6)
H88 H -0.5145 1.7445 0.7156
H89 H -0.5442 1.6999 0.7119
C89 C -0.4754(7) 1.7293(6) 0.5973(7)
H90 H -0.4408 1.7223 0.5560
H91 H -0.4910 1.7733 0.5952
H92 H -0.5112 1.7143 0.6070
C90 C -0.4027(8) 1.7261(6) 0.6330(8)
H93 H -0.3659 1.7193 0.5926
H94 H -0.3876 1.7082 0.6679
H95 H -0.4224 1.7702 0.6292
C91 C -0.4304(7) 1.5487(7) 0.7929(7)
H96 H -0.4186 1.5076 0.7876
H97 H -0.4578 1.5491 0.8381
H98 H -0.3911 1.5600 0.7798
C92 C 0.1054(10) 1.0281(7) 0.0749(10)
H99 H 0.0598 1.0518 0.0890
H100 H 0.1162 1.0043 0.1125
H101 H 0.1125 1.0001 0.0515
C93 C 0.1297(12) 1.1165(9) -0.0203(8)
H102 H 0.1681 1.1298 -0.0544
H103 H 0.0957 1.1518 -0.0045
H104 H 0.1139 1.0989 -0.0372
C94 C 0.2759(9) 1.0259(10) 0.0980(10)
H105 H 0.3220 1.0217 0.0838
H106 H 0.2701 0.9864 0.1047
H107 H 0.2512 1.0389 0.1382
C95 C 0.2909(10) 1.1206(10) 0.0156(10)
H108 H 0.3335 1.1050 -0.0161
H109 H 0.2963 1.1278 0.0486
H110 H 0.2678 1.1592 -0.0058
C96 C 0.2952(7) 1.5458(8) 0.0998(7)
H111 H 0.2845 1.5607 0.0622
H112 H 0.2872 1.5054 0.1239
H113 H 0.3410 1.5426 0.0857
C97 C 0.2737(6) 1.5643(6) 0.1947(7)
H114 H 0.3204 1.5589 0.1782
H115 H 0.2641 1.5245 0.2186
H116 H 0.2503 1.5921 0.2233
C98 C 0.2645(9) 1.6513(7) 0.1085(11)
H117 H 0.3012 1.6523 0.1141
H118 H 0.2780 1.6571 0.0621
C99 C 0.2141(7) 1.6995(7) 0.1269(10)
H119 H 0.2220 1.7367 0.0919
H120 H 0.2137 1.7049 0.1647
C100 C 0.1252(14) 1.7254(7) 0.0943(10)
H121 H 0.0874 1.7589 0.0992
H122 H 0.1473 1.7115 0.0560
C101 C 0.1059(7) 1.7258(6) 0.1972(8)
H123 H 0.1136 1.7657 0.1854
H124 H 0.1151 1.6999 0.2353
H125 H 0.0605 1.7317 0.2067
C102 C 0.2185(7) 1.0402(7) 0.5911(8)
H126 H 0.2233 1.0673 0.5482
H127 H 0.1983 1.0090 0.5998
H128 H 0.2612 1.0201 0.5931
C103 C 0.2069(8) 1.1228(8) 0.6235(11)
H129 H 0.2464 1.1263 0.5873
H130 H 0.1863 1.1505 0.6502
C104 C 0.1719(8) 1.0386(11) 0.7058(8)
H131 H 0.1773 0.9957 0.7086
H132 H 0.2088 1.0386 0.7118
C105 C 0.1184(8) 1.0553(9) 0.7547(8)
H133 H 0.1215 1.0890 0.7642
H134 H 0.1153 1.0202 0.7929
C106 C 0.0109(10) 1.1193(10) 0.7811(8)
H135 H 0.0281 1.1538 0.7690
H136 H 0.0006 1.0995 0.8268
H137 H -0.0285 1.1344 0.7729
C107 C 0.0312(9) 1.0211(8) 0.7650(8)
H138 H -0.0126 1.0365 0.7657
H139 H 0.0296 0.9972 0.8081
H140 H 0.0592 0.9949 0.7348
C108 C -0.3998(5) 1.4822(5) 0.6559(6)
H141 H -0.4420 1.5018 0.6560
loop_
_geom_bond_atom_site_label_1
_geom_bond_atom_site_label_2
_geom_bond_site_symmetry_1
_geom_bond_site_symmetry_2
C1 H1 1_555 1_555
N1 C1 1_555 1_555
Pd1 N6 1_555 1_555
C2 C1 1_555 1_555
H2 C2 1_555 1_555
N2 C16 1_555 1_555
Pd2 N27 1_555 1_555
C3 C2 1_555 1_555
N3 C17 1_555 1_555
Pd3 N1 1_555 1_555
C4 C3 1_555 1_555
H3 C4 1_555 1_555
N4 C16 1_555 1_555
Pd4 N17 1_555 1_555
C5 N1 1_555 1_555
H4 C5 1_555 1_555
N5 Pd5 1_555 1_555
Pd5 N8 1_555 1_555
C6 N5 1_555 1_555
H5 C6 1_555 1_555
N6 C11 1_555 1_555
Pd6 N29 1_555 1_555
C7 C6 1_555 1_555
H6 C7 1_555 1_555
N7 Pd1 1_555 1_555
C8 C7 1_555 1_555
N8 C30 1_555 1_555
C9 C8 1_555 1_555
H7 C9 1_555 1_555
N9 Pd3 1_555 1_555
C10 N5 1_555 1_555
H8 C10 1_555 1_555
N10 C35 1_555 1_555
C11 H9 1_555 1_555
N11 C36 1_555 1_555
C12 C11 1_555 1_555
H10 C12 1_555 1_555
N12 C35 1_555 1_555
C13 C12 1_555 1_555
N13 Pd1 1_555 1_555
C14 C13 1_555 1_555
H11 C14 1_555 1_555
N14 Pd1 1_555 1_555
C15 N6 1_555 1_555
H12 C15 1_555 1_555
N15 Pd3 1_555 1_555
C16 C3 1_555 1_555
N16 Pd3 1_555 1_555
C17 N2 1_555 1_555
N17 C83 1_555 1_555
C18 N3 1_555 1_555
N18 Pd4 1_555 1_555
C19 N9 1_555 1_555
H13 C19 1_555 1_555
N19 C40 1_555 1_555
C20 C19 1_555 1_555
H14 C20 1_555 1_555
N20 C22 1_555 1_555
C21 C20 1_555 1_555
N21 C40 1_555 1_555
C22 N25 1_555 1_555
N22 Pd5 1_555 1_555
C23 N9 1_555 1_555
H15 C23 1_555 1_555
N23 Pd5 1_555 1_555
C24 C21 1_555 1_555
H16 C24 1_555 1_555
N24 C49 1_555 1_555
C25 N7 1_555 1_555
H17 C25 1_555 1_555
N25 C49 1_555 1_555
C26 C25 1_555 1_555
H18 C26 1_555 1_555
N26 C55 1_555 1_555
C27 C22 1_555 1_555
N27 C63 1_555 1_555
C28 C27 1_555 1_555
H19 C28 1_555 1_555
N28 Pd2 1_555 1_555
C29 N7 1_555 1_555
H20 C29 1_555 1_555
N29 C68 1_555 1_555
C30 H21 1_555 1_555
N30 Pd4 1_555 1_555
C31 C30 1_555 1_555
H22 C31 1_555 1_555
N31 Pd6 1_555 1_555
C32 C31 1_555 1_555
N32 Pd2 1_555 1_555
C33 C32 1_555 1_555
H23 C33 1_555 1_555
N33 Pd2 1_555 1_555
C34 N8 1_555 1_555
H24 C34 1_555 1_555
N34 Pd6 1_555 1_555
C35 C21 1_555 1_555
N35 Pd4 1_555 1_555
C36 N10 1_555 1_555
N36 Pd6 1_555 1_555
C37 N11 1_555 1_555
C38 N13 1_555 1_555
H25 C38 1_555 1_555
H26 C38 1_555 1_555
C39 N14 1_555 1_555
H27 C39 1_555 1_555
H28 C39 1_555 1_555
C40 C32 1_555 1_555
C41 C36 1_555 1_555
C42 C37 1_555 1_555
C43 N23 1_555 1_555
H29 C43 1_555 1_555
H30 C43 1_555 1_555
C44 N23 1_555 1_555
H31 C44 1_555 1_555
H32 C44 1_555 1_555
H33 C44 1_555 1_555
C45 N23 1_555 1_555
H34 C45 1_555 1_555
H35 C45 1_555 1_555
C46 N22 1_555 1_555
H36 C46 1_555 1_555
H37 C46 1_555 1_555
C47 N22 1_555 1_555
H38 C47 1_555 1_555
H39 C47 1_555 1_555
H40 C47 1_555 1_555
C48 N22 1_555 1_555
H41 C48 1_555 1_555
H42 C48 1_555 1_555
H43 C48 1_555 1_555
C49 C50 1_555 1_555
C50 C70 1_555 1_555
C51 N20 1_555 1_555
C52 C51 1_555 1_555
C53 C52 1_555 1_555
H44 C53 1_555 1_555
C54 C52 1_555 1_555
H45 C54 1_555 1_555
C55 N21 1_555 1_555
C56 C55 1_555 1_555
C57 C56 1_555 1_555
H46 C57 1_555 1_555
C58 C56 1_555 1_555
H47 C58 1_555 1_555
C59 C41 1_555 1_555
H48 C59 1_555 1_555
C60 C41 1_555 1_555
H49 C60 1_555 1_555
C61 C42 1_555 1_555
H50 C61 1_555 1_555
C62 C42 1_555 1_555
H51 C62 1_555 1_555
C63 C62 1_555 1_555
H52 C63 1_555 1_555
C64 N27 1_555 1_555
H53 C64 1_555 1_555
C65 N31 1_555 1_555
H54 C65 1_555 1_555
C66 N18 1_555 1_555
H55 C66 1_555 1_555
C67 N31 1_555 1_555
H56 C67 1_555 1_555
C68 C58 1_555 1_555
H57 C68 1_555 1_555
C69 N29 1_555 1_555
H58 C69 1_555 1_555
C70 H59 1_555 1_555
C71 C50 1_555 1_555
H60 C71 1_555 1_555
C72 N28 1_555 1_555
H61 C72 1_555 1_555
C73 N28 1_555 1_555
H62 C73 1_555 1_555
C74 N19 1_555 1_555
C75 C74 1_555 1_555
C76 N15 1_555 1_555
H63 C76 1_555 1_555
H64 C76 1_555 1_555
H65 C76 1_555 1_555
C77 N15 1_555 1_555
H66 C77 1_555 1_555
H67 C77 1_555 1_555
H68 C77 1_555 1_555
C78 N15 1_555 1_555
H69 C78 1_555 1_555
H70 C78 1_555 1_555
C79 N16 1_555 1_555
H71 C79 1_555 1_555
H72 C79 1_555 1_555
C80 N16 1_555 1_555
H73 C80 1_555 1_555
H74 C80 1_555 1_555
H75 C80 1_555 1_555
C81 N16 1_555 1_555
H76 C81 1_555 1_555
H77 C81 1_555 1_555
H78 C81 1_555 1_555
C82 C75 1_555 1_555
H79 C82 1_555 1_555
C83 C82 1_555 1_555
H80 C83 1_555 1_555
C84 N17 1_555 1_555
H81 C84 1_555 1_555
C85 C75 1_555 1_555
H82 C85 1_555 1_555
C86 N35 1_555 1_555
H83 C86 1_555 1_555
H84 C86 1_555 1_555
H85 C86 1_555 1_555
C87 N35 1_555 1_555
H86 C87 1_555 1_555
H87 C87 1_555 1_555
C88 N30 1_555 1_555
H88 C88 1_555 1_555
H89 C88 1_555 1_555
C89 N30 1_555 1_555
H90 C89 1_555 1_555
H91 C89 1_555 1_555
H92 C89 1_555 1_555
C90 N30 1_555 1_555
H93 C90 1_555 1_555
H94 C90 1_555 1_555
H95 C90 1_555 1_555
C91 N35 1_555 1_555
H96 C91 1_555 1_555
H97 C91 1_555 1_555
H98 C91 1_555 1_555
C92 N14 1_555 1_555
H99 C92 1_555 1_555
H100 C92 1_555 1_555
H101 C92 1_555 1_555
C93 N14 1_555 1_555
H102 C93 1_555 1_555
H103 C93 1_555 1_555
H104 C93 1_555 1_555
C94 N13 1_555 1_555
H105 C94 1_555 1_555
H106 C94 1_555 1_555
H107 C94 1_555 1_555
C95 N13 1_555 1_555
H108 C95 1_555 1_555
H109 C95 1_555 1_555
H110 C95 1_555 1_555
C96 N36 1_555 1_555
H111 C96 1_555 1_555
H112 C96 1_555 1_555
H113 C96 1_555 1_555
C97 N36 1_555 1_555
H114 C97 1_555 1_555
H115 C97 1_555 1_555
H116 C97 1_555 1_555
C98 N36 1_555 1_555
H117 C98 1_555 1_555
H118 C98 1_555 1_555
C99 N34 1_555 1_555
H119 C99 1_555 1_555
H120 C99 1_555 1_555
C100 N34 1_555 1_555
H121 C100 1_555 1_555
H122 C100 1_555 1_555
C101 N34 1_555 1_555
H123 C101 1_555 1_555
H124 C101 1_555 1_555
H125 C101 1_555 1_555
C102 N33 1_555 1_555
H126 C102 1_555 1_555
H127 C102 1_555 1_555
H128 C102 1_555 1_555
C103 N33 1_555 1_555
H129 C103 1_555 1_555
H130 C103 1_555 1_555
C104 N33 1_555 1_555
H131 C104 1_555 1_555
H132 C104 1_555 1_555
C105 N32 1_555 1_555
H133 C105 1_555 1_555
H134 C105 1_555 1_555
C106 N32 1_555 1_555
H135 C106 1_555 1_555
H136 C106 1_555 1_555
H137 C106 1_555 1_555
C107 N32 1_555 1_555
H138 C107 1_555 1_555
H139 C107 1_555 1_555
H140 C107 1_555 1_555
C108 N18 1_555 1_555
H141 C108 1_555 1_555
I1 C109 1_555 1_555
C109 C110 1_555 1_555
C110 C111 1_555 1_555
C111 F5 1_555 1_555
F1 C109 1_555 1_555
F2 C109 1_555 1_555
F3 C110 1_555 1_555
F4 C110 1_555 1_555
F6 C111 1_555 1_555
F7 C111 1_555 1_555
I2 C112 1_555 1_555
C112 C113 1_555 1_555
C113 C114 1_555 1_555
C114 F12 1_555 1_555
F8 C112 1_555 1_555
F9 C112 1_555 1_555
F10 C113 1_555 1_555
F11 C113 1_555 1_555
F13 C114 1_555 1_555
F14 C114 1_555 1_555
I3 C115 1_555 1_555
C115 C116 1_555 1_555
C116 C117 1_555 1_555
C117 F19 1_555 1_555
F15 C115 1_555 1_555
F16 C115 1_555 1_555
F17 C116 1_555 1_555
F18 C116 1_555 1_555
F20 C117 1_555 1_555
F21 C117 1_555 1_555
N37 O2 1_555 1_555
O3 N37 1_555 1_555
O4 N37 1_555 1_555
N38 O5 1_555 1_555
O6 N38 1_555 1_555
O7 N38 1_555 1_555
N39 O9 1_555 1_555
O10 N39 1_555 1_555
O11 N39 1_555 1_555
N40 O15 1_555 1_555
O16 N40 1_555 1_555
O17 N40 1_555 1_555
N41 O22 1_555 1_555
O23 N41 1_555 1_555
O24 N41 1_555 1_555
C4 C5 1_555 1_555
N4 C18 1_555 1_555
C8 C17 1_555 1_555
C9 C10 1_555 1_555
N12 C37 1_555 1_555
C13 C18 1_555 1_555
C14 C15 1_555 1_555
C23 C24 1_555 1_555
N24 C51 1_555 1_555
C26 C27 1_555 1_555
N26 C74 1_555 1_555
C28 C29 1_555 1_555
C33 C34 1_555 1_555
C38 C39 1_555 1_555
C45 C46 1_555 1_555
C53 C65 1_555 1_555
C54 C67 1_555 1_555
C57 C69 1_555 1_555
C59 C66 1_555 1_555
C60 C108 1_555 1_555
C61 C64 1_555 1_555
C70 C73 1_555 1_555
C71 C72 1_555 1_555
C78 C79 1_555 1_555
C84 C85 1_555 1_555
C87 C88 1_555 1_555
C98 C99 1_555 1_555
C104 C105 1_555 1_555

#END
