# generated using pymatgen
data_H72Pd3C63I3N28(O3F)21
_symmetry_space_group_name_H-M   'P 1'
_cell_length_a   24.17800000
_cell_length_b   24.30600000
_cell_length_c   24.69900000
_cell_angle_alpha   115.90100000
_cell_angle_beta   91.31500000
_cell_angle_gamma   118.91800000
_symmetry_Int_Tables_number   1
_chemical_formula_structural   H72Pd3C63I3N28(O3F)21
_chemical_formula_sum   'H288 Pd12 C252 I12 N112 O252 F84'
_cell_volume   10911.68228098
_cell_formula_units_Z   4
loop_
 _symmetry_equiv_pos_site_id
 _symmetry_equiv_pos_as_xyz
  1  'x, y, z'
loop_
 _atom_site_type_symbol
 _atom_site_label
 _atom_site_symmetry_multiplicity
 _atom_site_fract_x
 _atom_site_fract_y
 _atom_site_fract_z
 _atom_site_occupancy
  H  H1  1  0.566100  0.632000  0.272000  1
  H  H2  1  0.433900  0.368000  0.728000  1
  H  H3  1  0.455200  0.571900  0.218700  1
  H  H4  1  0.544800  0.428100  0.781300  1
  H  H5  1  0.436300  0.701300  0.379800  1
  H  H6  1  0.563700  0.298700  0.620200  1
  H  H7  1  0.547000  0.756600  0.428200  1
  H  H8  1  0.453000  0.243400  0.571800  1
  H  H9  1  0.228300  0.726800  0.424900  1
  H  H10  1  0.771700  0.273200  0.575100  1
  H  H11  1  0.293900  0.687100  0.376500  1
  H  H12  1  0.706100  0.312900  0.623500  1
  H  H13  1  0.136400  0.530000  0.219800  1
  H  H14  1  0.863600  0.470000  0.780200  1
  H  H15  1  0.073800  0.571400  0.271900  1
  H  H16  1  0.926200  0.428600  0.728100  1
  H  H17  1  0.281500  0.343600  0.996100  1
  H  H18  1  0.718500  0.656400  0.003900  1
  H  H19  1  0.328700  0.442100  0.098900  1
  H  H20  1  0.671300  0.557900  0.901100  1
  H  H21  1  0.150700  0.418000  0.096600  1
  H  H22  1  0.849300  0.582000  0.903400  1
  H  H23  1  0.108600  0.322400  0.993000  1
  H  H24  1  0.891400  0.677600  0.007000  1
  H  H25  1  0.052500  0.691200  0.277300  1
  H  H26  1  0.947500  0.308800  0.722700  1
  H  H27  1  0.100700  0.754900  0.225900  1
  H  H28  1  0.899300  0.245100  0.774100  1
  H  H29  1  0.261200  0.903800  0.380400  1
  H  H30  1  0.738800  0.096200  0.619600  1
  H  H31  1  0.210000  0.836600  0.427500  1
  H  H32  1  0.790000  0.163400  0.572500  1
  H  H33  1  0.204500  0.886100  0.995200  1
  H  H34  1  0.795500  0.113900  0.004800  1
  H  H35  1  0.258000  0.936800  0.099900  1
  H  H36  1  0.742000  0.063200  0.900100  1
  H  H37  1  0.107900  0.757100  0.095500  1
  H  H38  1  0.892100  0.242900  0.904500  1
  H  H39  1  0.057700  0.712500  0.991900  1
  H  H40  1  0.942300  0.287500  0.008100  1
  H  H41  1  0.491700  0.149300  0.430500  1
  H  H42  1  0.508300  0.850700  0.569500  1
  H  H43  1  0.386800  0.040700  0.380000  1
  H  H44  1  0.613200  0.959300  0.620000  1
  H  H45  1  0.382400  0.063400  0.226800  1
  H  H46  1  0.617600  0.936600  0.773200  1
  H  H47  1  0.487800  0.169900  0.280400  1
  H  H48  1  0.512200  0.830100  0.719600  1
  H  H49  1  0.664200  0.886100  0.428300  1
  H  H50  1  0.335800  0.113900  0.571700  1
  H  H51  1  0.657300  0.945700  0.378800  1
  H  H52  1  0.342700  0.054300  0.621200  1
  H  H53  1  0.681000  0.811700  0.225600  1
  H  H54  1  0.319000  0.188300  0.774400  1
  H  H55  1  0.687000  0.754500  0.278300  1
  H  H56  1  0.313000  0.245500  0.721700  1
  H  H57  1  0.603400  0.170500  0.273700  1
  H  H58  1  0.396600  0.829500  0.726300  1
  H  H59  1  0.616800  0.074300  0.219000  1
  H  H60  1  0.383200  0.925700  0.781000  1
  H  H61  1  0.646900  0.072500  0.380100  1
  H  H62  1  0.353100  0.927500  0.619900  1
  H  H63  1  0.634600  0.169700  0.431100  1
  H  H64  1  0.365400  0.830300  0.568900  1
  H  H65  1  0.673400  0.781800  0.994600  1
  H  H66  1  0.326600  0.218200  0.005400  1
  H  H67  1  0.671900  0.821200  0.098100  1
  H  H68  1  0.328100  0.178800  0.901900  1
  H  H69  1  0.646400  0.974000  0.097600  1
  H  H70  1  0.353600  0.026000  0.902400  1
  H  H71  1  0.649700  0.932000  0.994700  1
  H  H72  1  0.350300  0.068000  0.005300  1
  H  H73  1  0.068600  0.610800  0.864500  1
  H  H74  1  0.931400  0.389200  0.135500  1
  H  H75  1  0.131500  0.563200  0.864000  1
  H  H76  1  0.868500  0.436800  0.136000  1
  H  H77  1  0.289800  0.746600  0.881400  1
  H  H78  1  0.710200  0.253400  0.118600  1
  H  H79  1  0.223600  0.791400  0.885600  1
  H  H80  1  0.776400  0.208600  0.114400  1
  H  H81  1  0.275400  0.349500  0.870000  1
  H  H82  1  0.724600  0.650500  0.130000  1
  H  H83  1  0.321700  0.458400  0.870800  1
  H  H84  1  0.678300  0.541600  0.129200  1
  H  H85  1  0.151900  0.450800  0.885700  1
  H  H86  1  0.848100  0.549200  0.114300  1
  H  H87  1  0.110400  0.343100  0.887300  1
  H  H88  1  0.889600  0.656900  0.112700  1
  H  H89  1  0.531700  0.805300  0.859700  1
  H  H90  1  0.468300  0.194700  0.140300  1
  H  H91  1  0.423300  0.744100  0.859100  1
  H  H92  1  0.576700  0.255900  0.140900  1
  H  H93  1  0.452800  0.606100  0.885200  1
  H  H94  1  0.547200  0.393900  0.114800  1
  H  H95  1  0.562800  0.673900  0.888500  1
  H  H96  1  0.437200  0.326100  0.111500  1
  H  H97  1  0.128000  0.609600  0.444600  1
  H  H98  1  0.872000  0.390400  0.555400  1
  H  H99  1  0.089600  0.611200  0.496500  1
  H  H100  1  0.910400  0.388800  0.503500  1
  H  H101  1  0.141400  0.685700  0.498900  1
  H  H102  1  0.858600  0.314300  0.501100  1
  H  H103  1  0.976800  0.540000  0.351900  1
  H  H104  1  0.023200  0.460000  0.648100  1
  H  H105  1  0.991000  0.516000  0.398800  1
  H  H106  1  0.009000  0.484000  0.601200  1
  H  H107  1  0.038300  0.531800  0.355900  1
  H  H108  1  0.961700  0.468200  0.644100  1
  H  H109  1  0.979200  0.604200  0.470700  1
  H  H110  1  0.020800  0.395800  0.529300  1
  H  H111  1  0.045700  0.682600  0.515200  1
  H  H112  1  0.954300  0.317400  0.484800  1
  H  H113  1  0.979400  0.705700  0.491100  1
  H  H114  1  0.020600  0.294300  0.508900  1
  H  H115  1  0.949300  0.639600  0.419900  1
  H  H116  1  0.050700  0.360400  0.580100  1
  H  H117  1  0.970300  0.679900  0.349200  1
  H  H118  1  0.029700  0.320100  0.650800  1
  H  H119  1  0.011600  0.767300  0.384300  1
  H  H120  1  0.988400  0.232700  0.615700  1
  H  H121  1  0.951200  0.724700  0.406200  1
  H  H122  1  0.048800  0.275300  0.593800  1
  H  H123  1  0.102700  0.836600  0.469800  1
  H  H124  1  0.897300  0.163400  0.530200  1
  H  H125  1  0.102400  0.810600  0.519200  1
  H  H126  1  0.897600  0.189400  0.480800  1
  H  H127  1  0.045900  0.822700  0.503800  1
  H  H128  1  0.954100  0.177300  0.496200  1
  H  H129  1  0.939000  0.763400  0.927900  1
  H  H130  1  0.061000  0.236600  0.072100  1
  H  H131  1  0.986700  0.755900  0.966200  1
  H  H132  1  0.013300  0.244100  0.033800  1
  H  H133  1  0.946400  0.695200  0.893600  1
  H  H134  1  0.053600  0.304800  0.106400  1
  H  H135  1  0.099400  0.898500  0.945300  1
  H  H136  1  0.900600  0.101500  0.054700  1
  H  H137  1  0.078000  0.876200  0.997100  1
  H  H138  1  0.922000  0.123800  0.002900  1
  H  H139  1  0.031600  0.886200  0.960100  1
  H  H140  1  0.968400  0.113800  0.039900  1
  H  H141  1  0.963000  0.785300  0.844400  1
  H  H142  1  0.037000  0.214700  0.155600  1
  H  H143  1  0.036900  0.819800  0.839100  1
  H  H144  1  0.963100  0.180200  0.160900  1
  H  H145  1  0.969600  0.703800  0.751700  1
  H  H146  1  0.030400  0.296200  0.248300  1
  H  H147  1  0.944300  0.669600  0.795700  1
  H  H148  1  0.055700  0.330400  0.204300  1
  H  H149  1  0.986000  0.599300  0.717500  1
  H  H150  1  0.014000  0.400700  0.282500  1
  H  H151  1  0.987400  0.597400  0.781500  1
  H  H152  1  0.012600  0.402600  0.218500  1
  H  H153  1  0.050800  0.614700  0.756200  1
  H  H154  1  0.949200  0.385300  0.243800  1
  H  H155  1  0.069100  0.715900  0.724700  1
  H  H156  1  0.930900  0.284100  0.275300  1
  H  H157  1  0.127800  0.737400  0.776800  1
  H  H158  1  0.872200  0.262600  0.223200  1
  H  H159  1  0.102200  0.790400  0.791300  1
  H  H160  1  0.897800  0.209600  0.208700  1
  H  H161  1  0.639300  0.683700  0.725400  1
  H  H162  1  0.360700  0.316300  0.274600  1
  H  H163  1  0.598500  0.668400  0.772900  1
  H  H164  1  0.401500  0.331600  0.227100  1
  H  H165  1  0.676800  0.705000  0.792500  1
  H  H166  1  0.323200  0.295000  0.207500  1
  H  H167  1  0.602600  0.759400  0.718900  1
  H  H168  1  0.397400  0.240600  0.281100  1
  H  H169  1  0.603800  0.819600  0.782600  1
  H  H170  1  0.396200  0.180400  0.217400  1
  H  H171  1  0.555300  0.734500  0.759000  1
  H  H172  1  0.444700  0.265500  0.241000  1
  H  H173  1  0.716800  0.870400  0.800600  1
  H  H174  1  0.283200  0.129600  0.199400  1
  H  H175  1  0.723500  0.803900  0.755500  1
  H  H176  1  0.276500  0.196100  0.244500  1
  H  H177  1  0.813600  0.890600  0.849800  1
  H  H178  1  0.186400  0.109400  0.150200  1
  H  H179  1  0.773300  0.811200  0.842600  1
  H  H180  1  0.226700  0.188800  0.157400  1
  H  H181  1  0.786400  0.841000  0.949600  1
  H  H182  1  0.213600  0.159000  0.050400  1
  H  H183  1  0.793800  0.915100  0.000800  1
  H  H184  1  0.206200  0.084900  0.999200  1
  H  H185  1  0.845700  0.918100  0.961300  1
  H  H186  1  0.154300  0.081900  0.038700  1
  H  H187  1  0.816500  0.987800  0.927900  1
  H  H188  1  0.183500  0.012200  0.072100  1
  H  H189  1  0.769900  0.981200  0.972800  1
  H  H190  1  0.230100  0.018800  0.027200  1
  H  H191  1  0.739600  0.954300  0.901200  1
  H  H192  1  0.260400  0.045700  0.098800  1
  H  H193  1  0.557400  0.647000  0.435200  1
  H  H194  1  0.442600  0.353000  0.564800  1
  H  H195  1  0.609100  0.724600  0.496800  1
  H  H196  1  0.390900  0.275400  0.503200  1
  H  H197  1  0.602300  0.652100  0.488100  1
  H  H198  1  0.397700  0.347900  0.511900  1
  H  H199  1  0.595600  0.593800  0.348700  1
  H  H200  1  0.404400  0.406200  0.651300  1
  H  H201  1  0.625900  0.582500  0.398300  1
  H  H202  1  0.374100  0.417500  0.601700  1
  H  H203  1  0.671900  0.620600  0.363700  1
  H  H204  1  0.328100  0.379400  0.636300  1
  H  H205  1  0.721000  0.690400  0.487900  1
  H  H206  1  0.279000  0.309600  0.512100  1
  H  H207  1  0.722600  0.764800  0.520700  1
  H  H208  1  0.277400  0.235200  0.479300  1
  H  H209  1  0.770900  0.719100  0.415600  1
  H  H210  1  0.229100  0.280900  0.584400  1
  H  H211  1  0.816400  0.786600  0.485500  1
  H  H212  1  0.183600  0.213400  0.514500  1
  H  H213  1  0.779100  0.909100  0.486900  1
  H  H214  1  0.220900  0.090900  0.513100  1
  H  H215  1  0.835500  0.905000  0.516800  1
  H  H216  1  0.164500  0.095000  0.483200  1
  H  H217  1  0.764100  0.869300  0.527000  1
  H  H218  1  0.235900  0.130700  0.473000  1
  H  H219  1  0.788500  0.779100  0.356000  1
  H  H220  1  0.211500  0.220900  0.644000  1
  H  H221  1  0.852000  0.842400  0.416500  1
  H  H222  1  0.148000  0.157600  0.583500  1
  H  H223  1  0.805800  0.861100  0.390900  1
  H  H224  1  0.194200  0.138900  0.609100  1
  H  H225  1  0.547200  0.328800  0.368000  1
  H  H226  1  0.452800  0.671200  0.632000  1
  H  H227  1  0.527700  0.373500  0.424700  1
  H  H228  1  0.472300  0.626500  0.575300  1
  H  H229  1  0.484400  0.285900  0.387400  1
  H  H230  1  0.515600  0.714100  0.612600  1
  H  H231  1  0.495800  0.272400  0.472200  1
  H  H232  1  0.504200  0.727600  0.527800  1
  H  H233  1  0.533400  0.358900  0.518700  1
  H  H234  1  0.466600  0.641100  0.481300  1
  H  H235  1  0.566100  0.316600  0.522600  1
  H  H236  1  0.433900  0.683400  0.477400  1
  H  H237  1  0.636600  0.428800  0.458800  1
  H  H238  1  0.363400  0.571200  0.541200  1
  H  H239  1  0.636100  0.430300  0.523800  1
  H  H240  1  0.363900  0.569700  0.476200  1
  H  H241  1  0.711800  0.424600  0.528400  1
  H  H242  1  0.288200  0.575400  0.471600  1
  H  H243  1  0.721300  0.442400  0.473300  1
  H  H244  1  0.278700  0.557600  0.526700  1
  H  H245  1  0.728900  0.308600  0.373600  1
  H  H246  1  0.271100  0.691400  0.626400  1
  H  H247  1  0.771200  0.395300  0.420700  1
  H  H248  1  0.228800  0.604700  0.579300  1
  H  H249  1  0.701300  0.356100  0.371900  1
  H  H250  1  0.298700  0.643900  0.628100  1
  H  H251  1  0.735600  0.292600  0.458300  1
  H  H252  1  0.264400  0.707400  0.541700  1
  H  H253  1  0.704700  0.318900  0.513200  1
  H  H254  1  0.295300  0.681100  0.486800  1
  H  H255  1  0.772700  0.377500  0.510400  1
  H  H256  1  0.227300  0.622500  0.489600  1
  H  H257  1  0.052500  0.163000  0.941900  1
  H  H258  1  0.947500  0.837000  0.058100  1
  H  H259  1  0.121300  0.206600  0.994300  1
  H  H260  1  0.878700  0.793400  0.005700  1
  H  H261  1  0.077600  0.119100  0.955800  1
  H  H262  1  0.922400  0.880900  0.044200  1
  H  H263  1  0.171100  0.116500  0.921500  1
  H  H264  1  0.828900  0.883500  0.078500  1
  H  H265  1  0.213200  0.203800  0.964800  1
  H  H266  1  0.786800  0.796200  0.035200  1
  H  H267  1  0.211100  0.165900  0.892400  1
  H  H268  1  0.788900  0.834100  0.107600  1
  H  H269  1  0.072600  0.052000  0.840500  1
  H  H270  1  0.927400  0.948000  0.159500  1
  H  H271  1  0.036400  0.091300  0.836700  1
  H  H272  1  0.963600  0.908700  0.163300  1
  H  H273  1  0.074300  0.061600  0.749300  1
  H  H274  1  0.925700  0.938400  0.250700  1
  H  H275  1  0.147700  0.103800  0.793600  1
  H  H276  1  0.852300  0.896200  0.206400  1
  H  H277  1  0.154100  0.153100  0.718400  1
  H  H278  1  0.845900  0.846900  0.281600  1
  H  H279  1  0.213000  0.208700  0.783200  1
  H  H280  1  0.787000  0.791300  0.216800  1
  H  H281  1  0.174800  0.236100  0.759100  1
  H  H282  1  0.825200  0.763900  0.240900  1
  H  H283  1  0.041200  0.125700  0.724200  1
  H  H284  1  0.958800  0.874300  0.275800  1
  H  H285  1  0.069900  0.209900  0.773100  1
  H  H286  1  0.930100  0.790100  0.226900  1
  H  H287  1  0.028000  0.149400  0.791500  1
  H  H288  1  0.972000  0.850600  0.208500  1
  Pd  Pd289  1  0.664970  0.753140  0.396640  1
  Pd  Pd290  1  0.335030  0.246860  0.603360  1
  Pd  Pd291  1  0.090260  0.691620  0.393730  1
  Pd  Pd292  1  0.909740  0.308380  0.606270  1
  Pd  Pd293  1  0.595220  0.254260  0.402060  1
  Pd  Pd294  1  0.404780  0.745740  0.597940  1
  Pd  Pd295  1  0.156810  0.249870  0.891370  1
  Pd  Pd296  1  0.843190  0.750130  0.108630  1
  Pd  Pd297  1  0.083990  0.748640  0.890870  1
  Pd  Pd298  1  0.916010  0.251360  0.109130  1
  Pd  Pd299  1  0.656600  0.814090  0.892220  1
  Pd  Pd300  1  0.343400  0.185910  0.107780  1
  C  C301  1  0.538900  0.645300  0.294000  1
  C  C302  1  0.461100  0.354700  0.706000  1
  C  C303  1  0.472800  0.609400  0.261900  1
  C  C304  1  0.527200  0.390600  0.738100  1
  C  C305  1  0.433000  0.629000  0.293500  1
  C  C306  1  0.567000  0.371000  0.706500  1
  C  C307  1  0.461800  0.685600  0.356800  1
  C  C308  1  0.538200  0.314400  0.643200  1
  C  C309  1  0.527700  0.718200  0.385300  1
  C  C310  1  0.472300  0.281800  0.614700  1
  C  C311  1  0.362200  0.591200  0.261700  1
  C  C312  1  0.637800  0.408800  0.738300  1
  C  C313  1  0.209600  0.686400  0.382900  1
  C  C314  1  0.790400  0.313600  0.617100  1
  C  C315  1  0.249000  0.663200  0.354200  1
  C  C316  1  0.751000  0.336800  0.645800  1
  C  C317  1  0.222400  0.605300  0.293200  1
  C  C318  1  0.777600  0.394700  0.706800  1
  C  C319  1  0.155900  0.570300  0.261800  1
  C  C320  1  0.844100  0.429700  0.738200  1
  C  C321  1  0.119100  0.595400  0.293100  1
  C  C322  1  0.880900  0.404600  0.706900  1
  C  C323  1  0.263900  0.579900  0.261200  1
  C  C324  1  0.736100  0.420100  0.738800  1
  C  C325  1  0.255200  0.359800  0.016700  1
  C  C326  1  0.744800  0.640200  0.983300  1
  C  C327  1  0.283300  0.417900  0.078100  1
  C  C328  1  0.716700  0.582100  0.921900  1
  C  C329  1  0.244800  0.440800  0.109000  1
  C  C330  1  0.755200  0.559200  0.891000  1
  C  C331  1  0.178600  0.404000  0.076600  1
  C  C332  1  0.821400  0.596000  0.923400  1
  C  C333  1  0.153700  0.347100  0.015100  1
  C  C334  1  0.846300  0.652900  0.984900  1
  C  C335  1  0.274100  0.503100  0.174700  1
  C  C336  1  0.725900  0.496900  0.825300  1
  C  C337  1  0.095600  0.734700  0.298200  1
  C  C338  1  0.904400  0.265300  0.701800  1
  C  C339  1  0.123900  0.772400  0.267200  1
  C  C340  1  0.876100  0.227600  0.732800  1
  C  C341  1  0.186800  0.836100  0.297500  1
  C  C342  1  0.813200  0.163900  0.702500  1
  C  C343  1  0.218500  0.860000  0.358200  1
  C  C344  1  0.781500  0.140000  0.641800  1
  C  C345  1  0.187700  0.819900  0.386100  1
  C  C346  1  0.812300  0.180100  0.613900  1
  C  C347  1  0.220000  0.875700  0.264000  1
  C  C348  1  0.780000  0.124300  0.736000  1
  C  C349  1  0.184800  0.860200  0.016400  1
  C  C350  1  0.815200  0.139800  0.983600  1
  C  C351  1  0.217000  0.890700  0.078600  1
  C  C352  1  0.783000  0.109300  0.921400  1
  C  C353  1  0.188400  0.852900  0.109700  1
  C  C354  1  0.811600  0.147100  0.890300  1
  C  C355  1  0.128200  0.784700  0.076000  1
  C  C356  1  0.871800  0.215300  0.924000  1
  C  C357  1  0.098900  0.758300  0.014300  1
  C  C358  1  0.901100  0.241700  0.985700  1
  C  C359  1  0.220100  0.883300  0.176500  1
  C  C360  1  0.779900  0.116700  0.823500  1
  C  C361  1  0.469200  0.131100  0.388600  1
  C  C362  1  0.530800  0.868900  0.611400  1
  C  C363  1  0.406700  0.066700  0.359100  1
  C  C364  1  0.593300  0.933300  0.640900  1
  C  C365  1  0.373900  0.041100  0.297700  1
  C  C366  1  0.626100  0.958900  0.702300  1
  C  C367  1  0.404200  0.079900  0.268400  1
  C  C368  1  0.595800  0.920100  0.731600  1
  C  C369  1  0.466800  0.143300  0.300600  1
  C  C370  1  0.533200  0.856700  0.699400  1
  C  C371  1  0.307100  0.971500  0.264400  1
  C  C372  1  0.692900  0.028500  0.735600  1
  C  C373  1  0.667400  0.870900  0.386600  1
  C  C374  1  0.332600  0.129100  0.613400  1
  C  C375  1  0.663200  0.906500  0.357400  1
  C  C376  1  0.336800  0.093500  0.642600  1
  C  C377  1  0.667900  0.884500  0.296100  1
  C  C378  1  0.332100  0.115500  0.703900  1
  C  C379  1  0.677100  0.827500  0.267200  1
  C  C380  1  0.322900  0.172500  0.732800  1
  C  C381  1  0.680800  0.793700  0.298600  1
  C  C382  1  0.319200  0.206300  0.701400  1
  C  C383  1  0.660400  0.919800  0.262600  1
  C  C384  1  0.339600  0.080200  0.737400  1
  C  C385  1  0.612600  0.150300  0.295300  1
  C  C386  1  0.387400  0.849700  0.704700  1
  C  C387  1  0.620600  0.093000  0.262600  1
  C  C388  1  0.379400  0.907000  0.737400  1
  C  C389  1  0.634000  0.063100  0.293400  1
  C  C390  1  0.366000  0.936900  0.706600  1
  C  C391  1  0.638500  0.092100  0.357500  1
  C  C392  1  0.361500  0.907900  0.642500  1
  C  C393  1  0.630600  0.149600  0.387400  1
  C  C394  1  0.369400  0.850400  0.612600  1
  C  C395  1  0.644100  0.002700  0.260900  1
  C  C396  1  0.355900  0.997300  0.739100  1
  C  C397  1  0.668200  0.821500  0.016100  1
  C  C398  1  0.331800  0.178500  0.983900  1
  C  C399  1  0.666800  0.844300  0.077500  1
  C  C400  1  0.333200  0.155700  0.922500  1
  C  C401  1  0.657800  0.901100  0.108900  1
  C  C402  1  0.342200  0.098900  0.891100  1
  C  C403  1  0.651900  0.934400  0.077100  1
  C  C404  1  0.348100  0.065600  0.922900  1
  C  C405  1  0.654100  0.909300  0.016100  1
  C  C406  1  0.345900  0.090700  0.983900  1
  C  C407  1  0.655900  0.927600  0.175100  1
  C  C408  1  0.344100  0.072400  0.824900  1
  C  C409  1  0.114400  0.638900  0.868900  1
  C  C410  1  0.885600  0.361100  0.131100  1
  C  C411  1  0.151300  0.610100  0.868300  1
  C  C412  1  0.848700  0.389900  0.131700  1
  C  C413  1  0.218700  0.650900  0.874000  1
  C  C414  1  0.781300  0.349100  0.126000  1
  C  C415  1  0.244600  0.718400  0.879100  1
  C  C416  1  0.755400  0.281600  0.120900  1
  C  C417  1  0.204800  0.744400  0.880700  1
  C  C418  1  0.795200  0.255600  0.119300  1
  C  C419  1  0.259700  0.621500  0.874200  1
  C  C420  1  0.740300  0.378500  0.125800  1
  C  C421  1  0.250400  0.370700  0.873600  1
  C  C422  1  0.749600  0.629300  0.126400  1
  C  C423  1  0.277900  0.435100  0.873500  1
  C  C424  1  0.722100  0.564900  0.126500  1
  C  C425  1  0.241700  0.466300  0.877400  1
  C  C426  1  0.758300  0.533700  0.122600  1
  C  C427  1  0.178100  0.430900  0.882700  1
  C  C428  1  0.821900  0.569100  0.117300  1
  C  C429  1  0.153600  0.366900  0.883400  1
  C  C430  1  0.846400  0.633100  0.116600  1
  C  C431  1  0.270100  0.535000  0.876600  1
  C  C432  1  0.729900  0.465000  0.123400  1
  C  C433  1  0.515600  0.765100  0.866100  1
  C  C434  1  0.484400  0.234900  0.133900  1
  C  C435  1  0.451000  0.728600  0.865200  1
  C  C436  1  0.549000  0.271400  0.134800  1
  C  C437  1  0.426100  0.668800  0.873200  1
  C  C438  1  0.573900  0.331200  0.126800  1
  C  C439  1  0.468400  0.647800  0.881000  1
  C  C440  1  0.531600  0.352200  0.119000  1
  C  C441  1  0.533900  0.688200  0.882500  1
  C  C442  1  0.466100  0.311800  0.117500  1
  C  C443  1  0.356400  0.629300  0.873700  1
  C  C444  1  0.643600  0.370700  0.126300  1
  C  C445  1  0.107800  0.633500  0.471100  1
  C  C446  1  0.892200  0.366500  0.528900  1
  C  C447  1  0.011500  0.546400  0.380000  1
  C  C448  1  0.988500  0.453600  0.620000  1
  C  C449  1  0.016100  0.647500  0.471300  1
  C  C450  1  0.983900  0.352500  0.528700  1
  C  C451  1  0.990900  0.679000  0.454800  1
  C  C452  1  0.009100  0.321000  0.545200  1
  C  C453  1  0.987800  0.725000  0.389900  1
  C  C454  1  0.012200  0.275000  0.610100  1
  C  C455  1  0.074500  0.806300  0.486200  1
  C  C456  1  0.925500  0.193700  0.513800  1
  C  C457  1  0.969700  0.747500  0.925100  1
  C  C458  1  0.030300  0.252500  0.074900  1
  C  C459  1  0.061800  0.869700  0.956600  1
  C  C460  1  0.938200  0.130300  0.043400  1
  C  C461  1  0.001600  0.780900  0.844700  1
  C  C462  1  0.998400  0.219100  0.155300  1
  C  C463  1  0.982600  0.708600  0.792600  1
  C  C464  1  0.017400  0.291400  0.207400  1
  C  C465  1  0.013800  0.621300  0.759700  1
  C  C466  1  0.986200  0.378700  0.240300  1
  C  C467  1  0.088900  0.739300  0.770000  1
  C  C468  1  0.911100  0.260700  0.230000  1
  C  C469  1  0.640700  0.701900  0.769900  1
  C  C470  1  0.359300  0.298100  0.230100  1
  C  C471  1  0.598800  0.772000  0.761500  1
  C  C472  1  0.401200  0.228000  0.238500  1
  C  C473  1  0.716400  0.827800  0.796500  1
  C  C474  1  0.283600  0.172200  0.203500  1
  C  C475  1  0.770700  0.852900  0.849000  1
  C  C476  1  0.229300  0.147100  0.151000  1
  C  C477  1  0.799300  0.890100  0.959700  1
  C  C478  1  0.200700  0.109900  0.040300  1
  C  C479  1  0.771900  0.958100  0.929700  1
  C  C480  1  0.228100  0.041900  0.070300  1
  C  C481  1  0.601000  0.676900  0.466200  1
  C  C482  1  0.399000  0.323100  0.533800  1
  C  C483  1  0.635100  0.615000  0.381600  1
  C  C484  1  0.364900  0.385000  0.618400  1
  C  C485  1  0.718300  0.725800  0.480100  1
  C  C486  1  0.281700  0.274200  0.519900  1
  C  C487  1  0.772900  0.758500  0.454100  1
  C  C488  1  0.227100  0.241500  0.545900  1
  C  C489  1  0.787900  0.879000  0.497400  1
  C  C490  1  0.212100  0.121000  0.502600  1
  C  C491  1  0.806400  0.824100  0.396900  1
  C  C492  1  0.193600  0.175900  0.603100  1
  C  C493  1  0.529200  0.329700  0.403300  1
  C  C494  1  0.470800  0.670300  0.596700  1
  C  C495  1  0.539200  0.318700  0.494200  1
  C  C496  1  0.460800  0.681300  0.505800  1
  C  C497  1  0.635900  0.402400  0.480200  1
  C  C498  1  0.364100  0.597600  0.519800  1
  C  C499  1  0.691600  0.405300  0.483700  1
  C  C500  1  0.308400  0.594700  0.516300  1
  C  C501  1  0.726400  0.351100  0.399200  1
  C  C502  1  0.273600  0.648900  0.600800  1
  C  C503  1  0.729400  0.331700  0.485200  1
  C  C504  1  0.270600  0.668300  0.514800  1
  C  C505  1  0.091500  0.162800  0.953300  1
  C  C506  1  0.908500  0.837200  0.046700  1
  C  C507  1  0.185500  0.162100  0.922300  1
  C  C508  1  0.814500  0.837900  0.077700  1
  C  C509  1  0.079600  0.096400  0.842000  1
  C  C510  1  0.920400  0.903600  0.158000  1
  C  C511  1  0.106800  0.103700  0.790600  1
  C  C512  1  0.893200  0.896300  0.209400  1
  C  C513  1  0.170000  0.194700  0.761200  1
  C  C514  1  0.830000  0.805300  0.238800  1
  C  C515  1  0.060000  0.163900  0.768900  1
  C  C516  1  0.940000  0.836100  0.231100  1
  C  C517  1  0.438700  0.633000  0.088200  1
  C  C518  1  0.561300  0.367000  0.911800  1
  C  C519  1  0.404600  0.654400  0.055500  1
  C  C520  1  0.595400  0.345600  0.944500  1
  C  C521  1  0.505800  0.693600  0.127100  1
  C  C522  1  0.494200  0.306400  0.872900  1
  C  C523  1  0.448300  0.869900  0.307700  1
  C  C524  1  0.551700  0.130100  0.692300  1
  C  C525  1  0.383100  0.850500  0.270800  1
  C  C526  1  0.616900  0.149500  0.729200  1
  C  C527  1  0.440100  0.811200  0.315500  1
  C  C528  1  0.559900  0.188800  0.684500  1
  C  C529  1  0.175000  0.602800  0.091700  1
  C  C530  1  0.825000  0.397200  0.908300  1
  C  C531  1  0.234200  0.606600  0.071100  1
  C  C532  1  0.765800  0.393400  0.928900  1
  C  C533  1  0.192200  0.664600  0.155600  1
  C  C534  1  0.807800  0.335400  0.844400  1
  C  C535  1  0.417900  0.854300  0.058200  1
  C  C536  1  0.582100  0.145700  0.941800  1
  C  C537  1  0.368500  0.871900  0.077000  1
  C  C538  1  0.631500  0.128100  0.923000  1
  C  C539  1  0.469200  0.875700  0.113200  1
  C  C540  1  0.530800  0.124300  0.886800  1
  C  C541  1  0.200500  0.624900  0.064900  1
  C  C542  1  0.799500  0.375100  0.935100  1
  C  C543  1  0.235700  0.704100  0.113700  1
  C  C544  1  0.764300  0.295900  0.886300  1
  C  C545  1  0.193800  0.577300  0.089800  1
  C  C546  1  0.806200  0.422700  0.910200  1
  C  C547  1  0.444100  0.880800  0.079400  1
  C  C548  1  0.555900  0.119200  0.920600  1
  C  C549  1  0.414700  0.918400  0.119700  1
  C  C550  1  0.585300  0.081600  0.880300  1
  C  C551  1  0.403600  0.799900  0.049100  1
  C  C552  1  0.596400  0.200100  0.950900  1
  I  I553  1  0.431130  0.533570  0.021210  1
  I  I554  1  0.568870  0.466430  0.978790  1
  I  I555  1  0.486510  0.967310  0.397210  1
  I  I556  1  0.513490  0.032690  0.602790  1
  I  I557  1  0.102080  0.585040  0.014370  1
  I  I558  1  0.897920  0.414960  0.985630  1
  I  I559  1  0.479880  0.908010  0.011150  1
  I  I560  1  0.520120  0.091990  0.988850  1
  I  I561  1  0.103810  0.582400  0.019700  1
  I  I562  1  0.896190  0.417600  0.980300  1
  I  I563  1  0.441800  0.885400  0.993280  1
  I  I564  1  0.558200  0.114600  0.006720  1
  N  N565  1  0.565600  0.697700  0.354700  1
  N  N566  1  0.434400  0.302300  0.645300  1
  N  N567  1  0.145200  0.652700  0.352600  1
  N  N568  1  0.854800  0.347300  0.647400  1
  N  N569  1  0.191600  0.325700  0.985600  1
  N  N570  1  0.808400  0.674300  0.014400  1
  N  N571  1  0.327400  0.616000  0.293400  1
  N  N572  1  0.672600  0.384000  0.706600  1
  N  N573  1  0.234500  0.522700  0.201400  1
  N  N574  1  0.765500  0.477300  0.798600  1
  N  N575  1  0.338000  0.535000  0.202100  1
  N  N576  1  0.662000  0.465000  0.797900  1
  N  N577  1  0.126700  0.757400  0.356500  1
  N  N578  1  0.873300  0.242600  0.643500  1
  N  N579  1  0.126700  0.795200  0.984800  1
  N  N580  1  0.873300  0.204800  0.015200  1
  N  N581  1  0.498900  0.168500  0.359600  1
  N  N582  1  0.501100  0.831500  0.640400  1
  N  N583  1  0.188300  0.845900  0.204300  1
  N  N584  1  0.811700  0.154100  0.795700  1
  N  N585  1  0.279800  0.946800  0.204800  1
  N  N586  1  0.720200  0.053200  0.795200  1
  N  N587  1  0.279200  0.938700  0.297300  1
  N  N588  1  0.720800  0.061300  0.702700  1
  N  N589  1  0.675800  0.815500  0.357800  1
  N  N590  1  0.324200  0.184500  0.642200  1
  N  N591  1  0.617500  0.178100  0.357100  1
  N  N592  1  0.382500  0.821900  0.642900  1
  N  N593  1  0.662400  0.853700  0.985300  1
  N  N594  1  0.337600  0.146300  0.014700  1
  N  N595  1  0.650900  0.973300  0.293500  1
  N  N596  1  0.349100  0.026700  0.706500  1
  N  N597  1  0.645200  0.981100  0.201100  1
  N  N598  1  0.354800  0.018900  0.798900  1
  N  N599  1  0.664400  0.894900  0.203400  1
  N  N600  1  0.335600  0.105100  0.796600  1
  N  N601  1  0.140500  0.705500  0.875500  1
  N  N602  1  0.859500  0.294500  0.124500  1
  N  N603  1  0.189500  0.337000  0.878600  1
  N  N604  1  0.810500  0.663000  0.121400  1
  N  N605  1  0.557400  0.746300  0.875600  1
  N  N606  1  0.442600  0.253700  0.124400  1
  N  N607  1  0.231200  0.559200  0.875800  1
  N  N608  1  0.768800  0.440800  0.124200  1
  N  N609  1  0.334000  0.568100  0.875800  1
  N  N610  1  0.666000  0.431900  0.124200  1
  N  N611  1  0.321600  0.658100  0.872500  1
  N  N612  1  0.678400  0.341900  0.127500  1
  N  N613  1  0.053900  0.623900  0.430400  1
  N  N614  1  0.946100  0.376100  0.569600  1
  N  N615  1  0.033700  0.729800  0.435000  1
  N  N616  1  0.966300  0.270200  0.565000  1
  N  N617  1  0.025800  0.789900  0.906300  1
  N  N618  1  0.974200  0.210100  0.093700  1
  N  N619  1  0.039900  0.700300  0.796000  1
  N  N620  1  0.960100  0.299700  0.204000  1
  N  N621  1  0.651700  0.775500  0.798200  1
  N  N622  1  0.348300  0.224500  0.201800  1
  N  N623  1  0.756500  0.884300  0.910200  1
  N  N624  1  0.243500  0.115700  0.089800  1
  N  N625  1  0.652900  0.687700  0.433400  1
  N  N626  1  0.347100  0.312300  0.566600  1
  N  N627  1  0.765000  0.808100  0.438600  1
  N  N628  1  0.235000  0.191900  0.561400  1
  N  N629  1  0.572200  0.330900  0.448400  1
  N  N630  1  0.427800  0.669100  0.551600  1
  N  N631  1  0.692900  0.340800  0.446400  1
  N  N632  1  0.307100  0.659200  0.553600  1
  N  N633  1  0.126900  0.162400  0.904300  1
  N  N634  1  0.873100  0.837600  0.095700  1
  N  N635  1  0.121700  0.173800  0.795900  1
  N  N636  1  0.878300  0.826200  0.204100  1
  N  N637  1  0.698800  0.612100  0.262700  1
  N  N638  1  0.301200  0.387900  0.737300  1
  N  N639  1  0.644600  0.676500  0.072300  1
  N  N640  1  0.355400  0.323500  0.927700  1
  N  N641  1  0.587100  0.170400  0.519700  1
  N  N642  1  0.412900  0.829600  0.480300  1
  N  N643  1  0.974000  0.553600  0.899200  1
  N  N644  1  0.026000  0.446400  0.100800  1
  N  N645  1  0.580800  0.934700  0.893200  1
  N  N646  1  0.419200  0.065300  0.106800  1
  N  N647  1  0.820700  0.024000  0.177400  1
  N  N648  1  0.179300  0.976000  0.822600  1
  N  N649  1  0.086600  0.440400  0.742100  1
  N  N650  1  0.913400  0.559600  0.257900  1
  N  N651  1  0.273500  0.312900  0.121800  1
  N  N652  1  0.726500  0.687100  0.878200  1
  N  N653  1  0.221600  0.859300  0.563700  1
  N  N654  1  0.778400  0.140700  0.436300  1
  N  N655  1  0.882200  0.047700  0.836700  1
  N  N656  1  0.117800  0.952300  0.163300  1
  N  N657  1  0.305100  0.158200  0.357500  1
  N  N658  1  0.694900  0.841800  0.642500  1
  N  N659  1  0.178400  0.485100  0.345400  1
  N  N660  1  0.821600  0.514900  0.654600  1
  N  N661  1  0.643200  0.663400  0.102000  1
  N  N662  1  0.356800  0.336600  0.898000  1
  N  N663  1  0.504600  0.485000  0.152400  1
  N  N664  1  0.495400  0.515000  0.847600  1
  N  N665  1  0.969200  0.577000  0.923800  1
  N  N666  1  0.030800  0.423000  0.076200  1
  N  N667  1  0.620000  0.971200  0.927800  1
  N  N668  1  0.380000  0.028800  0.072200  1
  N  N669  1  0.800200  0.068400  0.118500  1
  N  N670  1  0.199800  0.931600  0.881500  1
  N  N671  1  0.105200  0.326100  0.739300  1
  N  N672  1  0.894800  0.673900  0.260700  1
  N  N673  1  0.203000  0.324200  0.169900  1
  N  N674  1  0.797000  0.675800  0.830100  1
  N  N675  1  0.970800  0.179900  0.865500  1
  N  N676  1  0.029200  0.820100  0.134500  1
  O  O677  1  0.644600  0.550400  0.241000  1
  O  O678  1  0.355400  0.449600  0.759000  1
  O  O679  1  0.750200  0.623700  0.290600  1
  O  O680  1  0.249800  0.376300  0.709400  1
  O  O681  1  0.696000  0.658700  0.261400  1
  O  O682  1  0.304000  0.341300  0.738600  1
  O  O683  1  0.581000  0.577500  0.154500  1
  O  O684  1  0.419000  0.422500  0.845500  1
  O  O685  1  0.440400  0.446900  0.218700  1
  O  O686  1  0.559600  0.553100  0.781300  1
  O  O687  1  0.421700  0.404900  0.074100  1
  O  O688  1  0.578300  0.595100  0.925900  1
  O  O689  1  0.610600  0.616100  0.067900  1
  O  O690  1  0.389400  0.383900  0.932100  1
  O  O691  1  0.688900  0.730900  0.121300  1
  O  O692  1  0.311100  0.269100  0.878700  1
  O  O693  1  0.635900  0.680800  0.023600  1
  O  O694  1  0.364100  0.319200  0.976400  1
  O  O695  1  0.534500  0.110500  0.501000  1
  O  O696  1  0.465500  0.889500  0.499000  1
  O  O697  1  0.641400  0.176500  0.528700  1
  O  O698  1  0.358600  0.823500  0.471300  1
  O  O699  1  0.586300  0.224500  0.528000  1
  O  O700  1  0.413700  0.775500  0.472000  1
  O  O701  1  0.991100  0.564500  0.952800  1
  O  O702  1  0.008900  0.435500  0.047200  1
  O  O703  1  0.958700  0.593000  0.892300  1
  O  O704  1  0.041300  0.407000  0.107700  1
  O  O705  1  0.973600  0.504000  0.852400  1
  O  O706  1  0.026400  0.496000  0.147600  1
  O  O707  1  0.566600  0.958800  0.942900  1
  O  O708  1  0.433400  0.041200  0.057100  1
  O  O709  1  0.636100  0.944000  0.893900  1
  O  O710  1  0.363900  0.056000  0.106100  1
  O  O711  1  0.536600  0.894200  0.841400  1
  O  O712  1  0.463400  0.105800  0.158600  1
  O  O713  1  0.411500  0.869300  0.853400  1
  O  O714  1  0.588500  0.130700  0.146600  1
  O  O715  1  0.307100  0.726100  0.759000  1
  O  O716  1  0.692900  0.273900  0.241000  1
  O  O717  1  0.792800  0.054900  0.205500  1
  O  O718  1  0.207200  0.945100  0.794500  1
  O  O719  1  0.840100  0.997300  0.199400  1
  O  O720  1  0.159900  0.002700  0.800600  1
  O  O721  1  0.828900  0.021600  0.125900  1
  O  O722  1  0.171100  0.978400  0.874100  1
  O  O723  1  0.089400  0.402800  0.763900  1
  O  O724  1  0.910600  0.597200  0.236100  1
  O  O725  1  0.134000  0.471100  0.721200  1
  O  O726  1  0.866000  0.528900  0.278800  1
  O  O727  1  0.040200  0.443900  0.739800  1
  O  O728  1  0.959800  0.556100  0.260200  1
  O  O729  1  0.120100  0.284400  0.710300  1
  O  O730  1  0.879900  0.715600  0.289700  1
  O  O731  1  0.211900  0.274900  0.096900  1
  O  O732  1  0.788100  0.725100  0.903100  1
  O  O733  1  0.295800  0.369900  0.175800  1
  O  O734  1  0.704200  0.630100  0.824200  1
  O  O735  1  0.309300  0.296500  0.095100  1
  O  O736  1  0.690700  0.703500  0.904900  1
  O  O737  1  0.166800  0.340800  0.199100  1
  O  O738  1  0.833200  0.659200  0.800900  1
  O  O739  1  0.224400  0.808900  0.523400  1
  O  O740  1  0.775600  0.191100  0.476600  1
  O  O741  1  0.241000  0.915600  0.560900  1
  O  O742  1  0.759000  0.084400  0.439100  1
  O  O743  1  0.198200  0.853600  0.606900  1
  O  O744  1  0.801800  0.146400  0.393100  1
  O  O745  1  0.026100  0.136900  0.615000  1
  O  O746  1  0.973900  0.863100  0.385000  1
  O  O747  1  0.902500  0.092100  0.816700  1
  O  O748  1  0.097500  0.907900  0.183300  1
  O  O749  1  0.835900  0.984500  0.807600  1
  O  O750  1  0.164100  0.015500  0.192400  1
  O  O751  1  0.916100  0.071600  0.890400  1
  O  O752  1  0.083900  0.928400  0.109600  1
  O  O753  1  0.014200  0.226000  0.904200  1
  O  O754  1  0.985800  0.774000  0.095800  1
  O  O755  1  0.364000  0.203500  0.375000  1
  O  O756  1  0.636000  0.796500  0.625000  1
  O  O757  1  0.270300  0.173900  0.338100  1
  O  O758  1  0.729700  0.826100  0.661900  1
  O  O759  1  0.280200  0.104900  0.365200  1
  O  O760  1  0.719800  0.895100  0.634800  1
  O  O761  1  0.142300  0.508200  0.369400  1
  O  O762  1  0.857700  0.491800  0.630600  1
  O  O763  1  0.235300  0.503700  0.366600  1
  O  O764  1  0.764700  0.496300  0.633400  1
  O  O765  1  0.168300  0.457500  0.284400  1
  O  O766  1  0.831700  0.542500  0.715600  1
  O  O767  1  0.324600  0.475900  0.319800  1
  O  O768  1  0.675400  0.524100  0.680200  1
  O  O769  1  0.451400  0.523700  0.348000  1
  O  O770  1  0.548600  0.476300  0.652000  1
  O  O771  1  0.025900  0.016900  0.606000  1
  O  O772  1  0.974100  0.983100  0.394000  1
  O  O773  1  0.933300  0.974700  0.665900  1
  O  O774  1  0.066700  0.025300  0.334100  1
  O  O775  1  0.465600  0.588700  0.719000  1
  O  O776  1  0.534400  0.411300  0.281000  1
  O  O777  1  0.851100  0.058300  0.329400  1
  O  O778  1  0.148900  0.941700  0.670600  1
  O  O779  1  0.854500  0.975400  0.379100  1
  O  O780  1  0.145500  0.024600  0.620900  1
  O  O781  1  0.814200  0.021800  0.485200  1
  O  O782  1  0.185800  0.978200  0.514800  1
  O  O783  1  0.638500  0.850700  0.517600  1
  O  O784  1  0.361500  0.149300  0.482400  1
  O  O785  1  0.663300  0.078300  0.072900  1
  O  O786  1  0.336700  0.921700  0.927100  1
  O  O787  1  0.347900  0.565800  0.697900  1
  O  O788  1  0.652100  0.434200  0.302100  1
  O  O789  1  0.892800  0.489000  0.475700  1
  O  O790  1  0.107200  0.511000  0.524300  1
  O  O791  1  0.700900  0.544900  0.453600  1
  O  O792  1  0.299100  0.455100  0.546400  1
  O  O793  1  0.593900  0.529300  0.487000  1
  O  O794  1  0.406100  0.470700  0.513000  1
  O  O795  1  0.150800  0.973800  0.313300  1
  O  O796  1  0.849200  0.026200  0.686700  1
  O  O797  1  0.105600  0.910700  0.393100  1
  O  O798  1  0.894400  0.089300  0.606900  1
  O  O799  1  0.988100  0.590200  0.148800  1
  O  O800  1  0.011900  0.409800  0.851200  1
  O  O801  1  0.017800  0.354400  0.925200  1
  O  O802  1  0.982200  0.645600  0.074800  1
  O  O803  1  0.337700  0.935700  0.493000  1
  O  O804  1  0.662300  0.064300  0.507000  1
  O  O805  1  0.598400  0.931700  0.501700  1
  O  O806  1  0.401600  0.068300  0.498300  1
  O  O807  1  0.631100  0.659200  0.606600  1
  O  O808  1  0.368900  0.340800  0.393400  1
  O  O809  1  0.243100  0.827900  0.771900  1
  O  O810  1  0.756900  0.172100  0.228100  1
  O  O811  1  0.207000  0.760700  0.643800  1
  O  O812  1  0.793000  0.239300  0.356200  1
  O  O813  1  0.028500  0.873300  0.772400  1
  O  O814  1  0.971500  0.126700  0.227600  1
  O  O815  1  0.918200  0.877200  0.794200  1
  O  O816  1  0.081800  0.122800  0.205800  1
  O  O817  1  0.943000  0.960000  0.868000  1
  O  O818  1  0.057000  0.040000  0.132000  1
  O  O819  1  0.948200  0.986600  0.916300  1
  O  O820  1  0.051800  0.013400  0.083700  1
  O  O821  1  0.273500  0.367800  0.354700  1
  O  O822  1  0.726500  0.632200  0.645300  1
  O  O823  1  0.486000  0.450300  0.385300  1
  O  O824  1  0.514000  0.549700  0.614700  1
  O  O825  1  0.955600  0.877700  0.498500  1
  O  O826  1  0.044400  0.122300  0.501500  1
  O  O827  1  0.052700  0.966500  0.880700  1
  O  O828  1  0.947300  0.033500  0.119300  1
  O  O829  1  0.841400  0.528800  0.425900  1
  O  O830  1  0.158600  0.471200  0.574100  1
  O  O831  1  0.157800  0.623800  0.718000  1
  O  O832  1  0.842200  0.376200  0.282000  1
  O  O833  1  0.897800  0.378900  0.385500  1
  O  O834  1  0.102200  0.621100  0.614500  1
  O  O835  1  0.834500  0.813500  0.609300  1
  O  O836  1  0.165500  0.186500  0.390700  1
  O  O837  1  0.980000  0.171900  0.355500  1
  O  O838  1  0.020000  0.828100  0.644500  1
  O  O839  1  0.214000  0.259000  0.331000  1
  O  O840  1  0.786000  0.741000  0.669000  1
  O  O841  1  0.985200  0.305000  0.381700  1
  O  O842  1  0.014800  0.695000  0.618300  1
  O  O843  1  0.164700  0.248100  0.237700  1
  O  O844  1  0.835300  0.751900  0.762300  1
  O  O845  1  0.411100  0.723000  0.724600  1
  O  O846  1  0.588900  0.277000  0.275400  1
  O  O847  1  0.020900  0.408000  0.402100  1
  O  O848  1  0.979100  0.592000  0.597900  1
  O  O849  1  0.183400  0.373000  0.404700  1
  O  O850  1  0.816600  0.627000  0.595300  1
  O  O851  1  0.816600  0.633400  0.438700  1
  O  O852  1  0.183400  0.366600  0.561300  1
  O  O853  1  0.974700  0.500000  0.500000  1
  O  O854  1  0.025300  0.500000  0.500000  1
  O  O855  1  0.915000  0.779600  0.540200  1
  O  O856  1  0.085000  0.220400  0.459800  1
  O  O857  1  0.606000  0.605100  0.051600  1
  O  O858  1  0.394000  0.394900  0.948400  1
  O  O859  1  0.687000  0.719000  0.101500  1
  O  O860  1  0.313000  0.281000  0.898500  1
  O  O861  1  0.640000  0.666667  0.153300  1
  O  O862  1  0.360000  0.333333  0.846700  1
  O  O863  1  0.743700  0.501000  0.269700  1
  O  O864  1  0.256300  0.499000  0.730300  1
  O  O865  1  0.554100  0.534500  0.150900  1
  O  O866  1  0.445900  0.465500  0.849100  1
  O  O867  1  0.510000  0.473000  0.197000  1
  O  O868  1  0.490000  0.527000  0.803000  1
  O  O869  1  0.453800  0.441300  0.106900  1
  O  O870  1  0.546200  0.558700  0.893100  1
  O  O871  1  0.766000  0.588000  0.310000  1
  O  O872  1  0.234000  0.412000  0.690000  1
  O  O873  1  0.641900  0.630600  0.202800  1
  O  O874  1  0.358100  0.369400  0.797200  1
  O  O875  1  0.002100  0.550900  0.926500  1
  O  O876  1  0.997900  0.449100  0.073500  1
  O  O877  1  0.955000  0.579000  0.876000  1
  O  O878  1  0.045000  0.421000  0.124000  1
  O  O879  1  0.957200  0.609400  0.972000  1
  O  O880  1  0.042800  0.390600  0.028000  1
  O  O881  1  0.668900  0.026500  0.974500  1
  O  O882  1  0.331100  0.973500  0.025500  1
  O  O883  1  0.626800  0.939800  0.876300  1
  O  O884  1  0.373200  0.060200  0.123700  1
  O  O885  1  0.564400  0.951800  0.936300  1
  O  O886  1  0.435600  0.048200  0.063700  1
  O  O887  1  0.351500  0.845600  0.844200  1
  O  O888  1  0.648500  0.154400  0.155800  1
  O  O889  1  0.456800  0.849900  0.824500  1
  O  O890  1  0.543200  0.150100  0.175500  1
  O  O891  1  0.316000  0.677000  0.741000  1
  O  O892  1  0.684000  0.323000  0.259000  1
  O  O893  1  0.823300  0.029700  0.099000  1
  O  O894  1  0.176700  0.970300  0.901000  1
  O  O895  1  0.790800  0.097200  0.092900  1
  O  O896  1  0.209200  0.902800  0.907100  1
  O  O897  1  0.789300  0.079700  0.171900  1
  O  O898  1  0.210700  0.920300  0.828100  1
  O  O899  1  0.137800  0.388100  0.745100  1
  O  O900  1  0.862200  0.611900  0.254900  1
  O  O901  1  0.051200  0.302500  0.751700  1
  O  O902  1  0.948800  0.697500  0.248300  1
  O  O903  1  0.182500  0.271100  0.116700  1
  O  O904  1  0.817500  0.728900  0.883300  1
  O  O905  1  0.264500  0.368000  0.195400  1
  O  O906  1  0.735500  0.632000  0.804600  1
  O  O907  1  0.167000  0.326000  0.205400  1
  O  O908  1  0.833000  0.674000  0.794600  1
  O  O909  1  0.316800  0.301500  0.096700  1
  O  O910  1  0.683200  0.698500  0.903300  1
  O  O911  1  0.017000  0.240500  0.910000  1
  O  O912  1  0.983000  0.759500  0.090000  1
  O  O913  1  0.947400  0.176000  0.818500  1
  O  O914  1  0.052600  0.824000  0.181500  1
  O  O915  1  0.947500  0.126200  0.872400  1
  O  O916  1  0.052500  0.873800  0.127600  1
  O  O917  1  0.157700  0.428000  0.361800  1
  O  O918  1  0.842300  0.572000  0.638200  1
  O  O919  1  0.971800  0.864500  0.752400  1
  O  O920  1  0.028200  0.135500  0.247600  1
  O  O921  1  0.992600  0.989500  0.972700  1
  O  O922  1  0.007400  0.010500  0.027300  1
  O  O923  1  0.864600  0.865700  0.690800  1
  O  O924  1  0.135400  0.134300  0.309200  1
  O  O925  1  0.099700  0.160700  0.112800  1
  O  O926  1  0.900300  0.839300  0.887200  1
  O  O927  1  0.113300  0.436900  0.445600  1
  O  O928  1  0.886700  0.563100  0.554400  1
  F  F929  1  0.402300  0.621300  0.131300  1
  F  F930  1  0.597700  0.378700  0.868700  1
  F  F931  1  0.347100  0.599200  0.021400  1
  F  F932  1  0.652900  0.400800  0.978600  1
  F  F933  1  0.445600  0.675400  0.022300  1
  F  F934  1  0.554400  0.324600  0.977700  1
  F  F935  1  0.399000  0.703800  0.099900  1
  F  F936  1  0.601000  0.296200  0.900100  1
  F  F937  1  0.551900  0.710300  0.101100  1
  F  F938  1  0.448100  0.289700  0.898900  1
  F  F939  1  0.527500  0.673400  0.162300  1
  F  F940  1  0.472500  0.326600  0.837700  1
  F  F941  1  0.509200  0.753700  0.166100  1
  F  F942  1  0.490800  0.246300  0.833900  1
  F  F943  1  0.488200  0.876700  0.268800  1
  F  F944  1  0.511800  0.123300  0.731200  1
  F  F945  1  0.340400  0.834800  0.301300  1
  F  F946  1  0.659600  0.165200  0.698700  1
  F  F947  1  0.392100  0.900200  0.262200  1
  F  F948  1  0.607900  0.099800  0.737800  1
  F  F949  1  0.362700  0.791800  0.214600  1
  F  F950  1  0.637300  0.208200  0.785400  1
  F  F951  1  0.409400  0.797000  0.353000  1
  F  F952  1  0.590600  0.203000  0.647000  1
  F  F953  1  0.504200  0.832800  0.337300  1
  F  F954  1  0.495800  0.167200  0.662700  1
  F  F955  1  0.420900  0.749600  0.257900  1
  F  F956  1  0.579100  0.250400  0.742100  1
  F  F957  1  0.149300  0.542300  0.098600  1
  F  F958  1  0.850700  0.457700  0.901400  1
  F  F959  1  0.214100  0.545200  0.018500  1
  F  F960  1  0.785900  0.454800  0.981500  1
  F  F961  1  0.275700  0.613200  0.111600  1
  F  F962  1  0.724300  0.386800  0.888400  1
  F  F963  1  0.263600  0.660000  0.060200  1
  F  F964  1  0.736400  0.340000  0.939800  1
  F  F965  1  0.139500  0.652400  0.173700  1
  F  F966  1  0.860500  0.347600  0.826300  1
  F  F967  1  0.235500  0.677100  0.200000  1
  F  F968  1  0.764500  0.322900  0.800000  1
  F  F969  1  0.216000  0.725600  0.153900  1
  F  F970  1  0.784000  0.274400  0.846100  1
  F  F971  1  0.383300  0.777700  0.022700  1
  F  F972  1  0.616700  0.222300  0.977300  1
  F  F973  1  0.394200  0.942300  0.111400  1
  F  F974  1  0.605800  0.057700  0.888600  1
  F  F975  1  0.335200  0.837900  0.107100  1
  F  F976  1  0.664800  0.162100  0.892900  1
  F  F977  1  0.322700  0.845400  0.026500  1
  F  F978  1  0.677300  0.154600  0.973500  1
  F  F979  1  0.504900  0.946800  0.147600  1
  F  F980  1  0.495100  0.053200  0.852400  1
  F  F981  1  0.438300  0.847100  0.146000  1
  F  F982  1  0.561700  0.152900  0.854000  1
  F  F983  1  0.503100  0.850400  0.092900  1
  F  F984  1  0.496900  0.149600  0.907100  1
  F  F985  1  0.237400  0.618500  0.023600  1
  F  F986  1  0.762600  0.381500  0.976400  1
  F  F987  1  0.237400  0.743500  0.091600  1
  F  F988  1  0.762600  0.256500  0.908400  1
  F  F989  1  0.296700  0.730900  0.141700  1
  F  F990  1  0.703300  0.269100  0.858300  1
  F  F991  1  0.205500  0.713000  0.157400  1
  F  F992  1  0.794500  0.287000  0.842600  1
  F  F993  1  0.168200  0.509600  0.043800  1
  F  F994  1  0.831800  0.490400  0.956200  1
  F  F995  1  0.251500  0.601700  0.124600  1
  F  F996  1  0.748500  0.398300  0.875400  1
  F  F997  1  0.156400  0.572500  0.127100  1
  F  F998  1  0.843600  0.427500  0.872900  1
  F  F999  1  0.504300  0.908200  0.110400  1
  F  F1000  1  0.495700  0.091800  0.889600  1
  F  F1001  1  0.460700  0.987100  0.154100  1
  F  F1002  1  0.539300  0.012900  0.845900  1
  F  F1003  1  0.390500  0.894700  0.157400  1
  F  F1004  1  0.609500  0.105300  0.842600  1
  F  F1005  1  0.369400  0.914000  0.085500  1
  F  F1006  1  0.630600  0.086000  0.914500  1
  F  F1007  1  0.433100  0.770000  0.016600  1
  F  F1008  1  0.566900  0.230000  0.983400  1
  F  F1009  1  0.347900  0.775800  0.010000  1
  F  F1010  1  0.652100  0.224200  0.990000  1
  F  F1011  1  0.386100  0.777400  0.088100  1
  F  F1012  1  0.613900  0.222600  0.911900  1
