
#######################################################################
#
#                 Cambridge Crystallographic Data Centre
#                                CCDC 
#
#######################################################################
#
# If this CIF has been generated from an entry in the Cambridge 
# Structural Database, then it will include bibliographic, chemical, 
# crystal, experimental, refinement or atomic coordinate data resulting 
# from the CCDC's data processing and validation procedures.
#
#######################################################################

data_AJENEK
_chemical_formula_moiety         
'C108 H144 N36 Pd6 8+,4(C3 F7 I1),11.77(N1 O3 1-),3.77(H3 O1 1+),49.37(H2 O1)'
_chemical_name_systematic        
"tetrakis(\m-2,4,6-tri(pyridin-4-yl)-1,3,5-triazine)-hexakis(\m-N,N,N',N'-tetramethylethane-1,2-diamine)-hexa-palladium oxonium nitrate 1,1,1,2,3,3,3-heptafluoro-2-iodopropane hydrate"
_symmetry_cell_setting           triclinic
_symmetry_space_group_name_H-M   'P -1'
_symmetry_Int_Tables_number      2
_space_group_name_Hall           '-P 1'
loop_
_symmetry_equiv_pos_site_id
_symmetry_equiv_pos_as_xyz
1 x,y,z
2 -x,-y,-z
_cell_length_a                   24.178(9)
_cell_length_b                   24.306(9)
_cell_length_c                   24.699(9)
_cell_angle_alpha                115.901(4)
_cell_angle_beta                 91.315(4)
_cell_angle_gamma                118.918(4)
_cell_volume                     10911.7
_exptl_crystal_colour            colorless
_exptl_crystal_description       block
_cell_formula_units_Z            2
loop_
_atom_site_label
_atom_site_type_symbol
_atom_site_fract_x
_atom_site_fract_y
_atom_site_fract_z
Pd1 Pd 0.66497(2) 0.75314(2) 0.39664(2)
Pd2 Pd 0.09026(2) 0.69162(2) 0.39373(2)
Pd3 Pd 0.59522(2) 1.25426(2) 0.40206(2)
Pd4 Pd 0.15681(2) 0.24987(2) -0.10863(2)
Pd5 Pd 0.08399(2) 0.74864(3) -0.10913(2)
Pd6 Pd 0.65660(2) 0.81409(2) -0.10778(2)
N1 N 0.5656(2) 0.6977(3) 0.3547(2)
N2 N 0.1452(2) 0.6527(3) 0.3526(2)
N3 N 0.1916(2) 0.3257(2) -0.0144(2)
N4 N 0.3274(2) 0.6160(3) 0.2934(2)
N5 N 0.2345(3) 0.5227(3) 0.2014(2)
N6 N 0.3380(2) 0.5350(3) 0.2021(2)
N7 N 0.1267(2) 0.7574(2) 0.3565(2)
N8 N 0.1267(2) 0.7952(3) -0.0152(2)
N9 N 0.4989(2) 1.1685(3) 0.3596(2)
N10 N 0.1883(2) 0.8459(3) 0.2043(2)
N11 N 0.2798(2) 0.9468(3) 0.2048(2)
N12 N 0.2792(2) 0.9387(3) 0.2973(2)
N13 N 0.6758(2) 0.8155(3) 0.3578(2)
N14 N 0.6175(2) 1.1781(3) 0.3571(2)
N15 N 0.6624(2) 0.8537(3) -0.0147(2)
N16 N 0.6509(2) 0.9733(3) 0.2935(2)
N17 N 0.6452(3) 0.9811(3) 0.2011(2)
N18 N 0.6644(3) 0.8949(3) 0.2034(2)
N19 N 0.1405(3) 0.7055(3) -0.1245(2)
N20 N 0.1895(3) 0.3370(3) -0.1214(2)
N21 N 0.5574(2) 0.7463(3) -0.1244(2)
N22 N 0.2312(3) 0.5592(3) -0.1242(2)
N23 N 0.3340(3) 0.5681(3) -0.1242(2)
N24 N 0.3216(3) 0.6581(3) -0.1275(3)
N25 N 0.0539(3) 0.6239(3) 0.4304(3)
N26 N 0.0337(2) 0.7298(3) 0.4350(2)
N27 N 0.0258(3) 0.7899(3) -0.0937(3)
N28 N 0.0399(3) 0.7003(4) -0.2040(3)
N29 N 0.6517(3) 0.7755(3) -0.2018(2)
N30 N 0.7565(3) 0.8843(3) -0.0898(2)
N31 N 0.6529(3) 0.6877(3) 0.4334(2)
N32 N 0.7650(2) 0.8081(3) 0.4386(2)
N33 N 0.5722(3) 1.3309(3) 0.4484(3)
N34 N 0.6929(3) 1.3408(3) 0.4464(3)
N35 N 0.1269(3) 0.1624(3) -0.0957(2)
N36 N 0.1217(3) 0.1738(3) -0.2041(2)
C1 C 0.5389(3) 0.6453(3) 0.2940(3)
H1 H 0.5661 0.6320 0.2720
C2 C 0.4728(3) 0.6094(3) 0.2619(3)
H2 H 0.4552 0.5719 0.2187
C3 C 0.4330(3) 0.6290(3) 0.2935(3)
C4 C 0.4618(3) 0.6856(3) 0.3568(3)
H3 H 0.4363 0.7013 0.3798
C5 C 0.5277(3) 0.7182(3) 0.3853(3)
H4 H 0.5470 0.7566 0.4282
C6 C 0.3622(3) 0.5912(3) 0.2617(3)
C7 C 0.2096(3) 0.6864(3) 0.3829(3)
H5 H 0.2283 0.7268 0.4249
C8 C 0.2490(3) 0.6632(3) 0.3542(3)
H6 H 0.2939 0.6871 0.3765
C9 C 0.2224(3) 0.6053(3) 0.2932(3)
C10 C 0.1559(3) 0.5703(3) 0.2618(3)
H7 H 0.1364 0.5300 0.2198
C11 C 0.1191(3) 0.5954(3) 0.2931(3)
H8 H 0.0738 0.5714 0.2719
C12 C 0.2639(3) 0.5799(3) 0.2612(3)
C13 C 0.2552(3) 0.3598(3) 0.0167(3)
H9 H 0.2815 0.3436 -0.0039
C14 C 0.2833(3) 0.4179(3) 0.0781(3)
H10 H 0.3287 0.4421 0.0989
C15 C 0.2448(3) 0.4408(3) 0.1090(3)
C16 C 0.1786(3) 0.4040(3) 0.0766(3)
H11 H 0.1507 0.4180 0.0966
C17 C 0.1537(3) 0.3471(3) 0.0151(3)
H12 H 0.1086 0.3224 -0.0070
C18 C 0.2741(3) 0.5031(3) 0.1747(3)
C19 C 0.0956(3) 0.7347(4) 0.2982(3)
H13 H 0.0525 0.6912 0.2773
C20 C 0.1239(3) 0.7724(4) 0.2672(3)
H14 H 0.1007 0.7549 0.2259
C21 C 0.1868(3) 0.8361(3) 0.2975(3)
C22 C 0.2185(3) 0.8600(3) 0.3582(3)
H15 H 0.2612 0.9038 0.3804
C23 C 0.1877(3) 0.8199(3) 0.3861(3)
H16 H 0.2100 0.8366 0.4275
C24 C 0.2200(3) 0.8757(3) 0.2640(3)
C25 C 0.1848(3) 0.8602(3) 0.0164(3)
H17 H 0.2045 0.8861 -0.0048
C26 C 0.2170(3) 0.8907(3) 0.0786(3)
H18 H 0.2580 0.9368 0.0999
C27 C 0.1884(3) 0.8529(3) 0.1097(3)
C28 C 0.1282(3) 0.7847(3) 0.0760(3)
H19 H 0.1079 0.7571 0.0955
C29 C 0.0989(3) 0.7583(3) 0.0143(3)
H20 H 0.0577 0.7125 -0.0081
C30 C 0.2201(3) 0.8833(3) 0.1765(3)
C31 C 0.4692(3) 1.1311(3) 0.3886(3)
H21 H 0.4917 1.1493 0.4305
C32 C 0.4067(3) 1.0667(3) 0.3591(3)
H22 H 0.3868 1.0407 0.3800
C33 C 0.3739(3) 1.0411(3) 0.2977(3)
C34 C 0.4042(3) 1.0799(3) 0.2684(3)
H23 H 0.3824 1.0634 0.2268
C35 C 0.4668(3) 1.1433(3) 0.3006(3)
H24 H 0.4878 1.1699 0.2804
C36 C 0.3071(3) 0.9715(3) 0.2644(3)
C37 C 0.6674(3) 0.8709(3) 0.3866(3)
H25 H 0.6642 0.8861 0.4283
C38 C 0.6632(3) 0.9065(3) 0.3574(3)
H26 H 0.6573 0.9457 0.3788
C39 C 0.6679(3) 0.8845(3) 0.2961(3)
C40 C 0.6771(3) 0.8275(4) 0.2672(3)
H27 H 0.6810 0.8117 0.2256
C41 C 0.6808(3) 0.7937(4) 0.2986(3)
H28 H 0.6870 0.7545 0.2783
C42 C 0.6604(3) 0.9198(3) 0.2626(3)
C43 C 0.6126(3) 1.1503(3) 0.2953(3)
H29 H 0.6034 1.1705 0.2737
C44 C 0.6206(3) 1.0930(3) 0.2626(3)
H30 H 0.6168 1.0743 0.2190
C45 C 0.6340(3) 1.0631(3) 0.2934(3)
C46 C 0.6385(3) 1.0921(3) 0.3575(3)
H31 H 0.6469 1.0725 0.3801
C47 C 0.6306(3) 1.1496(3) 0.3874(3)
H32 H 0.6346 1.1697 0.4311
C48 C 0.6441(3) 1.0027(3) 0.2609(3)
C49 C 0.6682(3) 0.8215(3) 0.0161(3)
H33 H 0.6734 0.7818 -0.0054
C50 C 0.6668(3) 0.8443(3) 0.0775(3)
H34 H 0.6719 0.8212 0.0981
C51 C 0.6578(3) 0.9011(3) 0.1089(3)
C52 C 0.6519(3) 0.9344(4) 0.0771(3)
H35 H 0.6464 0.9740 0.0976
C53 C 0.6541(3) 0.9093(4) 0.0161(3)
H36 H 0.6497 0.9320 -0.0053
C54 C 0.6559(3) 0.9276(3) 0.1751(3)
C55 C 0.1144(3) 0.6389(3) -0.1311(3)
H37 H 0.0686 0.6108 -0.1355
C56 C 0.1513(3) 0.6101(4) -0.1317(3)
H38 H 0.1315 0.5632 -0.1360
C57 C 0.2187(3) 0.6509(3) -0.1260(3)
C58 C 0.2446(3) 0.7184(4) -0.1209(3)
H39 H 0.2898 0.7466 -0.1186
C59 C 0.2048(3) 0.7444(3) -0.1193(3)
H40 H 0.2236 0.7914 -0.1144
C60 C 0.2597(3) 0.6215(3) -0.1258(3)
C61 C 0.2504(3) 0.3707(3) -0.1264(3)
H41 H 0.2754 0.3495 -0.1300
C62 C 0.2779(3) 0.4351(3) -0.1265(3)
H42 H 0.3217 0.4584 -0.1292
C63 C 0.2417(3) 0.4663(3) -0.1226(3)
C64 C 0.1781(3) 0.4309(3) -0.1173(3)
H43 H 0.1519 0.4508 -0.1143
C65 C 0.1536(3) 0.3669(3) -0.1166(3)
H44 H 0.1104 0.3431 -0.1127
C66 C 0.2701(3) 0.5350(3) -0.1234(3)
C67 C 0.5156(3) 0.7651(4) -0.1339(3)
H45 H 0.5317 0.8053 -0.1403
C68 C 0.4510(3) 0.7286(4) -0.1348(3)
H46 H 0.4233 0.7441 -0.1409
C69 C 0.4261(3) 0.6688(3) -0.1268(3)
C70 C 0.4684(3) 0.6478(4) -0.1190(3)
H47 H 0.4528 0.6061 -0.1148
C71 C 0.5339(3) 0.6882(4) -0.1175(3)
H48 H 0.5628 0.6739 -0.1115
C72 C 0.3564(3) 0.6293(3) -0.1263(3)
C73 C 0.1078(4) 0.6335(5) 0.4711(4)
H49 H 0.1280 0.6096 0.4446
H50 H 0.0896 0.6112 0.4965
H51 H 0.1414 0.6857 0.4989
C74 C 0.0115(4) 0.5464(4) 0.3800(4)
H52 H -0.0232 0.5400 0.3519
H53 H -0.0090 0.5160 0.3988
H54 H 0.0383 0.5318 0.3559
C75 C 0.0161(6) 0.6475(6) 0.4713(6)
H55 H -0.0208 0.6042 0.4707
H56 H 0.0457 0.6826 0.5152
C76 C -0.0091(6) 0.6790(6) 0.4548(6)
H57 H -0.0206 0.7057 0.4911
H58 H -0.0507 0.6396 0.4199
C77 C -0.0122(5) 0.7250(6) 0.3899(4)
H59 H -0.0297 0.6799 0.3492
H60 H 0.0116 0.7673 0.3843
H61 H -0.0488 0.7247 0.4062
C78 C 0.0745(4) 0.8063(5) 0.4862(5)
H62 H 0.1027 0.8366 0.4698
H63 H 0.1024 0.8106 0.5192
H64 H 0.0459 0.8227 0.5038
C79 C -0.0303(4) 0.7475(5) -0.0749(4)
H65 H -0.0610 0.7634 -0.0721
H66 H -0.0133 0.7559 -0.0338
H67 H -0.0536 0.6952 -0.1064
C80 C 0.0618(4) 0.8697(4) -0.0434(4)
H68 H 0.0994 0.8985 -0.0547
H69 H 0.0780 0.8762 -0.0029
H70 H 0.0316 0.8862 -0.0399
C81 C 0.0016(5) 0.7809(5) -0.1553(4)
H71 H -0.0370 0.7853 -0.1556
H72 H 0.0369 0.8198 -0.1609
C82 C -0.0174(5) 0.7086(5) -0.2074(4)
H73 H -0.0304 0.7038 -0.2483
H74 H -0.0557 0.6696 -0.2043
C83 C 0.0138(5) 0.6213(5) -0.2403(4)
H75 H -0.0140 0.5993 -0.2825
H76 H -0.0126 0.5974 -0.2185
H77 H 0.0508 0.6147 -0.2438
C84 C 0.0889(5) 0.7393(6) -0.2300(4)
H78 H 0.0691 0.7159 -0.2753
H79 H 0.1278 0.7374 -0.2232
H80 H 0.1022 0.7904 -0.2087
C85 C 0.6407(5) 0.7019(5) -0.2301(4)
H81 H 0.6393 0.6837 -0.2746
H82 H 0.5985 0.6684 -0.2271
H83 H 0.6768 0.7050 -0.2075
C86 C 0.5988(4) 0.7720(4) -0.2385(3)
H84 H 0.6026 0.7594 -0.2811
H85 H 0.6038 0.8196 -0.2174
H86 H 0.5553 0.7345 -0.2410
C87 C 0.7164(4) 0.8278(5) -0.2035(3)
H87 H 0.7168 0.8704 -0.1994
H88 H 0.7235 0.8039 -0.2445
C88 C 0.7707(4) 0.8529(5) -0.1510(3)
H89 H 0.8136 0.8906 -0.1502
H90 H 0.7733 0.8112 -0.1574
C89 C 0.7993(4) 0.8901(5) -0.0403(4)
H91 H 0.7864 0.8410 -0.0504
H92 H 0.7938 0.9151 0.0008
H93 H 0.8457 0.9181 -0.0387
C90 C 0.7719(3) 0.9581(4) -0.0703(4)
H94 H 0.8165 0.9878 -0.0721
H95 H 0.7699 0.9812 -0.0272
H96 H 0.7396 0.9543 -0.0988
C91 C 0.6010(3) 0.6769(4) 0.4662(3)
H97 H 0.5574 0.6470 0.4352
H98 H 0.6091 0.7246 0.4968
H99 H 0.6023 0.6521 0.4881
C92 C 0.6351(4) 0.6150(4) 0.3816(4)
H100 H 0.5956 0.5938 0.3487
H101 H 0.6259 0.5825 0.3983
H102 H 0.6719 0.6206 0.3637
C93 C 0.7183(3) 0.7258(4) 0.4801(4)
H103 H 0.7210 0.6904 0.4879
H104 H 0.7226 0.7648 0.5207
C94 C 0.7729(3) 0.7585(4) 0.4541(4)
H105 H 0.7709 0.7191 0.4156
H106 H 0.8164 0.7866 0.4855
C95 C 0.7879(3) 0.8790(4) 0.4974(3)
H107 H 0.7791 0.9091 0.4869
H108 H 0.8355 0.9050 0.5168
H109 H 0.7641 0.8693 0.5270
C96 C 0.8064(3) 0.8241(5) 0.3969(4)
H110 H 0.7885 0.7791 0.3560
H111 H 0.8520 0.8424 0.4165
H112 H 0.8058 0.8611 0.3909
C97 C 0.5292(8) 1.3297(7) 0.4033(6)
H113 H 0.5472 1.3288 0.3680
H114 H 0.5277 1.3735 0.4247
H115 H 0.4844 1.2859 0.3874
C98 C 0.5392(6) 1.3187(5) 0.4942(5)
H116 H 0.4958 1.2724 0.4722
H117 H 0.5334 1.3589 0.5187
H118 H 0.5661 1.3166 0.5226
C99 C 0.6359(5) 1.4024(4) 0.4802(7)
H119 H 0.6366 1.4288 0.4588
H120 H 0.6361 1.4303 0.5238
C100 C 0.6916(5) 1.4053(5) 0.4837(8)
H121 H 0.7118 1.4246 0.5284
H122 H 0.7213 1.4424 0.4733
C101 C 0.7264(6) 1.3511(7) 0.3992(6)
H123 H 0.7289 1.3086 0.3736
H124 H 0.7712 1.3953 0.4207
H125 H 0.7013 1.3561 0.3719
C102 C 0.7294(5) 1.3317(5) 0.4852(5)
H126 H 0.7356 1.2926 0.4583
H127 H 0.7047 1.3189 0.5132
H128 H 0.7727 1.3775 0.5104
C103 C 0.0915(4) 0.1628(4) -0.0467(3)
H129 H 0.0525 0.1630 -0.0581
H130 H 0.1213 0.2066 -0.0057
H131 H 0.0776 0.1191 -0.0442
C104 C 0.1855(4) 0.1621(4) -0.0777(3)
H132 H 0.1711 0.1165 -0.0785
H133 H 0.2132 0.2038 -0.0352
H134 H 0.2111 0.1659 -0.1076
C105 C 0.0796(4) 0.0964(3) -0.1580(3)
H135 H 0.0726 0.0520 -0.1595
H136 H 0.0364 0.0913 -0.1633
C106 C 0.1068(5) 0.1037(4) -0.2094(3)
H137 H 0.0743 0.0616 -0.2507
H138 H 0.1477 0.1038 -0.2064
C107 C 0.1700(4) 0.1947(4) -0.2388(3)
H139 H 0.1541 0.1531 -0.2816
H140 H 0.2130 0.2087 -0.2168
H141 H 0.1748 0.2361 -0.2409
C108 C 0.0600(4) 0.1639(4) -0.2311(3)
H142 H 0.0412 0.1257 -0.2758
H143 H 0.0699 0.2099 -0.2269
H144 H 0.0280 0.1494 -0.2085
N37 N 0.6988(9) 0.6121(10) 0.2627(11)
O1 O 0.6446(8) 0.5504(9) 0.2410(10)
O2 O 0.7502(8) 0.6237(10) 0.2906(9)
O3 O 0.6960(6) 0.6587(7) 0.2614(6)
O4 O 0.5810(9) 0.5775(10) 0.1545(8)
O5 O 0.4404(7) 0.4469(8) 0.2187(7)
O6 O 0.4217(10) 0.4049(11) 0.0741(10)
N38 N 0.6446(6) 0.6765(6) 0.0723(7)
O7 O 0.6106(7) 0.6161(7) 0.0679(8)
O8 O 0.6889(9) 0.7309(7) 0.1213(6)
O9 O 0.6359(5) 0.6808(5) 0.0236(5)
N39 N 0.5871(3) 1.1704(3) 0.5197(2)
O10 O 0.5345(2) 1.1105(3) 0.5010(3)
O11 O 0.6414(2) 1.1765(3) 0.5287(2)
O12 O 0.5863(3) 1.2245(3) 0.5280(2)
N40 N -0.0260(4) 0.5536(5) -0.1008(4)
O13 O -0.0089(6) 0.5645(6) -0.0472(4)
O14 O -0.0413(11) 0.5930(12) -0.1077(8)
O15 O -0.0264(3) 0.5040(3) -0.1476(3)
N41 N 0.5808(7) 0.9347(7) -0.1068(5)
O16 O 0.5666(11) 0.9588(16) -0.0571(8)
O17 O 0.6361(9) 0.9440(16) -0.1061(10)
O18 O 0.5366(6) 0.8942(6) -0.1586(4)
O19 O 0.4115(10) 0.8693(13) -0.1466(8)
O20 O 0.3071(16) 0.7261(16) -0.2410(11)
N42 N 0.8207(6) 1.0240(7) 0.1774(5)
O21 O 0.7928(6) 1.0549(7) 0.2055(5)
O22 O 0.8401(4) 0.9973(4) 0.1994(3)
O23 O 0.8289(8) 1.0216(9) 0.1259(6)
N43 N 0.0866(5) 0.4404(6) -0.2579(4)
O24 O 0.0894(6) 0.4028(6) -0.2361(4)
O25 O 0.1340(5) 0.4711(8) -0.2788(5)
O26 O 0.0402(4) 0.4439(4) -0.2602(3)
O27 O 0.1201(3) 0.2844(4) -0.2897(3)
N44 N 0.2735(8) 0.3129(7) 0.1218(5)
O28 O 0.2119(8) 0.2749(8) 0.0969(7)
O29 O 0.2958(10) 0.3699(8) 0.1758(5)
O30 O 0.3093(12) 0.2965(14) 0.0951(11)
O31 O 0.1668(5) 0.3408(8) 0.1991(8)
N45 N 0.2216(2) 0.8593(3) 0.5637(2)
O32 O 0.2244(3) 0.8089(3) 0.5234(2)
O33 O 0.2410(2) 0.9156(3) 0.5609(2)
O34 O 0.1982(3) 0.8536(3) 0.6069(2)
O35 O 0.0261(2) 0.1369(3) -0.3850(2)
N46 N -0.1178(5) 0.0477(6) -0.1633(5)
O36 O -0.0975(4) 0.0921(5) -0.1833(4)
O37 O -0.1641(4) -0.0155(5) -0.1924(4)
O38 O -0.0839(5) 0.0716(6) -0.1096(4)
O39 O 0.0142(13) 0.2260(6) -0.0958(9)
N47 N 0.3051(5) 1.1582(9) 0.3575(5)
O40 O 0.3640(5) 1.2035(5) 0.3750(4)
O41 O 0.2703(7) 1.1739(14) 0.3381(11)
O42 O 0.2802(4) 1.1049(5) 0.3652(4)
N48 N 0.1784(8) 0.4851(7) 0.3454(6)
O43 O 0.1423(4) 0.5082(4) 0.3694(4)
O44 O 0.2353(8) 0.5037(14) 0.3666(11)
O45 O 0.1683(12) 0.4575(12) 0.2844(8)
O46 O 0.3246(8) 0.4759(10) 0.3198(10)
O47 O 0.4514(4) 0.5237(4) 0.3480(4)
O48 O 0.0259(3) 0.0169(3) -0.3940(3)
O49 O -0.0667(4) -0.0253(4) -0.3341(4)
O50 O 0.4656(7) 0.5887(6) -0.2810(5)
O51 O 0.8511(3) 1.0583(3) 0.3294(3)
O52 O 0.8545(3) 0.9754(3) 0.3791(3)
O53 O 0.8142(3) 1.0218(3) 0.4852(3)
O54 O 0.6385(3) 0.8507(3) 0.5176(2)
O55 O 0.6633(5) 1.0783(5) 0.0729(7)
O56 O 0.3479(10) 0.5658(15) -0.3021(12)
O57 O 0.8928(6) 1.4890(7) 0.4757(7)
O58 O 0.7009(7) 1.5449(9) 0.4536(11)
O59 O 0.5939(5) 1.5293(5) 0.4870(5)
O60 O 0.1508(3) 0.9738(4) 0.3133(3)
O61 O 0.1056(3) 0.9107(3) 0.3931(3)
O62 O -0.0119(4) 0.5902(5) 0.1488(4)
O63 O 0.0178(4) 0.3544(4) -0.0748(4)
O64 O 0.3377(2) 0.9357(3) 0.4930(3)
O65 O 0.5984(3) 0.9317(3) 0.5017(3)
O66 O 0.6311(5) 1.6592(7) 0.6066(5)
O67 O 0.2431(4) 0.8279(7) -0.2281(5)
O68 O 0.2070(5) 0.7607(4) 0.6438(4)
O69 O 0.0285(11) -0.1267(11) -0.2276(10)
O70 O -0.0818(10) -0.1228(11) -0.2058(9)
O71 O -0.057(3) -0.040(3) -0.132(3)
O72 O -0.0518(8) -0.0134(9) -0.0837(8)
O73 O 0.2735(8) 0.3678(12) 0.3547(10)
O74 O 0.4860(5) 0.4503(5) 0.3853(4)
O75 O -0.0444(3) -0.1223(3) -0.5015(3)
O76 O 0.0527(9) -0.0335(10) -0.1193(10)
O77 O 0.8414(5) 1.5288(6) 0.4259(6)
O78 O 0.1578(6) 0.6238(10) -0.2820(5)
O79 O 0.8978(4) 1.3789(5) 0.3855(4)
O80 O -0.1655(6) -0.1865(8) -0.3907(7)
O81 O 0.9800(4) 1.1719(7) 0.3555(5)
O82 O 0.214(3) 0.259(3) 0.331(2)
O83 O 0.9852(11) 1.3050(12) 0.3817(10)
O84 O 0.1647(11) 0.2481(10) 0.2377(8)
O85 O 0.4111(10) 0.7230(7) -0.2754(6)
O86 O 1.0209(8) 1.4080(8) 0.4021(6)
O87 O 0.1834(18) 0.3730(14) 0.4047(19)
O88 O 0.8166(8) 1.6334(8) 0.4387(10)
O89 O 0.9747(14) 1.500(2) 0.500(2)
O90 O -0.0850(4) -0.2204(5) -0.4598(5)
I1 I 0.43113(3) 0.53357(4) 0.02121(4)
C109 C 0.4387(4) 0.6330(5) 0.0882(4)
C110 C 0.4046(7) 0.6544(8) 0.0555(6)
C111 C 0.5058(5) 0.6936(6) 0.1271(7)
F1 F 0.4023(5) 0.6213(5) 0.1313(4)
F2 F 0.3471(5) 0.5992(7) 0.0214(5)
F3 F 0.4456(6) 0.6754(7) 0.0223(5)
F4 F 0.3990(7) 0.7038(8) 0.0999(5)
F5 F 0.5519(3) 0.7103(4) 0.1011(4)
F6 F 0.5275(5) 0.6734(5) 0.1623(5)
F7 F 0.5092(4) 0.7537(4) 0.1661(6)
I2 I 0.48651(3) 0.96731(3) 0.39721(2)
C112 C 0.4483(4) 0.8699(5) 0.3077(4)
C113 C 0.3831(6) 0.8505(6) 0.2708(5)
C114 C 0.4401(6) 0.8112(6) 0.3155(5)
F8 F 0.4882(4) 0.8767(5) 0.2688(4)
F9 F 0.3404(3) 0.8348(5) 0.3013(5)
F10 F 0.3921(5) 0.9002(5) 0.2622(4)
F11 F 0.3627(6) 0.7918(5) 0.2146(4)
F12 F 0.4094(4) 0.7970(3) 0.3530(2)
F13 F 0.5042(4) 0.8328(5) 0.3373(6)
F14 F 0.4209(4) 0.7496(3) 0.2579(3)
I3 I 0.10208(16) 0.58504(17) 0.01437(16)
C115 C 0.1750(6) 0.6028(6) 0.0917(5)
C116 C 0.2342(7) 0.6066(8) 0.0711(7)
C117 C 0.1922(8) 0.6646(8) 0.1556(6)
F15 F 0.1493(6) 0.5423(7) 0.0986(8)
F16 F 0.2141(7) 0.5452(8) 0.0185(5)
F17 F 0.2757(6) 0.6132(9) 0.1116(7)
F18 F 0.2636(7) 0.6600(10) 0.0602(10)
F19 F 0.1395(6) 0.6524(8) 0.1737(6)
F20 F 0.2355(6) 0.6771(6) 0.2000(5)
F21 F 0.2160(8) 0.7256(6) 0.1539(8)
I4 I 0.47988(18) 0.90801(17) 0.01115(13)
C118 C 0.4179(5) 0.8543(6) 0.0582(5)
C119 C 0.3685(8) 0.8719(9) 0.0770(8)
C120 C 0.4692(6) 0.8757(8) 0.1132(6)
F22 F 0.3833(6) 0.7777(5) 0.0227(6)
F23 F 0.3942(9) 0.9423(7) 0.1114(8)
F24 F 0.3352(7) 0.8379(9) 0.1071(8)
F25 F 0.3227(9) 0.8454(13) 0.0265(7)
F26 F 0.5049(8) 0.9468(7) 0.1476(8)
F27 F 0.4383(7) 0.8471(12) 0.1460(7)
F28 F 0.5031(5) 0.8504(8) 0.0929(7)
loop_
_geom_bond_atom_site_label_1
_geom_bond_atom_site_label_2
_geom_bond_site_symmetry_1
_geom_bond_site_symmetry_2
Pd1 N1 1_555 1_555
Pd2 N2 1_555 1_555
Pd3 N9 1_555 1_555
Pd4 N3 1_555 1_555
Pd5 N8 1_555 1_555
Pd6 N15 1_555 1_555
N1 C1 1_555 1_555
N2 C7 1_555 1_555
N3 C13 1_555 1_555
N4 C6 1_555 1_555
N5 C12 1_555 1_555
N6 C6 1_555 1_555
N7 Pd2 1_555 1_555
N8 C25 1_555 1_555
N9 C31 1_555 1_555
N10 C24 1_555 1_555
N11 C30 1_555 1_555
N12 C24 1_555 1_555
N13 Pd1 1_555 1_555
N14 Pd3 1_555 1_555
N15 C49 1_555 1_555
N16 C42 1_555 1_555
N17 C48 1_555 1_555
N18 C42 1_555 1_555
N19 Pd5 1_555 1_555
N20 Pd4 1_555 1_555
N21 Pd6 1_555 1_555
N22 C60 1_555 1_555
N23 C66 1_555 1_555
N24 C60 1_555 1_555
N25 Pd2 1_555 1_555
N26 Pd2 1_555 1_555
N27 Pd5 1_555 1_555
N28 Pd5 1_555 1_555
N29 Pd6 1_555 1_555
N30 Pd6 1_555 1_555
N31 Pd1 1_555 1_555
N32 Pd1 1_555 1_555
N33 Pd3 1_555 1_555
N34 Pd3 1_555 1_555
N35 Pd4 1_555 1_555
N36 Pd4 1_555 1_555
C1 H1 1_555 1_555
C2 C1 1_555 1_555
H2 C2 1_555 1_555
C3 C2 1_555 1_555
C4 C3 1_555 1_555
H3 C4 1_555 1_555
C5 N1 1_555 1_555
H4 C5 1_555 1_555
C6 C3 1_555 1_555
C7 H5 1_555 1_555
C8 C7 1_555 1_555
H6 C8 1_555 1_555
C9 C8 1_555 1_555
C10 C9 1_555 1_555
H7 C10 1_555 1_555
C11 N2 1_555 1_555
H8 C11 1_555 1_555
C12 N4 1_555 1_555
C13 H9 1_555 1_555
C14 C13 1_555 1_555
H10 C14 1_555 1_555
C15 C14 1_555 1_555
C16 C15 1_555 1_555
H11 C16 1_555 1_555
C17 N3 1_555 1_555
H12 C17 1_555 1_555
C18 N5 1_555 1_555
C19 N7 1_555 1_555
H13 C19 1_555 1_555
C20 C19 1_555 1_555
H14 C20 1_555 1_555
C21 C20 1_555 1_555
C22 C21 1_555 1_555
H15 C22 1_555 1_555
C23 N7 1_555 1_555
H16 C23 1_555 1_555
C24 C21 1_555 1_555
C25 H17 1_555 1_555
C26 C25 1_555 1_555
H18 C26 1_555 1_555
C27 C26 1_555 1_555
C28 C27 1_555 1_555
H19 C28 1_555 1_555
C29 N8 1_555 1_555
H20 C29 1_555 1_555
C30 N10 1_555 1_555
C31 H21 1_555 1_555
C32 C31 1_555 1_555
H22 C32 1_555 1_555
C33 C32 1_555 1_555
C34 C33 1_555 1_555
H23 C34 1_555 1_555
C35 N9 1_555 1_555
H24 C35 1_555 1_555
C36 N11 1_555 1_555
C37 N13 1_555 1_555
H25 C37 1_555 1_555
C38 C37 1_555 1_555
H26 C38 1_555 1_555
C39 C38 1_555 1_555
C40 C39 1_555 1_555
H27 C40 1_555 1_555
C41 N13 1_555 1_555
H28 C41 1_555 1_555
C42 C39 1_555 1_555
C43 N14 1_555 1_555
H29 C43 1_555 1_555
C44 C43 1_555 1_555
H30 C44 1_555 1_555
C45 C44 1_555 1_555
C46 C45 1_555 1_555
H31 C46 1_555 1_555
C47 N14 1_555 1_555
H32 C47 1_555 1_555
C48 N16 1_555 1_555
C49 H33 1_555 1_555
C50 C49 1_555 1_555
H34 C50 1_555 1_555
C51 C50 1_555 1_555
C52 C51 1_555 1_555
H35 C52 1_555 1_555
C53 N15 1_555 1_555
H36 C53 1_555 1_555
C54 N17 1_555 1_555
C55 N19 1_555 1_555
H37 C55 1_555 1_555
C56 C55 1_555 1_555
H38 C56 1_555 1_555
C57 C56 1_555 1_555
C58 C57 1_555 1_555
H39 C58 1_555 1_555
C59 N19 1_555 1_555
H40 C59 1_555 1_555
C60 C57 1_555 1_555
C61 N20 1_555 1_555
H41 C61 1_555 1_555
C62 C61 1_555 1_555
H42 C62 1_555 1_555
C63 C62 1_555 1_555
C64 C63 1_555 1_555
H43 C64 1_555 1_555
C65 N20 1_555 1_555
H44 C65 1_555 1_555
C66 N22 1_555 1_555
C67 N21 1_555 1_555
H45 C67 1_555 1_555
C68 C67 1_555 1_555
H46 C68 1_555 1_555
C69 C68 1_555 1_555
C70 C69 1_555 1_555
H47 C70 1_555 1_555
C71 N21 1_555 1_555
H48 C71 1_555 1_555
C72 N23 1_555 1_555
C73 N25 1_555 1_555
H49 C73 1_555 1_555
H50 C73 1_555 1_555
H51 C73 1_555 1_555
C74 N25 1_555 1_555
H52 C74 1_555 1_555
H53 C74 1_555 1_555
H54 C74 1_555 1_555
C75 N25 1_555 1_555
H55 C75 1_555 1_555
H56 C75 1_555 1_555
C76 N26 1_555 1_555
H57 C76 1_555 1_555
H58 C76 1_555 1_555
C77 N26 1_555 1_555
H59 C77 1_555 1_555
H60 C77 1_555 1_555
H61 C77 1_555 1_555
C78 N26 1_555 1_555
H62 C78 1_555 1_555
H63 C78 1_555 1_555
H64 C78 1_555 1_555
C79 N27 1_555 1_555
H65 C79 1_555 1_555
H66 C79 1_555 1_555
H67 C79 1_555 1_555
C80 N27 1_555 1_555
H68 C80 1_555 1_555
H69 C80 1_555 1_555
H70 C80 1_555 1_555
C81 N27 1_555 1_555
H71 C81 1_555 1_555
H72 C81 1_555 1_555
C82 N28 1_555 1_555
H73 C82 1_555 1_555
H74 C82 1_555 1_555
C83 N28 1_555 1_555
H75 C83 1_555 1_555
H76 C83 1_555 1_555
H77 C83 1_555 1_555
C84 N28 1_555 1_555
H78 C84 1_555 1_555
H79 C84 1_555 1_555
H80 C84 1_555 1_555
C85 N29 1_555 1_555
H81 C85 1_555 1_555
H82 C85 1_555 1_555
H83 C85 1_555 1_555
C86 N29 1_555 1_555
H84 C86 1_555 1_555
H85 C86 1_555 1_555
H86 C86 1_555 1_555
C87 N29 1_555 1_555
H87 C87 1_555 1_555
H88 C87 1_555 1_555
C88 N30 1_555 1_555
H89 C88 1_555 1_555
H90 C88 1_555 1_555
C89 N30 1_555 1_555
H91 C89 1_555 1_555
H92 C89 1_555 1_555
H93 C89 1_555 1_555
C90 N30 1_555 1_555
H94 C90 1_555 1_555
H95 C90 1_555 1_555
H96 C90 1_555 1_555
C91 N31 1_555 1_555
H97 C91 1_555 1_555
H98 C91 1_555 1_555
H99 C91 1_555 1_555
C92 N31 1_555 1_555
H100 C92 1_555 1_555
H101 C92 1_555 1_555
H102 C92 1_555 1_555
C93 N31 1_555 1_555
H103 C93 1_555 1_555
H104 C93 1_555 1_555
C94 N32 1_555 1_555
H105 C94 1_555 1_555
H106 C94 1_555 1_555
C95 N32 1_555 1_555
H107 C95 1_555 1_555
H108 C95 1_555 1_555
H109 C95 1_555 1_555
C96 N32 1_555 1_555
H110 C96 1_555 1_555
H111 C96 1_555 1_555
H112 C96 1_555 1_555
C97 N33 1_555 1_555
H113 C97 1_555 1_555
H114 C97 1_555 1_555
H115 C97 1_555 1_555
C98 N33 1_555 1_555
H116 C98 1_555 1_555
H117 C98 1_555 1_555
H118 C98 1_555 1_555
C99 N33 1_555 1_555
H119 C99 1_555 1_555
H120 C99 1_555 1_555
C100 N34 1_555 1_555
H121 C100 1_555 1_555
H122 C100 1_555 1_555
C101 N34 1_555 1_555
H123 C101 1_555 1_555
H124 C101 1_555 1_555
H125 C101 1_555 1_555
C102 N34 1_555 1_555
H126 C102 1_555 1_555
H127 C102 1_555 1_555
H128 C102 1_555 1_555
C103 N35 1_555 1_555
H129 C103 1_555 1_555
H130 C103 1_555 1_555
H131 C103 1_555 1_555
C104 N35 1_555 1_555
H132 C104 1_555 1_555
H133 C104 1_555 1_555
H134 C104 1_555 1_555
C105 N35 1_555 1_555
H135 C105 1_555 1_555
H136 C105 1_555 1_555
C106 N36 1_555 1_555
H137 C106 1_555 1_555
H138 C106 1_555 1_555
C107 N36 1_555 1_555
H139 C107 1_555 1_555
H140 C107 1_555 1_555
H141 C107 1_555 1_555
C108 N36 1_555 1_555
H142 C108 1_555 1_555
H143 C108 1_555 1_555
H144 C108 1_555 1_555
N37 O1 1_555 1_555
O2 N37 1_555 1_555
O3 N37 1_555 1_555
N38 O7 1_555 1_555
O8 N38 1_555 1_555
O9 N38 1_555 1_555
N39 O10 1_555 1_555
O11 N39 1_555 1_555
O12 N39 1_555 1_555
N40 O13 1_555 1_555
O14 N40 1_555 1_555
O15 N40 1_555 1_555
N41 O16 1_555 1_555
O17 N41 1_555 1_555
O18 N41 1_555 1_555
N42 O21 1_555 1_555
O22 N42 1_555 1_555
O23 N42 1_555 1_555
N43 O24 1_555 1_555
O25 N43 1_555 1_555
O26 N43 1_555 1_555
N44 O28 1_555 1_555
O29 N44 1_555 1_555
O30 N44 1_555 1_555
N45 O32 1_555 1_555
O33 N45 1_555 1_555
O34 N45 1_555 1_555
N46 O36 1_555 1_555
O37 N46 1_555 1_555
O38 N46 1_555 1_555
N47 O40 1_555 1_555
O41 N47 1_555 1_555
O42 N47 1_555 1_555
N48 O43 1_555 1_555
O44 N48 1_555 1_555
O45 N48 1_555 1_555
I1 C109 1_555 1_555
C109 C110 1_555 1_555
C110 F2 1_555 1_555
C111 C109 1_555 1_555
F1 C109 1_555 1_555
F3 C110 1_555 1_555
F4 C110 1_555 1_555
F5 C111 1_555 1_555
F6 C111 1_555 1_555
F7 C111 1_555 1_555
I2 C112 1_555 1_555
C112 C113 1_555 1_555
C113 F9 1_555 1_555
C114 C112 1_555 1_555
F8 C112 1_555 1_555
F10 C113 1_555 1_555
F11 C113 1_555 1_555
F12 C114 1_555 1_555
F13 C114 1_555 1_555
F14 C114 1_555 1_555
I3 C115 1_555 1_555
C115 C116 1_555 1_555
C116 F16 1_555 1_555
C117 C115 1_555 1_555
F15 C115 1_555 1_555
F17 C116 1_555 1_555
F18 C116 1_555 1_555
F19 C117 1_555 1_555
F20 C117 1_555 1_555
F21 C117 1_555 1_555
I4 C118 1_555 1_555
C118 C119 1_555 1_555
C119 F23 1_555 1_555
C120 C118 1_555 1_555
F22 C118 1_555 1_555
F24 C119 1_555 1_555
F25 C119 1_555 1_555
F26 C120 1_555 1_555
F27 C120 1_555 1_555
F28 C120 1_555 1_555
N6 C18 1_555 1_555
N12 C36 1_555 1_555
N18 C54 1_555 1_555
N24 C72 1_555 1_555
C4 C5 1_555 1_555
C9 C12 1_555 1_555
C10 C11 1_555 1_555
C15 C18 1_555 1_555
C16 C17 1_555 1_555
C22 C23 1_555 1_555
C27 C30 1_555 1_555
C28 C29 1_555 1_555
C33 C36 1_555 1_555
C34 C35 1_555 1_555
C40 C41 1_555 1_555
C45 C48 1_555 1_555
C46 C47 1_555 1_555
C51 C54 1_555 1_555
C52 C53 1_555 1_555
C58 C59 1_555 1_555
C63 C66 1_555 1_555
C64 C65 1_555 1_555
C69 C72 1_555 1_555
C70 C71 1_555 1_555
C75 C76 1_555 1_555
C81 C82 1_555 1_555
C87 C88 1_555 1_555
C93 C94 1_555 1_555
C99 C100 1_555 1_555
C105 C106 1_555 1_555

#END
