# generated using pymatgen
data_B4H240Pd14C283S26N53(O56F47)2
_symmetry_space_group_name_H-M   'P 1'
_cell_length_a   25.96500000
_cell_length_b   27.24333680
_cell_length_c   27.24333680
_cell_angle_alpha   87.67992724
_cell_angle_beta   79.73201850
_cell_angle_gamma   79.73201850
_symmetry_Int_Tables_number   1
_chemical_formula_structural   B4H240Pd14C283S26N53(O56F47)2
_chemical_formula_sum   'B8 H480 Pd28 C566 S52 N106 O224 F188'
_cell_volume   18658.13125577
_cell_formula_units_Z   2
loop_
 _symmetry_equiv_pos_site_id
 _symmetry_equiv_pos_as_xyz
  1  'x, y, z'
loop_
 _atom_site_type_symbol
 _atom_site_label
 _atom_site_symmetry_multiplicity
 _atom_site_fract_x
 _atom_site_fract_y
 _atom_site_fract_z
 _atom_site_occupancy
  B  B1  1  0.407500  0.277700  0.672500  1
  B  B2  1  0.907500  0.672500  0.277700  1
  B  B3  1  0.592500  0.722300  0.327500  1
  B  B4  1  0.092500  0.327500  0.722300  1
  B  B5  1  0.254800  0.059200  0.745600  1
  B  B6  1  0.754800  0.745600  0.059200  1
  B  B7  1  0.745200  0.940800  0.254400  1
  B  B8  1  0.245200  0.254400  0.940800  1
  C  C9  1  0.026000  0.791700  0.009700  1
  C  C10  1  0.526000  0.009700  0.791700  1
  C  C11  1  0.974000  0.208300  0.990300  1
  C  C12  1  0.474000  0.990300  0.208300  1
  C  C13  1  0.730900  0.245800  0.473600  1
  C  C14  1  0.230900  0.473600  0.245800  1
  C  C15  1  0.269100  0.754200  0.526400  1
  C  C16  1  0.769100  0.526400  0.754200  1
  C  C17  1  0.493600  0.081500  0.421900  1
  C  C18  1  0.993600  0.421900  0.081500  1
  C  C19  1  0.506400  0.918500  0.578100  1
  C  C20  1  0.006400  0.578100  0.918500  1
  C  C21  1  0.346600  0.232500  0.414900  1
  C  C22  1  0.846600  0.414900  0.232500  1
  C  C23  1  0.653400  0.767500  0.585100  1
  C  C24  1  0.153400  0.585100  0.767500  1
  C  C25  1  0.036800  0.864500  0.654100  1
  C  C26  1  0.536800  0.654100  0.864500  1
  C  C27  1  0.963200  0.135500  0.345900  1
  C  C28  1  0.463200  0.345900  0.135500  1
  C  C29  1  0.829300  0.323200  0.558600  1
  C  C30  1  0.329300  0.558600  0.323200  1
  C  C31  1  0.170700  0.676800  0.441400  1
  C  C32  1  0.670700  0.441400  0.676800  1
  C  C33  1  0.586200  0.152100  0.037500  1
  C  C34  1  0.086200  0.037500  0.152100  1
  C  C35  1  0.413800  0.847900  0.962500  1
  C  C36  1  0.913800  0.962500  0.847900  1
  C  C37  1  0.733300  0.964300  0.876500  1
  C  C38  1  0.233300  0.876500  0.964300  1
  C  C39  1  0.266700  0.035700  0.123500  1
  C  C40  1  0.766700  0.123500  0.035700  1
  C  C41  1  0.622400  0.370900  0.523100  1
  C  C42  1  0.122400  0.523100  0.370900  1
  C  C43  1  0.377600  0.629100  0.476900  1
  C  C44  1  0.877600  0.476900  0.629100  1
  C  C45  1  0.673800  0.382600  0.532800  1
  C  C46  1  0.173800  0.532800  0.382600  1
  C  C47  1  0.326200  0.617400  0.467200  1
  C  C48  1  0.826200  0.467200  0.617400  1
  C  C49  1  0.608800  0.383700  0.473500  1
  C  C50  1  0.108800  0.473500  0.383700  1
  C  C51  1  0.391200  0.616300  0.526500  1
  C  C52  1  0.891200  0.526500  0.616300  1
  C  C53  1  0.599800  0.142600  0.761600  1
  C  C54  1  0.099800  0.761600  0.142600  1
  C  C55  1  0.400200  0.857400  0.238400  1
  C  C56  1  0.900200  0.238400  0.857400  1
  C  C57  1  0.577700  0.149300  0.823500  1
  C  C58  1  0.077700  0.823500  0.149300  1
  C  C59  1  0.422300  0.850700  0.176500  1
  C  C60  1  0.922300  0.176500  0.850700  1
  C  C61  1  0.643600  0.099200  0.750600  1
  C  C62  1  0.143600  0.750600  0.099200  1
  C  C63  1  0.356400  0.900800  0.249400  1
  C  C64  1  0.856400  0.249400  0.900800  1
  C  C65  1  0.953500  0.009800  0.773400  1
  C  C66  1  0.453500  0.773400  0.009800  1
  C  C67  1  0.046500  0.990200  0.226600  1
  C  C68  1  0.546500  0.226600  0.990200  1
  C  C69  1  0.929200  0.974100  0.748500  1
  C  C70  1  0.429200  0.748500  0.974100  1
  C  C71  1  0.070800  0.025900  0.251500  1
  C  C72  1  0.570800  0.251500  0.025900  1
  C  C73  1  0.923100  0.060600  0.774000  1
  C  C74  1  0.423100  0.774000  0.060600  1
  C  C75  1  0.076900  0.939400  0.226000  1
  C  C76  1  0.576900  0.226000  0.939400  1
  C  C77  1  0.055700  0.012700  0.585500  1
  C  C78  1  0.555700  0.585500  0.012700  1
  C  C79  1  0.944300  0.987300  0.414500  1
  C  C80  1  0.444300  0.414500  0.987300  1
  C  C81  1  0.055500  0.994900  0.540100  1
  C  C82  1  0.555500  0.540100  0.994900  1
  C  C83  1  0.944500  0.005100  0.459900  1
  C  C84  1  0.444500  0.459900  0.005100  1
  C  C85  1  0.012000  0.024000  0.630600  1
  C  C86  1  0.512000  0.630600  0.024000  1
  C  C87  1  0.988000  0.976000  0.369400  1
  C  C88  1  0.488000  0.369400  0.976000  1
  C  C89  1  0.383500  0.653900  0.748700  1
  C  C90  1  0.883500  0.748700  0.653900  1
  C  C91  1  0.616500  0.346100  0.251300  1
  C  C92  1  0.116500  0.251300  0.346100  1
  C  C93  1  0.321000  0.654000  0.775000  1
  C  C94  1  0.821000  0.775000  0.654000  1
  C  C95  1  0.679000  0.346000  0.225000  1
  C  C96  1  0.179000  0.225000  0.346000  1
  C  C97  1  0.383600  0.651000  0.698600  1
  C  C98  1  0.883600  0.698600  0.651000  1
  C  C99  1  0.616400  0.349000  0.301400  1
  C  C100  1  0.116400  0.301400  0.349000  1
  C  C101  1  0.298100  0.573700  0.626700  1
  C  C102  1  0.798100  0.626700  0.573700  1
  C  C103  1  0.701900  0.426300  0.373300  1
  C  C104  1  0.201900  0.373300  0.426300  1
  C  C105  1  0.255500  0.576300  0.595500  1
  C  C106  1  0.755500  0.595500  0.576300  1
  C  C107  1  0.744500  0.423700  0.404500  1
  C  C108  1  0.244500  0.404500  0.423700  1
  C  C109  1  0.296100  0.620300  0.651100  1
  C  C110  1  0.796100  0.651100  0.620300  1
  C  C111  1  0.703900  0.379700  0.348900  1
  C  C112  1  0.203900  0.348900  0.379700  1
  C  C113  1  0.446600  0.103700  0.961700  1
  C  C114  1  0.946600  0.961700  0.103700  1
  C  C115  1  0.553400  0.896300  0.038300  1
  C  C116  1  0.053400  0.038300  0.896300  1
  C  C117  1  0.435000  0.055200  0.946200  1
  C  C118  1  0.935000  0.946200  0.055200  1
  C  C119  1  0.565000  0.944800  0.053800  1
  C  C120  1  0.065000  0.053800  0.944800  1
  C  C121  1  0.501200  0.111300  0.948100  1
  C  C122  1  0.001200  0.948100  0.111300  1
  C  C123  1  0.498800  0.888700  0.051900  1
  C  C124  1  0.998800  0.051900  0.888700  1
  C  C125  1  0.890800  0.168800  0.693800  1
  C  C126  1  0.390800  0.693800  0.168800  1
  C  C127  1  0.109200  0.831200  0.306200  1
  C  C128  1  0.609200  0.306200  0.831200  1
  C  C129  1  0.930700  0.153800  0.646600  1
  C  C130  1  0.430700  0.646600  0.153800  1
  C  C131  1  0.069300  0.846200  0.353400  1
  C  C132  1  0.569300  0.353400  0.846200  1
  C  C133  1  0.843500  0.146600  0.695800  1
  C  C134  1  0.343500  0.695800  0.146600  1
  C  C135  1  0.156500  0.853400  0.304200  1
  C  C136  1  0.656500  0.304200  0.853400  1
  C  C137  1  0.783100  0.034100  0.632500  1
  C  C138  1  0.283100  0.632500  0.034100  1
  C  C139  1  0.216900  0.965900  0.367500  1
  C  C140  1  0.716900  0.367500  0.965900  1
  C  C141  1  0.836000  0.002900  0.611300  1
  C  C142  1  0.336000  0.611300  0.002900  1
  C  C143  1  0.164000  0.997100  0.388700  1
  C  C144  1  0.664000  0.388700  0.997100  1
  C  C145  1  0.741000  0.003300  0.642700  1
  C  C146  1  0.241000  0.642700  0.003300  1
  C  C147  1  0.259000  0.996700  0.357300  1
  C  C148  1  0.759000  0.357300  0.996700  1
  C  C149  1  0.617000  0.842800  0.710600  1
  C  C150  1  0.117000  0.710600  0.842800  1
  C  C151  1  0.383000  0.157200  0.289400  1
  C  C152  1  0.883000  0.289400  0.157200  1
  C  C153  1  0.624900  0.890200  0.683000  1
  C  C154  1  0.124900  0.683000  0.890200  1
  C  C155  1  0.375100  0.109800  0.317000  1
  C  C156  1  0.875100  0.317000  0.109800  1
  C  C157  1  0.662800  0.803400  0.703200  1
  C  C158  1  0.162800  0.703200  0.803400  1
  C  C159  1  0.337200  0.196600  0.296800  1
  C  C160  1  0.837200  0.296800  0.196600  1
  C  C161  1  0.335500  0.477100  0.748700  1
  C  C162  1  0.835500  0.748700  0.477100  1
  C  C163  1  0.664500  0.522900  0.251300  1
  C  C164  1  0.164500  0.251300  0.522900  1
  C  C165  1  0.294300  0.444000  0.759000  1
  C  C166  1  0.794300  0.759000  0.444000  1
  C  C167  1  0.705700  0.556000  0.241000  1
  C  C168  1  0.205700  0.241000  0.556000  1
  C  C169  1  0.315300  0.530800  0.761800  1
  C  C170  1  0.815300  0.761800  0.530800  1
  C  C171  1  0.684700  0.469200  0.238200  1
  C  C172  1  0.184700  0.238200  0.469200  1
  C  C173  1  0.430600  0.500600  0.838000  1
  C  C174  1  0.930600  0.838000  0.500600  1
  C  C175  1  0.569400  0.499400  0.162000  1
  C  C176  1  0.069400  0.162000  0.499400  1
  C  C177  1  0.435700  0.448700  0.847900  1
  C  C178  1  0.935700  0.847900  0.448700  1
  C  C179  1  0.564300  0.551300  0.152100  1
  C  C180  1  0.064300  0.152100  0.551300  1
  C  C181  1  0.404300  0.539100  0.880300  1
  C  C182  1  0.904300  0.880300  0.539100  1
  C  C183  1  0.595700  0.460900  0.119700  1
  C  C184  1  0.095700  0.119700  0.460900  1
  C  C185  1  0.602400  0.058800  0.608200  1
  C  C186  1  0.102400  0.608200  0.058800  1
  C  C187  1  0.397600  0.941200  0.391800  1
  C  C188  1  0.897600  0.391800  0.941200  1
  C  C189  1  0.584200  0.050200  0.560400  1
  C  C190  1  0.084200  0.560400  0.050200  1
  C  C191  1  0.415800  0.949800  0.439600  1
  C  C192  1  0.915800  0.439600  0.949800  1
  C  C193  1  0.593100  0.019800  0.645000  1
  C  C194  1  0.093100  0.645000  0.019800  1
  C  C195  1  0.406900  0.980200  0.355000  1
  C  C196  1  0.906900  0.355000  0.980200  1
  C  C197  1  0.406100  0.354700  0.298300  1
  C  C198  1  0.906100  0.298300  0.354700  1
  C  C199  1  0.593900  0.645300  0.701700  1
  C  C200  1  0.093900  0.701700  0.645300  1
  C  C201  1  0.358200  0.380900  0.300900  1
  C  C202  1  0.858200  0.300900  0.380900  1
  C  C203  1  0.641800  0.619100  0.699100  1
  C  C204  1  0.141800  0.699100  0.619100  1
  C  C205  1  0.424700  0.302900  0.285900  1
  C  C206  1  0.924700  0.285900  0.302900  1
  C  C207  1  0.575300  0.697100  0.714100  1
  C  C208  1  0.075300  0.714100  0.697100  1
  C  C209  1  0.275900  0.802500  0.694500  1
  C  C210  1  0.775900  0.694500  0.802500  1
  C  C211  1  0.724100  0.197500  0.305500  1
  C  C212  1  0.224100  0.305500  0.197500  1
  C  C213  1  0.236200  0.773300  0.697900  1
  C  C214  1  0.736200  0.697900  0.773300  1
  C  C215  1  0.763800  0.226700  0.302100  1
  C  C216  1  0.263800  0.302100  0.226700  1
  C  C217  1  0.333900  0.778200  0.685400  1
  C  C218  1  0.833900  0.685400  0.778200  1
  C  C219  1  0.666100  0.221800  0.314600  1
  C  C220  1  0.166100  0.314600  0.221800  1
  C  C221  1  0.568900  0.487900  0.842100  1
  C  C222  1  0.068900  0.842100  0.487900  1
  C  C223  1  0.431100  0.512100  0.157900  1
  C  C224  1  0.931100  0.157900  0.512100  1
  C  C225  1  0.626000  0.469900  0.847500  1
  C  C226  1  0.126000  0.847500  0.469900  1
  C  C227  1  0.374000  0.530100  0.152500  1
  C  C228  1  0.874000  0.152500  0.530100  1
  C  C229  1  0.562000  0.526100  0.803700  1
  C  C230  1  0.062000  0.803700  0.526100  1
  C  C231  1  0.438000  0.473900  0.196300  1
  C  C232  1  0.938000  0.196300  0.473900  1
  C  C233  1  0.718000  0.234400  0.664600  1
  C  C234  1  0.218000  0.664600  0.234400  1
  C  C235  1  0.282000  0.765600  0.335400  1
  C  C236  1  0.782000  0.335400  0.765600  1
  C  C237  1  0.719300  0.189100  0.645900  1
  C  C238  1  0.219300  0.645900  0.189100  1
  C  C239  1  0.280700  0.810900  0.354100  1
  C  C240  1  0.780700  0.354100  0.810900  1
  C  C241  1  0.104000  0.843600  0.855600  1
  C  C242  1  0.604000  0.855600  0.843600  1
  C  C243  1  0.896000  0.156400  0.144400  1
  C  C244  1  0.396000  0.144400  0.156400  1
  C  C245  1  0.091000  0.837000  0.808400  1
  C  C246  1  0.591000  0.808400  0.837000  1
  C  C247  1  0.909000  0.163000  0.191600  1
  C  C248  1  0.409000  0.191600  0.163000  1
  C  C249  1  0.283100  0.186200  0.800800  1
  C  C250  1  0.783100  0.800800  0.186200  1
  C  C251  1  0.716900  0.813800  0.199200  1
  C  C252  1  0.216900  0.199200  0.813800  1
  C  C253  1  0.335000  0.184400  0.803800  1
  C  C254  1  0.835000  0.803800  0.184400  1
  C  C255  1  0.665000  0.815600  0.196200  1
  C  C256  1  0.165000  0.196200  0.815600  1
  C  C257  1  0.385500  0.186500  0.818300  1
  C  C258  1  0.885500  0.818300  0.186500  1
  C  C259  1  0.614500  0.813500  0.181700  1
  C  C260  1  0.114500  0.181700  0.813500  1
  C  C261  1  0.422200  0.138900  0.826100  1
  C  C262  1  0.922200  0.826100  0.138900  1
  C  C263  1  0.577800  0.861100  0.173900  1
  C  C264  1  0.077800  0.173900  0.861100  1
  C  C265  1  0.241000  0.272100  0.808900  1
  C  C266  1  0.741000  0.808900  0.272100  1
  C  C267  1  0.759000  0.727900  0.191100  1
  C  C268  1  0.259000  0.191100  0.727900  1
  C  C269  1  0.202200  0.311100  0.805100  1
  C  C270  1  0.702200  0.805100  0.311100  1
  C  C271  1  0.797800  0.688900  0.194900  1
  C  C272  1  0.297800  0.194900  0.688900  1
  C  C273  1  0.226000  0.355600  0.797000  1
  C  C274  1  0.726000  0.797000  0.355600  1
  C  C275  1  0.774000  0.644400  0.203000  1
  C  C276  1  0.274000  0.203000  0.644400  1
  C  C277  1  0.203900  0.390300  0.839900  1
  C  C278  1  0.703900  0.839900  0.390300  1
  C  C279  1  0.796100  0.609700  0.160100  1
  C  C280  1  0.296100  0.160100  0.609700  1
  C  C281  1  0.375500  0.459800  0.456400  1
  C  C282  1  0.875500  0.456400  0.459800  1
  C  C283  1  0.624500  0.540200  0.543600  1
  C  C284  1  0.124500  0.543600  0.540200  1
  C  C285  1  0.311300  0.089200  0.445800  1
  C  C286  1  0.811300  0.445800  0.089200  1
  C  C287  1  0.688700  0.910800  0.554200  1
  C  C288  1  0.188700  0.554200  0.910800  1
  C  C289  1  0.385200  0.219400  0.434800  1
  C  C290  1  0.885200  0.434800  0.219400  1
  C  C291  1  0.614800  0.780600  0.565200  1
  C  C292  1  0.114800  0.565200  0.780600  1
  C  C293  1  0.282500  0.743600  0.897600  1
  C  C294  1  0.782500  0.897600  0.743600  1
  C  C295  1  0.717500  0.256400  0.102400  1
  C  C296  1  0.217500  0.102400  0.256400  1
  C  C297  1  0.294400  0.540500  0.615900  1
  C  C298  1  0.794400  0.615900  0.540500  1
  C  C299  1  0.705600  0.459500  0.384100  1
  C  C300  1  0.205600  0.384100  0.459500  1
  C  C301  1  0.279700  0.593800  0.631000  1
  C  C302  1  0.779700  0.631000  0.593800  1
  C  C303  1  0.720300  0.406200  0.369000  1
  C  C304  1  0.220300  0.369000  0.406200  1
  C  C305  1  0.337900  0.510100  0.634500  1
  C  C306  1  0.837900  0.634500  0.510100  1
  C  C307  1  0.662100  0.489900  0.365500  1
  C  C308  1  0.162100  0.365500  0.489900  1
  C  C309  1  0.750000  0.120100  0.879900  1
  C  C310  1  0.250000  0.879900  0.120100  1
  C  C311  1  0.305400  0.225700  0.786100  1.0
  C  C312  1  0.805400  0.786100  0.225700  1.0
  C  C313  1  0.694600  0.774300  0.213900  1.0
  C  C314  1  0.194600  0.213900  0.774300  1.0
  C  C315  1  0.342200  0.185100  0.792500  1.0
  C  C316  1  0.842200  0.792500  0.185100  1.0
  C  C317  1  0.657800  0.814900  0.207500  1.0
  C  C318  1  0.157800  0.207500  0.814900  1.0
  C  C319  1  0.368800  0.147100  0.822100  1.0
  C  C320  1  0.868800  0.822100  0.147100  1.0
  C  C321  1  0.631200  0.852900  0.177900  1.0
  C  C322  1  0.131200  0.177900  0.852900  1.0
  C  C323  1  0.423000  0.160700  0.819300  1.0
  C  C324  1  0.923000  0.819300  0.160700  1.0
  C  C325  1  0.577000  0.839300  0.180700  1.0
  C  C326  1  0.077000  0.180700  0.839300  1.0
  C  C327  1  0.225600  0.279700  0.759500  1.0
  C  C328  1  0.725600  0.759500  0.279700  1.0
  C  C329  1  0.774400  0.720300  0.240500  1.0
  C  C330  1  0.274400  0.240500  0.720300  1.0
  C  C331  1  0.213400  0.318400  0.792000  1.0
  C  C332  1  0.713400  0.792000  0.318400  1.0
  C  C333  1  0.786600  0.681600  0.208000  1.0
  C  C334  1  0.286600  0.208000  0.681600  1.0
  C  C335  1  0.206000  0.361400  0.824000  1.0
  C  C336  1  0.706000  0.824000  0.361400  1.0
  C  C337  1  0.794000  0.638600  0.176000  1.0
  C  C338  1  0.294000  0.176000  0.638600  1.0
  C  C339  1  0.175300  0.409600  0.808400  1.0
  C  C340  1  0.675300  0.808400  0.409600  1.0
  C  C341  1  0.824700  0.590400  0.191600  1.0
  C  C342  1  0.324700  0.191600  0.590400  1.0
  C  C343  1  0.714600  0.210200  0.674800  1.0
  C  C344  1  0.214600  0.674800  0.210200  1.0
  C  C345  1  0.285400  0.789800  0.325200  1.0
  C  C346  1  0.785400  0.325200  0.789800  1.0
  C  C347  1  0.723800  0.197400  0.620200  1.0
  C  C348  1  0.223800  0.620200  0.197400  1.0
  C  C349  1  0.276200  0.802600  0.379800  1.0
  C  C350  1  0.776200  0.379800  0.802600  1.0
  C  C351  1  0.078500  0.874700  0.874300  1.0
  C  C352  1  0.578500  0.874300  0.874700  1.0
  C  C353  1  0.921500  0.125300  0.125700  1.0
  C  C354  1  0.421500  0.125700  0.125300  1.0
  C  C355  1  0.058800  0.872200  0.829600  1.0
  C  C356  1  0.558800  0.829600  0.872200  1.0
  C  C357  1  0.941200  0.127800  0.170400  1.0
  C  C358  1  0.441200  0.170400  0.127800  1.0
  C  C359  1  0.490900  0.177000  0.601200  1.0
  C  C360  1  0.990900  0.601200  0.177000  1.0
  C  C361  1  0.509100  0.823000  0.398800  1.0
  C  C362  1  0.009100  0.398800  0.823000  1.0
  C  C363  1  0.481500  0.207900  0.561500  1.0
  C  C364  1  0.981500  0.561500  0.207900  1.0
  C  C365  1  0.518500  0.792100  0.438500  1.0
  C  C366  1  0.018500  0.438500  0.792100  1.0
  C  C367  1  0.547100  0.249600  0.574400  1.0
  C  C368  1  0.047100  0.574400  0.249600  1.0
  C  C369  1  0.452900  0.750400  0.425600  1.0
  C  C370  1  0.952900  0.425600  0.750400  1.0
  C  C371  1  0.529500  0.186300  0.627100  1.0
  C  C372  1  0.029500  0.627100  0.186300  1.0
  C  C373  1  0.470500  0.813700  0.372900  1.0
  C  C374  1  0.970500  0.372900  0.813700  1.0
  C  C375  1  0.373800  0.015000  0.653800  1.0
  C  C376  1  0.873800  0.653800  0.015000  1.0
  C  C377  1  0.626200  0.985000  0.346200  1.0
  C  C378  1  0.126200  0.346200  0.985000  1.0
  C  C379  1  0.136700  0.047300  0.704100  1.0
  C  C380  1  0.636700  0.704100  0.047300  1.0
  C  C381  1  0.863300  0.952700  0.295900  1.0
  C  C382  1  0.363300  0.295900  0.952700  1.0
  C  C383  1  0.259700  0.992100  0.859500  1.0
  C  C384  1  0.759700  0.859500  0.992100  1.0
  C  C385  1  0.740300  0.007900  0.140500  1.0
  C  C386  1  0.240300  0.140500  0.007900  1.0
  C  C387  1  0.389300  0.402900  0.617900  1.0
  C  C388  1  0.889300  0.617900  0.402900  1.0
  C  C389  1  0.610700  0.597100  0.382100  1.0
  C  C390  1  0.110700  0.382100  0.597100  1.0
  C  C391  1  0.459600  0.136400  0.616200  1.0
  C  C392  1  0.959600  0.616200  0.136400  1.0
  C  C393  1  0.540400  0.863600  0.383800  1.0
  C  C394  1  0.040400  0.383800  0.863600  1.0
  C  C395  1  0.403200  0.058100  0.640100  1.0
  C  C396  1  0.903200  0.640100  0.058100  1.0
  C  C397  1  0.596800  0.941900  0.359900  1.0
  C  C398  1  0.096800  0.359900  0.941900  1.0
  C  C399  1  0.417500  0.070200  0.590400  1.0
  C  C400  1  0.917500  0.590400  0.070200  1.0
  C  C401  1  0.582500  0.929800  0.409600  1.0
  C  C402  1  0.082500  0.409600  0.929800  1.0
  C  C403  1  0.471900  0.360700  0.731100  1.0
  C  C404  1  0.971900  0.731100  0.360700  1.0
  C  C405  1  0.528100  0.639300  0.268900  1.0
  C  C406  1  0.028100  0.268900  0.639300  1.0
  C  C407  1  0.307300  0.968200  0.834000  1.0
  C  C408  1  0.807300  0.834000  0.968200  1.0
  C  C409  1  0.692700  0.031800  0.166000  1.0
  C  C410  1  0.192700  0.166000  0.031800  1.0
  C  C411  1  0.470600  0.371200  0.568800  1.0
  C  C412  1  0.970600  0.568800  0.371200  1.0
  C  C413  1  0.529400  0.628800  0.431200  1.0
  C  C414  1  0.029400  0.431200  0.628800  1.0
  C  C415  1  0.264800  0.917000  0.797200  1.0
  C  C416  1  0.764800  0.797200  0.917000  1.0
  C  C417  1  0.735200  0.083000  0.202800  1.0
  C  C418  1  0.235200  0.202800  0.083000  1.0
  C  C419  1  0.541800  0.337100  0.669900  1.0
  C  C420  1  0.041800  0.669900  0.337100  1.0
  C  C421  1  0.458200  0.662900  0.330100  1.0
  C  C422  1  0.958200  0.330100  0.662900  1.0
  C  C423  1  0.336800  0.005200  0.627400  1.0
  C  C424  1  0.836800  0.627400  0.005200  1.0
  C  C425  1  0.663200  0.994800  0.372600  1.0
  C  C426  1  0.163200  0.372600  0.994800  1.0
  C  C427  1  0.482800  0.317300  0.756500  1.0
  C  C428  1  0.982800  0.756500  0.317300  1.0
  C  C429  1  0.517200  0.682700  0.243500  1.0
  C  C430  1  0.017200  0.243500  0.682700  1.0
  C  C431  1  0.444200  0.123300  0.665700  1.0
  C  C432  1  0.944200  0.665700  0.123300  1.0
  C  C433  1  0.555800  0.876700  0.334300  1.0
  C  C434  1  0.055800  0.334300  0.876700  1.0
  C  C435  1  0.416300  0.084100  0.677700  1.0
  C  C436  1  0.916300  0.677700  0.084100  1.0
  C  C437  1  0.583700  0.915900  0.322300  1.0
  C  C438  1  0.083700  0.322300  0.915900  1.0
  C  C439  1  0.173300  0.027900  0.662300  1.0
  C  C440  1  0.673300  0.662300  0.027900  1.0
  C  C441  1  0.826700  0.972100  0.337700  1.0
  C  C442  1  0.326700  0.337700  0.972100  1.0
  C  C443  1  0.385300  0.982800  0.691200  1.0
  C  C444  1  0.885300  0.691200  0.982800  1.0
  C  C445  1  0.614700  0.017200  0.308800  1.0
  C  C446  1  0.114700  0.308800  0.017200  1.0
  C  C447  1  0.394200  0.344900  0.555900  1.0
  C  C448  1  0.894200  0.555900  0.344900  1.0
  C  C449  1  0.605800  0.655100  0.444100  1.0
  C  C450  1  0.105800  0.444100  0.655100  1.0
  C  C451  1  0.186500  0.950600  0.700800  1.0
  C  C452  1  0.686500  0.700800  0.950600  1.0
  C  C453  1  0.813500  0.049400  0.299200  1.0
  C  C454  1  0.313500  0.299200  0.049400  1.0
  C  C455  1  0.445600  0.109700  0.579100  1.0
  C  C456  1  0.945600  0.579100  0.109700  1.0
  C  C457  1  0.554400  0.890300  0.420900  1.0
  C  C458  1  0.054400  0.420900  0.890300  1.0
  C  C459  1  0.363600  0.375100  0.592300  1.0
  C  C460  1  0.863600  0.592300  0.375100  1.0
  C  C461  1  0.636400  0.624900  0.407700  1.0
  C  C462  1  0.136400  0.407700  0.624900  1.0
  C  C463  1  0.449200  0.307100  0.805300  1.0
  C  C464  1  0.949200  0.805300  0.307100  1.0
  C  C465  1  0.550800  0.692900  0.194700  1.0
  C  C466  1  0.050800  0.194700  0.692900  1.0
  C  C467  1  0.473700  0.279900  0.841500  1.0
  C  C468  1  0.973700  0.841500  0.279900  1.0
  C  C469  1  0.526300  0.720100  0.158500  1.0
  C  C470  1  0.026300  0.158500  0.720100  1.0
  C  C471  1  0.214800  0.977000  0.849800  1.0
  C  C472  1  0.714800  0.849800  0.977000  1.0
  C  C473  1  0.785200  0.023000  0.150200  1.0
  C  C474  1  0.285200  0.150200  0.023000  1.0
  C  C475  1  0.107900  0.098800  0.702600  1.0
  C  C476  1  0.607900  0.702600  0.098800  1.0
  C  C477  1  0.892100  0.901200  0.297400  1.0
  C  C478  1  0.392100  0.297400  0.901200  1.0
  C  C479  1  0.522000  0.266900  0.386900  1.0
  C  C480  1  0.022000  0.386900  0.266900  1.0
  C  C481  1  0.478000  0.733100  0.613100  1.0
  C  C482  1  0.978000  0.613100  0.733100  1.0
  C  C483  1  0.461400  0.809100  0.746100  1.0
  C  C484  1  0.961400  0.746100  0.809100  1.0
  C  C485  1  0.538600  0.190900  0.253900  1.0
  C  C486  1  0.038600  0.253900  0.190900  1.0
  C  C487  1  0.524100  0.282500  0.733500  1.0
  C  C488  1  0.024100  0.733500  0.282500  1.0
  C  C489  1  0.475900  0.717500  0.266500  1.0
  C  C490  1  0.975900  0.266500  0.717500  1.0
  C  C491  1  0.504700  0.528100  0.675700  1.0
  C  C492  1  0.004700  0.675700  0.528100  1.0
  C  C493  1  0.495300  0.471900  0.324300  1.0
  C  C494  1  0.995300  0.324300  0.471900  1.0
  C  C495  1  0.328300  0.934700  0.675700  1.0
  C  C496  1  0.828300  0.675700  0.934700  1.0
  C  C497  1  0.671700  0.065300  0.324300  1.0
  C  C498  1  0.171700  0.324300  0.065300  1.0
  C  C499  1  0.128000  0.015200  0.742200  1.0
  C  C500  1  0.628000  0.742200  0.015200  1.0
  C  C501  1  0.872000  0.984800  0.257800  1.0
  C  C502  1  0.372000  0.257800  0.984800  1.0
  C  C503  1  0.396700  0.327400  0.816000  1.0
  C  C504  1  0.896700  0.816000  0.327400  1.0
  C  C505  1  0.603300  0.672600  0.184000  1.0
  C  C506  1  0.103300  0.184000  0.672600  1.0
  C  C507  1  0.455500  0.543900  0.653700  1.0
  C  C508  1  0.955500  0.653700  0.543900  1.0
  C  C509  1  0.544500  0.456100  0.346300  1.0
  C  C510  1  0.044500  0.346300  0.456100  1.0
  C  C511  1  0.517600  0.320900  0.388500  1.0
  C  C512  1  0.017600  0.388500  0.320900  1.0
  C  C513  1  0.482400  0.679100  0.611500  1.0
  C  C514  1  0.982400  0.611500  0.679100  1.0
  C  C515  1  0.445400  0.275700  0.889500  1.0
  C  C516  1  0.945400  0.889500  0.275700  1.0
  C  C517  1  0.554600  0.724300  0.110500  1.0
  C  C518  1  0.054600  0.110500  0.724300  1.0
  C  C519  1  0.278900  0.925900  0.499300  1.0
  C  C520  1  0.778900  0.499300  0.925900  1.0
  C  C521  1  0.721100  0.074100  0.500700  1.0
  C  C522  1  0.221100  0.500700  0.074100  1.0
  C  C523  1  0.133000  0.136300  0.677900  1.0
  C  C524  1  0.633000  0.677900  0.136300  1.0
  C  C525  1  0.867000  0.863700  0.322100  1.0
  C  C526  1  0.367000  0.322100  0.863700  1.0
  C  C527  1  0.225200  0.912400  0.518400  1.0
  C  C528  1  0.725200  0.518400  0.912400  1.0
  C  C529  1  0.774800  0.087600  0.481600  1.0
  C  C530  1  0.274800  0.481600  0.087600  1.0
  C  C531  1  0.451100  0.819600  0.801600  1.0
  C  C532  1  0.951100  0.801600  0.819600  1.0
  C  C533  1  0.548900  0.180400  0.198400  1.0
  C  C534  1  0.048900  0.198400  0.180400  1.0
  C  C535  1  0.304900  0.381100  0.602900  1.0
  C  C536  1  0.804900  0.602900  0.381100  1.0
  C  C537  1  0.695100  0.618900  0.397100  1.0
  C  C538  1  0.195100  0.397100  0.618900  1.0
  C  C539  1  0.280200  0.349000  0.608400  1.0
  C  C540  1  0.780200  0.608400  0.349000  1.0
  C  C541  1  0.719800  0.651000  0.391600  1.0
  C  C542  1  0.219800  0.391600  0.651000  1.0
  C  C543  1  0.276700  0.382700  0.645900  1.0
  C  C544  1  0.776700  0.645900  0.382700  1.0
  C  C545  1  0.723300  0.617300  0.354100  1.0
  C  C546  1  0.223300  0.354100  0.617300  1.0
  C  C547  1  0.275700  0.431800  0.618600  1.0
  C  C548  1  0.775700  0.618600  0.431800  1.0
  C  C549  1  0.724300  0.568200  0.381400  1.0
  C  C550  1  0.224300  0.381400  0.568200  1.0
  C  C551  1  0.279900  0.372500  0.559100  1.0
  C  C552  1  0.779900  0.559100  0.372500  1.0
  C  C553  1  0.720100  0.627500  0.440900  1.0
  C  C554  1  0.220100  0.440900  0.627500  1.0
  C  C555  1  0.254200  0.032000  0.895600  1.0
  C  C556  1  0.754200  0.895600  0.032000  1.0
  C  C557  1  0.745800  0.968000  0.104400  1.0
  C  C558  1  0.245800  0.104400  0.968000  1.0
  C  C559  1  0.292200  0.061400  0.890400  1.0
  C  C560  1  0.792200  0.890400  0.061400  1.0
  C  C561  1  0.707800  0.938600  0.109600  1.0
  C  C562  1  0.207800  0.109600  0.938600  1.0
  C  C563  1  0.212000  0.036600  0.933200  1.0
  C  C564  1  0.712000  0.933200  0.036600  1.0
  C  C565  1  0.788000  0.963400  0.066800  1.0
  C  C566  1  0.288000  0.066800  0.963400  1.0
  C  C567  1  0.290200  0.028600  0.926400  1.0
  C  C568  1  0.790200  0.926400  0.028600  1.0
  C  C569  1  0.709800  0.971400  0.073600  1.0
  C  C570  1  0.209800  0.073600  0.971400  1.0
  C  C571  1  0.212600  0.072800  0.899600  1.0
  C  C572  1  0.712600  0.899600  0.072800  1.0
  C  C573  1  0.787400  0.927200  0.100400  1.0
  C  C574  1  0.287400  0.100400  0.927200  1.0
  F  F575  1  0.020900  0.833600  0.035400  1
  F  F576  1  0.520900  0.035400  0.833600  1
  F  F577  1  0.979100  0.166400  0.964600  1
  F  F578  1  0.479100  0.964600  0.166400  1
  F  F579  1  0.018000  0.759900  0.046500  1
  F  F580  1  0.518000  0.046500  0.759900  1
  F  F581  1  0.982000  0.240100  0.953500  1
  F  F582  1  0.482000  0.953500  0.240100  1
  F  F583  1  0.075300  0.781200  0.985800  1
  F  F584  1  0.575300  0.985800  0.781200  1
  F  F585  1  0.924700  0.218800  0.014200  1
  F  F586  1  0.424700  0.014200  0.218800  1
  F  F587  1  0.741900  0.275600  0.438400  1
  F  F588  1  0.241900  0.438400  0.275600  1
  F  F589  1  0.258100  0.724400  0.561600  1
  F  F590  1  0.758100  0.561600  0.724400  1
  F  F591  1  0.773000  0.212400  0.481200  1
  F  F592  1  0.273000  0.481200  0.212400  1
  F  F593  1  0.227000  0.787600  0.518800  1
  F  F594  1  0.727000  0.518800  0.787600  1
  F  F595  1  0.715200  0.274300  0.514900  1
  F  F596  1  0.215200  0.514900  0.274300  1
  F  F597  1  0.284800  0.725700  0.485100  1
  F  F598  1  0.784800  0.485100  0.725700  1
  F  F599  1  0.450200  0.112400  0.416600  1
  F  F600  1  0.950200  0.416600  0.112400  1
  F  F601  1  0.549800  0.887600  0.583400  1
  F  F602  1  0.049800  0.583400  0.887600  1
  F  F603  1  0.476900  0.056600  0.461800  1
  F  F604  1  0.976900  0.461800  0.056600  1
  F  F605  1  0.523100  0.943400  0.538200  1
  F  F606  1  0.023100  0.538200  0.943400  1
  F  F607  1  0.505800  0.050900  0.383300  1
  F  F608  1  0.005800  0.383300  0.050900  1
  F  F609  1  0.494200  0.949100  0.616700  1
  F  F610  1  0.994200  0.616700  0.949100  1
  F  F611  1  0.307300  0.249100  0.391100  1
  F  F612  1  0.807300  0.391100  0.249100  1
  F  F613  1  0.692700  0.750900  0.608900  1
  F  F614  1  0.192700  0.608900  0.750900  1
  F  F615  1  0.390900  0.215200  0.383400  1
  F  F616  1  0.890900  0.383400  0.215200  1
  F  F617  1  0.609100  0.784800  0.616600  1
  F  F618  1  0.109100  0.616600  0.784800  1
  F  F619  1  0.331000  0.193400  0.440800  1
  F  F620  1  0.831000  0.440800  0.193400  1
  F  F621  1  0.669000  0.806600  0.559200  1
  F  F622  1  0.169000  0.559200  0.806600  1
  F  F623  1  0.026800  0.822200  0.643800  1
  F  F624  1  0.526800  0.643800  0.822200  1
  F  F625  1  0.973200  0.177800  0.356200  1
  F  F626  1  0.473200  0.356200  0.177800  1
  F  F627  1  0.012800  0.885600  0.697800  1
  F  F628  1  0.512800  0.697800  0.885600  1
  F  F629  1  0.987200  0.114400  0.302200  1
  F  F630  1  0.487200  0.302200  0.114400  1
  F  F631  1  0.014500  0.895000  0.621200  1
  F  F632  1  0.514500  0.621200  0.895000  1
  F  F633  1  0.985500  0.105000  0.378800  1
  F  F634  1  0.485500  0.378800  0.105000  1
  F  F635  1  0.831000  0.298500  0.518700  1
  F  F636  1  0.331000  0.518700  0.298500  1
  F  F637  1  0.169000  0.701500  0.481300  1
  F  F638  1  0.669000  0.481300  0.701500  1
  F  F639  1  0.781900  0.349000  0.575800  1
  F  F640  1  0.281900  0.575800  0.349000  1
  F  F641  1  0.218100  0.651000  0.424200  1
  F  F642  1  0.718100  0.424200  0.651000  1
  F  F643  1  0.860800  0.357100  0.545300  1
  F  F644  1  0.360800  0.545300  0.357100  1
  F  F645  1  0.139200  0.642900  0.454700  1
  F  F646  1  0.639200  0.454700  0.642900  1
  F  F647  1  0.582000  0.193400  0.062600  1
  F  F648  1  0.082000  0.062600  0.193400  1
  F  F649  1  0.418000  0.806600  0.937400  1
  F  F650  1  0.918000  0.937400  0.806600  1
  F  F651  1  0.545500  0.156000  0.013800  1
  F  F652  1  0.045500  0.013800  0.156000  1
  F  F653  1  0.454500  0.844000  0.986200  1
  F  F654  1  0.954500  0.986200  0.844000  1
  F  F655  1  0.629200  0.151800  0.003200  1
  F  F656  1  0.129200  0.003200  0.151800  1
  F  F657  1  0.370800  0.848200  0.996800  1
  F  F658  1  0.870800  0.996800  0.848200  1
  F  F659  1  0.711300  0.994900  0.844300  1
  F  F660  1  0.211300  0.844300  0.994900  1
  F  F661  1  0.288700  0.005100  0.155700  1
  F  F662  1  0.788700  0.155700  0.005100  1
  F  F663  1  0.765200  0.924100  0.856500  1
  F  F664  1  0.265200  0.856500  0.924100  1
  F  F665  1  0.234800  0.075900  0.143500  1
  F  F666  1  0.734800  0.143500  0.075900  1
  F  F667  1  0.763900  0.989000  0.896200  1
  F  F668  1  0.263900  0.896200  0.989000  1
  F  F669  1  0.236100  0.011000  0.103800  1
  F  F670  1  0.736100  0.103800  0.011000  1
  F  F671  1  0.384400  0.263100  0.635300  1
  F  F672  1  0.884400  0.635300  0.263100  1
  F  F673  1  0.615600  0.736900  0.364700  1
  F  F674  1  0.115600  0.364700  0.736900  1
  F  F675  1  0.424600  0.239100  0.702300  1
  F  F676  1  0.924600  0.702300  0.239100  1
  F  F677  1  0.575400  0.760900  0.297700  1
  F  F678  1  0.075400  0.297700  0.760900  1
  F  F679  1  0.376700  0.317150  0.698750  1
  F  F680  1  0.876700  0.698750  0.317150  1
  F  F681  1  0.623300  0.682850  0.301250  1
  F  F682  1  0.123300  0.301250  0.682850  1
  F  F683  1  0.454500  0.295200  0.646200  1
  F  F684  1  0.954500  0.646200  0.295200  1
  F  F685  1  0.545500  0.704800  0.353800  1
  F  F686  1  0.045500  0.353800  0.704800  1
  F  F687  1  0.212200  0.078100  0.779500  1
  F  F688  1  0.712200  0.779500  0.078100  1
  F  F689  1  0.787800  0.921900  0.220500  1
  F  F690  1  0.287800  0.220500  0.921900  1
  F  F691  1  0.252900  0.081200  0.697600  1
  F  F692  1  0.752900  0.697600  0.081200  1
  F  F693  1  0.747100  0.918800  0.302400  1
  F  F694  1  0.247100  0.302400  0.918800  1
  F  F695  1  0.256700  0.008060  0.739480  1
  F  F696  1  0.756700  0.739480  0.008060  1
  F  F697  1  0.743300  0.991940  0.260520  1
  F  F698  1  0.243300  0.260520  0.991940  1
  F  F699  1  0.302900  0.065300  0.759300  1
  F  F700  1  0.802900  0.759300  0.065300  1
  F  F701  1  0.697100  0.934700  0.240700  1
  F  F702  1  0.197100  0.240700  0.934700  1
  F  F703  1  0.382900  0.452400  0.408400  1
  F  F704  1  0.882900  0.408400  0.452400  1
  F  F705  1  0.617100  0.547600  0.591600  1
  F  F706  1  0.117100  0.591600  0.547600  1
  F  F707  1  0.329800  0.491800  0.468400  1
  F  F708  1  0.829800  0.468400  0.491800  1
  F  F709  1  0.670200  0.508200  0.531600  1
  F  F710  1  0.170200  0.531600  0.508200  1
  F  F711  1  0.365900  0.416000  0.478000  1
  F  F712  1  0.865900  0.478000  0.416000  1
  F  F713  1  0.634100  0.584000  0.522000  1
  F  F714  1  0.134100  0.522000  0.584000  1
  F  F715  1  0.264300  0.106800  0.437600  1
  F  F716  1  0.764300  0.437600  0.106800  1
  F  F717  1  0.735700  0.893200  0.562400  1
  F  F718  1  0.235700  0.562400  0.893200  1
  F  F719  1  0.312400  0.040900  0.460900  1
  F  F720  1  0.812400  0.460900  0.040900  1
  F  F721  1  0.687600  0.959100  0.539100  1
  F  F722  1  0.187600  0.539100  0.959100  1
  F  F723  1  0.315100  0.108500  0.490100  1
  F  F724  1  0.815100  0.490100  0.108500  1
  F  F725  1  0.684900  0.891500  0.509900  1
  F  F726  1  0.184900  0.509900  0.891500  1
  F  F727  1  0.420500  0.213400  0.463600  1
  F  F728  1  0.920500  0.463600  0.213400  1
  F  F729  1  0.579500  0.786600  0.536400  1
  F  F730  1  0.079500  0.536400  0.786600  1
  F  F731  1  0.351100  0.187500  0.446300  1
  F  F732  1  0.851100  0.446300  0.187500  1
  F  F733  1  0.648900  0.812500  0.553700  1
  F  F734  1  0.148900  0.553700  0.812500  1
  F  F735  1  0.413200  0.203300  0.389700  1
  F  F736  1  0.913200  0.389700  0.203300  1
  F  F737  1  0.586800  0.796700  0.610300  1
  F  F738  1  0.086800  0.610300  0.796700  1
  F  F739  1  0.319100  0.748800  0.922200  1
  F  F740  1  0.819100  0.922200  0.748800  1
  F  F741  1  0.680900  0.251200  0.077800  1
  F  F742  1  0.180900  0.077800  0.251200  1
  F  F743  1  0.283000  0.698800  0.880800  1
  F  F744  1  0.783000  0.880800  0.698800  1
  F  F745  1  0.717000  0.301200  0.119200  1
  F  F746  1  0.217000  0.119200  0.301200  1
  F  F747  1  0.238600  0.754900  0.933100  1
  F  F748  1  0.738600  0.933100  0.754900  1
  F  F749  1  0.761400  0.245100  0.066900  1
  F  F750  1  0.261400  0.066900  0.245100  1
  F  F751  1  0.766700  0.152500  0.905900  1
  F  F752  1  0.266700  0.905900  0.152500  1
  F  F753  1  0.233300  0.847500  0.094100  1
  F  F754  1  0.733300  0.094100  0.847500  1
  F  F755  1  0.766400  0.072600  0.895200  1
  F  F756  1  0.266400  0.895200  0.072600  1
  F  F757  1  0.233600  0.927400  0.104800  1
  F  F758  1  0.733600  0.104800  0.927400  1
  F  F759  1  0.791500  0.121800  0.842200  1
  F  F760  1  0.291500  0.842200  0.121800  1
  F  F761  1  0.208500  0.878200  0.157800  1
  F  F762  1  0.708500  0.157800  0.878200  1
  H  H763  1  0.727400  0.257800  0.637000  1
  H  H764  1  0.227400  0.637000  0.257800  1
  H  H765  1  0.272600  0.742200  0.363000  1
  H  H766  1  0.772600  0.363000  0.742200  1
  H  H767  1  0.744600  0.232000  0.687000  1
  H  H768  1  0.244600  0.687000  0.232000  1
  H  H769  1  0.255400  0.768000  0.313000  1
  H  H770  1  0.755400  0.313000  0.768000  1
  H  H771  1  0.719500  0.164300  0.673500  1
  H  H772  1  0.219500  0.673500  0.164300  1
  H  H773  1  0.280500  0.835700  0.326500  1
  H  H774  1  0.780500  0.326500  0.835700  1
  H  H775  1  0.753000  0.180000  0.622000  1
  H  H776  1  0.253000  0.622000  0.180000  1
  H  H777  1  0.247000  0.820000  0.378000  1
  H  H778  1  0.747000  0.378000  0.820000  1
  H  H779  1  0.143900  0.893300  0.894300  1
  H  H780  1  0.643900  0.894300  0.893300  1
  H  H781  1  0.856100  0.106700  0.105700  1
  H  H782  1  0.356100  0.105700  0.106700  1
  H  H783  1  0.181400  0.850100  0.844100  1
  H  H784  1  0.681400  0.844100  0.850100  1
  H  H785  1  0.818600  0.149900  0.155900  1
  H  H786  1  0.318600  0.155900  0.149900  1
  H  H787  1  0.148800  0.885400  0.883000  1
  H  H788  1  0.648800  0.883000  0.885400  1
  H  H789  1  0.851200  0.114600  0.117000  1
  H  H790  1  0.351200  0.117000  0.114600  1
  H  H791  1  0.055500  0.906000  0.790600  1
  H  H792  1  0.555500  0.790600  0.906000  1
  H  H793  1  0.944500  0.094000  0.209400  1
  H  H794  1  0.444500  0.209400  0.094000  1
  H  H795  1  0.095700  0.883000  0.748200  1
  H  H796  1  0.595700  0.748200  0.883000  1
  H  H797  1  0.904300  0.117000  0.251800  1
  H  H798  1  0.404300  0.251800  0.117000  1
  H  H799  1  0.113800  0.810400  0.871200  1
  H  H800  1  0.613800  0.871200  0.810400  1
  H  H801  1  0.886200  0.189600  0.128800  1
  H  H802  1  0.386200  0.128800  0.189600  1
  H  H803  1  0.072700  0.862000  0.877400  1
  H  H804  1  0.572700  0.877400  0.862000  1
  H  H805  1  0.927300  0.138000  0.122600  1
  H  H806  1  0.427300  0.122600  0.138000  1
  H  H807  1  0.056400  0.826000  0.812200  1
  H  H808  1  0.556400  0.812200  0.826000  1
  H  H809  1  0.943600  0.174000  0.187800  1
  H  H810  1  0.443600  0.187800  0.174000  1
  H  H811  1  0.118600  0.811600  0.789000  1
  H  H812  1  0.618600  0.789000  0.811600  1
  H  H813  1  0.881400  0.188400  0.211000  1
  H  H814  1  0.381400  0.211000  0.188400  1
  H  H815  1  0.299700  0.316000  0.607000  1
  H  H816  1  0.799700  0.607000  0.316000  1
  H  H817  1  0.700300  0.684000  0.393000  1
  H  H818  1  0.200300  0.393000  0.684000  1
  H  H819  1  0.250100  0.289900  0.730300  1
  H  H820  1  0.750100  0.730300  0.289900  1
  H  H821  1  0.749900  0.710100  0.269700  1
  H  H822  1  0.249900  0.269700  0.710100  1
  H  H823  1  0.263900  0.186100  0.835700  1
  H  H824  1  0.763900  0.835700  0.186100  1
  H  H825  1  0.736100  0.813900  0.164300  1
  H  H826  1  0.236100  0.164300  0.813900  1
  H  H827  1  0.280900  0.154100  0.786300  1
  H  H828  1  0.780900  0.786300  0.154100  1
  H  H829  1  0.719100  0.845900  0.213700  1
  H  H830  1  0.219100  0.213700  0.845900  1
  H  H831  1  0.342300  0.204300  0.772900  1
  H  H832  1  0.842300  0.772900  0.204300  1
  H  H833  1  0.657700  0.795700  0.227100  1
  H  H834  1  0.157700  0.227100  0.795700  1
  H  H835  1  0.345900  0.149500  0.792100  1
  H  H836  1  0.845900  0.792100  0.149500  1
  H  H837  1  0.654100  0.850500  0.207900  1
  H  H838  1  0.154100  0.207900  0.850500  1
  H  H839  1  0.378100  0.205600  0.849600  1
  H  H840  1  0.878100  0.849600  0.205600  1
  H  H841  1  0.621900  0.794400  0.150400  1
  H  H842  1  0.121900  0.150400  0.794400  1
  H  H843  1  0.405100  0.206200  0.792400  1
  H  H844  1  0.905100  0.792400  0.206200  1
  H  H845  1  0.594900  0.793800  0.207600  1
  H  H846  1  0.094900  0.207600  0.793800  1
  H  H847  1  0.452400  0.146400  0.839800  1
  H  H848  1  0.952400  0.839800  0.146400  1
  H  H849  1  0.547600  0.853600  0.160200  1
  H  H850  1  0.047600  0.160200  0.853600  1
  H  H851  1  0.435200  0.121800  0.794200  1
  H  H852  1  0.935200  0.794200  0.121800  1
  H  H853  1  0.564800  0.878200  0.205800  1
  H  H854  1  0.064800  0.205800  0.878200  1
  H  H855  1  0.403000  0.117400  0.849600  1
  H  H856  1  0.903000  0.849600  0.117400  1
  H  H857  1  0.597000  0.882600  0.150400  1
  H  H858  1  0.097000  0.150400  0.882600  1
  H  H859  1  0.234600  0.259100  0.843500  1
  H  H860  1  0.734600  0.843500  0.259100  1
  H  H861  1  0.765400  0.740900  0.156500  1
  H  H862  1  0.265400  0.156500  0.740900  1
  H  H863  1  0.274900  0.285000  0.804400  1
  H  H864  1  0.774900  0.804400  0.285000  1
  H  H865  1  0.725100  0.715000  0.195600  1
  H  H866  1  0.225100  0.195600  0.715000  1
  H  H867  1  0.175300  0.314300  0.836100  1
  H  H868  1  0.675300  0.836100  0.314300  1
  H  H869  1  0.824700  0.685700  0.163900  1
  H  H870  1  0.324700  0.163900  0.685700  1
  H  H871  1  0.184400  0.306400  0.776800  1
  H  H872  1  0.684400  0.776800  0.306400  1
  H  H873  1  0.815600  0.693600  0.223200  1
  H  H874  1  0.315600  0.223200  0.693600  1
  H  H875  1  0.218200  0.372300  0.765500  1
  H  H876  1  0.718200  0.765500  0.372300  1
  H  H877  1  0.781800  0.627700  0.234500  1
  H  H878  1  0.281800  0.234500  0.627700  1
  H  H879  1  0.265100  0.346600  0.794200  1
  H  H880  1  0.765100  0.794200  0.346600  1
  H  H881  1  0.734900  0.653400  0.205800  1
  H  H882  1  0.234900  0.205800  0.653400  1
  H  H883  1  0.217200  0.421800  0.833000  1
  H  H884  1  0.717200  0.833000  0.421800  1
  H  H885  1  0.782800  0.578200  0.167000  1
  H  H886  1  0.282800  0.167000  0.578200  1
  H  H887  1  0.215100  0.375000  0.870400  1
  H  H888  1  0.715100  0.870400  0.375000  1
  H  H889  1  0.784900  0.625000  0.129600  1
  H  H890  1  0.284900  0.129600  0.625000  1
  H  H891  1  0.165000  0.396800  0.844400  1
  H  H892  1  0.665000  0.844400  0.396800  1
  H  H893  1  0.835000  0.603200  0.155600  1
  H  H894  1  0.335000  0.155600  0.603200  1
  H  H895  1  0.323500  0.245800  0.759800  1.0
  H  H896  1  0.823500  0.759800  0.245800  1.0
  H  H897  1  0.676500  0.754200  0.240200  1.0
  H  H898  1  0.176500  0.240200  0.754200  1.0
  H  H899  1  0.299400  0.244900  0.817300  1.0
  H  H900  1  0.799400  0.817300  0.244900  1.0
  H  H901  1  0.700600  0.755100  0.182700  1.0
  H  H902  1  0.200600  0.182700  0.755100  1.0
  H  H903  1  0.371600  0.113600  0.808000  1.0
  H  H904  1  0.871600  0.808000  0.113600  1.0
  H  H905  1  0.628400  0.886400  0.192000  1.0
  H  H906  1  0.128400  0.192000  0.886400  1.0
  H  H907  1  0.349800  0.147600  0.857000  1.0
  H  H908  1  0.849800  0.857000  0.147600  1.0
  H  H909  1  0.650200  0.852400  0.143000  1.0
  H  H910  1  0.150200  0.143000  0.852400  1.0
  H  H911  1  0.446200  0.132800  0.831800  1.0
  H  H912  1  0.946200  0.831800  0.132800  1.0
  H  H913  1  0.553800  0.867200  0.168200  1.0
  H  H914  1  0.053800  0.168200  0.867200  1.0
  H  H915  1  0.419500  0.190200  0.839600  1.0
  H  H916  1  0.919500  0.839600  0.190200  1.0
  H  H917  1  0.580500  0.809800  0.160400  1.0
  H  H918  1  0.080500  0.160400  0.809800  1.0
  H  H919  1  0.437000  0.167900  0.784500  1.0
  H  H920  1  0.937000  0.784500  0.167900  1.0
  H  H921  1  0.563000  0.832100  0.215500  1.0
  H  H922  1  0.063000  0.215500  0.832100  1.0
  H  H923  1  0.192400  0.277100  0.747500  1.0
  H  H924  1  0.692400  0.747500  0.277100  1.0
  H  H925  1  0.807600  0.722900  0.252500  1.0
  H  H926  1  0.307600  0.252500  0.722900  1.0
  H  H927  1  0.241600  0.367500  0.827700  1.0
  H  H928  1  0.741600  0.827700  0.367500  1.0
  H  H929  1  0.758400  0.632500  0.172300  1.0
  H  H930  1  0.258400  0.172300  0.632500  1.0
  H  H931  1  0.188000  0.352500  0.857500  1.0
  H  H932  1  0.688000  0.857500  0.352500  1.0
  H  H933  1  0.812000  0.647500  0.142500  1.0
  H  H934  1  0.312000  0.142500  0.647500  1.0
  H  H935  1  0.171800  0.434700  0.834100  1.0
  H  H936  1  0.671800  0.834100  0.434700  1.0
  H  H937  1  0.828200  0.565300  0.165900  1.0
  H  H938  1  0.328200  0.165900  0.565300  1.0
  H  H939  1  0.139900  0.404500  0.804100  1.0
  H  H940  1  0.639900  0.804100  0.404500  1.0
  H  H941  1  0.860100  0.595500  0.195900  1.0
  H  H942  1  0.360100  0.195900  0.595500  1.0
  H  H943  1  0.194100  0.420900  0.776700  1.0
  H  H944  1  0.694100  0.776700  0.420900  1.0
  H  H945  1  0.805900  0.579100  0.223300  1.0
  H  H946  1  0.305900  0.223300  0.579100  1.0
  H  H947  1  0.747200  0.219900  0.682500  1.0
  H  H948  1  0.247200  0.682500  0.219900  1.0
  H  H949  1  0.252800  0.780100  0.317500  1.0
  H  H950  1  0.752800  0.317500  0.780100  1.0
  H  H951  1  0.708600  0.179800  0.694600  1.0
  H  H952  1  0.208600  0.694600  0.179800  1.0
  H  H953  1  0.291400  0.820200  0.305400  1.0
  H  H954  1  0.791400  0.305400  0.820200  1.0
  H  H955  1  0.731500  0.226200  0.598400  1.0
  H  H956  1  0.231500  0.598400  0.226200  1.0
  H  H957  1  0.268500  0.773800  0.401600  1.0
  H  H958  1  0.768500  0.401600  0.773800  1.0
  H  H959  1  0.752600  0.168400  0.611600  1.0
  H  H960  1  0.252600  0.611600  0.168400  1.0
  H  H961  1  0.247400  0.831600  0.388400  1.0
  H  H962  1  0.747400  0.388400  0.831600  1.0
  H  H963  1  0.157400  0.847000  0.863800  1.0
  H  H964  1  0.657400  0.863800  0.847000  1.0
  H  H965  1  0.842600  0.153000  0.136200  1.0
  H  H966  1  0.342600  0.136200  0.153000  1.0
  H  H967  1  0.058100  0.938900  0.798300  1.0
  H  H968  1  0.558100  0.798300  0.938900  1.0
  H  H969  1  0.941900  0.061100  0.201700  1.0
  H  H970  1  0.441900  0.201700  0.061100  1.0
  H  H971  1  0.083600  0.898300  0.762500  1.0
  H  H972  1  0.583600  0.762500  0.898300  1.0
  H  H973  1  0.916400  0.101700  0.237500  1.0
  H  H974  1  0.416400  0.237500  0.101700  1.0
  H  H975  1  0.072700  0.844600  0.894600  1.0
  H  H976  1  0.572700  0.894600  0.844600  1.0
  H  H977  1  0.927300  0.155400  0.105400  1.0
  H  H978  1  0.427300  0.105400  0.155400  1.0
  H  H979  1  0.057700  0.904000  0.893400  1.0
  H  H980  1  0.557700  0.893400  0.904000  1.0
  H  H981  1  0.942300  0.096000  0.106600  1.0
  H  H982  1  0.442300  0.106600  0.096000  1.0
  H  H983  1  0.019500  0.880300  0.835900  1.0
  H  H984  1  0.519500  0.835900  0.880300  1.0
  H  H985  1  0.980500  0.119700  0.164100  1.0
  H  H986  1  0.480500  0.164100  0.119700  1.0
  H  H987  1  0.069700  0.838300  0.815500  1.0
  H  H988  1  0.569700  0.815500  0.838300  1.0
  H  H989  1  0.930300  0.161700  0.184500  1.0
  H  H990  1  0.430300  0.184500  0.161700  1.0
  H  H991  1  0.444100  0.339300  0.427900  1.0
  H  H992  1  0.944100  0.427900  0.339300  1.0
  H  H993  1  0.555900  0.660700  0.572100  1.0
  H  H994  1  0.055900  0.572100  0.660700  1.0
  H  H995  1  0.480800  0.371300  0.440500  1.0
  H  H996  1  0.980800  0.440500  0.371300  1.0
  H  H997  1  0.519200  0.628700  0.559500  1.0
  H  H998  1  0.019200  0.559500  0.628700  1.0
  H  H999  1  0.172800  0.927300  0.580500  1.0
  H  H1000  1  0.672800  0.580500  0.927300  1.0
  H  H1001  1  0.827200  0.072700  0.419500  1.0
  H  H1002  1  0.327200  0.419500  0.072700  1.0
  H  H1003  1  0.181800  0.973400  0.551000  1.0
  H  H1004  1  0.681800  0.551000  0.973400  1.0
  H  H1005  1  0.818200  0.026600  0.449000  1.0
  H  H1006  1  0.318200  0.449000  0.026600  1.0
  H  H1007  1  0.482000  0.480800  0.729400  1.0
  H  H1008  1  0.982000  0.729400  0.480800  1.0
  H  H1009  1  0.518000  0.519200  0.270600  1.0
  H  H1010  1  0.018000  0.270600  0.519200  1.0
  H  H1011  1  0.537800  0.463800  0.703400  1.0
  H  H1012  1  0.037800  0.703400  0.463800  1.0
  H  H1013  1  0.462200  0.536200  0.296600  1.0
  H  H1014  1  0.962200  0.296600  0.536200  1.0
  H  H1015  1  0.571800  0.246300  0.437900  1.0
  H  H1016  1  0.071800  0.437900  0.246300  1.0
  H  H1017  1  0.428200  0.753700  0.562100  1.0
  H  H1018  1  0.928200  0.562100  0.753700  1.0
  H  H1019  1  0.528900  0.215500  0.443900  1.0
  H  H1020  1  0.028900  0.443900  0.215500  1.0
  H  H1021  1  0.471100  0.784500  0.556100  1.0
  H  H1022  1  0.971100  0.556100  0.784500  1.0
  H  H1023  1  0.334500  0.937000  0.534800  1.0
  H  H1024  1  0.834500  0.534800  0.937000  1.0
  H  H1025  1  0.665500  0.063000  0.465200  1.0
  H  H1026  1  0.165500  0.465200  0.063000  1.0
  H  H1027  1  0.317200  0.888100  0.547900  1.0
  H  H1028  1  0.817200  0.547900  0.888100  1.0
  H  H1029  1  0.682800  0.111900  0.452100  1.0
  H  H1030  1  0.182800  0.452100  0.111900  1.0
  H  H1031  1  0.445800  0.857400  0.689200  1.0
  H  H1032  1  0.945800  0.689200  0.857400  1.0
  H  H1033  1  0.554200  0.142600  0.310800  1.0
  H  H1034  1  0.054200  0.310800  0.142600  1.0
  H  H1035  1  0.475400  0.878500  0.723100  1.0
  H  H1036  1  0.975400  0.723100  0.878500  1.0
  H  H1037  1  0.524600  0.121500  0.276900  1.0
  H  H1038  1  0.024600  0.276900  0.121500  1.0
  H  H1039  1  0.395700  0.865100  0.844500  1.0
  H  H1040  1  0.895700  0.844500  0.865100  1.0
  H  H1041  1  0.604300  0.134900  0.155500  1.0
  H  H1042  1  0.104300  0.155500  0.134900  1.0
  H  H1043  1  0.373800  0.826300  0.821700  1.0
  H  H1044  1  0.873800  0.821700  0.826300  1.0
  H  H1045  1  0.626200  0.173700  0.178300  1.0
  H  H1046  1  0.126200  0.178300  0.173700  1.0
  H  H1047  1  0.454300  0.203500  0.543700  1.0
  H  H1048  1  0.954300  0.543700  0.203500  1.0
  H  H1049  1  0.545700  0.796500  0.456300  1.0
  H  H1050  1  0.045700  0.456300  0.796500  1.0
  H  H1051  1  0.567500  0.275300  0.564900  1.0
  H  H1052  1  0.067500  0.564900  0.275300  1.0
  H  H1053  1  0.432500  0.724700  0.435100  1.0
  H  H1054  1  0.932500  0.435100  0.724700  1.0
  H  H1055  1  0.536100  0.166400  0.655400  1.0
  H  H1056  1  0.036100  0.655400  0.166400  1.0
  H  H1057  1  0.463900  0.833600  0.344600  1.0
  H  H1058  1  0.963900  0.344600  0.833600  1.0
  H  H1059  1  0.369100  0.424300  0.643700  1.0
  H  H1060  1  0.869100  0.643700  0.424300  1.0
  H  H1061  1  0.630900  0.575700  0.356300  1.0
  H  H1062  1  0.130900  0.356300  0.575700  1.0
  H  H1063  1  0.408600  0.052300  0.564900  1.0
  H  H1064  1  0.908600  0.564900  0.052300  1.0
  H  H1065  1  0.591400  0.947700  0.435100  1.0
  H  H1066  1  0.091400  0.435100  0.947700  1.0
  H  H1067  1  0.441900  0.384400  0.744800  1.0
  H  H1068  1  0.941900  0.744800  0.384400  1.0
  H  H1069  1  0.558100  0.615600  0.255200  1.0
  H  H1070  1  0.058100  0.255200  0.615600  1.0
  H  H1071  1  0.339300  0.978600  0.838400  1.0
  H  H1072  1  0.839300  0.838400  0.978600  1.0
  H  H1073  1  0.660700  0.021400  0.161600  1.0
  H  H1074  1  0.160700  0.161600  0.021400  1.0
  H  H1075  1  0.507800  0.370600  0.559800  1.0
  H  H1076  1  0.007800  0.559800  0.370600  1.0
  H  H1077  1  0.492200  0.629400  0.440200  1.0
  H  H1078  1  0.992200  0.440200  0.629400  1.0
  H  H1079  1  0.266800  0.889600  0.776200  1.0
  H  H1080  1  0.766800  0.776200  0.889600  1.0
  H  H1081  1  0.733200  0.110400  0.223800  1.0
  H  H1082  1  0.233200  0.223800  0.110400  1.0
  H  H1083  1  0.563900  0.344300  0.639700  1.0
  H  H1084  1  0.063900  0.639700  0.344300  1.0
  H  H1085  1  0.436100  0.655700  0.360300  1.0
  H  H1086  1  0.936100  0.360300  0.655700  1.0
  H  H1087  1  0.327600  0.026800  0.600800  1.0
  H  H1088  1  0.827600  0.600800  0.026800  1.0
  H  H1089  1  0.672400  0.973200  0.399200  1.0
  H  H1090  1  0.172400  0.399200  0.973200  1.0
  H  H1091  1  0.452800  0.141200  0.691400  1.0
  H  H1092  1  0.952800  0.691400  0.141200  1.0
  H  H1093  1  0.547200  0.858800  0.308600  1.0
  H  H1094  1  0.047200  0.308600  0.858800  1.0
  H  H1095  1  0.406100  0.075300  0.711700  1.0
  H  H1096  1  0.906100  0.711700  0.075300  1.0
  H  H1097  1  0.593900  0.924700  0.288300  1.0
  H  H1098  1  0.093900  0.288300  0.924700  1.0
  H  H1099  1  0.180500  0.049200  0.634400  1.0
  H  H1100  1  0.680500  0.634400  0.049200  1.0
  H  H1101  1  0.819500  0.950800  0.365600  1.0
  H  H1102  1  0.319500  0.365600  0.950800  1.0
  H  H1103  1  0.410600  0.989100  0.710300  1.0
  H  H1104  1  0.910600  0.710300  0.989100  1.0
  H  H1105  1  0.589400  0.010900  0.289700  1.0
  H  H1106  1  0.089400  0.289700  0.010900  1.0
  H  H1107  1  0.377900  0.324200  0.538400  1.0
  H  H1108  1  0.877900  0.538400  0.324200  1.0
  H  H1109  1  0.622100  0.675800  0.461600  1.0
  H  H1110  1  0.122100  0.461600  0.675800  1.0
  H  H1111  1  0.201800  0.916100  0.699100  1.0
  H  H1112  1  0.701800  0.699100  0.916100  1.0
  H  H1113  1  0.798200  0.083900  0.300900  1.0
  H  H1114  1  0.298200  0.300900  0.083900  1.0
  H  H1115  1  0.455500  0.118800  0.545200  1.0
  H  H1116  1  0.955500  0.545200  0.118800  1.0
  H  H1117  1  0.544500  0.881200  0.454800  1.0
  H  H1118  1  0.044500  0.454800  0.881200  1.0
  H  H1119  1  0.509800  0.264200  0.833600  1.0
  H  H1120  1  0.009800  0.833600  0.264200  1.0
  H  H1121  1  0.490200  0.735800  0.166400  1.0
  H  H1122  1  0.990200  0.166400  0.735800  1.0
  H  H1123  1  0.181000  0.993700  0.865700  1.0
  H  H1124  1  0.681000  0.865700  0.993700  1.0
  H  H1125  1  0.819000  0.006300  0.134300  1.0
  H  H1126  1  0.319000  0.134300  0.006300  1.0
  H  H1127  1  0.550300  0.252600  0.359200  1.0
  H  H1128  1  0.050300  0.359200  0.252600  1.0
  H  H1129  1  0.449700  0.747400  0.640800  1.0
  H  H1130  1  0.949700  0.640800  0.747400  1.0
  H  H1131  1  0.488000  0.257600  0.382200  1.0
  H  H1132  1  0.988000  0.382200  0.257600  1.0
  H  H1133  1  0.512000  0.742400  0.617800  1.0
  H  H1134  1  0.012000  0.617800  0.742400  1.0
  H  H1135  1  0.438000  0.786700  0.738100  1.0
  H  H1136  1  0.938000  0.738100  0.786700  1.0
  H  H1137  1  0.562000  0.213300  0.261900  1.0
  H  H1138  1  0.062000  0.261900  0.213300  1.0
  H  H1139  1  0.499000  0.793600  0.734600  1.0
  H  H1140  1  0.999000  0.734600  0.793600  1.0
  H  H1141  1  0.501000  0.206400  0.265400  1.0
  H  H1142  1  0.001000  0.265400  0.206400  1.0
  H  H1143  1  0.531600  0.250400  0.748400  1.0
  H  H1144  1  0.031600  0.748400  0.250400  1.0
  H  H1145  1  0.468400  0.749600  0.251600  1.0
  H  H1146  1  0.968400  0.251600  0.749600  1.0
  H  H1147  1  0.536500  0.527100  0.649300  1.0
  H  H1148  1  0.036500  0.649300  0.527100  1.0
  H  H1149  1  0.463500  0.472900  0.350700  1.0
  H  H1150  1  0.963500  0.350700  0.472900  1.0
  H  H1151  1  0.506400  0.552500  0.701100  1.0
  H  H1152  1  0.006400  0.701100  0.552500  1.0
  H  H1153  1  0.493600  0.447500  0.298900  1.0
  H  H1154  1  0.993600  0.298900  0.447500  1.0
  H  H1155  1  0.312700  0.905700  0.682900  1.0
  H  H1156  1  0.812700  0.682900  0.905700  1.0
  H  H1157  1  0.687300  0.094300  0.317100  1.0
  H  H1158  1  0.187300  0.317100  0.094300  1.0
  H  H1159  1  0.102200  0.026400  0.770600  1.0
  H  H1160  1  0.602200  0.770600  0.026400  1.0
  H  H1161  1  0.897800  0.973600  0.229400  1.0
  H  H1162  1  0.397800  0.229400  0.973600  1.0
  H  H1163  1  0.380000  0.345400  0.790800  1.0
  H  H1164  1  0.880000  0.790800  0.345400  1.0
  H  H1165  1  0.620000  0.654600  0.209200  1.0
  H  H1166  1  0.120000  0.209200  0.654600  1.0
  H  H1167  1  0.423700  0.548500  0.680300  1.0
  H  H1168  1  0.923700  0.680300  0.548500  1.0
  H  H1169  1  0.576300  0.451500  0.319700  1.0
  H  H1170  1  0.076300  0.319700  0.451500  1.0
  H  H1171  1  0.456900  0.575900  0.635300  1.0
  H  H1172  1  0.956900  0.635300  0.575900  1.0
  H  H1173  1  0.543100  0.424100  0.364700  1.0
  H  H1174  1  0.043100  0.364700  0.424100  1.0
  H  H1175  1  0.505800  0.336400  0.358000  1.0
  H  H1176  1  0.005800  0.358000  0.336400  1.0
  H  H1177  1  0.494200  0.663600  0.642000  1.0
  H  H1178  1  0.994200  0.642000  0.663600  1.0
  H  H1179  1  0.552500  0.329800  0.390400  1.0
  H  H1180  1  0.052500  0.390400  0.329800  1.0
  H  H1181  1  0.447500  0.670200  0.609600  1.0
  H  H1182  1  0.947500  0.609600  0.670200  1.0
  H  H1183  1  0.462700  0.257800  0.914400  1.0
  H  H1184  1  0.962700  0.914400  0.257800  1.0
  H  H1185  1  0.537300  0.742200  0.085600  1.0
  H  H1186  1  0.037300  0.085600  0.742200  1.0
  H  H1187  1  0.298900  0.902900  0.472500  1.0
  H  H1188  1  0.798900  0.472500  0.902900  1.0
  H  H1189  1  0.701100  0.097100  0.527500  1.0
  H  H1190  1  0.201100  0.527500  0.097100  1.0
  H  H1191  1  0.275300  0.960400  0.486000  1.0
  H  H1192  1  0.775300  0.486000  0.960400  1.0
  H  H1193  1  0.724700  0.039600  0.514000  1.0
  H  H1194  1  0.224700  0.514000  0.039600  1.0
  H  H1195  1  0.170000  0.129700  0.664700  1.0
  H  H1196  1  0.670000  0.664700  0.129700  1.0
  H  H1197  1  0.830000  0.870300  0.335300  1.0
  H  H1198  1  0.330000  0.335300  0.870300  1.0
  H  H1199  1  0.203400  0.917700  0.491700  1.0
  H  H1200  1  0.703400  0.491700  0.917700  1.0
  H  H1201  1  0.796600  0.082300  0.508300  1.0
  H  H1202  1  0.296600  0.508300  0.082300  1.0
  H  H1203  1  0.229300  0.876700  0.528100  1.0
  H  H1204  1  0.729300  0.528100  0.876700  1.0
  H  H1205  1  0.770700  0.123300  0.471900  1.0
  H  H1206  1  0.270700  0.471900  0.123300  1.0
  H  H1207  1  0.454700  0.787800  0.820600  1.0
  H  H1208  1  0.954700  0.820600  0.787800  1.0
  H  H1209  1  0.545300  0.212200  0.179400  1.0
  H  H1210  1  0.045300  0.179400  0.212200  1.0
  H  H1211  1  0.477500  0.839000  0.809400  1.0
  H  H1212  1  0.977500  0.809400  0.839000  1.0
  H  H1213  1  0.522500  0.161000  0.190600  1.0
  H  H1214  1  0.022500  0.190600  0.161000  1.0
  H  H1215  1  0.293100  0.377900  0.674700  1.0
  H  H1216  1  0.793100  0.674700  0.377900  1.0
  H  H1217  1  0.706900  0.622100  0.325300  1.0
  H  H1218  1  0.206900  0.325300  0.622100  1.0
  H  H1219  1  0.294700  0.457700  0.622500  1.0
  H  H1220  1  0.794700  0.622500  0.457700  1.0
  H  H1221  1  0.705300  0.542300  0.377500  1.0
  H  H1222  1  0.205300  0.377500  0.542300  1.0
  H  H1223  1  0.300300  0.361700  0.527700  1.0
  H  H1224  1  0.800300  0.527700  0.361700  1.0
  H  H1225  1  0.699700  0.638300  0.472300  1.0
  H  H1226  1  0.199700  0.472300  0.638300  1.0
  H  H1227  1  0.321300  0.056700  0.863500  1.0
  H  H1228  1  0.821300  0.863500  0.056700  1.0
  H  H1229  1  0.678700  0.943300  0.136500  1.0
  H  H1230  1  0.178700  0.136500  0.943300  1.0
  H  H1231  1  0.185000  0.016800  0.934600  1.0
  H  H1232  1  0.685000  0.934600  0.016800  1.0
  H  H1233  1  0.815000  0.983200  0.065400  1.0
  H  H1234  1  0.315000  0.065400  0.983200  1.0
  H  H1235  1  0.317800  0.000300  0.923900  1.0
  H  H1236  1  0.817800  0.923900  0.000300  1.0
  H  H1237  1  0.682200  0.999700  0.076100  1.0
  H  H1238  1  0.182200  0.076100  0.999700  1.0
  H  H1239  1  0.187800  0.076700  0.877300  1.0
  H  H1240  1  0.687800  0.877300  0.076700  1.0
  H  H1241  1  0.812200  0.923300  0.122700  1.0
  H  H1242  1  0.312200  0.122700  0.923300  1.0
  N  N1243  1  0.250000  0.226600  0.773400  1
  N  N1244  1  0.750000  0.773400  0.226600  1
  N  N1245  1  0.149400  0.871300  0.852700  1
  N  N1246  1  0.649400  0.852700  0.871300  1
  N  N1247  1  0.850600  0.128700  0.147300  1
  N  N1248  1  0.350600  0.147300  0.128700  1
  N  N1249  1  0.089200  0.887800  0.782200  1
  N  N1250  1  0.589200  0.782200  0.887800  1
  N  N1251  1  0.910800  0.112200  0.217800  1
  N  N1252  1  0.410800  0.217800  0.112200  1
  N  N1253  1  0.510100  0.244300  0.547100  1.0
  N  N1254  1  0.010100  0.547100  0.244300  1.0
  N  N1255  1  0.489900  0.755700  0.452900  1.0
  N  N1256  1  0.989900  0.452900  0.755700  1.0
  N  N1257  1  0.447500  0.343600  0.543600  1.0
  N  N1258  1  0.947500  0.543600  0.343600  1.0
  N  N1259  1  0.552500  0.656400  0.456400  1.0
  N  N1260  1  0.052500  0.456400  0.656400  1.0
  N  N1261  1  0.666100  0.253500  0.691900  1.0
  N  N1262  1  0.166100  0.691900  0.253500  1.0
  N  N1263  1  0.333900  0.746500  0.308100  1.0
  N  N1264  1  0.833900  0.308100  0.746500  1.0
  N  N1265  1  0.670700  0.185400  0.618000  1.0
  N  N1266  1  0.170700  0.618000  0.185400  1.0
  N  N1267  1  0.329300  0.814600  0.382000  1.0
  N  N1268  1  0.829300  0.382000  0.814600  1.0
  N  N1269  1  0.501400  0.372200  0.687400  1.0
  N  N1270  1  0.001400  0.687400  0.372200  1.0
  N  N1271  1  0.498600  0.627800  0.312600  1.0
  N  N1272  1  0.998600  0.312600  0.627800  1.0
  N  N1273  1  0.453200  0.505000  0.620400  1.0
  N  N1274  1  0.953200  0.620400  0.505000  1.0
  N  N1275  1  0.546800  0.495000  0.379600  1.0
  N  N1276  1  0.046800  0.379600  0.495000  1.0
  N  N1277  1  0.362400  0.942100  0.702100  1.0
  N  N1278  1  0.862400  0.702100  0.942100  1.0
  N  N1279  1  0.637600  0.057900  0.297900  1.0
  N  N1280  1  0.137600  0.297900  0.057900  1.0
  N  N1281  1  0.309700  0.929800  0.802800  1.0
  N  N1282  1  0.809700  0.802800  0.929800  1.0
  N  N1283  1  0.690300  0.070200  0.197200  1.0
  N  N1284  1  0.190300  0.197200  0.070200  1.0
  N  N1285  1  0.198300  0.980700  0.660300  1.0
  N  N1286  1  0.698300  0.660300  0.980700  1.0
  N  N1287  1  0.801700  0.019300  0.339700  1.0
  N  N1288  1  0.301700  0.339700  0.019300  1.0
  N  N1289  1  0.313100  0.964800  0.638800  1.0
  N  N1290  1  0.813100  0.638800  0.964800  1.0
  N  N1291  1  0.686900  0.035200  0.361200  1.0
  N  N1292  1  0.186900  0.361200  0.035200  1.0
  N  N1293  1  0.136800  0.878300  0.867300  1.0
  N  N1294  1  0.636800  0.867300  0.878300  1.0
  N  N1295  1  0.863200  0.121700  0.132700  1.0
  N  N1296  1  0.363200  0.132700  0.121700  1.0
  N  N1297  1  0.081100  0.908900  0.794700  1.0
  N  N1298  1  0.581100  0.794700  0.908900  1.0
  N  N1299  1  0.918900  0.091100  0.205300  1.0
  N  N1300  1  0.418900  0.205300  0.091100  1.0
  N  N1301  1  0.553900  0.293200  0.690400  1.0
  N  N1302  1  0.053900  0.690400  0.293200  1.0
  N  N1303  1  0.446100  0.706800  0.309600  1.0
  N  N1304  1  0.946100  0.309600  0.706800  1.0
  N  N1305  1  0.478000  0.339300  0.433500  1.0
  N  N1306  1  0.978000  0.433500  0.339300  1.0
  N  N1307  1  0.522000  0.660700  0.566500  1.0
  N  N1308  1  0.022000  0.566500  0.660700  1.0
  N  N1309  1  0.557000  0.222200  0.613200  1.0
  N  N1310  1  0.057000  0.613200  0.222200  1.0
  N  N1311  1  0.443000  0.777800  0.386800  1.0
  N  N1312  1  0.943000  0.386800  0.777800  1.0
  N  N1313  1  0.216800  0.939200  0.818400  1.0
  N  N1314  1  0.716800  0.818400  0.939200  1.0
  N  N1315  1  0.783200  0.060800  0.181600  1.0
  N  N1316  1  0.283200  0.181600  0.060800  1.0
  N  N1317  1  0.198200  0.943000  0.561400  1.0
  N  N1318  1  0.698200  0.561400  0.943000  1.0
  N  N1319  1  0.801800  0.057000  0.438600  1.0
  N  N1320  1  0.301800  0.438600  0.057000  1.0
  N  N1321  1  0.504100  0.478300  0.698900  1.0
  N  N1322  1  0.004100  0.698900  0.478300  1.0
  N  N1323  1  0.495900  0.521700  0.301100  1.0
  N  N1324  1  0.995900  0.301100  0.521700  1.0
  N  N1325  1  0.154700  0.967500  0.741900  1.0
  N  N1326  1  0.654700  0.741900  0.967500  1.0
  N  N1327  1  0.845300  0.032500  0.258100  1.0
  N  N1328  1  0.345300  0.258100  0.032500  1.0
  N  N1329  1  0.536200  0.247300  0.437900  1.0
  N  N1330  1  0.036200  0.437900  0.247300  1.0
  N  N1331  1  0.463800  0.752700  0.562100  1.0
  N  N1332  1  0.963800  0.562100  0.752700  1.0
  N  N1333  1  0.305500  0.921300  0.541500  1.0
  N  N1334  1  0.805500  0.541500  0.921300  1.0
  N  N1335  1  0.694500  0.078700  0.458500  1.0
  N  N1336  1  0.194500  0.458500  0.078700  1.0
  N  N1337  1  0.448700  0.860600  0.722000  1.0
  N  N1338  1  0.948700  0.722000  0.860600  1.0
  N  N1339  1  0.551300  0.139400  0.278000  1.0
  N  N1340  1  0.051300  0.278000  0.139400  1.0
  N  N1341  1  0.397800  0.847900  0.815700  1.0
  N  N1342  1  0.897800  0.815700  0.847900  1.0
  N  N1343  1  0.602200  0.152100  0.184300  1.0
  N  N1344  1  0.102200  0.184300  0.152100  1.0
  N  N1345  1  0.443200  0.400500  0.606900  1.0
  N  N1346  1  0.943200  0.606900  0.400500  1.0
  N  N1347  1  0.556800  0.599500  0.393100  1.0
  N  N1348  1  0.056800  0.393100  0.599500  1.0
  O  O1349  1  0.988300  0.826900  0.934700  1
  O  O1350  1  0.488300  0.934700  0.826900  1
  O  O1351  1  0.011700  0.173100  0.065300  1
  O  O1352  1  0.511700  0.065300  0.173100  1
  O  O1353  1  0.992700  0.737000  0.954600  1
  O  O1354  1  0.492700  0.954600  0.737000  1
  O  O1355  1  0.007300  0.263000  0.045400  1
  O  O1356  1  0.507300  0.045400  0.263000  1
  O  O1357  1  0.927000  0.801200  0.002400  1
  O  O1358  1  0.427000  0.002400  0.801200  1
  O  O1359  1  0.073000  0.198800  0.997600  1
  O  O1360  1  0.573000  0.997600  0.198800  1
  O  O1361  1  0.663000  0.193400  0.513200  1
  O  O1362  1  0.163000  0.513200  0.193400  1
  O  O1363  1  0.337000  0.806600  0.486800  1
  O  O1364  1  0.837000  0.486800  0.806600  1
  O  O1365  1  0.636000  0.261900  0.461300  1
  O  O1366  1  0.136000  0.461300  0.261900  1
  O  O1367  1  0.364000  0.738100  0.538700  1
  O  O1368  1  0.864000  0.538700  0.738100  1
  O  O1369  1  0.690500  0.185600  0.428000  1
  O  O1370  1  0.190500  0.428000  0.185600  1
  O  O1371  1  0.309500  0.814400  0.572000  1
  O  O1372  1  0.809500  0.572000  0.814400  1
  O  O1373  1  0.586400  0.069000  0.438800  1
  O  O1374  1  0.086400  0.438800  0.069000  1
  O  O1375  1  0.413600  0.931000  0.561200  1
  O  O1376  1  0.913600  0.561200  0.931000  1
  O  O1377  1  0.561900  0.135200  0.383200  1
  O  O1378  1  0.061900  0.383200  0.135200  1
  O  O1379  1  0.438100  0.864800  0.616800  1
  O  O1380  1  0.938100  0.616800  0.864800  1
  O  O1381  1  0.528000  0.143500  0.471700  1
  O  O1382  1  0.028000  0.471700  0.143500  1
  O  O1383  1  0.472000  0.856500  0.528300  1
  O  O1384  1  0.972000  0.528300  0.856500  1
  O  O1385  1  0.304500  0.290100  0.487100  1
  O  O1386  1  0.804500  0.487100  0.290100  1
  O  O1387  1  0.695500  0.709900  0.512900  1
  O  O1388  1  0.195500  0.512900  0.709900  1
  O  O1389  1  0.396200  0.252000  0.481600  1
  O  O1390  1  0.896200  0.481600  0.252000  1
  O  O1391  1  0.603800  0.748000  0.518400  1
  O  O1392  1  0.103800  0.518400  0.748000  1
  O  O1393  1  0.372200  0.317700  0.427500  1
  O  O1394  1  0.872200  0.427500  0.317700  1
  O  O1395  1  0.627800  0.682300  0.572500  1
  O  O1396  1  0.127800  0.572500  0.682300  1
  O  O1397  1  0.137000  0.858200  0.607200  1
  O  O1398  1  0.637000  0.607200  0.858200  1
  O  O1399  1  0.863000  0.141800  0.392800  1
  O  O1400  1  0.363000  0.392800  0.141800  1
  O  O1401  1  0.115800  0.845100  0.698100  1
  O  O1402  1  0.615800  0.698100  0.845100  1
  O  O1403  1  0.884200  0.154900  0.301900  1
  O  O1404  1  0.384200  0.301900  0.154900  1
  O  O1405  1  0.097300  0.922800  0.659800  1
  O  O1406  1  0.597300  0.659800  0.922800  1
  O  O1407  1  0.902700  0.077200  0.340200  1
  O  O1408  1  0.402700  0.340200  0.077200  1
  O  O1409  1  0.824300  0.249100  0.624500  1
  O  O1410  1  0.324300  0.624500  0.249100  1
  O  O1411  1  0.175700  0.750900  0.375500  1
  O  O1412  1  0.675700  0.375500  0.750900  1
  O  O1413  1  0.851200  0.325100  0.643500  1
  O  O1414  1  0.351200  0.643500  0.325100  1
  O  O1415  1  0.148800  0.674900  0.356500  1
  O  O1416  1  0.648800  0.356500  0.674900  1
  O  O1417  1  0.911300  0.262400  0.584800  1
  O  O1418  1  0.411300  0.584800  0.262400  1
  O  O1419  1  0.088700  0.737600  0.415200  1
  O  O1420  1  0.588700  0.415200  0.737600  1
  O  O1421  1  0.595000  0.055700  0.046500  1
  O  O1422  1  0.095000  0.046500  0.055700  1
  O  O1423  1  0.405000  0.944300  0.953500  1
  O  O1424  1  0.905000  0.953500  0.944300  1
  O  O1425  1  0.638900  0.097200  0.098800  1
  O  O1426  1  0.138900  0.098800  0.097200  1
  O  O1427  1  0.361100  0.902800  0.901200  1
  O  O1428  1  0.861100  0.901200  0.902800  1
  O  O1429  1  0.548400  0.106600  0.114200  1
  O  O1430  1  0.048400  0.114200  0.106600  1
  O  O1431  1  0.451600  0.893400  0.885800  1
  O  O1432  1  0.951600  0.885800  0.893400  1
  O  O1433  1  0.695000  0.949400  0.969200  1
  O  O1434  1  0.195000  0.969200  0.949400  1
  O  O1435  1  0.305000  0.050600  0.030800  1
  O  O1436  1  0.805000  0.030800  0.050600  1
  O  O1437  1  0.636700  0.985900  0.916500  1
  O  O1438  1  0.136700  0.916500  0.985900  1
  O  O1439  1  0.363300  0.014100  0.083500  1
  O  O1440  1  0.863300  0.083500  0.014100  1
  O  O1441  1  0.677000  0.899300  0.906500  1
  O  O1442  1  0.177000  0.906500  0.899300  1
  O  O1443  1  0.323000  0.100700  0.093500  1
  O  O1444  1  0.823000  0.093500  0.100700  1
  O  O1445  1  0.594000  0.349700  0.555100  1
  O  O1446  1  0.094000  0.555100  0.349700  1
  O  O1447  1  0.406000  0.650300  0.444900  1
  O  O1448  1  0.906000  0.444900  0.650300  1
  O  O1449  1  0.573900  0.162000  0.733200  1
  O  O1450  1  0.073900  0.733200  0.162000  1
  O  O1451  1  0.426100  0.838000  0.266800  1
  O  O1452  1  0.926100  0.266800  0.838000  1
  O  O1453  1  0.001800  0.002200  0.780600  1
  O  O1454  1  0.501800  0.780600  0.002200  1
  O  O1455  1  0.998200  0.997800  0.219400  1
  O  O1456  1  0.498200  0.219400  0.997800  1
  O  O1457  1  0.106500  0.021500  0.588100  1
  O  O1458  1  0.606500  0.588100  0.021500  1
  O  O1459  1  0.893500  0.978500  0.411900  1
  O  O1460  1  0.393500  0.411900  0.978500  1
  O  O1461  1  0.419000  0.670000  0.783200  1
  O  O1462  1  0.919000  0.783200  0.670000  1
  O  O1463  1  0.581000  0.330000  0.216800  1
  O  O1464  1  0.081000  0.216800  0.330000  1
  O  O1465  1  0.332400  0.536000  0.631200  1
  O  O1466  1  0.832400  0.631200  0.536000  1
  O  O1467  1  0.667600  0.464000  0.368800  1
  O  O1468  1  0.167600  0.368800  0.464000  1
  O  O1469  1  0.410000  0.136800  0.982200  1
  O  O1470  1  0.910000  0.982200  0.136800  1
  O  O1471  1  0.590000  0.863200  0.017800  1
  O  O1472  1  0.090000  0.017800  0.863200  1
  O  O1473  1  0.892200  0.205300  0.719700  1
  O  O1474  1  0.392200  0.719700  0.205300  1
  O  O1475  1  0.107800  0.794700  0.280300  1
  O  O1476  1  0.607800  0.280300  0.794700  1
  O  O1477  1  0.769900  0.076900  0.613700  1
  O  O1478  1  0.269900  0.613700  0.076900  1
  O  O1479  1  0.230100  0.923100  0.386300  1
  O  O1480  1  0.730100  0.386300  0.923100  1
  O  O1481  1  0.570700  0.834900  0.727500  1
  O  O1482  1  0.070700  0.727500  0.834900  1
  O  O1483  1  0.429300  0.165100  0.272500  1
  O  O1484  1  0.929300  0.272500  0.165100  1
  O  O1485  1  0.381500  0.461600  0.730600  1
  O  O1486  1  0.881500  0.730600  0.461600  1
  O  O1487  1  0.618500  0.538400  0.269400  1
  O  O1488  1  0.118500  0.269400  0.538400  1
  O  O1489  1  0.441100  0.519300  0.794900  1
  O  O1490  1  0.941100  0.794900  0.519300  1
  O  O1491  1  0.558900  0.480700  0.205100  1
  O  O1492  1  0.058900  0.205100  0.480700  1
  O  O1493  1  0.620800  0.096000  0.614800  1
  O  O1494  1  0.120800  0.614800  0.096000  1
  O  O1495  1  0.379200  0.904000  0.385200  1
  O  O1496  1  0.879200  0.385200  0.904000  1
  O  O1497  1  0.447600  0.373900  0.304300  1
  O  O1498  1  0.947600  0.304300  0.373900  1
  O  O1499  1  0.552400  0.626100  0.695700  1
  O  O1500  1  0.052400  0.695700  0.626100  1
  O  O1501  1  0.263000  0.847100  0.704300  1
  O  O1502  1  0.763000  0.704300  0.847100  1
  O  O1503  1  0.737000  0.152900  0.295700  1
  O  O1504  1  0.237000  0.295700  0.152900  1
  O  O1505  1  0.534500  0.491100  0.881700  1
  O  O1506  1  0.034500  0.881700  0.491100  1
  O  O1507  1  0.465500  0.508900  0.118300  1
  O  O1508  1  0.965500  0.118300  0.508900  1
  O  O1509  1  0.415200  0.484000  0.528800  1
  O  O1510  1  0.915200  0.528800  0.484000  1
  O  O1511  1  0.584800  0.516000  0.471200  1
  O  O1512  1  0.084800  0.471200  0.516000  1
  O  O1513  1  0.473200  0.440100  0.459900  1
  O  O1514  1  0.973200  0.459900  0.440100  1
  O  O1515  1  0.526800  0.559900  0.540100  1
  O  O1516  1  0.026800  0.540100  0.559900  1
  O  O1517  1  0.435700  0.525300  0.449500  1
  O  O1518  1  0.935700  0.449500  0.525300  1
  O  O1519  1  0.564300  0.474700  0.550500  1
  O  O1520  1  0.064300  0.550500  0.474700  1
  O  O1521  1  0.203500  0.120600  0.527400  1
  O  O1522  1  0.703500  0.527400  0.120600  1
  O  O1523  1  0.796500  0.879400  0.472600  1
  O  O1524  1  0.296500  0.472600  0.879400  1
  O  O1525  1  0.252600  0.050700  0.560900  1
  O  O1526  1  0.752600  0.560900  0.050700  1
  O  O1527  1  0.747400  0.949300  0.439100  1
  O  O1528  1  0.247400  0.439100  0.949300  1
  O  O1529  1  0.206100  0.038400  0.497800  1
  O  O1530  1  0.706100  0.497800  0.038400  1
  O  O1531  1  0.793900  0.961600  0.502200  1
  O  O1532  1  0.293900  0.502200  0.961600  1
  O  O1533  1  0.304800  0.279200  0.409000  1
  O  O1534  1  0.804800  0.409000  0.279200  1
  O  O1535  1  0.695200  0.720800  0.591000  1
  O  O1536  1  0.195200  0.591000  0.720800  1
  O  O1537  1  0.336400  0.301400  0.476800  1
  O  O1538  1  0.836400  0.476800  0.301400  1
  O  O1539  1  0.663600  0.698600  0.523200  1
  O  O1540  1  0.163600  0.523200  0.698600  1
  O  O1541  1  0.388200  0.307900  0.399300  1
  O  O1542  1  0.888200  0.399300  0.307900  1
  O  O1543  1  0.611800  0.692100  0.600700  1
  O  O1544  1  0.111800  0.600700  0.692100  1
  O  O1545  1  0.231200  0.787600  0.831200  1
  O  O1546  1  0.731200  0.831200  0.787600  1
  O  O1547  1  0.768800  0.212400  0.168800  1
  O  O1548  1  0.268800  0.168800  0.212400  1
  O  O1549  1  0.327700  0.776500  0.813900  1
  O  O1550  1  0.827700  0.813900  0.776500  1
  O  O1551  1  0.672300  0.223500  0.186100  1
  O  O1552  1  0.172300  0.186100  0.223500  1
  O  O1553  1  0.275700  0.833700  0.874100  1
  O  O1554  1  0.775700  0.874100  0.833700  1
  O  O1555  1  0.724300  0.166300  0.125900  1
  O  O1556  1  0.224300  0.125900  0.166300  1
  O  O1557  1  0.267800  0.521400  0.588800  1
  O  O1558  1  0.767800  0.588800  0.521400  1
  O  O1559  1  0.732200  0.478600  0.411200  1
  O  O1560  1  0.232200  0.411200  0.478600  1
  O  O1561  1  0.803100  0.146900  0.756700  1
  O  O1562  1  0.303100  0.756700  0.146900  1
  O  O1563  1  0.196900  0.853100  0.243300  1
  O  O1564  1  0.696900  0.243300  0.853100  1
  O  O1565  1  0.710800  0.179600  0.777600  1
  O  O1566  1  0.210800  0.777600  0.179600  1
  O  O1567  1  0.289200  0.820400  0.222400  1
  O  O1568  1  0.789200  0.222400  0.820400  1
  O  O1569  1  0.775000  0.215600  0.809600  1
  O  O1570  1  0.275000  0.809600  0.215600  1
  O  O1571  1  0.225000  0.784400  0.190400  1
  O  O1572  1  0.725000  0.190400  0.784400  1
  Pd  Pd1573  1  0.140300  0.926200  0.799200  1
  Pd  Pd1574  1  0.640300  0.799200  0.926200  1
  Pd  Pd1575  1  0.859700  0.073800  0.200800  1
  Pd  Pd1576  1  0.359700  0.200800  0.073800  1
  Pd  Pd1577  1  0.492520  0.293570  0.491590  1.0
  Pd  Pd1578  1  0.992520  0.491590  0.293570  1.0
  Pd  Pd1579  1  0.507480  0.706430  0.508410  1.0
  Pd  Pd1580  1  0.007480  0.508410  0.706430  1.0
  Pd  Pd1581  1  0.611010  0.238470  0.653550  1.0
  Pd  Pd1582  1  0.111010  0.653550  0.238470  1.0
  Pd  Pd1583  1  0.388990  0.761530  0.346450  1.0
  Pd  Pd1584  1  0.888990  0.346450  0.761530  1.0
  Pd  Pd1585  1  0.477540  0.437320  0.652000  1.0
  Pd  Pd1586  1  0.977540  0.652000  0.437320  1.0
  Pd  Pd1587  1  0.522460  0.562680  0.348000  1.0
  Pd  Pd1588  1  0.022460  0.348000  0.562680  1.0
  Pd  Pd1589  1  0.379280  0.896420  0.760520  1.0
  Pd  Pd1590  1  0.879280  0.760520  0.896420  1.0
  Pd  Pd1591  1  0.620720  0.103580  0.239480  1.0
  Pd  Pd1592  1  0.120720  0.239480  0.103580  1.0
  Pd  Pd1593  1  0.254380  0.952510  0.601970  1.0
  Pd  Pd1594  1  0.754380  0.601970  0.952510  1.0
  Pd  Pd1595  1  0.745620  0.047490  0.398030  1.0
  Pd  Pd1596  1  0.245620  0.398030  0.047490  1.0
  Pd  Pd1597  1  0.152600  0.919590  0.804730  1.0
  Pd  Pd1598  1  0.652600  0.804730  0.919590  1.0
  Pd  Pd1599  1  0.847400  0.080410  0.195270  1.0
  Pd  Pd1600  1  0.347400  0.195270  0.080410  1.0
  S  S1601  1  0.978600  0.793420  0.971180  1
  S  S1602  1  0.478600  0.971180  0.793420  1
  S  S1603  1  0.021400  0.206580  0.028820  1
  S  S1604  1  0.521400  0.028820  0.206580  1
  S  S1605  1  0.674470  0.220110  0.468010  1
  S  S1606  1  0.174470  0.468010  0.220110  1
  S  S1607  1  0.325530  0.779890  0.531990  1
  S  S1608  1  0.825530  0.531990  0.779890  1
  S  S1609  1  0.548920  0.110590  0.430310  1
  S  S1610  1  0.048920  0.430310  0.110590  1
  S  S1611  1  0.451080  0.889410  0.569690  1
  S  S1612  1  0.951080  0.569690  0.889410  1
  S  S1613  1  0.355700  0.277600  0.455800  1
  S  S1614  1  0.855700  0.455800  0.277600  1
  S  S1615  1  0.644300  0.722400  0.544200  1
  S  S1616  1  0.144300  0.544200  0.722400  1
  S  S1617  1  0.103700  0.869200  0.652800  1
  S  S1618  1  0.603700  0.652800  0.869200  1
  S  S1619  1  0.896300  0.130800  0.347200  1
  S  S1620  1  0.396300  0.347200  0.130800  1
  S  S1621  1  0.856300  0.284910  0.605290  1
  S  S1622  1  0.356300  0.605290  0.284910  1
  S  S1623  1  0.143700  0.715090  0.394710  1
  S  S1624  1  0.643700  0.394710  0.715090  1
  S  S1625  1  0.593800  0.097800  0.076000  1
  S  S1626  1  0.093800  0.076000  0.097800  1
  S  S1627  1  0.406200  0.902200  0.924000  1
  S  S1628  1  0.906200  0.924000  0.902200  1
  S  S1629  1  0.680500  0.947700  0.921500  1
  S  S1630  1  0.180500  0.921500  0.947700  1
  S  S1631  1  0.319500  0.052300  0.078500  1
  S  S1632  1  0.819500  0.078500  0.052300  1
  S  S1633  1  0.430460  0.479670  0.476390  1
  S  S1634  1  0.930460  0.476390  0.479670  1
  S  S1635  1  0.569540  0.520330  0.523610  1
  S  S1636  1  0.069540  0.523610  0.520330  1
  S  S1637  1  0.233300  0.071710  0.518010  1
  S  S1638  1  0.733300  0.518010  0.071710  1
  S  S1639  1  0.766700  0.928290  0.481990  1
  S  S1640  1  0.266700  0.481990  0.928290  1
  S  S1641  1  0.352700  0.280100  0.426700  1
  S  S1642  1  0.852700  0.426700  0.280100  1
  S  S1643  1  0.647300  0.719900  0.573300  1
  S  S1644  1  0.147300  0.573300  0.719900  1
  S  S1645  1  0.279100  0.787370  0.847930  1
  S  S1646  1  0.779100  0.847930  0.787370  1
  S  S1647  1  0.720900  0.212630  0.152070  1
  S  S1648  1  0.220900  0.152070  0.212630  1
  S  S1649  1  0.761100  0.170500  0.793900  1
  S  S1650  1  0.261100  0.793900  0.170500  1
  S  S1651  1  0.238900  0.829500  0.206100  1
  S  S1652  1  0.738900  0.206100  0.829500  1
