
#######################################################################
#
#                 Cambridge Crystallographic Data Centre
#                                CCDC 
#
#######################################################################
#
# If this CIF has been generated from an entry in the Cambridge 
# Structural Database, then it will include bibliographic, chemical, 
# crystal, experimental, refinement or atomic coordinate data resulting 
# from the CCDC's data processing and validation procedures.
#
#######################################################################

data_AKECEY
_chemical_formula_moiety         
'C108 H156 N48 Pd12 24+,21(C1 F3 O3 S1 1-),4(B1 F4 1-),16(C3 H6 O1),C16 H36 N1 1+'
_chemical_name_systematic        
"hexakis(\m~4~-5,5'-(p-phenylene)bis(pyrimidine))-dodecakis((tetramethylethylenediamine)-palladium) tetrakis(tetrafluoroborate) icosakis(trifluoromethanesulfonate) tetra-n-butylammonium clathrate acetone solvate"
_symmetry_cell_setting           monoclinic
_symmetry_space_group_name_H-M   'C 2/c'
_symmetry_Int_Tables_number      15
_space_group_name_Hall           '-C 2yn'
loop_
_symmetry_equiv_pos_site_id
_symmetry_equiv_pos_as_xyz
1 x,y,z
2 1/2+x,1/2+y,z
3 x,-y,1/2+z
4 1/2+x,1/2-y,1/2+z
5 -x,-y,-z
6 1/2-x,1/2-y,-z
7 -x,y,1/2-z
8 1/2-x,1/2+y,1/2-z
_cell_length_a                   39.300(6)
_cell_length_b                   37.740(6)
_cell_length_c                   25.965(4)
_cell_angle_alpha                90
_cell_angle_beta                 104.308(3)
_cell_angle_gamma                90
_cell_volume                     37316.3
_exptl_crystal_colour            'light yellow'
_exptl_crystal_description       cubic
_cell_formula_units_Z            4
loop_
_atom_site_label
_atom_site_type_symbol
_atom_site_fract_x
_atom_site_fract_y
_atom_site_fract_z
N27 N 0.0000 0.2266(4) 0.2500
C63 C -0.0059(8) 0.2198(7) 0.3054(8)
H89 H -0.0028 0.2430 0.3235
H90 H -0.0311 0.2138 0.2994
C64 C 0.0112(17) 0.1963(12) 0.3422(15)
C65 C 0.0154(12) 0.1625(10) 0.3688(14)
H91 H 0.0392 0.1528 0.3716
H92 H -0.0023 0.1453 0.3498
C66 C 0.010(2) 0.1707(19) 0.423(2)
H93 H 0.0177 0.1505 0.4462
H94 H -0.0149 0.1753 0.4195
H95 H 0.0238 0.1917 0.4370
C67 C -0.0196(6) 0.2601(7) 0.2256(14)
H97 H -0.0123 0.2648 0.1924
C68 C -0.0552(8) 0.2632(13) 0.2134(17)
C69 C -0.0927(8) 0.2687(9) 0.2060(15)
H98 H -0.0976 0.2699 0.2416
H99 H -0.1050 0.2475 0.1880
C70 C -0.1090(7) 0.3006(7) 0.1753(14)
H100 H -0.1344 0.3003 0.1718
H101 H -0.1043 0.3002 0.1399
H102 H -0.0988 0.3221 0.1941
C63F C 0.0059(8) 0.2198(7) 0.1946(8)
H89F H 0.0028 0.2430 0.1765
H90F H 0.0311 0.2138 0.2006
C64F C -0.0112(17) 0.1963(12) 0.1578(15)
C65F C -0.0154(12) 0.1625(10) 0.1312(14)
H91F H -0.0392 0.1528 0.1284
H92F H 0.0023 0.1453 0.1502
C66F C -0.010(2) 0.1707(19) 0.077(2)
H93F H -0.0177 0.1505 0.0538
H94F H 0.0149 0.1753 0.0805
H95F H -0.0238 0.1917 0.0630
C67F C 0.0196(6) 0.2601(7) 0.2744(14)
H97F H 0.0123 0.2648 0.3076
C68F C 0.0552(8) 0.2632(13) 0.2866(17)
C69F C 0.0927(8) 0.2687(9) 0.2940(15)
H98F H 0.0976 0.2699 0.2584
H99F H 0.1050 0.2475 0.3120
C70F C 0.1090(7) 0.3006(7) 0.3247(14)
H100F H 0.1344 0.3003 0.3282
H101F H 0.1043 0.3002 0.3601
H102F H 0.0988 0.3221 0.3059
S2 S 0.11770(17) -0.08888(16) -0.0214(2)
O4 O 0.1192(5) -0.0539(5) -0.0117(7)
O5 O 0.1542(4) -0.1088(5) -0.0073(7)
O6 O 0.0982(4) -0.1006(4) -0.0730(6)
C80 C 0.0993(6) -0.1090(6) 0.0260(10)
F4 F 0.0655(5) -0.1009(5) 0.0209(8)
F5 F 0.0968(3) -0.1433(4) 0.0180(5)
F6 F 0.1165(3) -0.1023(3) 0.0753(6)
S4 S 0.15594(10) 0.37605(10) 0.67447(14)
O10 O 0.1467(4) 0.3401(3) 0.6630(6)
O11 O 0.1384(3) 0.4003(3) 0.6360(5)
O12 O 0.1932(2) 0.3788(3) 0.6905(5)
C82 C 0.1403(5) 0.3861(5) 0.7309(6)
F10 F 0.1430(4) 0.4186(4) 0.7419(6)
F11 F 0.1532(4) 0.3656(4) 0.7730(6)
F12 F 0.1054(4) 0.3797(5) 0.7152(7)
S5 S 0.22955(9) 0.34014(11) 0.54892(15)
O13 O 0.2461(3) 0.3151(3) 0.5864(5)
O14 O 0.2408(3) 0.3760(3) 0.5619(5)
O15 O 0.1924(2) 0.3359(2) 0.5280(4)
C83 C 0.2483(4) 0.3298(5) 0.4936(7)
F13 F 0.2355(4) 0.3479(4) 0.4502(6)
F14 F 0.2408(3) 0.2974(3) 0.4769(5)
F15 F 0.2829(3) 0.3338(3) 0.5058(4)
S6 S 0.1333(2) 0.4109(2) 0.3557(4)
O16 O 0.1114(5) 0.4015(6) 0.3045(6)
O17 O 0.1332(6) 0.3852(5) 0.3962(7)
O18 O 0.1274(5) 0.4451(4) 0.3722(7)
C84 C 0.1763(4) 0.4088(6) 0.3466(8)
F16 F 0.1799(5) 0.4290(5) 0.3073(7)
F17 F 0.2007(5) 0.4159(6) 0.3909(8)
F18 F 0.1829(8) 0.3763(6) 0.3310(12)
S9 S 0.2390(2) 0.1082(2) 0.1037(3)
O25 O 0.2673(7) 0.1255(9) 0.1370(12)
O26 O 0.2284(7) 0.0735(4) 0.1158(10)
O27 O 0.2087(5) 0.1315(6) 0.0973(11)
C87 C 0.2407(7) 0.1052(6) 0.0368(7)
F25 F 0.2670(7) 0.0892(8) 0.0268(12)
F26 F 0.2083(7) 0.0939(8) 0.0128(10)
F27 F 0.2419(5) 0.1369(5) 0.0145(8)
S10 S 0.0549(2) 0.33981(16) 0.8563(2)
O28 O 0.0632(8) 0.3123(8) 0.8243(12)
O29 O 0.0157(5) 0.3408(5) 0.8512(8)
O30 O 0.0764(4) 0.3388(4) 0.9113(7)
C88 C 0.0591(7) 0.3823(8) 0.8293(11)
F28 F 0.0914(6) 0.3899(7) 0.8310(11)
F29 F 0.0376(7) 0.3866(7) 0.7819(10)
F30 F 0.0488(5) 0.4059(6) 0.8608(8)
S11 S -0.0869(7) 0.0109(6) 0.5938(11)
O31 O -0.0511(8) 0.0046(12) 0.595(2)
O32 O -0.0980(14) -0.0008(12) 0.6389(16)
O33 O -0.1104(12) -0.0038(11) 0.5484(16)
C89 C -0.0948(8) 0.0573(6) 0.5862(13)
F31 F -0.1280(9) 0.0654(11) 0.582(2)
F32 F -0.0849(14) 0.0711(11) 0.5455(17)
F33 F -0.0775(13) 0.0743(10) 0.6292(16)
S12 S 0.0654(7) 0.0131(7) 0.6805(10)
O34 O 0.0407(12) -0.0099(12) 0.695(2)
O35 O 0.0488(15) 0.0347(12) 0.6367(14)
O36 O 0.0971(10) -0.0036(14) 0.677(2)
C90 C 0.0796(8) 0.0439(8) 0.7333(11)
F34 F 0.0804(16) 0.0753(8) 0.7113(19)
F35 F 0.1097(11) 0.0338(14) 0.7652(18)
F36 F 0.0574(13) 0.0464(15) 0.7639(18)
O37 O 0.0476(2) 0.3973(2) 0.5940(3)
C91 C 0.0530(3) 0.4239(3) 0.6224(5)
C92 C 0.0423(5) 0.4249(5) 0.6738(7)
C93 C 0.0714(4) 0.4551(4) 0.6088(6)
O38 O 0.0524(4) 0.2144(4) 0.5739(6)
C94 C 0.0479(6) 0.1905(6) 0.5998(9)
C95 C 0.0136(7) 0.1629(8) 0.5777(11)
C96 C 0.0751(7) 0.1743(7) 0.6436(10)
O39 O 0.1086(7) 0.1108(8) 0.0018(11)
C97 C 0.1084(9) 0.1182(11) -0.0465(13)
C98 C 0.1387(10) 0.1128(12) -0.0708(16)
C99 C 0.0827(10) 0.1433(11) -0.0769(15)
O40 O 0.1952(5) 0.2167(5) 0.1065(8)
C100 C 0.2009(11) 0.2136(7) 0.0557(17)
C101 C 0.2325(11) 0.2274(10) 0.0555(16)
C102 C 0.1727(14) 0.1967(13) 0.012(2)
O41 O 0.2734(14) -0.0566(14) 0.419(2)
C103 C 0.2987(7) -0.0474(7) 0.3835(12)
C104 C 0.2855(12) -0.0605(12) 0.321(2)
C105 C 0.3252(8) -0.0238(8) 0.3836(11)
O42 O -0.0836(4) 0.4524(5) 0.3324(6)
C106 C -0.1002(6) 0.4735(7) 0.2981(10)
C107 C -0.0859(8) 0.4904(9) 0.2555(11)
C108 C -0.1357(7) 0.4846(9) 0.2961(13)
O44 O -0.0595(5) 0.0773(5) 0.4100(8)
C112 C -0.0327(6) 0.0710(6) 0.4466(11)
C113 C -0.0007(7) 0.0545(9) 0.4350(14)
C114 C -0.0297(10) 0.0816(12) 0.5012(12)
O45 O 0.0375(4) 0.2428(5) 0.8922(7)
C115 C 0.0687(6) 0.2375(10) 0.8908(12)
C116 C 0.0998(7) 0.2536(11) 0.9307(14)
C117 C 0.0788(11) 0.2254(15) 0.8435(15)
O46 O 0.1547(7) 0.2316(8) 0.7699(11)
C118 C 0.1667(12) 0.2008(10) 0.7831(18)
C119 C 0.1929(16) 0.1958(17) 0.836(2)
C120 C 0.177(2) 0.1803(18) 0.741(3)
O50 O 0.2188(4) 0.0537(4) 0.5707(7)
C122 C 0.2233(8) 0.0661(7) 0.6170(9)
C123 C 0.2134(8) 0.1036(7) 0.6249(12)
C124 C 0.2467(10) 0.0501(9) 0.6628(11)
O51 O -0.0961(3) 0.3655(3) 0.3815(5)
C125 C -0.1129(5) 0.3642(5) 0.3355(8)
C126 C -0.1015(6) 0.3425(7) 0.2943(10)
C127 C -0.1463(5) 0.3845(5) 0.3153(8)
O52 O -0.1571(5) 0.3622(5) 0.4411(7)
C128 C -0.1693(7) 0.3313(7) 0.4306(10)
C129 C -0.1483(7) 0.3004(7) 0.4357(10)
C130 C -0.2097(8) 0.3294(8) 0.4043(13)
O53 O 0.1446(4) 0.2406(4) 0.6208(5)
C131 C 0.1665(4) 0.2253(5) 0.6024(6)
C132 C 0.1947(6) 0.2449(7) 0.5842(11)
C133 C 0.1676(8) 0.1874(6) 0.5931(13)
O54 O 0.1609(5) 0.5348(6) 0.4476(9)
C134 C 0.1735(7) 0.5282(7) 0.4061(11)
C135 C 0.1591(8) 0.5400(8) 0.3582(13)
C136 C 0.2056(9) 0.5085(9) 0.4247(14)
O55 O 0.2243(2) 0.0714(2) 0.2630(4)
C137 C 0.2515(4) 0.0540(4) 0.2759(6)
C138 C 0.2644(6) 0.0377(6) 0.2362(10)
C139 C 0.2682(5) 0.0464(5) 0.3339(8)
O56 O -0.1864(11) 0.3047(10) 0.5345(15)
C140 C -0.1650(11) 0.3229(9) 0.5689(14)
C141 C -0.1587(14) 0.3112(12) 0.6260(14)
C142 C -0.1649(8) 0.3612(8) 0.5620(12)
B1 B 0.0249(3) 0.3026(3) 0.4075(5)
F40 F 0.0508(2) 0.3139(2) 0.3844(3)
F41 F 0.0293(2) 0.2684(2) 0.4246(3)
F42 F -0.00795(19) 0.3092(2) 0.3767(3)
F43 F 0.0293(2) 0.32450(19) 0.4545(3)
B2 B 0.0976(4) 0.1568(4) 0.2548(6)
F44 F 0.0712(2) 0.1493(3) 0.2122(4)
F45 F 0.1106(2) 0.1918(2) 0.2529(4)
F46 F 0.12623(19) 0.13429(19) 0.2567(3)
F47 F 0.0877(2) 0.1530(2) 0.3029(3)
Pd1 Pd 0.10742(2) 0.40099(2) 0.49252(4)
N1 N 0.1043(2) 0.3486(2) 0.5101(4)
N2 N 0.0564(2) 0.4000(2) 0.4475(4)
Pd2 Pd 0.05399(3) 0.29246(3) 0.61101(4)
N3 N 0.0273(3) 0.2808(3) 0.6661(4)
N4 N 0.0983(3) 0.2837(3) 0.6707(4)
C1 C 0.0575(7) 0.2677(10) 0.7146(10)
H1 H 0.0488 0.2687 0.7472
H2 H 0.0628 0.2426 0.7086
C2 C 0.0912(7) 0.2886(10) 0.7238(10)
H3 H 0.0877 0.3139 0.7315
H4 H 0.1100 0.2784 0.7526
Pd3 Pd -0.04466(2) 0.39266(2) 0.47754(4)
N5 N -0.0298(3) 0.3424(3) 0.5014(4)
N6 N -0.0627(3) 0.4423(3) 0.4532(4)
Pd4 Pd 0.17153(3) 0.06795(3) 0.37928(4)
N7 N 0.1779(2) 0.1200(2) 0.3624(4)
N8 N 0.1337(3) 0.0635(3) 0.3097(5)
Pd5 Pd 0.22276(2) 0.17527(3) 0.25438(4)
N9 N 0.1795(3) 0.1602(3) 0.1983(4)
N10 N 0.1982(2) 0.1630(3) 0.3131(4)
Pd6 Pd 0.13784(16) 0.05743(17) 0.1526(3)
N11 N 0.1272(6) 0.0055(4) 0.1368(9)
H9 H 0.1446 -0.0084 0.1574
N12 N 0.1482(6) 0.0571(5) 0.0811(7)
H11 H 0.1314 0.0703 0.0581
H12 H 0.1696 0.0679 0.0836
C5 C 0.1255(10) 0.0002(10) 0.0785(15)
H13 H 0.1304 -0.0250 0.0727
H14 H 0.1013 0.0053 0.0577
C6 C 0.1491(8) 0.0213(8) 0.0588(13)
H15 H 0.1419 0.0222 0.0195
H16 H 0.1731 0.0114 0.0697
N15 N 0.0082(3) 0.3014(3) 0.5539(4)
N16 N 0.1136(3) 0.4529(3) 0.4780(4)
H25 H 0.1164 0.4557 0.4441
H26 H 0.0941 0.4654 0.4808
N17 N 0.0823(2) 0.3045(2) 0.5570(4)
N18 N 0.1212(3) 0.0604(2) 0.2168(4)
N19 N 0.2478(3) 0.1908(3) 0.1982(5)
H27 H 0.2461 0.1734 0.1728
H28 H 0.2378 0.2112 0.1818
N20 N -0.0886(3) 0.3897(3) 0.5041(4)
H29 H -0.1051 0.3757 0.4820
H30 H -0.0836 0.3802 0.5378
N21 N 0.1453(3) 0.1128(3) 0.1547(4)
N22 N 0.1574(3) 0.4047(3) 0.5362(5)
H31 H 0.1579 0.4042 0.5718
H32 H 0.1703 0.3858 0.5289
N23 N 0.2686(3) 0.1899(3) 0.3055(5)
H33 H 0.2641 0.2011 0.3345
H34 H 0.2820 0.1701 0.3172
N24 N 0.2087(3) 0.0693(4) 0.4487(5)
H35 H 0.2267 0.0841 0.4458
H36 H 0.1992 0.0777 0.4754
N25 N 0.1682(3) 0.0161(3) 0.3978(5)
H37 H 0.1452 0.0103 0.3957
H38 H 0.1760 0.0023 0.3738
N26 N -0.0037(3) 0.3968(2) 0.4432(3)
C9 C 0.1109(3) 0.2879(3) 0.4909(4)
C10 C 0.1153(3) 0.3232(3) 0.4815(5)
H39 H 0.1264 0.3299 0.4543
C11 C 0.0880(3) 0.3376(3) 0.5471(4)
H40 H 0.0799 0.3552 0.5675
C12 C 0.0933(3) 0.2796(3) 0.5295(5)
H41 H 0.0891 0.2555 0.5361
C13 C 0.1656(3) 0.1806(3) 0.3738(4)
C14 C 0.1243(3) 0.1716(3) 0.1367(5)
C15 C 0.0742(3) 0.0663(3) 0.2597(6)
C16 C -0.0104(3) 0.3925(3) 0.3893(4)
H42 H -0.0340 0.3903 0.3691
C17 C 0.1237(3) 0.2601(3) 0.4596(5)
C18 C 0.1509(3) 0.2090(3) 0.4032(5)
C19 C 0.1697(3) 0.2399(3) 0.4175(5)
H43 H 0.1914 0.2437 0.4086
C20 C -0.0459(3) 0.3148(3) 0.4719(5)
H44 H -0.0646 0.3198 0.4419
C21 C 0.0989(3) 0.0671(3) 0.3073(6)
H45 H 0.0915 0.0701 0.3393
C22 C 0.0300(3) 0.4012(3) 0.4706(5)
H46 H 0.0348 0.4054 0.5078
C23 C 0.1429(3) 0.0599(3) 0.2648(5)
H47 H 0.1671 0.0567 0.2668
C24 C -0.0035(3) 0.3336(3) 0.5418(5)
H48 H 0.0080 0.3523 0.5639
C25 C 0.1837(3) 0.1889(3) 0.3368(5)
H49 H 0.1862 0.2130 0.3276
C26 C -0.0369(3) 0.2804(3) 0.4828(5)
C27 C 0.1055(3) 0.2288(3) 0.4442(5)
H50 H 0.0837 0.2249 0.4528
C28 C 0.1191(3) 0.2032(3) 0.4163(5)
H51 H 0.1065 0.1818 0.4061
C29 C 0.1549(3) 0.1828(3) 0.1733(5)
H52 H 0.1582 0.2074 0.1805
C30 C 0.1630(3) 0.1458(4) 0.3853(5)
H53 H 0.1503 0.1394 0.4106
C31 C 0.0496(3) 0.3945(3) 0.3942(4)
H54 H 0.0687 0.3929 0.3779
C32 C 0.1743(4) 0.1249(3) 0.1865(6)
H55 H 0.1924 0.1085 0.2018
C33 C 0.1556(3) 0.2653(3) 0.4456(5)
H56 H 0.1680 0.2868 0.4555
C34 C 0.0163(4) 0.3914(3) 0.3636(4)
C35 C -0.0562(3) 0.2509(4) 0.4492(5)
C36 C -0.0607(4) 0.2192(4) 0.4737(6)
H57 H -0.0489 0.2153 0.5098
C37 C 0.0866(3) 0.0636(3) 0.2148(6)
H58 H 0.0703 0.0640 0.1810
C38 C 0.0993(3) 0.1981(3) 0.1079(5)
C39 C 0.1731(3) 0.4400(4) 0.5220(7)
H59 H 0.1941 0.4467 0.5503
H60 H 0.1801 0.4377 0.4880
C40 C 0.2224(6) 0.0315(5) 0.4614(8)
H61 H 0.2376 0.0243 0.4380
H62 H 0.2359 0.0295 0.4990
C41 C -0.0080(3) 0.2745(3) 0.5241(5)
H63 H 0.0006 0.2510 0.5316
C42 C -0.1019(4) 0.4262(4) 0.5047(7)
H64 H -0.0882 0.4389 0.5365
H65 H -0.1268 0.4257 0.5064
C43 C 0.1948(3) 0.1295(3) 0.3283(5)
H66 H 0.2057 0.1114 0.3127
C44 C 0.1213(3) 0.1365(3) 0.1280(5)
H67 H 0.1015 0.1279 0.1022
C45 C -0.0717(3) 0.2557(4) 0.3967(5)
H68 H -0.0681 0.2773 0.3800
C46 C -0.0988(4) 0.4451(3) 0.4555(6)
H69 H -0.1144 0.4341 0.4237
H70 H -0.1056 0.4703 0.4569
C47 C 0.1453(3) 0.4662(3) 0.5176(6)
H71 H 0.1528 0.4892 0.5058
H72 H 0.1399 0.4697 0.5525
C48 C -0.0826(4) 0.1931(4) 0.4454(6)
H73 H -0.0861 0.1717 0.4627
C49 C 0.2874(4) 0.2133(5) 0.2789(7)
H74 H 0.3123 0.2152 0.2989
H75 H 0.2768 0.2372 0.2753
C50 C 0.0929(4) 0.2292(3) 0.1330(6)
H76 H 0.1028 0.2325 0.1700
C51 C 0.2846(4) 0.1970(5) 0.2252(8)
H77 H 0.2953 0.2130 0.2034
H78 H 0.2976 0.1743 0.2293
C52 C 0.1894(5) 0.0090(5) 0.4511(8)
H79 H 0.1958 -0.0164 0.4547
H80 H 0.1758 0.0148 0.4775
C53 C 0.0080(4) 0.3891(3) 0.3049(5)
C54 C 0.0213(7) 0.3703(7) 0.2802(8)
C55 C -0.0143(6) 0.3684(7) 0.2767(9)
H82 H -0.0263 0.3516 0.2931
C56 C -0.0252(7) 0.4066(8) 0.2757(9)
H83 H -0.0401 0.4176 0.2947
C57 C 0.0342(7) 0.4067(7) 0.2799(9)
H84 H 0.0553 0.4170 0.3003
C58 C 0.0362(3) 0.0682(3) 0.2542(6)
C59 C 0.0241(6) 0.0855(7) 0.2922(12)
H85 H 0.0399 0.0966 0.3213
C60 C 0.0151(7) 0.0517(7) 0.2120(11)
H86 H 0.0243 0.0411 0.1850
C61 C 0.0225(6) 0.0511(7) 0.2902(15)
H87 H 0.0379 0.0382 0.3178
C62 C 0.0138(6) 0.0866(7) 0.2126(10)
H88 H 0.0230 0.0997 0.1878
C54F C -0.0213(7) 0.3703(7) 0.2198(8)
C53F C -0.0080(4) 0.3891(3) 0.1951(5)
C34F C -0.0163(4) 0.3914(3) 0.1364(4)
C16F C 0.0104(3) 0.3925(3) 0.1107(4)
N26F N 0.0037(3) 0.3968(2) 0.0568(3)
Pd3F Pd 0.04466(2) 0.39266(2) 0.02246(4)
N5F N 0.0298(3) 0.3424(3) -0.0014(4)
C20F C 0.0459(3) 0.3148(3) 0.0281(5)
H44F H 0.0646 0.3198 0.0581
C26F C 0.0369(3) 0.2804(3) 0.0172(5)
C35F C 0.0562(3) 0.2509(4) 0.0508(5)
C36F C 0.0607(4) 0.2192(4) 0.0263(6)
H57F H 0.0489 0.2153 -0.0098
C48F C 0.0826(4) 0.1931(4) 0.0546(6)
C61F C -0.0225(6) 0.0511(7) 0.2098(15)
C58F C -0.0362(3) 0.0682(3) 0.2458(6)
C15F C -0.0742(3) 0.0663(3) 0.2403(6)
C21F C -0.0989(3) 0.0671(3) 0.1927(6)
N8F N -0.1337(3) 0.0635(3) 0.1903(5)
Pd4F Pd -0.17153(3) 0.06795(3) 0.12072(4)
N7F N -0.1779(2) 0.1200(2) 0.1376(4)
C30F C -0.1630(3) 0.1458(4) 0.1147(5)
C13F C -0.1656(3) 0.1806(3) 0.1262(4)
C18F C -0.1509(3) 0.2090(3) 0.0968(5)
C19F C -0.1697(3) 0.2399(3) 0.0825(5)
H43F H -0.1914 0.2437 0.0914
C33F C -0.1556(3) 0.2653(3) 0.0544(5)
C17F C -0.1237(3) 0.2601(3) 0.0404(5)
C9F C -0.1109(3) 0.2879(3) 0.0091(4)
C10F C -0.1153(3) 0.3232(3) 0.0185(5)
N1F N -0.1043(2) 0.3486(2) -0.0101(4)
Pd1F Pd -0.10742(2) 0.40099(2) 0.00748(4)
N2F N -0.0564(2) 0.4000(2) 0.0525(4)
C22F C -0.0300(3) 0.4012(3) 0.0294(5)
H46F H -0.0348 0.4054 -0.0078
C31F C -0.0496(3) 0.3945(3) 0.1058(4)
H54F H -0.0687 0.3929 0.1221
N16F N -0.1136(3) 0.4529(3) 0.0220(4)
H25F H -0.1164 0.4557 0.0559
H26F H -0.0941 0.4654 0.0192
C47F C -0.1453(3) 0.4662(3) -0.0176(6)
C39F C -0.1731(3) 0.4400(4) -0.0220(7)
N22F N -0.1574(3) 0.4047(3) -0.0362(5)
H31F H -0.1579 0.4042 -0.0718
H32F H -0.1703 0.3858 -0.0289
H59F H -0.1941 0.4467 -0.0503
H60F H -0.1801 0.4377 0.0120
H71F H -0.1528 0.4892 -0.0058
H72F H -0.1399 0.4697 -0.0525
C11F C -0.0880(3) 0.3376(3) -0.0471(4)
N17F N -0.0823(2) 0.3045(2) -0.0570(4)
Pd2F Pd -0.05399(3) 0.29246(3) -0.11101(4)
N3F N -0.0273(3) 0.2808(3) -0.1661(4)
C1F C -0.0575(7) 0.2677(10) -0.2146(10)
H1F H -0.0488 0.2687 -0.2472
H2F H -0.0628 0.2426 -0.2086
C2F C -0.0912(7) 0.2886(10) -0.2238(10)
N4F N -0.0983(3) 0.2837(3) -0.1707(4)
N15F N -0.0082(3) 0.3014(3) -0.0539(4)
C24F C 0.0035(3) 0.3336(3) -0.0418(5)
H48F H -0.0080 0.3523 -0.0639
C41F C 0.0080(3) 0.2745(3) -0.0241(5)
H63F H -0.0006 0.2510 -0.0316
H3F H -0.0877 0.3139 -0.2315
H4F H -0.1100 0.2784 -0.2526
C12F C -0.0933(3) 0.2796(3) -0.0295(5)
H41F H -0.0891 0.2555 -0.0361
H40F H -0.0799 0.3552 -0.0675
H39F H -0.1264 0.3299 0.0457
C27F C -0.1055(3) 0.2288(3) 0.0558(5)
H50F H -0.0837 0.2249 0.0472
C28F C -0.1191(3) 0.2032(3) 0.0837(5)
H51F H -0.1065 0.1818 0.0939
H56F H -0.1680 0.2868 0.0445
C25F C -0.1837(3) 0.1889(3) 0.1632(5)
N10F N -0.1982(2) 0.1630(3) 0.1869(4)
Pd5F Pd -0.22276(2) 0.17527(3) 0.24562(4)
N9F N -0.1795(3) 0.1602(3) 0.3017(4)
C29F C -0.1549(3) 0.1828(3) 0.3267(5)
C14F C -0.1243(3) 0.1716(3) 0.3633(5)
C38F C -0.0993(3) 0.1981(3) 0.3921(5)
C50F C -0.0929(4) 0.2292(3) 0.3670(6)
H76F H -0.1028 0.2325 0.3300
C44F C -0.1213(3) 0.1365(3) 0.3720(5)
N21F N -0.1453(3) 0.1128(3) 0.3453(4)
Pd6F Pd -0.13784(16) 0.05743(17) 0.3474(3)
N11F N -0.1272(6) 0.0055(4) 0.3632(9)
H9F H -0.1446 -0.0084 0.3426
C5F C -0.1255(10) 0.0002(10) 0.4215(15)
H13F H -0.1304 -0.0250 0.4273
H14F H -0.1013 0.0053 0.4423
C6F C -0.1491(8) 0.0213(8) 0.4412(13)
N12F N -0.1482(6) 0.0571(5) 0.4189(7)
N18F N -0.1212(3) 0.0604(2) 0.2832(4)
C23F C -0.1429(3) 0.0599(3) 0.2352(5)
H47F H -0.1671 0.0567 0.2332
C37F C -0.0866(3) 0.0636(3) 0.2852(6)
H58F H -0.0703 0.0640 0.3190
H11F H -0.1314 0.0703 0.4419
H12F H -0.1696 0.0679 0.4164
H15F H -0.1419 0.0222 0.4805
H16F H -0.1731 0.0114 0.4303
C32F C -0.1743(4) 0.1249(3) 0.3135(6)
H55F H -0.1924 0.1085 0.2982
H67F H -0.1015 0.1279 0.3978
H52F H -0.1582 0.2074 0.3195
N19F N -0.2478(3) 0.1908(3) 0.3018(5)
H27F H -0.2461 0.1734 0.3272
H28F H -0.2378 0.2112 0.3182
C51F C -0.2846(4) 0.1970(5) 0.2748(8)
C49F C -0.2874(4) 0.2133(5) 0.2211(7)
N23F N -0.2686(3) 0.1899(3) 0.1945(5)
H33F H -0.2641 0.2011 0.1655
H34F H -0.2820 0.1701 0.1828
H74F H -0.3123 0.2152 0.2011
H75F H -0.2768 0.2372 0.2247
H77F H -0.2953 0.2130 0.2966
H78F H -0.2976 0.1743 0.2707
C43F C -0.1948(3) 0.1295(3) 0.1717(5)
H66F H -0.2057 0.1114 0.1873
H49F H -0.1862 0.2130 0.1724
H53F H -0.1503 0.1394 0.0894
N24F N -0.2087(3) 0.0693(4) 0.0513(5)
H35F H -0.2267 0.0841 0.0542
H36F H -0.1992 0.0777 0.0246
C40F C -0.2224(6) 0.0315(5) 0.0386(8)
H61F H -0.2376 0.0243 0.0620
H62F H -0.2359 0.0295 0.0010
C52F C -0.1894(5) 0.0090(5) 0.0489(8)
N25F N -0.1682(3) 0.0161(3) 0.1022(5)
H37F H -0.1452 0.0103 0.1043
H38F H -0.1760 0.0023 0.1262
H79F H -0.1958 -0.0164 0.0453
H80F H -0.1758 0.0148 0.0225
H45F H -0.0915 0.0701 0.1607
C59F C -0.0241(6) 0.0855(7) 0.2078(12)
H85F H -0.0399 0.0966 0.1787
H87F H -0.0379 0.0382 0.1822
C60F C -0.0151(7) 0.0517(7) 0.2880(11)
H86F H -0.0243 0.0411 0.3150
C62F C -0.0138(6) 0.0866(7) 0.2874(10)
H88F H -0.0230 0.0997 0.3122
C45F C 0.0717(3) 0.2557(4) 0.1033(5)
H68F H 0.0681 0.2773 0.1200
H73F H 0.0861 0.1717 0.0373
N6F N 0.0627(3) 0.4423(3) 0.0468(4)
C46F C 0.0988(4) 0.4451(3) 0.0445(6)
C42F C 0.1019(4) 0.4262(4) -0.0047(7)
N20F N 0.0886(3) 0.3897(3) -0.0041(4)
H29F H 0.1051 0.3757 0.0180
H30F H 0.0836 0.3802 -0.0378
H64F H 0.0882 0.4389 -0.0365
H65F H 0.1268 0.4257 -0.0064
H69F H 0.1144 0.4341 0.0763
H70F H 0.1056 0.4703 0.0431
H42F H 0.0340 0.3903 0.1309
C55F C 0.0143(6) 0.3684(7) 0.2233(9)
C57F C -0.0342(7) 0.4067(7) 0.2201(9)
C56F C 0.0252(7) 0.4066(8) 0.2243(9)
H83F H 0.0401 0.4176 0.2053
H82F H 0.0263 0.3516 0.2069
H84F H -0.0553 0.4170 0.1997
loop_
_geom_bond_atom_site_label_1
_geom_bond_atom_site_label_2
_geom_bond_site_symmetry_1
_geom_bond_site_symmetry_2
Pd1 N1 1_555 1_555
N1 C10 1_555 1_555
N2 Pd1 1_555 1_555
Pd2 N3 1_555 1_555
N3 C1 1_555 1_555
N4 Pd2 1_555 1_555
C1 H1 1_555 1_555
H2 C1 1_555 1_555
C2 N4 1_555 1_555
H3 C2 1_555 1_555
H4 C2 1_555 1_555
Pd3 N5 1_555 1_555
N5 C20 1_555 1_555
N6 Pd3 1_555 1_555
Pd4 N7 1_555 1_555
N7 C30 1_555 1_555
N8 Pd4 1_555 1_555
Pd5 N9 1_555 1_555
N9 C29 1_555 1_555
N10 Pd5 1_555 1_555
Pd6 N11 1_555 1_555
N11 H9 1_555 1_555
N12 Pd6 1_555 1_555
H11 N12 1_555 1_555
H12 N12 1_555 1_555
C5 N11 1_555 1_555
H13 C5 1_555 1_555
H14 C5 1_555 1_555
C6 N12 1_555 1_555
H15 C6 1_555 1_555
H16 C6 1_555 1_555
N15 Pd2 1_555 1_555
N16 Pd1 1_555 1_555
H25 N16 1_555 1_555
H26 N16 1_555 1_555
N17 Pd2 1_555 1_555
N18 Pd6 1_555 1_555
N19 Pd5 1_555 1_555
H27 N19 1_555 1_555
H28 N19 1_555 1_555
N20 Pd3 1_555 1_555
H29 N20 1_555 1_555
H30 N20 1_555 1_555
N21 Pd6 1_555 1_555
N22 Pd1 1_555 1_555
H31 N22 1_555 1_555
H32 N22 1_555 1_555
N23 Pd5 1_555 1_555
H33 N23 1_555 1_555
H34 N23 1_555 1_555
N24 Pd4 1_555 1_555
H35 N24 1_555 1_555
H36 N24 1_555 1_555
N25 Pd4 1_555 1_555
H37 N25 1_555 1_555
H38 N25 1_555 1_555
N26 Pd3 1_555 1_555
C9 C10 1_555 1_555
C10 H39 1_555 1_555
C11 N1 1_555 1_555
H40 C11 1_555 1_555
C12 N17 1_555 1_555
H41 C12 1_555 1_555
C13 C18 1_555 1_555
C14 C29 1_555 1_555
C15 C21 1_555 1_555
C16 N26 1_555 1_555
H42 C16 1_555 1_555
C17 C9 1_555 1_555
C18 C19 1_555 1_555
C19 H43 1_555 1_555
C20 H44 1_555 1_555
C21 N8 1_555 1_555
H45 C21 1_555 1_555
C22 N2 1_555 1_555
H46 C22 1_555 1_555
C23 N8 1_555 1_555
H47 C23 1_555 1_555
C24 N5 1_555 1_555
H48 C24 1_555 1_555
C25 N10 1_555 1_555
H49 C25 1_555 1_555
C26 C20 1_555 1_555
C27 C17 1_555 1_555
H50 C27 1_555 1_555
C28 C18 1_555 1_555
H51 C28 1_555 1_555
C29 H52 1_555 1_555
C30 C13 1_555 1_555
H53 C30 1_555 1_555
C31 N2 1_555 1_555
H54 C31 1_555 1_555
C32 N9 1_555 1_555
H55 C32 1_555 1_555
C33 C17 1_555 1_555
H56 C33 1_555 1_555
C34 C16 1_555 1_555
C35 C26 1_555 1_555
C36 C35 1_555 1_555
H57 C36 1_555 1_555
C37 N18 1_555 1_555
H58 C37 1_555 1_555
C38 C14 1_555 1_555
C39 N22 1_555 1_555
H59 C39 1_555 1_555
H60 C39 1_555 1_555
C40 N24 1_555 1_555
H61 C40 1_555 1_555
H62 C40 1_555 1_555
C41 N15 1_555 1_555
H63 C41 1_555 1_555
C42 N20 1_555 1_555
H64 C42 1_555 1_555
H65 C42 1_555 1_555
C43 N7 1_555 1_555
H66 C43 1_555 1_555
C44 N21 1_555 1_555
H67 C44 1_555 1_555
C45 C35 1_555 1_555
H68 C45 1_555 1_555
C46 N6 1_555 1_555
H69 C46 1_555 1_555
H70 C46 1_555 1_555
C47 N16 1_555 1_555
H71 C47 1_555 1_555
H72 C47 1_555 1_555
C48 C36 1_555 1_555
H73 C48 1_555 1_555
C49 N23 1_555 1_555
H74 C49 1_555 1_555
H75 C49 1_555 1_555
C50 C38 1_555 1_555
H76 C50 1_555 1_555
C51 N19 1_555 1_555
H77 C51 1_555 1_555
H78 C51 1_555 1_555
C52 N25 1_555 1_555
H79 C52 1_555 1_555
H80 C52 1_555 1_555
C53 C34 1_555 1_555
C54 C53 1_555 1_555
C55 C53 1_555 1_555
H82 C55 1_555 1_555
C56 C53 1_555 1_555
H83 C56 1_555 1_555
C57 C53 1_555 1_555
H84 C57 1_555 1_555
C58 C15 1_555 1_555
C59 C58 1_555 1_555
H85 C59 1_555 1_555
C60 C58 1_555 1_555
H86 C60 1_555 1_555
C61 C58 1_555 1_555
H87 C61 1_555 1_555
C62 C58 1_555 1_555
H88 C62 1_555 1_555
N27 C63 1_555 1_555
C63 H89 1_555 1_555
H90 C63 1_555 1_555
C64 C63 1_555 1_555
C65 C64 1_555 1_555
H91 C65 1_555 1_555
H92 C65 1_555 1_555
C66 C65 1_555 1_555
H93 C66 1_555 1_555
H94 C66 1_555 1_555
H95 C66 1_555 1_555
C67 N27 1_555 1_555
H97 C67 1_555 1_555
C68 C67 1_555 1_555
C69 C68 1_555 1_555
H98 C69 1_555 1_555
H99 C69 1_555 1_555
C70 C69 1_555 1_555
H100 C70 1_555 1_555
H101 C70 1_555 1_555
H102 C70 1_555 1_555
S2 O4 1_555 1_555
O5 S2 1_555 1_555
O6 S2 1_555 1_555
C80 S2 1_555 1_555
F4 C80 1_555 1_555
F5 C80 1_555 1_555
F6 C80 1_555 1_555
S4 O10 1_555 1_555
O11 S4 1_555 1_555
O12 S4 1_555 1_555
C82 S4 1_555 1_555
F10 C82 1_555 1_555
F11 C82 1_555 1_555
F12 C82 1_555 1_555
S5 O13 1_555 1_555
O14 S5 1_555 1_555
O15 S5 1_555 1_555
C83 S5 1_555 1_555
F13 C83 1_555 1_555
F14 C83 1_555 1_555
F15 C83 1_555 1_555
S6 O16 1_555 1_555
O17 S6 1_555 1_555
O18 S6 1_555 1_555
C84 S6 1_555 1_555
F16 C84 1_555 1_555
F17 C84 1_555 1_555
F18 C84 1_555 1_555
S9 O25 1_555 1_555
O26 S9 1_555 1_555
O27 S9 1_555 1_555
C87 S9 1_555 1_555
F25 C87 1_555 1_555
F26 C87 1_555 1_555
F27 C87 1_555 1_555
S10 O28 1_555 1_555
O29 S10 1_555 1_555
O30 S10 1_555 1_555
C88 S10 1_555 1_555
F28 C88 1_555 1_555
F29 C88 1_555 1_555
F30 C88 1_555 1_555
S11 O31 1_555 1_555
O32 S11 1_555 1_555
O33 S11 1_555 1_555
C89 S11 1_555 1_555
F31 C89 1_555 1_555
F32 C89 1_555 1_555
F33 C89 1_555 1_555
S12 O34 1_555 1_555
O35 S12 1_555 1_555
O36 S12 1_555 1_555
C90 S12 1_555 1_555
F34 C90 1_555 1_555
F35 C90 1_555 1_555
F36 C90 1_555 1_555
O37 C91 1_555 1_555
C91 C92 1_555 1_555
C93 C91 1_555 1_555
O38 C94 1_555 1_555
C94 C95 1_555 1_555
C96 C94 1_555 1_555
O39 C97 1_555 1_555
C97 C98 1_555 1_555
C99 C97 1_555 1_555
O40 C100 1_555 1_555
C100 C101 1_555 1_555
C102 C100 1_555 1_555
O41 C103 1_555 1_555
C103 C104 1_555 1_555
C105 C103 1_555 1_555
O42 C106 1_555 1_555
C106 C107 1_555 1_555
C108 C106 1_555 1_555
O44 C112 1_555 1_555
C112 C113 1_555 1_555
C114 C112 1_555 1_555
O45 C115 1_555 1_555
C115 C116 1_555 1_555
C117 C115 1_555 1_555
O46 C118 1_555 1_555
C118 C119 1_555 1_555
C120 C118 1_555 1_555
O50 C122 1_555 1_555
C122 C123 1_555 1_555
C124 C122 1_555 1_555
O51 C125 1_555 1_555
C125 C126 1_555 1_555
C127 C125 1_555 1_555
O52 C128 1_555 1_555
C128 C129 1_555 1_555
C130 C128 1_555 1_555
O53 C131 1_555 1_555
C131 C132 1_555 1_555
C133 C131 1_555 1_555
O54 C134 1_555 1_555
C134 C135 1_555 1_555
C136 C134 1_555 1_555
O55 C137 1_555 1_555
C137 C138 1_555 1_555
C139 C137 1_555 1_555
O56 C140 1_555 1_555
C140 C141 1_555 1_555
C142 C140 1_555 1_555
B1 F40 1_555 1_555
F41 B1 1_555 1_555
F42 B1 1_555 1_555
F43 B1 1_555 1_555
B2 F44 1_555 1_555
F45 B2 1_555 1_555
F46 B2 1_555 1_555
F47 B2 1_555 1_555
C54F C55 1_555 1_555
C53F C54F 1_555 1_555
C34F C53F 1_555 1_555
C16F C34F 1_555 1_555
N26F C16F 1_555 1_555
Pd3F N26F 1_555 1_555
N5F Pd3F 1_555 1_555
C20F N5F 1_555 1_555
H44F C20F 1_555 1_555
C26F C20F 1_555 1_555
C35F C26F 1_555 1_555
C36F C35F 1_555 1_555
H57F C36F 1_555 1_555
C48F C38 1_555 1_555
C61F C60 1_555 1_555
C58F C61F 1_555 1_555
C15F C58F 1_555 1_555
C21F C15F 1_555 1_555
N8F C21F 1_555 1_555
Pd4F N8F 1_555 1_555
N7F Pd4F 1_555 1_555
C30F N7F 1_555 1_555
C13F C30F 1_555 1_555
C18F C13F 1_555 1_555
C19F C18F 1_555 1_555
H43F C19F 1_555 1_555
C33F C19F 1_555 1_555
C17F C33F 1_555 1_555
C9F C17F 1_555 1_555
C10F C9F 1_555 1_555
N1F C10F 1_555 1_555
Pd1F N1F 1_555 1_555
N2F Pd1F 1_555 1_555
C22F N26F 1_555 1_555
H46F C22F 1_555 1_555
C31F C34F 1_555 1_555
H54F C31F 1_555 1_555
N16F Pd1F 1_555 1_555
H25F N16F 1_555 1_555
H26F N16F 1_555 1_555
C47F N16F 1_555 1_555
C39F C47F 1_555 1_555
N22F Pd1F 1_555 1_555
H31F N22F 1_555 1_555
H32F N22F 1_555 1_555
H59F C39F 1_555 1_555
H60F C39F 1_555 1_555
H71F C47F 1_555 1_555
H72F C47F 1_555 1_555
C11F N1F 1_555 1_555
N17F C11F 1_555 1_555
Pd2F N17F 1_555 1_555
N3F Pd2F 1_555 1_555
C1F N3F 1_555 1_555
H1F C1F 1_555 1_555
H2F C1F 1_555 1_555
C2F C1F 1_555 1_555
N4F Pd2F 1_555 1_555
N15F Pd2F 1_555 1_555
C24F N5F 1_555 1_555
H48F C24F 1_555 1_555
C41F C26F 1_555 1_555
H63F C41F 1_555 1_555
H3F C2F 1_555 1_555
H4F C2F 1_555 1_555
C12F C9F 1_555 1_555
H41F C12F 1_555 1_555
H40F C11F 1_555 1_555
H39F C10F 1_555 1_555
C27F C17F 1_555 1_555
H50F C27F 1_555 1_555
C28F C18F 1_555 1_555
H51F C28F 1_555 1_555
H56F C33F 1_555 1_555
C25F C13F 1_555 1_555
N10F C25F 1_555 1_555
Pd5F N10F 1_555 1_555
N9F Pd5F 1_555 1_555
C29F N9F 1_555 1_555
C14F C29F 1_555 1_555
C38F C48 1_555 1_555
C50F C45 1_555 1_555
H76F C50F 1_555 1_555
C44F C14F 1_555 1_555
N21F C44F 1_555 1_555
Pd6F N21F 1_555 1_555
N11F Pd6F 1_555 1_555
H9F N11F 1_555 1_555
C5F N11F 1_555 1_555
H13F C5F 1_555 1_555
H14F C5F 1_555 1_555
C6F C5F 1_555 1_555
N12F Pd6F 1_555 1_555
N18F Pd6F 1_555 1_555
C23F N8F 1_555 1_555
H47F C23F 1_555 1_555
C37F C15F 1_555 1_555
H58F C37F 1_555 1_555
H11F N12F 1_555 1_555
H12F N12F 1_555 1_555
H15F C6F 1_555 1_555
H16F C6F 1_555 1_555
C32F N9F 1_555 1_555
H55F C32F 1_555 1_555
H67F C44F 1_555 1_555
H52F C29F 1_555 1_555
N19F Pd5F 1_555 1_555
H27F N19F 1_555 1_555
H28F N19F 1_555 1_555
C51F N19F 1_555 1_555
C49F C51F 1_555 1_555
N23F Pd5F 1_555 1_555
H33F N23F 1_555 1_555
H34F N23F 1_555 1_555
H74F C49F 1_555 1_555
H75F C49F 1_555 1_555
H77F C51F 1_555 1_555
H78F C51F 1_555 1_555
C43F N7F 1_555 1_555
H66F C43F 1_555 1_555
H49F C25F 1_555 1_555
H53F C30F 1_555 1_555
N24F Pd4F 1_555 1_555
H35F N24F 1_555 1_555
H36F N24F 1_555 1_555
C40F N24F 1_555 1_555
H61F C40F 1_555 1_555
H62F C40F 1_555 1_555
C52F C40F 1_555 1_555
N25F Pd4F 1_555 1_555
H37F N25F 1_555 1_555
H38F N25F 1_555 1_555
H79F C52F 1_555 1_555
H80F C52F 1_555 1_555
H45F C21F 1_555 1_555
C59F C62 1_555 1_555
H85F C59F 1_555 1_555
H87F C61F 1_555 1_555
C60F C61 1_555 1_555
H86F C60F 1_555 1_555
C62F C59 1_555 1_555
H88F C62F 1_555 1_555
C45F C50 1_555 1_555
H68F C45F 1_555 1_555
H73F C48F 1_555 1_555
N6F Pd3F 1_555 1_555
C46F N6F 1_555 1_555
C42F C46F 1_555 1_555
N20F Pd3F 1_555 1_555
H29F N20F 1_555 1_555
H30F N20F 1_555 1_555
H64F C42F 1_555 1_555
H65F C42F 1_555 1_555
H69F C46F 1_555 1_555
H70F C46F 1_555 1_555
H42F C16F 1_555 1_555
C55F C54 1_555 1_555
C57F C56 1_555 1_555
C56F C57 1_555 1_555
H83F C56F 1_555 1_555
H82F C55F 1_555 1_555
H84F C57F 1_555 1_555
C63F N27 1_555 1_555
H89F C63F 1_555 1_555
H90F C63F 1_555 1_555
C64F C63F 1_555 1_555
C65F C64F 1_555 1_555
H91F C65F 1_555 1_555
H92F C65F 1_555 1_555
C66F C65F 1_555 1_555
H93F C66F 1_555 1_555
H94F C66F 1_555 1_555
H95F C66F 1_555 1_555
C67F N27 1_555 1_555
H97F C67F 1_555 1_555
C68F C67F 1_555 1_555
C69F C68F 1_555 1_555
H98F C69F 1_555 1_555
H99F C69F 1_555 1_555
C70F C69F 1_555 1_555
H100F C70F 1_555 1_555
H101F C70F 1_555 1_555
H102F C70F 1_555 1_555
C1 C2 1_555 1_555
N10 C43 1_555 1_555
C5 C6 1_555 1_555
N15 C24 1_555 1_555
N17 C11 1_555 1_555
N18 C23 1_555 1_555
N21 C32 1_555 1_555
N26 C22 1_555 1_555
C9 C12 1_555 1_555
C13 C25 1_555 1_555
C14 C44 1_555 1_555
C15 C37 1_555 1_555
C19 C33 1_555 1_555
C26 C41 1_555 1_555
C27 C28 1_555 1_555
C31 C34 1_555 1_555
C39 C47 1_555 1_555
C40 C52 1_555 1_555
C42 C46 1_555 1_555
C49 C51 1_555 1_555
C54 C55 1_555 1_555
C54 C57 1_555 1_555
C55 C56 1_555 1_555
C59 C61 1_555 1_555
C60 C62 1_555 1_555
C54F C57F 1_555 1_555
C54F C55F 1_555 1_555
C53F C55F 1_555 1_555
C53F C56F 1_555 1_555
C53F C57F 1_555 1_555
C35F C45F 1_555 1_555
C36F C48F 1_555 1_555
C61F C59F 1_555 1_555
C58F C59F 1_555 1_555
C58F C60F 1_555 1_555
C58F C62F 1_555 1_555
N2F C22F 1_555 1_555
N2F C31F 1_555 1_555
C39F N22F 1_555 1_555
N17F C12F 1_555 1_555
C2F N4F 1_555 1_555
N15F C24F 1_555 1_555
N15F C41F 1_555 1_555
C27F C28F 1_555 1_555
N10F C43F 1_555 1_555
C14F C38F 1_555 1_555
C38F C50F 1_555 1_555
N21F C32F 1_555 1_555
C6F N12F 1_555 1_555
N18F C23F 1_555 1_555
N18F C37F 1_555 1_555
C49F N23F 1_555 1_555
C52F N25F 1_555 1_555
C60F C62F 1_555 1_555
C42F N20F 1_555 1_555
C55F C56F 1_555 1_555

#END
