
#######################################################################
#
#                 Cambridge Crystallographic Data Centre
#                                CCDC 
#
#######################################################################
#
# If this CIF has been generated from an entry in the Cambridge 
# Structural Database, then it will include bibliographic, chemical, 
# crystal, experimental, refinement or atomic coordinate data resulting 
# from the CCDC's data processing and validation procedures.
#
#######################################################################

data_ALEPEO
_chemical_formula_moiety         
'C172 H164 N12 Pd2 4+,C10 H6 O8 S2 2-,2(B1 F4 1-)'
_chemical_name_systematic        
'tetrakis(\m~2~-10-Hexyl-2,7-bis(pyridin-3-ylethynyl)-9-(tricyclo[3.3.1.1^3,7^]decan-2-ylidene)-9,10-dihydroacridine)-di-palladium(ii) 4,5-dihydroxynaphthalene-2,7-disulfonate bis(tetrafluoroborate) unknown solvate'
_symmetry_cell_setting           triclinic
_symmetry_space_group_name_H-M   'P -1'
_symmetry_Int_Tables_number      2
_space_group_name_Hall           '-P 1'
loop_
_symmetry_equiv_pos_site_id
_symmetry_equiv_pos_as_xyz
1 x,y,z
2 -x,-y,-z
_cell_length_a                   19.202(4)
_cell_length_b                   20.734(4)
_cell_length_c                   24.321(5)
_cell_angle_alpha                93.96(3)
_cell_angle_beta                 108.19(3)
_cell_angle_gamma                96.25(3)
_cell_volume                     9089.85
_exptl_crystal_colour            colorless
_exptl_crystal_description       plate
_cell_formula_units_Z            2
_chemical_properties_physical    'Air-sensitive, Moisture-sensitive'
_exptl_crystal_recrystallization_method Acetonitrile
loop_
_atom_site_label
_atom_site_type_symbol
_atom_site_fract_x
_atom_site_fract_y
_atom_site_fract_z
Pd1 Pd 0.86699(3) 0.71147(3) 0.95224(2)
Pd2 Pd 0.68243(3) 0.84413(3) 1.53990(2)
C1 C 0.7272(2) 0.7442(2) 1.6170(2)
H1 H 0.6921 0.7597 1.6330
C2 C 1.4251(8) 0.6262(7) 1.6191(4)
H2 H 1.4142 0.6191 1.6552
H3 H 1.4351 0.6731 1.6169
H4 H 1.4686 0.6056 1.6187
C3 C 1.3616(4) 0.5972(4) 1.5691(3)
H5 H 1.3409 0.6332 1.5474
H6 H 1.3232 0.5767 1.5842
C4 C 1.1631(3) 0.4982(3) 1.4503(2)
H7 H 1.1400 0.4721 1.4743
H8 H 1.1680 0.4687 1.4183
C5 C 1.2363(3) 0.5336(4) 1.4864(4)
H9 H 1.2404 0.5766 1.5044
C6 C 1.3735(4) 0.5478(5) 1.5268(4)
H10 H 1.4120 0.5220 1.5479
H11 H 1.3919 0.5704 1.4984
C7 C 1.3019(3) 0.5011(4) 1.4937(5)
H12 H 1.3038 0.4851 1.4549
H13 H 1.2985 0.4629 1.5154
N1 N 0.7375(3) 0.7689(2) 1.57257(19)
N2 N 0.9358(2) 0.6606(2) 0.9872(2)
N3 N 1.1172(2) 0.5517(2) 1.42620(15)
C8 C 1.2341(3) 0.8791(2) 1.4188(3)
H14 H 1.2398 0.9129 1.4513
H15 H 1.2619 0.8975 1.3940
C9 C 1.2677(2) 0.8197(2) 1.4436(2)
H16 H 1.3219 0.8310 1.4651
C10 C 1.1537(3) 0.8637(2) 1.3833(2)
H17 H 1.1341 0.9031 1.3660
C11 C 1.2528(2) 0.7640(3) 1.3939(2)
H18 H 1.2791 0.7771 1.3664
H19 H 1.2714 0.7243 1.4102
C12 C 1.1446(4) 0.8089(2) 1.33674(19)
H20 H 1.0917 0.7982 1.3132
H21 H 1.1726 0.8229 1.3106
C13 C 1.2251(3) 0.7984(4) 1.48422(19)
H22 H 1.2451 0.7605 1.5031
H23 H 1.2318 0.8344 1.5151
C14 C 1.1171(2) 0.8420(2) 1.4274(2)
H24 H 1.1284 0.8772 1.4598
H25 H 1.0627 0.8338 1.4086
C15 C 1.1720(2) 0.7499(2) 1.36286(18)
H26 H 1.1630 0.7140 1.3308
C16 C 1.1444(2) 0.7802(2) 1.45134(19)
H27 H 1.1177 0.7655 1.4786
C17 C 1.1305(2) 0.7281(2) 1.4030(2)
C18 C 1.0528(3) 0.62788(17) 1.28944(16)
H28 H 1.0356 0.6676 1.2776
C19 C 1.0513(3) 0.5783(2) 1.24833(14)
C20 C 1.0682(3) 0.51753(19) 1.26513(16)
H29 H 1.0647 0.4826 1.2365
C21 C 1.0900(3) 0.50801(18) 1.32317(16)
H30 H 1.1004 0.4662 1.3344
C22 C 1.0970(2) 0.55952(18) 1.36571(13)
C23 C 1.0796(2) 0.61996(17) 1.34871(14)
C24 C 1.0875(3) 0.6714(3) 1.3955(3)
C25 C 1.0588(2) 0.64580(17) 1.44283(15)
C26 C 1.08067(19) 0.58621(19) 1.45845(14)
C27 C 1.0672(2) 0.56198(19) 1.50673(16)
H31 H 1.0899 0.5259 1.5226
C28 C 1.02092(18) 0.59058(17) 1.53138(15)
H32 H 1.0100 0.5728 1.5632
C29 C 0.99010(18) 0.64485(18) 1.51044(15)
C30 C 1.00769(17) 0.67217(18) 1.46540(14)
H33 H 0.9854 0.7085 1.4498
C31 C 1.0295(4) 0.5885(4) 1.1875(2)
C32 C 1.0166(4) 0.5981(4) 1.1378(2)
C33 C 0.9544(2) 0.6474(2) 1.0466(2)
H34 H 0.9305 0.6703 1.0691
C34 C 1.0020(3) 0.6062(3) 1.07665(17)
C35 C 1.0416(3) 0.5742(3) 1.04681(18)
H35 H 1.0762 0.5466 1.0653
C36 C 1.0281(3) 0.5844(3) 0.9882(2)
H36 H 1.0521 0.5628 0.9651
C37 C 0.9788(3) 0.6269(3) 0.9654(2)
H37 H 0.9745 0.6336 0.9263
C38 C 0.93478(19) 0.6684(2) 1.53206(17)
C39 C 0.88541(19) 0.6830(2) 1.54851(17)
C40 C 0.7892(2) 0.75067(18) 1.55046(17)
H38 H 0.7975 0.7713 1.5189
C41 C 0.8305(2) 0.7024(2) 1.57300(17)
C42 C 0.8189(2) 0.6736(2) 1.61968(15)
H39 H 0.8460 0.6400 1.6360
C43 C 0.7661(2) 0.6956(2) 1.64168(19)
H40 H 0.7568 0.6772 1.6738
C44 C 0.8136(2) 0.9191(2) 1.6265(2)
H41 H 0.7950 0.8989 1.6539
C45 C 0.7874(5) 1.3007(6) 1.3721(4)
H42 H 0.7794 1.2815 1.4057
H43 H 0.7395 1.3030 1.3428
H44 H 0.8149 1.3447 1.3845
C46 C 0.8310(5) 1.2590(6) 1.3463(3)
H45 H 0.8816 1.2622 1.3742
H46 H 0.8079 1.2130 1.3412
C47 C 1.0207(3) 1.2236(3) 1.2994(3)
H47 H 1.0702 1.2392 1.3022
C48 C 0.8361(3) 1.2765(6) 1.2902(3)
H48 H 0.8515 1.3242 1.2942
H49 H 0.7859 1.2672 1.2613
C49 C 0.8875(3) 1.2436(5) 1.2658(3)
H50 H 0.8778 1.1958 1.2668
H51 H 0.8773 1.2517 1.2246
C50 C 0.9661(3) 1.2669(4) 1.2983(5)
H52 H 0.9806 1.3097 1.3183
N4 N 0.7754(2) 0.9025(2) 1.56892(18)
N5 N 0.9431(2) 0.7898(2) 0.97051(18)
N6 N 0.9935(2) 1.1531(2) 1.29573(15)
C51 C 0.9008(2) 1.0038(2) 1.50827(15)
C52 C 0.6266(2) 0.9978(2) 1.1637(2)
H53 H 0.6020 0.9882 1.1212
H54 H 0.5877 0.9989 1.1825
C53 C 0.6749(2) 1.0630(2) 1.17715(18)
H55 H 0.6436 1.0974 1.1617
C54 C 0.6736(2) 0.9444(2) 1.18619(17)
H56 H 0.6418 0.9010 1.1773
C55 C 0.7341(2) 1.0619(2) 1.14853(18)
H57 H 0.7111 1.0525 1.1058
H58 H 0.7655 1.1049 1.1571
C56 C 0.7349(2) 0.9430(2) 1.15928(19)
H59 H 0.7667 0.9099 1.1759
H60 H 0.7134 0.9310 1.1167
C57 C 0.7105(3) 1.0790(2) 1.24141(18)
H61 H 0.6722 1.0815 1.2605
H62 H 0.7423 1.1218 1.2499
C58 C 0.7110(3) 0.9598(2) 1.25189(16)
H63 H 0.6731 0.9591 1.2717
H64 H 0.7434 0.9266 1.2668
C59 C 0.7805(2) 1.0098(2) 1.17193(16)
H65 H 0.8196 1.0089 1.1528
C60 C 0.7563(2) 1.0266(2) 1.26396(16)
H66 H 0.7794 1.0370 1.3071
C61 C 0.8180(2) 1.0243(3) 1.23692(18)
C62 C 0.9540(2) 1.0072(2) 1.19131(17)
H67 H 0.9229 0.9664 1.1818
C63 C 1.0041(2) 1.0208(2) 1.16192(16)
C64 C 1.0498(2) 1.0806(2) 1.17620(17)
H68 H 1.0835 1.0909 1.1556
C65 C 1.0466(2) 1.12481(19) 1.21999(17)
H69 H 1.0791 1.1648 1.2304
C66 C 0.9953(2) 1.11062(18) 1.24905(14)
C67 C 0.94837(19) 1.05141(18) 1.23393(14)
C68 C 0.8905(3) 1.0413(3) 1.2637(2)
C69 C 0.9234(2) 1.06779(19) 1.32695(13)
C70 C 0.9732(2) 1.1254(2) 1.34083(13)
C71 C 1.0025(3) 1.1529(2) 1.39855(16)
H70 H 1.0354 1.1927 1.4082
C72 C 0.9840(2) 1.12232(18) 1.44228(14)
H71 H 1.0031 1.1417 1.4815
C73 C 0.9375(2) 1.06320(19) 1.42813(14)
C74 C 0.9096(2) 1.03585(19) 1.37087(13)
H72 H 0.8802 0.9942 1.3617
C75 C 1.0062(3) 0.9735(3) 1.1158(2)
C76 C 1.0092(3) 0.9356(3) 1.0765(2)
C77 C 0.9549(2) 0.8335(2) 1.01498(19)
H73 H 0.9263 0.8262 1.0401
C78 C 1.0054(2) 0.8894(2) 1.02821(17)
C79 C 1.0468(2) 0.9041(2) 0.99228(17)
H74 H 1.0795 0.9438 0.9990
C80 C 1.0381(2) 0.8577(2) 0.94569(19)
H75 H 1.0664 0.8645 0.9203
C81 C 0.9888(3) 0.8022(2) 0.9365(2)
H76 H 0.9854 0.7705 0.9053
C82 C 0.9184(2) 1.0305(2) 1.47276(15)
C83 C 0.8072(2) 0.9320(2) 1.53322(18)
H77 H 0.7827 0.9223 1.4925
C84 C 0.8726(2) 0.9753(2) 1.55072(16)
C85 C 0.9079(2) 0.9930(3) 1.60969(13)
H78 H 0.9512 1.0242 1.6234
C86 C 0.8777(2) 0.9635(3) 1.64796(19)
H79 H 0.9009 0.9737 1.6888
C87 C 0.6249(2) 0.9717(2) 1.54081(18)
H80 H 0.6417 0.9718 1.5819
C88 C 0.3262(5) 0.8299(5) 1.1879(3)
H81 H 0.3144 0.8000 1.2142
H82 H 0.3320 0.8750 1.2052
H83 H 0.3723 0.8211 1.1814
C89 C 0.2647(6) 0.8199(15) 1.1309(2)
H84 H 0.2362 0.8572 1.1280
H85 H 0.2308 0.7800 1.1300
C90 C 0.3248(2) 0.9502(3) 1.0341(2)
H86 H 0.3048 0.9710 1.0628
H87 H 0.3317 0.9829 1.0077
C91 C 0.2915(5) 0.8133(4) 1.0781(2)
H88 H 0.3429 0.8357 1.0892
H89 H 0.2923 0.7665 1.0675
C92 C 0.2464(4) 0.8402(3) 1.02737(19)
H90 H 0.2264 0.8030 0.9965
H91 H 0.2036 0.8533 1.0377
C93 C 0.2714(4) 0.8934(3) 0.9998(3)
H92 H 0.2267 0.9108 0.9766
H93 H 0.2934 0.8742 0.9718
N7 N 0.6326(2) 0.9204(2) 1.50691(19)
N8 N 0.7908(2) 0.7661(2) 0.90797(19)
N9 N 0.3977(2) 0.9297(2) 1.06520(15)
C94 C 0.4676(2) 0.60858(18) 1.1458(2)
H94 H 0.4597 0.5894 1.1799
H95 H 0.4723 0.5728 1.1186
C95 C 0.4016(2) 0.6425(2) 1.11552(17)
H96 H 0.3555 0.6102 1.1032
C96 C 0.5374(2) 0.65679(19) 1.16524(17)
H97 H 0.5804 0.6345 1.1856
C97 C 0.4139(2) 0.6686(2) 1.06237(16)
H98 H 0.4199 0.6325 1.0361
H99 H 0.3708 0.6892 1.0409
C98 C 0.54924(19) 0.6840(2) 1.11074(17)
H100 H 0.5953 0.7153 1.1220
H101 H 0.5533 0.6480 1.0834
C99 C 0.39382(18) 0.6976(2) 1.15660(18)
H102 H 0.3854 0.6806 1.1914
H103 H 0.3517 0.7204 1.1369
C100 C 0.5291(2) 0.7116(2) 1.20621(17)
H104 H 0.5199 0.6940 1.2405
H105 H 0.5750 0.7434 1.2200
C101 C 0.4825(2) 0.71806(18) 1.08180(16)
H106 H 0.4897 0.7360 1.0465
C102 C 0.46602(19) 0.74376(18) 1.17389(16)
H107 H 0.4617 0.7801 1.2014
C103 C 0.4781(2) 0.77418(18) 1.12286(18)
C104 C 0.54465(18) 0.8489(2) 1.03557(16)
H108 H 0.5815 0.8234 1.0543
C105 C 0.54377(18) 0.8712(2) 0.98285(15)
C106 C 0.4914(2) 0.9107(2) 0.95673(15)
H109 H 0.4895 0.9252 0.9201
C107 C 0.44202(19) 0.9290(2) 0.98416(16)
H110 H 0.4080 0.9577 0.9673
C108 C 0.44240(17) 0.9052(2) 1.03594(13)
C109 C 0.49226(17) 0.86346(19) 1.06111(14)
C110 C 0.4841(3) 0.8399(3) 1.1166(2)
C111 C 0.4716(2) 0.89103(18) 1.15430(13)
C112 C 0.4255(2) 0.9348(2) 1.12767(13)
C113 C 0.4086(2) 0.9840(2) 1.16140(17)
H111 H 0.3761 1.0133 1.1431
C114 C 0.4386(2) 0.99031(19) 1.22076(15)
H112 H 0.4255 1.0229 1.2437
C115 C 0.4883(2) 0.9488(2) 1.24761(14)
C116 C 0.5061(2) 0.90013(17) 1.21431(13)
H113 H 0.5416 0.8731 1.2324
C117 C 0.5962(2) 0.8536(3) 0.9558(2)
C118 C 0.6376(3) 0.8407(3) 0.9311(2)
C119 C 0.7416(2) 0.7834(2) 0.93156(17)
H114 H 0.7441 0.7719 0.9692
C120 C 0.6868(2) 0.8180(3) 0.90259(17)
C121 C 0.6828(2) 0.8341(3) 0.84753(17)
H115 H 0.6454 0.8578 0.8264
C122 C 0.7348(2) 0.8144(2) 0.82449(19)
H116 H 0.7335 0.8240 0.7866
C123 C 0.7890(2) 0.7807(2) 0.8562(2)
H117 H 0.8254 0.7681 0.8403
C124 C 0.5217(3) 0.9568(3) 1.30951(15)
C125 C 0.5450(3) 0.9647(3) 1.36050(15)
C126 C 0.6058(3) 0.91841(18) 1.45058(17)
H118 H 0.6096 0.8810 1.4273
C127 C 0.5721(3) 0.9685(2) 1.42306(16)
C128 C 0.5659(2) 1.0231(2) 1.45678(14)
H119 H 0.5438 1.0587 1.4393
C129 C 0.5930(2) 1.0239(2) 1.51687(18)
H120 H 0.5897 1.0603 1.5414
C130 C 0.5320(3) 0.7885(2) 1.5341(2)
H121 H 0.5398 0.8223 1.5647
C131 C 0.4756(3) 0.3459(2) 1.1790(2)
H122 H 0.4291 0.3455 1.1886
H123 H 0.4630 0.3290 1.1375
C132 C 0.5252(2) 0.3048(3) 1.2167(3)
H124 H 0.4987 0.2599 1.2115
H125 H 0.5364 0.3223 1.2579
C133 C 0.5962(2) 0.3017(4) 1.2045(2)
H126 H 0.6154 0.3461 1.1986
H127 H 0.6326 0.2887 1.2392
C134 C 0.5920(3) 0.2566(4) 1.1535(2)
H128 H 0.5846 0.2117 1.1640
H129 H 0.5468 0.2623 1.1218
C135 C 0.6535(3) 0.2607(3) 1.1293(3)
H130 H 0.6376 0.2308 1.0928
H131 H 0.6954 0.2438 1.1569
C136 C 0.6817(5) 0.3251(3) 1.1163(4)
H132 H 0.7304 0.3234 1.1117
H133 H 0.6862 0.3582 1.1485
H134 H 0.6474 0.3364 1.0803
C137 C 0.7940(2) 0.6006(2) 1.3466(2)
H135 H 0.7675 0.6371 1.3308
H136 H 0.8137 0.6099 1.3896
N10 N 0.5853(2) 0.7828(2) 1.50984(19)
N11 N 0.7867(2) 0.6354(2) 0.92846(19)
N12 N 0.5174(2) 0.4160(2) 1.19029(15)
C138 C 0.8951(2) 0.5382(2) 1.3471(2)
H137 H 0.9153 0.5469 1.3900
H138 H 0.9371 0.5340 1.3322
C139 C 0.8425(2) 0.4745(2) 1.33055(18)
H139 H 0.8692 0.4377 1.3469
C140 C 0.8568(2) 0.5947(2) 1.32254(18)
H140 H 0.8925 0.6360 1.3336
C141 C 0.8119(3) 0.4619(2) 1.26443(18)
H141 H 0.8529 0.4579 1.2484
H142 H 0.7773 0.4207 1.2527
C142 C 0.8253(3) 0.5808(2) 1.25711(17)
H143 H 0.7993 0.6173 1.2408
H144 H 0.8659 0.5769 1.2406
C143 C 0.7800(2) 0.4812(2) 1.35430(18)
H145 H 0.7995 0.4893 1.3973
H146 H 0.7448 0.4403 1.3436
C144 C 0.7720(2) 0.5183(2) 1.24079(16)
H147 H 0.7519 0.5097 1.1974
C145 C 0.7409(2) 0.5371(2) 1.32975(17)
H148 H 0.6996 0.5413 1.3460
C146 C 0.7088(2) 0.5240(3) 1.26378(18)
C147 C 0.6299(2) 0.5249(2) 1.12732(15)
H149 H 0.6648 0.5635 1.1393
C148 C 0.6040(2) 0.4995(2) 1.06916(13)
C149 C 0.5464(2) 0.4485(2) 1.05060(15)
H150 H 0.5262 0.4332 1.0104
C150 C 0.5181(2) 0.4198(2) 1.08998(15)
H151 H 0.4786 0.3847 1.0768
C151 C 0.5471(2) 0.44210(19) 1.14890(13)
C152 C 0.60529(19) 0.4943(2) 1.16831(13)
C153 C 0.6336(3) 0.5139(3) 1.2323(2)
C154 C 0.57355(19) 0.51284(19) 1.25784(14)
C155 C 0.5169(2) 0.4603(2) 1.23682(14)
C156 C 0.4615(2) 0.4517(2) 1.26199(17)
H152 H 0.4245 0.4146 1.2490
C157 C 0.4597(2) 0.49670(19) 1.30579(16)
H153 H 0.4223 0.4901 1.3236
C158 C 0.5127(2) 0.55154(19) 1.32389(15)
C159 C 0.56787(17) 0.56012(19) 1.29873(15)
H154 H 0.6024 0.5990 1.3096
C160 C 0.6339(3) 0.5250(3) 1.0263(2)
C161 C 0.6570(3) 0.5432(3) 0.9901(2)
C162 C 0.7529(3) 0.6132(2) 0.9657(2)
H155 H 0.7720 0.6309 1.0054
C163 C 0.6908(2) 0.5652(3) 0.94824(16)
C164 C 0.6661(3) 0.5359(3) 0.89174(17)
H156 H 0.6248 0.5025 0.8785
C165 C 0.7038(3) 0.5570(3) 0.85554(19)
H157 H 0.6888 0.5381 0.8162
C166 C 0.7635(2) 0.6057(2) 0.8758(2)
H158 H 0.7892 0.6183 0.8498
C167 C 0.5068(3) 0.6007(2) 1.36656(18)
C168 C 0.5042(3) 0.6411(2) 1.40215(18)
C169 C 0.5765(2) 0.7365(2) 1.47014(19)
H159 H 0.6158 0.7323 1.4548
C170 C 0.5127(2) 0.6918(2) 1.44798(19)
C171 C 0.4561(2) 0.6966(2) 1.47155(16)
H160 H 0.4117 0.6667 1.4579
C172 C 0.4661(2) 0.7465(2) 1.5158(2)
H161 H 0.4286 0.7516 1.5329
B1 B 0.8840(3) 0.6498(3) 0.7863(2)
F1 F 0.9113(3) 0.7117(2) 0.81029(19)
F2 F 0.8094(2) 0.6428(3) 0.76698(19)
F3 F 0.9097(2) 0.6368(2) 0.74216(15)
F4 F 0.9061(3) 0.6106(2) 0.82712(17)
B3 B 0.6299(3) 0.8679(2) 0.6839(2)
F9 F 0.6046(4) 0.8013(2) 0.6718(3)
F10 F 0.6111(3) 0.8924(3) 0.73164(17)
F11 F 0.5970(4) 0.9000(3) 0.6354(2)
F12 F 0.7066(2) 0.8775(4) 0.6976(3)
C173 C 0.74390(18) 0.77373(14) 1.28854(16)
H162 H 0.6954 0.7519 1.2685
S1 S 0.69418(11) 0.78492(11) 1.38170(8)
O1 O 0.6798(3) 0.7166(2) 1.3835(2)
C174 C 0.76421(18) 0.79627(12) 1.34736(15)
O2 O 0.7219(2) 0.8201(2) 1.43666(17)
S2 S 0.79557(12) 0.74525(12) 1.09708(9)
C175 C 0.9141(2) 0.8322(4) 1.25616(18)
C176 C 0.8341(2) 0.8292(2) 1.37590(16)
H163 H 0.8474 0.8450 1.4159
O3 O 0.6286(2) 0.8077(2) 1.34546(19)
C177 C 0.86544(18) 0.8170(3) 1.28761(12)
O4 O 0.7333(2) 0.7737(3) 1.0686(2)
C178 C 0.8847(2) 0.8393(4) 1.34654(17)
O5 O 0.8526(2) 0.7523(3) 1.07502(19)
C179 C 0.79591(17) 0.7836(3) 1.25921(11)
O6 O 0.7689(3) 0.6764(2) 1.0931(2)
C180 C 0.8956(2) 0.8073(3) 1.19853(17)
H164 H 0.9300 0.8148 1.1780
C181 C 0.7761(2) 0.7619(3) 1.19985(17)
H165 H 0.7274 0.7408 1.1796
O7 O 0.9548(3) 0.8740(5) 1.3784(3)
C182 C 0.8264(2) 0.7710(3) 1.17069(16)
O8 O 0.9799(3) 0.8756(4) 1.2810(2)
loop_
_geom_bond_atom_site_label_1
_geom_bond_atom_site_label_2
_geom_bond_site_symmetry_1
_geom_bond_site_symmetry_2
Pd1 N2 1_555 1_555
Pd2 N1 1_555 1_555
C1 H1 1_555 1_555
C2 H2 1_555 1_555
H3 C2 1_555 1_555
H4 C2 1_555 1_555
C3 C2 1_555 1_555
H5 C3 1_555 1_555
H6 C3 1_555 1_555
C4 H7 1_555 1_555
H8 C4 1_555 1_555
C5 C4 1_555 1_555
H9 C5 1_555 1_555
C6 C3 1_555 1_555
H10 C6 1_555 1_555
H11 C6 1_555 1_555
C7 C5 1_555 1_555
H12 C7 1_555 1_555
H13 C7 1_555 1_555
N1 C1 1_555 1_555
N2 C33 1_555 1_555
N3 C4 1_555 1_555
C8 H14 1_555 1_555
H15 C8 1_555 1_555
C9 C8 1_555 1_555
H16 C9 1_555 1_555
C10 C8 1_555 1_555
H17 C10 1_555 1_555
C11 C9 1_555 1_555
H18 C11 1_555 1_555
H19 C11 1_555 1_555
C12 C10 1_555 1_555
H20 C12 1_555 1_555
H21 C12 1_555 1_555
C13 C9 1_555 1_555
H22 C13 1_555 1_555
H23 C13 1_555 1_555
C14 C10 1_555 1_555
H24 C14 1_555 1_555
H25 C14 1_555 1_555
C15 C11 1_555 1_555
H26 C15 1_555 1_555
C16 C13 1_555 1_555
H27 C16 1_555 1_555
C17 C15 1_555 1_555
C18 H28 1_555 1_555
C19 C18 1_555 1_555
C20 C19 1_555 1_555
H29 C20 1_555 1_555
C21 C20 1_555 1_555
H30 C21 1_555 1_555
C22 N3 1_555 1_555
C23 C18 1_555 1_555
C24 C17 1_555 1_555
C25 C24 1_555 1_555
C26 N3 1_555 1_555
C27 C26 1_555 1_555
H31 C27 1_555 1_555
C28 C27 1_555 1_555
H32 C28 1_555 1_555
C29 C28 1_555 1_555
C30 C25 1_555 1_555
H33 C30 1_555 1_555
C31 C19 1_555 1_555
C32 C31 1_555 1_555
C33 H34 1_555 1_555
C34 C32 1_555 1_555
C35 C34 1_555 1_555
H35 C35 1_555 1_555
C36 C35 1_555 1_555
H36 C36 1_555 1_555
C37 N2 1_555 1_555
H37 C37 1_555 1_555
C38 C29 1_555 1_555
C39 C38 1_555 1_555
C40 N1 1_555 1_555
H38 C40 1_555 1_555
C41 C39 1_555 1_555
C42 C41 1_555 1_555
H39 C42 1_555 1_555
C43 C1 1_555 1_555
H40 C43 1_555 1_555
C44 H41 1_555 1_555
C45 H42 1_555 1_555
H43 C45 1_555 1_555
H44 C45 1_555 1_555
C46 C45 1_555 1_555
H45 C46 1_555 1_555
H46 C46 1_555 1_555
C47 H47 1_555 1_555
C48 C46 1_555 1_555
H48 C48 1_555 1_555
H49 C48 1_555 1_555
C49 C48 1_555 1_555
H50 C49 1_555 1_555
H51 C49 1_555 1_555
C50 C47 1_555 1_555
H52 C50 1_555 1_555
N4 Pd2 1_555 1_555
N5 Pd1 1_555 1_555
N6 C47 1_555 1_555
C51 C82 1_555 1_555
C52 H53 1_555 1_555
H54 C52 1_555 1_555
C53 C52 1_555 1_555
H55 C53 1_555 1_555
C54 C52 1_555 1_555
H56 C54 1_555 1_555
C55 C53 1_555 1_555
H57 C55 1_555 1_555
H58 C55 1_555 1_555
C56 C54 1_555 1_555
H59 C56 1_555 1_555
H60 C56 1_555 1_555
C57 C53 1_555 1_555
H61 C57 1_555 1_555
H62 C57 1_555 1_555
C58 C54 1_555 1_555
H63 C58 1_555 1_555
H64 C58 1_555 1_555
C59 C55 1_555 1_555
H65 C59 1_555 1_555
C60 C57 1_555 1_555
H66 C60 1_555 1_555
C61 C59 1_555 1_555
C62 H67 1_555 1_555
C63 C62 1_555 1_555
C64 C63 1_555 1_555
H68 C64 1_555 1_555
C65 C64 1_555 1_555
H69 C65 1_555 1_555
C66 N6 1_555 1_555
C67 C62 1_555 1_555
C68 C61 1_555 1_555
C69 C68 1_555 1_555
C70 N6 1_555 1_555
C71 C70 1_555 1_555
H70 C71 1_555 1_555
C72 C71 1_555 1_555
H71 C72 1_555 1_555
C73 C72 1_555 1_555
C74 C69 1_555 1_555
H72 C74 1_555 1_555
C75 C63 1_555 1_555
C76 C75 1_555 1_555
C77 N5 1_555 1_555
H73 C77 1_555 1_555
C78 C76 1_555 1_555
C79 C78 1_555 1_555
H74 C79 1_555 1_555
C80 C79 1_555 1_555
H75 C80 1_555 1_555
C81 N5 1_555 1_555
H76 C81 1_555 1_555
C82 C73 1_555 1_555
C83 N4 1_555 1_555
H77 C83 1_555 1_555
C84 C51 1_555 1_555
C85 C84 1_555 1_555
H78 C85 1_555 1_555
C86 C44 1_555 1_555
H79 C86 1_555 1_555
C87 H80 1_555 1_555
C88 H81 1_555 1_555
H82 C88 1_555 1_555
H83 C88 1_555 1_555
C89 C88 1_555 1_555
H84 C89 1_555 1_555
H85 C89 1_555 1_555
C90 H86 1_555 1_555
H87 C90 1_555 1_555
C91 C89 1_555 1_555
H88 C91 1_555 1_555
H89 C91 1_555 1_555
C92 C91 1_555 1_555
H90 C92 1_555 1_555
H91 C92 1_555 1_555
C93 C90 1_555 1_555
H92 C93 1_555 1_555
H93 C93 1_555 1_555
N7 Pd2 1_555 1_555
N8 Pd1 1_555 1_555
N9 C90 1_555 1_555
C94 H94 1_555 1_555
H95 C94 1_555 1_555
C95 C94 1_555 1_555
H96 C95 1_555 1_555
C96 C94 1_555 1_555
H97 C96 1_555 1_555
C97 C95 1_555 1_555
H98 C97 1_555 1_555
H99 C97 1_555 1_555
C98 C96 1_555 1_555
H100 C98 1_555 1_555
H101 C98 1_555 1_555
C99 C95 1_555 1_555
H102 C99 1_555 1_555
H103 C99 1_555 1_555
C100 C96 1_555 1_555
H104 C100 1_555 1_555
H105 C100 1_555 1_555
C101 C97 1_555 1_555
H106 C101 1_555 1_555
C102 C99 1_555 1_555
H107 C102 1_555 1_555
C103 C101 1_555 1_555
C104 H108 1_555 1_555
C105 C104 1_555 1_555
C106 C105 1_555 1_555
H109 C106 1_555 1_555
C107 C106 1_555 1_555
H110 C107 1_555 1_555
C108 N9 1_555 1_555
C109 C104 1_555 1_555
C110 C103 1_555 1_555
C111 C110 1_555 1_555
C112 N9 1_555 1_555
C113 C112 1_555 1_555
H111 C113 1_555 1_555
C114 C113 1_555 1_555
H112 C114 1_555 1_555
C115 C114 1_555 1_555
C116 C111 1_555 1_555
H113 C116 1_555 1_555
C117 C105 1_555 1_555
C118 C117 1_555 1_555
C119 N8 1_555 1_555
H114 C119 1_555 1_555
C120 C118 1_555 1_555
C121 C120 1_555 1_555
H115 C121 1_555 1_555
C122 C121 1_555 1_555
H116 C122 1_555 1_555
C123 N8 1_555 1_555
H117 C123 1_555 1_555
C124 C115 1_555 1_555
C125 C124 1_555 1_555
C126 N7 1_555 1_555
H118 C126 1_555 1_555
C127 C125 1_555 1_555
C128 C127 1_555 1_555
H119 C128 1_555 1_555
C129 C87 1_555 1_555
H120 C129 1_555 1_555
C130 H121 1_555 1_555
C131 H122 1_555 1_555
H123 C131 1_555 1_555
C132 C131 1_555 1_555
H124 C132 1_555 1_555
H125 C132 1_555 1_555
C133 C132 1_555 1_555
H126 C133 1_555 1_555
H127 C133 1_555 1_555
C134 C133 1_555 1_555
H128 C134 1_555 1_555
H129 C134 1_555 1_555
C135 C134 1_555 1_555
H130 C135 1_555 1_555
H131 C135 1_555 1_555
C136 C135 1_555 1_555
H132 C136 1_555 1_555
H133 C136 1_555 1_555
H134 C136 1_555 1_555
C137 H135 1_555 1_555
H136 C137 1_555 1_555
N10 Pd2 1_555 1_555
N11 Pd1 1_555 1_555
N12 C131 1_555 1_555
C138 H137 1_555 1_555
H138 C138 1_555 1_555
C139 C138 1_555 1_555
H139 C139 1_555 1_555
C140 C137 1_555 1_555
H140 C140 1_555 1_555
C141 C139 1_555 1_555
H141 C141 1_555 1_555
H142 C141 1_555 1_555
C142 C140 1_555 1_555
H143 C142 1_555 1_555
H144 C142 1_555 1_555
C143 C139 1_555 1_555
H145 C143 1_555 1_555
H146 C143 1_555 1_555
C144 C141 1_555 1_555
H147 C144 1_555 1_555
C145 C137 1_555 1_555
H148 C145 1_555 1_555
C146 C144 1_555 1_555
C147 H149 1_555 1_555
C148 C147 1_555 1_555
C149 C148 1_555 1_555
H150 C149 1_555 1_555
C150 C149 1_555 1_555
H151 C150 1_555 1_555
C151 N12 1_555 1_555
C152 C147 1_555 1_555
C153 C146 1_555 1_555
C154 C153 1_555 1_555
C155 N12 1_555 1_555
C156 C155 1_555 1_555
H152 C156 1_555 1_555
C157 C156 1_555 1_555
H153 C157 1_555 1_555
C158 C157 1_555 1_555
C159 C154 1_555 1_555
H154 C159 1_555 1_555
C160 C148 1_555 1_555
C161 C160 1_555 1_555
C162 N11 1_555 1_555
H155 C162 1_555 1_555
C163 C161 1_555 1_555
C164 C163 1_555 1_555
H156 C164 1_555 1_555
C165 C164 1_555 1_555
H157 C165 1_555 1_555
C166 N11 1_555 1_555
H158 C166 1_555 1_555
C167 C158 1_555 1_555
C168 C167 1_555 1_555
C169 N10 1_555 1_555
H159 C169 1_555 1_555
C170 C168 1_555 1_555
C171 C170 1_555 1_555
H160 C171 1_555 1_555
C172 C130 1_555 1_555
H161 C172 1_555 1_555
B1 F1 1_555 1_555
F2 B1 1_555 1_555
F3 B1 1_555 1_555
F4 B1 1_555 1_555
B3 F9 1_555 1_555
F10 B3 1_555 1_555
F11 B3 1_555 1_555
F12 B3 1_555 1_555
C173 H162 1_555 1_555
S1 O1 1_555 1_555
C174 C173 1_555 1_555
O2 S1 1_555 1_555
S2 O4 1_555 1_555
C175 C177 1_555 1_555
C176 C174 1_555 1_555
H163 C176 1_555 1_555
O3 S1 1_555 1_555
C177 C178 1_555 1_555
C178 C176 1_555 1_555
O5 S2 1_555 1_555
C179 C173 1_555 1_555
O6 S2 1_555 1_555
C180 C175 1_555 1_555
H164 C180 1_555 1_555
C181 C179 1_555 1_555
H165 C181 1_555 1_555
O7 C178 1_555 1_555
C182 S2 1_555 1_555
O8 C175 1_555 1_555
C6 C7 1_555 1_555
C12 C15 1_555 1_555
C14 C16 1_555 1_555
C16 C17 1_555 1_555
C21 C22 1_555 1_555
C22 C23 1_555 1_555
C23 C24 1_555 1_555
C25 C26 1_555 1_555
C29 C30 1_555 1_555
C33 C34 1_555 1_555
C36 C37 1_555 1_555
C40 C41 1_555 1_555
C42 C43 1_555 1_555
C44 N4 1_555 1_555
C49 C50 1_555 1_555
C56 C59 1_555 1_555
C58 C60 1_555 1_555
C60 C61 1_555 1_555
C65 C66 1_555 1_555
C66 C67 1_555 1_555
C67 C68 1_555 1_555
C69 C70 1_555 1_555
C73 C74 1_555 1_555
C77 C78 1_555 1_555
C80 C81 1_555 1_555
C83 C84 1_555 1_555
C85 C86 1_555 1_555
C87 N7 1_555 1_555
C92 C93 1_555 1_555
C98 C101 1_555 1_555
C100 C102 1_555 1_555
C102 C103 1_555 1_555
C107 C108 1_555 1_555
C108 C109 1_555 1_555
C109 C110 1_555 1_555
C111 C112 1_555 1_555
C115 C116 1_555 1_555
C119 C120 1_555 1_555
C122 C123 1_555 1_555
C126 C127 1_555 1_555
C128 C129 1_555 1_555
C130 N10 1_555 1_555
C138 C140 1_555 1_555
C142 C144 1_555 1_555
C143 C145 1_555 1_555
C145 C146 1_555 1_555
C150 C151 1_555 1_555
C151 C152 1_555 1_555
C152 C153 1_555 1_555
C154 C155 1_555 1_555
C158 C159 1_555 1_555
C162 C163 1_555 1_555
C165 C166 1_555 1_555
C169 C170 1_555 1_555
C171 C172 1_555 1_555
S1 C174 1_555 1_555
C177 C179 1_555 1_555
C180 C182 1_555 1_555
C181 C182 1_555 1_555

#END
