
#######################################################################
#
#                 Cambridge Crystallographic Data Centre
#                                CCDC 
#
#######################################################################
#
# If this CIF has been generated from an entry in the Cambridge 
# Structural Database, then it will include bibliographic, chemical, 
# crystal, experimental, refinement or atomic coordinate data resulting 
# from the CCDC's data processing and validation procedures.
#
#######################################################################

data_ALEPUE
_chemical_formula_moiety         
'C172 H164 N12 Pd2 4+,2(C10 H8 Fe1 O6 S2 1-),2(C1 H4 O1),H2 O1'
_chemical_name_systematic        
"tetrakis(\m~2~-10-Hexyl-2,7-bis(pyridin-3-ylethynyl)-9-(tricyclo[3.3.1.1^3,7^]decan-2-ylidene)-9,10-dihydroacridine)-di-palladium bis(ferrocene-1,1'-disulfonate) methanol unknown solvate"
_symmetry_cell_setting           triclinic
_symmetry_space_group_name_H-M   'P -1'
_symmetry_Int_Tables_number      2
_space_group_name_Hall           '-P 1'
loop_
_symmetry_equiv_pos_site_id
_symmetry_equiv_pos_as_xyz
1 x,y,z
2 -x,-y,-z
_cell_length_a                   18.000(4)
_cell_length_b                   24.665(5)
_cell_length_c                   25.221(5)
_cell_angle_alpha                109.16(3)
_cell_angle_beta                 97.62(3)
_cell_angle_gamma                100.30(3)
_cell_volume                     10183.8
_exptl_crystal_colour            colorless
_exptl_crystal_description       bar
_cell_formula_units_Z            2
_chemical_properties_physical    'Air-sensitive, Moisture-sensitive'
_exptl_crystal_recrystallization_method Acetonitrile
loop_
_atom_site_label
_atom_site_type_symbol
_atom_site_fract_x
_atom_site_fract_y
_atom_site_fract_z
Fe1 Fe -0.10277(12) 0.28004(9) -0.20848(8)
S1 S -0.1196(3) 0.22967(19) -0.10099(14)
C171 C -0.2014(6) 0.2294(5) -0.2043(4)
H154 H -0.2444 0.2435 -0.1888
C172 C -0.1926(7) 0.2153(6) -0.2612(4)
H155 H -0.2284 0.2182 -0.2925
C173 C -0.1252(7) 0.1959(6) -0.2661(4)
H156 H -0.1049 0.1833 -0.3012
C174 C -0.0904(6) 0.1990(6) -0.2122(4)
H157 H -0.0413 0.1887 -0.2031
C175 C -0.1365(6) 0.2197(4) -0.1731(4)
O1 O -0.1513(7) 0.2798(5) -0.0708(4)
O2 O -0.1551(7) 0.1741(5) -0.0977(4)
O3 O -0.0398(6) 0.2406(5) -0.0802(4)
C176 C -0.0960(6) 0.3513(4) -0.2321(4)
C177 C -0.1124(7) 0.3644(6) -0.1769(4)
H158 H -0.1582 0.3771 -0.1653
C178 C -0.0531(7) 0.3553(6) -0.1417(4)
H159 H -0.0498 0.3608 -0.1011
S2 S -0.1508(3) 0.3600(2) -0.2905(2)
O4 O -0.1216(9) 0.3276(7) -0.3407(5)
O5 O -0.1312(7) 0.4229(6) -0.2796(7)
O6 O -0.2329(7) 0.3359(5) -0.2908(5)
C179 C -0.0261(7) 0.3333(7) -0.2307(5)
H160 H -0.0001 0.3213 -0.2629
C180 C -0.0017(7) 0.3338(7) -0.1751(5)
H161 H 0.0454 0.3233 -0.1616
Fe2 Fe 0.32468(13) 0.22086(10) 0.23174(8)
S3 S 0.1545(2) 0.25898(19) 0.21363(15)
C181 C 0.3047(6) 0.2776(5) 0.1925(5)
H162 H 0.3165 0.3207 0.2111
C182 C 0.3551(6) 0.2454(6) 0.1686(6)
H163 H 0.4077 0.2614 0.1659
C183 C 0.3159(7) 0.1851(5) 0.1470(5)
H164 H 0.3369 0.1518 0.1271
C184 C 0.2427(6) 0.1812(5) 0.1607(5)
H165 H 0.2034 0.1447 0.1519
C185 C 0.2355(6) 0.2387(5) 0.1889(4)
O7 O 0.1833(8) 0.3159(6) 0.2574(5)
O8 O 0.1245(7) 0.2183(6) 0.2377(5)
O9 O 0.1086(6) 0.2625(5) 0.1679(4)
C186 C 0.4230(5) 0.2293(5) 0.2853(4)
O10 O 0.5316(11) 0.3101(8) 0.2824(10)
S4 S 0.5179(2) 0.2490(2) 0.27676(19)
O11 O 0.5252(9) 0.2124(12) 0.2230(6)
O12 O 0.5676(5) 0.2441(5) 0.3244(4)
C187 C 0.3790(6) 0.2685(5) 0.3115(5)
H166 H 0.3962 0.3117 0.3278
C188 C 0.3093(6) 0.2355(6) 0.3131(5)
H167 H 0.2677 0.2512 0.3294
C189 C 0.3059(6) 0.1752(5) 0.2827(6)
H168 H 0.2626 0.1416 0.2754
C190 C 0.3773(6) 0.1724(4) 0.2680(6)
H169 H 0.3921 0.1362 0.2472
O13 O -0.2184(12) 0.2282(7) -0.4367(7)
C191 C -0.1595(11) 0.1981(9) -0.4318(12)
H170 H -0.1608 0.1693 -0.4685
H171 H -0.1674 0.1787 -0.4049
H172 H -0.1102 0.2259 -0.4185
O14 O -0.10980(14) 0.4325(2) -0.39771(17)
H173 H -0.05570(13) 0.4403(4) -0.3870(3)
H174 H -0.1247(3) 0.4004(2) -0.43295(16)
C192 C -0.2505(18) -0.0087(8) -0.0969(12)
H175 H -0.2926 -0.0308 -0.1288
H176 H -0.2605 -0.0175 -0.0638
H177 H -0.2037 -0.0194 -0.1060
O15 O -0.2425(13) 0.0521(8) -0.0852(10)
Pd1 Pd 0.02428(6) 0.25325(4) 0.05073(3)
Pd2 Pd -0.35567(6) 0.24561(4) -0.56182(4)
C1 C 0.1796(7) 0.2324(5) 0.0474(4)
H1 H 0.1729 0.2223 0.0792
C2 C 0.1558(9) 0.5725(5) -0.1942(7)
H2 H 0.1347 0.5962 -0.2136
H3 H 0.1719 0.5963 -0.1536
C3 C 0.0936(7) 0.5184(5) -0.2023(5)
H4 H 0.0497 0.5304 -0.1865
C4 C 0.2249(7) 0.5561(5) -0.2173(5)
H5 H 0.2646 0.5916 -0.2113
C5 C 0.1282(8) 0.4818(6) -0.1717(5)
H6 H 0.1456 0.5050 -0.1311
H7 H 0.0892 0.4472 -0.1760
C6 C 0.2559(7) 0.5182(5) -0.1873(6)
H8 H 0.3003 0.5070 -0.2020
H9 H 0.2727 0.5408 -0.1465
C7 C 0.0683(6) 0.4830(6) -0.2659(5)
H10 H 0.0282 0.4482 -0.2722
H11 H 0.0471 0.5066 -0.2853
C8 C 0.1971(8) 0.5196(5) -0.2809(5)
H12 H 0.1762 0.5433 -0.3004
H13 H 0.2403 0.5082 -0.2972
C9 C 0.1951(7) 0.4632(4) -0.1966(4)
H14 H 0.2166 0.4392 -0.1772
C10 C 0.1354(6) 0.4646(4) -0.2902(4)
H15 H 0.1183 0.4419 -0.3314
C11 C 0.2576(6) 0.2416(5) -0.0194(4)
H16 H 0.3033 0.2397 -0.0325
C12 C 0.1987(6) 0.2581(5) -0.0479(4)
C13 C 0.1336(5) 0.2619(4) -0.0264(4)
H17 H 0.0951 0.2728 -0.0461
C14 C 0.2082(6) 0.2715(5) -0.0986(4)
C15 C 0.2227(6) 0.2834(5) -0.1382(4)
N1 N 0.1199(6) 0.2511(4) 0.0213(4)
N2 N 0.2821(5) 0.3195(5) -0.3394(3)
N3 N -0.2520(6) 0.2657(5) -0.5834(4)
C16 C 0.376(2) 0.4545(19) -0.2886(19)
C17 C 0.4214(15) 0.4162(10) -0.3122(11)
H18 H 0.4341 0.3962 -0.2862
H19 H 0.4694 0.4398 -0.3143
C18 C 0.3844(10) 0.3668(10) -0.3749(8)
H20 H 0.3434 0.3781 -0.3948
H21 H 0.4232 0.3604 -0.3980
C19 C 0.3529(9) 0.3117(7) -0.3617(6)
H22 H 0.3412 0.2767 -0.3963
H23 H 0.3909 0.3071 -0.3334
C20 C 0.1694(7) 0.4276(4) -0.2610(4)
C21 C 0.0885(5) 0.3343(4) -0.3869(4)
H24 H 0.0475 0.3451 -0.3706
C22 C 0.0793(5) 0.3121(5) -0.4461(4)
C23 C 0.1410(6) 0.2950(6) -0.4698(3)
H25 H 0.1372 0.2832 -0.5092
C24 C 0.2072(5) 0.2954(5) -0.4356(4)
H26 H 0.2456 0.2798 -0.4520
C25 C 0.2167(5) 0.3193(4) -0.3760(3)
C26 C 0.1573(5) 0.3406(4) -0.3520(3)
C27 C 0.1771(7) 0.3713(5) -0.2878(5)
C28 C 0.2162(5) 0.3375(4) -0.2604(3)
C29 C 0.2735(5) 0.3146(4) -0.2866(3)
C30 C 0.3157(5) 0.2833(4) -0.2617(4)
H27 H 0.3547 0.2687 -0.2782
C31 C 0.2999(5) 0.2739(4) -0.2133(3)
H28 H 0.3280 0.2527 -0.1976
C32 C 0.2421(5) 0.2960(4) -0.1874(3)
C33 C 0.2008(5) 0.3278(4) -0.2112(3)
H29 H 0.1624 0.3428 -0.1941
C34 C 0.0069(7) 0.3068(6) -0.4826(5)
C35 C -0.0446(7) 0.3035(6) -0.5167(5)
C36 C -0.1876(7) 0.2779(5) -0.5444(4)
H30 H -0.1908 0.2761 -0.5085
C37 C -0.1165(6) 0.2929(6) -0.5571(4)
C38 C -0.1120(6) 0.2998(7) -0.6093(5)
H31 H -0.0645 0.3115 -0.6179
C39 C -0.1793(7) 0.2890(6) -0.6475(4)
H32 H -0.1778 0.2927 -0.6829
C40 C -0.2497(6) 0.2725(6) -0.6337(5)
H33 H -0.2953 0.2660 -0.6594
C41 C 0.2467(6) 0.2283(5) 0.0284(4)
H34 H 0.2849 0.2166 0.0476
C42 C 0.0153(6) 0.4293(4) 0.0739(4)
C43 C -0.4798(6) 0.2609(4) -0.1605(6)
H35 H -0.4839 0.2421 -0.1324
H36 H -0.5182 0.2369 -0.1950
C44 C -0.4001(6) 0.2658(4) -0.1739(4)
H37 H -0.3909 0.2261 -0.1888
C45 C -0.4942(6) 0.3228(4) -0.1371(5)
H38 H -0.5457 0.3202 -0.1281
C46 C -0.3394(6) 0.3025(4) -0.1201(5)
H39 H -0.3421 0.2842 -0.0915
H40 H -0.2883 0.3051 -0.1289
C47 C -0.4333(6) 0.3601(5) -0.0826(4)
H41 H -0.4418 0.3995 -0.0673
H42 H -0.4368 0.3423 -0.0537
C48 C -0.3937(7) 0.2939(4) -0.2191(4)
H43 H -0.4312 0.2699 -0.2541
H44 H -0.3426 0.2968 -0.2277
C49 C -0.4870(6) 0.3542(5) -0.1796(5)
H45 H -0.5274 0.3337 -0.2137
H46 H -0.4926 0.3943 -0.1626
C50 C -0.3542(5) 0.3634(4) -0.0974(4)
H47 H -0.3152 0.3874 -0.0625
C51 C -0.4091(6) 0.3551(4) -0.1955(4)
H48 H -0.4056 0.3737 -0.2243
N4 N 0.0482(5) 0.3410(4) 0.0783(3)
N5 N -0.2969(7) 0.5605(4) -0.0900(4)
N6 N -0.3524(6) 0.3314(5) -0.5251(4)
C52 C -0.2997(7) 0.4435(5) -0.1354(5)
C53 C -0.6208(19) 0.4452(12) -0.0990(14)
H49 H -0.6569 0.4177 -0.0899
H50 H -0.5702 0.4384 -0.0921
H51 H -0.6359 0.4401 -0.1387
C54 C -0.6202(15) 0.5025(11) -0.0648(11)
H52 H -0.6111 0.5073 -0.0246
H53 H -0.6688 0.5122 -0.0748
C55 C -0.5539(14) 0.5415(12) -0.0774(12)
H54 H -0.5713 0.5635 -0.0979
C56 C -0.4629(13) 0.5534(9) -0.0639(10)
H55 H -0.4399 0.5300 -0.0476
C57 C -0.4127(12) 0.6008(8) -0.0763(9)
H56 H -0.4358 0.6238 -0.0930
C58 C -0.3272(10) 0.6126(7) -0.0631(7)
H57 H -0.2957 0.6493 -0.0401
C59 C -0.3472(6) 0.3920(4) -0.1417(5)
C60 C -0.3020(7) 0.4534(4) -0.2323(4)
H58 H -0.2972 0.4147 -0.2482
C61 C -0.3095(8) 0.4868(4) -0.2669(4)
C62 C -0.3156(8) 0.5448(4) -0.2427(4)
H59 H -0.3208 0.5674 -0.2655
C63 C -0.3139(7) 0.5689(4) -0.1845(4)
H60 H -0.3178 0.6078 -0.1685
C64 C -0.3064(7) 0.5362(4) -0.1501(3)
C65 C -0.3016(7) 0.4773(4) -0.1747(3)
C66 C -0.2434(6) 0.4809(3) -0.0804(4)
C67 C -0.2471(6) 0.5402(4) -0.0569(4)
C68 C -0.1996(7) 0.5768(4) -0.0045(4)
H61 H -0.2044 0.6153 0.0127
C69 C -0.1448(6) 0.5557(4) 0.0222(4)
H62 H -0.1120 0.5806 0.0567
C70 C -0.1384(5) 0.4980(4) -0.0018(4)
C71 C -0.1879(5) 0.4610(3) -0.0539(4)
H63 H -0.1832 0.4224 -0.0708
C72 C -0.3147(9) 0.4618(6) -0.3275(5)
C73 C -0.3258(9) 0.4425(6) -0.3786(5)
C74 C -0.3389(8) 0.3582(4) -0.4664(4)
H64 H -0.3316 0.3357 -0.4437
C75 C -0.3360(9) 0.4174(5) -0.4400(4)
C76 C -0.3445(9) 0.4525(5) -0.4731(5)
H65 H -0.3389 0.4930 -0.4560
C77 C -0.3613(8) 0.4251(5) -0.5318(5)
H66 H -0.3691 0.4472 -0.5548
C78 C -0.3668(8) 0.3649(5) -0.5573(4)
H67 H -0.3807 0.3470 -0.5970
C79 C -0.0825(6) 0.4751(4) 0.0255(4)
C80 C -0.0373(6) 0.4558(4) 0.0471(4)
C81 C 0.0061(6) 0.3691(3) 0.0534(4)
H68 H -0.0314 0.3467 0.0206
C82 C 0.0691(6) 0.4629(4) 0.1228(4)
H69 H 0.0754 0.5036 0.1378
C83 C 0.1137(6) 0.4355(4) 0.1494(4)
H70 H 0.1508 0.4579 0.1825
C84 C 0.1033(6) 0.3760(4) 0.1272(4)
H71 H 0.1341 0.3581 0.1455
C85 C -0.0779(6) 0.2722(5) 0.1337(4)
H72 H -0.0318 0.2871 0.1607
C86 C -0.2843(6) -0.0267(4) -0.3314(5)
H73 H -0.2833 -0.0405 -0.3720
H74 H -0.2460 -0.0408 -0.3121
C87 C -0.2654(5) 0.0411(4) -0.3070(4)
H75 H -0.2140 0.0568 -0.3122
C88 C -0.3641(6) -0.0509(4) -0.3229(4)
H76 H -0.3760 -0.0942 -0.3382
C89 C -0.2675(5) 0.0629(5) -0.2436(4)
H77 H -0.2287 0.0505 -0.2228
H78 H -0.2565 0.1057 -0.2283
C90 C -0.3655(7) -0.0294(4) -0.2596(4)
H79 H -0.3278 -0.0432 -0.2394
H80 H -0.4161 -0.0448 -0.2540
C91 C -0.3254(5) 0.0625(4) -0.3380(4)
H81 H -0.3145 0.1053 -0.3222
H82 H -0.3237 0.0503 -0.3784
C92 C -0.4230(6) -0.0299(4) -0.3546(4)
H83 H -0.4220 -0.0437 -0.3951
H84 H -0.4743 -0.0457 -0.3502
C93 C -0.3467(5) 0.0375(4) -0.2363(4)
H85 H -0.3475 0.0512 -0.1953
C94 C -0.4048(5) 0.0365(4) -0.3307(3)
H86 H -0.4434 0.0498 -0.3514
N7 N -0.0762(6) 0.2530(4) 0.0793(4)
N8 N -0.4604(6) 0.2234(4) -0.5429(4)
N9 N -0.5911(5) 0.0887(4) -0.2107(3)
C95 C -0.2119(6) 0.2229(5) 0.0556(4)
C96 C -0.5386(6) 0.1976(5) -0.4831(4)
C97 C -0.4676(5) 0.2078(5) -0.4982(4)
H87 H -0.4245 0.2036 -0.4765
C98 C -0.8270(14) 0.0676(10) -0.0279(9)
H88 H -0.8749 0.0479 -0.0224
H89 H -0.8044 0.1027 0.0052
H90 H -0.7924 0.0417 -0.0330
C99 C -0.8416(11) 0.0836(9) -0.0796(7)
H91 H -0.8552 0.1215 -0.0691
H92 H -0.8846 0.0543 -0.1076
C100 C -0.7711(10) 0.0870(8) -0.1056(7)
H93 H -0.7278 0.1145 -0.0764
H94 H -0.7594 0.0484 -0.1173
C101 C -0.7793(8) 0.1060(7) -0.1564(6)
H95 H -0.8115 0.0736 -0.1896
H96 H -0.8043 0.1388 -0.1486
C102 C -0.7018(7) 0.1246(6) -0.1693(5)
H97 H -0.6661 0.1495 -0.1337
H98 H -0.7064 0.1481 -0.1933
C103 C -0.6693(7) 0.0735(5) -0.1990(5)
H99 H -0.6679 0.0491 -0.1757
H100 H -0.7045 0.0498 -0.2352
C104 C -0.4063(5) 0.0603(4) -0.2666(4)
C105 C -0.5008(4) 0.1360(4) -0.3158(3)
H101 H -0.4519 0.1434 -0.3240
C106 C -0.5619(5) 0.1463(4) -0.3470(3)
C107 C -0.6334(5) 0.1379(4) -0.3328(4)
H102 H -0.6744 0.1459 -0.3531
C108 C -0.6449(4) 0.1179(4) -0.2890(3)
H103 H -0.6936 0.1116 -0.2803
C109 C -0.5831(5) 0.1069(4) -0.2575(3)
C110 C -0.5113(5) 0.1144(4) -0.2720(3)
C111 C -0.4480(6) 0.0953(5) -0.2406(4)
C112 C -0.4527(4) 0.1132(5) -0.1788(3)
C113 C -0.5262(5) 0.1039(5) -0.1666(3)
C114 C -0.5341(5) 0.1118(6) -0.1106(3)
H104 H -0.5830 0.1023 -0.1031
C115 C -0.4710(5) 0.1335(6) -0.0663(3)
H105 H -0.4773 0.1394 -0.0290
C116 C -0.3966(5) 0.1468(5) -0.0772(3)
C117 C -0.3882(5) 0.1380(4) -0.1328(3)
H106 H -0.3395 0.1487 -0.1400
C118 C -0.5523(7) 0.1663(5) -0.3943(4)
C119 C -0.5467(7) 0.1806(5) -0.4343(4)
C120 C -0.6038(6) 0.2014(6) -0.5170(4)
H107 H -0.6524 0.1927 -0.5088
C121 C -0.5943(7) 0.2184(5) -0.5633(4)
H108 H -0.6366 0.2221 -0.5862
C122 C -0.5218(7) 0.2299(6) -0.5755(4)
H109 H -0.5152 0.2421 -0.6061
C123 C -0.3325(6) 0.1756(6) -0.0291(4)
C124 C -0.2812(6) 0.1972(6) 0.0110(4)
C125 C -0.1401(5) 0.2282(5) 0.0403(4)
H110 H -0.1375 0.2140 0.0017
C126 C -0.2154(6) 0.2455(5) 0.1119(3)
H111 H -0.2626 0.2441 0.1232
C127 C -0.1468(6) 0.2708(5) 0.1520(4)
H112 H -0.1471 0.2867 0.1908
C128 C -0.0144(8) 0.1373(4) 0.0605(4)
H113 H -0.0045 0.1596 0.0995
C129 C 0.0777(7) 0.1595(4) -0.2898(4)
H114 H 0.1233 0.1758 -0.2592
H115 H 0.0352 0.1739 -0.2749
C130 C 0.1265(6) 0.0712(5) -0.3317(4)
H116 H 0.1151 0.0284 -0.3444
H117 H 0.1716 0.0869 -0.3007
C131 C 0.0218(6) 0.1536(4) -0.3874(5)
H118 H 0.0314 0.1663 -0.4189
H119 H -0.0218 0.1678 -0.3740
C132 C 0.0719(6) 0.0638(5) -0.4286(4)
H120 H 0.0599 0.0211 -0.4405
H121 H 0.0814 0.0741 -0.4615
C133 C 0.0590(5) 0.0926(4) -0.3102(4)
H122 H 0.0494 0.0801 -0.2782
C134 C 0.0037(5) 0.0872(4) -0.4075(4)
H123 H -0.0418 0.0708 -0.4389
N10 N -0.0036(6) 0.1655(4) 0.0238(4)
N11 N -0.3580(6) 0.1593(4) -0.5979(4)
N12 N -0.1158(5) -0.0963(3) -0.4022(3)
C135 C -0.3605(6) 0.0391(4) -0.6472(4)
H124 H -0.3636 -0.0012 -0.6633
C136 C -0.3326(6) 0.1294(4) -0.5648(4)
H125 H -0.3148 0.1492 -0.5255
C137 C -0.0971(6) -0.0684(4) -0.3424(3)
C138 C -0.0785(6) -0.0069(3) -0.3190(3)
C139 C 0.1651(11) -0.0711(8) -0.3124(8)
H126 H 0.2061 -0.0690 -0.2828
H127 H 0.1188 -0.0686 -0.2976
H128 H 0.1790 -0.0389 -0.3254
C140 C 0.1512(10) -0.1294(7) -0.3624(7)
H129 H 0.1996 -0.1412 -0.3650
H130 H 0.1159 -0.1597 -0.3553
C141 C 0.1199(9) -0.1249(7) -0.4152(7)
H131 H 0.1210 -0.1607 -0.4459
H132 H 0.1543 -0.0924 -0.4198
C142 C 0.0377(8) -0.1154(6) -0.4240(6)
H133 H 0.0380 -0.0761 -0.3985
H134 H 0.0227 -0.1172 -0.4630
C143 C -0.0221(8) -0.1601(6) -0.4133(6)
H135 H -0.0173 -0.1994 -0.4348
H136 H -0.0111 -0.1545 -0.3729
C144 C -0.1033(8) -0.1564(5) -0.4295(6)
H137 H -0.1172 -0.1680 -0.4708
H138 H -0.1372 -0.1842 -0.4184
C145 C 0.1598(6) 0.1576(4) -0.3608(5)
H139 H 0.2054 0.1748 -0.3303
H140 H 0.1697 0.1703 -0.3923
C146 C 0.0919(6) 0.1789(4) -0.3394(4)
H141 H 0.1036 0.2221 -0.3262
C147 C 0.1434(5) 0.0905(4) -0.3810(4)
H142 H 0.1876 0.0767 -0.3945
C148 C -0.0121(5) 0.0659(4) -0.3587(4)
C149 C -0.1790(5) 0.0209(3) -0.4415(4)
H143 H -0.1689 0.0619 -0.4274
C150 C -0.2350(5) -0.0113(4) -0.4905(4)
C151 C -0.2521(5) -0.0727(4) -0.5098(4)
H144 H -0.2920 -0.0946 -0.5413
C152 C -0.2108(6) -0.1012(3) -0.4829(4)
H145 H -0.2205 -0.1422 -0.4975
C153 C -0.1539(5) -0.0685(3) -0.4333(3)
C154 C -0.1380(5) -0.0073(3) -0.4134(3)
C155 C -0.0724(7) 0.0246(5) -0.3617(5)
C156 C -0.0997(7) -0.1009(3) -0.3065(4)
H146 H -0.1087 -0.1419 -0.3220
C157 C -0.0889(7) -0.0726(3) -0.2481(3)
H147 H -0.0911 -0.0946 -0.2244
C158 C -0.0748(6) -0.0114(4) -0.2243(3)
C159 C -0.0712(6) 0.0215(3) -0.2602(3)
H148 H -0.0640 0.0623 -0.2447
C160 C -0.2732(7) 0.0183(5) -0.5229(5)
C161 C -0.3014(7) 0.0417(5) -0.5526(5)
C162 C -0.3329(7) 0.0701(4) -0.5887(4)
C163 C -0.3829(6) 0.0704(4) -0.6804(4)
H149 H -0.3998 0.0512 -0.7199
C164 C -0.3808(6) 0.1296(4) -0.6560(4)
H150 H -0.3951 0.1499 -0.6794
C165 C -0.0656(9) 0.0170(5) -0.1634(3)
C166 C -0.0580(8) 0.0406(4) -0.1136(3)
C167 C -0.0174(7) 0.1335(4) -0.0311(4)
H151 H -0.0102 0.1529 -0.0566
C168 C -0.0420(8) 0.0727(4) -0.0531(4)
C169 C -0.0538(8) 0.0441(4) -0.0153(3)
H152 H -0.0713 0.0032 -0.0287
C170 C -0.0394(7) 0.0768(5) 0.0429(4)
H153 H -0.0465 0.0584 0.0693
loop_
_geom_bond_atom_site_label_1
_geom_bond_atom_site_label_2
_geom_bond_site_symmetry_1
_geom_bond_site_symmetry_2
Pd1 N1 1_555 1_555
Pd2 N3 1_555 1_555
C1 H1 1_555 1_555
C2 H2 1_555 1_555
H3 C2 1_555 1_555
C3 C2 1_555 1_555
H4 C3 1_555 1_555
C4 C2 1_555 1_555
H5 C4 1_555 1_555
C5 C3 1_555 1_555
H6 C5 1_555 1_555
H7 C5 1_555 1_555
C6 C4 1_555 1_555
H8 C6 1_555 1_555
H9 C6 1_555 1_555
C7 C3 1_555 1_555
H10 C7 1_555 1_555
H11 C7 1_555 1_555
C8 C4 1_555 1_555
H12 C8 1_555 1_555
H13 C8 1_555 1_555
C9 C5 1_555 1_555
H14 C9 1_555 1_555
C10 C7 1_555 1_555
H15 C10 1_555 1_555
C11 H16 1_555 1_555
C12 C11 1_555 1_555
C13 C12 1_555 1_555
H17 C13 1_555 1_555
C14 C12 1_555 1_555
C15 C14 1_555 1_555
N1 C1 1_555 1_555
N2 C19 1_555 1_555
N3 C36 1_555 1_555
C16 C17 1_555 1_555
C17 H18 1_555 1_555
H19 C17 1_555 1_555
C18 C17 1_555 1_555
H20 C18 1_555 1_555
H21 C18 1_555 1_555
C19 C18 1_555 1_555
H22 C19 1_555 1_555
H23 C19 1_555 1_555
C20 C9 1_555 1_555
C21 H24 1_555 1_555
C22 C21 1_555 1_555
C23 C22 1_555 1_555
H25 C23 1_555 1_555
C24 C23 1_555 1_555
H26 C24 1_555 1_555
C25 N2 1_555 1_555
C26 C21 1_555 1_555
C27 C20 1_555 1_555
C28 C27 1_555 1_555
C29 N2 1_555 1_555
C30 C29 1_555 1_555
H27 C30 1_555 1_555
C31 C30 1_555 1_555
H28 C31 1_555 1_555
C32 C15 1_555 1_555
C33 C28 1_555 1_555
H29 C33 1_555 1_555
C34 C22 1_555 1_555
C35 C34 1_555 1_555
C36 H30 1_555 1_555
C37 C35 1_555 1_555
C38 C37 1_555 1_555
H31 C38 1_555 1_555
C39 C38 1_555 1_555
H32 C39 1_555 1_555
C40 N3 1_555 1_555
H33 C40 1_555 1_555
C41 C1 1_555 1_555
H34 C41 1_555 1_555
C42 C80 1_555 1_555
C43 H35 1_555 1_555
H36 C43 1_555 1_555
C44 C43 1_555 1_555
H37 C44 1_555 1_555
C45 C43 1_555 1_555
H38 C45 1_555 1_555
C46 C44 1_555 1_555
H39 C46 1_555 1_555
H40 C46 1_555 1_555
C47 C45 1_555 1_555
H41 C47 1_555 1_555
H42 C47 1_555 1_555
C48 C44 1_555 1_555
H43 C48 1_555 1_555
H44 C48 1_555 1_555
C49 C45 1_555 1_555
H45 C49 1_555 1_555
H46 C49 1_555 1_555
C50 C46 1_555 1_555
H47 C50 1_555 1_555
C51 C48 1_555 1_555
H48 C51 1_555 1_555
N4 Pd1 1_555 1_555
N5 C58 1_555 1_555
N6 Pd2 1_555 1_555
C52 C59 1_555 1_555
C53 H49 1_555 1_555
H50 C53 1_555 1_555
H51 C53 1_555 1_555
C54 C53 1_555 1_555
H52 C54 1_555 1_555
H53 C54 1_555 1_555
C55 C54 1_555 1_555
H54 C55 1_555 1_555
C56 C55 1_555 1_555
H55 C56 1_555 1_555
C57 C56 1_555 1_555
H56 C57 1_555 1_555
C58 C57 1_555 1_555
H57 C58 1_555 1_555
C59 C50 1_555 1_555
C60 H58 1_555 1_555
C61 C60 1_555 1_555
C62 C61 1_555 1_555
H59 C62 1_555 1_555
C63 C62 1_555 1_555
H60 C63 1_555 1_555
C64 N5 1_555 1_555
C65 C52 1_555 1_555
C66 C52 1_555 1_555
C67 N5 1_555 1_555
C68 C67 1_555 1_555
H61 C68 1_555 1_555
C69 C68 1_555 1_555
H62 C69 1_555 1_555
C70 C69 1_555 1_555
C71 C66 1_555 1_555
H63 C71 1_555 1_555
C72 C61 1_555 1_555
C73 C72 1_555 1_555
C74 N6 1_555 1_555
H64 C74 1_555 1_555
C75 C73 1_555 1_555
C76 C75 1_555 1_555
H65 C76 1_555 1_555
C77 C76 1_555 1_555
H66 C77 1_555 1_555
C78 N6 1_555 1_555
H67 C78 1_555 1_555
C79 C70 1_555 1_555
C80 C79 1_555 1_555
C81 C42 1_555 1_555
H68 C81 1_555 1_555
C82 C42 1_555 1_555
H69 C82 1_555 1_555
C83 C82 1_555 1_555
H70 C83 1_555 1_555
C84 N4 1_555 1_555
H71 C84 1_555 1_555
C85 H72 1_555 1_555
C86 H73 1_555 1_555
H74 C86 1_555 1_555
C87 C86 1_555 1_555
H75 C87 1_555 1_555
C88 C86 1_555 1_555
H76 C88 1_555 1_555
C89 C87 1_555 1_555
H77 C89 1_555 1_555
H78 C89 1_555 1_555
C90 C88 1_555 1_555
H79 C90 1_555 1_555
H80 C90 1_555 1_555
C91 C87 1_555 1_555
H81 C91 1_555 1_555
H82 C91 1_555 1_555
C92 C88 1_555 1_555
H83 C92 1_555 1_555
H84 C92 1_555 1_555
C93 C89 1_555 1_555
H85 C93 1_555 1_555
C94 C91 1_555 1_555
H86 C94 1_555 1_555
N7 Pd1 1_555 1_555
N8 Pd2 1_555 1_555
N9 C103 1_555 1_555
C95 C124 1_555 1_555
C96 C97 1_555 1_555
C97 N8 1_555 1_555
H87 C97 1_555 1_555
C98 H88 1_555 1_555
H89 C98 1_555 1_555
H90 C98 1_555 1_555
C99 C98 1_555 1_555
H91 C99 1_555 1_555
H92 C99 1_555 1_555
C100 C99 1_555 1_555
H93 C100 1_555 1_555
H94 C100 1_555 1_555
C101 C100 1_555 1_555
H95 C101 1_555 1_555
H96 C101 1_555 1_555
C102 C101 1_555 1_555
H97 C102 1_555 1_555
H98 C102 1_555 1_555
C103 C102 1_555 1_555
H99 C103 1_555 1_555
H100 C103 1_555 1_555
C104 C93 1_555 1_555
C105 H101 1_555 1_555
C106 C105 1_555 1_555
C107 C106 1_555 1_555
H102 C107 1_555 1_555
C108 C107 1_555 1_555
H103 C108 1_555 1_555
C109 N9 1_555 1_555
C110 C105 1_555 1_555
C111 C104 1_555 1_555
C112 C111 1_555 1_555
C113 N9 1_555 1_555
C114 C113 1_555 1_555
H104 C114 1_555 1_555
C115 C114 1_555 1_555
H105 C115 1_555 1_555
C116 C115 1_555 1_555
C117 C112 1_555 1_555
H106 C117 1_555 1_555
C118 C106 1_555 1_555
C119 C96 1_555 1_555
C120 C96 1_555 1_555
H107 C120 1_555 1_555
C121 C120 1_555 1_555
H108 C121 1_555 1_555
C122 N8 1_555 1_555
H109 C122 1_555 1_555
C123 C116 1_555 1_555
C124 C123 1_555 1_555
C125 N7 1_555 1_555
H110 C125 1_555 1_555
C126 C95 1_555 1_555
H111 C126 1_555 1_555
C127 C85 1_555 1_555
H112 C127 1_555 1_555
C128 H113 1_555 1_555
C129 H114 1_555 1_555
H115 C129 1_555 1_555
C130 H116 1_555 1_555
H117 C130 1_555 1_555
C131 H118 1_555 1_555
H119 C131 1_555 1_555
C132 H120 1_555 1_555
H121 C132 1_555 1_555
C133 C129 1_555 1_555
H122 C133 1_555 1_555
C134 C131 1_555 1_555
H123 C134 1_555 1_555
N10 Pd1 1_555 1_555
N11 Pd2 1_555 1_555
N12 C137 1_555 1_555
C135 H124 1_555 1_555
C136 N11 1_555 1_555
H125 C136 1_555 1_555
C137 C138 1_555 1_555
C138 C155 1_555 1_555
C139 H126 1_555 1_555
H127 C139 1_555 1_555
H128 C139 1_555 1_555
C140 C139 1_555 1_555
H129 C140 1_555 1_555
H130 C140 1_555 1_555
C141 C140 1_555 1_555
H131 C141 1_555 1_555
H132 C141 1_555 1_555
C142 C141 1_555 1_555
H133 C142 1_555 1_555
H134 C142 1_555 1_555
C143 C142 1_555 1_555
H135 C143 1_555 1_555
H136 C143 1_555 1_555
C144 N12 1_555 1_555
H137 C144 1_555 1_555
H138 C144 1_555 1_555
C145 H139 1_555 1_555
H140 C145 1_555 1_555
C146 C129 1_555 1_555
H141 C146 1_555 1_555
C147 C130 1_555 1_555
H142 C147 1_555 1_555
C148 C133 1_555 1_555
C149 H143 1_555 1_555
C150 C149 1_555 1_555
C151 C150 1_555 1_555
H144 C151 1_555 1_555
C152 C151 1_555 1_555
H145 C152 1_555 1_555
C153 N12 1_555 1_555
C154 C149 1_555 1_555
C155 C148 1_555 1_555
C156 C137 1_555 1_555
H146 C156 1_555 1_555
C157 C156 1_555 1_555
H147 C157 1_555 1_555
C158 C157 1_555 1_555
C159 C138 1_555 1_555
H148 C159 1_555 1_555
C160 C150 1_555 1_555
C161 C160 1_555 1_555
C162 C135 1_555 1_555
C163 C135 1_555 1_555
H149 C163 1_555 1_555
C164 N11 1_555 1_555
H150 C164 1_555 1_555
C165 C158 1_555 1_555
C166 C165 1_555 1_555
C167 N10 1_555 1_555
H151 C167 1_555 1_555
C168 C166 1_555 1_555
C169 C168 1_555 1_555
H152 C169 1_555 1_555
C170 C128 1_555 1_555
H153 C170 1_555 1_555
Fe1 C171 1_555 1_555
S1 C175 1_555 1_555
C171 H154 1_555 1_555
C172 Fe1 1_555 1_555
H155 C172 1_555 1_555
C173 Fe1 1_555 1_555
H156 C173 1_555 1_555
C174 Fe1 1_555 1_555
H157 C174 1_555 1_555
C175 Fe1 1_555 1_555
O1 S1 1_555 1_555
O2 S1 1_555 1_555
O3 S1 1_555 1_555
C176 Fe1 1_555 1_555
C177 Fe1 1_555 1_555
H158 C177 1_555 1_555
C178 Fe1 1_555 1_555
H159 C178 1_555 1_555
S2 C176 1_555 1_555
O4 S2 1_555 1_555
O5 S2 1_555 1_555
O6 S2 1_555 1_555
C179 Fe1 1_555 1_555
H160 C179 1_555 1_555
C180 Fe1 1_555 1_555
H161 C180 1_555 1_555
Fe2 C181 1_555 1_555
S3 C185 1_555 1_555
C181 H162 1_555 1_555
C182 Fe2 1_555 1_555
H163 C182 1_555 1_555
C183 Fe2 1_555 1_555
H164 C183 1_555 1_555
C184 Fe2 1_555 1_555
H165 C184 1_555 1_555
C185 Fe2 1_555 1_555
O7 S3 1_555 1_555
O8 S3 1_555 1_555
O9 S3 1_555 1_555
C186 Fe2 1_555 1_555
O10 S4 1_555 1_555
S4 C186 1_555 1_555
O11 S4 1_555 1_555
O12 S4 1_555 1_555
C187 Fe2 1_555 1_555
H166 C187 1_555 1_555
C188 Fe2 1_555 1_555
H167 C188 1_555 1_555
C189 Fe2 1_555 1_555
H168 C189 1_555 1_555
C190 Fe2 1_555 1_555
H169 C190 1_555 1_555
O13 C191 1_555 1_555
C191 H170 1_555 1_555
H171 C191 1_555 1_555
H172 C191 1_555 1_555
O14 H173 1_555 1_555
H174 O14 1_555 1_555
C192 H175 1_555 1_555
H176 C192 1_555 1_555
H177 C192 1_555 1_555
O15 C192 1_555 1_555
C6 C9 1_555 1_555
C8 C10 1_555 1_555
C10 C20 1_555 1_555
C11 C41 1_555 1_555
C13 N1 1_555 1_555
C24 C25 1_555 1_555
C25 C26 1_555 1_555
C26 C27 1_555 1_555
C28 C29 1_555 1_555
C31 C32 1_555 1_555
C32 C33 1_555 1_555
C36 C37 1_555 1_555
C39 C40 1_555 1_555
C47 C50 1_555 1_555
C49 C51 1_555 1_555
C51 C59 1_555 1_555
N4 C81 1_555 1_555
C60 C65 1_555 1_555
C63 C64 1_555 1_555
C64 C65 1_555 1_555
C66 C67 1_555 1_555
C70 C71 1_555 1_555
C74 C75 1_555 1_555
C77 C78 1_555 1_555
C83 C84 1_555 1_555
C85 N7 1_555 1_555
C90 C93 1_555 1_555
C92 C94 1_555 1_555
C94 C104 1_555 1_555
C95 C125 1_555 1_555
C108 C109 1_555 1_555
C109 C110 1_555 1_555
C110 C111 1_555 1_555
C112 C113 1_555 1_555
C116 C117 1_555 1_555
C118 C119 1_555 1_555
C121 C122 1_555 1_555
C126 C127 1_555 1_555
C128 N10 1_555 1_555
C130 C133 1_555 1_555
C131 C146 1_555 1_555
C132 C134 1_555 1_555
C132 C147 1_555 1_555
C134 C148 1_555 1_555
C136 C162 1_555 1_555
C143 C144 1_555 1_555
C145 C146 1_555 1_555
C145 C147 1_555 1_555
C152 C153 1_555 1_555
C153 C154 1_555 1_555
C154 C155 1_555 1_555
C158 C159 1_555 1_555
C161 C162 1_555 1_555
C163 C164 1_555 1_555
C167 C168 1_555 1_555
C169 C170 1_555 1_555
C171 C172 1_555 1_555
C171 C175 1_555 1_555
C172 C173 1_555 1_555
C173 C174 1_555 1_555
C174 C175 1_555 1_555
C176 C177 1_555 1_555
C176 C179 1_555 1_555
C177 C178 1_555 1_555
C178 C180 1_555 1_555
C179 C180 1_555 1_555
C181 C182 1_555 1_555
C181 C185 1_555 1_555
C182 C183 1_555 1_555
C183 C184 1_555 1_555
C184 C185 1_555 1_555
C186 C187 1_555 1_555
C186 C190 1_555 1_555
C187 C188 1_555 1_555
C188 C189 1_555 1_555
C189 C190 1_555 1_555

#END
