
#######################################################################
#
#                 Cambridge Crystallographic Data Centre
#                                CCDC 
#
#######################################################################
#
# If this CIF has been generated from an entry in the Cambridge 
# Structural Database, then it will include bibliographic, chemical, 
# crystal, experimental, refinement or atomic coordinate data resulting 
# from the CCDC's data processing and validation procedures.
#
#######################################################################

data_ALEPOY
_chemical_formula_moiety         
'C172 H164 N12 Pd2 4+,C10 H6 O6 S2 2-,2(B1 F4 1-),2(C2 H3 N1)'
_chemical_name_systematic        
'tetrakis(\m~2~-10-Hexyl-2,7-bis(pyridin-3-ylethynyl)-9-(tricyclo[3.3.1.1^3,7^]decan-2-ylidene)-9,10-dihydroacridine)-di-palladium(ii) naphthalene-2,7-disulfonate bis(tetrafluoroborate) acetonitrile unknown solvate'
_symmetry_cell_setting           triclinic
_symmetry_space_group_name_H-M   'P -1'
_symmetry_Int_Tables_number      2
_space_group_name_Hall           '-P 1'
loop_
_symmetry_equiv_pos_site_id
_symmetry_equiv_pos_as_xyz
1 x,y,z
2 -x,-y,-z
_cell_length_a                   15.190(3)
_cell_length_b                   18.168(4)
_cell_length_c                   18.770(4)
_cell_angle_alpha                64.90(3)
_cell_angle_beta                 79.12(3)
_cell_angle_gamma                76.17(3)
_cell_volume                     4532.32
_exptl_crystal_colour            colorless
_exptl_crystal_description       plate
_cell_formula_units_Z            1
_chemical_properties_physical    'Air-sensitive, Moisture-sensitive'
_exptl_crystal_recrystallization_method Acetonitrile
loop_
_atom_site_label
_atom_site_type_symbol
_atom_site_fract_x
_atom_site_fract_y
_atom_site_fract_z
C87 C 0.95812(2) 1.00049(2) 0.56654(2)
H81 H 0.9498 1.0539 0.5668
C88 C 0.93043(2) 0.93761(2) 0.63510(2)
C89 C 0.94360(2) 0.85882(2) 0.63306(2)
H82 H 0.9256 0.8138 0.6787
C90 C 0.98269(2) 0.84662(2) 0.56469(2)
C91 C 1.01019(2) 0.91180(2) 0.49583(2)
C92 C 0.99750(2) 0.99044(2) 0.49702(2)
C93 C 1.02478(2) 1.05514(2) 0.42869(2)
H83 H 1.0160 1.1082 0.4300
C94 C 1.06414(2) 1.04629(2) 0.35888(2)
C95 C 1.07645(2) 0.96700(2) 0.35858(2)
H84 H 1.1031 0.9582 0.3122
C96 C 1.04970(2) 0.90132(2) 0.42620(2)
S1 S 0.87923(2) 0.95188(2) 0.71363(2)
O1 O 0.7895(3) 0.9938(3) 0.6867(3)
O2 O 0.8691(4) 0.8751(3) 0.7826(3)
O3 O 0.9210(3) 1.0027(2) 0.7344(3)
S2 S 1.10821(2) 1.11066(2) 0.28322(2)
O4 O 1.0796(4) 1.1245(4) 0.2107(2)
O5 O 1.2050(3) 1.0691(4) 0.2893(4)
O6 O 1.1002(5) 1.1880(2) 0.2937(3)
C87A C 1.04188(2) 0.99951(2) 0.43346(2)
H81A H 1.0502 0.9461 0.4332
C88A C 1.06957(2) 1.06239(2) 0.36490(2)
C89A C 1.05640(2) 1.14118(2) 0.36694(2)
H82A H 1.0744 1.1862 0.3213
C90A C 1.01731(2) 1.15338(2) 0.43531(2)
C91A C 0.98981(2) 1.08820(2) 0.50417(2)
C92A C 1.00250(2) 1.00956(2) 0.50298(2)
C93A C 0.97522(2) 0.94486(2) 0.57131(2)
H83A H 0.9840 0.8918 0.5700
C94A C 0.93586(2) 0.95371(2) 0.64112(2)
C95A C 0.92355(2) 1.03300(2) 0.64142(2)
H84A H 0.8969 1.0418 0.6878
C96A C 0.95030(2) 1.09868(2) 0.57380(2)
S1A S 1.12077(2) 1.04812(2) 0.28637(2)
O1A O 1.2105(3) 1.0062(3) 0.3133(3)
O2A O 1.1309(4) 1.1249(3) 0.2174(3)
O3A O 1.0790(3) 0.9973(2) 0.2656(3)
S2A S 0.89179(2) 0.88934(2) 0.71678(2)
O4A O 0.9204(4) 0.8755(4) 0.7893(2)
O5A O 0.7950(3) 0.9309(4) 0.7107(4)
O6A O 0.8998(5) 0.8120(2) 0.7063(3)
C97 C 1.0979(4) 0.7148(2) 0.9309(2)
C98 C 1.1188(4) 0.7757(3) 0.8515(2)
H85 H 1.1810 0.7853 0.8461
H86 H 1.0758 0.8277 0.8430
H87 H 1.1137 0.7550 0.8123
N7 N 1.0721(3) 0.6707(2) 0.99204(19)
B1 B 0.5825(4) 0.6966(3) 0.1524(2)
F1 F 0.6746(2) 0.6998(2) 0.13555(18)
F2 F 0.5592(2) 0.66155(16) 0.22632(15)
F3 F 0.5885(3) 0.63254(18) 0.11750(17)
F4 F 0.5353(3) 0.7608(2) 0.1043(2)
Pd1 Pd 0.75280(2) 0.80449(2) 0.94288(2)
C1 C 0.7886(2) 0.62286(16) 1.00157(16)
H1 H 0.7366 0.6275 1.0375
C2 C 1.3193(2) 1.00278(15) 0.6158(2)
H2 H 1.3432 1.0517 0.5751
H3 H 1.3009 1.0120 0.6653
C3 C 1.3917(2) 0.92713(17) 0.62969(17)
H4 H 1.4456 0.9342 0.6481
C4 C 1.2375(2) 0.99124(15) 0.58857(16)
H5 H 1.1889 1.0415 0.5792
C5 C 1.2660(3) 0.97688(16) 0.51262(15)
H6 H 1.2126 0.9691 0.4951
H7 H 1.2885 1.0259 0.4706
C6 C 1.4202(2) 0.91428(19) 0.55285(18)
H8 H 1.4440 0.9631 0.5117
H9 H 1.4694 0.8654 0.5612
C7 C 1.3547(2) 0.85160(18) 0.69184(18)
H10 H 1.4031 0.8021 0.7014
H11 H 1.3362 0.8591 0.7422
C8 C 1.2006(2) 0.91557(15) 0.65109(18)
H12 H 1.1808 0.9235 0.7011
H13 H 1.1471 0.9085 0.6331
C9 C 1.3398(2) 0.90161(14) 0.52551(16)
H14 H 1.3588 0.8934 0.4750
C10 C 1.2741(2) 0.83899(14) 0.66504(14)
H15 H 1.2503 0.7894 0.7063
C11 C 1.3045(2) 0.82694(13) 0.58804(15)
C12 C 1.3307(2) 0.79008(16) 0.43191(16)
H16 H 1.2901 0.8414 0.4215
C13 C 1.3745(2) 0.76904(16) 0.36808(16)
C14 C 1.4298(2) 0.69183(15) 0.38526(17)
H17 H 1.4593 0.6761 0.3432
C15 C 1.4423(2) 0.63845(15) 0.46108(15)
H18 H 1.4795 0.5857 0.4710
C16 C 1.40148(19) 0.65960(14) 0.52497(16)
C17 C 1.3453(2) 0.73758(14) 0.50947(16)
C18 C 1.3040(2) 0.75589(15) 0.58005(16)
C19 C 1.2745(2) 0.68120(15) 0.64516(15)
C20 C 1.3337(2) 0.60540(15) 0.65811(15)
C21 C 1.3145(2) 0.53428(15) 0.72041(15)
H19 H 1.3562 0.4836 0.7304
C22 C 1.2358(2) 0.53748(16) 0.76701(16)
H20 H 1.2234 0.4883 0.8104
C23 C 1.1726(2) 0.60880(15) 0.75443(15)
C24 C 1.1930(2) 0.68177(15) 0.69169(15)
H21 H 1.1502 0.7318 0.6814
C25 C 1.3629(2) 0.87519(17) 0.22186(18)
C26 C 1.3183(2) 1.01945(16) 0.13488(16)
H22 H 1.2925 1.0297 0.1807
C27 C 1.3595(2) 0.93907(17) 0.14347(17)
C28 C 1.3967(2) 0.92537(18) 0.07547(17)
H23 H 1.4263 0.8717 0.0790
C29 C 1.3900(2) 0.99068(17) 0.00327(17)
H24 H 1.4137 0.9823 -0.0439
C30 C 1.3489(2) 1.06789(17) -0.00053(16)
H25 H 1.3449 1.1129 -0.0506
C31 C 1.0881(3) 0.60917(17) 0.80422(18)
C32 C 1.0211(3) 0.60635(18) 0.84665(18)
C33 C 0.8912(2) 0.68437(17) 0.90130(15)
H26 H 0.9119 0.7337 0.8651
C34 C 0.9391(2) 0.60887(17) 0.89904(17)
C35 C 0.9047(2) 0.53769(17) 0.95284(17)
H27 H 0.9331 0.4848 0.9536
C36 C 0.8302(2) 0.54598(17) 1.00356(16)
H28 H 0.8067 0.4984 1.0406
C37 C 1.3632(2) 0.82859(17) 0.28964(17)
C38 C 1.4895(2) 0.53601(19) 0.62235(16)
H29 H 1.5298 0.5397 0.5734
H30 H 1.4665 0.4833 0.6439
C39 C 1.5442(3) 0.5367(4) 0.6827(3)
H31 H 1.5023 0.5434 0.7277
H32 H 1.5773 0.5837 0.6578
C40 C 1.6124(3) 0.4553(3) 0.7127(3)
H33 H 1.6399 0.4497 0.7589
H34 H 1.5824 0.4073 0.7277
C41 C 1.6837(4) 0.4617(4) 0.6429(4)
H35 H 1.6521 0.4652 0.5998
H36 H 1.7267 0.4084 0.6586
C42 C 1.7421(3) 0.5303(3) 0.6061(3)
H37 H 1.7933 0.5166 0.5699
H38 H 1.7047 0.5837 0.5757
C43 C 1.7785(4) 0.5358(4) 0.6742(3)
H39 H 1.8157 0.5792 0.6528
H40 H 1.8158 0.4828 0.7036
H41 H 1.7272 0.5491 0.7098
N1 N 0.81933(18) 0.68998(13) 0.95094(12)
N2 N 1.41185(18) 0.60571(13) 0.60341(13)
N3 N 1.31422(17) 1.08124(13) 0.06519(12)
C44 C 0.6306(4) 0.7724(2) 0.7098(2)
C45 C 1.1421(3) 0.6551(2) 0.4973(3)
H42 H 1.2015 0.6578 0.4646
H43 H 1.1535 0.6191 0.5529
C46 C 1.0823(3) 0.6192(2) 0.4692(2)
H44 H 1.1129 0.5624 0.4736
C47 C 1.0960(3) 0.7413(2) 0.4913(2)
H45 H 1.1355 0.7650 0.5100
C48 C 1.0802(3) 0.7955(2) 0.4052(2)
H46 H 1.1393 0.7986 0.3721
C49 C 1.0676(4) 0.6739(2) 0.38422(19)
H47 H 1.0301 0.6502 0.3644
H48 H 1.1270 0.6771 0.3515
C50 C 0.9914(3) 0.6149(2) 0.5206(3)
H49 H 0.9524 0.5900 0.5036
H50 H 1.0019 0.5795 0.5765
C51 C 1.0056(3) 0.7352(2) 0.5425(2)
H51 H 1.0164 0.6989 0.5981
C52 C 1.0200(2) 0.7593(2) 0.3774(2)
H52 H 1.0097 0.7950 0.3209
C53 C 0.9443(3) 0.7002(2) 0.5136(2)
H53 H 0.8843 0.6974 0.5466
C54 C 0.9300(2) 0.7560(3) 0.4276(2)
C55 C 0.8845(3) 0.90664(17) 0.26053(18)
H54 H 0.9319 0.9187 0.2782
C56 C 0.6660(3) 0.72734(16) 0.31663(18)
H55 H 0.6840 0.7387 0.2600
H56 H 0.6000 0.7490 0.3228
C57 C 0.6830(2) 0.63537(17) 0.3637(2)
H57 H 0.6574 0.6245 0.4191
H58 H 0.6491 0.6100 0.3427
C58 C 0.7794(2) 0.5936(2) 0.3641(2)
H59 H 0.7814 0.5332 0.3904
H60 H 0.8104 0.6092 0.3962
C59 C 0.8316(3) 0.6129(2) 0.2843(2)
H61 H 0.8463 0.6689 0.2644
H62 H 0.7929 0.6131 0.2473
C60 C 0.9189(3) 0.5515(3) 0.2855(2)
H63 H 0.9036 0.4961 0.3029
H64 H 0.9556 0.5490 0.3252
C61 C 0.9770(4) 0.5717(3) 0.2059(3)
H65 H 1.0322 0.5294 0.2113
H66 H 0.9942 0.6258 0.1888
H67 H 0.9420 0.5729 0.1665
C62 C 0.8650(3) 0.95148(18) 0.18248(18)
C63 C 0.7934(3) 0.93423(19) 0.15792(19)
H68 H 0.7795 0.9639 0.1047
C64 C 0.7427(3) 0.87539(18) 0.20904(17)
H69 H 0.6932 0.8658 0.1918
C65 C 0.7652(2) 0.83033(16) 0.28614(17)
C66 C 0.8375(2) 0.84491(16) 0.31361(17)
C67 C 0.8563(3) 0.7916(2) 0.3970(2)
C68 C 0.7683(3) 0.78057(18) 0.44766(18)
C69 C 0.7012(3) 0.76479(17) 0.41931(17)
C70 C 0.6210(3) 0.74728(19) 0.46491(18)
H70 H 0.5759 0.7345 0.4452
C71 C 0.6054(3) 0.74817(18) 0.53978(19)
H71 H 0.5499 0.7355 0.5713
C72 C 0.6702(3) 0.76736(18) 0.56892(19)
C73 C 0.7494(3) 0.78440(18) 0.52380(19)
H72 H 0.7932 0.7992 0.5430
C74 C 0.9169(3) 1.01200(19) 0.12869(19)
C75 C 0.9636(3) 1.0570(2) 0.08134(19)
C76 C 1.0915(2) 1.12911(17) 0.05647(17)
H73 H 1.0997 1.1005 0.1111
C77 C 1.0217(2) 1.11508(18) 0.02708(18)
C78 C 1.0129(3) 1.1538(2) -0.05163(19)
H74 H 0.9673 1.1439 -0.0731
C79 C 1.0702(2) 1.2070(2) -0.0998(2)
H75 H 1.0644 1.2345 -0.1549
C80 C 0.6733(3) 0.79166(17) 0.81930(16)
H76 H 0.7287 0.8071 0.7893
C81 C 0.6112(3) 0.7712(2) 0.78532(18)
C82 C 0.5329(3) 0.7475(2) 0.8327(2)
H77 H 0.4903 0.7314 0.8133
C83 C 0.5162(3) 0.7469(2) 0.9071(2)
H78 H 0.4619 0.7312 0.9392
C84 C 0.5782(2) 0.76898(19) 0.93474(19)
H79 H 0.5654 0.7696 0.9861
C85 C 1.1353(2) 1.22004(18) -0.06832(17)
H80 H 1.1745 1.2575 -0.1021
C86 C 0.6500(4) 0.7724(2) 0.6460(2)
N4 N 0.65510(19) 0.78954(13) 0.89306(12)
N5 N 1.14636(19) 1.18136(13) 0.00997(13)
N6 N 0.7156(2) 0.77047(14) 0.34073(14)
Pd1A Pd 1.24720(2) 1.19551(2) 0.05712(2)
C1A C 1.2114(2) 1.37714(16) -0.00157(16)
H1A H 1.2634 1.3725 -0.0375
C2A C 0.6807(2) 0.99722(15) 0.3842(2)
H2A H 0.6568 0.9483 0.4249
H3A H 0.6991 0.9880 0.3347
C3A C 0.6083(2) 1.07287(17) 0.37031(17)
H4A H 0.5544 1.0658 0.3519
C4A C 0.7625(2) 1.00876(15) 0.41143(16)
H5A H 0.8111 0.9585 0.4208
C5A C 0.7340(3) 1.02312(16) 0.48738(15)
H6A H 0.7874 1.0309 0.5049
H7A H 0.7115 0.9741 0.5294
C6A C 0.5798(2) 1.08572(19) 0.44715(18)
H8A H 0.5560 1.0369 0.4883
H9A H 0.5306 1.1346 0.4388
C7A C 0.6453(2) 1.14840(18) 0.30816(18)
H10A H 0.5969 1.1979 0.2986
H11A H 0.6638 1.1409 0.2578
C8A C 0.7994(2) 1.08443(15) 0.34891(18)
H12A H 0.8192 1.0765 0.2989
H13A H 0.8529 1.0915 0.3669
C9A C 0.6602(2) 1.09839(14) 0.47449(16)
H14A H 0.6412 1.1066 0.5250
C10A C 0.7259(2) 1.16101(14) 0.33496(14)
H15A H 0.7497 1.2106 0.2937
C11A C 0.6955(2) 1.17306(13) 0.41196(15)
C12A C 0.6693(2) 1.20992(16) 0.56809(16)
H16A H 0.7099 1.1586 0.5785
C13A C 0.6255(2) 1.23096(16) 0.63192(16)
C14A C 0.5702(2) 1.30817(15) 0.61474(17)
H17A H 0.5407 1.3239 0.6568
C15A C 0.5577(2) 1.36155(15) 0.53892(15)
H18A H 0.5205 1.4143 0.5290
C16A C 0.59852(19) 1.34040(14) 0.47503(16)
C17A C 0.6547(2) 1.26242(14) 0.49053(16)
C18A C 0.6960(2) 1.24411(15) 0.41995(16)
C19A C 0.7255(2) 1.31880(15) 0.35484(15)
C20A C 0.6663(2) 1.39460(15) 0.34189(15)
C21A C 0.6855(2) 1.46572(15) 0.27959(15)
H19A H 0.6438 1.5164 0.2696
C22A C 0.7642(2) 1.46252(16) 0.23299(16)
H20A H 0.7766 1.5117 0.1896
C23A C 0.8274(2) 1.39120(15) 0.24557(15)
C24A C 0.8070(2) 1.31823(15) 0.30831(15)
H21A H 0.8498 1.2682 0.3186
C25A C 0.6371(2) 1.12481(17) 0.77814(18)
C26A C 0.6817(2) 0.98055(16) 0.86512(16)
H22A H 0.7075 0.9703 0.8193
C27A C 0.6405(2) 1.06093(17) 0.85653(17)
C28A C 0.6033(2) 1.07463(18) 0.92453(17)
H23A H 0.5737 1.1283 0.9210
C29A C 0.6100(2) 1.00932(17) 0.99673(17)
H24A H 0.5863 1.0177 1.0439
C30A C 0.6511(2) 0.93211(17) 1.00053(16)
H25A H 0.6551 0.8871 1.0506
C31A C 0.9119(3) 1.39083(17) 0.19578(18)
C32A C 0.9789(3) 1.39365(18) 0.15335(18)
C33A C 1.1088(2) 1.31563(17) 0.09870(15)
H26A H 1.0881 1.2663 0.1349
C34A C 1.0609(2) 1.39113(17) 0.10096(17)
C35A C 1.0953(2) 1.46231(17) 0.04716(17)
H27A H 1.0669 1.5152 0.0464
C36A C 1.1698(2) 1.45402(17) -0.00356(16)
H28A H 1.1933 1.5016 -0.0406
C37A C 0.6368(2) 1.17141(17) 0.71036(17)
C38A C 0.5105(2) 1.46399(19) 0.37765(16)
H29A H 0.4702 1.4603 0.4266
H30A H 0.5335 1.5167 0.3561
C39A C 0.4558(3) 1.4633(4) 0.3173(3)
H31A H 0.4977 1.4566 0.2723
H32A H 0.4227 1.4163 0.3422
C40A C 0.3876(3) 1.5447(3) 0.2873(3)
H33A H 0.3601 1.5503 0.2411
H34A H 0.4176 1.5927 0.2723
C41A C 0.3163(4) 1.5383(4) 0.3571(4)
H35A H 0.3479 1.5348 0.4002
H36A H 0.2733 1.5916 0.3414
C42A C 0.2579(3) 1.4697(3) 0.3939(3)
H37A H 0.2067 1.4834 0.4301
H38A H 0.2953 1.4163 0.4243
C43A C 0.2215(4) 1.4642(4) 0.3258(3)
H39A H 0.1843 1.4208 0.3472
H40A H 0.1842 1.5172 0.2964
H41A H 0.2728 1.4509 0.2902
N1A N 1.18067(18) 1.31002(13) 0.04906(12)
N2A N 0.58815(18) 1.39429(13) 0.39659(13)
N3A N 0.68578(17) 0.91876(13) 0.93481(12)
C44A C 1.3694(4) 1.2276(2) 0.2902(2)
C45A C 0.8579(3) 1.3449(2) 0.5027(3)
H42A H 0.7985 1.3422 0.5354
H43A H 0.8465 1.3809 0.4471
C46A C 0.9177(3) 1.3808(2) 0.5308(2)
H44A H 0.8871 1.4376 0.5264
C47A C 0.9040(3) 1.2587(2) 0.5087(2)
H45A H 0.8645 1.2350 0.4900
C48A C 0.9198(3) 1.2045(2) 0.5948(2)
H46A H 0.8607 1.2014 0.6279
C49A C 0.9324(4) 1.3261(2) 0.61578(19)
H47A H 0.9699 1.3498 0.6356
H48A H 0.8730 1.3229 0.6485
C50A C 1.0086(3) 1.3851(2) 0.4794(3)
H49A H 1.0476 1.4100 0.4964
H50A H 0.9981 1.4205 0.4235
C51A C 0.9944(3) 1.2648(2) 0.4575(2)
H51A H 0.9836 1.3011 0.4019
C52A C 0.9800(2) 1.2407(2) 0.6226(2)
H52A H 0.9903 1.2050 0.6791
C53A C 1.0557(3) 1.2998(2) 0.4864(2)
H53A H 1.1157 1.3026 0.4534
C54A C 1.0700(2) 1.2440(3) 0.5724(2)
C55A C 1.1155(3) 1.09336(17) 0.73947(18)
H54A H 1.0681 1.0813 0.7218
C56A C 1.3340(3) 1.27266(16) 0.68337(18)
H55A H 1.3160 1.2613 0.7400
H56A H 1.4000 1.2510 0.6772
C57A C 1.3170(2) 1.36463(17) 0.6363(2)
H57A H 1.3426 1.3755 0.5809
H58A H 1.3509 1.3900 0.6573
C58A C 1.2206(2) 1.4064(2) 0.6359(2)
H59A H 1.2186 1.4668 0.6096
H60A H 1.1896 1.3908 0.6038
C59A C 1.1684(3) 1.3871(2) 0.7157(2)
H61A H 1.1537 1.3311 0.7356
H62A H 1.2071 1.3869 0.7527
C60A C 1.0811(3) 1.4485(3) 0.7145(2)
H63A H 1.0964 1.5039 0.6971
H64A H 1.0444 1.4510 0.6748
C61A C 1.0230(4) 1.4283(3) 0.7941(3)
H65A H 0.9678 1.4706 0.7887
H66A H 1.0058 1.3742 0.8112
H67A H 1.0580 1.4271 0.8335
C62A C 1.1350(3) 1.04852(18) 0.81752(18)
C63A C 1.2066(3) 1.06577(19) 0.84208(19)
H68A H 1.2205 1.0361 0.8953
C64A C 1.2573(3) 1.12461(18) 0.79096(17)
H69A H 1.3068 1.1342 0.8082
C65A C 1.2348(2) 1.16967(16) 0.71386(17)
C66A C 1.1625(2) 1.15509(16) 0.68639(17)
C67A C 1.1437(3) 1.2084(2) 0.6030(2)
C68A C 1.2317(3) 1.21943(18) 0.55234(18)
C69A C 1.2988(3) 1.23521(17) 0.58069(17)
C70A C 1.3790(3) 1.25272(19) 0.53509(18)
H70A H 1.4241 1.2655 0.5548
C71A C 1.3946(3) 1.25183(18) 0.46022(19)
H71A H 1.4501 1.2645 0.4287
C72A C 1.3298(3) 1.23264(18) 0.43108(19)
C73A C 1.2506(3) 1.21560(18) 0.47620(19)
H72A H 1.2068 1.2008 0.4570
C74A C 1.0831(3) 0.98800(19) 0.87131(19)
C75A C 1.0364(3) 0.9430(2) 0.91866(19)
C76A C 0.9085(2) 0.87089(17) 0.94353(17)
H73A H 0.9003 0.8995 0.8889
C77A C 0.9783(2) 0.88492(18) 0.97292(18)
C78A C 0.9871(3) 0.8462(2) 1.05163(19)
H74A H 1.0327 0.8561 1.0731
C79A C 0.9298(2) 0.7930(2) 1.0998(2)
H75A H 0.9356 0.7655 1.1549
C80A C 1.3267(3) 1.20834(17) 0.18070(16)
H76A H 1.2713 1.1929 0.2107
C81A C 1.3888(3) 1.2288(2) 0.21468(18)
C82A C 1.4671(3) 1.2525(2) 0.1673(2)
H77A H 1.5097 1.2686 0.1867
C83A C 1.4838(3) 1.2531(2) 0.0929(2)
H78A H 1.5381 1.2688 0.0608
C84A C 1.4218(2) 1.23102(19) 0.06526(19)
H79A H 1.4346 1.2304 0.0139
C85A C 0.8647(2) 0.77996(18) 1.06832(17)
H80A H 0.8255 0.7425 1.1021
C86A C 1.3500(4) 1.2276(2) 0.3540(2)
N4A N 1.34490(19) 1.21046(13) 0.10694(12)
N5A N 0.85364(19) 0.81864(13) 0.99003(13)
N6A N 1.2844(2) 1.22953(14) 0.65927(14)
loop_
_geom_bond_atom_site_label_1
_geom_bond_atom_site_label_2
_geom_bond_site_symmetry_1
_geom_bond_site_symmetry_2
Pd1 N1 1_555 1_555
C1 H1 1_555 1_555
C2 H2 1_555 1_555
H3 C2 1_555 1_555
C3 C2 1_555 1_555
H4 C3 1_555 1_555
C4 C2 1_555 1_555
H5 C4 1_555 1_555
C5 C4 1_555 1_555
H6 C5 1_555 1_555
H7 C5 1_555 1_555
C6 C3 1_555 1_555
H8 C6 1_555 1_555
H9 C6 1_555 1_555
C7 C3 1_555 1_555
H10 C7 1_555 1_555
H11 C7 1_555 1_555
C8 C4 1_555 1_555
H12 C8 1_555 1_555
H13 C8 1_555 1_555
C9 C5 1_555 1_555
H14 C9 1_555 1_555
C10 C7 1_555 1_555
H15 C10 1_555 1_555
C11 C9 1_555 1_555
C12 H16 1_555 1_555
C13 C12 1_555 1_555
C14 C13 1_555 1_555
H17 C14 1_555 1_555
C15 C14 1_555 1_555
H18 C15 1_555 1_555
C16 C15 1_555 1_555
C17 C12 1_555 1_555
C18 C11 1_555 1_555
C19 C18 1_555 1_555
C20 C19 1_555 1_555
C21 C20 1_555 1_555
H19 C21 1_555 1_555
C22 C21 1_555 1_555
H20 C22 1_555 1_555
C23 C22 1_555 1_555
C24 C19 1_555 1_555
H21 C24 1_555 1_555
C25 C27 1_555 1_555
C26 H22 1_555 1_555
C27 C26 1_555 1_555
C28 C27 1_555 1_555
H23 C28 1_555 1_555
C29 C28 1_555 1_555
H24 C29 1_555 1_555
C30 C29 1_555 1_555
H25 C30 1_555 1_555
C31 C23 1_555 1_555
C32 C31 1_555 1_555
C33 H26 1_555 1_555
C34 C32 1_555 1_555
C35 C34 1_555 1_555
H27 C35 1_555 1_555
C36 C1 1_555 1_555
H28 C36 1_555 1_555
C37 C13 1_555 1_555
C38 H29 1_555 1_555
H30 C38 1_555 1_555
C39 C38 1_555 1_555
H31 C39 1_555 1_555
H32 C39 1_555 1_555
C40 C39 1_555 1_555
H33 C40 1_555 1_555
H34 C40 1_555 1_555
C41 C40 1_555 1_555
H35 C41 1_555 1_555
H36 C41 1_555 1_555
C42 C41 1_555 1_555
H37 C42 1_555 1_555
H38 C42 1_555 1_555
C43 C42 1_555 1_555
H39 C43 1_555 1_555
H40 C43 1_555 1_555
H41 C43 1_555 1_555
N1 C1 1_555 1_555
N2 C16 1_555 1_555
N3 C26 1_555 1_555
C44 C81 1_555 1_555
C45 H42 1_555 1_555
H43 C45 1_555 1_555
C46 C45 1_555 1_555
H44 C46 1_555 1_555
C47 C45 1_555 1_555
H45 C47 1_555 1_555
C48 C47 1_555 1_555
H46 C48 1_555 1_555
C49 C46 1_555 1_555
H47 C49 1_555 1_555
H48 C49 1_555 1_555
C50 C46 1_555 1_555
H49 C50 1_555 1_555
H50 C50 1_555 1_555
C51 C47 1_555 1_555
H51 C51 1_555 1_555
C52 C48 1_555 1_555
H52 C52 1_555 1_555
C53 C50 1_555 1_555
H53 C53 1_555 1_555
C54 C52 1_555 1_555
C55 H54 1_555 1_555
C56 H55 1_555 1_555
H56 C56 1_555 1_555
C57 C56 1_555 1_555
H57 C57 1_555 1_555
H58 C57 1_555 1_555
C58 C57 1_555 1_555
H59 C58 1_555 1_555
H60 C58 1_555 1_555
C59 C58 1_555 1_555
H61 C59 1_555 1_555
H62 C59 1_555 1_555
C60 C59 1_555 1_555
H63 C60 1_555 1_555
H64 C60 1_555 1_555
C61 C60 1_555 1_555
H65 C61 1_555 1_555
H66 C61 1_555 1_555
H67 C61 1_555 1_555
C62 C55 1_555 1_555
C63 C62 1_555 1_555
H68 C63 1_555 1_555
C64 C63 1_555 1_555
H69 C64 1_555 1_555
C65 C64 1_555 1_555
C66 C55 1_555 1_555
C67 C54 1_555 1_555
C68 C67 1_555 1_555
C69 C68 1_555 1_555
C70 C69 1_555 1_555
H70 C70 1_555 1_555
C71 C70 1_555 1_555
H71 C71 1_555 1_555
C72 C71 1_555 1_555
C73 C68 1_555 1_555
H72 C73 1_555 1_555
C74 C62 1_555 1_555
C75 C74 1_555 1_555
C76 H73 1_555 1_555
C77 C75 1_555 1_555
C78 C77 1_555 1_555
H74 C78 1_555 1_555
C79 C78 1_555 1_555
H75 C79 1_555 1_555
C80 H76 1_555 1_555
C81 C80 1_555 1_555
C82 C81 1_555 1_555
H77 C82 1_555 1_555
C83 C82 1_555 1_555
H78 C83 1_555 1_555
C84 C83 1_555 1_555
H79 C84 1_555 1_555
C85 C79 1_555 1_555
H80 C85 1_555 1_555
C86 C44 1_555 1_555
N4 Pd1 1_555 1_555
N5 C76 1_555 1_555
N6 C56 1_555 1_555
C87 H81 1_555 1_555
H81 C91A 1_555 1_555
C88 C87 1_555 1_555
C89 C88 1_555 1_555
H82 C89 1_555 1_555
C90 C89 1_555 1_555
C91 C90 1_555 1_555
C92 C87 1_555 1_555
C93 C92 1_555 1_555
H83 C93 1_555 1_555
C94 C93 1_555 1_555
C95 C94 1_555 1_555
H84 C95 1_555 1_555
C96 C91 1_555 1_555
S1 C88 1_555 1_555
O1 S1 1_555 1_555
O2 S1 1_555 1_555
O3 S1 1_555 1_555
S2 C94 1_555 1_555
O4 S2 1_555 1_555
O5 S2 1_555 1_555
O6 S2 1_555 1_555
C97 C98 1_555 1_555
C98 H85 1_555 1_555
H86 C98 1_555 1_555
H87 C98 1_555 1_555
N7 C97 1_555 1_555
B1 F1 1_555 1_555
F2 B1 1_555 1_555
F3 B1 1_555 1_555
F4 B1 1_555 1_555
Pd1A N3 1_555 1_555
C1A H1A 1_555 1_555
C2A H2A 1_555 1_555
H3A C2A 1_555 1_555
C3A C2A 1_555 1_555
H4A C3A 1_555 1_555
C4A C2A 1_555 1_555
H5A C4A 1_555 1_555
C5A C4A 1_555 1_555
H6A C5A 1_555 1_555
H7A C5A 1_555 1_555
C6A C3A 1_555 1_555
H8A C6A 1_555 1_555
H9A C6A 1_555 1_555
C7A C3A 1_555 1_555
H10A C7A 1_555 1_555
H11A C7A 1_555 1_555
C8A C4A 1_555 1_555
H12A C8A 1_555 1_555
H13A C8A 1_555 1_555
C9A C5A 1_555 1_555
H14A C9A 1_555 1_555
C10A C7A 1_555 1_555
H15A C10A 1_555 1_555
C11A C9A 1_555 1_555
C12A H16A 1_555 1_555
C13A C12A 1_555 1_555
C14A C13A 1_555 1_555
H17A C14A 1_555 1_555
C15A C14A 1_555 1_555
H18A C15A 1_555 1_555
C16A C15A 1_555 1_555
C17A C12A 1_555 1_555
C18A C11A 1_555 1_555
C19A C18A 1_555 1_555
C20A C19A 1_555 1_555
C21A C20A 1_555 1_555
H19A C21A 1_555 1_555
C22A C21A 1_555 1_555
H20A C22A 1_555 1_555
C23A C22A 1_555 1_555
C24A C19A 1_555 1_555
H21A C24A 1_555 1_555
C25A C27A 1_555 1_555
C26A H22A 1_555 1_555
C27A C26A 1_555 1_555
C28A C27A 1_555 1_555
H23A C28A 1_555 1_555
C29A C28A 1_555 1_555
H24A C29A 1_555 1_555
C30A C29A 1_555 1_555
H25A C30A 1_555 1_555
C31A C23A 1_555 1_555
C32A C31A 1_555 1_555
C33A H26A 1_555 1_555
C34A C32A 1_555 1_555
C35A C34A 1_555 1_555
H27A C35A 1_555 1_555
C36A C1A 1_555 1_555
H28A C36A 1_555 1_555
C37A C13A 1_555 1_555
C38A H29A 1_555 1_555
H30A C38A 1_555 1_555
C39A C38A 1_555 1_555
H31A C39A 1_555 1_555
H32A C39A 1_555 1_555
C40A C39A 1_555 1_555
H33A C40A 1_555 1_555
H34A C40A 1_555 1_555
C41A C40A 1_555 1_555
H35A C41A 1_555 1_555
H36A C41A 1_555 1_555
C42A C41A 1_555 1_555
H37A C42A 1_555 1_555
H38A C42A 1_555 1_555
C43A C42A 1_555 1_555
H39A C43A 1_555 1_555
H40A C43A 1_555 1_555
H41A C43A 1_555 1_555
N1A Pd1A 1_555 1_555
N2A C16A 1_555 1_555
N3A Pd1 1_555 1_555
C44A C81A 1_555 1_555
C45A H42A 1_555 1_555
H43A C45A 1_555 1_555
C46A C45A 1_555 1_555
H44A C46A 1_555 1_555
C47A C45A 1_555 1_555
H45A C47A 1_555 1_555
C48A C47A 1_555 1_555
H46A C48A 1_555 1_555
C49A C46A 1_555 1_555
H47A C49A 1_555 1_555
H48A C49A 1_555 1_555
C50A C46A 1_555 1_555
H49A C50A 1_555 1_555
H50A C50A 1_555 1_555
C51A C47A 1_555 1_555
H51A C51A 1_555 1_555
C52A C48A 1_555 1_555
H52A C52A 1_555 1_555
C53A C50A 1_555 1_555
H53A C53A 1_555 1_555
C54A C52A 1_555 1_555
C55A H54A 1_555 1_555
C56A H55A 1_555 1_555
H56A C56A 1_555 1_555
C57A C56A 1_555 1_555
H57A C57A 1_555 1_555
H58A C57A 1_555 1_555
C58A C57A 1_555 1_555
H59A C58A 1_555 1_555
H60A C58A 1_555 1_555
C59A C58A 1_555 1_555
H61A C59A 1_555 1_555
H62A C59A 1_555 1_555
C60A C59A 1_555 1_555
H63A C60A 1_555 1_555
H64A C60A 1_555 1_555
C61A C60A 1_555 1_555
H65A C61A 1_555 1_555
H66A C61A 1_555 1_555
H67A C61A 1_555 1_555
C62A C55A 1_555 1_555
C63A C62A 1_555 1_555
H68A C63A 1_555 1_555
C64A C63A 1_555 1_555
H69A C64A 1_555 1_555
C65A C64A 1_555 1_555
C66A C55A 1_555 1_555
C67A C54A 1_555 1_555
C68A C67A 1_555 1_555
C69A C68A 1_555 1_555
C70A C69A 1_555 1_555
H70A C70A 1_555 1_555
C71A C70A 1_555 1_555
H71A C71A 1_555 1_555
C72A C71A 1_555 1_555
C73A C68A 1_555 1_555
H72A C73A 1_555 1_555
C74A C62A 1_555 1_555
C75A C74A 1_555 1_555
C76A H73A 1_555 1_555
C77A C75A 1_555 1_555
C78A C77A 1_555 1_555
H74A C78A 1_555 1_555
C79A C78A 1_555 1_555
H75A C79A 1_555 1_555
C80A H76A 1_555 1_555
C81A C80A 1_555 1_555
C82A C81A 1_555 1_555
H77A C82A 1_555 1_555
C83A C82A 1_555 1_555
H78A C83A 1_555 1_555
C84A C83A 1_555 1_555
H79A C84A 1_555 1_555
C85A C79A 1_555 1_555
H80A C85A 1_555 1_555
C86A C44A 1_555 1_555
N4A Pd1A 1_555 1_555
N5A Pd1 1_555 1_555
N6A C56A 1_555 1_555
C87A C91 1_555 1_555
H81A C91 1_555 1_555
C88A C93 1_555 1_555
C89A C93 1_555 1_555
H82A O6 1_555 1_555
C90A H83 1_555 1_555
C91A C87 1_555 1_555
C92A C87 1_555 1_555
C93A C87 1_555 1_555
H83A C89 1_555 1_555
C94A C87 1_555 1_555
C95A C87 1_555 1_555
H84A S1 1_555 1_555
C96A H81 1_555 1_555
S1A C94 1_555 1_555
O1A S2 1_555 1_555
O2A S2 1_555 1_555
O3A C95 1_555 1_555
S2A C88 1_555 1_555
O4A S1 1_555 1_555
O5A S1 1_555 1_555
O6A C89 1_555 1_555
C6 C9 1_555 1_555
C8 C10 1_555 1_555
C10 C11 1_555 1_555
C16 C17 1_555 1_555
C17 C18 1_555 1_555
C20 N2 1_555 1_555
C23 C24 1_555 1_555
C25 C37 1_555 1_555
C30 N3 1_555 1_555
C33 C34 1_555 1_555
C33 N1 1_555 1_555
C35 C36 1_555 1_555
C38 N2 1_555 1_555
C49 C52 1_555 1_555
C51 C53 1_555 1_555
C53 C54 1_555 1_555
C65 C66 1_555 1_555
C65 N6 1_555 1_555
C66 C67 1_555 1_555
C69 N6 1_555 1_555
C72 C73 1_555 1_555
C72 C86 1_555 1_555
C76 C77 1_555 1_555
C80 N4 1_555 1_555
C84 N4 1_555 1_555
C85 N5 1_555 1_555
N5 Pd1A 1_555 1_555
H81 C95A 1_555 1_555
C88 C93A 1_555 1_555
C88 C95A 1_555 1_555
C89 C93A 1_555 1_555
C89 C94A 1_555 1_555
H82 O6A 1_555 1_555
C90 H83A 1_555 1_555
C91 C92 1_555 1_555
C91 C93A 1_555 1_555
C91 H83A 1_555 1_555
C92 C87A 1_555 1_555
C92 C93A 1_555 1_555
C93 C87A 1_555 1_555
C93 C91A 1_555 1_555
C93 C92A 1_555 1_555
H83 C89A 1_555 1_555
H83 C91A 1_555 1_555
C94 C87A 1_555 1_555
C94 C89A 1_555 1_555
C95 C96 1_555 1_555
C95 C87A 1_555 1_555
C95 H81A 1_555 1_555
C95 C88A 1_555 1_555
C95 S1A 1_555 1_555
H84 S1A 1_555 1_555
H84 O3A 1_555 1_555
C96 H81A 1_555 1_555
S1 C94A 1_555 1_555
S1 C95A 1_555 1_555
S1 S2A 1_555 1_555
O1 S2A 1_555 1_555
O1 O5A 1_555 1_555
O2 S2A 1_555 1_555
O2 O4A 1_555 1_555
O2 O5A 1_555 1_555
O3 C95A 1_555 1_555
O3 H84A 1_555 1_555
S2 C88A 1_555 1_555
S2 S1A 1_555 1_555
O4 S1A 1_555 1_555
O4 O2A 1_555 1_555
O5 S1A 1_555 1_555
O5 O1A 1_555 1_555
O5 O2A 1_555 1_555
O6 C89A 1_555 1_555
C1A N1A 1_555 1_555
C6A C9A 1_555 1_555
C8A C10A 1_555 1_555
C10A C11A 1_555 1_555
C16A C17A 1_555 1_555
C17A C18A 1_555 1_555
C20A N2A 1_555 1_555
C23A C24A 1_555 1_555
C25A C37A 1_555 1_555
C26A N3A 1_555 1_555
C30A N3A 1_555 1_555
C33A C34A 1_555 1_555
C33A N1A 1_555 1_555
C35A C36A 1_555 1_555
C38A N2A 1_555 1_555
C49A C52A 1_555 1_555
C51A C53A 1_555 1_555
C53A C54A 1_555 1_555
C65A C66A 1_555 1_555
C65A N6A 1_555 1_555
C66A C67A 1_555 1_555
C69A N6A 1_555 1_555
C72A C73A 1_555 1_555
C72A C86A 1_555 1_555
C76A C77A 1_555 1_555
C76A N5A 1_555 1_555
C80A N4A 1_555 1_555
C84A N4A 1_555 1_555
C85A N5A 1_555 1_555
C87A H81A 1_555 1_555
C87A C88A 1_555 1_555
C87A C92A 1_555 1_555
C88A C89A 1_555 1_555
C88A S1A 1_555 1_555
C89A H82A 1_555 1_555
C89A C90A 1_555 1_555
C90A C91A 1_555 1_555
C91A C92A 1_555 1_555
C91A C96A 1_555 1_555
C92A C93A 1_555 1_555
C93A H83A 1_555 1_555
C93A C94A 1_555 1_555
C94A C95A 1_555 1_555
C94A S2A 1_555 1_555
C95A H84A 1_555 1_555
C95A C96A 1_555 1_555
S1A O1A 1_555 1_555
S1A O2A 1_555 1_555
S1A O3A 1_555 1_555
S2A O4A 1_555 1_555
S2A O5A 1_555 1_555
S2A O6A 1_555 1_555

#END
