
#######################################################################
#
#                 Cambridge Crystallographic Data Centre
#                                CCDC 
#
#######################################################################
#
# If this CIF has been generated from an entry in the Cambridge 
# Structural Database, then it will include bibliographic, chemical, 
# crystal, experimental, refinement or atomic coordinate data resulting 
# from the CCDC's data processing and validation procedures.
#
#######################################################################

data_ALEQAL
_chemical_formula_moiety         'C172 H164 N12 Pd2 4+,4(B1 F4 1-)'
_chemical_name_systematic        
'tetrakis(\m~2~-10-Hexyl-2,7-bis(pyridin-3-ylethynyl)-9-(tricyclo[3.3.1.1^3,7^]dec-2-ylidene)-9,10-dihydroacridine)-di-palladium tetrakis(tetrafluoroborate)'
_symmetry_cell_setting           triclinic
_symmetry_space_group_name_H-M   'P -1'
_symmetry_Int_Tables_number      2
_space_group_name_Hall           '-P 1'
loop_
_symmetry_equiv_pos_site_id
_symmetry_equiv_pos_as_xyz
1 x,y,z
2 -x,-y,-z
_cell_length_a                   16.196(3)
_cell_length_b                   16.375(3)
_cell_length_c                   17.065(3)
_cell_angle_alpha                74.20(3)
_cell_angle_beta                 62.65(3)
_cell_angle_gamma                71.79(3)
_cell_volume                     3773.87
_exptl_crystal_colour            colorless
_exptl_crystal_description       plate
_cell_formula_units_Z            1
_chemical_properties_physical    'Air-sensitive, Moisture-sensitive'
loop_
_atom_site_label
_atom_site_type_symbol
_atom_site_fract_x
_atom_site_fract_y
_atom_site_fract_z
Pd1 Pd 0.83955(12) 0.79985(12) 0.59530(10)
N1 N 0.2589(12) 0.1560(11) 1.4505(10)
N2 N 0.9681(9) 0.1898(9) 1.0871(9)
N3 N 0.9338(12) 0.7561(11) 0.6436(9)
C1 C 1.154(3) 0.222(3) 0.768(2)
H1 H 1.1872 0.2679 0.7335
H2 H 1.0988 0.2431 0.8187
H3 H 1.1335 0.2042 0.7315
C2 C 1.218(3) 0.147(2) 0.799(2)
H4 H 1.2718 0.1310 0.7441
H5 H 1.2415 0.1717 0.8276
C3 C 1.202(2) 0.063(2) 0.8550(19)
H6 H 1.2588 0.0314 0.8642
H7 H 1.1891 0.0294 0.8248
C4 C 1.116(2) 0.075(2) 0.9482(17)
H8 H 1.0608 0.1149 0.9392
H9 H 1.0986 0.0198 0.9784
C5 C 1.1396(18) 0.1105(13) 1.0051(16)
H10 H 1.1621 0.1632 0.9717
H11 H 1.1920 0.0686 1.0164
C6 C 1.0578(12) 0.1314(16) 1.0959(12)
H12 H 1.0430 0.0774 1.1343
H13 H 1.0791 0.1595 1.1243
C7 C 0.7257(12) 0.2181(10) 0.8097(10)
H14 H 0.7489 0.2455 0.7478
H15 H 0.6790 0.1868 0.8196
C8 C 0.6805(12) 0.2858(10) 0.8696(9)
H16 H 0.6261 0.3246 0.8581
C9 C 0.8076(11) 0.1557(11) 0.8293(10)
H17 H 0.8369 0.1097 0.7919
C10 C 0.7530(11) 0.3378(9) 0.8458(12)
H18 H 0.7755 0.3621 0.7829
H19 H 0.7249 0.3852 0.8804
C11 C 0.8773(11) 0.2091(11) 0.8074(11)
H20 H 0.9335 0.1718 0.8153
H21 H 0.8967 0.2363 0.7455
C12 C 0.6457(10) 0.2461(13) 0.9660(9)
H22 H 0.6164 0.2911 1.0036
H23 H 0.5987 0.2133 0.9801
C13 C 0.7728(15) 0.1173(9) 0.9253(10)
H24 H 0.8254 0.0778 0.9380
H25 H 0.7259 0.0845 0.9393
C14 C 0.8339(11) 0.2774(10) 0.8663(8)
H26 H 0.8817 0.3100 0.8523
C15 C 0.7292(10) 0.1878(10) 0.9812(9)
H27 H 0.7076 0.1612 1.0441
C16 C 0.7967(12) 0.2426(12) 0.9631(9)
C17 C 0.9045(9) 0.3881(8) 0.9466(9)
H28 H 0.8551 0.4152 0.9283
C18 C 0.9750(10) 0.4295(8) 0.9243(10)
C19 C 1.0398(9) 0.3949(9) 0.9613(9)
H29 H 1.0844 0.4256 0.9507
C20 C 1.0394(9) 0.3155(9) 1.0136(9)
H30 H 1.0845 0.2916 1.0376
C21 C 0.9727(8) 0.2709(8) 1.0308(8)
C22 C 0.9061(9) 0.3066(8) 0.9959(8)
C23 C 0.8300(15) 0.2544(14) 1.0207(12)
C24 C 0.8044(7) 0.2088(11) 1.1152(8)
C25 C 0.8784(8) 0.1715(11) 1.1424(8)
C26 C 0.8616(8) 0.1190(12) 1.2251(8)
H31 H 0.9115 0.0914 1.2424
C27 C 0.7699(7) 0.1082(10) 1.2814(8)
H32 H 0.7585 0.0728 1.3365
C28 C 0.6956(8) 0.1495(10) 1.2564(8)
C29 C 0.7127(7) 0.2017(10) 1.1743(7)
H33 H 0.6620 0.2321 1.1587
C30 C 0.9809(15) 0.5114(12) 0.8614(11)
C31 C 0.9892(16) 0.5739(12) 0.8107(11)
C32 C 0.9390(10) 0.6809(10) 0.7036(10)
H34 H 0.9000 0.6441 0.7144
C33 C 0.9957(11) 0.6559(9) 0.7480(10)
C34 C 1.0565(11) 0.7044(10) 0.7327(10)
H35 H 1.0959 0.6872 0.7629
C35 C 1.0598(10) 0.7781(9) 0.6730(9)
H36 H 1.1018 0.8119 0.6619
C36 C 1.0024(11) 0.8029(9) 0.6296(9)
H37 H 1.0075 0.8534 0.5880
C37 C 0.6006(10) 0.1370(15) 1.3137(11)
C38 C 0.5211(10) 0.1289(15) 1.3646(11)
C39 C 0.3553(9) 0.1545(13) 1.3954(9)
H38 H 0.3723 0.1755 1.3349
C40 C 0.4242(10) 0.1243(14) 1.4252(9)
C41 C 0.4028(10) 0.0917(12) 1.5122(8)
H39 H 0.4503 0.0717 1.5334
C42 C 0.3117(10) 0.0884(11) 1.5678(10)
H40 H 0.2963 0.0654 1.6278
C43 C 0.2432(10) 0.1182(12) 1.5374(11)
H41 H 0.1815 0.1131 1.5772
N4 N 0.1043(12) 0.2938(12) 1.4810(10)
N5 N 0.4114(13) 0.8020(11) 1.3576(9)
N6 N 0.7882(10) 0.8838(12) 0.6704(10)
C44 C 0.705(4) 0.643(5) 1.408(3)
H42 H 0.7633 0.6030 1.4066
H43 H 0.7064 0.6999 1.4104
H44 H 0.6976 0.6435 1.3549
C45 C 0.6248(19) 0.614(2) 1.4863(19)
H45 H 0.6499 0.5744 1.5279
H46 H 0.5983 0.5813 1.4677
C46 C 0.545(2) 0.682(2) 1.536(2)
H47 H 0.5663 0.7147 1.5598
H48 H 0.4928 0.6574 1.5829
C47 C 0.5214(16) 0.734(2) 1.4594(19)
H49 H 0.5701 0.7665 1.4183
H50 H 0.5161 0.6971 1.4272
C48 C 0.4342(17) 0.791(2) 1.4976(17)
H51 H 0.4410 0.8248 1.5323
H52 H 0.3875 0.7570 1.5385
C49 C 0.3956(19) 0.8543(15) 1.4317(11)
H53 H 0.4289 0.9016 1.4038
H54 H 0.3283 0.8788 1.4626
C50 C 0.7431(13) 0.4109(12) 1.2049(13)
H55 H 0.7395 0.3519 1.2356
H56 H 0.8074 0.4100 1.1596
C51 C 0.6741(11) 0.4435(12) 1.1617(11)
H57 H 0.6893 0.4049 1.1197
C52 C 0.7208(12) 0.4681(11) 1.2701(11)
H58 H 0.7656 0.4470 1.2986
C53 C 0.6861(16) 0.5339(12) 1.1108(10)
H59 H 0.7514 0.5319 1.0675
H60 H 0.6448 0.5563 1.0793
C54 C 0.7331(10) 0.5551(11) 1.2132(9)
H61 H 0.7286 0.5949 1.2486
H62 H 0.7958 0.5487 1.1644
C55 C 0.5745(11) 0.4467(13) 1.2292(12)
H63 H 0.5666 0.3887 1.2606
H64 H 0.5307 0.4696 1.2003
C56 C 0.6216(11) 0.4691(15) 1.3378(10)
H65 H 0.6058 0.5051 1.3816
H66 H 0.6158 0.4105 1.3686
C57 C 0.6604(11) 0.5914(11) 1.1770(11)
H67 H 0.6661 0.6505 1.1457
C58 C 0.5545(10) 0.5041(11) 1.2930(11)
H68 H 0.4894 0.5055 1.3387
C59 C 0.5599(12) 0.5928(11) 1.2427(13)
C60 C 0.5462(13) 0.7859(8) 1.1208(8)
H69 H 0.5609 0.7476 1.0825
C61 C 0.5687(15) 0.8652(10) 1.0867(7)
C62 C 0.5395(16) 0.9245(9) 1.1425(9)
H70 H 0.5533 0.9794 1.1192
C63 C 0.4905(11) 0.9033(9) 1.2317(8)
H71 H 0.4693 0.9443 1.2692
C64 C 0.4721(11) 0.8215(8) 1.2669(7)
C65 C 0.5023(12) 0.7620(8) 1.2110(7)
C66 C 0.4889(16) 0.6736(17) 1.2549(14)
C67 C 0.3932(10) 0.6725(9) 1.3324(9)
C68 C 0.3617(11) 0.7362(10) 1.3847(10)
C69 C 0.2763(11) 0.7393(10) 1.4605(10)
H72 H 0.2529 0.7845 1.4936
C70 C 0.2268(10) 0.6756(9) 1.4862(9)
H73 H 0.1734 0.6740 1.5401
C71 C 0.2557(9) 0.6135(8) 1.4324(9)
C72 C 0.3374(8) 0.6137(8) 1.3543(8)
H74 H 0.3551 0.5742 1.3163
C73 C 0.6147(17) 0.8867(18) 0.9898(11)
C74 C 0.6492(17) 0.9114(17) 0.9136(11)
C75 C 0.7364(14) 0.8740(9) 0.7621(11)
H75 H 0.7252 0.8188 0.7897
C76 C 0.7002(14) 0.9347(11) 0.8164(9)
C77 C 0.7159(11) 1.0153(9) 0.7809(10)
H76 H 0.6942 1.0569 0.8178
C78 C 0.7630(12) 1.0358(10) 0.6924(10)
H77 H 0.7724 1.0920 0.6677
C79 C 0.7966(12) 0.9746(12) 0.6392(9)
H78 H 0.8275 0.9914 0.5781
C80 C 0.2038(13) 0.5467(11) 1.4611(13)
C81 C 0.1599(13) 0.4913(11) 1.4843(13)
C82 C 0.1437(12) 0.3591(9) 1.4625(10)
H79 H 0.1991 0.3617 1.4106
C83 C 0.1107(12) 0.4230(10) 1.5122(11)
C84 C 0.0281(10) 0.4248(11) 1.5856(12)
H80 H 0.0047 0.4679 1.6211
C85 C -0.0199(12) 0.3622(11) 1.6063(11)
H81 H -0.0778 0.3629 1.6559
C86 C 0.0152(14) 0.2993(10) 1.5561(12)
H82 H -0.0198 0.2578 1.5708
Pd1A Pd 0.16045(12) 0.20015(12) 1.40470(10)
N1A N 0.7411(12) 0.8440(11) 0.5495(10)
N2A N 0.0319(9) 0.8102(9) 0.9129(9)
N3A N 0.0662(12) 0.2439(11) 1.3564(9)
C1A C -0.154(3) 0.778(3) 1.232(2)
H1A H -0.1872 0.7321 1.2665
H2A H -0.0988 0.7569 1.1813
H3A H -0.1335 0.7958 1.2685
C2A C -0.218(3) 0.853(2) 1.201(2)
H4A H -0.2718 0.8690 1.2559
H5A H -0.2415 0.8283 1.1724
C3A C -0.202(2) 0.937(2) 1.1450(19)
H6A H -0.2588 0.9686 1.1358
H7A H -0.1891 0.9706 1.1752
C4A C -0.116(2) 0.925(2) 1.0518(17)
H8A H -0.0608 0.8851 1.0608
H9A H -0.0986 0.9802 1.0216
C5A C -0.1396(18) 0.8895(13) 0.9949(16)
H10A H -0.1621 0.8368 1.0283
H11A H -0.1920 0.9314 0.9836
C6A C -0.0578(12) 0.8686(16) 0.9041(12)
H12A H -0.0430 0.9226 0.8657
H13A H -0.0791 0.8405 0.8757
C7A C 0.2743(12) 0.7819(10) 1.1903(10)
H14A H 0.2511 0.7545 1.2522
H15A H 0.3210 0.8132 1.1804
C8A C 0.3195(12) 0.7142(10) 1.1304(9)
H16A H 0.3739 0.6754 1.1419
C9A C 0.1924(11) 0.8443(11) 1.1707(10)
H17A H 0.1631 0.8903 1.2081
C10A C 0.2470(11) 0.6622(9) 1.1542(12)
H18A H 0.2245 0.6379 1.2171
H19A H 0.2751 0.6148 1.1196
C11A C 0.1227(11) 0.7909(11) 1.1926(11)
H20A H 0.0665 0.8282 1.1847
H21A H 0.1033 0.7637 1.2545
C12A C 0.3543(10) 0.7539(13) 1.0340(9)
H22A H 0.3836 0.7089 0.9964
H23A H 0.4013 0.7867 1.0199
C13A C 0.2272(15) 0.8827(9) 1.0747(10)
H24A H 0.1746 0.9222 1.0620
H25A H 0.2741 0.9155 1.0607
C14A C 0.1661(11) 0.7226(10) 1.1337(8)
H26A H 0.1183 0.6900 1.1477
C15A C 0.2708(10) 0.8122(10) 1.0188(9)
H27A H 0.2924 0.8388 0.9559
C16A C 0.2033(12) 0.7574(12) 1.0369(9)
C17A C 0.0955(9) 0.6119(8) 1.0534(9)
H28A H 0.1449 0.5848 1.0717
C18A C 0.0250(10) 0.5705(8) 1.0757(10)
C19A C -0.0398(9) 0.6051(9) 1.0387(9)
H29A H -0.0844 0.5744 1.0493
C20A C -0.0394(9) 0.6845(9) 0.9864(9)
H30A H -0.0845 0.7084 0.9624
C21A C 0.0273(8) 0.7291(8) 0.9692(8)
C22A C 0.0939(9) 0.6934(8) 1.0041(8)
C23A C 0.1700(15) 0.7456(14) 0.9793(12)
C24A C 0.1956(7) 0.7912(11) 0.8848(8)
C25A C 0.1216(8) 0.8285(11) 0.8576(8)
C26A C 0.1384(8) 0.8810(12) 0.7749(8)
H31A H 0.0885 0.9086 0.7576
C27A C 0.2301(7) 0.8918(10) 0.7186(8)
H32A H 0.2415 0.9272 0.6635
C28A C 0.3044(8) 0.8505(10) 0.7436(8)
C29A C 0.2873(7) 0.7983(10) 0.8257(7)
H33A H 0.3380 0.7679 0.8413
C30A C 0.0191(15) 0.4886(12) 1.1386(11)
C31A C 0.0108(16) 0.4261(12) 1.1893(11)
C32A C 0.0610(10) 0.3191(10) 1.2964(10)
H34A H 0.1000 0.3559 1.2856
C33A C 0.0043(11) 0.3441(9) 1.2520(10)
C34A C -0.0565(11) 0.2956(10) 1.2673(10)
H35A H -0.0959 0.3128 1.2371
C35A C -0.0598(10) 0.2219(9) 1.3270(9)
H36A H -0.1018 0.1881 1.3381
C36A C -0.0024(11) 0.1971(9) 1.3704(9)
H37A H -0.0075 0.1466 1.4120
C37A C 0.3994(10) 0.8630(15) 0.6863(11)
C38A C 0.4789(10) 0.8711(15) 0.6354(11)
C39A C 0.6447(9) 0.8455(13) 0.6046(9)
H38A H 0.6277 0.8245 0.6651
C40A C 0.5758(10) 0.8757(14) 0.5748(9)
C41A C 0.5972(10) 0.9083(12) 0.4878(8)
H39A H 0.5497 0.9283 0.4666
C42A C 0.6883(10) 0.9116(11) 0.4322(10)
H40A H 0.7037 0.9346 0.3722
C43A C 0.7568(10) 0.8818(12) 0.4626(11)
H41A H 0.8185 0.8869 0.4228
N4A N 0.8957(12) 0.7062(12) 0.5190(10)
N5A N 0.5886(13) 0.1980(11) 0.6424(9)
N6A N 0.2118(10) 0.1162(12) 1.3296(10)
C44A C 0.295(4) 0.357(5) 0.592(3)
H42A H 0.2367 0.3970 0.5934
H43A H 0.2936 0.3001 0.5896
H44A H 0.3024 0.3565 0.6451
C45A C 0.3752(19) 0.386(2) 0.5137(19)
H45A H 0.3501 0.4256 0.4721
H46A H 0.4017 0.4187 0.5323
C46A C 0.455(2) 0.318(2) 0.464(2)
H47A H 0.4337 0.2853 0.4402
H48A H 0.5072 0.3426 0.4171
C47A C 0.4786(16) 0.266(2) 0.5406(19)
H49A H 0.4299 0.2335 0.5817
H50A H 0.4839 0.3029 0.5728
C48A C 0.5658(17) 0.209(2) 0.5024(17)
H51A H 0.5590 0.1752 0.4677
H52A H 0.6125 0.2430 0.4615
C49A C 0.6044(19) 0.1457(15) 0.5683(11)
H53A H 0.5711 0.0984 0.5962
H54A H 0.6717 0.1212 0.5374
C50A C 0.2569(13) 0.5891(12) 0.7951(13)
H55A H 0.2605 0.6481 0.7644
H56A H 0.1926 0.5900 0.8404
C51A C 0.3259(11) 0.5565(12) 0.8383(11)
H57A H 0.3107 0.5951 0.8803
C52A C 0.2792(12) 0.5319(11) 0.7299(11)
H58A H 0.2344 0.5530 0.7014
C53A C 0.3139(16) 0.4661(12) 0.8892(10)
H59A H 0.2486 0.4681 0.9325
H60A H 0.3552 0.4437 0.9207
C54A C 0.2669(10) 0.4449(11) 0.7868(9)
H61A H 0.2714 0.4051 0.7514
H62A H 0.2042 0.4513 0.8356
C55A C 0.4255(11) 0.5533(13) 0.7708(12)
H63A H 0.4334 0.6113 0.7394
H64A H 0.4693 0.5304 0.7997
C56A C 0.3784(11) 0.5309(15) 0.6622(10)
H65A H 0.3942 0.4949 0.6184
H66A H 0.3842 0.5895 0.6314
C57A C 0.3396(11) 0.4086(11) 0.8230(11)
H67A H 0.3339 0.3495 0.8543
C58A C 0.4455(10) 0.4959(11) 0.7070(11)
H68A H 0.5106 0.4945 0.6613
C59A C 0.4401(12) 0.4072(11) 0.7573(13)
C60A C 0.4538(13) 0.2141(8) 0.8792(8)
H69A H 0.4391 0.2524 0.9175
C61A C 0.4313(15) 0.1348(10) 0.9133(7)
C62A C 0.4605(16) 0.0755(9) 0.8575(9)
H70A H 0.4467 0.0206 0.8808
C63A C 0.5095(11) 0.0967(9) 0.7683(8)
H71A H 0.5307 0.0557 0.7308
C64A C 0.5279(11) 0.1785(8) 0.7331(7)
C65A C 0.4977(12) 0.2380(8) 0.7890(7)
C66A C 0.5111(16) 0.3264(17) 0.7451(14)
C67A C 0.6068(10) 0.3275(9) 0.6676(9)
C68A C 0.6383(11) 0.2638(10) 0.6153(10)
C69A C 0.7237(11) 0.2607(10) 0.5395(10)
H72A H 0.7471 0.2155 0.5064
C70A C 0.7732(10) 0.3244(9) 0.5138(9)
H73A H 0.8266 0.3260 0.4599
C71A C 0.7443(9) 0.3865(8) 0.5676(9)
C72A C 0.6626(8) 0.3863(8) 0.6457(8)
H74A H 0.6449 0.4258 0.6837
C73A C 0.3853(17) 0.1133(18) 1.0102(11)
C74A C 0.3508(17) 0.0886(17) 1.0864(11)
C75A C 0.2636(14) 0.1260(9) 1.2379(11)
H75A H 0.2748 0.1812 1.2103
C76A C 0.2998(14) 0.0653(11) 1.1836(9)
C77A C 0.2841(11) -0.0153(9) 1.2191(10)
H76A H 0.3058 -0.0569 1.1822
C78A C 0.2370(12) -0.0358(10) 1.3076(10)
H77A H 0.2276 -0.0920 1.3323
C79A C 0.2034(12) 0.0254(12) 1.3608(9)
H78A H 0.1725 0.0086 1.4219
C80A C 0.7962(13) 0.4533(11) 0.5389(13)
C81A C 0.8401(13) 0.5087(11) 0.5157(13)
C82A C 0.8563(12) 0.6409(9) 0.5375(10)
H79A H 0.8009 0.6383 0.5894
C83A C 0.8893(12) 0.5770(10) 0.4878(11)
C84A C 0.9719(10) 0.5752(11) 0.4144(12)
H80A H 0.9953 0.5321 0.3789
C85A C 1.0199(12) 0.6378(11) 0.3937(11)
H81A H 1.0778 0.6371 0.3441
C86A C 0.9848(14) 0.7007(10) 0.4439(12)
H82A H 1.0198 0.7422 0.4292
B1 B 1.0317(10) 1.0310(10) 0.6216(9)
F1 F 0.9677(7) 0.9832(7) 0.6822(6)
F2 F 0.9981(9) 1.0846(9) 0.5629(7)
F3 F 1.0460(9) 1.0788(8) 0.6660(8)
F4 F 1.1151(8) 0.9778(7) 0.5772(6)
B2 B 0.7147(12) 0.5991(11) 0.7693(11)
F5 F 0.8057(11) 0.5503(11) 0.7390(12)
F6 F 0.7126(11) 0.6855(9) 0.7448(9)
F7 F 0.6723(17) 0.5805(13) 0.8589(9)
F8 F 0.6655(12) 0.5781(14) 0.7336(14)
loop_
_geom_bond_atom_site_label_1
_geom_bond_atom_site_label_2
_geom_bond_site_symmetry_1
_geom_bond_site_symmetry_2
Pd1 N3 1_555 1_555
N1 C39 1_555 1_555
N2 C6 1_555 1_555
N3 C32 1_555 1_555
C1 H1 1_555 1_555
H2 C1 1_555 1_555
H3 C1 1_555 1_555
C2 C1 1_555 1_555
H4 C2 1_555 1_555
H5 C2 1_555 1_555
C3 C2 1_555 1_555
H6 C3 1_555 1_555
H7 C3 1_555 1_555
C4 C3 1_555 1_555
H8 C4 1_555 1_555
H9 C4 1_555 1_555
C5 C4 1_555 1_555
H10 C5 1_555 1_555
H11 C5 1_555 1_555
C6 C5 1_555 1_555
H12 C6 1_555 1_555
H13 C6 1_555 1_555
C7 H14 1_555 1_555
H15 C7 1_555 1_555
C8 C7 1_555 1_555
H16 C8 1_555 1_555
C9 C7 1_555 1_555
H17 C9 1_555 1_555
C10 C8 1_555 1_555
H18 C10 1_555 1_555
H19 C10 1_555 1_555
C11 C9 1_555 1_555
H20 C11 1_555 1_555
H21 C11 1_555 1_555
C12 C8 1_555 1_555
H22 C12 1_555 1_555
H23 C12 1_555 1_555
C13 C9 1_555 1_555
H24 C13 1_555 1_555
H25 C13 1_555 1_555
C14 C10 1_555 1_555
H26 C14 1_555 1_555
C15 C12 1_555 1_555
H27 C15 1_555 1_555
C16 C14 1_555 1_555
C17 H28 1_555 1_555
C18 C17 1_555 1_555
C19 C18 1_555 1_555
H29 C19 1_555 1_555
C20 C19 1_555 1_555
H30 C20 1_555 1_555
C21 N2 1_555 1_555
C22 C17 1_555 1_555
C23 C16 1_555 1_555
C24 C23 1_555 1_555
C25 N2 1_555 1_555
C26 C25 1_555 1_555
H31 C26 1_555 1_555
C27 C26 1_555 1_555
H32 C27 1_555 1_555
C28 C27 1_555 1_555
C29 C24 1_555 1_555
H33 C29 1_555 1_555
C30 C18 1_555 1_555
C31 C30 1_555 1_555
C32 H34 1_555 1_555
C33 C31 1_555 1_555
C34 C33 1_555 1_555
H35 C34 1_555 1_555
C35 C34 1_555 1_555
H36 C35 1_555 1_555
C36 N3 1_555 1_555
H37 C36 1_555 1_555
C37 C28 1_555 1_555
C38 C37 1_555 1_555
C39 H38 1_555 1_555
C40 C38 1_555 1_555
C41 C40 1_555 1_555
H39 C41 1_555 1_555
C42 C41 1_555 1_555
H40 C42 1_555 1_555
C43 N1 1_555 1_555
H41 C43 1_555 1_555
N4 C82 1_555 1_555
N5 C49 1_555 1_555
N6 Pd1 1_555 1_555
C44 H42 1_555 1_555
H43 C44 1_555 1_555
H44 C44 1_555 1_555
C45 C44 1_555 1_555
H45 C45 1_555 1_555
H46 C45 1_555 1_555
C46 C45 1_555 1_555
H47 C46 1_555 1_555
H48 C46 1_555 1_555
C47 C46 1_555 1_555
H49 C47 1_555 1_555
H50 C47 1_555 1_555
C48 C47 1_555 1_555
H51 C48 1_555 1_555
H52 C48 1_555 1_555
C49 C48 1_555 1_555
H53 C49 1_555 1_555
H54 C49 1_555 1_555
C50 H55 1_555 1_555
H56 C50 1_555 1_555
C51 C50 1_555 1_555
H57 C51 1_555 1_555
C52 C50 1_555 1_555
H58 C52 1_555 1_555
C53 C51 1_555 1_555
H59 C53 1_555 1_555
H60 C53 1_555 1_555
C54 C52 1_555 1_555
H61 C54 1_555 1_555
H62 C54 1_555 1_555
C55 C51 1_555 1_555
H63 C55 1_555 1_555
H64 C55 1_555 1_555
C56 C52 1_555 1_555
H65 C56 1_555 1_555
H66 C56 1_555 1_555
C57 C53 1_555 1_555
H67 C57 1_555 1_555
C58 C55 1_555 1_555
H68 C58 1_555 1_555
C59 C57 1_555 1_555
C60 H69 1_555 1_555
C61 C60 1_555 1_555
C62 C61 1_555 1_555
H70 C62 1_555 1_555
C63 C62 1_555 1_555
H71 C63 1_555 1_555
C64 N5 1_555 1_555
C65 C60 1_555 1_555
C66 C59 1_555 1_555
C67 C66 1_555 1_555
C68 N5 1_555 1_555
C69 C68 1_555 1_555
H72 C69 1_555 1_555
C70 C69 1_555 1_555
H73 C70 1_555 1_555
C71 C70 1_555 1_555
C72 C67 1_555 1_555
H74 C72 1_555 1_555
C73 C61 1_555 1_555
C74 C73 1_555 1_555
C75 N6 1_555 1_555
H75 C75 1_555 1_555
C76 C74 1_555 1_555
C77 C76 1_555 1_555
H76 C77 1_555 1_555
C78 C77 1_555 1_555
H77 C78 1_555 1_555
C79 N6 1_555 1_555
H78 C79 1_555 1_555
C80 C71 1_555 1_555
C81 C80 1_555 1_555
C82 H79 1_555 1_555
C83 C81 1_555 1_555
C84 C83 1_555 1_555
H80 C84 1_555 1_555
C85 C84 1_555 1_555
H81 C85 1_555 1_555
C86 N4 1_555 1_555
H82 C86 1_555 1_555
B1 F1 1_555 1_555
F2 B1 1_555 1_555
F3 B1 1_555 1_555
F4 B1 1_555 1_555
B2 F5 1_555 1_555
F6 B2 1_555 1_555
F7 B2 1_555 1_555
F8 B2 1_555 1_555
Pd1A N1 1_555 1_555
N1A Pd1 1_555 1_555
N2A C6A 1_555 1_555
N3A Pd1A 1_555 1_555
C1A H1A 1_555 1_555
H2A C1A 1_555 1_555
H3A C1A 1_555 1_555
C2A C1A 1_555 1_555
H4A C2A 1_555 1_555
H5A C2A 1_555 1_555
C3A C2A 1_555 1_555
H6A C3A 1_555 1_555
H7A C3A 1_555 1_555
C4A C3A 1_555 1_555
H8A C4A 1_555 1_555
H9A C4A 1_555 1_555
C5A C4A 1_555 1_555
H10A C5A 1_555 1_555
H11A C5A 1_555 1_555
C6A C5A 1_555 1_555
H12A C6A 1_555 1_555
H13A C6A 1_555 1_555
C7A H14A 1_555 1_555
H15A C7A 1_555 1_555
C8A C7A 1_555 1_555
H16A C8A 1_555 1_555
C9A C7A 1_555 1_555
H17A C9A 1_555 1_555
C10A C8A 1_555 1_555
H18A C10A 1_555 1_555
H19A C10A 1_555 1_555
C11A C9A 1_555 1_555
H20A C11A 1_555 1_555
H21A C11A 1_555 1_555
C12A C8A 1_555 1_555
H22A C12A 1_555 1_555
H23A C12A 1_555 1_555
C13A C9A 1_555 1_555
H24A C13A 1_555 1_555
H25A C13A 1_555 1_555
C14A C10A 1_555 1_555
H26A C14A 1_555 1_555
C15A C12A 1_555 1_555
H27A C15A 1_555 1_555
C16A C14A 1_555 1_555
C17A H28A 1_555 1_555
C18A C17A 1_555 1_555
C19A C18A 1_555 1_555
H29A C19A 1_555 1_555
C20A C19A 1_555 1_555
H30A C20A 1_555 1_555
C21A N2A 1_555 1_555
C22A C17A 1_555 1_555
C23A C16A 1_555 1_555
C24A C23A 1_555 1_555
C25A N2A 1_555 1_555
C26A C25A 1_555 1_555
H31A C26A 1_555 1_555
C27A C26A 1_555 1_555
H32A C27A 1_555 1_555
C28A C27A 1_555 1_555
C29A C24A 1_555 1_555
H33A C29A 1_555 1_555
C30A C18A 1_555 1_555
C31A C30A 1_555 1_555
C32A N3A 1_555 1_555
H34A C32A 1_555 1_555
C33A C31A 1_555 1_555
C34A C33A 1_555 1_555
H35A C34A 1_555 1_555
C35A C34A 1_555 1_555
H36A C35A 1_555 1_555
C36A N3A 1_555 1_555
H37A C36A 1_555 1_555
C37A C28A 1_555 1_555
C38A C37A 1_555 1_555
C39A N1A 1_555 1_555
H38A C39A 1_555 1_555
C40A C38A 1_555 1_555
C41A C40A 1_555 1_555
H39A C41A 1_555 1_555
C42A C41A 1_555 1_555
H40A C42A 1_555 1_555
C43A N1A 1_555 1_555
H41A C43A 1_555 1_555
N4A Pd1 1_555 1_555
N5A C49A 1_555 1_555
N6A Pd1A 1_555 1_555
C44A H42A 1_555 1_555
H43A C44A 1_555 1_555
H44A C44A 1_555 1_555
C45A C44A 1_555 1_555
H45A C45A 1_555 1_555
H46A C45A 1_555 1_555
C46A C45A 1_555 1_555
H47A C46A 1_555 1_555
H48A C46A 1_555 1_555
C47A C46A 1_555 1_555
H49A C47A 1_555 1_555
H50A C47A 1_555 1_555
C48A C47A 1_555 1_555
H51A C48A 1_555 1_555
H52A C48A 1_555 1_555
C49A C48A 1_555 1_555
H53A C49A 1_555 1_555
H54A C49A 1_555 1_555
C50A H55A 1_555 1_555
H56A C50A 1_555 1_555
C51A C50A 1_555 1_555
H57A C51A 1_555 1_555
C52A C50A 1_555 1_555
H58A C52A 1_555 1_555
C53A C51A 1_555 1_555
H59A C53A 1_555 1_555
H60A C53A 1_555 1_555
C54A C52A 1_555 1_555
H61A C54A 1_555 1_555
H62A C54A 1_555 1_555
C55A C51A 1_555 1_555
H63A C55A 1_555 1_555
H64A C55A 1_555 1_555
C56A C52A 1_555 1_555
H65A C56A 1_555 1_555
H66A C56A 1_555 1_555
C57A C53A 1_555 1_555
H67A C57A 1_555 1_555
C58A C55A 1_555 1_555
H68A C58A 1_555 1_555
C59A C57A 1_555 1_555
C60A H69A 1_555 1_555
C61A C60A 1_555 1_555
C62A C61A 1_555 1_555
H70A C62A 1_555 1_555
C63A C62A 1_555 1_555
H71A C63A 1_555 1_555
C64A N5A 1_555 1_555
C65A C60A 1_555 1_555
C66A C59A 1_555 1_555
C67A C66A 1_555 1_555
C68A N5A 1_555 1_555
C69A C68A 1_555 1_555
H72A C69A 1_555 1_555
C70A C69A 1_555 1_555
H73A C70A 1_555 1_555
C71A C70A 1_555 1_555
C72A C67A 1_555 1_555
H74A C72A 1_555 1_555
C73A C61A 1_555 1_555
C74A C73A 1_555 1_555
C75A N6A 1_555 1_555
H75A C75A 1_555 1_555
C76A C74A 1_555 1_555
C77A C76A 1_555 1_555
H76A C77A 1_555 1_555
C78A C77A 1_555 1_555
H77A C78A 1_555 1_555
C79A N6A 1_555 1_555
H78A C79A 1_555 1_555
C80A C71A 1_555 1_555
C81A C80A 1_555 1_555
C82A N4A 1_555 1_555
H79A C82A 1_555 1_555
C83A C81A 1_555 1_555
C84A C83A 1_555 1_555
H80A C84A 1_555 1_555
C85A C84A 1_555 1_555
H81A C85A 1_555 1_555
C86A N4A 1_555 1_555
H82A C86A 1_555 1_555
C11 C14 1_555 1_555
C13 C15 1_555 1_555
C15 C16 1_555 1_555
C20 C21 1_555 1_555
C21 C22 1_555 1_555
C22 C23 1_555 1_555
C24 C25 1_555 1_555
C28 C29 1_555 1_555
C32 C33 1_555 1_555
C35 C36 1_555 1_555
C39 C40 1_555 1_555
C42 C43 1_555 1_555
N4 Pd1A 1_555 1_555
C54 C57 1_555 1_555
C56 C58 1_555 1_555
C58 C59 1_555 1_555
C63 C64 1_555 1_555
C64 C65 1_555 1_555
C65 C66 1_555 1_555
C67 C68 1_555 1_555
C71 C72 1_555 1_555
C75 C76 1_555 1_555
C78 C79 1_555 1_555
C82 C83 1_555 1_555
C85 C86 1_555 1_555
C11A C14A 1_555 1_555
C13A C15A 1_555 1_555
C15A C16A 1_555 1_555
C20A C21A 1_555 1_555
C21A C22A 1_555 1_555
C22A C23A 1_555 1_555
C24A C25A 1_555 1_555
C28A C29A 1_555 1_555
C32A C33A 1_555 1_555
C35A C36A 1_555 1_555
C39A C40A 1_555 1_555
C42A C43A 1_555 1_555
C54A C57A 1_555 1_555
C56A C58A 1_555 1_555
C58A C59A 1_555 1_555
C63A C64A 1_555 1_555
C64A C65A 1_555 1_555
C65A C66A 1_555 1_555
C67A C68A 1_555 1_555
C71A C72A 1_555 1_555
C75A C76A 1_555 1_555
C78A C79A 1_555 1_555
C82A C83A 1_555 1_555
C85A C86A 1_555 1_555

#END
