
#######################################################################
#
#                 Cambridge Crystallographic Data Centre
#                                CCDC 
#
#######################################################################
#
# If this CIF has been generated from an entry in the Cambridge 
# Structural Database, then it will include bibliographic, chemical, 
# crystal, experimental, refinement or atomic coordinate data resulting 
# from the CCDC's data processing and validation procedures.
#
#######################################################################

data_ALICUU
_chemical_formula_moiety         
'C16 H36 N1 1+,C60 H50 Cl1 N4 O3 P2 Rh1,C2 H3 O2 1-'
_chemical_name_systematic        
"Tetra-n-butylammonium trans-carbonyl-chloro-(1,1-bis(7-((4-(diphenylphosphino)benzoyl)amino)-3-methyl-1H-indol-2-yl)propane-P,P')-rhodium acetate clathrate unknown solvate"
_symmetry_cell_setting           orthorhombic
_symmetry_space_group_name_H-M   'P n m a'
_symmetry_Int_Tables_number      62
_space_group_name_Hall           '-P 2ac 2n'
loop_
_symmetry_equiv_pos_site_id
_symmetry_equiv_pos_as_xyz
1 x,y,z
2 1/2-x,-y,1/2+z
3 1/2+x,1/2-y,1/2-z
4 -x,1/2+y,-z
5 -x,-y,-z
6 1/2+x,y,1/2-z
7 1/2-x,1/2+y,1/2+z
8 x,1/2-y,z
_cell_length_a                   19.7962(3)
_cell_length_b                   24.1139(5)
_cell_length_c                   17.2646(3)
_cell_angle_alpha                90
_cell_angle_beta                 90
_cell_angle_gamma                90
_cell_volume                     8241.49
_exptl_crystal_colour            yellow
_exptl_crystal_description       block
_cell_formula_units_Z            4
loop_
_atom_site_label
_atom_site_type_symbol
_atom_site_fract_x
_atom_site_fract_y
_atom_site_fract_z
O3 O 0.47080(11) 0.29628(9) 0.82988(11)
C33 C 0.4865(2) 0.2500 0.8022(2)
C34 C 0.5280(3) 0.2500 0.7291(3)
H29 H 0.4973 0.2500 0.6840
H30 H 0.5560 0.2171 0.7262
O3G O 0.47080(11) 0.20372(9) 0.82988(11)
H30G H 0.5560 0.2829 0.7262
N3 N 0.21922(17) 0.2500 0.9244(2)
C35 C 0.2778(2) 0.2500 0.8665(2)
H31 H 0.3061 0.2169 0.8764
C36 C 0.2578(3) 0.2500 0.7821(3)
H32 H 0.2303 0.2167 0.7706
C37 C 0.3213(3) 0.2500 0.7317(3)
H33 H 0.3486 0.2168 0.7444
C38 C 0.3065(3) 0.2500 0.6459(3)
H34 H 0.3496 0.2500 0.6184
H35 H 0.2824 0.2176 0.6327
C39 C 0.2511(2) 0.2500 1.0050(2)
H36 H 0.2803 0.2831 1.0101
C40 C 0.2002(3) 0.2500 1.0705(3)
H37 H 0.1710 0.2169 1.0653
C41 C 0.2298(3) 0.2500 1.1478(3)
H38 H 0.2593 0.2170 1.1522
C42 C 0.1833(3) 0.2500 1.2154(3)
H39 H 0.1365 0.2500 1.1966
H40 H 0.1895 0.2176 1.2462
C43 C 0.17403(15) 0.30034(13) 0.91299(19)
H41 H 0.1363 0.2978 0.9504
H42 H 0.1543 0.2983 0.8604
C44 C 0.20661(18) 0.35651(15) 0.9222(2)
H43 H 0.2309 0.3581 0.9722
H44 H 0.2399 0.3623 0.8801
C45 C 0.1527(2) 0.40295(17) 0.9194(3)
H45 H 0.1733 0.4383 0.9364
H46 H 0.1157 0.3938 0.9558
C46 C 0.1243(3) 0.4100(2) 0.8403(3)
H47 H 0.0997 0.3764 0.8254
H48 H 0.0934 0.4418 0.8398
H49 H 0.1611 0.4165 0.8035
H31G H 0.3061 0.2831 0.8764
H32G H 0.2303 0.2833 0.7706
H33G H 0.3486 0.2832 0.7444
H35G H 0.2824 0.2824 0.6327
H36G H 0.2803 0.2169 1.0101
H37G H 0.1710 0.2831 1.0653
H38G H 0.2593 0.2830 1.1522
H40G H 0.1895 0.2824 1.2462
C43G C 0.17403(15) 0.19966(13) 0.91299(19)
H41G H 0.1363 0.2022 0.9504
H42G H 0.1543 0.2017 0.8604
C44G C 0.20661(18) 0.14349(15) 0.9222(2)
H43G H 0.2309 0.1419 0.9722
H44G H 0.2399 0.1377 0.8801
C45G C 0.1527(2) 0.09705(17) 0.9194(3)
H45G H 0.1733 0.0617 0.9364
H46G H 0.1157 0.1062 0.9558
C46G C 0.1243(3) 0.0900(2) 0.8403(3)
H47G H 0.0997 0.1236 0.8254
H48G H 0.0934 0.0582 0.8398
H49G H 0.1611 0.0835 0.8035
Rh1 Rh 0.419707(15) 0.2500 0.438292(16)
Cl1 Cl 0.51811(5) 0.2500 0.51458(6)
P1 P 0.41388(4) 0.34640(3) 0.44522(4)
O1 O 0.30311(14) 0.45309(11) 0.78446(12)
O2 O 0.31938(16) 0.2500 0.31155(16)
N1 N 0.38014(12) 0.39602(10) 0.83996(12)
H1 H 0.4120 0.3715 0.8305
N2 N 0.42098(12) 0.32238(11) 0.97319(12)
H2 H 0.4353 0.3066 0.9302
C1 C 0.4702(2) 0.2500 1.0626(2)
H3 H 0.4792 0.2500 1.1196
C2 C 0.5404(3) 0.2500 1.0239(3)
C3 C 0.5907(3) 0.2198(3) 1.0599(4)
C4 C 0.3999(2) 0.33291(15) 1.18692(17)
H9 H 0.4159 0.2961 1.2026
H10 H 0.4298 0.3614 1.2086
H11 H 0.3539 0.3386 1.2062
C5 C 0.40020(17) 0.33701(14) 1.09997(16)
C6 C 0.43089(16) 0.30166(13) 1.04756(15)
C7 C 0.38554(16) 0.37107(13) 0.97711(15)
C8 C 0.37054(17) 0.38101(13) 1.05609(16)
C9 C 0.3334(2) 0.42760(14) 1.07743(17)
H12 H 0.3215 0.4338 1.1300
C10 C 0.3144(2) 0.46431(14) 1.02093(19)
H13 H 0.2896 0.4965 1.0349
C11 C 0.33087(18) 0.45536(13) 0.94246(17)
H14 H 0.3182 0.4822 0.9049
C12 C 0.36513(16) 0.40825(13) 0.91906(15)
C13 C 0.34865(16) 0.41969(13) 0.77829(16)
C14 C 0.37049(14) 0.40216(11) 0.69789(15)
C15 C 0.43014(15) 0.37588(13) 0.67947(16)
H15 H 0.4620 0.3679 0.7190
C16 C 0.44404(15) 0.36086(12) 0.60294(15)
H16 H 0.4854 0.3429 0.5908
C17 C 0.39758(14) 0.37200(11) 0.54425(14)
C18 C 0.33906(15) 0.40013(13) 0.56301(16)
H17 H 0.3077 0.4094 0.5234
C19 C 0.32551(15) 0.41501(12) 0.63903(16)
H18 H 0.2849 0.4342 0.6509
C20 C 0.48853(15) 0.38452(12) 0.41367(15)
C21 C 0.49633(17) 0.44060(12) 0.42899(16)
H19 H 0.4634 0.4594 0.4592
C22 C 0.55109(19) 0.46933(14) 0.40112(19)
H20 H 0.5553 0.5079 0.4110
C23 C 0.6002(2) 0.44186(15) 0.3585(2)
H21 H 0.6386 0.4615 0.3399
C24 C 0.59318(19) 0.38617(15) 0.3432(2)
H22 H 0.6268 0.3673 0.3141
C25 C 0.53697(17) 0.35737(13) 0.37035(17)
H23 H 0.5319 0.3190 0.3591
C26 C 0.34327(16) 0.37726(12) 0.39169(15)
C27 C 0.35043(18) 0.42224(12) 0.34166(16)
H24 H 0.3938 0.4378 0.3327
C28 C 0.2941(2) 0.44421(15) 0.30495(17)
H25 H 0.2992 0.4750 0.2711
C29 C 0.2315(2) 0.42228(15) 0.31681(19)
H26 H 0.1933 0.4378 0.2914
C30 C 0.22358(18) 0.37745(15) 0.3659(2)
H27 H 0.1799 0.3622 0.3745
C31 C 0.27924(16) 0.35475(14) 0.40257(18)
H28 H 0.2737 0.3235 0.4355
C32 C 0.3560(2) 0.2500 0.3626(2)
P1G P 0.41388(4) 0.15360(3) 0.44522(4)
O1G O 0.30311(14) 0.04691(11) 0.78446(12)
N1G N 0.38014(12) 0.10398(10) 0.83996(12)
H1G H 0.4120 0.1285 0.8305
N2G N 0.42098(12) 0.17762(11) 0.97319(12)
H2G H 0.4353 0.1934 0.9302
C3G C 0.5907(3) 0.2802(3) 1.0599(4)
C4G C 0.3999(2) 0.16709(15) 1.18692(17)
H9G H 0.4159 0.2039 1.2026
H10G H 0.4298 0.1386 1.2086
H11G H 0.3539 0.1614 1.2062
C5G C 0.40020(17) 0.16299(14) 1.09997(16)
C6G C 0.43089(16) 0.19834(13) 1.04756(15)
C7G C 0.38554(16) 0.12893(13) 0.97711(15)
C8G C 0.37054(17) 0.11899(13) 1.05609(16)
C9G C 0.3334(2) 0.07240(14) 1.07743(17)
H12G H 0.3215 0.0662 1.1300
C10G C 0.3144(2) 0.03569(14) 1.02093(19)
H13G H 0.2896 0.0035 1.0349
C11G C 0.33087(18) 0.04464(13) 0.94246(17)
H14G H 0.3182 0.0178 0.9049
C12G C 0.36513(16) 0.09175(13) 0.91906(15)
C13G C 0.34865(16) 0.08031(13) 0.77829(16)
C14G C 0.37049(14) 0.09784(11) 0.69789(15)
C15G C 0.43014(15) 0.12412(13) 0.67947(16)
H15G H 0.4620 0.1321 0.7190
C16G C 0.44404(15) 0.13914(12) 0.60294(15)
H16G H 0.4854 0.1571 0.5908
C17G C 0.39758(14) 0.12800(11) 0.54425(14)
C18G C 0.33906(15) 0.09987(13) 0.56301(16)
H17G H 0.3077 0.0906 0.5234
C19G C 0.32551(15) 0.08499(12) 0.63903(16)
H18G H 0.2849 0.0658 0.6509
C20G C 0.48853(15) 0.11548(12) 0.41367(15)
C21G C 0.49633(17) 0.05940(12) 0.42899(16)
H19G H 0.4634 0.0406 0.4592
C22G C 0.55109(19) 0.03067(14) 0.40112(19)
H20G H 0.5553 -0.0079 0.4110
C23G C 0.6002(2) 0.05814(15) 0.3585(2)
H21G H 0.6386 0.0385 0.3399
C24G C 0.59318(19) 0.11383(15) 0.3432(2)
H22G H 0.6268 0.1327 0.3141
C25G C 0.53697(17) 0.14263(13) 0.37035(17)
H23G H 0.5319 0.1810 0.3591
C26G C 0.34327(16) 0.12274(12) 0.39169(15)
C27G C 0.35043(18) 0.07776(12) 0.34166(16)
H24G H 0.3938 0.0622 0.3327
C28G C 0.2941(2) 0.05579(15) 0.30495(17)
H25G H 0.2992 0.0250 0.2711
C29G C 0.2315(2) 0.07772(15) 0.31681(19)
H26G H 0.1933 0.0622 0.2914
C30G C 0.22358(18) 0.12255(15) 0.3659(2)
H27G H 0.1799 0.1378 0.3745
C31G C 0.27924(16) 0.14525(14) 0.40257(18)
H28G H 0.2737 0.1765 0.4355
H4? H 0.5558 0.2889 1.0197
H5? H 0.5352 0.2356 0.9705
H6? H 0.6323 0.2223 1.0294
H7? H 0.5986 0.2348 1.1118
H8? H 0.5767 0.1809 1.0639
loop_
_geom_bond_atom_site_label_1
_geom_bond_atom_site_label_2
_geom_bond_site_symmetry_1
_geom_bond_site_symmetry_2
Rh1 Cl1 1_555 1_555
P1 Rh1 1_555 1_555
O1 C13 1_555 1_555
O2 C32 1_555 1_555
N1 H1 1_555 1_555
N2 H2 1_555 1_555
C1 H3 1_555 1_555
C2 C1 1_555 1_555
C3 C2 1_555 1_555
C4 H9 1_555 1_555
H10 C4 1_555 1_555
H11 C4 1_555 1_555
C5 C4 1_555 1_555
C6 N2 1_555 1_555
C7 N2 1_555 1_555
C8 C5 1_555 1_555
C9 C8 1_555 1_555
H12 C9 1_555 1_555
C10 C9 1_555 1_555
H13 C10 1_555 1_555
C11 C10 1_555 1_555
H14 C11 1_555 1_555
C12 N1 1_555 1_555
C13 N1 1_555 1_555
C14 C13 1_555 1_555
C15 C14 1_555 1_555
H15 C15 1_555 1_555
C16 C15 1_555 1_555
H16 C16 1_555 1_555
C17 P1 1_555 1_555
C18 C17 1_555 1_555
H17 C18 1_555 1_555
C19 C14 1_555 1_555
H18 C19 1_555 1_555
C20 P1 1_555 1_555
C21 C20 1_555 1_555
H19 C21 1_555 1_555
C22 C21 1_555 1_555
H20 C22 1_555 1_555
C23 C22 1_555 1_555
H21 C23 1_555 1_555
C24 C23 1_555 1_555
H22 C24 1_555 1_555
C25 C20 1_555 1_555
H23 C25 1_555 1_555
C26 P1 1_555 1_555
C27 C26 1_555 1_555
H24 C27 1_555 1_555
C28 C27 1_555 1_555
H25 C28 1_555 1_555
C29 C28 1_555 1_555
H26 C29 1_555 1_555
C30 C29 1_555 1_555
H27 C30 1_555 1_555
C31 C26 1_555 1_555
H28 C31 1_555 1_555
C32 Rh1 1_555 1_555
O3 C33 1_555 1_555
C33 C34 1_555 1_555
C34 H29 1_555 1_555
H30 C34 1_555 1_555
N3 C35 1_555 1_555
C35 H31 1_555 1_555
C36 C35 1_555 1_555
H32 C36 1_555 1_555
C37 C36 1_555 1_555
H33 C37 1_555 1_555
C38 C37 1_555 1_555
H34 C38 1_555 1_555
H35 C38 1_555 1_555
C39 N3 1_555 1_555
H36 C39 1_555 1_555
C40 C39 1_555 1_555
H37 C40 1_555 1_555
C41 C40 1_555 1_555
H38 C41 1_555 1_555
C42 C41 1_555 1_555
H39 C42 1_555 1_555
H40 C42 1_555 1_555
C43 N3 1_555 1_555
H41 C43 1_555 1_555
H42 C43 1_555 1_555
C44 C43 1_555 1_555
H43 C44 1_555 1_555
H44 C44 1_555 1_555
C45 C44 1_555 1_555
H45 C45 1_555 1_555
H46 C45 1_555 1_555
C46 C45 1_555 1_555
H47 C46 1_555 1_555
H48 C46 1_555 1_555
H49 C46 1_555 1_555
P1G Rh1 1_555 1_555
O1G C13G 1_555 1_555
N1G H1G 1_555 1_555
N2G H2G 1_555 1_555
C3G C2 1_555 1_555
C4G H9G 1_555 1_555
H10G C4G 1_555 1_555
H11G C4G 1_555 1_555
C5G C4G 1_555 1_555
C6G C1 1_555 1_555
C7G N2G 1_555 1_555
C8G C5G 1_555 1_555
C9G C8G 1_555 1_555
H12G C9G 1_555 1_555
C10G C9G 1_555 1_555
H13G C10G 1_555 1_555
C11G C10G 1_555 1_555
H14G C11G 1_555 1_555
C12G N1G 1_555 1_555
C13G N1G 1_555 1_555
C14G C13G 1_555 1_555
C15G C14G 1_555 1_555
H15G C15G 1_555 1_555
C16G C15G 1_555 1_555
H16G C16G 1_555 1_555
C17G P1G 1_555 1_555
C18G C17G 1_555 1_555
H17G C18G 1_555 1_555
C19G C14G 1_555 1_555
H18G C19G 1_555 1_555
C20G P1G 1_555 1_555
C21G C20G 1_555 1_555
H19G C21G 1_555 1_555
C22G C21G 1_555 1_555
H20G C22G 1_555 1_555
C23G C22G 1_555 1_555
H21G C23G 1_555 1_555
C24G C23G 1_555 1_555
H22G C24G 1_555 1_555
C25G C20G 1_555 1_555
H23G C25G 1_555 1_555
C26G P1G 1_555 1_555
C27G C26G 1_555 1_555
H24G C27G 1_555 1_555
C28G C27G 1_555 1_555
H25G C28G 1_555 1_555
C29G C28G 1_555 1_555
H26G C29G 1_555 1_555
C30G C29G 1_555 1_555
H27G C30G 1_555 1_555
C31G C26G 1_555 1_555
H28G C31G 1_555 1_555
O3G C33 1_555 1_555
H30G C34 1_555 1_555
H31G C35 1_555 1_555
H32G C36 1_555 1_555
H33G C37 1_555 1_555
H35G C38 1_555 1_555
H36G C39 1_555 1_555
H37G C40 1_555 1_555
H38G C41 1_555 1_555
H40G C42 1_555 1_555
C43G N3 1_555 1_555
H41G C43G 1_555 1_555
H42G C43G 1_555 1_555
C44G C43G 1_555 1_555
H43G C44G 1_555 1_555
H44G C44G 1_555 1_555
C45G C44G 1_555 1_555
H45G C45G 1_555 1_555
H46G C45G 1_555 1_555
C46G C45G 1_555 1_555
H47G C46G 1_555 1_555
H48G C46G 1_555 1_555
H49G C46G 1_555 1_555
C1 C6 1_555 1_555
C3 C3G 1_555 1_555
C5 C6 1_555 1_555
C7 C8 1_555 1_555
C7 C12 1_555 1_555
C11 C12 1_555 1_555
C16 C17 1_555 1_555
C18 C19 1_555 1_555
C24 C25 1_555 1_555
C30 C31 1_555 1_555
N2G C6G 1_555 1_555
C5G C6G 1_555 1_555
C7G C8G 1_555 1_555
C7G C12G 1_555 1_555
C11G C12G 1_555 1_555
C16G C17G 1_555 1_555
C18G C19G 1_555 1_555
C24G C25G 1_555 1_555
C30G C31G 1_555 1_555

#END
