
#######################################################################
#
#                 Cambridge Crystallographic Data Centre
#                                CCDC 
#
#######################################################################
#
# If this CIF has been generated from an entry in the Cambridge 
# Structural Database, then it will include bibliographic, chemical, 
# crystal, experimental, refinement or atomic coordinate data resulting 
# from the CCDC's data processing and validation procedures.
#
#######################################################################

data_ALIZEA
_chemical_formula_moiety         
'C50 H58 N6 P4 Pt2 4+,4(C1 F3 O3 S1 1-),C4 H10 O1'
_chemical_name_systematic        
'bis(\m~2~-3,5-bis(4-Pyridylethynyl)pyridine)-tetrakis(trimethylphosphine)-di-platinum(ii) tetrakis(trifluoromethanesulfonate) diethyl ether clathrate'
_symmetry_cell_setting           triclinic
_symmetry_space_group_name_H-M   'P -1'
_symmetry_Int_Tables_number      2
_space_group_name_Hall           '-P 1'
loop_
_symmetry_equiv_pos_site_id
_symmetry_equiv_pos_as_xyz
1 x,y,z
2 -x,-y,-z
_cell_length_a                   8.77470(10)
_cell_length_b                   8.89800(10)
_cell_length_c                   24.3946(4)
_cell_angle_alpha                99.1060(10)
_cell_angle_beta                 95.7620(10)
_cell_angle_gamma                99.2140(10)
_cell_volume                     1840.88
_exptl_crystal_colour            colorless
_exptl_crystal_description       plate
_cell_formula_units_Z            1
_exptl_crystal_recrystallization_method 'diethyl ether/acetonitrile'
loop_
_atom_site_label
_atom_site_type_symbol
_atom_site_fract_x
_atom_site_fract_y
_atom_site_fract_z
Pt1 Pt 0.946491(13) 0.570979(13) 0.318423(5)
P1 P 1.16456(10) 0.54442(11) 0.37065(4)
P2 P 0.89224(10) 0.76713(10) 0.38002(4)
N1 N 0.9671(3) 0.3794(3) 0.25811(12)
N2 N 0.8886(4) -0.5489(4) 0.05365(15)
N3 N 0.7520(3) 0.5763(3) 0.26064(12)
C1 C 0.8969(4) 0.2388(4) 0.26402(16)
H1 H 0.8522 0.2273 0.2973
C2 C 0.8877(4) 0.1112(4) 0.22341(17)
H2 H 0.8387 0.0128 0.2291
C3 C 0.9497(4) 0.1251(4) 0.17392(16)
C4 C 1.0217(4) 0.2723(4) 0.16774(16)
H3 H 1.0651 0.2872 0.1345
C5 C 1.0287(4) 0.3957(4) 0.21066(16)
H4 H 1.0788 0.4954 0.2065
C6 C 0.9358(5) -0.0094(4) 0.13127(17)
C7 C 0.9158(5) -0.1271(5) 0.09859(17)
C8 C 0.8801(5) -0.2766(4) 0.06262(16)
C9 C 0.7921(5) -0.3008(5) 0.01066(17)
H5 H 0.7609 -0.2165 -0.0043
C10 C 0.7500(5) -0.4516(5) -0.01941(16)
C11 C 0.8000(5) -0.5702(5) 0.00447(18)
H6 H 0.7690 -0.6729 -0.0156
C12 C 0.9281(5) -0.4046(5) 0.08191(17)
H7 H 0.9920 -0.3872 0.1169
C13 C 0.6570(5) -0.4844(5) -0.07328(17)
C14 C 0.5781(5) -0.5104(5) -0.11753(16)
C15 C 0.4714(4) -0.5381(4) -0.16801(15)
C16 C 0.3402(4) -0.6544(4) -0.17644(16)
H8 H 0.3269 -0.7238 -0.1507
C17 C 0.7699(4) 0.6683(4) 0.22210(16)
H9 H 0.8611 0.7450 0.2265
C18 C 0.6228(4) 0.4680(4) 0.25464(16)
H10 H 0.6087 0.4049 0.2824
C19 C 0.4903(4) -0.4465(4) -0.20882(16)
H11 H 0.5806 -0.3692 -0.2053
C20 C 1.2910(4) 0.4525(5) 0.32757(18)
H12 H 1.3137 0.5111 0.2977
H13 H 1.2396 0.3466 0.3111
H14 H 1.3884 0.4498 0.3506
C21 C 1.1237(5) 0.4188(5) 0.42043(19)
H15 H 1.2216 0.4068 0.4409
H16 H 1.0679 0.3174 0.4006
H17 H 1.0592 0.4638 0.4468
C22 C 1.2923(4) 0.7166(5) 0.40851(17)
H18 H 1.3882 0.6888 0.4250
H19 H 1.2404 0.7662 0.4383
H20 H 1.3178 0.7883 0.3828
C23 C 1.0095(5) 0.9540(4) 0.38138(18)
H21 H 1.0115 0.9739 0.3431
H22 H 1.1158 0.9554 0.3985
H23 H 0.9649 1.0341 0.4034
C24 C 0.6942(4) 0.7946(4) 0.36399(18)
H24 H 0.6703 0.8732 0.3932
H25 H 0.6228 0.6967 0.3623
H26 H 0.6819 0.8287 0.3278
C25 C 0.8999(4) 0.7416(4) 0.45251(16)
H27 H 0.8701 0.8311 0.4750
H28 H 1.0059 0.7324 0.4666
H29 H 0.8277 0.6475 0.4551
C17A C 0.2301(4) -0.6683(4) -0.22210(16)
N3A N 0.2480(3) -0.5763(3) -0.26064(12)
Pt1A Pt 0.053509(13) -0.570979(13) -0.318423(5)
P1A P -0.16456(10) -0.54442(11) -0.37065(4)
C20A C -0.2910(4) -0.4525(5) -0.32757(18)
H12A H -0.3137 -0.5111 -0.2977
H13A H -0.2396 -0.3466 -0.3111
H14A H -0.3884 -0.4498 -0.3506
C21A C -0.1237(5) -0.4188(5) -0.42043(19)
H15A H -0.2216 -0.4068 -0.4409
H16A H -0.0679 -0.3174 -0.4006
H17A H -0.0592 -0.4638 -0.4468
C22A C -0.2923(4) -0.7166(5) -0.40851(17)
H18A H -0.3882 -0.6888 -0.4250
H19A H -0.2404 -0.7662 -0.4383
H20A H -0.3178 -0.7883 -0.3828
P2A P 0.10776(10) -0.76713(10) -0.38002(4)
C23A C -0.0095(5) -0.9540(4) -0.38138(18)
H21A H -0.0115 -0.9739 -0.3431
H22A H -0.1158 -0.9554 -0.3985
H23A H 0.0351 -1.0341 -0.4034
C24A C 0.3058(4) -0.7946(4) -0.36399(18)
H24A H 0.3297 -0.8732 -0.3932
H25A H 0.3772 -0.6967 -0.3623
H26A H 0.3181 -0.8287 -0.3278
C25A C 0.1001(4) -0.7416(4) -0.45251(16)
H27A H 0.1299 -0.8311 -0.4750
H28A H -0.0059 -0.7324 -0.4666
H29A H 0.1723 -0.6475 -0.4551
N1A N 0.0329(3) -0.3794(3) -0.25811(12)
C1A C 0.1031(4) -0.2388(4) -0.26402(16)
H1A H 0.1478 -0.2273 -0.2973
C2A C 0.1123(4) -0.1112(4) -0.22341(17)
H2A H 0.1613 -0.0128 -0.2291
C3A C 0.0503(4) -0.1251(4) -0.17392(16)
C4A C -0.0217(4) -0.2723(4) -0.16774(16)
H3A H -0.0651 -0.2872 -0.1345
C5A C -0.0287(4) -0.3957(4) -0.21066(16)
H4A H -0.0788 -0.4954 -0.2065
C6A C 0.0642(5) 0.0094(4) -0.13127(17)
C7A C 0.0842(5) 0.1271(5) -0.09859(17)
C8A C 0.1199(5) 0.2766(4) -0.06262(16)
C9A C 0.2079(5) 0.3008(5) -0.01066(17)
H5A H 0.2391 0.2165 0.0043
C10A C 0.2500(5) 0.4516(5) 0.01941(16)
C11A C 0.2000(5) 0.5702(5) -0.00447(18)
N2A N 0.1114(4) 0.5489(4) -0.05365(15)
C12A C 0.0719(5) 0.4046(5) -0.08191(17)
H7A H 0.0080 0.3872 -0.1169
H6A H 0.2310 0.6729 0.0156
C13A C 0.3430(5) 0.4844(5) 0.07328(17)
C14A C 0.4219(5) 0.5104(5) 0.11753(16)
C15A C 0.5286(4) 0.5381(4) 0.16801(15)
C16A C 0.6598(4) 0.6544(4) 0.17644(16)
H8A H 0.6731 0.7238 0.1507
C19A C 0.5097(4) 0.4465(4) 0.20882(16)
H11A H 0.4194 0.3692 0.2053
C18A C 0.3772(4) -0.4680(4) -0.25464(16)
H10A H 0.3913 -0.4049 -0.2824
H9A H 0.1389 -0.7450 -0.2265
S1 S 0.68272(10) 0.29136(11) 0.41255(4)
F1 F 0.5292(4) 0.0644(3) 0.45138(15)
F2 F 0.4471(3) 0.2760(4) 0.47036(12)
F3 F 0.3928(3) 0.1467(4) 0.38799(13)
O1 O 0.7814(4) 0.3322(5) 0.46447(14)
O2 O 0.6369(4) 0.4181(4) 0.39018(16)
O3 O 0.7301(5) 0.1801(4) 0.37201(17)
C26 C 0.5037(5) 0.1885(5) 0.43087(18)
S2 S 0.24806(11) 0.83592(12) 0.24057(4)
F4 F 0.4154(5) 1.1131(4) 0.26316(17)
F5 F 0.3058(3) 1.0512(4) 0.17971(14)
F6 F 0.5044(4) 0.9573(4) 0.20640(19)
O4 O 0.3427(4) 0.7911(4) 0.28367(16)
O5 O 0.1168(4) 0.8997(5) 0.25552(19)
O6 O 0.2142(5) 0.7235(4) 0.18981(17)
C27 C 0.3750(5) 0.9941(5) 0.2207(2)
O7 O 0.5000 0.0000 0.0000
C28 C 0.4959(17) -0.0054(15) 0.0593(5)
H30 H 0.3869 -0.0225 0.0675
H31 H 0.5456 -0.0911 0.0696
C29 C 0.5795(8) 0.1409(9) 0.0907(3)
H32 H 0.5789 0.1407 0.1308
H33 H 0.5291 0.2248 0.0803
H34 H 0.6872 0.1566 0.0823
C28A C 0.5041(17) 0.0054(15) -0.0593(5)
H30A H 0.6131 0.0225 -0.0675
H31A H 0.4544 0.0911 -0.0696
C29A C 0.4205(8) -0.1409(9) -0.0907(3)
H32A H 0.4211 -0.1407 -0.1308
H33A H 0.4709 -0.2248 -0.0803
H34A H 0.3128 -0.1566 -0.0823
H35? H 0.6675 0.2229 0.1078
H36? H 0.5806 0.0517 0.1096
H37? H 0.4818 0.1794 0.0945
C30? C 0.5916(18) 0.097(2) 0.0354(5)
H38? H 0.6017 0.1943 0.0198
H39? H 0.6937 0.0639 0.0345
loop_
_geom_bond_atom_site_label_1
_geom_bond_atom_site_label_2
_geom_bond_site_symmetry_1
_geom_bond_site_symmetry_2
Pt1 P1 1_555 1_555
P1 C20 1_555 1_555
P2 Pt1 1_555 1_555
N1 Pt1 1_555 1_555
N2 C11 1_555 1_555
N3 Pt1 1_555 1_555
C1 N1 1_555 1_555
H1 C1 1_555 1_555
C2 C1 1_555 1_555
H2 C2 1_555 1_555
C3 C2 1_555 1_555
C4 C3 1_555 1_555
H3 C4 1_555 1_555
C5 N1 1_555 1_555
H4 C5 1_555 1_555
C6 C3 1_555 1_555
C7 C6 1_555 1_555
C8 C7 1_555 1_555
C9 C8 1_555 1_555
H5 C9 1_555 1_555
C10 C9 1_555 1_555
C11 C10 1_555 1_555
H6 C11 1_555 1_555
C12 N2 1_555 1_555
H7 C12 1_555 1_555
C13 C10 1_555 1_555
C14 C13 1_555 1_555
C15 C14 1_555 1_555
C16 C15 1_555 1_555
H8 C16 1_555 1_555
C17 N3 1_555 1_555
H9 C17 1_555 1_555
C18 N3 1_555 1_555
H10 C18 1_555 1_555
C19 C15 1_555 1_555
H11 C19 1_555 1_555
C20 H12 1_555 1_555
H13 C20 1_555 1_555
H14 C20 1_555 1_555
C21 P1 1_555 1_555
H15 C21 1_555 1_555
H16 C21 1_555 1_555
H17 C21 1_555 1_555
C22 P1 1_555 1_555
H18 C22 1_555 1_555
H19 C22 1_555 1_555
H20 C22 1_555 1_555
C23 P2 1_555 1_555
H21 C23 1_555 1_555
H22 C23 1_555 1_555
H23 C23 1_555 1_555
C24 P2 1_555 1_555
H24 C24 1_555 1_555
H25 C24 1_555 1_555
H26 C24 1_555 1_555
C25 P2 1_555 1_555
H27 C25 1_555 1_555
H28 C25 1_555 1_555
H29 C25 1_555 1_555
S1 O1 1_555 1_555
F1 C26 1_555 1_555
F2 C26 1_555 1_555
F3 C26 1_555 1_555
O2 S1 1_555 1_555
O3 S1 1_555 1_555
C26 S1 1_555 1_555
S2 O4 1_555 1_555
F4 C27 1_555 1_555
F5 C27 1_555 1_555
F6 C27 1_555 1_555
O5 S2 1_555 1_555
O6 S2 1_555 1_555
C27 S2 1_555 1_555
O7 C28 1_555 1_555
C28 H30 1_555 1_555
H31 C28 1_555 1_555
C29 C28 1_555 1_555
H32 C29 1_555 1_555
H33 C29 1_555 1_555
H34 C29 1_555 1_555
C17A C16 1_555 1_555
N3A C17A 1_555 1_555
Pt1A N3A 1_555 1_555
P1A Pt1A 1_555 1_555
C20A P1A 1_555 1_555
H12A C20A 1_555 1_555
H13A C20A 1_555 1_555
H14A C20A 1_555 1_555
C21A P1A 1_555 1_555
H15A C21A 1_555 1_555
H16A C21A 1_555 1_555
H17A C21A 1_555 1_555
C22A P1A 1_555 1_555
H18A C22A 1_555 1_555
H19A C22A 1_555 1_555
H20A C22A 1_555 1_555
P2A Pt1A 1_555 1_555
C23A P2A 1_555 1_555
H21A C23A 1_555 1_555
H22A C23A 1_555 1_555
H23A C23A 1_555 1_555
C24A P2A 1_555 1_555
H24A C24A 1_555 1_555
H25A C24A 1_555 1_555
H26A C24A 1_555 1_555
C25A P2A 1_555 1_555
H27A C25A 1_555 1_555
H28A C25A 1_555 1_555
H29A C25A 1_555 1_555
N1A Pt1A 1_555 1_555
C1A N1A 1_555 1_555
H1A C1A 1_555 1_555
C2A C1A 1_555 1_555
H2A C2A 1_555 1_555
C3A C2A 1_555 1_555
C4A C3A 1_555 1_555
H3A C4A 1_555 1_555
C5A N1A 1_555 1_555
H4A C5A 1_555 1_555
C6A C3A 1_555 1_555
C7A C6A 1_555 1_555
C8A C7A 1_555 1_555
C9A C8A 1_555 1_555
H5A C9A 1_555 1_555
C10A C9A 1_555 1_555
C11A C10A 1_555 1_555
N2A C11A 1_555 1_555
C12A C8A 1_555 1_555
H7A C12A 1_555 1_555
H6A C11A 1_555 1_555
C13A C10A 1_555 1_555
C14A C13A 1_555 1_555
C15A C14A 1_555 1_555
C16A C17 1_555 1_555
H8A C16A 1_555 1_555
C19A C18 1_555 1_555
H11A C19A 1_555 1_555
C18A C19 1_555 1_555
H10A C18A 1_555 1_555
H9A C17A 1_555 1_555
C28A O7 1_555 1_555
H30A C28A 1_555 1_555
H31A C28A 1_555 1_555
C29A C28A 1_555 1_555
H32A C29A 1_555 1_555
H33A C29A 1_555 1_555
H34A C29A 1_555 1_555
C4 C5 1_555 1_555
C8 C12 1_555 1_555
N3A C18A 1_555 1_555
C4A C5A 1_555 1_555
N2A C12A 1_555 1_555
C15A C16A 1_555 1_555
C15A C19A 1_555 1_555

#END
