
#######################################################################
#
#                 Cambridge Crystallographic Data Centre
#                                CCDC 
#
#######################################################################
#
# If this CIF has been generated from an entry in the Cambridge 
# Structural Database, then it will include bibliographic, chemical, 
# crystal, experimental, refinement or atomic coordinate data resulting 
# from the CCDC's data processing and validation procedures.
#
#######################################################################

data_AMIWEY
_chemical_formula_moiety         
'C168 H160 N16 O12 Ru2 4+,4(F6 P1 1-),12(C3 H6 O1)'
_chemical_name_systematic        
"(\m~2~-1^3^,1^5^,5^2^,5^6^,20^3^,20^5^,24^2^,24^6^-Octamethyl-1,5,20,24(1,4)-tetrabenzena-2,21(5,2),3,22(2,6),4,23(2,5)-hexapyridina-6,9,16,19,25,28,35,38-octaoxaoctatriacontaphane-N,N',N'',N''',N'''',N''''')-(\m~2~-1^3^,1^5^,5^2^,5^6^,12^3^,12^5^,16^2^,16^6^-octamethyl-1,5,12,16(1,4)-tetrabenzena-2,13(4,2),3,14(2,6),4,15(2,4)-hexapyridina-6,11,17,22-tetraoxadocosaphane-N,N',N'',N''',N'''',N''''')-di-ruthenium tetrakis(hexafluorophosphate) acetone solvate"
_symmetry_cell_setting           triclinic
_symmetry_space_group_name_H-M   'P -1'
_symmetry_Int_Tables_number      2
_space_group_name_Hall           '-P 1'
loop_
_symmetry_equiv_pos_site_id
_symmetry_equiv_pos_as_xyz
1 x,y,z
2 -x,-y,-z
_cell_length_a                   14.8913(6)
_cell_length_b                   15.6077(7)
_cell_length_c                   24.0096(12)
_cell_angle_alpha                98.0435(17)
_cell_angle_beta                 90.089(2)
_cell_angle_gamma                90.9363(16)
_cell_volume                     5524.61
_exptl_crystal_colour            red
_exptl_crystal_description       prism
_cell_formula_units_Z            1
_exptl_crystal_recrystallization_method 'acetone/diethyl ether'
loop_
_atom_site_label
_atom_site_type_symbol
_atom_site_fract_x
_atom_site_fract_y
_atom_site_fract_z
P1 P 0.09837(15) 0.20422(14) 0.92504(8)
F1 F 0.1662(4) 0.2786(3) 0.9119(2)
F2 F 0.1059(3) 0.2370(3) 0.99080(14)
F3 F 0.1787(4) 0.1394(3) 0.9300(2)
F4 F 0.0156(3) 0.2659(3) 0.9216(2)
F5 F 0.0879(4) 0.1697(3) 0.85978(14)
F6 F 0.0299(4) 0.1301(3) 0.9389(2)
P2 P 0.5292(2) 0.2200(2) 0.45479(15)
F7 F 0.5232(5) 0.2088(5) 0.51955(19)
F8 F 0.4223(3) 0.2228(4) 0.4515(3)
F9 F 0.5330(5) 0.3226(3) 0.4713(3)
F10 F 0.5346(5) 0.2311(5) 0.38969(18)
F11 F 0.6361(3) 0.2177(5) 0.4579(3)
F12 F 0.5255(5) 0.1175(3) 0.4379(3)
Ru1 Ru 0.86218(3) 0.00026(3) 0.758041(19)
O1 O 0.4949(5) 0.5467(4) 0.9217(2)
O2 O 0.1258(3) 0.5585(3) 0.54208(18)
O3 O 0.8537(3) 0.2164(3) 0.41483(19)
O4 O 0.8607(4) 0.2351(3) 0.29958(19)
O5 O 0.8077(4) 0.1848(4) 0.0507(2)
O6 O 0.6273(3) 0.1326(3) 0.02426(19)
N1 N 0.8689(3) -0.1146(3) 0.70250(19)
N2 N 0.7409(3) -0.0041(3) 0.72177(19)
N3 N 0.8082(3) 0.1158(3) 0.7968(2)
N4 N 0.8290(4) -0.0537(3) 0.8295(2)
N5 N 0.9806(4) -0.0066(3) 0.79266(19)
N6 N 0.9436(3) 0.0504(3) 0.7064(2)
N7 N 0.2253(5) 0.5351(4) 0.6780(3)
N8 N 0.3774(6) 0.5612(5) 0.7946(3)
C1 C 0.9406(4) -0.1638(3) 0.6899(2)
H1 H 0.9951 -0.1493 0.7100
C2 C 0.9383(5) -0.2348(4) 0.6488(3)
H2 H 0.9910 -0.2679 0.6413
C3 C 0.8626(5) -0.2586(4) 0.6187(2)
C4 C 0.7869(4) -0.2063(4) 0.6306(2)
H3 H 0.7322 -0.2210 0.6109
C5 C 0.7921(4) -0.1330(4) 0.6710(2)
C6 C 0.7195(4) -0.0732(4) 0.6829(2)
C7 C 0.6348(5) -0.0763(5) 0.6595(3)
H4 H 0.6185 -0.1220 0.6306
C8 C 0.5741(6) -0.0141(5) 0.6777(4)
H5 H 0.5142 -0.0198 0.6638
C9 C 0.5989(5) 0.0582(5) 0.7164(3)
H6 H 0.5584 0.1042 0.7263
C10 C 0.6815(4) 0.0605(4) 0.7390(3)
C11 C 0.7247(4) 0.1298(4) 0.7800(2)
C12 C 0.6759(5) 0.2014(4) 0.8024(2)
H7 H 0.6151 0.2063 0.7913
C13 C 0.7150(5) 0.2658(4) 0.8408(2)
C14 C 0.8037(5) 0.2523(4) 0.8575(3)
H8 H 0.8339 0.2939 0.8841
C15 C 0.8454(5) 0.1781(4) 0.8349(2)
H9 H 0.9051 0.1698 0.8468
C16 C 0.6616(5) 0.3446(4) 0.8613(3)
C17 C 0.6428(5) 0.3641(4) 0.9196(3)
C18 C 0.5870(6) 0.4344(5) 0.9365(3)
H10 H 0.5746 0.4489 0.9755
C19 C 0.5502(6) 0.4822(5) 0.9002(3)
C20 C 0.5717(7) 0.4638(5) 0.8425(3)
H11 H 0.5480 0.4980 0.8164
C21 C 0.6279(6) 0.3952(5) 0.8241(3)
C22 C 0.6770(5) 0.3125(5) 0.9617(3)
H12 H 0.6411 0.3237 0.9961
H13 H 0.7399 0.3286 0.9704
H14 H 0.6727 0.2509 0.9467
C23 C 0.6491(7) 0.3785(6) 0.7614(3)
H15 H 0.7040 0.3447 0.7555
H16 H 0.6578 0.4339 0.7471
H17 H 0.5991 0.3463 0.7412
C24 C 0.4532(8) 0.5965(6) 0.8816(4)
H18 H 0.4266 0.6489 0.9028
H19 H 0.5006 0.6158 0.8571
C25 C 0.3851(10) 0.5508(8) 0.8468(5)
C26 C 0.3219(13) 0.4970(11) 0.8707(6)
H20 H 0.3277 0.4886 0.9090
C27 C 0.2535(11) 0.4578(10) 0.8391(6)
H21 H 0.2123 0.4211 0.8550
C28 C 0.2434(9) 0.4717(8) 0.7817(5)
H22 H 0.1955 0.4459 0.7587
C29 C 0.3068(8) 0.5242(7) 0.7619(4)
C30 C 0.3017(8) 0.5415(5) 0.7035(3)
C31 C 0.3771(8) 0.5667(6) 0.6801(4)
H23 H 0.4324 0.5703 0.7002
C32 C 0.3731(7) 0.5880(7) 0.6244(5)
H24 H 0.4254 0.6057 0.6061
C33 C 0.2931(6) 0.5821(6) 0.5990(4)
H25 H 0.2875 0.5962 0.5619
C34 C 0.2182(5) 0.5555(4) 0.6264(3)
C35 C 0.1294(5) 0.5540(4) 0.6010(3)
H26 H 0.0980 0.5002 0.6080
H27 H 0.0955 0.6032 0.6207
C36 C 0.1333(4) 0.4820(4) 0.5064(3)
C37 C 0.1214(5) 0.4894(4) 0.4505(3)
H28 H 0.1108 0.5449 0.4400
C38 C 0.1242(5) 0.4193(4) 0.4093(3)
C39 C 0.8583(4) -0.3366(4) 0.5750(2)
C40 C 0.8429(4) -0.3301(3) 0.5187(2)
C41 C 0.1538(4) 0.4034(4) 0.5217(3)
H29 H 0.1659 0.3987 0.5600
C42 C 0.1128(5) 0.4325(4) 0.3481(3)
H30 H 0.1240 0.4936 0.3445
H31 H 0.0515 0.4160 0.3356
H32 H 0.1557 0.3966 0.3248
C43 C 0.8219(6) -0.2431(4) 0.4992(3)
H33 H 0.7645 -0.2221 0.5152
H34 H 0.8697 -0.2009 0.5118
H35 H 0.8179 -0.2507 0.4580
C44 C 0.7451(5) -0.0721(4) 0.8487(3)
H36 H 0.6958 -0.0708 0.8237
C45 C 0.7276(5) -0.0920(4) 0.9003(3)
C46 C 0.8020(5) -0.1002(4) 0.9351(3)
H37 H 0.7932 -0.1148 0.9718
C47 C 0.8876(5) -0.0871(4) 0.9160(3)
H38 H 0.9378 -0.0944 0.9393
C48 C 0.9012(4) -0.0638(4) 0.8639(2)
C49 C 0.9879(4) -0.0412(4) 0.8403(3)
C50 C 1.0713(5) -0.0549(4) 0.8618(3)
H39 H 1.0766 -0.0788 0.8959
C51 C 1.1482(5) -0.0334(4) 0.8331(3)
H40 H 1.2059 -0.0444 0.8471
C52 C 1.1411(5) 0.0031(4) 0.7854(3)
H41 H 1.1934 0.0189 0.7664
C53 C 1.0562(4) 0.0173(4) 0.7646(3)
C54 C 1.0335(5) 0.0536(4) 0.7115(3)
C55 C 1.0948(5) 0.0821(4) 0.6774(3)
H42 H 1.1570 0.0813 0.6862
C56 C 1.0662(5) 0.1128(4) 0.6291(3)
H43 H 1.1086 0.1329 0.6041
C57 C 0.9746(5) 0.1141(4) 0.6174(3)
C58 C 0.9163(4) 0.0866(4) 0.6552(2)
H44 H 0.8538 0.0910 0.6482
C59 C 0.9414(4) 0.1417(4) 0.5648(3)
C60 C 0.9508(4) 0.2271(4) 0.5539(3)
C61 C 0.9219(5) 0.2492(4) 0.5037(3)
H45 H 0.9296 0.3071 0.4964
C62 C 0.8811(5) 0.1878(4) 0.4627(3)
C63 C 0.8695(5) 0.1042(4) 0.4736(3)
H46 H 0.8402 0.0625 0.4468
C64 C 0.9006(5) 0.0804(4) 0.5239(3)
C65 C 0.9894(5) 0.2967(4) 0.5982(3)
H47 H 0.9486 0.3055 0.6304
H48 H 0.9965 0.3509 0.5822
H49 H 1.0480 0.2787 0.6106
C66 C 0.8888(5) -0.0140(4) 0.5344(3)
H50 H 0.8421 -0.0176 0.5627
H51 H 0.9456 -0.0345 0.5479
H52 H 0.8713 -0.0501 0.4992
C67 C 0.8127(5) 0.1527(5) 0.3730(3)
H53 H 0.7603 0.1251 0.3891
H54 H 0.8563 0.1072 0.3596
C68 C 0.7831(6) 0.1995(5) 0.3246(3)
H55 H 0.7508 0.1585 0.2960
H56 H 0.7417 0.2465 0.3388
C69 C 0.8208(10) 0.2546(16) 0.2481(6)
H57 H 0.7748 0.2996 0.2563
H58 H 0.7920 0.2021 0.2272
C70 C 0.8945(11) 0.2859(14) 0.2149(6)
H59 H 0.9434 0.2432 0.2109
H60 H 0.9191 0.3412 0.2347
C71 C 0.8617(11) 0.2988(15) 0.1587(6)
H61 H 0.8259 0.2475 0.1422
H62 H 0.8223 0.3497 0.1622
C72 C 0.9375(14) 0.3122(17) 0.1214(6)
H63 H 0.9806 0.2649 0.1227
H64 H 0.9687 0.3671 0.1364
C73 C 0.913(2) 0.315(2) 0.0623(6)
H65 H 0.9657 0.3373 0.0427
H66 H 0.8638 0.3564 0.0607
C74 C 0.886(3) 0.230(3) 0.0330(9)
H67 H 0.8764 0.2361 -0.0071
H68 H 0.9374 0.1910 0.0344
C81 C 0.7816(5) 0.1066(5) 0.0145(3)
H81 H 0.8284 0.0624 0.0153
H82 H 0.7752 0.1187 -0.0247
C82 C 0.6952(5) 0.0738(5) 0.0343(3)
H83 H 0.6811 0.0157 0.0137
H84 H 0.6989 0.0693 0.0749
C83 C 0.5416(5) 0.1187(5) 0.0439(3)
C84 C 0.5180(5) 0.0450(5) 0.0674(2)
H85 H 0.5607 0.0014 0.0707
C85 C 0.4282(5) 0.0364(5) 0.0864(2)
C86 C 0.6330(4) -0.1028(4) 0.9191(2)
C87 C 0.6050(5) -0.1760(4) 0.9429(2)
C88 C 0.4820(5) 0.1808(5) 0.0383(3)
H86 H 0.5005 0.2293 0.0210
C89 C 0.4041(5) -0.0457(4) 0.1089(3)
H87 H 0.4107 -0.0367 0.1500
H88 H 0.4442 -0.0917 0.0927
H89 H 0.3418 -0.0623 0.0989
C90 C 0.6688(5) -0.2493(5) 0.9492(3)
H90 H 0.7073 -0.2329 0.9822
H91 H 0.6340 -0.3016 0.9539
H92 H 0.7061 -0.2607 0.9155
C39A C 0.1417(4) 0.3366(4) 0.4250(2)
C3A C 0.1374(5) 0.2586(4) 0.3813(2)
C2A C 0.0617(5) 0.2348(4) 0.3512(3)
C1A C 0.0594(4) 0.1638(3) 0.3101(2)
N1A N 0.1311(3) 0.1146(3) 0.29750(19)
Ru1A Ru 0.13782(3) -0.00026(3) 0.241959(19)
N2A N 0.2591(3) 0.0041(3) 0.27823(19)
C6A C 0.2805(4) 0.0732(4) 0.3171(2)
C5A C 0.2079(4) 0.1330(4) 0.3290(2)
C4A C 0.2131(4) 0.2063(4) 0.3694(2)
H3A H 0.2678 0.2210 0.3891
C7A C 0.3652(5) 0.0763(5) 0.3405(3)
H4A H 0.3815 0.1220 0.3694
C8A C 0.4259(6) 0.0141(5) 0.3223(4)
H5A H 0.4858 0.0198 0.3362
C9A C 0.4011(5) -0.0582(5) 0.2836(3)
H6A H 0.4416 -0.1042 0.2737
C10A C 0.3185(4) -0.0605(4) 0.2610(3)
C11A C 0.2753(4) -0.1298(4) 0.2200(2)
N3A N 0.1918(3) -0.1158(3) 0.2032(2)
N4A N 0.1710(4) 0.0537(3) 0.1705(2)
C44A C 0.2549(5) 0.0721(4) 0.1513(3)
H36A H 0.3042 0.0708 0.1763
C45A C 0.2724(5) 0.0920(4) 0.0997(3)
C46A C 0.1980(5) 0.1002(4) 0.0649(3)
H37A H 0.2068 0.1148 0.0282
C47A C 0.1124(5) 0.0871(4) 0.0840(3)
H38A H 0.0622 0.0944 0.0607
C48A C 0.0988(4) 0.0638(4) 0.1361(2)
C49A C 0.0121(4) 0.0412(4) 0.1597(3)
N5A N 0.0194(4) 0.0066(3) 0.20734(19)
N6A N 0.0564(3) -0.0504(3) 0.2936(2)
C54A C -0.0335(5) -0.0536(4) 0.2885(3)
C53A C -0.0562(4) -0.0173(4) 0.2354(3)
C52A C -0.1411(5) -0.0031(4) 0.2146(3)
C51A C -0.1482(5) 0.0334(4) 0.1669(3)
C50A C -0.0713(5) 0.0549(4) 0.1382(3)
H39A H -0.0766 0.0788 0.1041
H40A H -0.2059 0.0444 0.1529
H41A H -0.1934 -0.0189 0.2336
C55A C -0.0948(5) -0.0821(4) 0.3226(3)
H42A H -0.1570 -0.0813 0.3138
C56A C -0.0662(5) -0.1128(4) 0.3709(3)
H43A H -0.1086 -0.1329 0.3959
C57A C 0.0254(5) -0.1141(4) 0.3826(3)
C58A C 0.0837(4) -0.0866(4) 0.3448(2)
H44A H 0.1462 -0.0910 0.3518
C59A C 0.0586(4) -0.1417(4) 0.4352(3)
C60A C 0.0492(4) -0.2271(4) 0.4461(3)
C61A C 0.0781(5) -0.2492(4) 0.4963(3)
H45A H 0.0704 -0.3071 0.5036
C62A C 0.1189(5) -0.1878(4) 0.5373(3)
O3A O 0.1463(3) -0.2164(3) 0.58517(19)
C67A C 0.1873(5) -0.1527(5) 0.6270(3)
H53A H 0.2397 -0.1251 0.6109
H54A H 0.1437 -0.1072 0.6404
C68A C 0.2169(6) -0.1995(5) 0.6754(3)
O4A O 0.1393(4) -0.2351(3) 0.70042(19)
C69A C 0.1792(10) -0.2546(16) 0.7519(6)
H57A H 0.2252 -0.2996 0.7437
H58A H 0.2080 -0.2021 0.7728
C70A C 0.1055(11) -0.2859(14) 0.7851(6)
H59A H 0.0566 -0.2432 0.7891
H60A H 0.0809 -0.3412 0.7653
C71A C 0.1383(11) -0.2988(15) 0.8413(6)
H61A H 0.1741 -0.2475 0.8578
H62A H 0.1777 -0.3497 0.8378
C72A C 0.0625(14) -0.3122(17) 0.8786(6)
H63A H 0.0194 -0.2649 0.8773
H64A H 0.0313 -0.3671 0.8636
C73A C 0.087(2) -0.315(2) 0.9377(6)
H65A H 0.0343 -0.3373 0.9573
H66A H 0.1362 -0.3564 0.9393
C74A C 0.114(3) -0.230(3) 0.9670(9)
O5A O 0.1923(4) -0.1848(4) 0.9493(2)
C81A C 0.2184(5) -0.1066(5) 0.9855(3)
H81A H 0.1716 -0.0624 0.9847
H82A H 0.2248 -0.1187 1.0247
C82A C 0.3048(5) -0.0738(5) 0.9657(3)
O6A O 0.3727(3) -0.1326(3) 0.97574(19)
C83A C 0.4584(5) -0.1187(5) 0.9561(3)
C84A C 0.4820(5) -0.0450(5) 0.9326(2)
H85A H 0.4393 -0.0014 0.9293
C85A C 0.5718(5) -0.0364(5) 0.9136(2)
C86A C 0.3670(4) 0.1028(4) 0.0809(2)
C87A C 0.3950(5) 0.1760(4) 0.0571(2)
C90A C 0.3312(5) 0.2493(5) 0.0508(3)
H90A H 0.2927 0.2329 0.0178
H91A H 0.3660 0.3016 0.0461
H92A H 0.2939 0.2607 0.0845
C88A C 0.5180(5) -0.1808(5) 0.9617(3)
H86A H 0.4995 -0.2293 0.9790
C89A C 0.5959(5) 0.0457(4) 0.8911(3)
H87A H 0.5893 0.0367 0.8500
H88A H 0.5558 0.0917 0.9073
H89A H 0.6582 0.0623 0.9011
H83A H 0.3189 -0.0157 0.9863
H84A H 0.3011 -0.0693 0.9251
H67A H 0.1236 -0.2361 1.0071
H68A H 0.0626 -0.1910 0.9656
H55A H 0.2492 -0.1585 0.7040
H56A H 0.2583 -0.2465 0.6612
C63A C 0.1305(5) -0.1042(4) 0.5264(3)
H46A H 0.1598 -0.0625 0.5532
C64A C 0.0994(5) -0.0804(4) 0.4761(3)
C66A C 0.1112(5) 0.0140(4) 0.4656(3)
H50A H 0.1579 0.0176 0.4373
H51A H 0.0544 0.0345 0.4521
H52A H 0.1287 0.0501 0.5008
C65A C 0.0106(5) -0.2967(4) 0.4018(3)
H47A H 0.0514 -0.3055 0.3696
H48A H 0.0035 -0.3509 0.4178
H49A H -0.0480 -0.2787 0.3894
C15A C 0.1546(5) -0.1781(4) 0.1651(2)
C14A C 0.1963(5) -0.2523(4) 0.1425(3)
C13A C 0.2850(5) -0.2658(4) 0.1592(2)
C12A C 0.3241(5) -0.2014(4) 0.1976(2)
H7A H 0.3849 -0.2063 0.2087
C16A C 0.3384(5) -0.3446(4) 0.1387(3)
C17A C 0.3572(5) -0.3641(4) 0.0804(3)
C18A C 0.4130(6) -0.4344(5) 0.0635(3)
H10A H 0.4254 -0.4489 0.0245
C19A C 0.4498(6) -0.4822(5) 0.0998(3)
O1A O 0.5051(5) -0.5467(4) 0.0783(2)
C24A C 0.5468(8) -0.5965(6) 0.1184(4)
H18A H 0.5734 -0.6489 0.0972
H19A H 0.4994 -0.6158 0.1429
C25A C 0.6149(10) -0.5508(8) 0.1532(5)
N8A N 0.6226(6) -0.5612(5) 0.2054(3)
C29A C 0.6932(8) -0.5242(7) 0.2381(4)
C28A C 0.7566(9) -0.4717(8) 0.2183(5)
C27A C 0.7465(11) -0.4578(10) 0.1609(6)
C26A C 0.6781(13) -0.4970(11) 0.1293(6)
H20A H 0.6723 -0.4886 0.0910
H21A H 0.7877 -0.4211 0.1450
H22A H 0.8045 -0.4459 0.2413
C30A C 0.6983(8) -0.5415(5) 0.2965(3)
N7A N 0.7747(5) -0.5351(4) 0.3220(3)
C34A C 0.7818(5) -0.5555(4) 0.3736(3)
C33A C 0.7069(6) -0.5821(6) 0.4010(4)
C32A C 0.6269(7) -0.5880(7) 0.3756(5)
C31A C 0.6229(8) -0.5667(6) 0.3199(4)
H23A H 0.5676 -0.5703 0.2998
H24A H 0.5746 -0.6057 0.3939
H25A H 0.7125 -0.5962 0.4381
C35A C 0.8706(5) -0.5540(4) 0.3990(3)
O2A O 0.8742(3) -0.5585(3) 0.45792(18)
C36A C 0.8667(4) -0.4820(4) 0.4936(3)
C37A C 0.8786(5) -0.4894(4) 0.5495(3)
H28A H 0.8892 -0.5449 0.5600
C38A C 0.8758(5) -0.4193(4) 0.5907(3)
C41A C 0.8462(4) -0.4034(4) 0.4783(3)
H29A H 0.8341 -0.3987 0.4400
C42A C 0.8872(5) -0.4325(4) 0.6519(3)
H30A H 0.8760 -0.4936 0.6555
H31A H 0.9485 -0.4160 0.6644
H32A H 0.8443 -0.3966 0.6752
H26A H 0.9020 -0.5002 0.3920
H27A H 0.9045 -0.6032 0.3793
C20A C 0.4283(7) -0.4638(5) 0.1575(3)
H11A H 0.4520 -0.4980 0.1836
C21A C 0.3721(6) -0.3952(5) 0.1759(3)
C23A C 0.3509(7) -0.3785(6) 0.2386(3)
H15A H 0.2960 -0.3447 0.2445
H16A H 0.3422 -0.4339 0.2529
H17A H 0.4009 -0.3463 0.2588
C22A C 0.3230(5) -0.3125(5) 0.0383(3)
H12A H 0.3589 -0.3237 0.0039
H13A H 0.2601 -0.3286 0.0296
H14A H 0.3273 -0.2509 0.0533
H8A H 0.1661 -0.2939 0.1159
H9A H 0.0949 -0.1698 0.1532
H1A H 0.0049 0.1493 0.2900
H2A H 0.0090 0.2679 0.3587
C40A C 0.1571(4) 0.3301(3) 0.4813(2)
C43A C 0.1781(6) 0.2431(4) 0.5008(3)
H33A H 0.2355 0.2221 0.4848
H34A H 0.1303 0.2009 0.4882
H35A H 0.1821 0.2507 0.5420
F13? F 0.5730(17) 0.1619(15) 0.4969(9)
F14? F 0.4479(14) 0.1518(15) 0.4432(11)
F15? F 0.4748(16) 0.2714(17) 0.5057(8)
F16? F 0.4853(17) 0.2779(15) 0.4126(9)
F17? F 0.6104(13) 0.2880(15) 0.4664(11)
F18? F 0.5835(16) 0.1684(17) 0.4039(8)
C75? C 0.8560(12) 0.2742(13) 0.2477(6)
H69? H 0.8038 0.3130 0.2509
H70? H 0.8430 0.2271 0.2165
C76? C 0.9343(11) 0.3242(10) 0.2311(5)
H71? H 0.9875 0.2867 0.2269
H72? H 0.9475 0.3733 0.2609
C77? C 0.9162(12) 0.3573(9) 0.1774(5)
H73? H 0.8569 0.3852 0.1789
H74? H 0.9626 0.4011 0.1710
C78? C 0.9174(16) 0.2846(11) 0.1308(6)
H75? H 0.9778 0.2587 0.1294
H76? H 0.8738 0.2398 0.1394
C79? C 0.8962(18) 0.3073(18) 0.0750(6)
H77? H 0.9451 0.3445 0.0633
H78? H 0.8402 0.3408 0.0773
C80? C 0.885(2) 0.230(3) 0.0324(8)
H79? H 0.8746 0.2469 -0.0053
H80? H 0.9389 0.1935 0.0309
loop_
_geom_bond_atom_site_label_1
_geom_bond_atom_site_label_2
_geom_bond_site_symmetry_1
_geom_bond_site_symmetry_2
Ru1 N1 1_555 1_555
P1 F1 1_555 1_555
P2 F7 1_555 1_555
F2 P1 1_555 1_555
F3 P1 1_555 1_555
F4 P1 1_555 1_555
F5 P1 1_555 1_555
F6 P1 1_555 1_555
F8 P2 1_555 1_555
F9 P2 1_555 1_555
F10 P2 1_555 1_555
F11 P2 1_555 1_555
F12 P2 1_555 1_555
O1 C19 1_555 1_555
O2 C35 1_555 1_555
O3 C62 1_555 1_555
O4 C68 1_555 1_555
O5 C74 1_555 1_555
O6 C82 1_555 1_555
N1 C1 1_555 1_555
N2 Ru1 1_555 1_555
N3 Ru1 1_555 1_555
N4 Ru1 1_555 1_555
N5 Ru1 1_555 1_555
N6 Ru1 1_555 1_555
N7 C30 1_555 1_555
N8 C25 1_555 1_555
C1 H1 1_555 1_555
C2 C1 1_555 1_555
H2 C2 1_555 1_555
C3 C2 1_555 1_555
C4 C3 1_555 1_555
H3 C4 1_555 1_555
C5 N1 1_555 1_555
C6 N2 1_555 1_555
C7 C6 1_555 1_555
H4 C7 1_555 1_555
C8 C7 1_555 1_555
H5 C8 1_555 1_555
C9 C8 1_555 1_555
H6 C9 1_555 1_555
C10 N2 1_555 1_555
C11 N3 1_555 1_555
C12 C11 1_555 1_555
H7 C12 1_555 1_555
C13 C12 1_555 1_555
C14 C13 1_555 1_555
H8 C14 1_555 1_555
C15 N3 1_555 1_555
H9 C15 1_555 1_555
C16 C13 1_555 1_555
C17 C16 1_555 1_555
C18 C17 1_555 1_555
H10 C18 1_555 1_555
C19 C18 1_555 1_555
C20 C19 1_555 1_555
H11 C20 1_555 1_555
C21 C16 1_555 1_555
C22 C17 1_555 1_555
H12 C22 1_555 1_555
H13 C22 1_555 1_555
H14 C22 1_555 1_555
C23 C21 1_555 1_555
H15 C23 1_555 1_555
H16 C23 1_555 1_555
H17 C23 1_555 1_555
C24 O1 1_555 1_555
H18 C24 1_555 1_555
H19 C24 1_555 1_555
C25 C24 1_555 1_555
C26 C25 1_555 1_555
H20 C26 1_555 1_555
C27 C26 1_555 1_555
H21 C27 1_555 1_555
C28 C27 1_555 1_555
H22 C28 1_555 1_555
C29 N8 1_555 1_555
C30 C29 1_555 1_555
C31 C30 1_555 1_555
H23 C31 1_555 1_555
C32 C31 1_555 1_555
H24 C32 1_555 1_555
C33 C32 1_555 1_555
H25 C33 1_555 1_555
C34 N7 1_555 1_555
C35 C34 1_555 1_555
H26 C35 1_555 1_555
H27 C35 1_555 1_555
C36 O2 1_555 1_555
C37 C36 1_555 1_555
H28 C37 1_555 1_555
C38 C37 1_555 1_555
C39 C3 1_555 1_555
C40 C39 1_555 1_555
C41 C36 1_555 1_555
H29 C41 1_555 1_555
C42 C38 1_555 1_555
H30 C42 1_555 1_555
H31 C42 1_555 1_555
H32 C42 1_555 1_555
C43 C40 1_555 1_555
H33 C43 1_555 1_555
H34 C43 1_555 1_555
H35 C43 1_555 1_555
C44 N4 1_555 1_555
H36 C44 1_555 1_555
C45 C44 1_555 1_555
C46 C45 1_555 1_555
H37 C46 1_555 1_555
C47 C46 1_555 1_555
H38 C47 1_555 1_555
C48 N4 1_555 1_555
C49 N5 1_555 1_555
C50 C49 1_555 1_555
H39 C50 1_555 1_555
C51 C50 1_555 1_555
H40 C51 1_555 1_555
C52 C51 1_555 1_555
H41 C52 1_555 1_555
C53 N5 1_555 1_555
C54 N6 1_555 1_555
C55 C54 1_555 1_555
H42 C55 1_555 1_555
C56 C55 1_555 1_555
H43 C56 1_555 1_555
C57 C56 1_555 1_555
C58 N6 1_555 1_555
H44 C58 1_555 1_555
C59 C57 1_555 1_555
C60 C59 1_555 1_555
C61 C60 1_555 1_555
H45 C61 1_555 1_555
C62 C61 1_555 1_555
C63 C62 1_555 1_555
H46 C63 1_555 1_555
C64 C59 1_555 1_555
C65 C60 1_555 1_555
H47 C65 1_555 1_555
H48 C65 1_555 1_555
H49 C65 1_555 1_555
C66 C64 1_555 1_555
H50 C66 1_555 1_555
H51 C66 1_555 1_555
H52 C66 1_555 1_555
C67 O3 1_555 1_555
H53 C67 1_555 1_555
H54 C67 1_555 1_555
C68 C67 1_555 1_555
H55 C68 1_555 1_555
H56 C68 1_555 1_555
C69 O4 1_555 1_555
H57 C69 1_555 1_555
H58 C69 1_555 1_555
C70 C69 1_555 1_555
H59 C70 1_555 1_555
H60 C70 1_555 1_555
C71 C70 1_555 1_555
H61 C71 1_555 1_555
H62 C71 1_555 1_555
C72 C71 1_555 1_555
H63 C72 1_555 1_555
H64 C72 1_555 1_555
C73 C72 1_555 1_555
H65 C73 1_555 1_555
H66 C73 1_555 1_555
C74 C73 1_555 1_555
H67 C74 1_555 1_555
H68 C74 1_555 1_555
C81 O5 1_555 1_555
H81 C81 1_555 1_555
H82 C81 1_555 1_555
C82 C81 1_555 1_555
H83 C82 1_555 1_555
H84 C82 1_555 1_555
C83 O6 1_555 1_555
C84 C83 1_555 1_555
H85 C84 1_555 1_555
C85 C84 1_555 1_555
C86 C45 1_555 1_555
C87 C86 1_555 1_555
C88 C83 1_555 1_555
H86 C88 1_555 1_555
C89 C85 1_555 1_555
H87 C89 1_555 1_555
H88 C89 1_555 1_555
H89 C89 1_555 1_555
C90 C87 1_555 1_555
H90 C90 1_555 1_555
H91 C90 1_555 1_555
H92 C90 1_555 1_555
C39A C38 1_555 1_555
C3A C39A 1_555 1_555
C2A C3A 1_555 1_555
C1A C2A 1_555 1_555
N1A C1A 1_555 1_555
Ru1A N1A 1_555 1_555
N2A Ru1A 1_555 1_555
C6A N2A 1_555 1_555
C5A N1A 1_555 1_555
C4A C3A 1_555 1_555
H3A C4A 1_555 1_555
C7A C6A 1_555 1_555
H4A C7A 1_555 1_555
C8A C7A 1_555 1_555
H5A C8A 1_555 1_555
C9A C8A 1_555 1_555
H6A C9A 1_555 1_555
C10A N2A 1_555 1_555
C11A C10A 1_555 1_555
N3A Ru1A 1_555 1_555
N4A Ru1A 1_555 1_555
C44A N4A 1_555 1_555
H36A C44A 1_555 1_555
C45A C44A 1_555 1_555
C46A C45A 1_555 1_555
H37A C46A 1_555 1_555
C47A C46A 1_555 1_555
H38A C47A 1_555 1_555
C48A N4A 1_555 1_555
C49A C48A 1_555 1_555
N5A Ru1A 1_555 1_555
N6A Ru1A 1_555 1_555
C54A N6A 1_555 1_555
C53A N5A 1_555 1_555
C52A C53A 1_555 1_555
C51A C52A 1_555 1_555
C50A C49A 1_555 1_555
H39A C50A 1_555 1_555
H40A C51A 1_555 1_555
H41A C52A 1_555 1_555
C55A C54A 1_555 1_555
H42A C55A 1_555 1_555
C56A C55A 1_555 1_555
H43A C56A 1_555 1_555
C57A C56A 1_555 1_555
C58A N6A 1_555 1_555
H44A C58A 1_555 1_555
C59A C57A 1_555 1_555
C60A C59A 1_555 1_555
C61A C60A 1_555 1_555
H45A C61A 1_555 1_555
C62A C61A 1_555 1_555
O3A C62A 1_555 1_555
C67A O3A 1_555 1_555
H53A C67A 1_555 1_555
H54A C67A 1_555 1_555
C68A C67A 1_555 1_555
O4A C68A 1_555 1_555
C69A O4A 1_555 1_555
H57A C69A 1_555 1_555
H58A C69A 1_555 1_555
C70A C69A 1_555 1_555
H59A C70A 1_555 1_555
H60A C70A 1_555 1_555
C71A C70A 1_555 1_555
H61A C71A 1_555 1_555
H62A C71A 1_555 1_555
C72A C71A 1_555 1_555
H63A C72A 1_555 1_555
H64A C72A 1_555 1_555
C73A C72A 1_555 1_555
H65A C73A 1_555 1_555
H66A C73A 1_555 1_555
C74A C73A 1_555 1_555
O5A C74A 1_555 1_555
C81A O5A 1_555 1_555
H81A C81A 1_555 1_555
H82A C81A 1_555 1_555
C82A C81A 1_555 1_555
O6A C82A 1_555 1_555
C83A O6A 1_555 1_555
C84A C83A 1_555 1_555
H85A C84A 1_555 1_555
C85A C86 1_555 1_555
C86A C85 1_555 1_555
C87A C88 1_555 1_555
C90A C87A 1_555 1_555
H90A C90A 1_555 1_555
H91A C90A 1_555 1_555
H92A C90A 1_555 1_555
C88A C87 1_555 1_555
H86A C88A 1_555 1_555
C89A C85A 1_555 1_555
H87A C89A 1_555 1_555
H88A C89A 1_555 1_555
H89A C89A 1_555 1_555
H83A C82A 1_555 1_555
H84A C82A 1_555 1_555
H67A C74A 1_555 1_555
H68A C74A 1_555 1_555
H55A C68A 1_555 1_555
H56A C68A 1_555 1_555
C63A C62A 1_555 1_555
H46A C63A 1_555 1_555
C64A C59A 1_555 1_555
C66A C64A 1_555 1_555
H50A C66A 1_555 1_555
H51A C66A 1_555 1_555
H52A C66A 1_555 1_555
C65A C60A 1_555 1_555
H47A C65A 1_555 1_555
H48A C65A 1_555 1_555
H49A C65A 1_555 1_555
C15A N3A 1_555 1_555
C14A C15A 1_555 1_555
C13A C14A 1_555 1_555
C12A C11A 1_555 1_555
H7A C12A 1_555 1_555
C16A C13A 1_555 1_555
C17A C16A 1_555 1_555
C18A C17A 1_555 1_555
H10A C18A 1_555 1_555
C19A C18A 1_555 1_555
O1A C19A 1_555 1_555
C24A O1A 1_555 1_555
H18A C24A 1_555 1_555
H19A C24A 1_555 1_555
C25A C24A 1_555 1_555
N8A C25A 1_555 1_555
C29A N8A 1_555 1_555
C28A C29A 1_555 1_555
C27A C28A 1_555 1_555
C26A C25A 1_555 1_555
H20A C26A 1_555 1_555
H21A C27A 1_555 1_555
H22A C28A 1_555 1_555
C30A C29A 1_555 1_555
N7A C30A 1_555 1_555
C34A N7A 1_555 1_555
C33A C34A 1_555 1_555
C32A C33A 1_555 1_555
C31A C30A 1_555 1_555
H23A C31A 1_555 1_555
H24A C32A 1_555 1_555
H25A C33A 1_555 1_555
C35A C34A 1_555 1_555
O2A C35A 1_555 1_555
C36A O2A 1_555 1_555
C37A C36A 1_555 1_555
H28A C37A 1_555 1_555
C38A C39 1_555 1_555
C41A C40 1_555 1_555
H29A C41A 1_555 1_555
C42A C38A 1_555 1_555
H30A C42A 1_555 1_555
H31A C42A 1_555 1_555
H32A C42A 1_555 1_555
H26A C35A 1_555 1_555
H27A C35A 1_555 1_555
C20A C19A 1_555 1_555
H11A C20A 1_555 1_555
C21A C16A 1_555 1_555
C23A C21A 1_555 1_555
H15A C23A 1_555 1_555
H16A C23A 1_555 1_555
H17A C23A 1_555 1_555
C22A C17A 1_555 1_555
H12A C22A 1_555 1_555
H13A C22A 1_555 1_555
H14A C22A 1_555 1_555
H8A C14A 1_555 1_555
H9A C15A 1_555 1_555
H1A C1A 1_555 1_555
H2A C2A 1_555 1_555
C40A C41 1_555 1_555
C43A C40A 1_555 1_555
H33A C43A 1_555 1_555
H34A C43A 1_555 1_555
H35A C43A 1_555 1_555
C4 C5 1_555 1_555
C5 C6 1_555 1_555
C9 C10 1_555 1_555
C10 C11 1_555 1_555
C14 C15 1_555 1_555
C20 C21 1_555 1_555
C28 C29 1_555 1_555
C33 C34 1_555 1_555
C47 C48 1_555 1_555
C48 C49 1_555 1_555
C52 C53 1_555 1_555
C53 C54 1_555 1_555
C57 C58 1_555 1_555
C63 C64 1_555 1_555
C39A C40A 1_555 1_555
C6A C5A 1_555 1_555
C5A C4A 1_555 1_555
C9A C10A 1_555 1_555
C11A N3A 1_555 1_555
C45A C86A 1_555 1_555
C47A C48A 1_555 1_555
C49A N5A 1_555 1_555
C54A C53A 1_555 1_555
C51A C50A 1_555 1_555
C57A C58A 1_555 1_555
C83A C88A 1_555 1_555
C84A C85A 1_555 1_555
C86A C87A 1_555 1_555
C63A C64A 1_555 1_555
C13A C12A 1_555 1_555
C27A C26A 1_555 1_555
C32A C31A 1_555 1_555
C36A C41A 1_555 1_555
C37A C38A 1_555 1_555
C20A C21A 1_555 1_555

#END
