# generated using pymatgen
data_H16PdC18Br2(N2O)2
_symmetry_space_group_name_H-M   'P 1'
_cell_length_a   17.64000000
_cell_length_b   31.96000000
_cell_length_c   36.60600000
_cell_angle_alpha   92.08700000
_cell_angle_beta   90.00000000
_cell_angle_gamma   90.00000000
_symmetry_Int_Tables_number   1
_chemical_formula_structural   H16PdC18Br2(N2O)2
_chemical_formula_sum   'H384 Pd24 C432 Br48 N96 O48'
_cell_volume   20623.83644929
_cell_formula_units_Z   24
loop_
 _symmetry_equiv_pos_site_id
 _symmetry_equiv_pos_as_xyz
  1  'x, y, z'
loop_
 _atom_site_type_symbol
 _atom_site_label
 _atom_site_symmetry_multiplicity
 _atom_site_fract_x
 _atom_site_fract_y
 _atom_site_fract_z
 _atom_site_occupancy
  H  H1  1  0.669200  0.644500  0.014600  1
  H  H2  1  0.169200  0.355500  0.485400  1
  H  H3  1  0.330800  0.355500  0.985400  1
  H  H4  1  0.830800  0.644500  0.514600  1
  H  H5  1  0.782000  0.828800  0.002200  1
  H  H6  1  0.282000  0.171200  0.497800  1
  H  H7  1  0.218000  0.171200  0.997800  1
  H  H8  1  0.718000  0.828800  0.502200  1
  H  H9  1  0.438200  0.790900  0.042900  1
  H  H10  1  0.938200  0.209100  0.457100  1
  H  H11  1  0.561800  0.209100  0.957100  1
  H  H12  1  0.061800  0.790900  0.542900  1
  H  H13  1  0.693000  0.558400  0.868300  1
  H  H14  1  0.193000  0.441600  0.631700  1
  H  H15  1  0.307000  0.441600  0.131700  1
  H  H16  1  0.807000  0.558400  0.368300  1
  H  H17  1  0.513800  0.547600  0.821300  1
  H  H18  1  0.013800  0.452400  0.678700  1
  H  H19  1  0.486200  0.452400  0.178700  1
  H  H20  1  0.986200  0.547600  0.321300  1
  H  H21  1  0.793200  0.691700  0.749900  1
  H  H22  1  0.293200  0.308300  0.750100  1
  H  H23  1  0.206800  0.308300  0.250100  1
  H  H24  1  0.706800  0.691700  0.249900  1
  H  H25  1  0.628200  0.992500  0.904600  1
  H  H26  1  0.128200  0.007500  0.595400  1
  H  H27  1  0.371800  0.007500  0.095400  1
  H  H28  1  0.871800  0.992500  0.404600  1
  H  H29  1  0.641600  0.874100  0.731900  1
  H  H30  1  0.141600  0.125900  0.768100  1
  H  H31  1  0.358400  0.125900  0.268100  1
  H  H32  1  0.858400  0.874100  0.231900  1
  H  H33  1  0.457200  0.904700  0.771200  1
  H  H34  1  0.957200  0.095300  0.728800  1
  H  H35  1  0.542800  0.095300  0.228800  1
  H  H36  1  0.042800  0.904700  0.271200  1
  H  H37  1  0.190600  0.699100  0.933100  1
  H  H38  1  0.690600  0.300900  0.566900  1
  H  H39  1  0.809400  0.300900  0.066900  1
  H  H40  1  0.309400  0.699100  0.433100  1
  H  H41  1  0.198400  0.618300  0.864400  1
  H  H42  1  0.698400  0.381700  0.635600  1
  H  H43  1  0.801600  0.381700  0.135600  1
  H  H44  1  0.301600  0.618300  0.364400  1
  H  H45  1  0.151300  0.841800  0.824600  1
  H  H46  1  0.651300  0.158200  0.675400  1
  H  H47  1  0.848700  0.158200  0.175400  1
  H  H48  1  0.348700  0.841800  0.324600  1
  H  H49  1  0.916100  0.520500  0.048500  1
  H  H50  1  0.416100  0.479500  0.451500  1
  H  H51  1  0.083900  0.479500  0.951500  1
  H  H52  1  0.583900  0.520500  0.548500  1
  H  H53  1  0.917600  0.549100  0.103100  1
  H  H54  1  0.417600  0.450900  0.396900  1
  H  H55  1  0.082400  0.450900  0.896900  1
  H  H56  1  0.582400  0.549100  0.603100  1
  H  H57  1  0.848400  0.607200  0.115900  1
  H  H58  1  0.348400  0.392800  0.384100  1
  H  H59  1  0.151600  0.392800  0.884100  1
  H  H60  1  0.651600  0.607200  0.615900  1
  H  H61  1  0.774900  0.634900  0.071100  1
  H  H62  1  0.274900  0.365100  0.428900  1
  H  H63  1  0.225100  0.365100  0.928900  1
  H  H64  1  0.725100  0.634900  0.571100  1
  H  H65  1  0.798500  0.620000  0.978300  1
  H  H66  1  0.298500  0.380000  0.521700  1
  H  H67  1  0.201500  0.380000  0.021700  1
  H  H68  1  0.701500  0.620000  0.478300  1
  H  H69  1  0.729200  0.589800  0.987400  1
  H  H70  1  0.229200  0.410200  0.512600  1
  H  H71  1  0.270800  0.410200  0.012600  1
  H  H72  1  0.770800  0.589800  0.487400  1
  H  H73  1  0.949400  0.976700  0.066900  1
  H  H74  1  0.449400  0.023300  0.433100  1
  H  H75  1  0.050600  0.023300  0.933100  1
  H  H76  1  0.550600  0.976700  0.566900  1
  H  H77  1  0.976100  0.932300  0.111200  1
  H  H78  1  0.476100  0.067700  0.388800  1
  H  H79  1  0.023900  0.067700  0.888800  1
  H  H80  1  0.523900  0.932300  0.611200  1
  H  H81  1  0.893900  0.874200  0.119700  1
  H  H82  1  0.393900  0.125800  0.380300  1
  H  H83  1  0.106100  0.125800  0.880300  1
  H  H84  1  0.606100  0.874200  0.619700  1
  H  H85  1  0.819500  0.850400  0.069800  1
  H  H86  1  0.319500  0.149600  0.430200  1
  H  H87  1  0.180500  0.149600  0.930200  1
  H  H88  1  0.680500  0.850400  0.569800  1
  H  H89  1  0.740000  0.910900  0.008700  1
  H  H90  1  0.240000  0.089100  0.491300  1
  H  H91  1  0.260000  0.089100  0.991300  1
  H  H92  1  0.760000  0.910900  0.508700  1
  H  H93  1  0.812100  0.893500  0.986700  1
  H  H94  1  0.312100  0.106500  0.513300  1
  H  H95  1  0.187900  0.106500  0.013300  1
  H  H96  1  0.687900  0.893500  0.486700  1
  H  H97  1  0.197100  0.736200  0.151900  1
  H  H98  1  0.697100  0.263800  0.348100  1
  H  H99  1  0.802900  0.263800  0.848100  1
  H  H100  1  0.302900  0.736200  0.651900  1
  H  H101  1  0.273000  0.769600  0.194300  1
  H  H102  1  0.773000  0.230400  0.305700  1
  H  H103  1  0.727000  0.230400  0.805700  1
  H  H104  1  0.227000  0.769600  0.694300  1
  H  H105  1  0.392900  0.787300  0.179800  1
  H  H106  1  0.892900  0.212700  0.320200  1
  H  H107  1  0.607100  0.212700  0.820200  1
  H  H108  1  0.107100  0.787300  0.679800  1
  H  H109  1  0.438500  0.782600  0.118400  1
  H  H110  1  0.938500  0.217400  0.381600  1
  H  H111  1  0.561500  0.217400  0.881600  1
  H  H112  1  0.061500  0.782600  0.618400  1
  H  H113  1  0.342900  0.725200  0.048200  1
  H  H114  1  0.842900  0.274800  0.451800  1
  H  H115  1  0.657100  0.274800  0.951800  1
  H  H116  1  0.157100  0.725200  0.548200  1
  H  H117  1  0.317900  0.773000  0.044700  1
  H  H118  1  0.817900  0.227000  0.455300  1
  H  H119  1  0.682100  0.227000  0.955300  1
  H  H120  1  0.182100  0.773000  0.544700  1
  H  H121  1  0.763000  0.769500  0.011800  1
  H  H122  1  0.263000  0.230500  0.488200  1
  H  H123  1  0.237000  0.230500  0.988200  1
  H  H124  1  0.737000  0.769500  0.511800  1
  H  H125  1  0.554200  0.812800  0.037300  1
  H  H126  1  0.054200  0.187200  0.462700  1
  H  H127  1  0.445800  0.187200  0.962700  1
  H  H128  1  0.945800  0.812800  0.537300  1
  H  H129  1  0.590400  0.686800  0.024600  1
  H  H130  1  0.090400  0.313200  0.475400  1
  H  H131  1  0.409600  0.313200  0.975400  1
  H  H132  1  0.909600  0.686800  0.524600  1
  H  H133  1  0.920200  0.059900  0.978900  1
  H  H134  1  0.420200  0.940100  0.521100  1
  H  H135  1  0.079800  0.940100  0.021100  1
  H  H136  1  0.579800  0.059900  0.478900  1
  H  H137  1  0.908300  0.112700  0.941900  1
  H  H138  1  0.408300  0.887300  0.558100  1
  H  H139  1  0.091700  0.887300  0.058100  1
  H  H140  1  0.591700  0.112700  0.441900  1
  H  H141  1  0.813600  0.109200  0.897400  1
  H  H142  1  0.313600  0.890800  0.602600  1
  H  H143  1  0.186400  0.890800  0.102600  1
  H  H144  1  0.686400  0.109200  0.397400  1
  H  H145  1  0.733200  0.048800  0.894200  1
  H  H146  1  0.233200  0.951200  0.605800  1
  H  H147  1  0.266800  0.951200  0.105800  1
  H  H148  1  0.766800  0.048800  0.394200  1
  H  H149  1  0.697700  0.990800  0.962300  1
  H  H150  1  0.197700  0.009200  0.537700  1
  H  H151  1  0.302300  0.009200  0.037700  1
  H  H152  1  0.802300  0.990800  0.462300  1
  H  H153  1  0.757600  0.960700  0.942100  1
  H  H154  1  0.257600  0.039300  0.557900  1
  H  H155  1  0.242400  0.039300  0.057900  1
  H  H156  1  0.742400  0.960700  0.442100  1
  H  H157  1  0.846400  0.858400  0.604800  1
  H  H158  1  0.346400  0.141600  0.895200  1
  H  H159  1  0.153600  0.141600  0.395200  1
  H  H160  1  0.653600  0.858400  0.104800  1
  H  H161  1  0.826900  0.931000  0.597400  1
  H  H162  1  0.326900  0.069000  0.902600  1
  H  H163  1  0.173100  0.069000  0.402600  1
  H  H164  1  0.673100  0.931000  0.097400  1
  H  H165  1  0.769900  0.966600  0.648000  1
  H  H166  1  0.269900  0.033400  0.852000  1
  H  H167  1  0.230100  0.033400  0.352000  1
  H  H168  1  0.730100  0.966600  0.148000  1
  H  H169  1  0.734300  0.930500  0.698800  1
  H  H170  1  0.234300  0.069500  0.801200  1
  H  H171  1  0.265700  0.069500  0.301200  1
  H  H172  1  0.765700  0.930500  0.198800  1
  H  H173  1  0.770600  0.829000  0.716600  1
  H  H174  1  0.270600  0.171000  0.783400  1
  H  H175  1  0.229400  0.171000  0.283400  1
  H  H176  1  0.729400  0.829000  0.216600  1
  H  H177  1  0.691700  0.824600  0.695100  1
  H  H178  1  0.191700  0.175400  0.804900  1
  H  H179  1  0.308300  0.175400  0.304900  1
  H  H180  1  0.808300  0.824600  0.195100  1
  H  H181  1  0.256300  0.989500  0.672200  1
  H  H182  1  0.756300  0.010500  0.827800  1
  H  H183  1  0.743700  0.010500  0.327800  1
  H  H184  1  0.243700  0.989500  0.172200  1
  H  H185  1  0.359700  0.023700  0.646200  1
  H  H186  1  0.859700  0.976300  0.853800  1
  H  H187  1  0.640300  0.976300  0.353800  1
  H  H188  1  0.140300  0.023700  0.146200  1
  H  H189  1  0.475200  0.022200  0.679500  1
  H  H190  1  0.975200  0.977800  0.820500  1
  H  H191  1  0.524800  0.977800  0.320500  1
  H  H192  1  0.024800  0.022200  0.179500  1
  H  H193  1  0.485700  0.979700  0.728200  1
  H  H194  1  0.985700  0.020300  0.771800  1
  H  H195  1  0.514300  0.020300  0.271800  1
  H  H196  1  0.014300  0.979700  0.228200  1
  H  H197  1  0.335200  0.958200  0.783500  1
  H  H198  1  0.835200  0.041800  0.716500  1
  H  H199  1  0.664800  0.041800  0.216500  1
  H  H200  1  0.164800  0.958200  0.283500  1
  H  H201  1  0.332000  0.915400  0.759300  1
  H  H202  1  0.832000  0.084600  0.740700  1
  H  H203  1  0.668000  0.084600  0.240700  1
  H  H204  1  0.168000  0.915400  0.259300  1
  H  H205  1  0.753600  0.906200  0.830100  1
  H  H206  1  0.253600  0.093800  0.669900  1
  H  H207  1  0.246400  0.093800  0.169900  1
  H  H208  1  0.746400  0.906200  0.330100  1
  H  H209  1  0.580000  0.910100  0.760700  1
  H  H210  1  0.080000  0.089900  0.739300  1
  H  H211  1  0.420000  0.089900  0.239300  1
  H  H212  1  0.920000  0.910100  0.260700  1
  H  H213  1  0.563400  0.967400  0.860200  1
  H  H214  1  0.063400  0.032600  0.639800  1
  H  H215  1  0.436600  0.032600  0.139800  1
  H  H216  1  0.936600  0.967400  0.360200  1
  H  H217  1  0.899600  0.451000  0.942200  1
  H  H218  1  0.399600  0.549000  0.557800  1
  H  H219  1  0.100400  0.549000  0.057800  1
  H  H220  1  0.600400  0.451000  0.442200  1
  H  H221  1  0.898400  0.409800  0.889600  1
  H  H222  1  0.398400  0.590200  0.610400  1
  H  H223  1  0.101600  0.590200  0.110400  1
  H  H224  1  0.601600  0.409800  0.389600  1
  H  H225  1  0.843600  0.436000  0.837200  1
  H  H226  1  0.343600  0.564000  0.662800  1
  H  H227  1  0.156400  0.564000  0.162800  1
  H  H228  1  0.656400  0.436000  0.337200  1
  H  H229  1  0.792100  0.504900  0.838600  1
  H  H230  1  0.292100  0.495100  0.661400  1
  H  H231  1  0.207900  0.495100  0.161400  1
  H  H232  1  0.707900  0.504900  0.338600  1
  H  H233  1  0.757500  0.559100  0.920600  1
  H  H234  1  0.257500  0.440900  0.579400  1
  H  H235  1  0.242500  0.440900  0.079400  1
  H  H236  1  0.742500  0.559100  0.420600  1
  H  H237  1  0.829300  0.578100  0.900100  1
  H  H238  1  0.329300  0.421900  0.599900  1
  H  H239  1  0.170700  0.421900  0.099900  1
  H  H240  1  0.670700  0.578100  0.400100  1
  H  H241  1  0.315500  0.411900  0.748800  1
  H  H242  1  0.815500  0.588100  0.751200  1
  H  H243  1  0.684500  0.588100  0.251200  1
  H  H244  1  0.184500  0.411900  0.248800  1
  H  H245  1  0.431100  0.380000  0.737400  1
  H  H246  1  0.931100  0.620000  0.762600  1
  H  H247  1  0.568900  0.620000  0.262600  1
  H  H248  1  0.068900  0.380000  0.237400  1
  H  H249  1  0.546100  0.418300  0.742600  1
  H  H250  1  0.046100  0.581700  0.757400  1
  H  H251  1  0.453900  0.581700  0.257400  1
  H  H252  1  0.953900  0.418300  0.242600  1
  H  H253  1  0.538600  0.478900  0.781300  1
  H  H254  1  0.038600  0.521100  0.718700  1
  H  H255  1  0.461400  0.521100  0.218700  1
  H  H256  1  0.961400  0.478900  0.281300  1
  H  H257  1  0.373800  0.547800  0.786200  1
  H  H258  1  0.873800  0.452200  0.713800  1
  H  H259  1  0.626200  0.452200  0.213800  1
  H  H260  1  0.126200  0.547800  0.286200  1
  H  H261  1  0.389300  0.525700  0.824200  1
  H  H262  1  0.889300  0.474300  0.675800  1
  H  H263  1  0.610700  0.474300  0.175800  1
  H  H264  1  0.110700  0.525700  0.324200  1
  H  H265  1  0.896900  0.731200  0.601800  1
  H  H266  1  0.396900  0.268800  0.898200  1
  H  H267  1  0.103100  0.268800  0.398200  1
  H  H268  1  0.603100  0.731200  0.101800  1
  H  H269  1  0.915500  0.658400  0.593900  1
  H  H270  1  0.415500  0.341600  0.906100  1
  H  H271  1  0.084500  0.341600  0.406100  1
  H  H272  1  0.584500  0.658400  0.093900  1
  H  H273  1  0.862600  0.615400  0.637500  1
  H  H274  1  0.362600  0.384600  0.862500  1
  H  H275  1  0.137400  0.384600  0.362500  1
  H  H276  1  0.637400  0.615400  0.137500  1
  H  H277  1  0.807600  0.642300  0.688200  1
  H  H278  1  0.307600  0.357700  0.811800  1
  H  H279  1  0.192400  0.357700  0.311800  1
  H  H280  1  0.692400  0.642300  0.188200  1
  H  H281  1  0.797600  0.748700  0.708700  1
  H  H282  1  0.297600  0.251300  0.791300  1
  H  H283  1  0.202400  0.251300  0.291300  1
  H  H284  1  0.702400  0.748700  0.208700  1
  H  H285  1  0.718500  0.732300  0.692200  1
  H  H286  1  0.218500  0.267700  0.807800  1
  H  H287  1  0.281500  0.267700  0.307800  1
  H  H288  1  0.781500  0.732300  0.192200  1
  H  H289  1  0.618900  0.560700  0.820500  1
  H  H290  1  0.118900  0.439300  0.679500  1
  H  H291  1  0.381100  0.439300  0.179500  1
  H  H292  1  0.881100  0.560700  0.320500  1
  H  H293  1  0.573100  0.631100  0.736500  1
  H  H294  1  0.073100  0.368900  0.763500  1
  H  H295  1  0.426900  0.368900  0.263500  1
  H  H296  1  0.926900  0.631100  0.236500  1
  H  H297  1  0.767900  0.654000  0.786600  1
  H  H298  1  0.267900  0.346000  0.713400  1
  H  H299  1  0.232100  0.346000  0.213400  1
  H  H300  1  0.732100  0.654000  0.286600  1
  H  H301  1  0.067400  0.673900  0.081000  1
  H  H302  1  0.567400  0.326100  0.419000  1
  H  H303  1  0.932600  0.326100  0.919000  1
  H  H304  1  0.432600  0.673900  0.581000  1
  H  H305  1  0.960200  0.653200  0.052200  1
  H  H306  1  0.460200  0.346800  0.447800  1
  H  H307  1  0.039800  0.346800  0.947800  1
  H  H308  1  0.539800  0.653200  0.552200  1
  H  H309  1  0.950200  0.654700  0.989200  1
  H  H310  1  0.450200  0.345300  0.510800  1
  H  H311  1  0.049800  0.345300  0.010800  1
  H  H312  1  0.549800  0.654700  0.489200  1
  H  H313  1  0.040100  0.692200  0.955100  1
  H  H314  1  0.540100  0.307800  0.544900  1
  H  H315  1  0.959900  0.307800  0.044900  1
  H  H316  1  0.459900  0.692200  0.455100  1
  H  H317  1  0.165900  0.758100  0.989700  1
  H  H318  1  0.665900  0.241900  0.510300  1
  H  H319  1  0.834100  0.241900  0.010300  1
  H  H320  1  0.334100  0.758100  0.489700  1
  H  H321  1  0.217600  0.717500  0.994000  1
  H  H322  1  0.717600  0.282500  0.506000  1
  H  H323  1  0.782400  0.282500  0.006000  1
  H  H324  1  0.282400  0.717500  0.494000  1
  H  H325  1  0.102200  0.450500  0.800600  1
  H  H326  1  0.602200  0.549500  0.699400  1
  H  H327  1  0.897800  0.549500  0.199400  1
  H  H328  1  0.397800  0.450500  0.300600  1
  H  H329  1  0.976400  0.469800  0.818600  1
  H  H330  1  0.476400  0.530200  0.681400  1
  H  H331  1  0.023600  0.530200  0.181400  1
  H  H332  1  0.523600  0.469800  0.318600  1
  H  H333  1  0.965500  0.535500  0.849500  1
  H  H334  1  0.465500  0.464500  0.650500  1
  H  H335  1  0.034500  0.464500  0.150500  1
  H  H336  1  0.534500  0.535500  0.349500  1
  H  H337  1  0.066500  0.584400  0.849700  1
  H  H338  1  0.566500  0.415600  0.650300  1
  H  H339  1  0.933500  0.415600  0.150300  1
  H  H340  1  0.433500  0.584400  0.349700  1
  H  H341  1  0.259300  0.563500  0.836000  1
  H  H342  1  0.759300  0.436500  0.664000  1
  H  H343  1  0.740700  0.436500  0.164000  1
  H  H344  1  0.240700  0.563500  0.336000  1
  H  H345  1  0.230500  0.580500  0.797500  1
  H  H346  1  0.730500  0.419500  0.702500  1
  H  H347  1  0.769500  0.419500  0.202500  1
  H  H348  1  0.269500  0.580500  0.297500  1
  H  H349  1  0.046100  0.955600  0.708200  1
  H  H350  1  0.546100  0.044400  0.791800  1
  H  H351  1  0.953900  0.044400  0.291800  1
  H  H352  1  0.453900  0.955600  0.208200  1
  H  H353  1  0.926300  0.925300  0.722700  1
  H  H354  1  0.426300  0.074700  0.777300  1
  H  H355  1  0.073700  0.074700  0.277300  1
  H  H356  1  0.573700  0.925300  0.222700  1
  H  H357  1  0.912400  0.870400  0.759100  1
  H  H358  1  0.412400  0.129600  0.740900  1
  H  H359  1  0.087600  0.129600  0.240900  1
  H  H360  1  0.587600  0.870400  0.259100  1
  H  H361  1  0.022500  0.845400  0.788100  1
  H  H362  1  0.522500  0.154600  0.711900  1
  H  H363  1  0.977500  0.154600  0.211900  1
  H  H364  1  0.477500  0.845400  0.288100  1
  H  H365  1  0.203500  0.855400  0.756300  1
  H  H366  1  0.703500  0.144600  0.743700  1
  H  H367  1  0.796500  0.144600  0.243700  1
  H  H368  1  0.296500  0.855400  0.256300  1
  H  H369  1  0.200500  0.889800  0.789200  1
  H  H370  1  0.700500  0.110200  0.710800  1
  H  H371  1  0.799500  0.110200  0.210800  1
  H  H372  1  0.299500  0.889800  0.289200  1
  H  H373  1  0.163900  0.676900  0.887000  1
  H  H374  1  0.663900  0.323100  0.613000  1
  H  H375  1  0.836100  0.323100  0.113000  1
  H  H376  1  0.336100  0.676900  0.387000  1
  H  H377  1  0.163800  0.716500  0.782300  1
  H  H378  1  0.663800  0.283500  0.717700  1
  H  H379  1  0.836200  0.283500  0.217700  1
  H  H380  1  0.336200  0.716500  0.282300  1
  H  H381  1  0.156500  0.801100  0.866600  1
  H  H382  1  0.656500  0.198900  0.633400  1
  H  H383  1  0.843500  0.198900  0.133400  1
  H  H384  1  0.343500  0.801100  0.366600  1
  Pd  Pd385  1  0.847110  0.530760  0.970870  1
  Pd  Pd386  1  0.347110  0.469240  0.529130  1
  Pd  Pd387  1  0.152890  0.469240  0.029130  1
  Pd  Pd388  1  0.652890  0.530760  0.470870  1
  Pd  Pd389  1  0.852840  0.981100  0.999360  1
  Pd  Pd390  1  0.352840  0.018900  0.500640  1
  Pd  Pd391  1  0.147160  0.018900  0.000640  1
  Pd  Pd392  1  0.647160  0.981100  0.499360  1
  Pd  Pd393  1  0.189880  0.724490  0.071350  1
  Pd  Pd394  1  0.689880  0.275510  0.428650  1
  Pd  Pd395  1  0.810120  0.275510  0.928650  1
  Pd  Pd396  1  0.310120  0.724490  0.571350  1
  Pd  Pd397  1  0.253190  0.488690  0.790910  1
  Pd  Pd398  1  0.753190  0.511310  0.709090  1
  Pd  Pd399  1  0.746810  0.511310  0.209090  1
  Pd  Pd400  1  0.246810  0.488690  0.290910  1
  Pd  Pd401  1  0.812660  0.790610  0.646890  1
  Pd  Pd402  1  0.312660  0.209390  0.853110  1
  Pd  Pd403  1  0.187340  0.209390  0.353110  1
  Pd  Pd404  1  0.687340  0.790610  0.146890  1
  Pd  Pd405  1  0.204660  0.942330  0.726850  1
  Pd  Pd406  1  0.704660  0.057670  0.773150  1
  Pd  Pd407  1  0.795340  0.057670  0.273150  1
  Pd  Pd408  1  0.295340  0.942330  0.226850  1
  C  C409  1  0.887600  0.545500  0.052500  1
  C  C410  1  0.387600  0.454500  0.447500  1
  C  C411  1  0.112400  0.454500  0.947500  1
  C  C412  1  0.612400  0.545500  0.552500  1
  C  C413  1  0.888200  0.561400  0.084600  1
  C  C414  1  0.388200  0.438600  0.415400  1
  C  C415  1  0.111800  0.438600  0.915400  1
  C  C416  1  0.611800  0.561400  0.584600  1
  C  C417  1  0.848200  0.594600  0.092000  1
  C  C418  1  0.348200  0.405400  0.408000  1
  C  C419  1  0.151800  0.405400  0.908000  1
  C  C420  1  0.651800  0.594600  0.592000  1
  C  C421  1  0.806000  0.611400  0.065100  1
  C  C422  1  0.306000  0.388600  0.434900  1
  C  C423  1  0.194000  0.388600  0.934900  1
  C  C424  1  0.694000  0.611400  0.565100  1
  C  C425  1  0.806100  0.595700  0.029000  1
  C  C426  1  0.306100  0.404300  0.471000  1
  C  C427  1  0.193900  0.404300  0.971000  1
  C  C428  1  0.693900  0.595700  0.529000  1
  C  C429  1  0.762500  0.612200  0.997700  1
  C  C430  1  0.262500  0.387800  0.502300  1
  C  C431  1  0.237500  0.387800  0.002300  1
  C  C432  1  0.737500  0.612200  0.497700  1
  C  C433  1  0.745100  0.688800  0.007600  1
  C  C434  1  0.245100  0.311200  0.492400  1
  C  C435  1  0.254900  0.311200  0.992400  1
  C  C436  1  0.754900  0.688800  0.507600  1
  C  C437  1  0.923200  0.950800  0.067300  1
  C  C438  1  0.423200  0.049200  0.432700  1
  C  C439  1  0.076800  0.049200  0.932700  1
  C  C440  1  0.576800  0.950800  0.567300  1
  C  C441  1  0.936600  0.926000  0.094300  1
  C  C442  1  0.436600  0.074000  0.405700  1
  C  C443  1  0.063400  0.074000  0.905700  1
  C  C444  1  0.563400  0.926000  0.594300  1
  C  C445  1  0.891400  0.889600  0.098000  1
  C  C446  1  0.391400  0.110400  0.402000  1
  C  C447  1  0.108600  0.110400  0.902000  1
  C  C448  1  0.608600  0.889600  0.598000  1
  C  C449  1  0.844300  0.876700  0.070200  1
  C  C450  1  0.344300  0.123300  0.429800  1
  C  C451  1  0.155700  0.123300  0.929800  1
  C  C452  1  0.655700  0.876700  0.570200  1
  C  C453  1  0.834900  0.905600  0.041700  1
  C  C454  1  0.334900  0.094400  0.458300  1
  C  C455  1  0.165100  0.094400  0.958300  1
  C  C456  1  0.665100  0.905600  0.541700  1
  C  C457  1  0.783100  0.891100  0.009700  1
  C  C458  1  0.283100  0.108900  0.490300  1
  C  C459  1  0.216900  0.108900  0.990300  1
  C  C460  1  0.716900  0.891100  0.509700  1
  C  C461  1  0.688800  0.840500  0.021800  1
  C  C462  1  0.188800  0.159500  0.478200  1
  C  C463  1  0.311200  0.159500  0.978200  1
  C  C464  1  0.811200  0.840500  0.521800  1
  C  C465  1  0.244300  0.747700  0.144900  1
  C  C466  1  0.744300  0.252300  0.355100  1
  C  C467  1  0.755700  0.252300  0.855100  1
  C  C468  1  0.255700  0.747700  0.644900  1
  C  C469  1  0.290200  0.765300  0.169900  1
  C  C470  1  0.790200  0.234700  0.330100  1
  C  C471  1  0.709800  0.234700  0.830100  1
  C  C472  1  0.209800  0.765300  0.669900  1
  C  C473  1  0.360300  0.776800  0.160900  1
  C  C474  1  0.860300  0.223200  0.339100  1
  C  C475  1  0.639700  0.223200  0.839100  1
  C  C476  1  0.139700  0.776800  0.660900  1
  C  C477  1  0.388600  0.773900  0.124400  1
  C  C478  1  0.888600  0.226100  0.375600  1
  C  C479  1  0.611400  0.226100  0.875600  1
  C  C480  1  0.111400  0.773900  0.624400  1
  C  C481  1  0.337600  0.757400  0.097800  1
  C  C482  1  0.837600  0.242600  0.402200  1
  C  C483  1  0.662400  0.242600  0.902200  1
  C  C484  1  0.162400  0.757400  0.597800  1
  C  C485  1  0.353300  0.754300  0.057300  1
  C  C486  1  0.853300  0.245700  0.442700  1
  C  C487  1  0.646700  0.245700  0.942700  1
  C  C488  1  0.146700  0.754300  0.557300  1
  C  C489  1  0.480800  0.737100  0.046200  1
  C  C490  1  0.980800  0.262900  0.453800  1
  C  C491  1  0.519200  0.262900  0.953800  1
  C  C492  1  0.019200  0.737100  0.546200  1
  C  C493  1  0.686300  0.722800  0.015800  1
  C  C494  1  0.186300  0.277200  0.484200  1
  C  C495  1  0.313700  0.277200  0.984200  1
  C  C496  1  0.813700  0.722800  0.515800  1
  C  C497  1  0.710900  0.764000  0.016100  1
  C  C498  1  0.210900  0.236000  0.483900  1
  C  C499  1  0.289100  0.236000  0.983900  1
  C  C500  1  0.789100  0.764000  0.516100  1
  C  C501  1  0.660300  0.798500  0.022700  1
  C  C502  1  0.160300  0.201500  0.477300  1
  C  C503  1  0.339700  0.201500  0.977300  1
  C  C504  1  0.839700  0.798500  0.522700  1
  C  C505  1  0.587800  0.790200  0.031800  1
  C  C506  1  0.087800  0.209800  0.468200  1
  C  C507  1  0.412200  0.209800  0.968200  1
  C  C508  1  0.912200  0.790200  0.531800  1
  C  C509  1  0.561000  0.749300  0.033400  1
  C  C510  1  0.061000  0.250700  0.466600  1
  C  C511  1  0.439000  0.250700  0.966600  1
  C  C512  1  0.939000  0.749300  0.533400  1
  C  C513  1  0.609200  0.714700  0.024600  1
  C  C514  1  0.109200  0.285300  0.475400  1
  C  C515  1  0.390800  0.285300  0.975400  1
  C  C516  1  0.890800  0.714700  0.524600  1
  C  C517  1  0.880100  0.058400  0.961500  1
  C  C518  1  0.380100  0.941600  0.538500  1
  C  C519  1  0.119900  0.941600  0.038500  1
  C  C520  1  0.619900  0.058400  0.461500  1
  C  C521  1  0.874900  0.089400  0.939800  1
  C  C522  1  0.374900  0.910600  0.560200  1
  C  C523  1  0.125100  0.910600  0.060200  1
  C  C524  1  0.625100  0.089400  0.439800  1
  C  C525  1  0.819800  0.087300  0.914000  1
  C  C526  1  0.319800  0.912700  0.586000  1
  C  C527  1  0.180200  0.912700  0.086000  1
  C  C528  1  0.680200  0.087300  0.414000  1
  C  C529  1  0.771600  0.051900  0.912300  1
  C  C530  1  0.271600  0.948100  0.587700  1
  C  C531  1  0.228400  0.948100  0.087700  1
  C  C532  1  0.728400  0.051900  0.412300  1
  C  C533  1  0.783000  0.022500  0.937900  1
  C  C534  1  0.283000  0.977500  0.562100  1
  C  C535  1  0.217000  0.977500  0.062100  1
  C  C536  1  0.717000  0.022500  0.437900  1
  C  C537  1  0.728100  0.986800  0.939700  1
  C  C538  1  0.228100  0.013200  0.560300  1
  C  C539  1  0.271900  0.013200  0.060300  1
  C  C540  1  0.771900  0.986800  0.439700  1
  C  C541  1  0.702400  0.953400  0.885200  1
  C  C542  1  0.202400  0.046600  0.614800  1
  C  C543  1  0.297600  0.046600  0.114800  1
  C  C544  1  0.797600  0.953400  0.385200  1
  C  C545  1  0.817700  0.873700  0.622800  1
  C  C546  1  0.317700  0.126300  0.877200  1
  C  C547  1  0.182300  0.126300  0.377200  1
  C  C548  1  0.682300  0.873700  0.122800  1
  C  C549  1  0.810400  0.917100  0.618500  1
  C  C550  1  0.310400  0.082900  0.881500  1
  C  C551  1  0.189600  0.082900  0.381500  1
  C  C552  1  0.689600  0.917100  0.118500  1
  C  C553  1  0.777000  0.937200  0.648000  1
  C  C554  1  0.277000  0.062800  0.852000  1
  C  C555  1  0.223000  0.062800  0.352000  1
  C  C556  1  0.723000  0.937200  0.148000  1
  C  C557  1  0.753100  0.915100  0.678000  1
  C  C558  1  0.253100  0.084900  0.822000  1
  C  C559  1  0.246900  0.084900  0.322000  1
  C  C560  1  0.746900  0.915100  0.178000  1
  C  C561  1  0.755600  0.871100  0.679300  1
  C  C562  1  0.255600  0.128900  0.820700  1
  C  C563  1  0.244400  0.128900  0.320700  1
  C  C564  1  0.744400  0.871100  0.179300  1
  C  C565  1  0.727900  0.844900  0.706300  1
  C  C566  1  0.227900  0.155100  0.793700  1
  C  C567  1  0.272100  0.155100  0.293700  1
  C  C568  1  0.772100  0.844900  0.206300  1
  C  C569  1  0.715700  0.884800  0.766400  1
  C  C570  1  0.215700  0.115200  0.733600  1
  C  C571  1  0.284300  0.115200  0.233600  1
  C  C572  1  0.784300  0.884800  0.266400  1
  C  C573  1  0.303400  0.988600  0.684800  1
  C  C574  1  0.803400  0.011400  0.815200  1
  C  C575  1  0.696600  0.011400  0.315200  1
  C  C576  1  0.196600  0.988600  0.184800  1
  C  C577  1  0.364500  0.009300  0.668400  1
  C  C578  1  0.864500  0.990700  0.831600  1
  C  C579  1  0.635500  0.990700  0.331600  1
  C  C580  1  0.135500  0.009300  0.168400  1
  C  C581  1  0.432300  0.007000  0.687500  1
  C  C582  1  0.932300  0.993000  0.812500  1
  C  C583  1  0.567700  0.993000  0.312500  1
  C  C584  1  0.067700  0.007000  0.187500  1
  C  C585  1  0.438200  0.983900  0.716600  1
  C  C586  1  0.938200  0.016100  0.783400  1
  C  C587  1  0.561800  0.016100  0.283400  1
  C  C588  1  0.061800  0.983900  0.216600  1
  C  C589  1  0.371000  0.965700  0.729900  1
  C  C590  1  0.871000  0.034300  0.770100  1
  C  C591  1  0.629000  0.034300  0.270100  1
  C  C592  1  0.129000  0.965700  0.229900  1
  C  C593  1  0.362300  0.940900  0.764600  1
  C  C594  1  0.862300  0.059100  0.735400  1
  C  C595  1  0.637700  0.059100  0.235400  1
  C  C596  1  0.137700  0.940900  0.264600  1
  C  C597  1  0.481300  0.952700  0.801900  1
  C  C598  1  0.981300  0.047300  0.698100  1
  C  C599  1  0.518700  0.047300  0.198100  1
  C  C600  1  0.018700  0.952700  0.301900  1
  C  C601  1  0.662400  0.938400  0.848700  1
  C  C602  1  0.162400  0.061600  0.651300  1
  C  C603  1  0.337600  0.061600  0.151300  1
  C  C604  1  0.837600  0.938400  0.348700  1
  C  C605  1  0.703400  0.914900  0.824700  1
  C  C606  1  0.203400  0.085100  0.675300  1
  C  C607  1  0.296600  0.085100  0.175300  1
  C  C608  1  0.796600  0.914900  0.324700  1
  C  C609  1  0.670000  0.904300  0.792900  1
  C  C610  1  0.170000  0.095700  0.707100  1
  C  C611  1  0.330000  0.095700  0.207100  1
  C  C612  1  0.830000  0.904300  0.292900  1
  C  C613  1  0.599900  0.916800  0.784300  1
  C  C614  1  0.099900  0.083200  0.715700  1
  C  C615  1  0.400100  0.083200  0.215700  1
  C  C616  1  0.900100  0.916800  0.284300  1
  C  C617  1  0.557900  0.938500  0.808600  1
  C  C618  1  0.057900  0.061500  0.691400  1
  C  C619  1  0.442100  0.061500  0.191400  1
  C  C620  1  0.942100  0.938500  0.308600  1
  C  C621  1  0.590700  0.950900  0.842500  1
  C  C622  1  0.090700  0.049100  0.657500  1
  C  C623  1  0.409300  0.049100  0.157500  1
  C  C624  1  0.909300  0.950900  0.342500  1
  C  C625  1  0.876900  0.460600  0.920500  1
  C  C626  1  0.376900  0.539400  0.579500  1
  C  C627  1  0.123100  0.539400  0.079500  1
  C  C628  1  0.623100  0.460600  0.420500  1
  C  C629  1  0.876800  0.437100  0.890100  1
  C  C630  1  0.376800  0.562900  0.609900  1
  C  C631  1  0.123200  0.562900  0.109900  1
  C  C632  1  0.623200  0.437100  0.390100  1
  C  C633  1  0.844900  0.452800  0.859200  1
  C  C634  1  0.344900  0.547200  0.640800  1
  C  C635  1  0.155100  0.547200  0.140800  1
  C  C636  1  0.655100  0.452800  0.359200  1
  C  C637  1  0.814200  0.493400  0.859600  1
  C  C638  1  0.314200  0.506600  0.640400  1
  C  C639  1  0.185800  0.506600  0.140400  1
  C  C640  1  0.685800  0.493400  0.359600  1
  C  C641  1  0.818200  0.514100  0.890900  1
  C  C642  1  0.318200  0.485900  0.609100  1
  C  C643  1  0.181800  0.485900  0.109100  1
  C  C644  1  0.681800  0.514100  0.390900  1
  C  C645  1  0.787000  0.557900  0.897600  1
  C  C646  1  0.287000  0.442100  0.602400  1
  C  C647  1  0.213000  0.442100  0.102400  1
  C  C648  1  0.713000  0.557900  0.397600  1
  C  C649  1  0.755800  0.593000  0.837700  1
  C  C650  1  0.255800  0.407000  0.662300  1
  C  C651  1  0.244200  0.407000  0.162300  1
  C  C652  1  0.744200  0.593000  0.337700  1
  C  C653  1  0.361000  0.426400  0.755100  1
  C  C654  1  0.861000  0.573600  0.744900  1
  C  C655  1  0.639000  0.573600  0.244900  1
  C  C656  1  0.139000  0.426400  0.255100  1
  C  C657  1  0.430400  0.408000  0.746900  1
  C  C658  1  0.930400  0.592000  0.753100  1
  C  C659  1  0.569600  0.592000  0.253100  1
  C  C660  1  0.069600  0.408000  0.246900  1
  C  C661  1  0.499400  0.428900  0.752000  1
  C  C662  1  0.999400  0.571100  0.748000  1
  C  C663  1  0.500600  0.571100  0.248000  1
  C  C664  1  0.000600  0.428900  0.252000  1
  C  C665  1  0.493700  0.466300  0.771700  1
  C  C666  1  0.993700  0.533700  0.728300  1
  C  C667  1  0.506300  0.533700  0.228300  1
  C  C668  1  0.006300  0.466300  0.271700  1
  C  C669  1  0.421700  0.487300  0.778400  1
  C  C670  1  0.921700  0.512700  0.721600  1
  C  C671  1  0.578300  0.512700  0.221600  1
  C  C672  1  0.078300  0.487300  0.278400  1
  C  C673  1  0.409800  0.530100  0.799500  1
  C  C674  1  0.909800  0.469900  0.700500  1
  C  C675  1  0.590200  0.469900  0.200500  1
  C  C676  1  0.090200  0.530100  0.299500  1
  C  C677  1  0.508500  0.572900  0.774100  1
  C  C678  1  0.008500  0.427100  0.725900  1
  C  C679  1  0.491500  0.427100  0.225900  1
  C  C680  1  0.991500  0.572900  0.274100  1
  C  C681  1  0.875300  0.712600  0.618600  1
  C  C682  1  0.375300  0.287400  0.881400  1
  C  C683  1  0.124700  0.287400  0.381400  1
  C  C684  1  0.624700  0.712600  0.118600  1
  C  C685  1  0.887700  0.669900  0.614100  1
  C  C686  1  0.387700  0.330100  0.885900  1
  C  C687  1  0.112300  0.330100  0.385900  1
  C  C688  1  0.612300  0.669900  0.114100  1
  C  C689  1  0.857500  0.644900  0.640600  1
  C  C690  1  0.357500  0.355100  0.859400  1
  C  C691  1  0.142500  0.355100  0.359400  1
  C  C692  1  0.642500  0.644900  0.140600  1
  C  C693  1  0.823200  0.659400  0.668800  1
  C  C694  1  0.323200  0.340600  0.831200  1
  C  C695  1  0.176800  0.340600  0.331200  1
  C  C696  1  0.676800  0.659400  0.168800  1
  C  C697  1  0.810700  0.701300  0.669100  1
  C  C698  1  0.310700  0.298700  0.830900  1
  C  C699  1  0.189300  0.298700  0.330900  1
  C  C700  1  0.689300  0.701300  0.169100  1
  C  C701  1  0.768900  0.723300  0.700800  1
  C  C702  1  0.268900  0.276700  0.799200  1
  C  C703  1  0.231100  0.276700  0.299200  1
  C  C704  1  0.731100  0.723300  0.200800  1
  C  C705  1  0.699000  0.682300  0.732600  1
  C  C706  1  0.199000  0.317700  0.767400  1
  C  C707  1  0.301000  0.317700  0.267400  1
  C  C708  1  0.801000  0.682300  0.232600  1
  C  C709  1  0.702900  0.608100  0.809100  1
  C  C710  1  0.202900  0.391900  0.690900  1
  C  C711  1  0.297100  0.391900  0.190900  1
  C  C712  1  0.797100  0.608100  0.309100  1
  C  C713  1  0.629800  0.583600  0.805600  1
  C  C714  1  0.129800  0.416400  0.694400  1
  C  C715  1  0.370200  0.416400  0.194400  1
  C  C716  1  0.870200  0.583600  0.305600  1
  C  C717  1  0.580000  0.596900  0.779400  1
  C  C718  1  0.080000  0.403100  0.720600  1
  C  C719  1  0.420000  0.403100  0.220600  1
  C  C720  1  0.920000  0.596900  0.279400  1
  C  C721  1  0.605300  0.625800  0.756600  1
  C  C722  1  0.105300  0.374200  0.743400  1
  C  C723  1  0.394700  0.374200  0.243400  1
  C  C724  1  0.894700  0.625800  0.256600  1
  C  C725  1  0.672200  0.649000  0.758300  1
  C  C726  1  0.172200  0.351000  0.741700  1
  C  C727  1  0.327800  0.351000  0.241700  1
  C  C728  1  0.827800  0.649000  0.258300  1
  C  C729  1  0.720900  0.639500  0.784400  1
  C  C730  1  0.220900  0.360500  0.715600  1
  C  C731  1  0.279100  0.360500  0.215600  1
  C  C732  1  0.779100  0.639500  0.284400  1
  C  C733  1  0.059300  0.679200  0.056000  1
  C  C734  1  0.559300  0.320800  0.444000  1
  C  C735  1  0.940700  0.320800  0.944000  1
  C  C736  1  0.440700  0.679200  0.556000  1
  C  C737  1  0.000000  0.665500  0.038700  1
  C  C738  1  0.500000  0.334500  0.461300  1
  C  C739  1  0.000000  0.334500  0.961300  1
  C  C740  1  0.500000  0.665500  0.538700  1
  C  C741  1  0.992300  0.667900  0.001100  1
  C  C742  1  0.492300  0.332100  0.498900  1
  C  C743  1  0.007700  0.332100  0.998900  1
  C  C744  1  0.507700  0.667900  0.501100  1
  C  C745  1  0.044900  0.689100  0.980700  1
  C  C746  1  0.544900  0.310900  0.519300  1
  C  C747  1  0.955100  0.310900  0.019300  1
  C  C748  1  0.455100  0.689100  0.480700  1
  C  C749  1  0.102800  0.704900  0.000100  1
  C  C750  1  0.602800  0.295100  0.499900  1
  C  C751  1  0.897200  0.295100  0.999900  1
  C  C752  1  0.397200  0.704900  0.500100  1
  C  C753  1  0.170000  0.727900  0.983100  1
  C  C754  1  0.670000  0.272100  0.516900  1
  C  C755  1  0.830000  0.272100  0.016900  1
  C  C756  1  0.330000  0.727900  0.483100  1
  C  C757  1  0.154900  0.756000  0.923300  1
  C  C758  1  0.654900  0.244000  0.576700  1
  C  C759  1  0.845100  0.244000  0.076700  1
  C  C760  1  0.345100  0.756000  0.423300  1
  C  C761  1  0.092100  0.478400  0.809000  1
  C  C762  1  0.592100  0.521600  0.691000  1
  C  C763  1  0.907900  0.521600  0.191000  1
  C  C764  1  0.407900  0.478400  0.309000  1
  C  C765  1  0.018100  0.488400  0.821500  1
  C  C766  1  0.518100  0.511600  0.678500  1
  C  C767  1  0.981900  0.511600  0.178500  1
  C  C768  1  0.481900  0.488400  0.321500  1
  C  C769  1  0.012100  0.527600  0.838100  1
  C  C770  1  0.512100  0.472400  0.661900  1
  C  C771  1  0.987900  0.472400  0.161900  1
  C  C772  1  0.487900  0.527600  0.338100  1
  C  C773  1  0.074600  0.557200  0.839000  1
  C  C774  1  0.574600  0.442800  0.661000  1
  C  C775  1  0.925400  0.442800  0.161000  1
  C  C776  1  0.425400  0.557200  0.339000  1
  C  C777  1  0.146700  0.547300  0.824600  1
  C  C778  1  0.646700  0.452700  0.675400  1
  C  C779  1  0.853300  0.452700  0.175400  1
  C  C780  1  0.353300  0.547300  0.324600  1
  C  C781  1  0.215800  0.576100  0.823200  1
  C  C782  1  0.715800  0.423900  0.676800  1
  C  C783  1  0.784200  0.423900  0.176800  1
  C  C784  1  0.284200  0.576100  0.323200  1
  C  C785  1  0.170800  0.642400  0.819700  1
  C  C786  1  0.670800  0.357600  0.680300  1
  C  C787  1  0.829200  0.357600  0.180300  1
  C  C788  1  0.329200  0.642400  0.319700  1
  C  C789  1  0.042500  0.932800  0.724000  1
  C  C790  1  0.542500  0.067200  0.776000  1
  C  C791  1  0.957500  0.067200  0.276000  1
  C  C792  1  0.457500  0.932800  0.224000  1
  C  C793  1  0.970500  0.913800  0.733200  1
  C  C794  1  0.470500  0.086200  0.766800  1
  C  C795  1  0.029500  0.086200  0.266800  1
  C  C796  1  0.529500  0.913800  0.233200  1
  C  C797  1  0.960900  0.882200  0.754800  1
  C  C798  1  0.460900  0.117800  0.745200  1
  C  C799  1  0.039100  0.117800  0.245200  1
  C  C800  1  0.539100  0.882200  0.254800  1
  C  C801  1  0.026300  0.866900  0.771000  1
  C  C802  1  0.526300  0.133100  0.729000  1
  C  C803  1  0.973700  0.133100  0.229000  1
  C  C804  1  0.473700  0.866900  0.271000  1
  C  C805  1  0.097900  0.883000  0.762300  1
  C  C806  1  0.597900  0.117000  0.737700  1
  C  C807  1  0.902100  0.117000  0.237700  1
  C  C808  1  0.402100  0.883000  0.262300  1
  C  C809  1  0.172300  0.866500  0.777000  1
  C  C810  1  0.672300  0.133500  0.723000  1
  C  C811  1  0.827700  0.133500  0.223000  1
  C  C812  1  0.327700  0.866500  0.277000  1
  C  C813  1  0.164800  0.797800  0.791800  1
  C  C814  1  0.664800  0.202200  0.708200  1
  C  C815  1  0.835200  0.202200  0.208200  1
  C  C816  1  0.335200  0.797800  0.291800  1
  C  C817  1  0.158400  0.739700  0.882900  1
  C  C818  1  0.658400  0.260300  0.617100  1
  C  C819  1  0.841600  0.260300  0.117100  1
  C  C820  1  0.341600  0.739700  0.382900  1
  C  C821  1  0.162500  0.698800  0.870200  1
  C  C822  1  0.662500  0.301200  0.629800  1
  C  C823  1  0.837500  0.301200  0.129800  1
  C  C824  1  0.337500  0.698800  0.370200  1
  C  C825  1  0.164800  0.689300  0.831800  1
  C  C826  1  0.664800  0.310700  0.668200  1
  C  C827  1  0.835200  0.310700  0.168200  1
  C  C828  1  0.335200  0.689300  0.331800  1
  C  C829  1  0.163300  0.722700  0.807900  1
  C  C830  1  0.663300  0.277300  0.692100  1
  C  C831  1  0.836700  0.277300  0.192100  1
  C  C832  1  0.336700  0.722700  0.307900  1
  C  C833  1  0.161200  0.764200  0.820000  1
  C  C834  1  0.661200  0.235800  0.680000  1
  C  C835  1  0.838800  0.235800  0.180000  1
  C  C836  1  0.338800  0.764200  0.320000  1
  C  C837  1  0.158400  0.772800  0.857600  1
  C  C838  1  0.658400  0.227200  0.642400  1
  C  C839  1  0.841600  0.227200  0.142400  1
  C  C840  1  0.341600  0.772800  0.357600  1
  Br  Br841  1  0.722350  0.501750  0.983110  1
  Br  Br842  1  0.222350  0.498250  0.516890  1
  Br  Br843  1  0.277650  0.498250  0.016890  1
  Br  Br844  1  0.777650  0.501750  0.483110  1
  Br  Br845  1  0.971960  0.557020  0.958600  1
  Br  Br846  1  0.471960  0.442980  0.541400  1
  Br  Br847  1  0.028040  0.442980  0.041400  1
  Br  Br848  1  0.528040  0.557020  0.458600  1
  Br  Br849  1  0.955190  0.951110  0.963030  1
  Br  Br850  1  0.455190  0.048890  0.536970  1
  Br  Br851  1  0.044810  0.048890  0.036970  1
  Br  Br852  1  0.544810  0.951110  0.463030  1
  Br  Br853  1  0.750270  0.009940  0.035040  1
  Br  Br854  1  0.250270  0.990060  0.464960  1
  Br  Br855  1  0.249730  0.990060  0.964960  1
  Br  Br856  1  0.749730  0.009940  0.535040  1
  Br  Br857  1  0.140190  0.794040  0.068700  1
  Br  Br858  1  0.640190  0.205960  0.431300  1
  Br  Br859  1  0.859810  0.205960  0.931300  1
  Br  Br860  1  0.359810  0.794040  0.568700  1
  Br  Br861  1  0.240010  0.654770  0.075150  1
  Br  Br862  1  0.740010  0.345230  0.424850  1
  Br  Br863  1  0.759990  0.345230  0.924850  1
  Br  Br864  1  0.259990  0.654770  0.575150  1
  Br  Br865  1  0.222080  0.514640  0.731910  1
  Br  Br866  1  0.722080  0.485360  0.768090  1
  Br  Br867  1  0.777920  0.485360  0.268090  1
  Br  Br868  1  0.277920  0.514640  0.231910  1
  Br  Br869  1  0.281730  0.463730  0.851000  1
  Br  Br870  1  0.781730  0.536270  0.649000  1
  Br  Br871  1  0.718270  0.536270  0.149000  1
  Br  Br872  1  0.218270  0.463730  0.351000  1
  Br  Br873  1  0.692860  0.777760  0.616370  1
  Br  Br874  1  0.192860  0.222240  0.883630  1
  Br  Br875  1  0.307140  0.222240  0.383630  1
  Br  Br876  1  0.807140  0.777760  0.116370  1
  Br  Br877  1  0.932140  0.803320  0.675880  1
  Br  Br878  1  0.432140  0.196680  0.824120  1
  Br  Br879  1  0.067860  0.196680  0.324120  1
  Br  Br880  1  0.567860  0.803320  0.175880  1
  Br  Br881  1  0.226270  0.888600  0.680140  1
  Br  Br882  1  0.726270  0.111400  0.819860  1
  Br  Br883  1  0.773730  0.111400  0.319860  1
  Br  Br884  1  0.273730  0.888600  0.180140  1
  Br  Br885  1  0.178360  0.995110  0.773520  1
  Br  Br886  1  0.678360  0.004890  0.726480  1
  Br  Br887  1  0.821640  0.004890  0.226480  1
  Br  Br888  1  0.321640  0.995110  0.273520  1
  N  N889  1  0.847400  0.561500  0.020500  1
  N  N890  1  0.347400  0.438500  0.479500  1
  N  N891  1  0.152600  0.438500  0.979500  1
  N  N892  1  0.652600  0.561500  0.520500  1
  N  N893  1  0.716600  0.648300  0.007900  1
  N  N894  1  0.216600  0.351700  0.492100  1
  N  N895  1  0.283400  0.351700  0.992100  1
  N  N896  1  0.783400  0.648300  0.507900  1
  N  N897  1  0.874400  0.941300  0.040300  1
  N  N898  1  0.374400  0.058700  0.459700  1
  N  N899  1  0.125600  0.058700  0.959700  1
  N  N900  1  0.625600  0.941300  0.540300  1
  N  N901  1  0.753000  0.849500  0.010400  1
  N  N902  1  0.253000  0.150500  0.489600  1
  N  N903  1  0.247000  0.150500  0.989600  1
  N  N904  1  0.747000  0.849500  0.510400  1
  N  N905  1  0.266100  0.746500  0.108900  1
  N  N906  1  0.766100  0.253500  0.391100  1
  N  N907  1  0.733900  0.253500  0.891100  1
  N  N908  1  0.233900  0.746500  0.608900  1
  N  N909  1  0.427600  0.764800  0.047800  1
  N  N910  1  0.927600  0.235200  0.452200  1
  N  N911  1  0.572400  0.235200  0.952200  1
  N  N912  1  0.072400  0.764800  0.547800  1
  N  N913  1  0.844100  0.498500  0.920000  1
  N  N914  1  0.344100  0.501500  0.580000  1
  N  N915  1  0.155900  0.501500  0.080000  1
  N  N916  1  0.655900  0.498500  0.420000  1
  N  N917  1  0.739300  0.568600  0.867700  1
  N  N918  1  0.239300  0.431400  0.632300  1
  N  N919  1  0.260700  0.431400  0.132300  1
  N  N920  1  0.760700  0.568600  0.367700  1
  N  N921  1  0.357200  0.466500  0.772700  1
  N  N922  1  0.857200  0.533500  0.727300  1
  N  N923  1  0.642800  0.533500  0.227300  1
  N  N924  1  0.142800  0.466500  0.272700  1
  N  N925  1  0.485000  0.550400  0.801900  1
  N  N926  1  0.985000  0.449600  0.698100  1
  N  N927  1  0.515000  0.449600  0.198100  1
  N  N928  1  0.015000  0.550400  0.301900  1
  N  N929  1  0.833600  0.727800  0.646200  1
  N  N930  1  0.333600  0.272200  0.853800  1
  N  N931  1  0.166400  0.272200  0.353800  1
  N  N932  1  0.666400  0.727800  0.146200  1
  N  N933  1  0.758700  0.696100  0.733100  1
  N  N934  1  0.258700  0.303900  0.766900  1
  N  N935  1  0.241300  0.303900  0.266900  1
  N  N936  1  0.741300  0.696100  0.233100  1
  N  N937  1  0.833500  0.023100  0.962400  1
  N  N938  1  0.333500  0.976900  0.537600  1
  N  N939  1  0.166500  0.976900  0.037600  1
  N  N940  1  0.666500  0.023100  0.462400  1
  N  N941  1  0.672400  0.980100  0.907200  1
  N  N942  1  0.172400  0.019900  0.592800  1
  N  N943  1  0.327600  0.019900  0.092800  1
  N  N944  1  0.827600  0.980100  0.407200  1
  N  N945  1  0.787900  0.852000  0.650000  1
  N  N946  1  0.287900  0.148000  0.850000  1
  N  N947  1  0.212100  0.148000  0.350000  1
  N  N948  1  0.712100  0.852000  0.150000  1
  N  N949  1  0.690000  0.869300  0.735800  1
  N  N950  1  0.190000  0.130700  0.764200  1
  N  N951  1  0.310000  0.130700  0.264200  1
  N  N952  1  0.810000  0.869300  0.235800  1
  N  N953  1  0.303800  0.969500  0.713400  1
  N  N954  1  0.803800  0.030500  0.786600  1
  N  N955  1  0.696200  0.030500  0.286600  1
  N  N956  1  0.196200  0.969500  0.213400  1
  N  N957  1  0.438600  0.929100  0.778700  1
  N  N958  1  0.938600  0.070900  0.721300  1
  N  N959  1  0.561400  0.070900  0.221300  1
  N  N960  1  0.061400  0.929100  0.278700  1
  N  N961  1  0.108400  0.701200  0.037000  1
  N  N962  1  0.608400  0.298800  0.463000  1
  N  N963  1  0.891600  0.298800  0.963000  1
  N  N964  1  0.391600  0.701200  0.537000  1
  N  N965  1  0.175100  0.722800  0.943600  1
  N  N966  1  0.675100  0.277200  0.556400  1
  N  N967  1  0.824900  0.277200  0.056400  1
  N  N968  1  0.324900  0.722800  0.443600  1
  N  N969  1  0.149600  0.507100  0.808500  1
  N  N970  1  0.649600  0.492900  0.691500  1
  N  N971  1  0.850400  0.492900  0.191500  1
  N  N972  1  0.350400  0.507100  0.308500  1
  N  N973  1  0.195000  0.614100  0.840600  1
  N  N974  1  0.695000  0.385900  0.659400  1
  N  N975  1  0.805000  0.385900  0.159400  1
  N  N976  1  0.305000  0.614100  0.340600  1
  N  N977  1  0.104300  0.915500  0.739700  1
  N  N978  1  0.604300  0.084500  0.760300  1
  N  N979  1  0.895700  0.084500  0.260300  1
  N  N980  1  0.395700  0.915500  0.239700  1
  N  N981  1  0.161100  0.835000  0.801600  1
  N  N982  1  0.661100  0.165000  0.698400  1
  N  N983  1  0.838900  0.165000  0.198400  1
  N  N984  1  0.338900  0.835000  0.301600  1
  O  O985  1  0.810000  0.697100  0.002200  1
  O  O986  1  0.310000  0.302900  0.497800  1
  O  O987  1  0.190000  0.302900  0.997800  1
  O  O988  1  0.690000  0.697100  0.502200  1
  O  O989  1  0.643200  0.867500  0.035100  1
  O  O990  1  0.143200  0.132500  0.464900  1
  O  O991  1  0.356800  0.132500  0.964900  1
  O  O992  1  0.856800  0.867500  0.535100  1
  O  O993  1  0.470000  0.699600  0.054500  1
  O  O994  1  0.970000  0.300400  0.445500  1
  O  O995  1  0.530000  0.300400  0.945500  1
  O  O996  1  0.030000  0.699600  0.554500  1
  O  O997  1  0.823300  0.606200  0.837600  1
  O  O998  1  0.323300  0.393800  0.662400  1
  O  O999  1  0.176700  0.393800  0.162400  1
  O  O1000  1  0.676700  0.606200  0.337600  1
  O  O1001  1  0.473800  0.574900  0.745700  1
  O  O1002  1  0.973800  0.425100  0.754300  1
  O  O1003  1  0.526200  0.425100  0.254300  1
  O  O1004  1  0.026200  0.574900  0.245700  1
  O  O1005  1  0.647200  0.683600  0.709100  1
  O  O1006  1  0.147200  0.316400  0.790900  1
  O  O1007  1  0.352800  0.316400  0.290900  1
  O  O1008  1  0.852800  0.683600  0.209100  1
  O  O1009  1  0.761900  0.933300  0.892000  1
  O  O1010  1  0.261900  0.066700  0.608000  1
  O  O1011  1  0.238100  0.066700  0.108000  1
  O  O1012  1  0.738100  0.933300  0.392000  1
  O  O1013  1  0.786000  0.876200  0.770100  1
  O  O1014  1  0.286000  0.123800  0.729900  1
  O  O1015  1  0.214000  0.123800  0.229900  1
  O  O1016  1  0.714000  0.876200  0.270100  1
  O  O1017  1  0.452800  0.984800  0.815800  1
  O  O1018  1  0.952800  0.015200  0.684200  1
  O  O1019  1  0.547200  0.015200  0.184200  1
  O  O1020  1  0.047200  0.984800  0.315800  1
  O  O1021  1  0.134700  0.788600  0.934900  1
  O  O1022  1  0.634700  0.211400  0.565100  1
  O  O1023  1  0.865300  0.211400  0.065100  1
  O  O1024  1  0.365300  0.788600  0.434900  1
  O  O1025  1  0.147300  0.637600  0.786400  1
  O  O1026  1  0.647300  0.362400  0.713600  1
  O  O1027  1  0.852700  0.362400  0.213600  1
  O  O1028  1  0.352700  0.637600  0.286400  1
  O  O1029  1  0.162900  0.783800  0.759500  1
  O  O1030  1  0.662900  0.216200  0.740500  1
  O  O1031  1  0.837100  0.216200  0.240500  1
  O  O1032  1  0.337100  0.783800  0.259500  1
