
#######################################################################
#
#                 Cambridge Crystallographic Data Centre
#                                CCDC 
#
#######################################################################
#
# If this CIF has been generated from an entry in the Cambridge 
# Structural Database, then it will include bibliographic, chemical, 
# crystal, experimental, refinement or atomic coordinate data resulting 
# from the CCDC's data processing and validation procedures.
#
#######################################################################

data_ANEYEZ
_chemical_formula_moiety         
'C108 H96 Cl12 N24 O12 Pd6,6(C2 H6 O1 S1),5(H2 O1)'
_chemical_name_systematic        
"tetrakis(\m-N,N',N''-tris(pyridin-2-ylmethyl)benzene-1,3,5-tricarboxamide)-dodecachloro-hexa-palladium dimethyl sulfoxide solvate pentahydrate"
_symmetry_cell_setting           orthorhombic
_symmetry_space_group_name_H-M   'F d d d'
_symmetry_Int_Tables_number      70
_space_group_name_Hall           '-F 2uv 2vw'
loop_
_symmetry_equiv_pos_site_id
_symmetry_equiv_pos_as_xyz
1 x,y,z
2 3/4-x,3/4-y,z
3 3/4-x,y,3/4-z
4 x,3/4-y,3/4-z
5 x,1/2+y,1/2+z
6 3/4-x,1/4-y,1/2+z
7 3/4-x,1/2+y,1/4-z
8 x,1/4-y,1/4-z
9 1/2+x,y,1/2+z
10 1/4-x,3/4-y,1/2+z
11 1/4-x,y,1/4-z
12 1/2+x,3/4-y,1/4-z
13 1/2+x,1/2+y,z
14 1/4-x,1/4-y,z
15 1/4-x,1/2+y,3/4-z
16 1/2+x,1/4-y,3/4-z
17 -x,-y,-z
18 1/4+x,1/4+y,-z
19 1/4+x,-y,1/4+z
20 -x,1/4+y,1/4+z
21 -x,1/2-y,1/2-z
22 1/4+x,3/4+y,1/2-z
23 1/4+x,1/2-y,3/4+z
24 -x,3/4+y,3/4+z
25 1/2-x,-y,1/2-z
26 3/4+x,1/4+y,1/2-z
27 3/4+x,-y,3/4+z
28 1/2-x,1/4+y,3/4+z
29 1/2-x,1/2-y,-z
30 3/4+x,3/4+y,-z
31 3/4+x,1/2-y,1/4+z
32 1/2-x,3/4+y,1/4+z
_cell_length_a                   26.0928(15)
_cell_length_b                   30.8329(15)
_cell_length_c                   61.733(4)
_cell_angle_alpha                90
_cell_angle_beta                 90
_cell_angle_gamma                90
_cell_volume                     49665.2
_exptl_crystal_colour            yellow
_exptl_crystal_description       block
_cell_formula_units_Z            8
loop_
_atom_site_label
_atom_site_type_symbol
_atom_site_fract_x
_atom_site_fract_y
_atom_site_fract_z
S1 S -0.2330(3) 0.7855(2) 0.09829(10)
O4 O -0.2779(8) 0.7642(4) 0.12092(18)
C28 C -0.1727(6) 0.7861(6) 0.1001(3)
H25 H -0.1603 0.7568 0.1034
H26 H -0.1579 0.7960 0.0864
H27 H -0.1623 0.8059 0.1118
C29 C -0.2433(6) 0.8399(4) 0.09268(19)
H28 H -0.2802 0.8452 0.0910
H29 H -0.2300 0.8576 0.1046
H30 H -0.2256 0.8477 0.0792
S1A S -0.0170(3) 0.9645(2) 0.09829(10)
O4A O 0.0279(8) 0.9858(4) 0.12092(18)
C28A C -0.0773(6) 0.9639(6) 0.1001(3)
H25A H -0.0897 0.9932 0.1034
H26A H -0.0921 0.9540 0.0864
H27A H -0.0877 0.9441 0.1118
C29A C -0.0067(6) 0.9101(4) 0.09268(19)
H28A H 0.0302 0.9048 0.0910
H29A H -0.0200 0.8924 0.1046
H30A H -0.0244 0.9023 0.0792
S3 S -0.6228(3) 1.1832(2) 0.04701(17)
O6 O -0.6039(4) 1.1362(2) 0.0485(2)
C30 C -0.6025(13) 1.2130(10) 0.0764(3)
H37 H -0.6138 1.2433 0.0763
H38 H -0.6190 1.1977 0.0884
H39 H -0.5652 1.2119 0.0782
C31 C -0.6882(4) 1.1885(6) 0.0530(5)
H40 H -0.6982 1.2190 0.0518
H41 H -0.7083 1.1712 0.0428
H42 H -0.6946 1.1783 0.0678
Pd1 Pd 0.02937(2) 0.6250 0.1250
Pd2 Pd -0.3750 0.6250 0.29030(2)
Pd3 Pd -0.3750 0.92735(2) 0.1250
Cl1 Cl 0.02964(8) 0.56916(6) 0.14955(3)
Cl2 Cl -0.43169(8) 0.68182(7) 0.28883(4)
Cl3 Cl -0.35085(7) 0.92929(6) 0.08928(3)
O1 O -0.12467(19) 0.72581(18) 0.14423(9)
O2 O -0.2217(3) 0.6499(2) 0.23045(10)
O3 O -0.2905(4) 0.8321(2) 0.19211(14)
N1 N 0.0316(2) 0.66883(15) 0.14929(8)
N2 N -0.1032(2) 0.67293(19) 0.16742(10)
H1 H -0.1101 0.6601 0.1798
N3 N -0.3167(2) 0.66790(17) 0.29174(9)
N4 N -0.2888(3) 0.6923(2) 0.23483(9)
H2 H -0.3055 0.7155 0.2305
N5 N -0.30003(19) 0.92849(17) 0.13346(8)
N6 N -0.2774(2) 0.8205(2) 0.15618(13)
H3 H -0.2615 0.8045 0.1465
C1 C -0.0100(3) 0.6797(2) 0.16116(12)
C2 C -0.0077(4) 0.7106(3) 0.17695(13)
H4 H -0.0379 0.7191 0.1844
C3 C 0.0386(5) 0.7293(3) 0.18198(16)
H5 H 0.0409 0.7507 0.1930
C4 C 0.0819(4) 0.7163(3) 0.17059(15)
H6 H 0.1143 0.7282 0.1742
C5 C 0.0782(3) 0.6860(2) 0.15401(12)
H7 H 0.1078 0.6774 0.1461
C6 C -0.0593(3) 0.6583(2) 0.15483(12)
H8 H -0.0660 0.6641 0.1393
H9 H -0.0556 0.6266 0.1566
C7 C -0.1330(3) 0.7048(2) 0.16087(13)
C8 C -0.2916(3) 0.6826(2) 0.27568(12)
C9 C -0.2507(3) 0.7097(3) 0.27820(14)
H10 H -0.2323 0.7194 0.2658
C10 C -0.2367(4) 0.7225(3) 0.2976(2)
H11 H -0.2089 0.7421 0.2994
C11 C -0.2622(4) 0.7074(3) 0.31458(17)
H12 H -0.2522 0.7158 0.3288
C12 C -0.3027(3) 0.6800(3) 0.31189(12)
H13 H -0.3209 0.6694 0.3241
C13 C -0.3091(3) 0.6657(3) 0.25401(11)
H14 H -0.3470 0.6657 0.2536
H15 H -0.2975 0.6353 0.2524
C14 C -0.2472(4) 0.6805(3) 0.22497(14)
C15 C -0.2759(3) 0.8970(2) 0.14380(12)
C16 C -0.2253(3) 0.9010(3) 0.14870(14)
H16 H -0.2089 0.8777 0.1560
C17 C -0.1975(3) 0.9361(3) 0.14383(14)
H17 H -0.1625 0.9387 0.1479
C18 C -0.2235(3) 0.9690(3) 0.13221(13)
H18 H -0.2056 0.9943 0.1277
C19 C -0.2745(3) 0.9644(2) 0.12749(10)
H19 H -0.2919 0.9868 0.1199
C20 C -0.3071(3) 0.8573(2) 0.14886(15)
H20 H -0.3324 0.8648 0.1602
H21 H -0.3263 0.8488 0.1357
C21 C -0.2733(4) 0.8101(3) 0.1762(2)
C22 C -0.1781(3) 0.7169(2) 0.17456(11)
C23 C -0.1923(3) 0.6939(2) 0.19224(12)
H22 H -0.1742 0.6682 0.1960
C24 C -0.2343(3) 0.7080(2) 0.20535(11)
C25 C -0.2594(3) 0.7444(3) 0.19959(14)
H23 H -0.2875 0.7542 0.2081
C26 C -0.2445(3) 0.7682(2) 0.18102(14)
C27 C -0.2049(3) 0.7548(2) 0.16897(11)
H24 H -0.1949 0.7710 0.1566
Pd2G Pd -0.3750 0.6250 -0.04030(2)
Pd3G Pd -0.3750 0.32265(2) 0.1250
Cl1G Cl 0.02964(8) 0.68084(6) 0.10045(3)
Cl2G Cl -0.43169(8) 0.56818(7) -0.03883(4)
Cl3G Cl -0.35085(7) 0.32071(6) 0.16072(3)
O1G O -0.12467(19) 0.52419(18) 0.10577(9)
O2G O -0.2217(3) 0.6001(2) 0.01955(10)
O3G O -0.2905(4) 0.4179(2) 0.05789(14)
N1G N 0.0316(2) 0.58117(15) 0.10071(8)
N2G N -0.1032(2) 0.57707(19) 0.08258(10)
H1G H -0.1101 0.5899 0.0702
N3G N -0.3167(2) 0.58210(17) -0.04174(9)
N4G N -0.2888(3) 0.5577(2) 0.01517(9)
H2G H -0.3055 0.5345 0.0195
N5G N -0.30003(19) 0.32151(17) 0.11654(8)
N6G N -0.2774(2) 0.4295(2) 0.09382(13)
H3G H -0.2615 0.4455 0.1035
C1G C -0.0100(3) 0.5703(2) 0.08884(12)
C2G C -0.0077(4) 0.5394(3) 0.07305(13)
H4G H -0.0379 0.5309 0.0656
C3G C 0.0386(5) 0.5207(3) 0.06802(16)
H5G H 0.0409 0.4993 0.0570
C4G C 0.0819(4) 0.5337(3) 0.07941(15)
H6G H 0.1143 0.5218 0.0758
C5G C 0.0782(3) 0.5640(2) 0.09599(12)
H7G H 0.1078 0.5726 0.1039
C6G C -0.0593(3) 0.5917(2) 0.09517(12)
H8G H -0.0660 0.5859 0.1107
H9G H -0.0556 0.6234 0.0934
C7G C -0.1330(3) 0.5452(2) 0.08913(13)
C8G C -0.2916(3) 0.5674(2) -0.02568(12)
C9G C -0.2507(3) 0.5403(3) -0.02820(14)
H10G H -0.2323 0.5306 -0.0158
C10G C -0.2367(4) 0.5275(3) -0.0476(2)
H11G H -0.2089 0.5079 -0.0494
C11G C -0.2622(4) 0.5426(3) -0.06458(17)
H12G H -0.2522 0.5342 -0.0788
C12G C -0.3027(3) 0.5700(3) -0.06189(12)
H13G H -0.3209 0.5806 -0.0741
C13G C -0.3091(3) 0.5843(3) -0.00401(11)
H14G H -0.3470 0.5843 -0.0036
H15G H -0.2975 0.6147 -0.0024
C14G C -0.2472(4) 0.5695(3) 0.02503(14)
C15G C -0.2759(3) 0.3530(2) 0.10620(12)
C16G C -0.2253(3) 0.3490(3) 0.10130(14)
H16G H -0.2089 0.3723 0.0940
C17G C -0.1975(3) 0.3139(3) 0.10617(14)
H17G H -0.1625 0.3113 0.1021
C18G C -0.2235(3) 0.2810(3) 0.11779(13)
H18G H -0.2056 0.2557 0.1223
C19G C -0.2745(3) 0.2856(2) 0.12251(10)
H19G H -0.2919 0.2632 0.1301
C20G C -0.3071(3) 0.3927(2) 0.10114(15)
H20G H -0.3324 0.3852 0.0898
H21G H -0.3263 0.4012 0.1143
C21G C -0.2733(4) 0.4399(3) 0.0738(2)
C22G C -0.1781(3) 0.5331(2) 0.07544(11)
C23G C -0.1923(3) 0.5561(2) 0.05776(12)
H22G H -0.1742 0.5818 0.0540
C24G C -0.2343(3) 0.5420(2) 0.04465(11)
C25G C -0.2594(3) 0.5056(3) 0.05041(14)
H23G H -0.2875 0.4958 0.0419
C26G C -0.2445(3) 0.4818(2) 0.06898(14)
C27G C -0.2049(3) 0.4952(2) 0.08103(11)
H24G H -0.1949 0.4790 0.0934
Pd1J Pd -0.77937(2) 0.6250 0.1250
Cl1J Cl -0.77964(8) 0.56916(6) 0.10045(3)
Cl2J Cl -0.31831(8) 0.68182(7) -0.03883(4)
Cl3J Cl -0.39915(7) 0.92929(6) 0.16072(3)
O1J O -0.62533(19) 0.72581(18) 0.10577(9)
O2J O -0.5283(3) 0.6499(2) 0.01955(10)
O3J O -0.4595(4) 0.8321(2) 0.05789(14)
N1J N -0.7816(2) 0.66883(15) 0.10071(8)
N2J N -0.6468(2) 0.67293(19) 0.08258(10)
H1J H -0.6399 0.6601 0.0702
N3J N -0.4333(2) 0.66790(17) -0.04174(9)
N4J N -0.4612(3) 0.6923(2) 0.01517(9)
H2J H -0.4445 0.7155 0.0195
N5J N -0.44997(19) 0.92849(17) 0.11654(8)
N6J N -0.4726(2) 0.8205(2) 0.09382(13)
H3J H -0.4885 0.8045 0.1035
C1J C -0.7400(3) 0.6797(2) 0.08884(12)
C2J C -0.7423(4) 0.7106(3) 0.07305(13)
H4J H -0.7121 0.7191 0.0656
C3J C -0.7886(5) 0.7293(3) 0.06802(16)
H5J H -0.7909 0.7507 0.0570
C4J C -0.8319(4) 0.7163(3) 0.07941(15)
H6J H -0.8643 0.7282 0.0758
C5J C -0.8282(3) 0.6860(2) 0.09599(12)
H7J H -0.8578 0.6774 0.1039
C6J C -0.6907(3) 0.6583(2) 0.09517(12)
H8J H -0.6840 0.6641 0.1107
H9J H -0.6944 0.6266 0.0934
C7J C -0.6170(3) 0.7048(2) 0.08913(13)
C8J C -0.4584(3) 0.6826(2) -0.02568(12)
C9J C -0.4993(3) 0.7097(3) -0.02820(14)
H10J H -0.5177 0.7194 -0.0158
C10J C -0.5133(4) 0.7225(3) -0.0476(2)
H11J H -0.5411 0.7421 -0.0494
C11J C -0.4878(4) 0.7074(3) -0.06458(17)
H12J H -0.4978 0.7158 -0.0788
C12J C -0.4473(3) 0.6800(3) -0.06189(12)
H13J H -0.4291 0.6694 -0.0741
C13J C -0.4409(3) 0.6657(3) -0.00401(11)
H14J H -0.4030 0.6657 -0.0036
H15J H -0.4525 0.6353 -0.0024
C14J C -0.5028(4) 0.6805(3) 0.02503(14)
C15J C -0.4741(3) 0.8970(2) 0.10620(12)
C16J C -0.5247(3) 0.9010(3) 0.10130(14)
H16J H -0.5411 0.8777 0.0940
C17J C -0.5525(3) 0.9361(3) 0.10617(14)
H17J H -0.5875 0.9387 0.1021
C18J C -0.5265(3) 0.9690(3) 0.11779(13)
H18J H -0.5444 0.9943 0.1223
C19J C -0.4755(3) 0.9644(2) 0.12251(10)
H19J H -0.4581 0.9868 0.1301
C20J C -0.4429(3) 0.8573(2) 0.10114(15)
H20J H -0.4176 0.8648 0.0898
H21J H -0.4237 0.8488 0.1143
C21J C -0.4767(4) 0.8101(3) 0.0738(2)
C22J C -0.5719(3) 0.7169(2) 0.07544(11)
C23J C -0.5577(3) 0.6939(2) 0.05776(12)
H22J H -0.5758 0.6682 0.0540
C24J C -0.5157(3) 0.7080(2) 0.04465(11)
C25J C -0.4906(3) 0.7444(3) 0.05041(14)
H23J H -0.4625 0.7542 0.0419
C26J C -0.5055(3) 0.7682(2) 0.06898(14)
C27J C -0.5451(3) 0.7548(2) 0.08103(11)
H24J H -0.5551 0.7710 0.0934
Cl1M Cl -0.77964(8) 0.68084(6) 0.14955(3)
Cl2M Cl -0.31831(8) 0.56818(7) 0.28883(4)
Cl3M Cl -0.39915(7) 0.32071(6) 0.08928(3)
O1M O -0.62533(19) 0.52419(18) 0.14423(9)
O2M O -0.5283(3) 0.6001(2) 0.23045(10)
O3M O -0.4595(4) 0.4179(2) 0.19211(14)
N1M N -0.7816(2) 0.58117(15) 0.14929(8)
N2M N -0.6468(2) 0.57707(19) 0.16742(10)
H1M H -0.6399 0.5899 0.1798
N3M N -0.4333(2) 0.58210(17) 0.29174(9)
N4M N -0.4612(3) 0.5577(2) 0.23483(9)
H2M H -0.4445 0.5345 0.2305
N5M N -0.44997(19) 0.32151(17) 0.13346(8)
N6M N -0.4726(2) 0.4295(2) 0.15618(13)
H3M H -0.4885 0.4455 0.1465
C1M C -0.7400(3) 0.5703(2) 0.16116(12)
C2M C -0.7423(4) 0.5394(3) 0.17695(13)
H4M H -0.7121 0.5309 0.1844
C3M C -0.7886(5) 0.5207(3) 0.18198(16)
H5M H -0.7909 0.4993 0.1930
C4M C -0.8319(4) 0.5337(3) 0.17059(15)
H6M H -0.8643 0.5218 0.1742
C5M C -0.8282(3) 0.5640(2) 0.15401(12)
H7M H -0.8578 0.5726 0.1461
C6M C -0.6907(3) 0.5917(2) 0.15483(12)
H8M H -0.6840 0.5859 0.1393
H9M H -0.6944 0.6234 0.1566
C7M C -0.6170(3) 0.5452(2) 0.16087(13)
C8M C -0.4584(3) 0.5674(2) 0.27568(12)
C9M C -0.4993(3) 0.5403(3) 0.27820(14)
H10M H -0.5177 0.5306 0.2658
C10M C -0.5133(4) 0.5275(3) 0.2976(2)
H11M H -0.5411 0.5079 0.2994
C11M C -0.4878(4) 0.5426(3) 0.31458(17)
H12M H -0.4978 0.5342 0.3288
C12M C -0.4473(3) 0.5700(3) 0.31189(12)
H13M H -0.4291 0.5806 0.3241
C13M C -0.4409(3) 0.5843(3) 0.25401(11)
H14M H -0.4030 0.5843 0.2536
H15M H -0.4525 0.6147 0.2524
C14M C -0.5028(4) 0.5695(3) 0.22497(14)
C15M C -0.4741(3) 0.3530(2) 0.14380(12)
C16M C -0.5247(3) 0.3490(3) 0.14870(14)
H16M H -0.5411 0.3723 0.1560
C17M C -0.5525(3) 0.3139(3) 0.14383(14)
H17M H -0.5875 0.3113 0.1479
C18M C -0.5265(3) 0.2810(3) 0.13221(13)
H18M H -0.5444 0.2557 0.1277
C19M C -0.4755(3) 0.2856(2) 0.12749(10)
H19M H -0.4581 0.2632 0.1199
C20M C -0.4429(3) 0.3927(2) 0.14886(15)
H20M H -0.4176 0.3852 0.1602
H21M H -0.4237 0.4012 0.1357
C21M C -0.4767(4) 0.4399(3) 0.1762(2)
C22M C -0.5719(3) 0.5331(2) 0.17456(11)
C23M C -0.5577(3) 0.5561(2) 0.19224(12)
H22M H -0.5758 0.5818 0.1960
C24M C -0.5157(3) 0.5420(2) 0.20535(11)
C25M C -0.4906(3) 0.5056(3) 0.19959(14)
H23M H -0.4625 0.4958 0.2081
C26M C -0.5055(3) 0.4818(2) 0.18102(14)
C27M C -0.5451(3) 0.4952(2) 0.16897(11)
H24M H -0.5551 0.4790 0.1566
loop_
_geom_bond_atom_site_label_1
_geom_bond_atom_site_label_2
_geom_bond_site_symmetry_1
_geom_bond_site_symmetry_2
Pd1 Cl1 1_555 1_555
Pd2 Cl2 1_555 1_555
Pd3 Cl3 1_555 1_555
O1 C7 1_555 1_555
O2 C14 1_555 1_555
O3 C21 1_555 1_555
N1 Pd1 1_555 1_555
N2 H1 1_555 1_555
N3 Pd2 1_555 1_555
N4 H2 1_555 1_555
N5 Pd3 1_555 1_555
N6 H3 1_555 1_555
C1 N1 1_555 1_555
C2 C1 1_555 1_555
H4 C2 1_555 1_555
C3 C2 1_555 1_555
H5 C3 1_555 1_555
C4 C3 1_555 1_555
H6 C4 1_555 1_555
C5 N1 1_555 1_555
H7 C5 1_555 1_555
C6 N2 1_555 1_555
H8 C6 1_555 1_555
H9 C6 1_555 1_555
C7 N2 1_555 1_555
C8 N3 1_555 1_555
C9 C8 1_555 1_555
H10 C9 1_555 1_555
C10 C9 1_555 1_555
H11 C10 1_555 1_555
C11 C10 1_555 1_555
H12 C11 1_555 1_555
C12 N3 1_555 1_555
H13 C12 1_555 1_555
C13 N4 1_555 1_555
H14 C13 1_555 1_555
H15 C13 1_555 1_555
C14 N4 1_555 1_555
C15 N5 1_555 1_555
C16 C15 1_555 1_555
H16 C16 1_555 1_555
C17 C16 1_555 1_555
H17 C17 1_555 1_555
C18 C17 1_555 1_555
H18 C18 1_555 1_555
C19 N5 1_555 1_555
H19 C19 1_555 1_555
C20 N6 1_555 1_555
H20 C20 1_555 1_555
H21 C20 1_555 1_555
C21 N6 1_555 1_555
C22 C7 1_555 1_555
C23 C22 1_555 1_555
H22 C23 1_555 1_555
C24 C14 1_555 1_555
C25 C24 1_555 1_555
H23 C25 1_555 1_555
C26 C21 1_555 1_555
C27 C22 1_555 1_555
H24 C27 1_555 1_555
S1 O4 1_555 1_555
C28 S1 1_555 1_555
H25 C28 1_555 1_555
H26 C28 1_555 1_555
H27 C28 1_555 1_555
C29 S1 1_555 1_555
H28 C29 1_555 1_555
H29 C29 1_555 1_555
H30 C29 1_555 1_555
S3 O6 1_555 1_555
C30 S3 1_555 1_555
H37 C30 1_555 1_555
H38 C30 1_555 1_555
H39 C30 1_555 1_555
C31 S3 1_555 1_555
H40 C31 1_555 1_555
H41 C31 1_555 1_555
H42 C31 1_555 1_555
Pd2G Cl2G 1_555 1_555
Pd3G Cl3G 1_555 1_555
Cl1G Pd1 1_555 1_555
O1G C7G 1_555 1_555
O2G C14G 1_555 1_555
O3G C21G 1_555 1_555
N1G Pd1 1_555 1_555
N2G H1G 1_555 1_555
N3G Pd2G 1_555 1_555
N4G H2G 1_555 1_555
N5G Pd3G 1_555 1_555
N6G H3G 1_555 1_555
C1G N1G 1_555 1_555
C2G C1G 1_555 1_555
H4G C2G 1_555 1_555
C3G C2G 1_555 1_555
H5G C3G 1_555 1_555
C4G C3G 1_555 1_555
H6G C4G 1_555 1_555
C5G N1G 1_555 1_555
H7G C5G 1_555 1_555
C6G N2G 1_555 1_555
H8G C6G 1_555 1_555
H9G C6G 1_555 1_555
C7G N2G 1_555 1_555
C8G N3G 1_555 1_555
C9G C8G 1_555 1_555
H10G C9G 1_555 1_555
C10G C9G 1_555 1_555
H11G C10G 1_555 1_555
C11G C10G 1_555 1_555
H12G C11G 1_555 1_555
C12G N3G 1_555 1_555
H13G C12G 1_555 1_555
C13G N4G 1_555 1_555
H14G C13G 1_555 1_555
H15G C13G 1_555 1_555
C14G N4G 1_555 1_555
C15G N5G 1_555 1_555
C16G C15G 1_555 1_555
H16G C16G 1_555 1_555
C17G C16G 1_555 1_555
H17G C17G 1_555 1_555
C18G C17G 1_555 1_555
H18G C18G 1_555 1_555
C19G N5G 1_555 1_555
H19G C19G 1_555 1_555
C20G N6G 1_555 1_555
H20G C20G 1_555 1_555
H21G C20G 1_555 1_555
C21G N6G 1_555 1_555
C22G C7G 1_555 1_555
C23G C22G 1_555 1_555
H22G C23G 1_555 1_555
C24G C14G 1_555 1_555
C25G C24G 1_555 1_555
H23G C25G 1_555 1_555
C26G C21G 1_555 1_555
C27G C22G 1_555 1_555
H24G C27G 1_555 1_555
Pd1J Cl1J 1_555 1_555
Cl2J Pd2G 1_555 1_555
Cl3J Pd3 1_555 1_555
O1J C7J 1_555 1_555
O2J C14J 1_555 1_555
O3J C21J 1_555 1_555
N1J Pd1J 1_555 1_555
N2J H1J 1_555 1_555
N3J Pd2G 1_555 1_555
N4J H2J 1_555 1_555
N5J Pd3 1_555 1_555
N6J H3J 1_555 1_555
C1J N1J 1_555 1_555
C2J C1J 1_555 1_555
H4J C2J 1_555 1_555
C3J C2J 1_555 1_555
H5J C3J 1_555 1_555
C4J C3J 1_555 1_555
H6J C4J 1_555 1_555
C5J N1J 1_555 1_555
H7J C5J 1_555 1_555
C6J N2J 1_555 1_555
H8J C6J 1_555 1_555
H9J C6J 1_555 1_555
C7J N2J 1_555 1_555
C8J N3J 1_555 1_555
C9J C8J 1_555 1_555
H10J C9J 1_555 1_555
C10J C9J 1_555 1_555
H11J C10J 1_555 1_555
C11J C10J 1_555 1_555
H12J C11J 1_555 1_555
C12J N3J 1_555 1_555
H13J C12J 1_555 1_555
C13J N4J 1_555 1_555
H14J C13J 1_555 1_555
H15J C13J 1_555 1_555
C14J N4J 1_555 1_555
C15J N5J 1_555 1_555
C16J C15J 1_555 1_555
H16J C16J 1_555 1_555
C17J C16J 1_555 1_555
H17J C17J 1_555 1_555
C18J C17J 1_555 1_555
H18J C18J 1_555 1_555
C19J N5J 1_555 1_555
H19J C19J 1_555 1_555
C20J N6J 1_555 1_555
H20J C20J 1_555 1_555
H21J C20J 1_555 1_555
C21J N6J 1_555 1_555
C22J C7J 1_555 1_555
C23J C22J 1_555 1_555
H22J C23J 1_555 1_555
C24J C14J 1_555 1_555
C25J C24J 1_555 1_555
H23J C25J 1_555 1_555
C26J C21J 1_555 1_555
C27J C22J 1_555 1_555
H24J C27J 1_555 1_555
Cl1M Pd1J 1_555 1_555
Cl2M Pd2 1_555 1_555
Cl3M Pd3G 1_555 1_555
O1M C7M 1_555 1_555
O2M C14M 1_555 1_555
O3M C21M 1_555 1_555
N1M Pd1J 1_555 1_555
N2M H1M 1_555 1_555
N3M Pd2 1_555 1_555
N4M H2M 1_555 1_555
N5M Pd3G 1_555 1_555
N6M H3M 1_555 1_555
C1M N1M 1_555 1_555
C2M C1M 1_555 1_555
H4M C2M 1_555 1_555
C3M C2M 1_555 1_555
H5M C3M 1_555 1_555
C4M C3M 1_555 1_555
H6M C4M 1_555 1_555
C5M N1M 1_555 1_555
H7M C5M 1_555 1_555
C6M N2M 1_555 1_555
H8M C6M 1_555 1_555
H9M C6M 1_555 1_555
C7M N2M 1_555 1_555
C8M N3M 1_555 1_555
C9M C8M 1_555 1_555
H10M C9M 1_555 1_555
C10M C9M 1_555 1_555
H11M C10M 1_555 1_555
C11M C10M 1_555 1_555
H12M C11M 1_555 1_555
C12M N3M 1_555 1_555
H13M C12M 1_555 1_555
C13M N4M 1_555 1_555
H14M C13M 1_555 1_555
H15M C13M 1_555 1_555
C14M N4M 1_555 1_555
C15M N5M 1_555 1_555
C16M C15M 1_555 1_555
H16M C16M 1_555 1_555
C17M C16M 1_555 1_555
H17M C17M 1_555 1_555
C18M C17M 1_555 1_555
H18M C18M 1_555 1_555
C19M N5M 1_555 1_555
H19M C19M 1_555 1_555
C20M N6M 1_555 1_555
H20M C20M 1_555 1_555
H21M C20M 1_555 1_555
C21M N6M 1_555 1_555
C22M C7M 1_555 1_555
C23M C22M 1_555 1_555
H22M C23M 1_555 1_555
C24M C14M 1_555 1_555
C25M C24M 1_555 1_555
H23M C25M 1_555 1_555
C26M C21M 1_555 1_555
C27M C22M 1_555 1_555
H24M C27M 1_555 1_555
S1A O4A 1_555 1_555
C28A S1A 1_555 1_555
H25A C28A 1_555 1_555
H26A C28A 1_555 1_555
H27A C28A 1_555 1_555
C29A S1A 1_555 1_555
H28A C29A 1_555 1_555
H29A C29A 1_555 1_555
H30A C29A 1_555 1_555
C1 C6 1_555 1_555
C4 C5 1_555 1_555
C8 C13 1_555 1_555
C11 C12 1_555 1_555
C15 C20 1_555 1_555
C18 C19 1_555 1_555
C23 C24 1_555 1_555
C25 C26 1_555 1_555
C26 C27 1_555 1_555
C1G C6G 1_555 1_555
C4G C5G 1_555 1_555
C8G C13G 1_555 1_555
C11G C12G 1_555 1_555
C15G C20G 1_555 1_555
C18G C19G 1_555 1_555
C23G C24G 1_555 1_555
C25G C26G 1_555 1_555
C26G C27G 1_555 1_555
C1J C6J 1_555 1_555
C4J C5J 1_555 1_555
C8J C13J 1_555 1_555
C11J C12J 1_555 1_555
C15J C20J 1_555 1_555
C18J C19J 1_555 1_555
C23J C24J 1_555 1_555
C25J C26J 1_555 1_555
C26J C27J 1_555 1_555
C1M C6M 1_555 1_555
C4M C5M 1_555 1_555
C8M C13M 1_555 1_555
C11M C12M 1_555 1_555
C15M C20M 1_555 1_555
C18M C19M 1_555 1_555
C23M C24M 1_555 1_555
C25M C26M 1_555 1_555
C26M C27M 1_555 1_555

#END
