# generated using pymatgen
data_H16PdC18I2(N2O)2
_symmetry_space_group_name_H-M   'P 1'
_cell_length_a   17.38200000
_cell_length_b   31.97700000
_cell_length_c   35.88600000
_cell_angle_alpha   92.14000000
_cell_angle_beta   90.00000000
_cell_angle_gamma   90.00000000
_symmetry_Int_Tables_number   1
_chemical_formula_structural   H16PdC18I2(N2O)2
_chemical_formula_sum   'H384 Pd24 C432 I48 N96 O48'
_cell_volume   19932.39655261
_cell_formula_units_Z   24
loop_
 _symmetry_equiv_pos_site_id
 _symmetry_equiv_pos_as_xyz
  1  'x, y, z'
loop_
 _atom_site_type_symbol
 _atom_site_label
 _atom_site_symmetry_multiplicity
 _atom_site_fract_x
 _atom_site_fract_y
 _atom_site_fract_z
 _atom_site_occupancy
  H  H1  1  0.839400  0.644800  0.515900  1
  H  H2  1  0.339400  0.355200  0.984100  1
  H  H3  1  0.160600  0.355200  0.484100  1
  H  H4  1  0.660600  0.644800  0.015900  1
  H  H5  1  0.067300  0.794200  0.542000  1
  H  H6  1  0.567300  0.205800  0.958000  1
  H  H7  1  0.932700  0.205800  0.458000  1
  H  H8  1  0.432700  0.794200  0.042000  1
  H  H9  1  0.724500  0.831800  0.493900  1
  H  H10  1  0.224500  0.168200  0.006100  1
  H  H11  1  0.275500  0.168200  0.506100  1
  H  H12  1  0.775500  0.831800  0.993900  1
  H  H13  1  0.797000  0.559300  0.370600  1
  H  H14  1  0.297000  0.440700  0.129400  1
  H  H15  1  0.203000  0.440700  0.629400  1
  H  H16  1  0.703000  0.559300  0.870600  1
  H  H17  1  0.710400  0.686800  0.247300  1
  H  H18  1  0.210400  0.313200  0.252700  1
  H  H19  1  0.289600  0.313200  0.752700  1
  H  H20  1  0.789600  0.686800  0.747300  1
  H  H21  1  0.983700  0.550100  0.329900  1
  H  H22  1  0.483700  0.449900  0.170100  1
  H  H23  1  0.016300  0.449900  0.670100  1
  H  H24  1  0.516300  0.550100  0.829900  1
  H  H25  1  0.305500  0.696000  0.438000  1
  H  H26  1  0.805500  0.304000  0.062000  1
  H  H27  1  0.694500  0.304000  0.562000  1
  H  H28  1  0.194500  0.696000  0.938000  1
  H  H29  1  0.297900  0.625300  0.361100  1
  H  H30  1  0.797900  0.374700  0.138900  1
  H  H31  1  0.702100  0.374700  0.638900  1
  H  H32  1  0.202100  0.625300  0.861100  1
  H  H33  1  0.333900  0.844400  0.328200  1
  H  H34  1  0.833900  0.155600  0.171800  1
  H  H35  1  0.666100  0.155600  0.671800  1
  H  H36  1  0.166100  0.844400  0.828200  1
  H  H37  1  0.865900  0.991500  0.402700  1
  H  H38  1  0.365900  0.008500  0.097300  1
  H  H39  1  0.134100  0.008500  0.597300  1
  H  H40  1  0.634100  0.991500  0.902700  1
  H  H41  1  0.050500  0.905200  0.270000  1
  H  H42  1  0.550500  0.094800  0.230000  1
  H  H43  1  0.949500  0.094800  0.730000  1
  H  H44  1  0.449500  0.905200  0.770000  1
  H  H45  1  0.878000  0.867700  0.228900  1
  H  H46  1  0.378000  0.132300  0.271100  1
  H  H47  1  0.122000  0.132300  0.771100  1
  H  H48  1  0.622000  0.867700  0.728900  1
  H  H49  1  0.726700  0.643100  0.573900  1
  H  H50  1  0.226700  0.356900  0.926100  1
  H  H51  1  0.273300  0.356900  0.426100  1
  H  H52  1  0.773300  0.643100  0.073900  1
  H  H53  1  0.666500  0.614400  0.620600  1
  H  H54  1  0.166500  0.385600  0.879400  1
  H  H55  1  0.333500  0.385600  0.379400  1
  H  H56  1  0.833500  0.614400  0.120600  1
  H  H57  1  0.587000  0.559100  0.611200  1
  H  H58  1  0.087000  0.440900  0.888800  1
  H  H59  1  0.413000  0.440900  0.388800  1
  H  H60  1  0.913000  0.559100  0.111200  1
  H  H61  1  0.581700  0.526600  0.555000  1
  H  H62  1  0.081700  0.473400  0.945000  1
  H  H63  1  0.418300  0.473400  0.445000  1
  H  H64  1  0.918300  0.526600  0.055000  1
  H  H65  1  0.776700  0.589000  0.492900  1
  H  H66  1  0.276700  0.411000  0.007100  1
  H  H67  1  0.223300  0.411000  0.507100  1
  H  H68  1  0.723300  0.589000  0.992900  1
  H  H69  1  0.708900  0.618400  0.481500  1
  H  H70  1  0.208900  0.381600  0.018500  1
  H  H71  1  0.291100  0.381600  0.518500  1
  H  H72  1  0.791100  0.618400  0.981500  1
  H  H73  1  0.067300  0.780600  0.620200  1
  H  H74  1  0.567300  0.219400  0.879800  1
  H  H75  1  0.932700  0.219400  0.379800  1
  H  H76  1  0.432700  0.780600  0.120200  1
  H  H77  1  0.108100  0.790100  0.680300  1
  H  H78  1  0.608100  0.209900  0.819700  1
  H  H79  1  0.891900  0.209900  0.319700  1
  H  H80  1  0.391900  0.790100  0.180300  1
  H  H81  1  0.223800  0.766900  0.699800  1
  H  H82  1  0.723800  0.233100  0.800200  1
  H  H83  1  0.776200  0.233100  0.300200  1
  H  H84  1  0.276200  0.766900  0.199800  1
  H  H85  1  0.303700  0.735600  0.656000  1
  H  H86  1  0.803700  0.264400  0.844000  1
  H  H87  1  0.696300  0.264400  0.344000  1
  H  H88  1  0.196300  0.735600  0.156000  1
  H  H89  1  0.194400  0.774500  0.546900  1
  H  H90  1  0.694400  0.225500  0.953100  1
  H  H91  1  0.805600  0.225500  0.453100  1
  H  H92  1  0.305600  0.774500  0.046900  1
  H  H93  1  0.166400  0.728400  0.551400  1
  H  H94  1  0.666400  0.271600  0.948600  1
  H  H95  1  0.833600  0.271600  0.448600  1
  H  H96  1  0.333600  0.728400  0.051400  1
  H  H97  1  0.680600  0.844900  0.562200  1
  H  H98  1  0.180600  0.155100  0.937800  1
  H  H99  1  0.319400  0.155100  0.437800  1
  H  H100  1  0.819400  0.844900  0.062200  1
  H  H101  1  0.585700  0.856800  0.610300  1
  H  H102  1  0.085700  0.143200  0.889700  1
  H  H103  1  0.414300  0.143200  0.389700  1
  H  H104  1  0.914300  0.856800  0.110300  1
  H  H105  1  0.536500  0.931400  0.614500  1
  H  H106  1  0.036500  0.068600  0.885500  1
  H  H107  1  0.463500  0.068600  0.385500  1
  H  H108  1  0.963500  0.931400  0.114500  1
  H  H109  1  0.543000  0.967900  0.560800  1
  H  H110  1  0.043000  0.032100  0.939200  1
  H  H111  1  0.457000  0.032100  0.439200  1
  H  H112  1  0.957000  0.967900  0.060800  1
  H  H113  1  0.694400  0.895600  0.481400  1
  H  H114  1  0.194400  0.104400  0.018600  1
  H  H115  1  0.305600  0.104400  0.518600  1
  H  H116  1  0.805600  0.895600  0.981400  1
  H  H117  1  0.763300  0.911700  0.506400  1
  H  H118  1  0.263300  0.088300  0.993600  1
  H  H119  1  0.236700  0.088300  0.493600  1
  H  H120  1  0.736700  0.911700  0.006400  1
  H  H121  1  0.912300  0.687600  0.526000  1
  H  H122  1  0.412300  0.312400  0.974000  1
  H  H123  1  0.087700  0.312400  0.474000  1
  H  H124  1  0.587700  0.687600  0.026000  1
  H  H125  1  0.950100  0.812600  0.535800  1
  H  H126  1  0.450100  0.187400  0.964200  1
  H  H127  1  0.049900  0.187400  0.464200  1
  H  H128  1  0.549900  0.812600  0.035800  1
  H  H129  1  0.744400  0.769200  0.508800  1
  H  H130  1  0.244400  0.230800  0.991200  1
  H  H131  1  0.255600  0.230800  0.491200  1
  H  H132  1  0.755600  0.769200  0.008800  1
  H  H133  1  0.691900  0.498500  0.343900  1
  H  H134  1  0.191900  0.501500  0.156100  1
  H  H135  1  0.308100  0.501500  0.656100  1
  H  H136  1  0.808100  0.498500  0.843900  1
  H  H137  1  0.612700  0.432400  0.347500  1
  H  H138  1  0.112700  0.567600  0.152500  1
  H  H139  1  0.387300  0.567600  0.652500  1
  H  H140  1  0.887300  0.432400  0.847500  1
  H  H141  1  0.581100  0.412400  0.404000  1
  H  H142  1  0.081100  0.587600  0.096000  1
  H  H143  1  0.418900  0.587600  0.596000  1
  H  H144  1  0.918900  0.412400  0.904000  1
  H  H145  1  0.582000  0.452700  0.453700  1
  H  H146  1  0.082000  0.547300  0.046300  1
  H  H147  1  0.418000  0.547300  0.546300  1
  H  H148  1  0.918000  0.452700  0.953700  1
  H  H149  1  0.661900  0.576000  0.406500  1
  H  H150  1  0.161900  0.424000  0.093500  1
  H  H151  1  0.338100  0.424000  0.593500  1
  H  H152  1  0.838100  0.576000  0.906500  1
  H  H153  1  0.735100  0.557700  0.425400  1
  H  H154  1  0.235100  0.442300  0.074600  1
  H  H155  1  0.264900  0.442300  0.574600  1
  H  H156  1  0.764900  0.557700  0.925400  1
  H  H157  1  0.666400  0.643200  0.189300  1
  H  H158  1  0.166400  0.356800  0.310700  1
  H  H159  1  0.333600  0.356800  0.810700  1
  H  H160  1  0.833600  0.643200  0.689300  1
  H  H161  1  0.601300  0.615200  0.136700  1
  H  H162  1  0.101300  0.384800  0.363300  1
  H  H163  1  0.398700  0.384800  0.863300  1
  H  H164  1  0.898700  0.615200  0.636700  1
  H  H165  1  0.550500  0.659800  0.100300  1
  H  H166  1  0.050500  0.340200  0.399700  1
  H  H167  1  0.449500  0.340200  0.899700  1
  H  H168  1  0.949500  0.659800  0.600300  1
  H  H169  1  0.596100  0.727700  0.099200  1
  H  H170  1  0.096100  0.272300  0.400800  1
  H  H171  1  0.403900  0.272300  0.900800  1
  H  H172  1  0.903900  0.727700  0.599200  1
  H  H173  1  0.683200  0.743400  0.216000  1
  H  H174  1  0.183200  0.256600  0.284000  1
  H  H175  1  0.316800  0.256600  0.784000  1
  H  H176  1  0.816800  0.743400  0.716000  1
  H  H177  1  0.762600  0.739300  0.195300  1
  H  H178  1  0.262600  0.260700  0.304700  1
  H  H179  1  0.237400  0.260700  0.804700  1
  H  H180  1  0.737400  0.739300  0.695300  1
  H  H181  1  0.957700  0.482300  0.274900  1
  H  H182  1  0.457700  0.517700  0.225100  1
  H  H183  1  0.042300  0.517700  0.725100  1
  H  H184  1  0.542300  0.482300  0.774900  1
  H  H185  1  0.949000  0.418500  0.256300  1
  H  H186  1  0.449000  0.581500  0.243700  1
  H  H187  1  0.051000  0.581500  0.743700  1
  H  H188  1  0.551000  0.418500  0.756300  1
  H  H189  1  0.054800  0.387800  0.229600  1
  H  H190  1  0.554800  0.612200  0.270400  1
  H  H191  1  0.945200  0.612200  0.770400  1
  H  H192  1  0.445200  0.387800  0.729600  1
  H  H193  1  0.178100  0.419200  0.252800  1
  H  H194  1  0.678100  0.580800  0.247200  1
  H  H195  1  0.821900  0.580800  0.747200  1
  H  H196  1  0.321900  0.419200  0.752800  1
  H  H197  1  0.102000  0.523600  0.330000  1
  H  H198  1  0.602000  0.476400  0.170000  1
  H  H199  1  0.898000  0.476400  0.670000  1
  H  H200  1  0.398000  0.523600  0.830000  1
  H  H201  1  0.116300  0.543500  0.291300  1
  H  H202  1  0.616300  0.456500  0.208700  1
  H  H203  1  0.883700  0.456500  0.708700  1
  H  H204  1  0.383700  0.543500  0.791300  1
  H  H205  1  0.715300  0.651500  0.295100  1
  H  H206  1  0.215300  0.348500  0.204900  1
  H  H207  1  0.284700  0.348500  0.704900  1
  H  H208  1  0.784700  0.651500  0.795100  1
  H  H209  1  0.911700  0.620600  0.238000  1
  H  H210  1  0.411700  0.379400  0.262000  1
  H  H211  1  0.088300  0.379400  0.762000  1
  H  H212  1  0.588300  0.620600  0.738000  1
  H  H213  1  0.859700  0.557700  0.325800  1
  H  H214  1  0.359700  0.442300  0.174200  1
  H  H215  1  0.140300  0.442300  0.674200  1
  H  H216  1  0.640300  0.557700  0.825800  1
  H  H217  1  0.456100  0.691000  0.454900  1
  H  H218  1  0.956100  0.309000  0.045100  1
  H  H219  1  0.543900  0.309000  0.545100  1
  H  H220  1  0.043900  0.691000  0.954900  1
  H  H221  1  0.561500  0.660400  0.483800  1
  H  H222  1  0.061500  0.339600  0.016200  1
  H  H223  1  0.438500  0.339600  0.516200  1
  H  H224  1  0.938500  0.660400  0.983800  1
  H  H225  1  0.562800  0.653400  0.545800  1
  H  H226  1  0.062800  0.346600  0.954200  1
  H  H227  1  0.437200  0.346600  0.454200  1
  H  H228  1  0.937200  0.653400  0.045800  1
  H  H229  1  0.462400  0.676200  0.580600  1
  H  H230  1  0.962400  0.323800  0.919400  1
  H  H231  1  0.537600  0.323800  0.419400  1
  H  H232  1  0.037600  0.676200  0.080600  1
  H  H233  1  0.281100  0.717800  0.499500  1
  H  H234  1  0.781100  0.282200  0.000500  1
  H  H235  1  0.718900  0.282200  0.500500  1
  H  H236  1  0.218900  0.717800  0.999500  1
  H  H237  1  0.332800  0.757100  0.493000  1
  H  H238  1  0.832800  0.242900  0.007000  1
  H  H239  1  0.667200  0.242900  0.507000  1
  H  H240  1  0.167200  0.757100  0.993000  1
  H  H241  1  0.434400  0.583000  0.349300  1
  H  H242  1  0.934400  0.417000  0.150700  1
  H  H243  1  0.565600  0.417000  0.650700  1
  H  H244  1  0.065600  0.583000  0.849300  1
  H  H245  1  0.535600  0.538300  0.342400  1
  H  H246  1  0.035600  0.461700  0.157600  1
  H  H247  1  0.464400  0.461700  0.657600  1
  H  H248  1  0.964400  0.538300  0.842400  1
  H  H249  1  0.515600  0.479300  0.308000  1
  H  H250  1  0.015600  0.520700  0.192000  1
  H  H251  1  0.484400  0.520700  0.692000  1
  H  H252  1  0.984400  0.479300  0.808000  1
  H  H253  1  0.396200  0.454000  0.300800  1
  H  H254  1  0.896200  0.546000  0.199200  1
  H  H255  1  0.603800  0.546000  0.699200  1
  H  H256  1  0.103800  0.454000  0.800800  1
  H  H257  1  0.260300  0.580900  0.298800  1
  H  H258  1  0.760300  0.419100  0.201200  1
  H  H259  1  0.739700  0.419100  0.701200  1
  H  H260  1  0.239700  0.580900  0.798800  1
  H  H261  1  0.243700  0.567100  0.339500  1
  H  H262  1  0.743700  0.432900  0.160500  1
  H  H263  1  0.756300  0.432900  0.660500  1
  H  H264  1  0.256300  0.567100  0.839500  1
  H  H265  1  0.482700  0.854800  0.293100  1
  H  H266  1  0.982700  0.145200  0.206900  1
  H  H267  1  0.517300  0.145200  0.706900  1
  H  H268  1  0.017300  0.854800  0.793100  1
  H  H269  1  0.587100  0.878200  0.272300  1
  H  H270  1  0.087100  0.121800  0.227700  1
  H  H271  1  0.412900  0.121800  0.727700  1
  H  H272  1  0.912900  0.878200  0.772300  1
  H  H273  1  0.593000  0.929100  0.228100  1
  H  H274  1  0.093000  0.070900  0.271900  1
  H  H275  1  0.407000  0.070900  0.771900  1
  H  H276  1  0.907000  0.929100  0.728100  1
  H  H277  1  0.466700  0.957200  0.211000  1
  H  H278  1  0.966700  0.042800  0.289000  1
  H  H279  1  0.533300  0.042800  0.789000  1
  H  H280  1  0.033300  0.957200  0.711000  1
  H  H281  1  0.309800  0.859500  0.255800  1
  H  H282  1  0.809800  0.140500  0.244200  1
  H  H283  1  0.690200  0.140500  0.744200  1
  H  H284  1  0.190200  0.859500  0.755800  1
  H  H285  1  0.308300  0.893700  0.288000  1
  H  H286  1  0.808300  0.106300  0.212000  1
  H  H287  1  0.691700  0.106300  0.712000  1
  H  H288  1  0.191700  0.893700  0.788000  1
  H  H289  1  0.336100  0.676900  0.385200  1
  H  H290  1  0.836100  0.323100  0.114800  1
  H  H291  1  0.663900  0.323100  0.614800  1
  H  H292  1  0.163900  0.676900  0.885200  1
  H  H293  1  0.342200  0.718300  0.281300  1
  H  H294  1  0.842200  0.281700  0.218700  1
  H  H295  1  0.657800  0.281700  0.718700  1
  H  H296  1  0.157800  0.718300  0.781300  1
  H  H297  1  0.350900  0.800900  0.368700  1
  H  H298  1  0.850900  0.199100  0.131300  1
  H  H299  1  0.649100  0.199100  0.631300  1
  H  H300  1  0.149100  0.800900  0.868700  1
  H  H301  1  0.787200  0.056500  0.402900  1
  H  H302  1  0.287200  0.943500  0.097100  1
  H  H303  1  0.212800  0.943500  0.597100  1
  H  H304  1  0.712800  0.056500  0.902900  1
  H  H305  1  0.701400  0.114300  0.400600  1
  H  H306  1  0.201400  0.885700  0.099400  1
  H  H307  1  0.298600  0.885700  0.599400  1
  H  H308  1  0.798600  0.114300  0.900600  1
  H  H309  1  0.597700  0.113700  0.442900  1
  H  H310  1  0.097700  0.886300  0.057100  1
  H  H311  1  0.402300  0.886300  0.557100  1
  H  H312  1  0.902300  0.113700  0.942900  1
  H  H313  1  0.582000  0.058900  0.481000  1
  H  H314  1  0.082000  0.941100  0.019000  1
  H  H315  1  0.418000  0.941100  0.519000  1
  H  H316  1  0.918000  0.058900  0.981000  1
  H  H317  1  0.826300  0.995500  0.461100  1
  H  H318  1  0.326300  0.004500  0.038900  1
  H  H319  1  0.173700  0.004500  0.538900  1
  H  H320  1  0.673700  0.995500  0.961100  1
  H  H321  1  0.759100  0.964900  0.450300  1
  H  H322  1  0.259100  0.035100  0.049700  1
  H  H323  1  0.240900  0.035100  0.549700  1
  H  H324  1  0.740900  0.964900  0.950300  1
  H  H325  1  0.025900  0.981700  0.226100  1
  H  H326  1  0.525900  0.018300  0.273900  1
  H  H327  1  0.974100  0.018300  0.773900  1
  H  H328  1  0.474100  0.981700  0.726100  1
  H  H329  1  0.035200  0.016000  0.171700  1
  H  H330  1  0.535200  0.984000  0.328300  1
  H  H331  1  0.964800  0.984000  0.828300  1
  H  H332  1  0.464800  0.016000  0.671700  1
  H  H333  1  0.130300  0.010600  0.135600  1
  H  H334  1  0.630300  0.989400  0.364400  1
  H  H335  1  0.869700  0.989400  0.864400  1
  H  H336  1  0.369700  0.010600  0.635600  1
  H  H337  1  0.255200  0.003700  0.167700  1
  H  H338  1  0.755200  0.996300  0.332300  1
  H  H339  1  0.744800  0.996300  0.832300  1
  H  H340  1  0.244800  0.003700  0.667700  1
  H  H341  1  0.164400  0.965100  0.280400  1
  H  H342  1  0.664400  0.034900  0.219600  1
  H  H343  1  0.835600  0.034900  0.719600  1
  H  H344  1  0.335600  0.965100  0.780400  1
  H  H345  1  0.179800  0.920400  0.262500  1
  H  H346  1  0.679800  0.079600  0.237500  1
  H  H347  1  0.820200  0.079600  0.737500  1
  H  H348  1  0.320200  0.920400  0.762500  1
  H  H349  1  0.805300  0.923400  0.188800  1
  H  H350  1  0.305300  0.076600  0.311200  1
  H  H351  1  0.194700  0.076600  0.811200  1
  H  H352  1  0.694700  0.923400  0.688800  1
  H  H353  1  0.757500  0.961300  0.135500  1
  H  H354  1  0.257500  0.038700  0.364500  1
  H  H355  1  0.242500  0.038700  0.864500  1
  H  H356  1  0.742500  0.961300  0.635500  1
  H  H357  1  0.668000  0.927600  0.098000  1
  H  H358  1  0.168000  0.072400  0.402000  1
  H  H359  1  0.332000  0.072400  0.902000  1
  H  H360  1  0.832000  0.927600  0.598000  1
  H  H361  1  0.664300  0.858800  0.093900  1
  H  H362  1  0.164300  0.141200  0.406100  1
  H  H363  1  0.335700  0.141200  0.906100  1
  H  H364  1  0.835700  0.858800  0.593900  1
  H  H365  1  0.809800  0.821400  0.184900  1
  H  H366  1  0.309800  0.178600  0.315100  1
  H  H367  1  0.190200  0.178600  0.815100  1
  H  H368  1  0.690200  0.821400  0.684900  1
  H  H369  1  0.734300  0.829700  0.207700  1
  H  H370  1  0.234300  0.170300  0.292300  1
  H  H371  1  0.265700  0.170300  0.792300  1
  H  H372  1  0.765700  0.829700  0.707700  1
  H  H373  1  0.940800  0.970800  0.358900  1
  H  H374  1  0.440800  0.029200  0.141100  1
  H  H375  1  0.059200  0.029200  0.641100  1
  H  H376  1  0.559200  0.970800  0.858900  1
  H  H377  1  0.931100  0.912800  0.260700  1
  H  H378  1  0.431100  0.087200  0.239300  1
  H  H379  1  0.068900  0.087200  0.739300  1
  H  H380  1  0.568900  0.912800  0.760700  1
  H  H381  1  0.751600  0.905700  0.328500  1
  H  H382  1  0.251600  0.094300  0.171500  1
  H  H383  1  0.248400  0.094300  0.671500  1
  H  H384  1  0.748400  0.905700  0.828500  1
  Pd  Pd385  1  0.646620  0.532200  0.481230  1
  Pd  Pd386  1  0.146620  0.467800  0.018770  1
  Pd  Pd387  1  0.353380  0.467800  0.518770  1
  Pd  Pd388  1  0.853380  0.532200  0.981230  1
  Pd  Pd389  1  0.317940  0.724040  0.576030  1
  Pd  Pd390  1  0.817940  0.275960  0.923970  1
  Pd  Pd391  1  0.682060  0.275960  0.423970  1
  Pd  Pd392  1  0.182060  0.724040  0.076030  1
  Pd  Pd393  1  0.647560  0.980930  0.499570  1
  Pd  Pd394  1  0.147560  0.019070  0.000430  1
  Pd  Pd395  1  0.352440  0.019070  0.500430  1
  Pd  Pd396  1  0.852440  0.980930  0.999570  1
  Pd  Pd397  1  0.685770  0.788360  0.145310  1
  Pd  Pd398  1  0.185770  0.211640  0.354690  1
  Pd  Pd399  1  0.314230  0.211640  0.854690  1
  Pd  Pd400  1  0.814230  0.788360  0.645310  1
  Pd  Pd401  1  0.239130  0.489020  0.289600  1
  Pd  Pd402  1  0.739130  0.510980  0.210400  1
  Pd  Pd403  1  0.760870  0.510980  0.710400  1
  Pd  Pd404  1  0.260870  0.489020  0.789600  1
  Pd  Pd405  1  0.306140  0.943780  0.225540  1
  Pd  Pd406  1  0.806140  0.056220  0.274460  1
  Pd  Pd407  1  0.693860  0.056220  0.774460  1
  Pd  Pd408  1  0.193860  0.943780  0.725540  1
  C  C409  1  0.697300  0.599200  0.537000  1
  C  C410  1  0.197300  0.400800  0.963000  1
  C  C411  1  0.302700  0.400800  0.463000  1
  C  C412  1  0.802700  0.599200  0.037000  1
  C  C413  1  0.699100  0.618500  0.570000  1
  C  C414  1  0.199100  0.381500  0.930000  1
  C  C415  1  0.300900  0.381500  0.430000  1
  C  C416  1  0.800900  0.618500  0.070000  1
  C  C417  1  0.661700  0.602400  0.596700  1
  C  C418  1  0.161700  0.397600  0.903300  1
  C  C419  1  0.338300  0.397600  0.403300  1
  C  C420  1  0.838300  0.602400  0.096700  1
  C  C421  1  0.616000  0.568900  0.591600  1
  C  C422  1  0.116000  0.431100  0.908400  1
  C  C423  1  0.384000  0.431100  0.408400  1
  C  C424  1  0.884000  0.568900  0.091600  1
  C  C425  1  0.612500  0.550100  0.558700  1
  C  C426  1  0.112500  0.449900  0.941300  1
  C  C427  1  0.387500  0.449900  0.441300  1
  C  C428  1  0.887500  0.550100  0.058700  1
  C  C429  1  0.744400  0.612200  0.501500  1
  C  C430  1  0.244400  0.387800  0.998500  1
  C  C431  1  0.255600  0.387800  0.498500  1
  C  C432  1  0.755600  0.612200  0.001500  1
  C  C433  1  0.766100  0.688800  0.508200  1
  C  C434  1  0.266100  0.311200  0.991800  1
  C  C435  1  0.233900  0.311200  0.491800  1
  C  C436  1  0.733900  0.688800  0.008200  1
  C  C437  1  0.171400  0.761800  0.602900  1
  C  C438  1  0.671400  0.238200  0.897100  1
  C  C439  1  0.828600  0.238200  0.397100  1
  C  C440  1  0.328600  0.761800  0.102900  1
  C  C441  1  0.117400  0.774500  0.627300  1
  C  C442  1  0.617400  0.225500  0.872700  1
  C  C443  1  0.882600  0.225500  0.372700  1
  C  C444  1  0.382600  0.774500  0.127300  1
  C  C445  1  0.141200  0.777700  0.662800  1
  C  C446  1  0.641200  0.222300  0.837200  1
  C  C447  1  0.858800  0.222300  0.337200  1
  C  C448  1  0.358800  0.777700  0.162800  1
  C  C449  1  0.209700  0.764300  0.674800  1
  C  C450  1  0.709700  0.235700  0.825200  1
  C  C451  1  0.790300  0.235700  0.325200  1
  C  C452  1  0.290300  0.764300  0.174800  1
  C  C453  1  0.257000  0.747000  0.648800  1
  C  C454  1  0.757000  0.253000  0.851200  1
  C  C455  1  0.743000  0.253000  0.351200  1
  C  C456  1  0.243000  0.747000  0.148800  1
  C  C457  1  0.157400  0.757200  0.559500  1
  C  C458  1  0.657400  0.242800  0.940500  1
  C  C459  1  0.842600  0.242800  0.440500  1
  C  C460  1  0.342600  0.757200  0.059500  1
  C  C461  1  0.024400  0.735200  0.549500  1
  C  C462  1  0.524400  0.264800  0.950500  1
  C  C463  1  0.975600  0.264800  0.450500  1
  C  C464  1  0.475600  0.735200  0.049500  1
  C  C465  1  0.666100  0.898800  0.537800  1
  C  C466  1  0.166100  0.101200  0.962200  1
  C  C467  1  0.333900  0.101200  0.462200  1
  C  C468  1  0.833900  0.898800  0.037800  1
  C  C469  1  0.653300  0.869900  0.563600  1
  C  C470  1  0.153300  0.130100  0.936400  1
  C  C471  1  0.346700  0.130100  0.436400  1
  C  C472  1  0.846700  0.869900  0.063600  1
  C  C473  1  0.598600  0.876900  0.593300  1
  C  C474  1  0.098600  0.123100  0.906700  1
  C  C475  1  0.401400  0.123100  0.406700  1
  C  C476  1  0.901400  0.876900  0.093300  1
  C  C477  1  0.564000  0.921000  0.593900  1
  C  C478  1  0.064000  0.079000  0.906100  1
  C  C479  1  0.436000  0.079000  0.406100  1
  C  C480  1  0.936000  0.921000  0.093900  1
  C  C481  1  0.574700  0.944800  0.563400  1
  C  C482  1  0.074700  0.055200  0.936600  1
  C  C483  1  0.425300  0.055200  0.436600  1
  C  C484  1  0.925300  0.944800  0.063400  1
  C  C485  1  0.721600  0.891500  0.504600  1
  C  C486  1  0.221600  0.108500  0.995400  1
  C  C487  1  0.278400  0.108500  0.495400  1
  C  C488  1  0.778400  0.891500  0.004600  1
  C  C489  1  0.819600  0.840700  0.519400  1
  C  C490  1  0.319600  0.159300  0.980600  1
  C  C491  1  0.180400  0.159300  0.480600  1
  C  C492  1  0.680400  0.840700  0.019400  1
  C  C493  1  0.824200  0.723100  0.513600  1
  C  C494  1  0.324200  0.276900  0.986400  1
  C  C495  1  0.175800  0.276900  0.486400  1
  C  C496  1  0.675800  0.723100  0.013600  1
  C  C497  1  0.896000  0.715100  0.524100  1
  C  C498  1  0.396000  0.284900  0.975900  1
  C  C499  1  0.104000  0.284900  0.475900  1
  C  C500  1  0.604000  0.715100  0.024100  1
  C  C501  1  0.946900  0.748300  0.532100  1
  C  C502  1  0.446900  0.251700  0.967900  1
  C  C503  1  0.053100  0.251700  0.467900  1
  C  C504  1  0.553100  0.748300  0.032100  1
  C  C505  1  0.917700  0.790300  0.529500  1
  C  C506  1  0.417700  0.209700  0.970500  1
  C  C507  1  0.082300  0.209700  0.470500  1
  C  C508  1  0.582300  0.790300  0.029500  1
  C  C509  1  0.846800  0.798600  0.518600  1
  C  C510  1  0.346800  0.201400  0.981400  1
  C  C511  1  0.153200  0.201400  0.481400  1
  C  C512  1  0.653200  0.798600  0.018600  1
  C  C513  1  0.796500  0.764400  0.513000  1
  C  C514  1  0.296500  0.235600  0.987000  1
  C  C515  1  0.203500  0.235600  0.487000  1
  C  C516  1  0.703500  0.764400  0.013000  1
  C  C517  1  0.669600  0.512600  0.399200  1
  C  C518  1  0.169600  0.487400  0.100800  1
  C  C519  1  0.330400  0.487400  0.600800  1
  C  C520  1  0.830400  0.512600  0.899200  1
  C  C521  1  0.668400  0.489900  0.365600  1
  C  C522  1  0.168400  0.510100  0.134400  1
  C  C523  1  0.331600  0.510100  0.634400  1
  C  C524  1  0.831600  0.489900  0.865600  1
  C  C525  1  0.623700  0.449300  0.368500  1
  C  C526  1  0.123700  0.550700  0.131500  1
  C  C527  1  0.376300  0.550700  0.631500  1
  C  C528  1  0.876300  0.449300  0.868500  1
  C  C529  1  0.601300  0.439100  0.402000  1
  C  C530  1  0.101300  0.560900  0.098000  1
  C  C531  1  0.398700  0.560900  0.598000  1
  C  C532  1  0.898700  0.439100  0.902000  1
  C  C533  1  0.604200  0.461600  0.431800  1
  C  C534  1  0.104200  0.538400  0.068200  1
  C  C535  1  0.395800  0.538400  0.568200  1
  C  C536  1  0.895800  0.461600  0.931800  1
  C  C537  1  0.703500  0.556000  0.403200  1
  C  C538  1  0.203500  0.444000  0.096800  1
  C  C539  1  0.296500  0.444000  0.596800  1
  C  C540  1  0.796500  0.556000  0.903200  1
  C  C541  1  0.726700  0.589200  0.345200  1
  C  C542  1  0.226700  0.410800  0.154800  1
  C  C543  1  0.273300  0.410800  0.654800  1
  C  C544  1  0.773300  0.589200  0.845200  1
  C  C545  1  0.681800  0.703000  0.173200  1
  C  C546  1  0.181800  0.297000  0.326800  1
  C  C547  1  0.318200  0.297000  0.826800  1
  C  C548  1  0.818200  0.703000  0.673200  1
  C  C549  1  0.654600  0.660800  0.170100  1
  C  C550  1  0.154600  0.339200  0.329900  1
  C  C551  1  0.345400  0.339200  0.829900  1
  C  C552  1  0.845400  0.660800  0.670100  1
  C  C553  1  0.611000  0.643700  0.139700  1
  C  C554  1  0.111000  0.356300  0.360300  1
  C  C555  1  0.389000  0.356300  0.860300  1
  C  C556  1  0.889000  0.643700  0.639700  1
  C  C557  1  0.586800  0.668700  0.117900  1
  C  C558  1  0.086800  0.331300  0.382100  1
  C  C559  1  0.413200  0.331300  0.882100  1
  C  C560  1  0.913200  0.668700  0.617900  1
  C  C561  1  0.611400  0.710400  0.118200  1
  C  C562  1  0.111400  0.289600  0.381800  1
  C  C563  1  0.388600  0.289600  0.881800  1
  C  C564  1  0.888600  0.710400  0.618200  1
  C  C565  1  0.718800  0.723700  0.204100  1
  C  C566  1  0.218800  0.276300  0.295900  1
  C  C567  1  0.281200  0.276300  0.795900  1
  C  C568  1  0.781200  0.723700  0.704100  1
  C  C569  1  0.809300  0.677300  0.235700  1
  C  C570  1  0.309300  0.322700  0.264300  1
  C  C571  1  0.190700  0.322700  0.764300  1
  C  C572  1  0.690700  0.677300  0.735700  1
  C  C573  1  0.069300  0.485300  0.286200  1
  C  C574  1  0.569300  0.514700  0.213800  1
  C  C575  1  0.930700  0.514700  0.713800  1
  C  C576  1  0.430700  0.485300  0.786200  1
  C  C577  1  0.002700  0.466600  0.272700  1
  C  C578  1  0.502700  0.533400  0.227300  1
  C  C579  1  0.997300  0.533400  0.727300  1
  C  C580  1  0.497300  0.466600  0.772700  1
  C  C581  1  0.997000  0.431200  0.258000  1
  C  C582  1  0.497000  0.568800  0.242000  1
  C  C583  1  0.003000  0.568800  0.742000  1
  C  C584  1  0.503000  0.431200  0.758000  1
  C  C585  1  0.056900  0.411800  0.245100  1
  C  C586  1  0.556900  0.588200  0.254900  1
  C  C587  1  0.943100  0.588200  0.754900  1
  C  C588  1  0.443100  0.411800  0.745100  1
  C  C589  1  0.132100  0.432900  0.258200  1
  C  C590  1  0.632100  0.567100  0.241800  1
  C  C591  1  0.867900  0.567100  0.741800  1
  C  C592  1  0.367900  0.432900  0.758200  1
  C  C593  1  0.080200  0.527200  0.305400  1
  C  C594  1  0.580200  0.472800  0.194600  1
  C  C595  1  0.919800  0.472800  0.694600  1
  C  C596  1  0.419800  0.527200  0.805400  1
  C  C597  1  0.981700  0.569500  0.281600  1
  C  C598  1  0.481700  0.430500  0.218400  1
  C  C599  1  0.018300  0.430500  0.718400  1
  C  C600  1  0.518300  0.569500  0.781600  1
  C  C601  1  0.780500  0.600200  0.314700  1
  C  C602  1  0.280500  0.399800  0.185300  1
  C  C603  1  0.219500  0.399800  0.685300  1
  C  C604  1  0.719500  0.600200  0.814700  1
  C  C605  1  0.760700  0.636400  0.292400  1
  C  C606  1  0.260700  0.363600  0.207600  1
  C  C607  1  0.239300  0.363600  0.707600  1
  C  C608  1  0.739300  0.636400  0.792400  1
  C  C609  1  0.821900  0.646000  0.264800  1
  C  C610  1  0.321900  0.354000  0.235200  1
  C  C611  1  0.178100  0.354000  0.735200  1
  C  C612  1  0.678100  0.646000  0.764800  1
  C  C613  1  0.884200  0.619800  0.260200  1
  C  C614  1  0.384200  0.380200  0.239800  1
  C  C615  1  0.115800  0.380200  0.739800  1
  C  C616  1  0.615800  0.619800  0.760200  1
  C  C617  1  0.908400  0.592100  0.286700  1
  C  C618  1  0.408400  0.407900  0.213300  1
  C  C619  1  0.091600  0.407900  0.713300  1
  C  C620  1  0.591600  0.592100  0.786700  1
  C  C621  1  0.850400  0.580500  0.311000  1
  C  C622  1  0.350400  0.419500  0.189000  1
  C  C623  1  0.149600  0.419500  0.689000  1
  C  C624  1  0.649600  0.580500  0.811000  1
  C  C625  1  0.395500  0.705200  0.504000  1
  C  C626  1  0.895500  0.294800  0.996000  1
  C  C627  1  0.604500  0.294800  0.496000  1
  C  C628  1  0.104500  0.705200  0.004000  1
  C  C629  1  0.457600  0.688900  0.480700  1
  C  C630  1  0.957600  0.311100  0.019300  1
  C  C631  1  0.542400  0.311100  0.519300  1
  C  C632  1  0.042400  0.688900  0.980700  1
  C  C633  1  0.520100  0.670100  0.498100  1
  C  C634  1  0.020100  0.329900  0.001900  1
  C  C635  1  0.479900  0.329900  0.501900  1
  C  C636  1  0.979900  0.670100  0.998100  1
  C  C637  1  0.521100  0.665900  0.534400  1
  C  C638  1  0.021100  0.334100  0.965600  1
  C  C639  1  0.478900  0.334100  0.465600  1
  C  C640  1  0.978900  0.665900  0.034400  1
  C  C641  1  0.460600  0.680000  0.555000  1
  C  C642  1  0.960600  0.320000  0.945000  1
  C  C643  1  0.539400  0.320000  0.445000  1
  C  C644  1  0.039400  0.680000  0.055000  1
  C  C645  1  0.327900  0.727200  0.487600  1
  C  C646  1  0.827900  0.272800  0.012400  1
  C  C647  1  0.672100  0.272800  0.512400  1
  C  C648  1  0.172100  0.727200  0.987600  1
  C  C649  1  0.340800  0.751200  0.425000  1
  C  C650  1  0.840800  0.248800  0.075000  1
  C  C651  1  0.659200  0.248800  0.575000  1
  C  C652  1  0.159200  0.751200  0.925000  1
  C  C653  1  0.358100  0.545300  0.320600  1
  C  C654  1  0.858100  0.454700  0.179400  1
  C  C655  1  0.641900  0.454700  0.679400  1
  C  C656  1  0.141900  0.545300  0.820600  1
  C  C657  1  0.429000  0.557300  0.336500  1
  C  C658  1  0.929000  0.442700  0.163500  1
  C  C659  1  0.571000  0.442700  0.663500  1
  C  C660  1  0.071000  0.557300  0.836500  1
  C  C661  1  0.487200  0.531600  0.332800  1
  C  C662  1  0.987200  0.468400  0.167200  1
  C  C663  1  0.512800  0.468400  0.667200  1
  C  C664  1  0.012800  0.531600  0.832800  1
  C  C665  1  0.473800  0.495900  0.315100  1
  C  C666  1  0.973800  0.504100  0.184900  1
  C  C667  1  0.526200  0.504100  0.684900  1
  C  C668  1  0.026200  0.495900  0.815100  1
  C  C669  1  0.403900  0.482200  0.306600  1
  C  C670  1  0.903900  0.517800  0.193400  1
  C  C671  1  0.596100  0.517800  0.693400  1
  C  C672  1  0.096100  0.482200  0.806600  1
  C  C673  1  0.282600  0.578600  0.323500  1
  C  C674  1  0.782600  0.421400  0.176500  1
  C  C675  1  0.717400  0.421400  0.676500  1
  C  C676  1  0.217400  0.578600  0.823500  1
  C  C677  1  0.328600  0.647200  0.316800  1
  C  C678  1  0.828600  0.352800  0.183200  1
  C  C679  1  0.671400  0.352800  0.683200  1
  C  C680  1  0.171400  0.647200  0.816800  1
  C  C681  1  0.409900  0.886900  0.264400  1
  C  C682  1  0.909900  0.113100  0.235600  1
  C  C683  1  0.590100  0.113100  0.735600  1
  C  C684  1  0.090100  0.886900  0.764400  1
  C  C685  1  0.479800  0.875000  0.275300  1
  C  C686  1  0.979800  0.125000  0.224700  1
  C  C687  1  0.520200  0.125000  0.724700  1
  C  C688  1  0.020200  0.875000  0.775300  1
  C  C689  1  0.541500  0.889200  0.263200  1
  C  C690  1  0.041500  0.110800  0.236800  1
  C  C691  1  0.458500  0.110800  0.736800  1
  C  C692  1  0.958500  0.889200  0.763200  1
  C  C693  1  0.546800  0.919400  0.237600  1
  C  C694  1  0.046800  0.080600  0.262400  1
  C  C695  1  0.453200  0.080600  0.762400  1
  C  C696  1  0.953200  0.919400  0.737600  1
  C  C697  1  0.471200  0.935000  0.226900  1
  C  C698  1  0.971200  0.065000  0.273100  1
  C  C699  1  0.528800  0.065000  0.773100  1
  C  C700  1  0.028800  0.935000  0.726900  1
  C  C701  1  0.337800  0.870300  0.277500  1
  C  C702  1  0.837800  0.129700  0.222500  1
  C  C703  1  0.662200  0.129700  0.722500  1
  C  C704  1  0.162200  0.870300  0.777500  1
  C  C705  1  0.345300  0.799300  0.294500  1
  C  C706  1  0.845300  0.200700  0.205500  1
  C  C707  1  0.654700  0.200700  0.705500  1
  C  C708  1  0.154700  0.799300  0.794500  1
  C  C709  1  0.339900  0.740100  0.383500  1
  C  C710  1  0.839900  0.259900  0.116500  1
  C  C711  1  0.660100  0.259900  0.616500  1
  C  C712  1  0.160100  0.740100  0.883500  1
  C  C713  1  0.336700  0.698900  0.369000  1
  C  C714  1  0.836700  0.301100  0.131000  1
  C  C715  1  0.663300  0.301100  0.631000  1
  C  C716  1  0.163300  0.698900  0.869000  1
  C  C717  1  0.334300  0.690400  0.331000  1
  C  C718  1  0.834300  0.309600  0.169000  1
  C  C719  1  0.665700  0.309600  0.669000  1
  C  C720  1  0.165700  0.690400  0.831000  1
  C  C721  1  0.339200  0.723900  0.306900  1
  C  C722  1  0.839200  0.276100  0.193100  1
  C  C723  1  0.660800  0.276100  0.693100  1
  C  C724  1  0.160800  0.723900  0.806900  1
  C  C725  1  0.339800  0.763900  0.320000  1
  C  C726  1  0.839800  0.236100  0.180000  1
  C  C727  1  0.660200  0.236100  0.680000  1
  C  C728  1  0.160200  0.763900  0.820000  1
  C  C729  1  0.344700  0.773500  0.359500  1
  C  C730  1  0.844700  0.226500  0.140500  1
  C  C731  1  0.655300  0.226500  0.640500  1
  C  C732  1  0.155300  0.773500  0.859500  1
  C  C733  1  0.731700  0.026300  0.441100  1
  C  C734  1  0.231700  0.973700  0.058900  1
  C  C735  1  0.268300  0.973700  0.558900  1
  C  C736  1  0.768300  0.026300  0.941100  1
  C  C737  1  0.744200  0.057600  0.418300  1
  C  C738  1  0.244200  0.942400  0.081700  1
  C  C739  1  0.255800  0.942400  0.581700  1
  C  C740  1  0.755800  0.057600  0.918300  1
  C  C741  1  0.693800  0.092600  0.416800  1
  C  C742  1  0.193800  0.907400  0.083200  1
  C  C743  1  0.306200  0.907400  0.583200  1
  C  C744  1  0.806200  0.092600  0.916800  1
  C  C745  1  0.632400  0.091600  0.441600  1
  C  C746  1  0.132400  0.908400  0.058400  1
  C  C747  1  0.367600  0.908400  0.558400  1
  C  C748  1  0.867600  0.091600  0.941600  1
  C  C749  1  0.622600  0.058400  0.464100  1
  C  C750  1  0.122600  0.941600  0.035900  1
  C  C751  1  0.377400  0.941600  0.535900  1
  C  C752  1  0.877400  0.058400  0.964100  1
  C  C753  1  0.787400  0.989100  0.442300  1
  C  C754  1  0.287400  0.010900  0.057700  1
  C  C755  1  0.212600  0.010900  0.557700  1
  C  C756  1  0.712600  0.989100  0.942300  1
  C  C757  1  0.799200  0.949600  0.386800  1
  C  C758  1  0.299200  0.050400  0.113200  1
  C  C759  1  0.200800  0.050400  0.613200  1
  C  C760  1  0.700800  0.949600  0.886800  1
  C  C761  1  0.139000  0.959900  0.227600  1
  C  C762  1  0.639000  0.040100  0.272400  1
  C  C763  1  0.861000  0.040100  0.772400  1
  C  C764  1  0.361000  0.959900  0.727600  1
  C  C765  1  0.072300  0.981500  0.213200  1
  C  C766  1  0.572300  0.018500  0.286800  1
  C  C767  1  0.927700  0.018500  0.786800  1
  C  C768  1  0.427700  0.981500  0.713200  1
  C  C769  1  0.078700  0.002000  0.179700  1
  C  C770  1  0.578700  0.998000  0.320300  1
  C  C771  1  0.921300  0.998000  0.820300  1
  C  C772  1  0.421300  0.002000  0.679700  1
  C  C773  1  0.134000  0.003500  0.160400  1
  C  C774  1  0.634000  0.996500  0.339600  1
  C  C775  1  0.866000  0.996500  0.839600  1
  C  C776  1  0.366000  0.003500  0.660400  1
  C  C777  1  0.209500  0.993700  0.177400  1
  C  C778  1  0.709500  0.006300  0.322600  1
  C  C779  1  0.790500  0.006300  0.822600  1
  C  C780  1  0.290500  0.993700  0.677400  1
  C  C781  1  0.144100  0.943700  0.263200  1
  C  C782  1  0.644100  0.056300  0.236800  1
  C  C783  1  0.855900  0.056300  0.736800  1
  C  C784  1  0.355900  0.943700  0.763200  1
  C  C785  1  0.028900  0.951800  0.299700  1
  C  C786  1  0.528900  0.048200  0.200300  1
  C  C787  1  0.971100  0.048200  0.700300  1
  C  C788  1  0.471100  0.951800  0.799700  1
  C  C789  1  0.753800  0.869200  0.170700  1
  C  C790  1  0.253800  0.130800  0.329300  1
  C  C791  1  0.246200  0.130800  0.829300  1
  C  C792  1  0.746200  0.869200  0.670700  1
  C  C793  1  0.774500  0.910800  0.170400  1
  C  C794  1  0.274500  0.089200  0.329600  1
  C  C795  1  0.225500  0.089200  0.829600  1
  C  C796  1  0.725500  0.910800  0.670400  1
  C  C797  1  0.744400  0.933500  0.139000  1
  C  C798  1  0.244400  0.066500  0.361000  1
  C  C799  1  0.255600  0.066500  0.861000  1
  C  C800  1  0.755600  0.933500  0.639000  1
  C  C801  1  0.696100  0.912300  0.114800  1
  C  C802  1  0.196100  0.087700  0.385200  1
  C  C803  1  0.303900  0.087700  0.885200  1
  C  C804  1  0.803900  0.912300  0.614800  1
  C  C805  1  0.687600  0.873000  0.114000  1
  C  C806  1  0.187600  0.127000  0.386000  1
  C  C807  1  0.312400  0.127000  0.886000  1
  C  C808  1  0.812400  0.873000  0.614000  1
  C  C809  1  0.778700  0.843200  0.197000  1
  C  C810  1  0.278700  0.156800  0.303000  1
  C  C811  1  0.221300  0.156800  0.803000  1
  C  C812  1  0.721300  0.843200  0.697000  1
  C  C813  1  0.794200  0.877300  0.259900  1
  C  C814  1  0.294200  0.122700  0.240100  1
  C  C815  1  0.205800  0.122700  0.740100  1
  C  C816  1  0.705800  0.877300  0.759900  1
  C  C817  1  0.842900  0.938000  0.351300  1
  C  C818  1  0.342900  0.062000  0.148700  1
  C  C819  1  0.157100  0.062000  0.648700  1
  C  C820  1  0.657100  0.938000  0.851300  1
  C  C821  1  0.915300  0.952000  0.342800  1
  C  C822  1  0.415300  0.048000  0.157200  1
  C  C823  1  0.084700  0.048000  0.657200  1
  C  C824  1  0.584700  0.952000  0.842800  1
  C  C825  1  0.949800  0.937800  0.310100  1
  C  C826  1  0.449800  0.062200  0.189900  1
  C  C827  1  0.050200  0.062200  0.689900  1
  C  C828  1  0.550200  0.937800  0.810100  1
  C  C829  1  0.909400  0.916900  0.284200  1
  C  C830  1  0.409400  0.083100  0.215800  1
  C  C831  1  0.090600  0.083100  0.715800  1
  C  C832  1  0.590600  0.916900  0.784200  1
  C  C833  1  0.836000  0.900600  0.290400  1
  C  C834  1  0.336000  0.099400  0.209600  1
  C  C835  1  0.164000  0.099400  0.709600  1
  C  C836  1  0.664000  0.900600  0.790400  1
  C  C837  1  0.802200  0.913400  0.323800  1
  C  C838  1  0.302200  0.086600  0.176200  1
  C  C839  1  0.197800  0.086600  0.676200  1
  C  C840  1  0.697800  0.913400  0.823800  1
  I  I841  1  0.513570  0.558970  0.470140  1
  I  I842  1  0.013570  0.441030  0.029860  1
  I  I843  1  0.486430  0.441030  0.529860  1
  I  I844  1  0.986430  0.558970  0.970140  1
  I  I845  1  0.777770  0.501710  0.490860  1
  I  I846  1  0.277770  0.498290  0.009140  1
  I  I847  1  0.222230  0.498290  0.509140  1
  I  I848  1  0.722230  0.501710  0.990860  1
  I  I849  1  0.268810  0.652410  0.583630  1
  I  I850  1  0.768810  0.347590  0.916370  1
  I  I851  1  0.731190  0.347590  0.416370  1
  I  I852  1  0.231190  0.652410  0.083630  1
  I  I853  1  0.366990  0.796160  0.571110  1
  I  I854  1  0.866990  0.203840  0.928890  1
  I  I855  1  0.633010  0.203840  0.428890  1
  I  I856  1  0.133010  0.796160  0.071110  1
  I  I857  1  0.544300  0.951780  0.458040  1
  I  I858  1  0.044300  0.048220  0.041960  1
  I  I859  1  0.455700  0.048220  0.541960  1
  I  I860  1  0.955700  0.951780  0.958040  1
  I  I861  1  0.751870  0.007370  0.540220  1
  I  I862  1  0.251870  0.992630  0.959780  1
  I  I863  1  0.248130  0.992630  0.459780  1
  I  I864  1  0.748130  0.007370  0.040220  1
  I  I865  1  0.566130  0.808260  0.177380  1
  I  I866  1  0.066130  0.191740  0.322620  1
  I  I867  1  0.433870  0.191740  0.822620  1
  I  I868  1  0.933870  0.808260  0.677380  1
  I  I869  1  0.807550  0.767870  0.111720  1
  I  I870  1  0.307550  0.232130  0.388280  1
  I  I871  1  0.192450  0.232130  0.888280  1
  I  I872  1  0.692450  0.767870  0.611720  1
  I  I873  1  0.259650  0.517720  0.226920  1
  I  I874  1  0.759650  0.482280  0.273080  1
  I  I875  1  0.740350  0.482280  0.773080  1
  I  I876  1  0.240350  0.517720  0.726920  1
  I  I877  1  0.217490  0.463650  0.352990  1
  I  I878  1  0.717490  0.536350  0.147010  1
  I  I879  1  0.782510  0.536350  0.647010  1
  I  I880  1  0.282510  0.463650  0.852990  1
  I  I881  1  0.291230  0.887510  0.176820  1
  I  I882  1  0.791230  0.112490  0.323180  1
  I  I883  1  0.708770  0.112490  0.823180  1
  I  I884  1  0.208770  0.887510  0.676820  1
  I  I885  1  0.327840  0.999040  0.275270  1
  I  I886  1  0.827840  0.000960  0.224730  1
  I  I887  1  0.672160  0.000960  0.724730  1
  I  I888  1  0.172160  0.999040  0.775270  1
  N  N889  1  0.653000  0.564600  0.530600  1
  N  N890  1  0.153000  0.435400  0.969400  1
  N  N891  1  0.347000  0.435400  0.469400  1
  N  N892  1  0.847000  0.564600  0.030600  1
  N  N893  1  0.792300  0.648800  0.509700  1
  N  N894  1  0.292300  0.351200  0.990300  1
  N  N895  1  0.207700  0.351200  0.490300  1
  N  N896  1  0.707700  0.648800  0.009700  1
  N  N897  1  0.237900  0.746100  0.613000  1
  N  N898  1  0.737900  0.253900  0.887000  1
  N  N899  1  0.762100  0.253900  0.387000  1
  N  N900  1  0.262100  0.746100  0.113000  1
  N  N901  1  0.079300  0.769400  0.548400  1
  N  N902  1  0.579300  0.230600  0.951600  1
  N  N903  1  0.920700  0.230600  0.451600  1
  N  N904  1  0.420700  0.769400  0.048400  1
  N  N905  1  0.626700  0.937100  0.537500  1
  N  N906  1  0.126700  0.062900  0.962500  1
  N  N907  1  0.373300  0.062900  0.462500  1
  N  N908  1  0.873300  0.937100  0.037500  1
  N  N909  1  0.751500  0.851500  0.504400  1
  N  N910  1  0.251500  0.148500  0.995600  1
  N  N911  1  0.248500  0.148500  0.495600  1
  N  N912  1  0.748500  0.851500  0.004400  1
  N  N913  1  0.639100  0.497400  0.430900  1
  N  N914  1  0.139100  0.502600  0.069100  1
  N  N915  1  0.360900  0.502600  0.569100  1
  N  N916  1  0.860900  0.497400  0.930900  1
  N  N917  1  0.750100  0.567700  0.371400  1
  N  N918  1  0.250100  0.432300  0.128600  1
  N  N919  1  0.249900  0.432300  0.628600  1
  N  N920  1  0.749900  0.567700  0.871400  1
  N  N921  1  0.660700  0.726600  0.147800  1
  N  N922  1  0.160700  0.273400  0.352200  1
  N  N923  1  0.339300  0.273400  0.852200  1
  N  N924  1  0.839300  0.726600  0.647800  1
  N  N925  1  0.744900  0.694000  0.231500  1
  N  N926  1  0.244900  0.306000  0.268500  1
  N  N927  1  0.255100  0.306000  0.768500  1
  N  N928  1  0.755100  0.694000  0.731500  1
  N  N929  1  0.135100  0.468000  0.275800  1
  N  N930  1  0.635100  0.532000  0.224200  1
  N  N931  1  0.864900  0.532000  0.724200  1
  N  N932  1  0.364900  0.468000  0.775800  1
  N  N933  1  0.008400  0.549900  0.309100  1
  N  N934  1  0.508400  0.450100  0.190900  1
  N  N935  1  0.991600  0.450100  0.690900  1
  N  N936  1  0.491600  0.549900  0.809100  1
  N  N937  1  0.395400  0.699900  0.540800  1
  N  N938  1  0.895400  0.300100  0.959200  1
  N  N939  1  0.604600  0.300100  0.459200  1
  N  N940  1  0.104600  0.699900  0.040800  1
  N  N941  1  0.321300  0.719700  0.447200  1
  N  N942  1  0.821300  0.280300  0.052800  1
  N  N943  1  0.678700  0.280300  0.552800  1
  N  N944  1  0.178700  0.719700  0.947200  1
  N  N945  1  0.344700  0.508500  0.306500  1
  N  N946  1  0.844700  0.491500  0.193500  1
  N  N947  1  0.655300  0.491500  0.693500  1
  N  N948  1  0.155300  0.508500  0.806500  1
  N  N949  1  0.303100  0.619400  0.337600  1
  N  N950  1  0.803100  0.380600  0.162400  1
  N  N951  1  0.696900  0.380600  0.662400  1
  N  N952  1  0.196900  0.619400  0.837600  1
  N  N953  1  0.407900  0.916200  0.240700  1
  N  N954  1  0.907900  0.083800  0.259300  1
  N  N955  1  0.592100  0.083800  0.759300  1
  N  N956  1  0.092100  0.916200  0.740700  1
  N  N957  1  0.338300  0.837700  0.304900  1
  N  N958  1  0.838300  0.162300  0.195100  1
  N  N959  1  0.661700  0.162300  0.695100  1
  N  N960  1  0.161700  0.837700  0.804900  1
  N  N961  1  0.667700  0.026600  0.462600  1
  N  N962  1  0.167700  0.973400  0.037400  1
  N  N963  1  0.332300  0.973400  0.537400  1
  N  N964  1  0.832300  0.026600  0.962600  1
  N  N965  1  0.824800  0.978300  0.408600  1
  N  N966  1  0.324800  0.021700  0.091400  1
  N  N967  1  0.175200  0.021700  0.591400  1
  N  N968  1  0.675200  0.978300  0.908600  1
  N  N969  1  0.208700  0.968800  0.208300  1
  N  N970  1  0.708700  0.031200  0.291700  1
  N  N971  1  0.791300  0.031200  0.791700  1
  N  N972  1  0.291300  0.968800  0.708300  1
  N  N973  1  0.067900  0.929300  0.277300  1
  N  N974  1  0.567900  0.070700  0.222700  1
  N  N975  1  0.932100  0.070700  0.722700  1
  N  N976  1  0.432100  0.929300  0.777300  1
  N  N977  1  0.714900  0.852000  0.144700  1
  N  N978  1  0.214900  0.148000  0.355300  1
  N  N979  1  0.285100  0.148000  0.855300  1
  N  N980  1  0.785100  0.852000  0.644700  1
  N  N981  1  0.828900  0.864800  0.230900  1
  N  N982  1  0.328900  0.135200  0.269100  1
  N  N983  1  0.171100  0.135200  0.769100  1
  N  N984  1  0.671100  0.864800  0.730900  1
  O  O985  1  0.696300  0.696200  0.500400  1
  O  O986  1  0.196300  0.303800  0.999600  1
  O  O987  1  0.303700  0.303800  0.499600  1
  O  O988  1  0.803700  0.696200  0.000400  1
  O  O989  1  0.035500  0.702200  0.559700  1
  O  O990  1  0.535500  0.297800  0.940300  1
  O  O991  1  0.964500  0.297800  0.440300  1
  O  O992  1  0.464500  0.702200  0.059700  1
  O  O993  1  0.859800  0.870000  0.533000  1
  O  O994  1  0.359800  0.130000  0.967000  1
  O  O995  1  0.140200  0.130000  0.467000  1
  O  O996  1  0.640200  0.870000  0.033000  1
  O  O997  1  0.650200  0.596500  0.337600  1
  O  O998  1  0.150200  0.403500  0.162400  1
  O  O999  1  0.349800  0.403500  0.662400  1
  O  O1000  1  0.849800  0.596500  0.837600  1
  O  O1001  1  0.857500  0.674800  0.205100  1
  O  O1002  1  0.357500  0.325200  0.294900  1
  O  O1003  1  0.142500  0.325200  0.794900  1
  O  O1004  1  0.642500  0.674800  0.705100  1
  O  O1005  1  0.015700  0.573200  0.250300  1
  O  O1006  1  0.515700  0.426800  0.249700  1
  O  O1007  1  0.984300  0.426800  0.749700  1
  O  O1008  1  0.484300  0.573200  0.750300  1
  O  O1009  1  0.365400  0.785800  0.436700  1
  O  O1010  1  0.865400  0.214200  0.063300  1
  O  O1011  1  0.634600  0.214200  0.563300  1
  O  O1012  1  0.134600  0.785800  0.936700  1
  O  O1013  1  0.346700  0.639100  0.283000  1
  O  O1014  1  0.846700  0.360900  0.217000  1
  O  O1015  1  0.653300  0.360900  0.717000  1
  O  O1016  1  0.153300  0.639100  0.783000  1
  O  O1017  1  0.351900  0.787600  0.258500  1
  O  O1018  1  0.851900  0.212400  0.241500  1
  O  O1019  1  0.648100  0.212400  0.741500  1
  O  O1020  1  0.148100  0.787600  0.758500  1
  O  O1021  1  0.741100  0.926900  0.395500  1
  O  O1022  1  0.241100  0.073100  0.104500  1
  O  O1023  1  0.258900  0.073100  0.604500  1
  O  O1024  1  0.758900  0.926900  0.895500  1
  O  O1025  1  0.054500  0.986000  0.314500  1
  O  O1026  1  0.554500  0.014000  0.185500  1
  O  O1027  1  0.945500  0.014000  0.685500  1
  O  O1028  1  0.445500  0.986000  0.814500  1
  O  O1029  1  0.717900  0.870500  0.268300  1
  O  O1030  1  0.217900  0.129500  0.231700  1
  O  O1031  1  0.282100  0.129500  0.731700  1
  O  O1032  1  0.782100  0.870500  0.768300  1
