
#######################################################################
#
#                 Cambridge Crystallographic Data Centre
#                                CCDC 
#
#######################################################################
#
# If this CIF has been generated from an entry in the Cambridge 
# Structural Database, then it will include bibliographic, chemical, 
# crystal, experimental, refinement or atomic coordinate data resulting 
# from the CCDC's data processing and validation procedures.
#
#######################################################################

data_ANEYID
_chemical_formula_moiety         
'C108 H96 Br12 N24 O12 Pd6,7(C2 H6 O1 S1),4(H2 O1)'
_chemical_name_systematic        
"tetrakis(\m-N,N',N''-tris(pyridin-2-ylmethyl)benzene-1,3,5-tricarboxamide)-dodecabromo-hexa-palladium dimethyl sulfoxide solvate tetrahydrate"
_symmetry_cell_setting           monoclinic
_symmetry_space_group_name_H-M   'P 21/c'
_symmetry_Int_Tables_number      14
_space_group_name_Hall           '-P 2ybc'
loop_
_symmetry_equiv_pos_site_id
_symmetry_equiv_pos_as_xyz
1 x,y,z
2 -x,1/2+y,1/2-z
3 -x,-y,-z
4 x,1/2-y,1/2+z
_cell_length_a                   31.960(3)
_cell_length_b                   17.640(2)
_cell_length_c                   36.606(4)
_cell_angle_alpha                90
_cell_angle_beta                 92.087(7)
_cell_angle_gamma                90
_cell_volume                     20623.8
_exptl_crystal_colour            yellow
_exptl_crystal_description       block
_cell_formula_units_Z            4
loop_
_atom_site_label
_atom_site_type_symbol
_atom_site_fract_x
_atom_site_fract_y
_atom_site_fract_z
Pd1 Pd 0.46924(3) 0.15289(5) 0.02913(3)
Pd2 Pd 0.01890(2) 0.14716(5) 0.00064(2)
Pd3 Pd 0.27551(2) 0.81012(5) -0.07135(2)
Pd4 Pd 0.51131(2) 0.74681(5) 0.20909(2)
Pd5 Pd 0.20939(2) 0.18734(5) 0.35311(2)
Pd6 Pd 0.05767(2) 0.79534(5) 0.27315(2)
Br1 Br 0.49825(4) 0.27765(8) 0.01689(4)
Br2 Br 0.44298(4) 0.02804(8) 0.04140(4)
Br3 Br 0.04889(4) 0.04481(7) 0.03697(4)
Br4 Br -0.00994(4) 0.24973(8) -0.03504(3)
Br5 Br 0.20596(4) 0.85981(8) -0.06870(3)
Br6 Br 0.34523(4) 0.75999(8) -0.07515(4)
Br7 Br 0.48536(4) 0.77792(9) 0.26809(3)
Br8 Br 0.53627(4) 0.71827(9) 0.14900(4)
Br9 Br 0.22224(4) 0.30714(9) 0.38363(4)
Br10 Br 0.19668(4) 0.06786(8) 0.32412(4)
Br11 Br 0.11140(4) 0.77373(8) 0.31986(3)
Br12 Br 0.00489(4) 0.82164(8) 0.22648(4)
O1 O 0.3029(3) 0.1900(5) -0.0022(2)
O2 O 0.1325(2) 0.3568(5) -0.0351(2)
O3 O 0.3004(3) 0.5300(5) -0.0545(2)
O4 O 0.3938(3) 0.1767(6) 0.1624(2)
O5 O 0.4251(3) 0.5262(7) 0.2543(3)
O6 O 0.3164(4) 0.3528(7) 0.2909(4)
O7 O 0.0667(4) 0.2381(8) 0.1080(3)
O8 O 0.1238(3) 0.2140(6) 0.2299(3)
O9 O 0.0152(3) 0.5472(5) 0.1842(2)
O10 O 0.2114(2) 0.8653(6) 0.0651(2)
O11 O 0.3624(2) 0.8527(5) 0.2136(2)
O12 O 0.2162(2) 0.8371(6) 0.2405(2)
N1 N 0.4385(4) 0.1526(6) -0.0205(3)
N2 N 0.3517(4) 0.2834(5) -0.0079(2)
H1 H 0.3555 0.3308 -0.0146
N3 N 0.0587(3) 0.1256(7) -0.0403(3)
N4 N 0.1505(3) 0.2470(6) -0.0104(2)
H2 H 0.1712 0.2180 -0.0022
N5 N 0.2535(3) 0.7339(6) -0.1089(3)
N6 N 0.2352(3) 0.5724(7) -0.0478(2)
H3 H 0.2091 0.5618 -0.0429
N7 N 0.5015(4) 0.1559(6) 0.0800(3)
N8 N 0.4314(3) 0.2607(6) 0.1323(4)
H4 H 0.4416 0.3070 0.1317
N9 N 0.5335(4) 0.6428(6) 0.2273(2)
N10 N 0.4496(3) 0.5150(7) 0.1981(3)
H5 H 0.4524 0.4862 0.1787
N11 N 0.2722(3) 0.1664(7) 0.3538(3)
N12 N 0.3039(4) 0.2413(7) 0.2669(3)
H6 H 0.3083 0.2068 0.2501
N13 N -0.0231(3) 0.1665(6) 0.0376(2)
N14 N 0.0199(4) 0.3276(10) 0.0928(4)
H7 H 0.0075 0.3718 0.0954
N15 N 0.1480(3) 0.2121(7) 0.3500(4)
N16 N 0.1307(3) 0.3100(6) 0.2642(4)
H8 H 0.1259 0.3584 0.2681
N17 N 0.0305(3) 0.6962(8) 0.2866(3)
N18 N 0.0709(3) 0.5614(7) 0.2213(3)
H9 H 0.0953 0.5428 0.2288
N19 N 0.2988(3) 0.8916(5) -0.0370(4)
N20 N 0.2772(3) 0.8249(5) 0.0564(3)
H10 H 0.3009 0.8094 0.0669
N21 N 0.4929(3) 0.8504(6) 0.1915(2)
N22 N 0.3859(4) 0.8050(6) 0.1594(3)
H11 H 0.3817 0.8016 0.1356
N23 N 0.0845(3) 0.8957(5) 0.2603(3)
N24 N 0.1650(3) 0.8389(5) 0.1984(2)
H12 H 0.1582 0.8487 0.1754
C1 C 0.4545(4) 0.1124(7) -0.0525(5)
H13 H 0.4795 0.0839 -0.0485
C2 C 0.4386(5) 0.1118(10) -0.0846(5)
H14 H 0.4509 0.0824 -0.1031
C3 C 0.4054(5) 0.1518(8) -0.0920(4)
H15 H 0.3928 0.1516 -0.1159
C4 C 0.3886(4) 0.1940(7) -0.0651(4)
H16 H 0.3651 0.2251 -0.0711
C5 C 0.4043(5) 0.1939(9) -0.0290(5)
C6 C 0.3878(3) 0.2375(6) 0.0023(3)
H17 H 0.3800 0.2015 0.0217
H18 H 0.4102 0.2708 0.0126
C7 C 0.3112(4) 0.2549(9) -0.0076(3)
C8 C 0.0492(4) 0.0768(8) -0.0673(5)
H19 H 0.0233 0.0506 -0.0669
C9 C 0.0740(6) 0.0634(11) -0.0943(5)
H20 H 0.0677 0.0239 -0.1112
C10 C 0.1104(7) 0.1086(11) -0.0980(5)
H21 H 0.1258 0.1061 -0.1197
C11 C 0.1233(5) 0.1557(9) -0.0702(5)
H22 H 0.1496 0.1805 -0.0698
C12 C 0.0944(6) 0.1651(8) -0.0417(4)
C13 C 0.1089(4) 0.2169(7) -0.0097(3)
H23 H 0.0891 0.2600 -0.0087
H24 H 0.1065 0.1879 0.0133
C14 C 0.1595(5) 0.3112(8) -0.0218(3)
C15 C 0.2523(4) 0.7557(8) -0.1449(4)
H25 H 0.2638 0.8029 -0.1519
C16 C 0.2347(5) 0.7098(11) -0.1699(5)
H26 H 0.2304 0.7270 -0.1943
C17 C 0.2232(5) 0.6397(13) -0.1609(5)
H27 H 0.2127 0.6071 -0.1798
C18 C 0.2261(4) 0.6114(6) -0.1244(5)
H28 H 0.2174 0.5615 -0.1184
C19 C 0.2426(4) 0.6624(10) -0.0978(4)
C20 C 0.2457(3) 0.6467(6) -0.0573(3)
H29 H 0.2748 0.6571 -0.0482
H30 H 0.2270 0.6821 -0.0447
C21 C 0.2629(5) 0.5192(8) -0.0462(3)
C22 C 0.2772(5) 0.3137(8) -0.0158(3)
C23 C 0.2360(5) 0.2891(7) -0.0161(3)
H31 H 0.2305 0.2370 -0.0118
C24 C 0.2015(5) 0.3397(8) -0.0227(3)
C25 C 0.2098(4) 0.4122(8) -0.0318(2)
H32 H 0.1872 0.4458 -0.0373
C26 C 0.2507(5) 0.4390(6) -0.0334(2)
C27 C 0.2853(4) 0.3908(9) -0.0246(3)
H33 H 0.3132 0.4096 -0.0246
C28 C -0.0584(4) 0.1199(7) 0.0385(3)
H34 H -0.0599 0.0798 0.0211
C29 C -0.0894(4) 0.1251(8) 0.0602(4)
H35 H -0.1127 0.0917 0.0581
C30 C -0.0873(5) 0.1802(11) 0.0860(4)
H36 H -0.1092 0.1864 0.1026
C31 C -0.0519(6) 0.2284(8) 0.0877(3)
H37 H -0.0488 0.2668 0.1058
C32 C -0.0225(4) 0.2170(8) 0.0621(4)
C33 C 0.0132(4) 0.2719(8) 0.0603(3)
H38 H 0.0092 0.3023 0.0377
H39 H 0.0393 0.2424 0.0579
C34 C 0.0466(6) 0.2976(12) 0.1148(5)
C35 C 0.1263(6) 0.1823(8) 0.3772(4)
H40 H 0.1416 0.1536 0.3952
C36 C 0.0829(6) 0.1896(11) 0.3815(4)
H41 H 0.0690 0.1731 0.4026
C37 C 0.0628(5) 0.2230(12) 0.3520(7)
H42 H 0.0334 0.2301 0.3520
C38 C 0.0849(7) 0.2469(10) 0.3220(5)
H43 H 0.0695 0.2657 0.3012
C39 C 0.1289(7) 0.2444(9) 0.3207(5)
C40 C 0.1551(4) 0.2721(8) 0.2937(4)
H44 H 0.1710 0.2294 0.2834
H45 H 0.1754 0.3083 0.3049
C41 C 0.1152(6) 0.2843(10) 0.2336(5)
C42 C 0.0114(4) 0.6966(8) 0.3152(4)
H46 H 0.0105 0.7437 0.3278
C43 C -0.0093(6) 0.6355(13) 0.3316(5)
H47 H -0.0237 0.6403 0.3538
C44 C -0.0070(5) 0.5677(11) 0.3125(6)
H48 H -0.0222 0.5248 0.3205
C45 C 0.0161(6) 0.5618(9) 0.2834(5)
H49 H 0.0203 0.5143 0.2718
C46 C 0.0343(4) 0.6290(11) 0.2701(4)
C47 C 0.0591(4) 0.6377(7) 0.2354(4)
H50 H 0.0418 0.6648 0.2165
H51 H 0.0846 0.6680 0.2407
C48 C 0.0473(5) 0.5187(11) 0.1981(4)
C49 C 0.0616(4) 0.3376(9) 0.1513(4)
C50 C 0.0851(4) 0.2966(7) 0.1753(4)
H52 H 0.0938 0.2464 0.1699
C51 C 0.0957(4) 0.3300(10) 0.2071(4)
C52 C 0.0832(4) 0.4001(10) 0.2157(3)
H53 H 0.0899 0.4200 0.2393
C53 C 0.0615(5) 0.4421(9) 0.1914(5)
C54 C 0.0491(3) 0.4093(9) 0.1575(4)
H54 H 0.0326 0.4366 0.1398
C55 C 0.5394(5) 0.1231(9) 0.0795(5)
H55 H 0.5490 0.1004 0.0578
C56 C 0.5629(5) 0.1232(9) 0.1099(6)
H56 H 0.5902 0.1016 0.1104
C57 C 0.5472(5) 0.1551(9) 0.1408(4)
H57 H 0.5640 0.1564 0.1628
C58 C 0.5066(5) 0.1858(8) 0.1404(5)
H58 H 0.4951 0.2079 0.1614
C59 C 0.4859(6) 0.1818(8) 0.1091(5)
C60 C 0.4421(5) 0.2130(8) 0.1024(3)
H59 H 0.4409 0.2425 0.0794
H60 H 0.4219 0.1707 0.0999
C61 C 0.4070(5) 0.2442(11) 0.1623(6)
C62 C 0.5736(5) 0.6390(11) 0.2449(4)
H61 H 0.5881 0.6845 0.2512
C63 C 0.5920(7) 0.5696(13) 0.2531(5)
H62 H 0.6200 0.5689 0.2626
C64 C 0.5711(8) 0.5006(17) 0.2480(7)
H63 H 0.5817 0.4539 0.2574
C65 C 0.5337(7) 0.5063(11) 0.2283(5)
H64 H 0.5211 0.4614 0.2187
C66 C 0.5127(5) 0.5783(11) 0.2216(3)
C67 C 0.4699(4) 0.5902(8) 0.2005(3)
H65 H 0.4522 0.6262 0.2138
H66 H 0.4743 0.6107 0.1758
C68 C 0.4271(5) 0.4915(11) 0.2259(5)
C69 C 0.2874(5) 0.1247(10) 0.3814(5)
H67 H 0.2688 0.1031 0.3982
C70 C 0.3301(6) 0.1123(9) 0.3859(4)
H68 H 0.3416 0.0845 0.4061
C71 C 0.3551(4) 0.1425(9) 0.3594(5)
H69 H 0.3846 0.1374 0.3625
C72 C 0.3406(5) 0.1768(9) 0.3312(4)
H70 H 0.3577 0.1924 0.3118
C73 C 0.2987(5) 0.1893(8) 0.3309(4)
C74 C 0.2767(4) 0.2311(8) 0.2992(4)
H71 H 0.2513 0.2024 0.2913
H72 H 0.2677 0.2815 0.3078
C75 C 0.3177(6) 0.3010(13) 0.2674(5)
C76 C 0.3919(5) 0.2971(9) 0.1909(4)
C77 C 0.4164(4) 0.3702(9) 0.1944(4)
H73 H 0.4393 0.3811 0.1795
C78 C 0.4031(5) 0.4200(10) 0.2206(4)
C79 C 0.3742(5) 0.3947(11) 0.2434(4)
H74 H 0.3689 0.4269 0.2635
C80 C 0.3510(6) 0.3278(12) 0.2417(5)
C81 C 0.3605(4) 0.2791(9) 0.2156(4)
H75 H 0.3460 0.2321 0.2134
C82 C 0.3208(6) 0.9407(9) -0.0560(5)
H76 H 0.3261 0.9326 -0.0810
C83 C 0.3345(5) 1.0000(11) -0.0387(5)
H77 H 0.3468 1.0398 -0.0522
C84 C 0.3321(4) 1.0077(7) -0.0011(6)
H78 H 0.3453 1.0498 0.0108
C85 C 0.3109(4) 0.9551(9) 0.0193(3)
H79 H 0.3078 0.9599 0.0449
C86 C 0.2951(3) 0.8972(8) -0.0001(4)
C87 C 0.2721(3) 0.8300(5) 0.0169(3)
H80 H 0.2419 0.8341 0.0103
H81 H 0.2825 0.7824 0.0060
C88 C 0.2440(5) 0.8451(7) 0.0767(3)
C89 C 0.5216(4) 0.9079(11) 0.1910(3)
H82 H 0.5495 0.8978 0.1994
C90 C 0.5116(6) 0.9819(11) 0.1785(4)
H83 H 0.5302 1.0236 0.1814
C91 C 0.4724(6) 0.9879(8) 0.1619(4)
H84 H 0.4645 1.0345 0.1505
C92 C 0.4428(4) 0.9254(11) 0.1610(3)
H85 H 0.4156 0.9335 0.1503
C93 C 0.4527(5) 0.8533(9) 0.1754(3)
C94 C 0.4239(4) 0.7842(8) 0.1768(3)
H86 H 0.4365 0.7407 0.1640
H87 H 0.4195 0.7695 0.2025
C95 C 0.3576(5) 0.8292(8) 0.1803(4)
C96 C 0.0672(4) 0.9575(10) 0.2760(3)
H88 H 0.0444 0.9539 0.2918
C97 C 0.0862(5) 1.0295(10) 0.2668(4)
H89 H 0.0747 1.0737 0.2773
C98 C 0.1178(5) 1.0391(11) 0.2452(5)
H90 H 0.1296 1.0876 0.2409
C99 C 0.1331(4) 0.9737(9) 0.2290(4)
H91 H 0.1546 0.9775 0.2119
C100 C 0.1170(4) 0.9021(8) 0.2377(3)
C101 C 0.1335(3) 0.8277(6) 0.2230(3)
H92 H 0.1446 0.7965 0.2437
H93 H 0.1102 0.7995 0.2108
C102 C 0.2022(5) 0.8352(7) 0.2082(4)
C103 C 0.2603(4) 0.8416(5) 0.1171(3)
C104 C 0.3012(3) 0.8375(6) 0.1298(4)
H94 H 0.3231 0.8361 0.1130
C105 C 0.3107(4) 0.8352(6) 0.1682(3)
C106 C 0.2773(5) 0.8367(6) 0.1921(3)
H95 H 0.2835 0.8362 0.2177
C107 C 0.2358(4) 0.8388(6) 0.1800(4)
C108 C 0.2272(3) 0.8416(5) 0.1424(4)
H96 H 0.1989 0.8435 0.1334
loop_
_geom_bond_atom_site_label_1
_geom_bond_atom_site_label_2
_geom_bond_site_symmetry_1
_geom_bond_site_symmetry_2
Pd1 Br1 1_555 1_555
Pd2 Br3 1_555 1_555
Pd3 Br5 1_555 1_555
Pd4 Br7 1_555 1_555
Pd5 Br9 1_555 1_555
Pd6 Br11 1_555 1_555
Br2 Pd1 1_555 1_555
Br4 Pd2 1_555 1_555
Br6 Pd3 1_555 1_555
Br8 Pd4 1_555 1_555
Br10 Pd5 1_555 1_555
Br12 Pd6 1_555 1_555
O1 C7 1_555 1_555
O2 C14 1_555 1_555
O3 C21 1_555 1_555
O4 C61 1_555 1_555
O5 C68 1_555 1_555
O6 C75 1_555 1_555
O7 C34 1_555 1_555
O8 C41 1_555 1_555
O9 C48 1_555 1_555
O10 C88 1_555 1_555
O11 C95 1_555 1_555
O12 C102 1_555 1_555
N1 Pd1 1_555 1_555
N2 H1 1_555 1_555
N3 Pd2 1_555 1_555
N4 H2 1_555 1_555
N5 Pd3 1_555 1_555
N6 H3 1_555 1_555
N7 Pd1 1_555 1_555
N8 H4 1_555 1_555
N9 Pd4 1_555 1_555
N10 H5 1_555 1_555
N11 Pd5 1_555 1_555
N12 H6 1_555 1_555
N13 Pd2 1_555 1_555
N14 H7 1_555 1_555
N15 Pd5 1_555 1_555
N16 H8 1_555 1_555
N17 Pd6 1_555 1_555
N18 H9 1_555 1_555
N19 Pd3 1_555 1_555
N20 H10 1_555 1_555
N21 Pd4 1_555 1_555
N22 H11 1_555 1_555
N23 Pd6 1_555 1_555
N24 H12 1_555 1_555
C1 N1 1_555 1_555
H13 C1 1_555 1_555
C2 C1 1_555 1_555
H14 C2 1_555 1_555
C3 C2 1_555 1_555
H15 C3 1_555 1_555
C4 C3 1_555 1_555
H16 C4 1_555 1_555
C5 N1 1_555 1_555
C6 N2 1_555 1_555
H17 C6 1_555 1_555
H18 C6 1_555 1_555
C7 N2 1_555 1_555
C8 N3 1_555 1_555
H19 C8 1_555 1_555
C9 C8 1_555 1_555
H20 C9 1_555 1_555
C10 C9 1_555 1_555
H21 C10 1_555 1_555
C11 C10 1_555 1_555
H22 C11 1_555 1_555
C12 N3 1_555 1_555
C13 N4 1_555 1_555
H23 C13 1_555 1_555
H24 C13 1_555 1_555
C14 N4 1_555 1_555
C15 N5 1_555 1_555
H25 C15 1_555 1_555
C16 C15 1_555 1_555
H26 C16 1_555 1_555
C17 C16 1_555 1_555
H27 C17 1_555 1_555
C18 C17 1_555 1_555
H28 C18 1_555 1_555
C19 N5 1_555 1_555
C20 N6 1_555 1_555
H29 C20 1_555 1_555
H30 C20 1_555 1_555
C21 N6 1_555 1_555
C22 C7 1_555 1_555
C23 C22 1_555 1_555
H31 C23 1_555 1_555
C24 C14 1_555 1_555
C25 C24 1_555 1_555
H32 C25 1_555 1_555
C26 C21 1_555 1_555
C27 C22 1_555 1_555
H33 C27 1_555 1_555
C28 N13 1_555 1_555
H34 C28 1_555 1_555
C29 C28 1_555 1_555
H35 C29 1_555 1_555
C30 C29 1_555 1_555
H36 C30 1_555 1_555
C31 C30 1_555 1_555
H37 C31 1_555 1_555
C32 N13 1_555 1_555
C33 N14 1_555 1_555
H38 C33 1_555 1_555
H39 C33 1_555 1_555
C34 N14 1_555 1_555
C35 N15 1_555 1_555
H40 C35 1_555 1_555
C36 C35 1_555 1_555
H41 C36 1_555 1_555
C37 C36 1_555 1_555
H42 C37 1_555 1_555
C38 C37 1_555 1_555
H43 C38 1_555 1_555
C39 N15 1_555 1_555
C40 N16 1_555 1_555
H44 C40 1_555 1_555
H45 C40 1_555 1_555
C41 N16 1_555 1_555
C42 N17 1_555 1_555
H46 C42 1_555 1_555
C43 C42 1_555 1_555
H47 C43 1_555 1_555
C44 C43 1_555 1_555
H48 C44 1_555 1_555
C45 C44 1_555 1_555
H49 C45 1_555 1_555
C46 N17 1_555 1_555
C47 N18 1_555 1_555
H50 C47 1_555 1_555
H51 C47 1_555 1_555
C48 N18 1_555 1_555
C49 C34 1_555 1_555
C50 C49 1_555 1_555
H52 C50 1_555 1_555
C51 C41 1_555 1_555
C52 C51 1_555 1_555
H53 C52 1_555 1_555
C53 C48 1_555 1_555
C54 C49 1_555 1_555
H54 C54 1_555 1_555
C55 N7 1_555 1_555
H55 C55 1_555 1_555
C56 C55 1_555 1_555
H56 C56 1_555 1_555
C57 C56 1_555 1_555
H57 C57 1_555 1_555
C58 C57 1_555 1_555
H58 C58 1_555 1_555
C59 N7 1_555 1_555
C60 N8 1_555 1_555
H59 C60 1_555 1_555
H60 C60 1_555 1_555
C61 N8 1_555 1_555
C62 N9 1_555 1_555
H61 C62 1_555 1_555
C63 C62 1_555 1_555
H62 C63 1_555 1_555
C64 C63 1_555 1_555
H63 C64 1_555 1_555
C65 C64 1_555 1_555
H64 C65 1_555 1_555
C66 N9 1_555 1_555
C67 N10 1_555 1_555
H65 C67 1_555 1_555
H66 C67 1_555 1_555
C68 N10 1_555 1_555
C69 N11 1_555 1_555
H67 C69 1_555 1_555
C70 C69 1_555 1_555
H68 C70 1_555 1_555
C71 C70 1_555 1_555
H69 C71 1_555 1_555
C72 C71 1_555 1_555
H70 C72 1_555 1_555
C73 N11 1_555 1_555
C74 N12 1_555 1_555
H71 C74 1_555 1_555
H72 C74 1_555 1_555
C75 N12 1_555 1_555
C76 C61 1_555 1_555
C77 C76 1_555 1_555
H73 C77 1_555 1_555
C78 C68 1_555 1_555
C79 C78 1_555 1_555
H74 C79 1_555 1_555
C80 C75 1_555 1_555
C81 C76 1_555 1_555
H75 C81 1_555 1_555
C82 N19 1_555 1_555
H76 C82 1_555 1_555
C83 C82 1_555 1_555
H77 C83 1_555 1_555
C84 C83 1_555 1_555
H78 C84 1_555 1_555
C85 C84 1_555 1_555
H79 C85 1_555 1_555
C86 N19 1_555 1_555
C87 N20 1_555 1_555
H80 C87 1_555 1_555
H81 C87 1_555 1_555
C88 N20 1_555 1_555
C89 N21 1_555 1_555
H82 C89 1_555 1_555
C90 C89 1_555 1_555
H83 C90 1_555 1_555
C91 C90 1_555 1_555
H84 C91 1_555 1_555
C92 C91 1_555 1_555
H85 C92 1_555 1_555
C93 N21 1_555 1_555
C94 N22 1_555 1_555
H86 C94 1_555 1_555
H87 C94 1_555 1_555
C95 N22 1_555 1_555
C96 N23 1_555 1_555
H88 C96 1_555 1_555
C97 C96 1_555 1_555
H89 C97 1_555 1_555
C98 C97 1_555 1_555
H90 C98 1_555 1_555
C99 C98 1_555 1_555
H91 C99 1_555 1_555
C100 N23 1_555 1_555
C101 N24 1_555 1_555
H92 C101 1_555 1_555
H93 C101 1_555 1_555
C102 N24 1_555 1_555
C103 C88 1_555 1_555
C104 C103 1_555 1_555
H94 C104 1_555 1_555
C105 C95 1_555 1_555
C106 C105 1_555 1_555
H95 C106 1_555 1_555
C107 C102 1_555 1_555
C108 C103 1_555 1_555
H96 C108 1_555 1_555
C4 C5 1_555 1_555
C5 C6 1_555 1_555
C11 C12 1_555 1_555
C12 C13 1_555 1_555
C18 C19 1_555 1_555
C19 C20 1_555 1_555
C23 C24 1_555 1_555
C25 C26 1_555 1_555
C26 C27 1_555 1_555
C31 C32 1_555 1_555
C32 C33 1_555 1_555
C38 C39 1_555 1_555
C39 C40 1_555 1_555
C45 C46 1_555 1_555
C46 C47 1_555 1_555
C50 C51 1_555 1_555
C52 C53 1_555 1_555
C53 C54 1_555 1_555
C58 C59 1_555 1_555
C59 C60 1_555 1_555
C65 C66 1_555 1_555
C66 C67 1_555 1_555
C72 C73 1_555 1_555
C73 C74 1_555 1_555
C77 C78 1_555 1_555
C79 C80 1_555 1_555
C80 C81 1_555 1_555
C85 C86 1_555 1_555
C86 C87 1_555 1_555
C92 C93 1_555 1_555
C93 C94 1_555 1_555
C99 C100 1_555 1_555
C100 C101 1_555 1_555
C104 C105 1_555 1_555
C106 C107 1_555 1_555
C107 C108 1_555 1_555

#END
