# generated using pymatgen
data_Fe4Ni3H180C232S8N40(O5F4)6
_symmetry_space_group_name_H-M   'P 1'
_cell_length_a   27.09980000
_cell_length_b   33.88120000
_cell_length_c   33.88120000
_cell_angle_alpha   90.00000000
_cell_angle_beta   90.00000000
_cell_angle_gamma   90.00000000
_symmetry_Int_Tables_number   1
_chemical_formula_structural   Fe4Ni3H180C232S8N40(O5F4)6
_chemical_formula_sum   'Fe16 Ni12 H720 C928 S32 N160 O120 F96'
_cell_volume   31108.82824708
_cell_formula_units_Z   4
loop_
 _symmetry_equiv_pos_site_id
 _symmetry_equiv_pos_as_xyz
  1  'x, y, z'
loop_
 _atom_site_type_symbol
 _atom_site_label
 _atom_site_symmetry_multiplicity
 _atom_site_fract_x
 _atom_site_fract_y
 _atom_site_fract_z
 _atom_site_occupancy
  Fe  Fe1  1  0.443600  0.955020  0.158460  1.0
  Fe  Fe2  1  0.443600  0.544980  0.341540  1.0
  Fe  Fe3  1  0.443600  0.341540  0.955020  1.0
  Fe  Fe4  1  0.443600  0.158460  0.544980  1.0
  Fe  Fe5  1  0.556400  0.044980  0.841540  1.0
  Fe  Fe6  1  0.556400  0.455020  0.658460  1.0
  Fe  Fe7  1  0.556400  0.658460  0.044980  1.0
  Fe  Fe8  1  0.556400  0.841540  0.455020  1.0
  Fe  Fe9  1  0.899000  0.954890  0.157360  1.0
  Fe  Fe10  1  0.899000  0.545110  0.342640  1.0
  Fe  Fe11  1  0.899000  0.342640  0.954890  1.0
  Fe  Fe12  1  0.899000  0.157360  0.545110  1.0
  Fe  Fe13  1  0.101000  0.045110  0.842640  1.0
  Fe  Fe14  1  0.101000  0.454890  0.657360  1.0
  Fe  Fe15  1  0.101000  0.657360  0.045110  1.0
  Fe  Fe16  1  0.101000  0.842640  0.454890  1.0
  Ni  Ni17  1  0.897800  0.250000  0.250000  1
  Ni  Ni18  1  0.102200  0.750000  0.750000  1
  Ni  Ni19  1  0.448900  0.250000  0.250000  1
  Ni  Ni20  1  0.551100  0.750000  0.750000  1
  Ni  Ni21  1  0.171830  0.053960  0.352490  1.0
  Ni  Ni22  1  0.171830  0.446040  0.147510  1.0
  Ni  Ni23  1  0.171830  0.147510  0.053960  1.0
  Ni  Ni24  1  0.171830  0.352490  0.446040  1.0
  Ni  Ni25  1  0.828170  0.946040  0.647510  1.0
  Ni  Ni26  1  0.828170  0.553960  0.852490  1.0
  Ni  Ni27  1  0.828170  0.852490  0.946040  1.0
  Ni  Ni28  1  0.828170  0.647510  0.553960  1.0
  H  H29  1  0.406300  0.431600  0.497500  1
  H  H30  1  0.406300  0.068400  0.002500  1
  H  H31  1  0.406300  0.002500  0.431600  1
  H  H32  1  0.406300  0.497500  0.068400  1
  H  H33  1  0.593700  0.568400  0.502500  1
  H  H34  1  0.593700  0.931600  0.997500  1
  H  H35  1  0.593700  0.997500  0.568400  1
  H  H36  1  0.593700  0.502500  0.931600  1
  H  H37  1  0.448500  0.320600  0.511200  1
  H  H38  1  0.448500  0.179400  0.988800  1
  H  H39  1  0.448500  0.988800  0.320600  1
  H  H40  1  0.448500  0.511200  0.179400  1
  H  H41  1  0.551500  0.679400  0.488800  1
  H  H42  1  0.551500  0.820600  0.011200  1
  H  H43  1  0.551500  0.011200  0.679400  1
  H  H44  1  0.551500  0.488800  0.820600  1
  H  H45  1  0.485500  0.346500  0.486900  1
  H  H46  1  0.485500  0.153500  0.013100  1
  H  H47  1  0.485500  0.013100  0.346500  1
  H  H48  1  0.485500  0.486900  0.153500  1
  H  H49  1  0.514500  0.653500  0.513100  1
  H  H50  1  0.514500  0.846500  0.986900  1
  H  H51  1  0.514500  0.986900  0.653500  1
  H  H52  1  0.514500  0.513100  0.846500  1
  H  H53  1  0.436400  0.331800  0.467400  1
  H  H54  1  0.436400  0.168200  0.032600  1
  H  H55  1  0.436400  0.032600  0.331800  1
  H  H56  1  0.436400  0.467400  0.168200  1
  H  H57  1  0.563600  0.668200  0.532600  1
  H  H58  1  0.563600  0.831800  0.967400  1
  H  H59  1  0.563600  0.967400  0.668200  1
  H  H60  1  0.563600  0.532600  0.831800  1
  H  H61  1  0.412300  0.350000  0.556300  1
  H  H62  1  0.412300  0.150000  0.943700  1
  H  H63  1  0.412300  0.943700  0.350000  1
  H  H64  1  0.412300  0.556300  0.150000  1
  H  H65  1  0.587700  0.650000  0.443700  1
  H  H66  1  0.587700  0.850000  0.056300  1
  H  H67  1  0.587700  0.056300  0.650000  1
  H  H68  1  0.587700  0.443700  0.850000  1
  H  H69  1  0.373500  0.382500  0.545300  1
  H  H70  1  0.373500  0.117500  0.954700  1
  H  H71  1  0.373500  0.954700  0.382500  1
  H  H72  1  0.373500  0.545300  0.117500  1
  H  H73  1  0.626500  0.617500  0.454700  1
  H  H74  1  0.626500  0.882500  0.045300  1
  H  H75  1  0.626500  0.045300  0.617500  1
  H  H76  1  0.626500  0.454700  0.882500  1
  H  H77  1  0.425800  0.394700  0.560700  1
  H  H78  1  0.425800  0.105300  0.939300  1
  H  H79  1  0.425800  0.939300  0.394700  1
  H  H80  1  0.425800  0.560700  0.105300  1
  H  H81  1  0.574200  0.605300  0.439300  1
  H  H82  1  0.574200  0.894700  0.060700  1
  H  H83  1  0.574200  0.060700  0.605300  1
  H  H84  1  0.574200  0.439300  0.894700  1
  H  H85  1  0.206900  0.864600  0.189400  1
  H  H86  1  0.206900  0.635400  0.310600  1
  H  H87  1  0.206900  0.310600  0.864600  1
  H  H88  1  0.206900  0.189400  0.635400  1
  H  H89  1  0.793100  0.135400  0.810600  1
  H  H90  1  0.793100  0.364600  0.689400  1
  H  H91  1  0.793100  0.689400  0.135400  1
  H  H92  1  0.793100  0.810600  0.364600  1
  H  H93  1  0.124300  0.925700  0.122500  1
  H  H94  1  0.124300  0.574300  0.377500  1
  H  H95  1  0.124300  0.377500  0.925700  1
  H  H96  1  0.124300  0.122500  0.574300  1
  H  H97  1  0.875700  0.074300  0.877500  1
  H  H98  1  0.875700  0.425700  0.622500  1
  H  H99  1  0.875700  0.622500  0.074300  1
  H  H100  1  0.875700  0.877500  0.425700  1
  H  H101  1  0.180500  0.936200  0.119400  1
  H  H102  1  0.180500  0.563800  0.380600  1
  H  H103  1  0.180500  0.380600  0.936200  1
  H  H104  1  0.180500  0.119400  0.563800  1
  H  H105  1  0.819500  0.063800  0.880600  1
  H  H106  1  0.819500  0.436200  0.619400  1
  H  H107  1  0.819500  0.619400  0.063800  1
  H  H108  1  0.819500  0.880600  0.436200  1
  H  H109  1  0.148400  0.954100  0.153500  1
  H  H110  1  0.148400  0.545900  0.346500  1
  H  H111  1  0.148400  0.346500  0.954100  1
  H  H112  1  0.148400  0.153500  0.545900  1
  H  H113  1  0.851600  0.045900  0.846500  1
  H  H114  1  0.851600  0.454100  0.653500  1
  H  H115  1  0.851600  0.653500  0.045900  1
  H  H116  1  0.851600  0.846500  0.454100  1
  H  H117  1  0.108200  0.868000  0.141000  1
  H  H118  1  0.108200  0.632000  0.359000  1
  H  H119  1  0.108200  0.359000  0.868000  1
  H  H120  1  0.108200  0.141000  0.632000  1
  H  H121  1  0.891800  0.132000  0.859000  1
  H  H122  1  0.891800  0.368000  0.641000  1
  H  H123  1  0.891800  0.641000  0.132000  1
  H  H124  1  0.891800  0.859000  0.368000  1
  H  H125  1  0.123100  0.855200  0.183800  1
  H  H126  1  0.123100  0.644800  0.316200  1
  H  H127  1  0.123100  0.316200  0.855200  1
  H  H128  1  0.123100  0.183800  0.644800  1
  H  H129  1  0.876900  0.144800  0.816200  1
  H  H130  1  0.876900  0.355200  0.683800  1
  H  H131  1  0.876900  0.683800  0.144800  1
  H  H132  1  0.876900  0.816200  0.355200  1
  H  H133  1  0.154900  0.841500  0.147600  1
  H  H134  1  0.154900  0.658500  0.352400  1
  H  H135  1  0.154900  0.352400  0.841500  1
  H  H136  1  0.154900  0.147600  0.658500  1
  H  H137  1  0.845100  0.158500  0.852400  1
  H  H138  1  0.845100  0.341500  0.647600  1
  H  H139  1  0.845100  0.647600  0.158500  1
  H  H140  1  0.845100  0.852400  0.341500  1
  H  H141  1  0.716400  0.629100  0.443600  1
  H  H142  1  0.716400  0.870900  0.056400  1
  H  H143  1  0.716400  0.056400  0.629100  1
  H  H144  1  0.716400  0.443600  0.870900  1
  H  H145  1  0.283600  0.370900  0.556400  1
  H  H146  1  0.283600  0.129100  0.943600  1
  H  H147  1  0.283600  0.943600  0.370900  1
  H  H148  1  0.283600  0.556400  0.129100  1
  H  H149  1  0.761100  0.609800  0.421500  1
  H  H150  1  0.761100  0.890200  0.078500  1
  H  H151  1  0.761100  0.078500  0.609800  1
  H  H152  1  0.761100  0.421500  0.890200  1
  H  H153  1  0.238900  0.390200  0.578500  1
  H  H154  1  0.238900  0.109800  0.921500  1
  H  H155  1  0.238900  0.921500  0.390200  1
  H  H156  1  0.238900  0.578500  0.109800  1
  H  H157  1  0.770100  0.634400  0.460100  1
  H  H158  1  0.770100  0.865600  0.039900  1
  H  H159  1  0.770100  0.039900  0.634400  1
  H  H160  1  0.770100  0.460100  0.865600  1
  H  H161  1  0.229900  0.365600  0.539900  1
  H  H162  1  0.229900  0.134400  0.960100  1
  H  H163  1  0.229900  0.960100  0.365600  1
  H  H164  1  0.229900  0.539900  0.134400  1
  H  H165  1  0.730500  0.584900  0.498400  1
  H  H166  1  0.730500  0.915100  0.001600  1
  H  H167  1  0.730500  0.001600  0.584900  1
  H  H168  1  0.730500  0.498400  0.915100  1
  H  H169  1  0.269500  0.415100  0.501600  1
  H  H170  1  0.269500  0.084900  0.998400  1
  H  H171  1  0.269500  0.998400  0.415100  1
  H  H172  1  0.269500  0.501600  0.084900  1
  H  H173  1  0.719500  0.560300  0.459500  1
  H  H174  1  0.719500  0.939700  0.040500  1
  H  H175  1  0.719500  0.040500  0.560300  1
  H  H176  1  0.719500  0.459500  0.939700  1
  H  H177  1  0.280500  0.439700  0.540500  1
  H  H178  1  0.280500  0.060300  0.959500  1
  H  H179  1  0.280500  0.959500  0.439700  1
  H  H180  1  0.280500  0.540500  0.060300  1
  H  H181  1  0.783100  0.507400  0.477100  1
  H  H182  1  0.783100  0.992600  0.022900  1
  H  H183  1  0.783100  0.022900  0.507400  1
  H  H184  1  0.783100  0.477100  0.992600  1
  H  H185  1  0.216900  0.492600  0.522900  1
  H  H186  1  0.216900  0.007400  0.977100  1
  H  H187  1  0.216900  0.977100  0.492600  1
  H  H188  1  0.216900  0.522900  0.007400  1
  H  H189  1  0.780800  0.530100  0.517300  1
  H  H190  1  0.780800  0.969900  0.982700  1
  H  H191  1  0.780800  0.982700  0.530100  1
  H  H192  1  0.780800  0.517300  0.969900  1
  H  H193  1  0.219200  0.469900  0.482700  1
  H  H194  1  0.219200  0.030100  0.017300  1
  H  H195  1  0.219200  0.017300  0.469900  1
  H  H196  1  0.219200  0.482700  0.030100  1
  H  H197  1  0.853800  0.490400  0.509600  1
  H  H198  1  0.853800  0.009600  0.990400  1
  H  H199  1  0.853800  0.990400  0.490400  1
  H  H200  1  0.853800  0.509600  0.009600  1
  H  H201  1  0.146200  0.509600  0.490400  1
  H  H202  1  0.146200  0.990400  0.009600  1
  H  H203  1  0.146200  0.009600  0.509600  1
  H  H204  1  0.146200  0.490400  0.990400  1
  H  H205  1  0.865400  0.534300  0.520600  1
  H  H206  1  0.865400  0.965700  0.979400  1
  H  H207  1  0.865400  0.979400  0.534300  1
  H  H208  1  0.865400  0.520600  0.965700  1
  H  H209  1  0.134600  0.465700  0.479400  1
  H  H210  1  0.134600  0.034300  0.020600  1
  H  H211  1  0.134600  0.020600  0.465700  1
  H  H212  1  0.134600  0.479400  0.034300  1
  H  H213  1  0.871300  0.520000  0.476900  1
  H  H214  1  0.871300  0.980000  0.023100  1
  H  H215  1  0.871300  0.023100  0.520000  1
  H  H216  1  0.871300  0.476900  0.980000  1
  H  H217  1  0.128700  0.480000  0.523100  1
  H  H218  1  0.128700  0.020000  0.976900  1
  H  H219  1  0.128700  0.976900  0.480000  1
  H  H220  1  0.128700  0.523100  0.020000  1
  H  H221  1  0.545900  0.933700  0.119700  1.0
  H  H222  1  0.545900  0.566300  0.380300  1.0
  H  H223  1  0.545900  0.380300  0.933700  1.0
  H  H224  1  0.545900  0.119700  0.566300  1.0
  H  H225  1  0.454100  0.066300  0.880300  1.0
  H  H226  1  0.454100  0.433700  0.619700  1.0
  H  H227  1  0.454100  0.619700  0.066300  1.0
  H  H228  1  0.454100  0.880300  0.433700  1.0
  H  H229  1  0.623300  0.935000  0.138900  1.0
  H  H230  1  0.623300  0.565000  0.361100  1.0
  H  H231  1  0.623300  0.361100  0.935000  1.0
  H  H232  1  0.623300  0.138900  0.565000  1.0
  H  H233  1  0.376700  0.065000  0.861100  1.0
  H  H234  1  0.376700  0.435000  0.638900  1.0
  H  H235  1  0.376700  0.638900  0.065000  1.0
  H  H236  1  0.376700  0.861100  0.435000  1.0
  H  H237  1  0.646100  0.954900  0.200100  1.0
  H  H238  1  0.646100  0.545100  0.299900  1.0
  H  H239  1  0.646100  0.299900  0.954900  1.0
  H  H240  1  0.646100  0.200100  0.545100  1.0
  H  H241  1  0.353900  0.045100  0.799900  1.0
  H  H242  1  0.353900  0.454900  0.700100  1.0
  H  H243  1  0.353900  0.700100  0.045100  1.0
  H  H244  1  0.353900  0.799900  0.454900  1.0
  H  H245  1  0.584300  0.980700  0.243700  1.0
  H  H246  1  0.584300  0.519300  0.256300  1.0
  H  H247  1  0.584300  0.256300  0.980700  1.0
  H  H248  1  0.584300  0.243700  0.519300  1.0
  H  H249  1  0.415700  0.019300  0.756300  1.0
  H  H250  1  0.415700  0.480700  0.743700  1.0
  H  H251  1  0.415700  0.743700  0.019300  1.0
  H  H252  1  0.415700  0.756300  0.480700  1.0
  H  H253  1  0.489800  0.986000  0.255700  1.0
  H  H254  1  0.489800  0.514000  0.244300  1.0
  H  H255  1  0.489800  0.244300  0.986000  1.0
  H  H256  1  0.489800  0.255700  0.514000  1.0
  H  H257  1  0.510200  0.014000  0.744300  1.0
  H  H258  1  0.510200  0.486000  0.755700  1.0
  H  H259  1  0.510200  0.755700  0.014000  1.0
  H  H260  1  0.510200  0.744300  0.486000  1.0
  H  H261  1  0.410900  0.047000  0.228100  1.0
  H  H262  1  0.410900  0.453000  0.271900  1.0
  H  H263  1  0.410900  0.271900  0.047000  1.0
  H  H264  1  0.410900  0.228100  0.453000  1.0
  H  H265  1  0.589100  0.953000  0.771900  1.0
  H  H266  1  0.589100  0.547000  0.728100  1.0
  H  H267  1  0.589100  0.728100  0.953000  1.0
  H  H268  1  0.589100  0.771900  0.547000  1.0
  H  H269  1  0.340500  0.066900  0.260900  1.0
  H  H270  1  0.340500  0.433100  0.239100  1.0
  H  H271  1  0.340500  0.239100  0.066900  1.0
  H  H272  1  0.340500  0.260900  0.433100  1.0
  H  H273  1  0.659500  0.933100  0.739100  1.0
  H  H274  1  0.659500  0.566900  0.760900  1.0
  H  H275  1  0.659500  0.760900  0.933100  1.0
  H  H276  1  0.659500  0.739100  0.566900  1.0
  H  H277  1  0.308300  0.952400  0.284200  1.0
  H  H278  1  0.308300  0.547600  0.215800  1.0
  H  H279  1  0.308300  0.215800  0.952400  1.0
  H  H280  1  0.308300  0.284200  0.547600  1.0
  H  H281  1  0.691700  0.047600  0.715800  1.0
  H  H282  1  0.691700  0.452400  0.784200  1.0
  H  H283  1  0.691700  0.784200  0.047600  1.0
  H  H284  1  0.691700  0.715800  0.452400  1.0
  H  H285  1  0.380600  0.934300  0.252000  1.0
  H  H286  1  0.380600  0.565700  0.248000  1.0
  H  H287  1  0.380600  0.248000  0.934300  1.0
  H  H288  1  0.380600  0.252000  0.565700  1.0
  H  H289  1  0.619400  0.065700  0.748000  1.0
  H  H290  1  0.619400  0.434300  0.752000  1.0
  H  H291  1  0.619400  0.752000  0.065700  1.0
  H  H292  1  0.619400  0.748000  0.434300  1.0
  H  H293  1  0.242000  0.982500  0.234900  1.0
  H  H294  1  0.242000  0.517500  0.265100  1.0
  H  H295  1  0.242000  0.265100  0.982500  1.0
  H  H296  1  0.242000  0.234900  0.517500  1.0
  H  H297  1  0.758000  0.017500  0.765100  1.0
  H  H298  1  0.758000  0.482500  0.734900  1.0
  H  H299  1  0.758000  0.734900  0.017500  1.0
  H  H300  1  0.758000  0.765100  0.482500  1.0
  H  H301  1  0.153200  0.975900  0.224700  1.0
  H  H302  1  0.153200  0.524100  0.275300  1.0
  H  H303  1  0.153200  0.275300  0.975900  1.0
  H  H304  1  0.153200  0.224700  0.524100  1.0
  H  H305  1  0.846800  0.024100  0.775300  1.0
  H  H306  1  0.846800  0.475900  0.724700  1.0
  H  H307  1  0.846800  0.724700  0.024100  1.0
  H  H308  1  0.846800  0.775300  0.475900  1.0
  H  H309  1  0.032800  0.955200  0.284900  1.0
  H  H310  1  0.032800  0.544800  0.215100  1.0
  H  H311  1  0.032800  0.215100  0.955200  1.0
  H  H312  1  0.032800  0.284900  0.544800  1.0
  H  H313  1  0.967200  0.044800  0.715100  1.0
  H  H314  1  0.967200  0.455200  0.784900  1.0
  H  H315  1  0.967200  0.784900  0.044800  1.0
  H  H316  1  0.967200  0.715100  0.455200  1.0
  H  H317  1  0.983600  0.927400  0.236500  1.0
  H  H318  1  0.983600  0.572600  0.263500  1.0
  H  H319  1  0.983600  0.263500  0.927400  1.0
  H  H320  1  0.983600  0.236500  0.572600  1.0
  H  H321  1  0.016400  0.072600  0.763500  1.0
  H  H322  1  0.016400  0.427400  0.736500  1.0
  H  H323  1  0.016400  0.736500  0.072600  1.0
  H  H324  1  0.016400  0.763500  0.427400  1.0
  H  H325  1  0.032400  0.006900  0.158400  1.0
  H  H326  1  0.032400  0.493100  0.341600  1.0
  H  H327  1  0.032400  0.341600  0.006900  1.0
  H  H328  1  0.032400  0.158400  0.493100  1.0
  H  H329  1  0.967600  0.993100  0.841600  1.0
  H  H330  1  0.967600  0.506900  0.658400  1.0
  H  H331  1  0.967600  0.658400  0.993100  1.0
  H  H332  1  0.967600  0.841600  0.506900  1.0
  H  H333  1  0.082800  0.034800  0.206400  1.0
  H  H334  1  0.082800  0.465200  0.293600  1.0
  H  H335  1  0.082800  0.293600  0.034800  1.0
  H  H336  1  0.082800  0.206400  0.465200  1.0
  H  H337  1  0.917200  0.965200  0.793600  1.0
  H  H338  1  0.917200  0.534800  0.706400  1.0
  H  H339  1  0.917200  0.706400  0.965200  1.0
  H  H340  1  0.917200  0.793600  0.534800  1.0
  H  H341  1  0.025300  0.922000  0.137500  1.0
  H  H342  1  0.025300  0.578000  0.362500  1.0
  H  H343  1  0.025300  0.362500  0.922000  1.0
  H  H344  1  0.025300  0.137500  0.578000  1.0
  H  H345  1  0.974700  0.078000  0.862500  1.0
  H  H346  1  0.974700  0.422000  0.637500  1.0
  H  H347  1  0.974700  0.637500  0.078000  1.0
  H  H348  1  0.974700  0.862500  0.422000  1.0
  H  H349  1  0.010200  0.884600  0.070700  1.0
  H  H350  1  0.010200  0.615400  0.429300  1.0
  H  H351  1  0.010200  0.429300  0.884600  1.0
  H  H352  1  0.010200  0.070700  0.615400  1.0
  H  H353  1  0.989800  0.115400  0.929300  1.0
  H  H354  1  0.989800  0.384600  0.570700  1.0
  H  H355  1  0.989800  0.570700  0.115400  1.0
  H  H356  1  0.989800  0.929300  0.384600  1.0
  H  H357  1  0.955200  0.863200  0.024400  1.0
  H  H358  1  0.955200  0.636800  0.475600  1.0
  H  H359  1  0.955200  0.475600  0.863200  1.0
  H  H360  1  0.955200  0.024400  0.636800  1.0
  H  H361  1  0.044800  0.136800  0.975600  1.0
  H  H362  1  0.044800  0.363200  0.524400  1.0
  H  H363  1  0.044800  0.524400  0.136800  1.0
  H  H364  1  0.044800  0.975600  0.363200  1.0
  H  H365  1  0.871100  0.883400  0.029000  1.0
  H  H366  1  0.871100  0.616600  0.471000  1.0
  H  H367  1  0.871100  0.471000  0.883400  1.0
  H  H368  1  0.871100  0.029000  0.616600  1.0
  H  H369  1  0.128900  0.116600  0.971000  1.0
  H  H370  1  0.128900  0.383400  0.529000  1.0
  H  H371  1  0.128900  0.529000  0.116600  1.0
  H  H372  1  0.128900  0.971000  0.383400  1.0
  H  H373  1  0.847100  0.918300  0.084400  1.0
  H  H374  1  0.847100  0.581700  0.415600  1.0
  H  H375  1  0.847100  0.415600  0.918300  1.0
  H  H376  1  0.847100  0.084400  0.581700  1.0
  H  H377  1  0.152900  0.081700  0.915600  1.0
  H  H378  1  0.152900  0.418300  0.584400  1.0
  H  H379  1  0.152900  0.584400  0.081700  1.0
  H  H380  1  0.152900  0.915600  0.418300  1.0
  H  H381  1  0.998600  0.033900  0.299800  1.0
  H  H382  1  0.998600  0.466100  0.200200  1.0
  H  H383  1  0.998600  0.200200  0.033900  1.0
  H  H384  1  0.998600  0.299800  0.466100  1.0
  H  H385  1  0.001400  0.966100  0.700200  1.0
  H  H386  1  0.001400  0.533900  0.799800  1.0
  H  H387  1  0.001400  0.799800  0.966100  1.0
  H  H388  1  0.001400  0.700200  0.533900  1.0
  H  H389  1  0.985900  0.065500  0.362700  1.0
  H  H390  1  0.985900  0.434500  0.137300  1.0
  H  H391  1  0.985900  0.137300  0.065500  1.0
  H  H392  1  0.985900  0.362700  0.434500  1.0
  H  H393  1  0.014100  0.934500  0.637300  1.0
  H  H394  1  0.014100  0.565500  0.862700  1.0
  H  H395  1  0.014100  0.862700  0.934500  1.0
  H  H396  1  0.014100  0.637300  0.565500  1.0
  H  H397  1  0.102100  0.113800  0.478000  1.0
  H  H398  1  0.102100  0.386200  0.022000  1.0
  H  H399  1  0.102100  0.022000  0.113800  1.0
  H  H400  1  0.102100  0.478000  0.386200  1.0
  H  H401  1  0.897900  0.886200  0.522000  1.0
  H  H402  1  0.897900  0.613800  0.978000  1.0
  H  H403  1  0.897900  0.978000  0.886200  1.0
  H  H404  1  0.897900  0.522000  0.613800  1.0
  H  H405  1  0.189200  0.119500  0.486600  1.0
  H  H406  1  0.189200  0.380500  0.013400  1.0
  H  H407  1  0.189200  0.013400  0.119500  1.0
  H  H408  1  0.189200  0.486600  0.380500  1.0
  H  H409  1  0.810800  0.880500  0.513400  1.0
  H  H410  1  0.810800  0.619500  0.986600  1.0
  H  H411  1  0.810800  0.986600  0.880500  1.0
  H  H412  1  0.810800  0.513400  0.619500  1.0
  H  H413  1  0.037600  0.055600  0.475200  1.0
  H  H414  1  0.037600  0.444400  0.024800  1.0
  H  H415  1  0.037600  0.024800  0.055600  1.0
  H  H416  1  0.037600  0.475200  0.444400  1.0
  H  H417  1  0.962400  0.944400  0.524800  1.0
  H  H418  1  0.962400  0.555600  0.975200  1.0
  H  H419  1  0.962400  0.975200  0.944400  1.0
  H  H420  1  0.962400  0.524800  0.555600  1.0
  H  H421  1  0.967000  0.072900  0.511100  1.0
  H  H422  1  0.967000  0.427100  0.988900  1.0
  H  H423  1  0.967000  0.988900  0.072900  1.0
  H  H424  1  0.967000  0.511100  0.427100  1.0
  H  H425  1  0.033000  0.927100  0.488900  1.0
  H  H426  1  0.033000  0.572900  0.011100  1.0
  H  H427  1  0.033000  0.011100  0.927100  1.0
  H  H428  1  0.033000  0.488900  0.572900  1.0
  H  H429  1  0.931800  0.152400  0.429400  1.0
  H  H430  1  0.931800  0.347600  0.070600  1.0
  H  H431  1  0.931800  0.070600  0.152400  1.0
  H  H432  1  0.931800  0.429400  0.347600  1.0
  H  H433  1  0.068200  0.847600  0.570600  1.0
  H  H434  1  0.068200  0.652400  0.929400  1.0
  H  H435  1  0.068200  0.929400  0.847600  1.0
  H  H436  1  0.068200  0.570600  0.652400  1.0
  H  H437  1  0.002200  0.136800  0.394200  1.0
  H  H438  1  0.002200  0.363200  0.105800  1.0
  H  H439  1  0.002200  0.105800  0.136800  1.0
  H  H440  1  0.002200  0.394200  0.363200  1.0
  H  H441  1  0.997800  0.863200  0.605800  1.0
  H  H442  1  0.997800  0.636800  0.894200  1.0
  H  H443  1  0.997800  0.894200  0.863200  1.0
  H  H444  1  0.997800  0.605800  0.636800  1.0
  H  H445  1  0.855100  0.098800  0.460300  1.0
  H  H446  1  0.855100  0.401200  0.039700  1.0
  H  H447  1  0.855100  0.039700  0.098800  1.0
  H  H448  1  0.855100  0.460300  0.401200  1.0
  H  H449  1  0.144900  0.901200  0.539700  1.0
  H  H450  1  0.144900  0.598800  0.960300  1.0
  H  H451  1  0.144900  0.960300  0.901200  1.0
  H  H452  1  0.144900  0.539700  0.598800  1.0
  H  H453  1  0.762100  0.100400  0.474400  1.0
  H  H454  1  0.762100  0.399600  0.025600  1.0
  H  H455  1  0.762100  0.025600  0.100400  1.0
  H  H456  1  0.762100  0.474400  0.399600  1.0
  H  H457  1  0.237900  0.899600  0.525600  1.0
  H  H458  1  0.237900  0.600400  0.974400  1.0
  H  H459  1  0.237900  0.974400  0.899600  1.0
  H  H460  1  0.237900  0.525600  0.600400  1.0
  H  H461  1  0.699200  0.117200  0.518500  1.0
  H  H462  1  0.699200  0.382800  0.981500  1.0
  H  H463  1  0.699200  0.981500  0.117200  1.0
  H  H464  1  0.699200  0.518500  0.382800  1.0
  H  H465  1  0.300800  0.882800  0.481500  1.0
  H  H466  1  0.300800  0.617200  0.018500  1.0
  H  H467  1  0.300800  0.018500  0.882800  1.0
  H  H468  1  0.300800  0.481500  0.617200  1.0
  H  H469  1  0.897700  0.862800  0.157600  1.0
  H  H470  1  0.897700  0.637200  0.342400  1.0
  H  H471  1  0.897700  0.342400  0.862800  1.0
  H  H472  1  0.897700  0.157600  0.637200  1.0
  H  H473  1  0.102300  0.137200  0.842400  1.0
  H  H474  1  0.102300  0.362800  0.657600  1.0
  H  H475  1  0.102300  0.657600  0.137200  1.0
  H  H476  1  0.102300  0.842400  0.362800  1.0
  H  H477  1  0.879000  0.814700  0.203200  1.0
  H  H478  1  0.879000  0.685300  0.296800  1.0
  H  H479  1  0.879000  0.296800  0.814700  1.0
  H  H480  1  0.879000  0.203200  0.685300  1.0
  H  H481  1  0.121000  0.185300  0.796800  1.0
  H  H482  1  0.121000  0.314700  0.703200  1.0
  H  H483  1  0.121000  0.703200  0.185300  1.0
  H  H484  1  0.121000  0.796800  0.314700  1.0
  H  H485  1  0.861900  0.831400  0.267300  1.0
  H  H486  1  0.861900  0.668600  0.232700  1.0
  H  H487  1  0.861900  0.232700  0.831400  1.0
  H  H488  1  0.861900  0.267300  0.668600  1.0
  H  H489  1  0.138100  0.168600  0.732700  1.0
  H  H490  1  0.138100  0.331400  0.767300  1.0
  H  H491  1  0.138100  0.767300  0.168600  1.0
  H  H492  1  0.138100  0.732700  0.331400  1.0
  H  H493  1  0.855000  0.899000  0.283100  1.0
  H  H494  1  0.855000  0.601000  0.216900  1.0
  H  H495  1  0.855000  0.216900  0.899000  1.0
  H  H496  1  0.855000  0.283100  0.601000  1.0
  H  H497  1  0.145000  0.101000  0.716900  1.0
  H  H498  1  0.145000  0.399000  0.783100  1.0
  H  H499  1  0.145000  0.783100  0.101000  1.0
  H  H500  1  0.145000  0.716900  0.399000  1.0
  H  H501  1  0.873000  0.971900  0.262200  1.0
  H  H502  1  0.873000  0.528100  0.237800  1.0
  H  H503  1  0.873000  0.237800  0.971900  1.0
  H  H504  1  0.873000  0.262200  0.528100  1.0
  H  H505  1  0.127000  0.028100  0.737800  1.0
  H  H506  1  0.127000  0.471900  0.762200  1.0
  H  H507  1  0.127000  0.762200  0.028100  1.0
  H  H508  1  0.127000  0.737800  0.471900  1.0
  H  H509  1  0.958200  0.025500  0.239200  1.0
  H  H510  1  0.958200  0.474500  0.260800  1.0
  H  H511  1  0.958200  0.260800  0.025500  1.0
  H  H512  1  0.958200  0.239200  0.474500  1.0
  H  H513  1  0.041800  0.974500  0.760800  1.0
  H  H514  1  0.041800  0.525500  0.739200  1.0
  H  H515  1  0.041800  0.739200  0.974500  1.0
  H  H516  1  0.041800  0.760800  0.525500  1.0
  H  H517  1  0.962500  0.093700  0.248100  1.0
  H  H518  1  0.962500  0.406300  0.251900  1.0
  H  H519  1  0.962500  0.251900  0.093700  1.0
  H  H520  1  0.962500  0.248100  0.406300  1.0
  H  H521  1  0.037500  0.906300  0.751900  1.0
  H  H522  1  0.037500  0.593700  0.748100  1.0
  H  H523  1  0.037500  0.748100  0.906300  1.0
  H  H524  1  0.037500  0.751900  0.593700  1.0
  H  H525  1  0.826500  0.106100  0.205800  1.0
  H  H526  1  0.826500  0.393900  0.294200  1.0
  H  H527  1  0.826500  0.294200  0.106100  1.0
  H  H528  1  0.826500  0.205800  0.393900  1.0
  H  H529  1  0.173500  0.893900  0.794200  1.0
  H  H530  1  0.173500  0.606100  0.705800  1.0
  H  H531  1  0.173500  0.705800  0.893900  1.0
  H  H532  1  0.173500  0.794200  0.606100  1.0
  H  H533  1  0.822400  0.037000  0.193300  1.0
  H  H534  1  0.822400  0.463000  0.306700  1.0
  H  H535  1  0.822400  0.306700  0.037000  1.0
  H  H536  1  0.822400  0.193300  0.463000  1.0
  H  H537  1  0.177600  0.963000  0.806700  1.0
  H  H538  1  0.177600  0.537000  0.693300  1.0
  H  H539  1  0.177600  0.693300  0.963000  1.0
  H  H540  1  0.177600  0.806700  0.537000  1.0
  H  H541  1  0.896600  0.111500  0.305700  1.0
  H  H542  1  0.896600  0.388500  0.194300  1.0
  H  H543  1  0.896600  0.194300  0.111500  1.0
  H  H544  1  0.896600  0.305700  0.388500  1.0
  H  H545  1  0.103400  0.888500  0.694300  1.0
  H  H546  1  0.103400  0.611500  0.805700  1.0
  H  H547  1  0.103400  0.805700  0.888500  1.0
  H  H548  1  0.103400  0.694300  0.611500  1.0
  H  H549  1  0.895000  0.135700  0.153300  1.0
  H  H550  1  0.895000  0.364300  0.346700  1.0
  H  H551  1  0.895000  0.346700  0.135700  1.0
  H  H552  1  0.895000  0.153300  0.364300  1.0
  H  H553  1  0.105000  0.864300  0.846700  1.0
  H  H554  1  0.105000  0.635700  0.653300  1.0
  H  H555  1  0.105000  0.653300  0.864300  1.0
  H  H556  1  0.105000  0.846700  0.635700  1.0
  H  H557  1  0.797000  0.172200  0.585200  1.0
  H  H558  1  0.797000  0.327800  0.914800  1.0
  H  H559  1  0.797000  0.914800  0.172200  1.0
  H  H560  1  0.797000  0.585200  0.327800  1.0
  H  H561  1  0.203000  0.827800  0.414800  1.0
  H  H562  1  0.203000  0.672200  0.085200  1.0
  H  H563  1  0.203000  0.085200  0.827800  1.0
  H  H564  1  0.203000  0.414800  0.672200  1.0
  H  H565  1  0.716800  0.154600  0.570900  1.0
  H  H566  1  0.716800  0.345400  0.929100  1.0
  H  H567  1  0.716800  0.929100  0.154600  1.0
  H  H568  1  0.716800  0.570900  0.345400  1.0
  H  H569  1  0.283200  0.845400  0.429100  1.0
  H  H570  1  0.283200  0.654600  0.070900  1.0
  H  H571  1  0.283200  0.070900  0.845400  1.0
  H  H572  1  0.283200  0.429100  0.654600  1.0
  H  H573  1  0.442700  0.879400  0.108100  1.0
  H  H574  1  0.442700  0.620600  0.391900  1.0
  H  H575  1  0.442700  0.391900  0.879400  1.0
  H  H576  1  0.442700  0.108100  0.620600  1.0
  H  H577  1  0.557300  0.120600  0.891900  1.0
  H  H578  1  0.557300  0.379400  0.608100  1.0
  H  H579  1  0.557300  0.608100  0.120600  1.0
  H  H580  1  0.557300  0.891900  0.379400  1.0
  H  H581  1  0.450600  0.865400  0.039600  1.0
  H  H582  1  0.450600  0.634600  0.460400  1.0
  H  H583  1  0.450600  0.460400  0.865400  1.0
  H  H584  1  0.450600  0.039600  0.634600  1.0
  H  H585  1  0.549400  0.134600  0.960400  1.0
  H  H586  1  0.549400  0.365400  0.539600  1.0
  H  H587  1  0.549400  0.539600  0.134600  1.0
  H  H588  1  0.549400  0.960400  0.365400  1.0
  H  H589  1  0.464800  0.915700  0.996500  1.0
  H  H590  1  0.464800  0.584300  0.503500  1.0
  H  H591  1  0.464800  0.503500  0.915700  1.0
  H  H592  1  0.464800  0.996500  0.584300  1.0
  H  H593  1  0.535200  0.084300  0.003500  1.0
  H  H594  1  0.535200  0.415700  0.496500  1.0
  H  H595  1  0.535200  0.496500  0.084300  1.0
  H  H596  1  0.535200  0.003500  0.415700  1.0
  H  H597  1  0.469300  0.980100  0.018500  1.0
  H  H598  1  0.469300  0.519900  0.481500  1.0
  H  H599  1  0.469300  0.481500  0.980100  1.0
  H  H600  1  0.469300  0.018500  0.519900  1.0
  H  H601  1  0.530700  0.019900  0.981500  1.0
  H  H602  1  0.530700  0.480100  0.518500  1.0
  H  H603  1  0.530700  0.518500  0.019900  1.0
  H  H604  1  0.530700  0.981500  0.480100  1.0
  H  H605  1  0.465900  0.028100  0.079200  1.0
  H  H606  1  0.465900  0.471900  0.420800  1.0
  H  H607  1  0.465900  0.420800  0.028100  1.0
  H  H608  1  0.465900  0.079200  0.471900  1.0
  H  H609  1  0.534100  0.971900  0.920800  1.0
  H  H610  1  0.534100  0.528100  0.579200  1.0
  H  H611  1  0.534100  0.579200  0.971900  1.0
  H  H612  1  0.534100  0.920800  0.528100  1.0
  H  H613  1  0.521100  0.043000  0.173500  1.0
  H  H614  1  0.521100  0.457000  0.326500  1.0
  H  H615  1  0.521100  0.326500  0.043000  1.0
  H  H616  1  0.521100  0.173500  0.457000  1.0
  H  H617  1  0.478900  0.957000  0.826500  1.0
  H  H618  1  0.478900  0.543000  0.673500  1.0
  H  H619  1  0.478900  0.673500  0.957000  1.0
  H  H620  1  0.478900  0.826500  0.543000  1.0
  H  H621  1  0.519200  0.104700  0.204200  1.0
  H  H622  1  0.519200  0.395300  0.295800  1.0
  H  H623  1  0.519200  0.295800  0.104700  1.0
  H  H624  1  0.519200  0.204200  0.395300  1.0
  H  H625  1  0.480800  0.895300  0.795800  1.0
  H  H626  1  0.480800  0.604700  0.704200  1.0
  H  H627  1  0.480800  0.704200  0.895300  1.0
  H  H628  1  0.480800  0.795800  0.604700  1.0
  H  H629  1  0.383400  0.121300  0.164200  1.0
  H  H630  1  0.383400  0.378700  0.335800  1.0
  H  H631  1  0.383400  0.335800  0.121300  1.0
  H  H632  1  0.383400  0.164200  0.378700  1.0
  H  H633  1  0.616600  0.878700  0.835800  1.0
  H  H634  1  0.616600  0.621300  0.664200  1.0
  H  H635  1  0.616600  0.664200  0.878700  1.0
  H  H636  1  0.616600  0.835800  0.621300  1.0
  H  H637  1  0.383800  0.060500  0.133200  1.0
  H  H638  1  0.383800  0.439500  0.366800  1.0
  H  H639  1  0.383800  0.366800  0.060500  1.0
  H  H640  1  0.383800  0.133200  0.439500  1.0
  H  H641  1  0.616200  0.939500  0.866800  1.0
  H  H642  1  0.616200  0.560500  0.633200  1.0
  H  H643  1  0.616200  0.633200  0.939500  1.0
  H  H644  1  0.616200  0.866800  0.560500  1.0
  H  H645  1  0.448900  0.100900  0.263700  1.0
  H  H646  1  0.448900  0.399100  0.236300  1.0
  H  H647  1  0.448900  0.236300  0.100900  1.0
  H  H648  1  0.448900  0.263700  0.399100  1.0
  H  H649  1  0.551100  0.899100  0.736300  1.0
  H  H650  1  0.551100  0.600900  0.763700  1.0
  H  H651  1  0.551100  0.763700  0.899100  1.0
  H  H652  1  0.551100  0.736300  0.600900  1.0
  H  H653  1  0.449900  0.124500  0.332100  1.0
  H  H654  1  0.449900  0.375500  0.167900  1.0
  H  H655  1  0.449900  0.167900  0.124500  1.0
  H  H656  1  0.449900  0.332100  0.375500  1.0
  H  H657  1  0.550100  0.875500  0.667900  1.0
  H  H658  1  0.550100  0.624500  0.832100  1.0
  H  H659  1  0.550100  0.832100  0.875500  1.0
  H  H660  1  0.550100  0.667900  0.624500  1.0
  H  H661  1  0.496400  0.192000  0.619000  1.0
  H  H662  1  0.496400  0.308000  0.881000  1.0
  H  H663  1  0.496400  0.881000  0.192000  1.0
  H  H664  1  0.496400  0.619000  0.308000  1.0
  H  H665  1  0.503600  0.808000  0.381000  1.0
  H  H666  1  0.503600  0.692000  0.119000  1.0
  H  H667  1  0.503600  0.119000  0.808000  1.0
  H  H668  1  0.503600  0.381000  0.692000  1.0
  H  H669  1  0.471700  0.216400  0.678800  1.0
  H  H670  1  0.471700  0.283600  0.821200  1.0
  H  H671  1  0.471700  0.821200  0.216400  1.0
  H  H672  1  0.471700  0.678800  0.283600  1.0
  H  H673  1  0.528300  0.783600  0.321200  1.0
  H  H674  1  0.528300  0.716400  0.178800  1.0
  H  H675  1  0.528300  0.178800  0.783600  1.0
  H  H676  1  0.528300  0.321200  0.716400  1.0
  H  H677  1  0.387400  0.222500  0.693100  1.0
  H  H678  1  0.387400  0.277500  0.806900  1.0
  H  H679  1  0.387400  0.806900  0.222500  1.0
  H  H680  1  0.387400  0.693100  0.277500  1.0
  H  H681  1  0.612600  0.777500  0.306900  1.0
  H  H682  1  0.612600  0.722500  0.193100  1.0
  H  H683  1  0.612600  0.193100  0.777500  1.0
  H  H684  1  0.612600  0.306900  0.722500  1.0
  H  H685  1  0.330200  0.194200  0.650300  1.0
  H  H686  1  0.330200  0.305800  0.849700  1.0
  H  H687  1  0.330200  0.849700  0.194200  1.0
  H  H688  1  0.330200  0.650300  0.305800  1.0
  H  H689  1  0.669800  0.805800  0.349700  1.0
  H  H690  1  0.669800  0.694200  0.150300  1.0
  H  H691  1  0.669800  0.150300  0.805800  1.0
  H  H692  1  0.669800  0.349700  0.694200  1.0
  H  H693  1  0.315700  0.163400  0.580900  1.0
  H  H694  1  0.315700  0.336600  0.919100  1.0
  H  H695  1  0.315700  0.919100  0.163400  1.0
  H  H696  1  0.315700  0.580900  0.336600  1.0
  H  H697  1  0.684300  0.836600  0.419100  1.0
  H  H698  1  0.684300  0.663400  0.080900  1.0
  H  H699  1  0.684300  0.080900  0.836600  1.0
  H  H700  1  0.684300  0.419100  0.663400  1.0
  H  H701  1  0.359500  0.080700  0.522500  1.0
  H  H702  1  0.359500  0.419300  0.977500  1.0
  H  H703  1  0.359500  0.977500  0.080700  1.0
  H  H704  1  0.359500  0.522500  0.419300  1.0
  H  H705  1  0.640500  0.919300  0.477500  1.0
  H  H706  1  0.640500  0.580700  0.022500  1.0
  H  H707  1  0.640500  0.022500  0.919300  1.0
  H  H708  1  0.640500  0.477500  0.580700  1.0
  H  H709  1  0.309400  0.056500  0.472300  1.0
  H  H710  1  0.309400  0.443500  0.027700  1.0
  H  H711  1  0.309400  0.027700  0.056500  1.0
  H  H712  1  0.309400  0.472300  0.443500  1.0
  H  H713  1  0.690600  0.943500  0.527700  1.0
  H  H714  1  0.690600  0.556500  0.972300  1.0
  H  H715  1  0.690600  0.972300  0.943500  1.0
  H  H716  1  0.690600  0.527700  0.556500  1.0
  H  H717  1  0.260800  0.165200  0.449300  1.0
  H  H718  1  0.260800  0.334800  0.050700  1.0
  H  H719  1  0.260800  0.050700  0.165200  1.0
  H  H720  1  0.260800  0.449300  0.334800  1.0
  H  H721  1  0.739200  0.834800  0.550700  1.0
  H  H722  1  0.739200  0.665200  0.949300  1.0
  H  H723  1  0.739200  0.949300  0.834800  1.0
  H  H724  1  0.739200  0.550700  0.665200  1.0
  H  H725  1  0.312300  0.189900  0.499200  1.0
  H  H726  1  0.312300  0.310100  0.000800  1.0
  H  H727  1  0.312300  0.000800  0.189900  1.0
  H  H728  1  0.312300  0.499200  0.310100  1.0
  H  H729  1  0.687700  0.810100  0.500800  1.0
  H  H730  1  0.687700  0.689900  0.999200  1.0
  H  H731  1  0.687700  0.999200  0.810100  1.0
  H  H732  1  0.687700  0.500800  0.689900  1.0
  H  H733  1  0.344200  0.100000  0.400000  1.0
  H  H734  1  0.344200  0.400000  0.100000  1.0
  H  H735  1  0.344200  0.100000  0.100000  1.0
  H  H736  1  0.344200  0.400000  0.400000  1.0
  H  H737  1  0.655800  0.900000  0.600000  1.0
  H  H738  1  0.655800  0.600000  0.900000  1.0
  H  H739  1  0.655800  0.900000  0.900000  1.0
  H  H740  1  0.655800  0.600000  0.600000  1.0
  H  H741  1  0.357200  0.049800  0.338300  1.0
  H  H742  1  0.357200  0.450200  0.161700  1.0
  H  H743  1  0.357200  0.161700  0.049800  1.0
  H  H744  1  0.357200  0.338300  0.450200  1.0
  H  H745  1  0.642800  0.950200  0.661700  1.0
  H  H746  1  0.642800  0.549800  0.838300  1.0
  H  H747  1  0.642800  0.838300  0.950200  1.0
  H  H748  1  0.642800  0.661700  0.549800  1.0
  C  C749  1  0.352500  0.966600  0.536600  1
  C  C750  1  0.352500  0.533400  0.963400  1
  C  C751  1  0.352500  0.963400  0.966600  1
  C  C752  1  0.352500  0.536600  0.533400  1
  C  C753  1  0.647500  0.033400  0.463400  1
  C  C754  1  0.647500  0.466600  0.036600  1
  C  C755  1  0.647500  0.036600  0.033400  1
  C  C756  1  0.647500  0.463400  0.466600  1
  C  C757  1  0.900600  0.098100  0.992100  1
  C  C758  1  0.900600  0.401900  0.507900  1
  C  C759  1  0.900600  0.507900  0.098100  1
  C  C760  1  0.900600  0.992100  0.401900  1
  C  C761  1  0.099400  0.901900  0.007900  1
  C  C762  1  0.099400  0.598100  0.492100  1
  C  C763  1  0.099400  0.492100  0.901900  1
  C  C764  1  0.099400  0.007900  0.598100  1
  C  C765  1  0.520200  0.799200  0.128600  1
  C  C766  1  0.520200  0.700800  0.371400  1
  C  C767  1  0.520200  0.371400  0.799200  1
  C  C768  1  0.520200  0.128600  0.700800  1
  C  C769  1  0.479800  0.200800  0.871400  1
  C  C770  1  0.479800  0.299200  0.628600  1
  C  C771  1  0.479800  0.628600  0.200800  1
  C  C772  1  0.479800  0.871400  0.299200  1
  C  C773  1  0.009000  0.315100  0.772800  1
  C  C774  1  0.009000  0.184900  0.727200  1
  C  C775  1  0.009000  0.727200  0.315100  1
  C  C776  1  0.009000  0.772800  0.184900  1
  C  C777  1  0.991000  0.684900  0.227200  1
  C  C778  1  0.991000  0.815100  0.272800  1
  C  C779  1  0.991000  0.272800  0.684900  1
  C  C780  1  0.991000  0.227200  0.815100  1
  C  C781  1  0.422000  0.410200  0.486100  1
  C  C782  1  0.422000  0.089800  0.013900  1
  C  C783  1  0.422000  0.013900  0.410200  1
  C  C784  1  0.422000  0.486100  0.089800  1
  C  C785  1  0.578000  0.589800  0.513900  1
  C  C786  1  0.578000  0.910200  0.986100  1
  C  C787  1  0.578000  0.986100  0.589800  1
  C  C788  1  0.578000  0.513900  0.910200  1
  C  C789  1  0.451000  0.341000  0.491500  1
  C  C790  1  0.451000  0.159000  0.008500  1
  C  C791  1  0.451000  0.008500  0.341000  1
  C  C792  1  0.451000  0.491500  0.159000  1
  C  C793  1  0.549000  0.659000  0.508500  1
  C  C794  1  0.549000  0.841000  0.991500  1
  C  C795  1  0.549000  0.991500  0.659000  1
  C  C796  1  0.549000  0.508500  0.841000  1
  C  C797  1  0.408000  0.376000  0.545200  1
  C  C798  1  0.408000  0.124000  0.954800  1
  C  C799  1  0.408000  0.954800  0.376000  1
  C  C800  1  0.408000  0.545200  0.124000  1
  C  C801  1  0.592000  0.624000  0.454800  1
  C  C802  1  0.592000  0.876000  0.045200  1
  C  C803  1  0.592000  0.045200  0.624000  1
  C  C804  1  0.592000  0.454800  0.876000  1
  C  C805  1  0.206000  0.891000  0.183000  1
  C  C806  1  0.206000  0.609000  0.317000  1
  C  C807  1  0.206000  0.317000  0.891000  1
  C  C808  1  0.206000  0.183000  0.609000  1
  C  C809  1  0.794000  0.109000  0.817000  1
  C  C810  1  0.794000  0.391000  0.683000  1
  C  C811  1  0.794000  0.683000  0.109000  1
  C  C812  1  0.794000  0.817000  0.391000  1
  C  C813  1  0.154000  0.931000  0.137000  1
  C  C814  1  0.154000  0.569000  0.363000  1
  C  C815  1  0.154000  0.363000  0.931000  1
  C  C816  1  0.154000  0.137000  0.569000  1
  C  C817  1  0.846000  0.069000  0.863000  1
  C  C818  1  0.846000  0.431000  0.637000  1
  C  C819  1  0.846000  0.637000  0.069000  1
  C  C820  1  0.846000  0.863000  0.431000  1
  C  C821  1  0.135000  0.863000  0.158000  1
  C  C822  1  0.135000  0.637000  0.342000  1
  C  C823  1  0.135000  0.342000  0.863000  1
  C  C824  1  0.135000  0.158000  0.637000  1
  C  C825  1  0.865000  0.137000  0.842000  1
  C  C826  1  0.865000  0.363000  0.658000  1
  C  C827  1  0.865000  0.658000  0.137000  1
  C  C828  1  0.865000  0.842000  0.363000  1
  C  C829  1  0.748000  0.617000  0.447000  1
  C  C830  1  0.748000  0.883000  0.053000  1
  C  C831  1  0.748000  0.053000  0.617000  1
  C  C832  1  0.748000  0.447000  0.883000  1
  C  C833  1  0.252000  0.383000  0.553000  1
  C  C834  1  0.252000  0.117000  0.947000  1
  C  C835  1  0.252000  0.947000  0.383000  1
  C  C836  1  0.252000  0.553000  0.117000  1
  C  C837  1  0.742000  0.579000  0.472000  1
  C  C838  1  0.742000  0.921000  0.028000  1
  C  C839  1  0.742000  0.028000  0.579000  1
  C  C840  1  0.742000  0.472000  0.921000  1
  C  C841  1  0.258000  0.421000  0.528000  1
  C  C842  1  0.258000  0.079000  0.972000  1
  C  C843  1  0.258000  0.972000  0.421000  1
  C  C844  1  0.258000  0.528000  0.079000  1
  C  C845  1  0.798000  0.528000  0.492000  1
  C  C846  1  0.798000  0.972000  0.008000  1
  C  C847  1  0.798000  0.008000  0.528000  1
  C  C848  1  0.798000  0.492000  0.972000  1
  C  C849  1  0.202000  0.472000  0.508000  1
  C  C850  1  0.202000  0.028000  0.992000  1
  C  C851  1  0.202000  0.992000  0.472000  1
  C  C852  1  0.202000  0.508000  0.028000  1
  C  C853  1  0.852000  0.517000  0.501000  1
  C  C854  1  0.852000  0.983000  0.999000  1
  C  C855  1  0.852000  0.999000  0.517000  1
  C  C856  1  0.852000  0.501000  0.983000  1
  C  C857  1  0.148000  0.483000  0.499000  1
  C  C858  1  0.148000  0.017000  0.001000  1
  C  C859  1  0.148000  0.001000  0.483000  1
  C  C860  1  0.148000  0.499000  0.017000  1
  C  C861  1  0.447800  0.191000  0.183100  1.0
  C  C862  1  0.447800  0.309000  0.316900  1.0
  C  C863  1  0.447800  0.316900  0.191000  1.0
  C  C864  1  0.447800  0.183100  0.309000  1.0
  C  C865  1  0.552200  0.809000  0.816900  1.0
  C  C866  1  0.552200  0.691000  0.683100  1.0
  C  C867  1  0.552200  0.683100  0.809000  1.0
  C  C868  1  0.552200  0.816900  0.691000  1.0
  C  C869  1  0.552900  0.942100  0.145300  1.0
  C  C870  1  0.552900  0.557900  0.354700  1.0
  C  C871  1  0.552900  0.354700  0.942100  1.0
  C  C872  1  0.552900  0.145300  0.557900  1.0
  C  C873  1  0.447100  0.057900  0.854700  1.0
  C  C874  1  0.447100  0.442100  0.645300  1.0
  C  C875  1  0.447100  0.645300  0.057900  1.0
  C  C876  1  0.447100  0.854700  0.442100  1.0
  C  C877  1  0.599000  0.943000  0.156600  1.0
  C  C878  1  0.599000  0.557000  0.343400  1.0
  C  C879  1  0.599000  0.343400  0.943000  1.0
  C  C880  1  0.599000  0.156600  0.557000  1.0
  C  C881  1  0.401000  0.057000  0.843400  1.0
  C  C882  1  0.401000  0.443000  0.656600  1.0
  C  C883  1  0.401000  0.656600  0.057000  1.0
  C  C884  1  0.401000  0.843400  0.443000  1.0
  C  C885  1  0.613100  0.956000  0.193000  1.0
  C  C886  1  0.613100  0.544000  0.307000  1.0
  C  C887  1  0.613100  0.307000  0.956000  1.0
  C  C888  1  0.613100  0.193000  0.544000  1.0
  C  C889  1  0.386900  0.044000  0.807000  1.0
  C  C890  1  0.386900  0.456000  0.693000  1.0
  C  C891  1  0.386900  0.693000  0.044000  1.0
  C  C892  1  0.386900  0.807000  0.456000  1.0
  C  C893  1  0.576500  0.970000  0.219200  1.0
  C  C894  1  0.576500  0.530000  0.280800  1.0
  C  C895  1  0.576500  0.280800  0.970000  1.0
  C  C896  1  0.576500  0.219200  0.530000  1.0
  C  C897  1  0.423500  0.030000  0.780800  1.0
  C  C898  1  0.423500  0.470000  0.719200  1.0
  C  C899  1  0.423500  0.719200  0.030000  1.0
  C  C900  1  0.423500  0.780800  0.470000  1.0
  C  C901  1  0.527100  0.966700  0.205400  1.0
  C  C902  1  0.527100  0.533300  0.294600  1.0
  C  C903  1  0.527100  0.294600  0.966700  1.0
  C  C904  1  0.527100  0.205400  0.533300  1.0
  C  C905  1  0.472900  0.033300  0.794600  1.0
  C  C906  1  0.472900  0.466700  0.705400  1.0
  C  C907  1  0.472900  0.705400  0.033300  1.0
  C  C908  1  0.472900  0.794600  0.466700  1.0
  C  C909  1  0.486000  0.977800  0.229700  1.0
  C  C910  1  0.486000  0.522200  0.270300  1.0
  C  C911  1  0.486000  0.270300  0.977800  1.0
  C  C912  1  0.486000  0.229700  0.522200  1.0
  C  C913  1  0.514000  0.022200  0.770300  1.0
  C  C914  1  0.514000  0.477800  0.729700  1.0
  C  C915  1  0.514000  0.729700  0.022200  1.0
  C  C916  1  0.514000  0.770300  0.477800  1.0
  C  C917  1  0.401200  0.988400  0.235700  1.0
  C  C918  1  0.401200  0.511600  0.264300  1.0
  C  C919  1  0.401200  0.264300  0.988400  1.0
  C  C920  1  0.401200  0.235700  0.511600  1.0
  C  C921  1  0.598800  0.011600  0.764300  1.0
  C  C922  1  0.598800  0.488400  0.735700  1.0
  C  C923  1  0.598800  0.735700  0.011600  1.0
  C  C924  1  0.598800  0.764300  0.488400  1.0
  C  C925  1  0.390100  0.028200  0.239300  1.0
  C  C926  1  0.390100  0.471800  0.260700  1.0
  C  C927  1  0.390100  0.260700  0.028200  1.0
  C  C928  1  0.390100  0.239300  0.471800  1.0
  C  C929  1  0.609900  0.971800  0.760700  1.0
  C  C930  1  0.609900  0.528200  0.739300  1.0
  C  C931  1  0.609900  0.739300  0.971800  1.0
  C  C932  1  0.609900  0.760700  0.528200  1.0
  C  C933  1  0.348200  0.040200  0.259400  1.0
  C  C934  1  0.348200  0.459800  0.240600  1.0
  C  C935  1  0.348200  0.240600  0.040200  1.0
  C  C936  1  0.348200  0.259400  0.459800  1.0
  C  C937  1  0.651800  0.959800  0.740600  1.0
  C  C938  1  0.651800  0.540200  0.759400  1.0
  C  C939  1  0.651800  0.759400  0.959800  1.0
  C  C940  1  0.651800  0.740600  0.540200  1.0
  C  C941  1  0.317000  0.011900  0.277500  1.0
  C  C942  1  0.317000  0.488100  0.222500  1.0
  C  C943  1  0.317000  0.222500  0.011900  1.0
  C  C944  1  0.317000  0.277500  0.488100  1.0
  C  C945  1  0.683000  0.988100  0.722500  1.0
  C  C946  1  0.683000  0.511900  0.777500  1.0
  C  C947  1  0.683000  0.777500  0.988100  1.0
  C  C948  1  0.683000  0.722500  0.511900  1.0
  C  C949  1  0.328900  0.971600  0.273500  1.0
  C  C950  1  0.328900  0.528400  0.226500  1.0
  C  C951  1  0.328900  0.226500  0.971600  1.0
  C  C952  1  0.328900  0.273500  0.528400  1.0
  C  C953  1  0.671100  0.028400  0.726500  1.0
  C  C954  1  0.671100  0.471600  0.773500  1.0
  C  C955  1  0.671100  0.773500  0.028400  1.0
  C  C956  1  0.671100  0.726500  0.471600  1.0
  C  C957  1  0.371900  0.960800  0.253400  1.0
  C  C958  1  0.371900  0.539200  0.246600  1.0
  C  C959  1  0.371900  0.246600  0.960800  1.0
  C  C960  1  0.371900  0.253400  0.539200  1.0
  C  C961  1  0.628100  0.039200  0.746600  1.0
  C  C962  1  0.628100  0.460800  0.753400  1.0
  C  C963  1  0.628100  0.753400  0.039200  1.0
  C  C964  1  0.628100  0.746600  0.460800  1.0
  C  C965  1  0.272300  0.025600  0.299600  1.0
  C  C966  1  0.272300  0.474400  0.200400  1.0
  C  C967  1  0.272300  0.200400  0.025600  1.0
  C  C968  1  0.272300  0.299600  0.474400  1.0
  C  C969  1  0.727700  0.974400  0.700400  1.0
  C  C970  1  0.727700  0.525600  0.799600  1.0
  C  C971  1  0.727700  0.799600  0.974400  1.0
  C  C972  1  0.727700  0.700400  0.525600  1.0
  C  C973  1  0.279500  0.046000  0.333333  1.0
  C  C974  1  0.279500  0.454000  0.166667  1.0
  C  C975  1  0.279500  0.166667  0.046000  1.0
  C  C976  1  0.279500  0.333333  0.454000  1.0
  C  C977  1  0.720500  0.954000  0.666667  1.0
  C  C978  1  0.720500  0.546000  0.833333  1.0
  C  C979  1  0.720500  0.833333  0.954000  1.0
  C  C980  1  0.720500  0.666667  0.546000  1.0
  C  C981  1  0.226400  0.015000  0.285600  1.0
  C  C982  1  0.226400  0.485000  0.214400  1.0
  C  C983  1  0.226400  0.214400  0.015000  1.0
  C  C984  1  0.226400  0.285600  0.485000  1.0
  C  C985  1  0.773600  0.985000  0.714400  1.0
  C  C986  1  0.773600  0.515000  0.785600  1.0
  C  C987  1  0.773600  0.785600  0.985000  1.0
  C  C988  1  0.773600  0.714400  0.515000  1.0
  C  C989  1  0.217600  0.993000  0.251200  1.0
  C  C990  1  0.217600  0.507000  0.248800  1.0
  C  C991  1  0.217600  0.248800  0.993000  1.0
  C  C992  1  0.217600  0.251200  0.507000  1.0
  C  C993  1  0.782400  0.007000  0.748800  1.0
  C  C994  1  0.782400  0.493000  0.751200  1.0
  C  C995  1  0.782400  0.751200  0.007000  1.0
  C  C996  1  0.782400  0.748800  0.493000  1.0
  C  C997  1  0.169000  0.989300  0.245000  1.0
  C  C998  1  0.169000  0.510700  0.255000  1.0
  C  C999  1  0.169000  0.255000  0.989300  1.0
  C  C1000  1  0.169000  0.245000  0.510700  1.0
  C  C1001  1  0.831000  0.010700  0.755000  1.0
  C  C1002  1  0.831000  0.489300  0.745000  1.0
  C  C1003  1  0.831000  0.745000  0.010700  1.0
  C  C1004  1  0.831000  0.755000  0.489300  1.0
  C  C1005  1  0.146800  0.010900  0.277500  1.0
  C  C1006  1  0.146800  0.489100  0.222500  1.0
  C  C1007  1  0.146800  0.222500  0.010900  1.0
  C  C1008  1  0.146800  0.277500  0.489100  1.0
  C  C1009  1  0.853200  0.989100  0.722500  1.0
  C  C1010  1  0.853200  0.510900  0.777500  1.0
  C  C1011  1  0.853200  0.777500  0.989100  1.0
  C  C1012  1  0.853200  0.722500  0.510900  1.0
  C  C1013  1  0.096000  0.015700  0.281400  1.0
  C  C1014  1  0.096000  0.484300  0.218600  1.0
  C  C1015  1  0.096000  0.218600  0.015700  1.0
  C  C1016  1  0.096000  0.281400  0.484300  1.0
  C  C1017  1  0.904000  0.984300  0.718600  1.0
  C  C1018  1  0.904000  0.515700  0.781400  1.0
  C  C1019  1  0.904000  0.781400  0.984300  1.0
  C  C1020  1  0.904000  0.718600  0.515700  1.0
  C  C1021  1  0.064200  0.997200  0.250700  1.0
  C  C1022  1  0.064200  0.502800  0.249300  1.0
  C  C1023  1  0.064200  0.249300  0.997200  1.0
  C  C1024  1  0.064200  0.250700  0.502800  1.0
  C  C1025  1  0.935800  0.002800  0.749300  1.0
  C  C1026  1  0.935800  0.497200  0.750700  1.0
  C  C1027  1  0.935800  0.750700  0.002800  1.0
  C  C1028  1  0.935800  0.749300  0.497200  1.0
  C  C1029  1  0.033300  0.965500  0.259500  1.0
  C  C1030  1  0.033300  0.534500  0.240500  1.0
  C  C1031  1  0.033300  0.240500  0.965500  1.0
  C  C1032  1  0.033300  0.259500  0.534500  1.0
  C  C1033  1  0.966700  0.034500  0.740500  1.0
  C  C1034  1  0.966700  0.465500  0.759500  1.0
  C  C1035  1  0.966700  0.759500  0.034500  1.0
  C  C1036  1  0.966700  0.740500  0.465500  1.0
  C  C1037  1  0.003200  0.949200  0.230700  1.0
  C  C1038  1  0.003200  0.550800  0.269300  1.0
  C  C1039  1  0.003200  0.269300  0.949200  1.0
  C  C1040  1  0.003200  0.230700  0.550800  1.0
  C  C1041  1  0.996800  0.050800  0.769300  1.0
  C  C1042  1  0.996800  0.449200  0.730700  1.0
  C  C1043  1  0.996800  0.730700  0.050800  1.0
  C  C1044  1  0.996800  0.769300  0.449200  1.0
  C  C1045  1  0.002800  0.965700  0.193100  1.0
  C  C1046  1  0.002800  0.534300  0.306900  1.0
  C  C1047  1  0.002800  0.306900  0.965700  1.0
  C  C1048  1  0.002800  0.193100  0.534300  1.0
  C  C1049  1  0.997200  0.034300  0.806900  1.0
  C  C1050  1  0.997200  0.465700  0.693100  1.0
  C  C1051  1  0.997200  0.693100  0.034300  1.0
  C  C1052  1  0.997200  0.806900  0.465700  1.0
  C  C1053  1  0.032500  0.996700  0.183900  1.0
  C  C1054  1  0.032500  0.503300  0.316100  1.0
  C  C1055  1  0.032500  0.316100  0.996700  1.0
  C  C1056  1  0.032500  0.183900  0.503300  1.0
  C  C1057  1  0.967500  0.003300  0.816100  1.0
  C  C1058  1  0.967500  0.496700  0.683900  1.0
  C  C1059  1  0.967500  0.683900  0.003300  1.0
  C  C1060  1  0.967500  0.816100  0.496700  1.0
  C  C1061  1  0.063100  0.013200  0.212600  1.0
  C  C1062  1  0.063100  0.486800  0.287400  1.0
  C  C1063  1  0.063100  0.287400  0.013200  1.0
  C  C1064  1  0.063100  0.212600  0.486800  1.0
  C  C1065  1  0.936900  0.986800  0.787400  1.0
  C  C1066  1  0.936900  0.513200  0.712600  1.0
  C  C1067  1  0.936900  0.712600  0.986800  1.0
  C  C1068  1  0.936900  0.787400  0.513200  1.0
  C  C1069  1  0.991800  0.927700  0.136500  1.0
  C  C1070  1  0.991800  0.572300  0.363500  1.0
  C  C1071  1  0.991800  0.363500  0.927700  1.0
  C  C1072  1  0.991800  0.136500  0.572300  1.0
  C  C1073  1  0.008200  0.072300  0.863500  1.0
  C  C1074  1  0.008200  0.427700  0.636500  1.0
  C  C1075  1  0.008200  0.636500  0.072300  1.0
  C  C1076  1  0.008200  0.863500  0.427700  1.0
  C  C1077  1  0.959600  0.912600  0.104900  1.0
  C  C1078  1  0.959600  0.587400  0.395100  1.0
  C  C1079  1  0.959600  0.395100  0.912600  1.0
  C  C1080  1  0.959600  0.104900  0.587400  1.0
  C  C1081  1  0.040400  0.087400  0.895100  1.0
  C  C1082  1  0.040400  0.412600  0.604900  1.0
  C  C1083  1  0.040400  0.604900  0.087400  1.0
  C  C1084  1  0.040400  0.895100  0.412600  1.0
  C  C1085  1  0.976900  0.890700  0.072900  1.0
  C  C1086  1  0.976900  0.609300  0.427100  1.0
  C  C1087  1  0.976900  0.427100  0.890700  1.0
  C  C1088  1  0.976900  0.072900  0.609300  1.0
  C  C1089  1  0.023100  0.109300  0.927100  1.0
  C  C1090  1  0.023100  0.390700  0.572900  1.0
  C  C1091  1  0.023100  0.572900  0.109300  1.0
  C  C1092  1  0.023100  0.927100  0.390700  1.0
  C  C1093  1  0.944600  0.878800  0.045300  1.0
  C  C1094  1  0.944600  0.621200  0.454700  1.0
  C  C1095  1  0.944600  0.454700  0.878800  1.0
  C  C1096  1  0.944600  0.045300  0.621200  1.0
  C  C1097  1  0.055400  0.121200  0.954700  1.0
  C  C1098  1  0.055400  0.378800  0.545300  1.0
  C  C1099  1  0.055400  0.545300  0.121200  1.0
  C  C1100  1  0.055400  0.954700  0.378800  1.0
  C  C1101  1  0.894000  0.890000  0.048400  1.0
  C  C1102  1  0.894000  0.610000  0.451600  1.0
  C  C1103  1  0.894000  0.451600  0.890000  1.0
  C  C1104  1  0.894000  0.048400  0.610000  1.0
  C  C1105  1  0.106000  0.110000  0.951600  1.0
  C  C1106  1  0.106000  0.390000  0.548400  1.0
  C  C1107  1  0.106000  0.548400  0.110000  1.0
  C  C1108  1  0.106000  0.951600  0.390000  1.0
  C  C1109  1  0.880100  0.911400  0.081700  1.0
  C  C1110  1  0.880100  0.588600  0.418300  1.0
  C  C1111  1  0.880100  0.418300  0.911400  1.0
  C  C1112  1  0.880100  0.081700  0.588600  1.0
  C  C1113  1  0.119900  0.088600  0.918300  1.0
  C  C1114  1  0.119900  0.411400  0.581700  1.0
  C  C1115  1  0.119900  0.581700  0.088600  1.0
  C  C1116  1  0.119900  0.918300  0.411400  1.0
  C  C1117  1  0.075500  0.034800  0.312500  1.0
  C  C1118  1  0.075500  0.465200  0.187500  1.0
  C  C1119  1  0.075500  0.187500  0.034800  1.0
  C  C1120  1  0.075500  0.312500  0.465200  1.0
  C  C1121  1  0.924500  0.965200  0.687500  1.0
  C  C1122  1  0.924500  0.534800  0.812500  1.0
  C  C1123  1  0.924500  0.812500  0.965200  1.0
  C  C1124  1  0.924500  0.687500  0.534800  1.0
  C  C1125  1  0.023100  0.041000  0.317600  1.0
  C  C1126  1  0.023100  0.459000  0.182400  1.0
  C  C1127  1  0.023100  0.182400  0.041000  1.0
  C  C1128  1  0.023100  0.317600  0.459000  1.0
  C  C1129  1  0.976900  0.959000  0.682400  1.0
  C  C1130  1  0.976900  0.541000  0.817600  1.0
  C  C1131  1  0.976900  0.817600  0.959000  1.0
  C  C1132  1  0.976900  0.682400  0.541000  1.0
  C  C1133  1  0.016300  0.058700  0.351800  1.0
  C  C1134  1  0.016300  0.441300  0.148200  1.0
  C  C1135  1  0.016300  0.148200  0.058700  1.0
  C  C1136  1  0.016300  0.351800  0.441300  1.0
  C  C1137  1  0.983700  0.941300  0.648200  1.0
  C  C1138  1  0.983700  0.558700  0.851800  1.0
  C  C1139  1  0.983700  0.851800  0.941300  1.0
  C  C1140  1  0.983700  0.648200  0.558700  1.0
  C  C1141  1  0.064000  0.065600  0.369700  1.0
  C  C1142  1  0.064000  0.434400  0.130300  1.0
  C  C1143  1  0.064000  0.130300  0.065600  1.0
  C  C1144  1  0.064000  0.369700  0.434400  1.0
  C  C1145  1  0.936000  0.934400  0.630300  1.0
  C  C1146  1  0.936000  0.565600  0.869700  1.0
  C  C1147  1  0.936000  0.869700  0.934400  1.0
  C  C1148  1  0.936000  0.630300  0.565600  1.0
  C  C1149  1  0.071300  0.080900  0.405500  1.0
  C  C1150  1  0.071300  0.419100  0.094500  1.0
  C  C1151  1  0.071300  0.094500  0.080900  1.0
  C  C1152  1  0.071300  0.405500  0.419100  1.0
  C  C1153  1  0.928700  0.919100  0.594500  1.0
  C  C1154  1  0.928700  0.580900  0.905500  1.0
  C  C1155  1  0.928700  0.905500  0.919100  1.0
  C  C1156  1  0.928700  0.594500  0.580900  1.0
  C  C1157  1  0.117200  0.088100  0.422300  1.0
  C  C1158  1  0.117200  0.411900  0.077700  1.0
  C  C1159  1  0.117200  0.077700  0.088100  1.0
  C  C1160  1  0.117200  0.422300  0.411900  1.0
  C  C1161  1  0.882800  0.911900  0.577700  1.0
  C  C1162  1  0.882800  0.588100  0.922300  1.0
  C  C1163  1  0.882800  0.922300  0.911900  1.0
  C  C1164  1  0.882800  0.577700  0.588100  1.0
  C  C1165  1  0.126100  0.106000  0.460000  1.0
  C  C1166  1  0.126100  0.394000  0.040000  1.0
  C  C1167  1  0.126100  0.040000  0.106000  1.0
  C  C1168  1  0.126100  0.460000  0.394000  1.0
  C  C1169  1  0.873900  0.894000  0.540000  1.0
  C  C1170  1  0.873900  0.606000  0.960000  1.0
  C  C1171  1  0.873900  0.960000  0.894000  1.0
  C  C1172  1  0.873900  0.540000  0.606000  1.0
  C  C1173  1  0.173300  0.109200  0.464600  1.0
  C  C1174  1  0.173300  0.390800  0.035400  1.0
  C  C1175  1  0.173300  0.035400  0.109200  1.0
  C  C1176  1  0.173300  0.464600  0.390800  1.0
  C  C1177  1  0.826700  0.890800  0.535400  1.0
  C  C1178  1  0.826700  0.609200  0.964600  1.0
  C  C1179  1  0.826700  0.964600  0.890800  1.0
  C  C1180  1  0.826700  0.535400  0.609200  1.0
  C  C1181  1  0.196700  0.094200  0.429500  1.0
  C  C1182  1  0.196700  0.405800  0.070500  1.0
  C  C1183  1  0.196700  0.070500  0.094200  1.0
  C  C1184  1  0.196700  0.429500  0.405800  1.0
  C  C1185  1  0.803300  0.905800  0.570500  1.0
  C  C1186  1  0.803300  0.594200  0.929500  1.0
  C  C1187  1  0.803300  0.929500  0.905800  1.0
  C  C1188  1  0.803300  0.570500  0.594200  1.0
  C  C1189  1  0.026800  0.092700  0.429200  1.0
  C  C1190  1  0.026800  0.407300  0.070800  1.0
  C  C1191  1  0.026800  0.070800  0.092700  1.0
  C  C1192  1  0.026800  0.429200  0.407300  1.0
  C  C1193  1  0.973200  0.907300  0.570800  1.0
  C  C1194  1  0.973200  0.592700  0.929200  1.0
  C  C1195  1  0.973200  0.929200  0.907300  1.0
  C  C1196  1  0.973200  0.570800  0.592700  1.0
  C  C1197  1  0.016400  0.074800  0.465400  1.0
  C  C1198  1  0.016400  0.425200  0.034600  1.0
  C  C1199  1  0.016400  0.034600  0.074800  1.0
  C  C1200  1  0.016400  0.465400  0.425200  1.0
  C  C1201  1  0.983600  0.925200  0.534600  1.0
  C  C1202  1  0.983600  0.574800  0.965400  1.0
  C  C1203  1  0.983600  0.965400  0.925200  1.0
  C  C1204  1  0.983600  0.534600  0.574800  1.0
  C  C1205  1  0.974100  0.085500  0.487400  1.0
  C  C1206  1  0.974100  0.414500  0.012600  1.0
  C  C1207  1  0.974100  0.012600  0.085500  1.0
  C  C1208  1  0.974100  0.487400  0.414500  1.0
  C  C1209  1  0.025900  0.914500  0.512600  1.0
  C  C1210  1  0.025900  0.585500  0.987400  1.0
  C  C1211  1  0.025900  0.987400  0.914500  1.0
  C  C1212  1  0.025900  0.512600  0.585500  1.0
  C  C1213  1  0.944400  0.113800  0.473800  1.0
  C  C1214  1  0.944400  0.386200  0.026200  1.0
  C  C1215  1  0.944400  0.026200  0.113800  1.0
  C  C1216  1  0.944400  0.473800  0.386200  1.0
  C  C1217  1  0.055600  0.886200  0.526200  1.0
  C  C1218  1  0.055600  0.613800  0.973800  1.0
  C  C1219  1  0.055600  0.973800  0.886200  1.0
  C  C1220  1  0.055600  0.526200  0.613800  1.0
  C  C1221  1  0.953300  0.133100  0.438600  1.0
  C  C1222  1  0.953300  0.366900  0.061400  1.0
  C  C1223  1  0.953300  0.061400  0.133100  1.0
  C  C1224  1  0.953300  0.438600  0.366900  1.0
  C  C1225  1  0.046700  0.866900  0.561400  1.0
  C  C1226  1  0.046700  0.633100  0.938600  1.0
  C  C1227  1  0.046700  0.938600  0.866900  1.0
  C  C1228  1  0.046700  0.561400  0.633100  1.0
  C  C1229  1  0.995100  0.123000  0.417200  1.0
  C  C1230  1  0.995100  0.377000  0.082800  1.0
  C  C1231  1  0.995100  0.082800  0.123000  1.0
  C  C1232  1  0.995100  0.417200  0.377000  1.0
  C  C1233  1  0.004900  0.877000  0.582800  1.0
  C  C1234  1  0.004900  0.623000  0.917200  1.0
  C  C1235  1  0.004900  0.917200  0.877000  1.0
  C  C1236  1  0.004900  0.582800  0.623000  1.0
  C  C1237  1  0.858200  0.113100  0.483600  1.0
  C  C1238  1  0.858200  0.386900  0.016400  1.0
  C  C1239  1  0.858200  0.016400  0.113100  1.0
  C  C1240  1  0.858200  0.483600  0.386900  1.0
  C  C1241  1  0.141800  0.886900  0.516400  1.0
  C  C1242  1  0.141800  0.613100  0.983600  1.0
  C  C1243  1  0.141800  0.983600  0.886900  1.0
  C  C1244  1  0.141800  0.516400  0.613100  1.0
  C  C1245  1  0.816400  0.123300  0.507500  1.0
  C  C1246  1  0.816400  0.376700  0.992500  1.0
  C  C1247  1  0.816400  0.992500  0.123300  1.0
  C  C1248  1  0.816400  0.507500  0.376700  1.0
  C  C1249  1  0.183600  0.876700  0.492500  1.0
  C  C1250  1  0.183600  0.623300  0.007500  1.0
  C  C1251  1  0.183600  0.007500  0.876700  1.0
  C  C1252  1  0.183600  0.492500  0.623300  1.0
  C  C1253  1  0.769100  0.113900  0.497600  1.0
  C  C1254  1  0.769100  0.386100  0.002400  1.0
  C  C1255  1  0.769100  0.002400  0.113900  1.0
  C  C1256  1  0.769100  0.497600  0.386100  1.0
  C  C1257  1  0.230900  0.886100  0.502400  1.0
  C  C1258  1  0.230900  0.613900  0.997600  1.0
  C  C1259  1  0.230900  0.997600  0.886100  1.0
  C  C1260  1  0.230900  0.502400  0.613900  1.0
  C  C1261  1  0.731600  0.125000  0.523400  1.0
  C  C1262  1  0.731600  0.375000  0.976600  1.0
  C  C1263  1  0.731600  0.976600  0.125000  1.0
  C  C1264  1  0.731600  0.523400  0.375000  1.0
  C  C1265  1  0.268400  0.875000  0.476600  1.0
  C  C1266  1  0.268400  0.625000  0.023400  1.0
  C  C1267  1  0.268400  0.023400  0.875000  1.0
  C  C1268  1  0.268400  0.476600  0.625000  1.0
  C  C1269  1  0.889800  0.870300  0.183300  1.0
  C  C1270  1  0.889800  0.629700  0.316700  1.0
  C  C1271  1  0.889800  0.316700  0.870300  1.0
  C  C1272  1  0.889800  0.183300  0.629700  1.0
  C  C1273  1  0.110200  0.129700  0.816700  1.0
  C  C1274  1  0.110200  0.370300  0.683300  1.0
  C  C1275  1  0.110200  0.683300  0.129700  1.0
  C  C1276  1  0.110200  0.816700  0.370300  1.0
  C  C1277  1  0.879000  0.841000  0.210800  1.0
  C  C1278  1  0.879000  0.659000  0.289200  1.0
  C  C1279  1  0.879000  0.289200  0.841000  1.0
  C  C1280  1  0.879000  0.210800  0.659000  1.0
  C  C1281  1  0.121000  0.159000  0.789200  1.0
  C  C1282  1  0.121000  0.341000  0.710800  1.0
  C  C1283  1  0.121000  0.710800  0.159000  1.0
  C  C1284  1  0.121000  0.789200  0.341000  1.0
  C  C1285  1  0.868000  0.850800  0.248000  1.0
  C  C1286  1  0.868000  0.649200  0.252000  1.0
  C  C1287  1  0.868000  0.252000  0.850800  1.0
  C  C1288  1  0.868000  0.248000  0.649200  1.0
  C  C1289  1  0.132000  0.149200  0.752000  1.0
  C  C1290  1  0.132000  0.350800  0.748000  1.0
  C  C1291  1  0.132000  0.748000  0.149200  1.0
  C  C1292  1  0.132000  0.752000  0.350800  1.0
  C  C1293  1  0.865000  0.891000  0.258200  1.0
  C  C1294  1  0.865000  0.609000  0.241800  1.0
  C  C1295  1  0.865000  0.241800  0.891000  1.0
  C  C1296  1  0.865000  0.258200  0.609000  1.0
  C  C1297  1  0.135000  0.109000  0.741800  1.0
  C  C1298  1  0.135000  0.391000  0.758200  1.0
  C  C1299  1  0.135000  0.758200  0.109000  1.0
  C  C1300  1  0.135000  0.741800  0.391000  1.0
  C  C1301  1  0.878900  0.918100  0.230600  1.0
  C  C1302  1  0.878900  0.581900  0.269400  1.0
  C  C1303  1  0.878900  0.269400  0.918100  1.0
  C  C1304  1  0.878900  0.230600  0.581900  1.0
  C  C1305  1  0.121100  0.081900  0.769400  1.0
  C  C1306  1  0.121100  0.418100  0.730600  1.0
  C  C1307  1  0.121100  0.730600  0.081900  1.0
  C  C1308  1  0.121100  0.769400  0.418100  1.0
  C  C1309  1  0.879400  0.961200  0.237500  1.0
  C  C1310  1  0.879400  0.538800  0.262500  1.0
  C  C1311  1  0.879400  0.262500  0.961200  1.0
  C  C1312  1  0.879400  0.237500  0.538800  1.0
  C  C1313  1  0.120600  0.038800  0.762500  1.0
  C  C1314  1  0.120600  0.461200  0.737500  1.0
  C  C1315  1  0.120600  0.737500  0.038800  1.0
  C  C1316  1  0.120600  0.762500  0.461200  1.0
  C  C1317  1  0.891500  0.025200  0.214500  1.0
  C  C1318  1  0.891500  0.474800  0.285500  1.0
  C  C1319  1  0.891500  0.285500  0.025200  1.0
  C  C1320  1  0.891500  0.214500  0.474800  1.0
  C  C1321  1  0.108500  0.974800  0.785500  1.0
  C  C1322  1  0.108500  0.525200  0.714500  1.0
  C  C1323  1  0.108500  0.714500  0.974800  1.0
  C  C1324  1  0.108500  0.785500  0.525200  1.0
  C  C1325  1  0.932000  0.041500  0.231500  1.0
  C  C1326  1  0.932000  0.458500  0.268500  1.0
  C  C1327  1  0.932000  0.268500  0.041500  1.0
  C  C1328  1  0.932000  0.231500  0.458500  1.0
  C  C1329  1  0.068000  0.958500  0.768500  1.0
  C  C1330  1  0.068000  0.541500  0.731500  1.0
  C  C1331  1  0.068000  0.731500  0.958500  1.0
  C  C1332  1  0.068000  0.768500  0.541500  1.0
  C  C1333  1  0.934200  0.082500  0.237400  1.0
  C  C1334  1  0.934200  0.417500  0.262600  1.0
  C  C1335  1  0.934200  0.262600  0.082500  1.0
  C  C1336  1  0.934200  0.237400  0.417500  1.0
  C  C1337  1  0.065800  0.917500  0.762600  1.0
  C  C1338  1  0.065800  0.582500  0.737400  1.0
  C  C1339  1  0.065800  0.737400  0.917500  1.0
  C  C1340  1  0.065800  0.762600  0.582500  1.0
  C  C1341  1  0.894100  0.107000  0.227200  1.0
  C  C1342  1  0.894100  0.393000  0.272800  1.0
  C  C1343  1  0.894100  0.272800  0.107000  1.0
  C  C1344  1  0.894100  0.227200  0.393000  1.0
  C  C1345  1  0.105900  0.893000  0.772800  1.0
  C  C1346  1  0.105900  0.607000  0.727200  1.0
  C  C1347  1  0.105900  0.727200  0.893000  1.0
  C  C1348  1  0.105900  0.772800  0.607000  1.0
  C  C1349  1  0.853500  0.090300  0.211800  1.0
  C  C1350  1  0.853500  0.409700  0.288200  1.0
  C  C1351  1  0.853500  0.288200  0.090300  1.0
  C  C1352  1  0.853500  0.211800  0.409700  1.0
  C  C1353  1  0.146500  0.909700  0.788200  1.0
  C  C1354  1  0.146500  0.590300  0.711800  1.0
  C  C1355  1  0.146500  0.711800  0.909700  1.0
  C  C1356  1  0.146500  0.788200  0.590300  1.0
  C  C1357  1  0.850500  0.048300  0.204400  1.0
  C  C1358  1  0.850500  0.451700  0.295600  1.0
  C  C1359  1  0.850500  0.295600  0.048300  1.0
  C  C1360  1  0.850500  0.204400  0.451700  1.0
  C  C1361  1  0.149500  0.951700  0.795600  1.0
  C  C1362  1  0.149500  0.548300  0.704400  1.0
  C  C1363  1  0.149500  0.704400  0.951700  1.0
  C  C1364  1  0.149500  0.795600  0.548300  1.0
  C  C1365  1  0.897600  0.150000  0.233100  1.0
  C  C1366  1  0.897600  0.350000  0.266900  1.0
  C  C1367  1  0.897600  0.266900  0.150000  1.0
  C  C1368  1  0.897600  0.233100  0.350000  1.0
  C  C1369  1  0.102400  0.850000  0.766900  1.0
  C  C1370  1  0.102400  0.650000  0.733100  1.0
  C  C1371  1  0.102400  0.733100  0.850000  1.0
  C  C1372  1  0.102400  0.766900  0.650000  1.0
  C  C1373  1  0.898300  0.164000  0.272000  1.0
  C  C1374  1  0.898300  0.336000  0.228000  1.0
  C  C1375  1  0.898300  0.228000  0.164000  1.0
  C  C1376  1  0.898300  0.272000  0.336000  1.0
  C  C1377  1  0.101700  0.836000  0.728000  1.0
  C  C1378  1  0.101700  0.664000  0.772000  1.0
  C  C1379  1  0.101700  0.772000  0.836000  1.0
  C  C1380  1  0.101700  0.728000  0.664000  1.0
  C  C1381  1  0.896800  0.138900  0.306000  1.0
  C  C1382  1  0.896800  0.361100  0.194000  1.0
  C  C1383  1  0.896800  0.194000  0.138900  1.0
  C  C1384  1  0.896800  0.306000  0.361100  1.0
  C  C1385  1  0.103200  0.861100  0.694000  1.0
  C  C1386  1  0.103200  0.638900  0.806000  1.0
  C  C1387  1  0.103200  0.806000  0.861100  1.0
  C  C1388  1  0.103200  0.694000  0.638900  1.0
  C  C1389  1  0.896300  0.175100  0.202200  1.0
  C  C1390  1  0.896300  0.324900  0.297800  1.0
  C  C1391  1  0.896300  0.297800  0.175100  1.0
  C  C1392  1  0.896300  0.202200  0.324900  1.0
  C  C1393  1  0.103700  0.824900  0.797800  1.0
  C  C1394  1  0.103700  0.675100  0.702200  1.0
  C  C1395  1  0.103700  0.702200  0.824900  1.0
  C  C1396  1  0.103700  0.797800  0.675100  1.0
  C  C1397  1  0.895800  0.161800  0.161800  1.0
  C  C1398  1  0.895800  0.338200  0.338200  1.0
  C  C1399  1  0.895800  0.338200  0.161800  1.0
  C  C1400  1  0.895800  0.161800  0.338200  1.0
  C  C1401  1  0.104200  0.838200  0.838200  1.0
  C  C1402  1  0.104200  0.661800  0.661800  1.0
  C  C1403  1  0.104200  0.661800  0.838200  1.0
  C  C1404  1  0.104200  0.838200  0.661800  1.0
  C  C1405  1  0.790600  0.157000  0.562900  1.0
  C  C1406  1  0.790600  0.343000  0.937100  1.0
  C  C1407  1  0.790600  0.937100  0.157000  1.0
  C  C1408  1  0.790600  0.562900  0.343000  1.0
  C  C1409  1  0.209400  0.843000  0.437100  1.0
  C  C1410  1  0.209400  0.657000  0.062900  1.0
  C  C1411  1  0.209400  0.062900  0.843000  1.0
  C  C1412  1  0.209400  0.437100  0.657000  1.0
  C  C1413  1  0.742100  0.146400  0.554300  1.0
  C  C1414  1  0.742100  0.353600  0.945700  1.0
  C  C1415  1  0.742100  0.945700  0.146400  1.0
  C  C1416  1  0.742100  0.554300  0.353600  1.0
  C  C1417  1  0.257900  0.853600  0.445700  1.0
  C  C1418  1  0.257900  0.646400  0.054300  1.0
  C  C1419  1  0.257900  0.054300  0.853600  1.0
  C  C1420  1  0.257900  0.445700  0.646400  1.0
  C  C1421  1  0.448100  0.899900  0.090500  1.0
  C  C1422  1  0.448100  0.600100  0.409500  1.0
  C  C1423  1  0.448100  0.409500  0.899900  1.0
  C  C1424  1  0.448100  0.090500  0.600100  1.0
  C  C1425  1  0.551900  0.100100  0.909500  1.0
  C  C1426  1  0.551900  0.399900  0.590500  1.0
  C  C1427  1  0.551900  0.590500  0.100100  1.0
  C  C1428  1  0.551900  0.909500  0.399900  1.0
  C  C1429  1  0.453000  0.891200  0.048700  1.0
  C  C1430  1  0.453000  0.608800  0.451300  1.0
  C  C1431  1  0.453000  0.451300  0.891200  1.0
  C  C1432  1  0.453000  0.048700  0.608800  1.0
  C  C1433  1  0.547000  0.108800  0.951300  1.0
  C  C1434  1  0.547000  0.391200  0.548700  1.0
  C  C1435  1  0.547000  0.548700  0.108800  1.0
  C  C1436  1  0.547000  0.951300  0.391200  1.0
  C  C1437  1  0.461200  0.921200  0.023200  1.0
  C  C1438  1  0.461200  0.578800  0.476800  1.0
  C  C1439  1  0.461200  0.476800  0.921200  1.0
  C  C1440  1  0.461200  0.023200  0.578800  1.0
  C  C1441  1  0.538800  0.078800  0.976800  1.0
  C  C1442  1  0.538800  0.421200  0.523200  1.0
  C  C1443  1  0.538800  0.523200  0.078800  1.0
  C  C1444  1  0.538800  0.976800  0.421200  1.0
  C  C1445  1  0.464200  0.959500  0.036100  1.0
  C  C1446  1  0.464200  0.540500  0.463900  1.0
  C  C1447  1  0.464200  0.463900  0.959500  1.0
  C  C1448  1  0.464200  0.036100  0.540500  1.0
  C  C1449  1  0.535800  0.040500  0.963900  1.0
  C  C1450  1  0.535800  0.459500  0.536100  1.0
  C  C1451  1  0.535800  0.536100  0.040500  1.0
  C  C1452  1  0.535800  0.963900  0.459500  1.0
  C  C1453  1  0.459300  0.966600  0.076700  1.0
  C  C1454  1  0.459300  0.533400  0.423300  1.0
  C  C1455  1  0.459300  0.423300  0.966600  1.0
  C  C1456  1  0.459300  0.076700  0.533400  1.0
  C  C1457  1  0.540700  0.033400  0.923300  1.0
  C  C1458  1  0.540700  0.466600  0.576700  1.0
  C  C1459  1  0.540700  0.576700  0.033400  1.0
  C  C1460  1  0.540700  0.923300  0.466600  1.0
  C  C1461  1  0.460500  0.005500  0.094200  1.0
  C  C1462  1  0.460500  0.494500  0.405800  1.0
  C  C1463  1  0.460500  0.405800  0.005500  1.0
  C  C1464  1  0.460500  0.094200  0.494500  1.0
  C  C1465  1  0.539500  0.994500  0.905800  1.0
  C  C1466  1  0.539500  0.505500  0.594200  1.0
  C  C1467  1  0.539500  0.594200  0.994500  1.0
  C  C1468  1  0.539500  0.905800  0.505500  1.0
  C  C1469  1  0.453700  0.045500  0.150300  1.0
  C  C1470  1  0.453700  0.454500  0.349700  1.0
  C  C1471  1  0.453700  0.349700  0.045500  1.0
  C  C1472  1  0.453700  0.150300  0.454500  1.0
  C  C1473  1  0.546300  0.954500  0.849700  1.0
  C  C1474  1  0.546300  0.545500  0.650300  1.0
  C  C1475  1  0.546300  0.650300  0.954500  1.0
  C  C1476  1  0.546300  0.849700  0.545500  1.0
  C  C1477  1  0.493100  0.058700  0.171300  1.0
  C  C1478  1  0.493100  0.441300  0.328700  1.0
  C  C1479  1  0.493100  0.328700  0.058700  1.0
  C  C1480  1  0.493100  0.171300  0.441300  1.0
  C  C1481  1  0.506900  0.941300  0.828700  1.0
  C  C1482  1  0.506900  0.558700  0.671300  1.0
  C  C1483  1  0.506900  0.671300  0.941300  1.0
  C  C1484  1  0.506900  0.828700  0.558700  1.0
  C  C1485  1  0.492100  0.095800  0.189800  1.0
  C  C1486  1  0.492100  0.404200  0.310200  1.0
  C  C1487  1  0.492100  0.310200  0.095800  1.0
  C  C1488  1  0.492100  0.189800  0.404200  1.0
  C  C1489  1  0.507900  0.904200  0.810200  1.0
  C  C1490  1  0.507900  0.595800  0.689800  1.0
  C  C1491  1  0.507900  0.689800  0.904200  1.0
  C  C1492  1  0.507900  0.810200  0.595800  1.0
  C  C1493  1  0.449800  0.118900  0.186300  1.0
  C  C1494  1  0.449800  0.381100  0.313700  1.0
  C  C1495  1  0.449800  0.313700  0.118900  1.0
  C  C1496  1  0.449800  0.186300  0.381100  1.0
  C  C1497  1  0.550200  0.881100  0.813700  1.0
  C  C1498  1  0.550200  0.618900  0.686300  1.0
  C  C1499  1  0.550200  0.686300  0.881100  1.0
  C  C1500  1  0.550200  0.813700  0.618900  1.0
  C  C1501  1  0.411400  0.105500  0.166000  1.0
  C  C1502  1  0.411400  0.394500  0.334000  1.0
  C  C1503  1  0.411400  0.334000  0.105500  1.0
  C  C1504  1  0.411400  0.166000  0.394500  1.0
  C  C1505  1  0.588600  0.894500  0.834000  1.0
  C  C1506  1  0.588600  0.605500  0.666000  1.0
  C  C1507  1  0.588600  0.666000  0.894500  1.0
  C  C1508  1  0.588600  0.834000  0.605500  1.0
  C  C1509  1  0.411200  0.069000  0.147300  1.0
  C  C1510  1  0.411200  0.431000  0.352700  1.0
  C  C1511  1  0.411200  0.352700  0.069000  1.0
  C  C1512  1  0.411200  0.147300  0.431000  1.0
  C  C1513  1  0.588800  0.931000  0.852700  1.0
  C  C1514  1  0.588800  0.569000  0.647300  1.0
  C  C1515  1  0.588800  0.647300  0.931000  1.0
  C  C1516  1  0.588800  0.852700  0.569000  1.0
  C  C1517  1  0.449500  0.158400  0.206600  1.0
  C  C1518  1  0.449500  0.341600  0.293400  1.0
  C  C1519  1  0.449500  0.293400  0.158400  1.0
  C  C1520  1  0.449500  0.206600  0.341600  1.0
  C  C1521  1  0.550500  0.841600  0.793400  1.0
  C  C1522  1  0.550500  0.658400  0.706600  1.0
  C  C1523  1  0.550500  0.706600  0.841600  1.0
  C  C1524  1  0.550500  0.793400  0.658400  1.0
  C  C1525  1  0.450500  0.160200  0.246800  1.0
  C  C1526  1  0.450500  0.339800  0.253200  1.0
  C  C1527  1  0.450500  0.253200  0.160200  1.0
  C  C1528  1  0.450500  0.246800  0.339800  1.0
  C  C1529  1  0.549500  0.839800  0.753200  1.0
  C  C1530  1  0.549500  0.660200  0.746800  1.0
  C  C1531  1  0.549500  0.746800  0.839800  1.0
  C  C1532  1  0.549500  0.753200  0.660200  1.0
  C  C1533  1  0.449400  0.127100  0.271700  1.0
  C  C1534  1  0.449400  0.372900  0.228300  1.0
  C  C1535  1  0.449400  0.228300  0.127100  1.0
  C  C1536  1  0.449400  0.271700  0.372900  1.0
  C  C1537  1  0.550600  0.872900  0.728300  1.0
  C  C1538  1  0.550600  0.627100  0.771700  1.0
  C  C1539  1  0.550600  0.771700  0.872900  1.0
  C  C1540  1  0.550600  0.728300  0.627100  1.0
  C  C1541  1  0.449000  0.140300  0.309700  1.0
  C  C1542  1  0.449000  0.359700  0.190300  1.0
  C  C1543  1  0.449000  0.190300  0.140300  1.0
  C  C1544  1  0.449000  0.309700  0.359700  1.0
  C  C1545  1  0.551000  0.859700  0.690300  1.0
  C  C1546  1  0.551000  0.640300  0.809700  1.0
  C  C1547  1  0.551000  0.809700  0.859700  1.0
  C  C1548  1  0.551000  0.690300  0.640300  1.0
  C  C1549  1  0.463000  0.192900  0.624800  1.0
  C  C1550  1  0.463000  0.307100  0.875200  1.0
  C  C1551  1  0.463000  0.875200  0.192900  1.0
  C  C1552  1  0.463000  0.624800  0.307100  1.0
  C  C1553  1  0.537000  0.807100  0.375200  1.0
  C  C1554  1  0.537000  0.692900  0.124800  1.0
  C  C1555  1  0.537000  0.124800  0.807100  1.0
  C  C1556  1  0.537000  0.375200  0.692900  1.0
  C  C1557  1  0.448000  0.208000  0.661000  1.0
  C  C1558  1  0.448000  0.292000  0.839000  1.0
  C  C1559  1  0.448000  0.839000  0.208000  1.0
  C  C1560  1  0.448000  0.661000  0.292000  1.0
  C  C1561  1  0.552000  0.792000  0.339000  1.0
  C  C1562  1  0.552000  0.708000  0.161000  1.0
  C  C1563  1  0.552000  0.161000  0.792000  1.0
  C  C1564  1  0.552000  0.339000  0.708000  1.0
  C  C1565  1  0.398000  0.210000  0.670000  1.0
  C  C1566  1  0.398000  0.290000  0.830000  1.0
  C  C1567  1  0.398000  0.830000  0.210000  1.0
  C  C1568  1  0.398000  0.670000  0.290000  1.0
  C  C1569  1  0.602000  0.790000  0.330000  1.0
  C  C1570  1  0.602000  0.710000  0.170000  1.0
  C  C1571  1  0.602000  0.170000  0.790000  1.0
  C  C1572  1  0.602000  0.330000  0.710000  1.0
  C  C1573  1  0.364000  0.195000  0.644000  1.0
  C  C1574  1  0.364000  0.305000  0.856000  1.0
  C  C1575  1  0.364000  0.856000  0.195000  1.0
  C  C1576  1  0.364000  0.644000  0.305000  1.0
  C  C1577  1  0.636000  0.805000  0.356000  1.0
  C  C1578  1  0.636000  0.695000  0.144000  1.0
  C  C1579  1  0.636000  0.144000  0.805000  1.0
  C  C1580  1  0.636000  0.356000  0.695000  1.0
  C  C1581  1  0.381000  0.181100  0.609100  1.0
  C  C1582  1  0.381000  0.318900  0.890900  1.0
  C  C1583  1  0.381000  0.890900  0.181100  1.0
  C  C1584  1  0.381000  0.609100  0.318900  1.0
  C  C1585  1  0.619000  0.818900  0.390900  1.0
  C  C1586  1  0.619000  0.681100  0.109100  1.0
  C  C1587  1  0.619000  0.109100  0.818900  1.0
  C  C1588  1  0.619000  0.390900  0.681100  1.0
  C  C1589  1  0.349800  0.165000  0.577900  1.0
  C  C1590  1  0.349800  0.335000  0.922100  1.0
  C  C1591  1  0.349800  0.922100  0.165000  1.0
  C  C1592  1  0.349800  0.577900  0.335000  1.0
  C  C1593  1  0.650200  0.835000  0.422100  1.0
  C  C1594  1  0.650200  0.665000  0.077900  1.0
  C  C1595  1  0.650200  0.077900  0.835000  1.0
  C  C1596  1  0.650200  0.422100  0.665000  1.0
  C  C1597  1  0.338900  0.137100  0.516000  1.0
  C  C1598  1  0.338900  0.362900  0.984000  1.0
  C  C1599  1  0.338900  0.984000  0.137100  1.0
  C  C1600  1  0.338900  0.516000  0.362900  1.0
  C  C1601  1  0.661100  0.862900  0.484000  1.0
  C  C1602  1  0.661100  0.637100  0.016000  1.0
  C  C1603  1  0.661100  0.016000  0.862900  1.0
  C  C1604  1  0.661100  0.484000  0.637100  1.0
  C  C1605  1  0.339500  0.097700  0.508000  1.0
  C  C1606  1  0.339500  0.402300  0.992000  1.0
  C  C1607  1  0.339500  0.992000  0.097700  1.0
  C  C1608  1  0.339500  0.508000  0.402300  1.0
  C  C1609  1  0.660500  0.902300  0.492000  1.0
  C  C1610  1  0.660500  0.597700  0.008000  1.0
  C  C1611  1  0.660500  0.008000  0.902300  1.0
  C  C1612  1  0.660500  0.492000  0.597700  1.0
  C  C1613  1  0.309600  0.083400  0.477800  1.0
  C  C1614  1  0.309600  0.416600  0.022200  1.0
  C  C1615  1  0.309600  0.022200  0.083400  1.0
  C  C1616  1  0.309600  0.477800  0.416600  1.0
  C  C1617  1  0.690400  0.916600  0.522200  1.0
  C  C1618  1  0.690400  0.583400  0.977800  1.0
  C  C1619  1  0.690400  0.977800  0.916600  1.0
  C  C1620  1  0.690400  0.522200  0.583400  1.0
  C  C1621  1  0.280200  0.108700  0.455700  1.0
  C  C1622  1  0.280200  0.391300  0.044300  1.0
  C  C1623  1  0.280200  0.044300  0.108700  1.0
  C  C1624  1  0.280200  0.455700  0.391300  1.0
  C  C1625  1  0.719800  0.891300  0.544300  1.0
  C  C1626  1  0.719800  0.608700  0.955700  1.0
  C  C1627  1  0.719800  0.955700  0.891300  1.0
  C  C1628  1  0.719800  0.544300  0.608700  1.0
  C  C1629  1  0.280600  0.148100  0.463800  1.0
  C  C1630  1  0.280600  0.351900  0.036200  1.0
  C  C1631  1  0.280600  0.036200  0.148100  1.0
  C  C1632  1  0.280600  0.463800  0.351900  1.0
  C  C1633  1  0.719400  0.851900  0.536200  1.0
  C  C1634  1  0.719400  0.648100  0.963800  1.0
  C  C1635  1  0.719400  0.963800  0.851900  1.0
  C  C1636  1  0.719400  0.536200  0.648100  1.0
  C  C1637  1  0.311100  0.162900  0.494100  1.0
  C  C1638  1  0.311100  0.337100  0.005900  1.0
  C  C1639  1  0.311100  0.005900  0.162900  1.0
  C  C1640  1  0.311100  0.494100  0.337100  1.0
  C  C1641  1  0.688900  0.837100  0.505900  1.0
  C  C1642  1  0.688900  0.662900  0.994100  1.0
  C  C1643  1  0.688900  0.994100  0.837100  1.0
  C  C1644  1  0.688900  0.505900  0.662900  1.0
  C  C1645  1  0.247200  0.092300  0.423700  1.0
  C  C1646  1  0.247200  0.407700  0.076300  1.0
  C  C1647  1  0.247200  0.076300  0.092300  1.0
  C  C1648  1  0.247200  0.423700  0.407700  1.0
  C  C1649  1  0.752800  0.907700  0.576300  1.0
  C  C1650  1  0.752800  0.592300  0.923700  1.0
  C  C1651  1  0.752800  0.923700  0.907700  1.0
  C  C1652  1  0.752800  0.576300  0.592300  1.0
  C  C1653  1  0.268100  0.076700  0.389500  1.0
  C  C1654  1  0.268100  0.423300  0.110500  1.0
  C  C1655  1  0.268100  0.110500  0.076700  1.0
  C  C1656  1  0.268100  0.389500  0.423300  1.0
  C  C1657  1  0.731900  0.923300  0.610500  1.0
  C  C1658  1  0.731900  0.576700  0.889500  1.0
  C  C1659  1  0.731900  0.889500  0.923300  1.0
  C  C1660  1  0.731900  0.610500  0.576700  1.0
  C  C1661  1  0.320000  0.075300  0.383600  1.0
  C  C1662  1  0.320000  0.424700  0.116400  1.0
  C  C1663  1  0.320000  0.116400  0.075300  1.0
  C  C1664  1  0.320000  0.383600  0.424700  1.0
  C  C1665  1  0.680000  0.924700  0.616400  1.0
  C  C1666  1  0.680000  0.575300  0.883600  1.0
  C  C1667  1  0.680000  0.883600  0.924700  1.0
  C  C1668  1  0.680000  0.616400  0.575300  1.0
  C  C1669  1  0.326800  0.055900  0.349500  1.0
  C  C1670  1  0.326800  0.444100  0.150500  1.0
  C  C1671  1  0.326800  0.150500  0.055900  1.0
  C  C1672  1  0.326800  0.349500  0.444100  1.0
  C  C1673  1  0.673200  0.944100  0.650500  1.0
  C  C1674  1  0.673200  0.555900  0.849500  1.0
  C  C1675  1  0.673200  0.849500  0.944100  1.0
  C  C1676  1  0.673200  0.650500  0.555900  1.0
  S  S1677  1  0.391900  0.931800  0.510100  1
  S  S1678  1  0.391900  0.568200  0.989900  1
  S  S1679  1  0.391900  0.989900  0.931800  1
  S  S1680  1  0.391900  0.510100  0.568200  1
  S  S1681  1  0.608100  0.068200  0.489900  1
  S  S1682  1  0.608100  0.431800  0.010100  1
  S  S1683  1  0.608100  0.010100  0.068200  1
  S  S1684  1  0.608100  0.489900  0.431800  1
  S  S1685  1  0.895100  0.151700  0.989600  1
  S  S1686  1  0.895100  0.348300  0.510400  1
  S  S1687  1  0.895100  0.510400  0.151700  1
  S  S1688  1  0.895100  0.989600  0.348300  1
  S  S1689  1  0.104900  0.848300  0.010400  1
  S  S1690  1  0.104900  0.651700  0.489600  1
  S  S1691  1  0.104900  0.489600  0.848300  1
  S  S1692  1  0.104900  0.010400  0.651700  1
  S  S1693  1  0.462500  0.790700  0.102100  1
  S  S1694  1  0.462500  0.709300  0.397900  1
  S  S1695  1  0.462500  0.397900  0.790700  1
  S  S1696  1  0.462500  0.102100  0.709300  1
  S  S1697  1  0.537500  0.209300  0.897900  1
  S  S1698  1  0.537500  0.290700  0.602100  1
  S  S1699  1  0.537500  0.602100  0.209300  1
  S  S1700  1  0.537500  0.897900  0.290700  1
  S  S1701  1  0.001000  0.351200  0.812200  1
  S  S1702  1  0.001000  0.148800  0.687800  1
  S  S1703  1  0.001000  0.687800  0.351200  1
  S  S1704  1  0.001000  0.812200  0.148800  1
  S  S1705  1  0.999000  0.648800  0.187800  1
  S  S1706  1  0.999000  0.851200  0.312200  1
  S  S1707  1  0.999000  0.312200  0.648800  1
  S  S1708  1  0.999000  0.187800  0.851200  1
  N  N1709  1  0.426000  0.376300  0.505000  1
  N  N1710  1  0.426000  0.123700  0.995000  1
  N  N1711  1  0.426000  0.995000  0.376300  1
  N  N1712  1  0.426000  0.505000  0.123700  1
  N  N1713  1  0.574000  0.623700  0.495000  1
  N  N1714  1  0.574000  0.876300  0.005000  1
  N  N1715  1  0.574000  0.005000  0.623700  1
  N  N1716  1  0.574000  0.495000  0.876300  1
  N  N1717  1  0.166000  0.898000  0.162000  1
  N  N1718  1  0.166000  0.602000  0.338000  1
  N  N1719  1  0.166000  0.338000  0.898000  1
  N  N1720  1  0.166000  0.162000  0.602000  1
  N  N1721  1  0.834000  0.102000  0.838000  1
  N  N1722  1  0.834000  0.398000  0.662000  1
  N  N1723  1  0.834000  0.662000  0.102000  1
  N  N1724  1  0.834000  0.838000  0.398000  1
  N  N1725  1  0.514100  0.952700  0.169100  1.0
  N  N1726  1  0.514100  0.547300  0.330900  1.0
  N  N1727  1  0.514100  0.330900  0.952700  1.0
  N  N1728  1  0.514100  0.169100  0.547300  1.0
  N  N1729  1  0.485900  0.047300  0.830900  1.0
  N  N1730  1  0.485900  0.452700  0.669100  1.0
  N  N1731  1  0.485900  0.669100  0.047300  1.0
  N  N1732  1  0.485900  0.830900  0.452700  1.0
  N  N1733  1  0.443100  0.975400  0.212900  1.0
  N  N1734  1  0.443100  0.524600  0.287100  1.0
  N  N1735  1  0.443100  0.287100  0.975400  1.0
  N  N1736  1  0.443100  0.212900  0.524600  1.0
  N  N1737  1  0.556900  0.024600  0.787100  1.0
  N  N1738  1  0.556900  0.475400  0.712900  1.0
  N  N1739  1  0.556900  0.712900  0.024600  1.0
  N  N1740  1  0.556900  0.787100  0.475400  1.0
  N  N1741  1  0.970700  0.949100  0.162400  1.0
  N  N1742  1  0.970700  0.550900  0.337600  1.0
  N  N1743  1  0.970700  0.337600  0.949100  1.0
  N  N1744  1  0.970700  0.162400  0.550900  1.0
  N  N1745  1  0.029300  0.050900  0.837600  1.0
  N  N1746  1  0.029300  0.449100  0.662400  1.0
  N  N1747  1  0.029300  0.662400  0.050900  1.0
  N  N1748  1  0.029300  0.837600  0.449100  1.0
  N  N1749  1  0.911800  0.922700  0.110000  1.0
  N  N1750  1  0.911800  0.577300  0.390000  1.0
  N  N1751  1  0.911800  0.390000  0.922700  1.0
  N  N1752  1  0.911800  0.110000  0.577300  1.0
  N  N1753  1  0.088200  0.077300  0.890000  1.0
  N  N1754  1  0.088200  0.422700  0.610000  1.0
  N  N1755  1  0.088200  0.610000  0.077300  1.0
  N  N1756  1  0.088200  0.890000  0.422700  1.0
  N  N1757  1  0.182800  0.025500  0.303200  1.0
  N  N1758  1  0.182800  0.474500  0.196800  1.0
  N  N1759  1  0.182800  0.196800  0.025500  1.0
  N  N1760  1  0.182800  0.303200  0.474500  1.0
  N  N1761  1  0.817200  0.974500  0.696800  1.0
  N  N1762  1  0.817200  0.525500  0.803200  1.0
  N  N1763  1  0.817200  0.803200  0.974500  1.0
  N  N1764  1  0.817200  0.696800  0.525500  1.0
  N  N1765  1  0.100500  0.051100  0.344300  1.0
  N  N1766  1  0.100500  0.448900  0.155700  1.0
  N  N1767  1  0.100500  0.155700  0.051100  1.0
  N  N1768  1  0.100500  0.344300  0.448900  1.0
  N  N1769  1  0.899500  0.948900  0.655700  1.0
  N  N1770  1  0.899500  0.551100  0.844300  1.0
  N  N1771  1  0.899500  0.844300  0.948900  1.0
  N  N1772  1  0.899500  0.655700  0.551100  1.0
  N  N1773  1  0.161500  0.079900  0.403300  1.0
  N  N1774  1  0.161500  0.420100  0.096700  1.0
  N  N1775  1  0.161500  0.096700  0.079900  1.0
  N  N1776  1  0.161500  0.403300  0.420100  1.0
  N  N1777  1  0.838500  0.920100  0.596700  1.0
  N  N1778  1  0.838500  0.579900  0.903300  1.0
  N  N1779  1  0.838500  0.903300  0.920100  1.0
  N  N1780  1  0.838500  0.596700  0.579900  1.0
  N  N1781  1  0.901200  0.125300  0.497000  1.0
  N  N1782  1  0.901200  0.374700  0.003000  1.0
  N  N1783  1  0.901200  0.003000  0.125300  1.0
  N  N1784  1  0.901200  0.497000  0.374700  1.0
  N  N1785  1  0.098800  0.874700  0.503000  1.0
  N  N1786  1  0.098800  0.625300  0.997000  1.0
  N  N1787  1  0.098800  0.997000  0.874700  1.0
  N  N1788  1  0.098800  0.503000  0.625300  1.0
  N  N1789  1  0.889500  0.909500  0.192500  1.0
  N  N1790  1  0.889500  0.590500  0.307500  1.0
  N  N1791  1  0.889500  0.307500  0.909500  1.0
  N  N1792  1  0.889500  0.192500  0.590500  1.0
  N  N1793  1  0.110500  0.090500  0.807500  1.0
  N  N1794  1  0.110500  0.409500  0.692500  1.0
  N  N1795  1  0.110500  0.692500  0.090500  1.0
  N  N1796  1  0.110500  0.807500  0.409500  1.0
  N  N1797  1  0.889100  0.983000  0.207800  1.0
  N  N1798  1  0.889100  0.517000  0.292200  1.0
  N  N1799  1  0.889100  0.292200  0.983000  1.0
  N  N1800  1  0.889100  0.207800  0.517000  1.0
  N  N1801  1  0.110900  0.017000  0.792200  1.0
  N  N1802  1  0.110900  0.483000  0.707800  1.0
  N  N1803  1  0.110900  0.707800  0.017000  1.0
  N  N1804  1  0.110900  0.792200  0.483000  1.0
  N  N1805  1  0.898200  0.216200  0.203300  1.0
  N  N1806  1  0.898200  0.283800  0.296700  1.0
  N  N1807  1  0.898200  0.296700  0.216200  1.0
  N  N1808  1  0.898200  0.203300  0.283800  1.0
  N  N1809  1  0.101800  0.783800  0.796700  1.0
  N  N1810  1  0.101800  0.716200  0.703300  1.0
  N  N1811  1  0.101800  0.703300  0.783800  1.0
  N  N1812  1  0.101800  0.796700  0.716200  1.0
  N  N1813  1  0.828400  0.145800  0.539600  1.0
  N  N1814  1  0.828400  0.354200  0.960400  1.0
  N  N1815  1  0.828400  0.960400  0.145800  1.0
  N  N1816  1  0.828400  0.539600  0.354200  1.0
  N  N1817  1  0.171600  0.854200  0.460400  1.0
  N  N1818  1  0.171600  0.645800  0.039600  1.0
  N  N1819  1  0.171600  0.039600  0.854200  1.0
  N  N1820  1  0.171600  0.460400  0.645800  1.0
  N  N1821  1  0.451200  0.936800  0.104000  1.0
  N  N1822  1  0.451200  0.563200  0.396000  1.0
  N  N1823  1  0.451200  0.396000  0.936800  1.0
  N  N1824  1  0.451200  0.104000  0.563200  1.0
  N  N1825  1  0.548800  0.063200  0.896000  1.0
  N  N1826  1  0.548800  0.436800  0.604000  1.0
  N  N1827  1  0.548800  0.604000  0.063200  1.0
  N  N1828  1  0.548800  0.896000  0.436800  1.0
  N  N1829  1  0.453700  0.007100  0.132000  1.0
  N  N1830  1  0.453700  0.492900  0.368000  1.0
  N  N1831  1  0.453700  0.368000  0.007100  1.0
  N  N1832  1  0.453700  0.132000  0.492900  1.0
  N  N1833  1  0.546300  0.992900  0.868000  1.0
  N  N1834  1  0.546300  0.507100  0.632000  1.0
  N  N1835  1  0.546300  0.632000  0.992900  1.0
  N  N1836  1  0.546300  0.868000  0.507100  1.0
  N  N1837  1  0.448900  0.195800  0.269100  1.0
  N  N1838  1  0.448900  0.304200  0.230900  1.0
  N  N1839  1  0.448900  0.230900  0.195800  1.0
  N  N1840  1  0.448900  0.269100  0.304200  1.0
  N  N1841  1  0.551100  0.804200  0.730900  1.0
  N  N1842  1  0.551100  0.695800  0.769100  1.0
  N  N1843  1  0.551100  0.769100  0.804200  1.0
  N  N1844  1  0.551100  0.730900  0.695800  1.0
  N  N1845  1  0.430900  0.179600  0.598200  1.0
  N  N1846  1  0.430900  0.320400  0.901800  1.0
  N  N1847  1  0.430900  0.901800  0.179600  1.0
  N  N1848  1  0.430900  0.598200  0.320400  1.0
  N  N1849  1  0.569100  0.820400  0.401800  1.0
  N  N1850  1  0.569100  0.679600  0.098200  1.0
  N  N1851  1  0.569100  0.098200  0.820400  1.0
  N  N1852  1  0.569100  0.401800  0.679600  1.0
  N  N1853  1  0.370800  0.152900  0.546000  1.0
  N  N1854  1  0.370800  0.347100  0.954000  1.0
  N  N1855  1  0.370800  0.954000  0.152900  1.0
  N  N1856  1  0.370800  0.546000  0.347100  1.0
  N  N1857  1  0.629200  0.847100  0.454000  1.0
  N  N1858  1  0.629200  0.652900  0.046000  1.0
  N  N1859  1  0.629200  0.046000  0.847100  1.0
  N  N1860  1  0.629200  0.454000  0.652900  1.0
  N  N1861  1  0.242900  0.059100  0.359500  1.0
  N  N1862  1  0.242900  0.440900  0.140500  1.0
  N  N1863  1  0.242900  0.140500  0.059100  1.0
  N  N1864  1  0.242900  0.359500  0.440900  1.0
  N  N1865  1  0.757100  0.940900  0.640500  1.0
  N  N1866  1  0.757100  0.559100  0.859500  1.0
  N  N1867  1  0.757100  0.859500  0.940900  1.0
  N  N1868  1  0.757100  0.640500  0.559100  1.0
  O  O1869  1  0.441100  0.947900  0.514700  1
  O  O1870  1  0.441100  0.552100  0.985300  1
  O  O1871  1  0.441100  0.985300  0.947900  1
  O  O1872  1  0.441100  0.514700  0.552100  1
  O  O1873  1  0.558900  0.052100  0.485300  1
  O  O1874  1  0.558900  0.447900  0.014700  1
  O  O1875  1  0.558900  0.014700  0.052100  1
  O  O1876  1  0.558900  0.485300  0.447900  1
  O  O1877  1  0.374000  0.931300  0.469800  1
  O  O1878  1  0.374000  0.568700  0.030200  1
  O  O1879  1  0.374000  0.030200  0.931300  1
  O  O1880  1  0.374000  0.469800  0.568700  1
  O  O1881  1  0.626000  0.068700  0.530200  1
  O  O1882  1  0.626000  0.431300  0.969800  1
  O  O1883  1  0.626000  0.969800  0.068700  1
  O  O1884  1  0.626000  0.530200  0.431300  1
  O  O1885  1  0.384500  0.894800  0.530900  1
  O  O1886  1  0.384500  0.605200  0.969100  1
  O  O1887  1  0.384500  0.969100  0.894800  1
  O  O1888  1  0.384500  0.530900  0.605200  1
  O  O1889  1  0.615500  0.105200  0.469100  1
  O  O1890  1  0.615500  0.394800  0.030900  1
  O  O1891  1  0.615500  0.030900  0.105200  1
  O  O1892  1  0.615500  0.469100  0.394800  1
  O  O1893  1  0.935700  0.163600  0.964300  1
  O  O1894  1  0.935700  0.336400  0.535700  1
  O  O1895  1  0.935700  0.535700  0.163600  1
  O  O1896  1  0.935700  0.964300  0.336400  1
  O  O1897  1  0.064300  0.836400  0.035700  1
  O  O1898  1  0.064300  0.663600  0.464300  1
  O  O1899  1  0.064300  0.464300  0.836400  1
  O  O1900  1  0.064300  0.035700  0.663600  1
  O  O1901  1  0.900000  0.164200  0.030300  1
  O  O1902  1  0.900000  0.335800  0.469700  1
  O  O1903  1  0.900000  0.469700  0.164200  1
  O  O1904  1  0.900000  0.030300  0.335800  1
  O  O1905  1  0.100000  0.835800  0.969700  1
  O  O1906  1  0.100000  0.664200  0.530300  1
  O  O1907  1  0.100000  0.530300  0.835800  1
  O  O1908  1  0.100000  0.969700  0.664200  1
  O  O1909  1  0.846800  0.159400  0.972900  1
  O  O1910  1  0.846800  0.340600  0.527100  1
  O  O1911  1  0.846800  0.527100  0.159400  1
  O  O1912  1  0.846800  0.972900  0.340600  1
  O  O1913  1  0.153200  0.840600  0.027100  1
  O  O1914  1  0.153200  0.659400  0.472900  1
  O  O1915  1  0.153200  0.472900  0.840600  1
  O  O1916  1  0.153200  0.027100  0.659400  1
  O  O1917  1  0.474000  0.814000  0.067300  1
  O  O1918  1  0.474000  0.686000  0.432700  1
  O  O1919  1  0.474000  0.432700  0.814000  1
  O  O1920  1  0.474000  0.067300  0.686000  1
  O  O1921  1  0.526000  0.186000  0.932700  1
  O  O1922  1  0.526000  0.314000  0.567300  1
  O  O1923  1  0.526000  0.567300  0.186000  1
  O  O1924  1  0.526000  0.932700  0.314000  1
  O  O1925  1  0.427500  0.809000  0.129100  1
  O  O1926  1  0.427500  0.691000  0.370900  1
  O  O1927  1  0.427500  0.370900  0.809000  1
  O  O1928  1  0.427500  0.129100  0.691000  1
  O  O1929  1  0.572500  0.191000  0.870900  1
  O  O1930  1  0.572500  0.309000  0.629100  1
  O  O1931  1  0.572500  0.629100  0.191000  1
  O  O1932  1  0.572500  0.870900  0.309000  1
  O  O1933  1  0.453000  0.749700  0.092000  1
  O  O1934  1  0.453000  0.750300  0.408000  1
  O  O1935  1  0.453000  0.408000  0.749700  1
  O  O1936  1  0.453000  0.092000  0.750300  1
  O  O1937  1  0.547000  0.250300  0.908000  1
  O  O1938  1  0.547000  0.249700  0.592000  1
  O  O1939  1  0.547000  0.592000  0.250300  1
  O  O1940  1  0.547000  0.908000  0.249700  1
  O  O1941  1  0.007000  0.331000  0.849700  1
  O  O1942  1  0.007000  0.169000  0.650300  1
  O  O1943  1  0.007000  0.650300  0.331000  1
  O  O1944  1  0.007000  0.849700  0.169000  1
  O  O1945  1  0.993000  0.669000  0.150300  1
  O  O1946  1  0.993000  0.831000  0.349700  1
  O  O1947  1  0.993000  0.349700  0.669000  1
  O  O1948  1  0.993000  0.150300  0.831000  1
  O  O1949  1  0.951200  0.365100  0.804900  1
  O  O1950  1  0.951200  0.134900  0.695100  1
  O  O1951  1  0.951200  0.695100  0.365100  1
  O  O1952  1  0.951200  0.804900  0.134900  1
  O  O1953  1  0.048800  0.634900  0.195100  1
  O  O1954  1  0.048800  0.865100  0.304900  1
  O  O1955  1  0.048800  0.304900  0.634900  1
  O  O1956  1  0.048800  0.195100  0.865100  1
  O  O1957  1  0.038500  0.380900  0.805000  1
  O  O1958  1  0.038500  0.119100  0.695000  1
  O  O1959  1  0.038500  0.695000  0.380900  1
  O  O1960  1  0.038500  0.805000  0.119100  1
  O  O1961  1  0.961500  0.619100  0.195000  1
  O  O1962  1  0.961500  0.880900  0.305000  1
  O  O1963  1  0.961500  0.305000  0.619100  1
  O  O1964  1  0.961500  0.195000  0.880900  1
  O  O1965  1  0.440300  0.412600  0.452400  1
  O  O1966  1  0.440300  0.087400  0.047600  1
  O  O1967  1  0.440300  0.047600  0.412600  1
  O  O1968  1  0.440300  0.452400  0.087400  1
  O  O1969  1  0.559700  0.587400  0.547600  1
  O  O1970  1  0.559700  0.912600  0.952400  1
  O  O1971  1  0.559700  0.952400  0.587400  1
  O  O1972  1  0.559700  0.547600  0.912600  1
  O  O1973  1  0.243000  0.907000  0.198000  1
  O  O1974  1  0.243000  0.593000  0.302000  1
  O  O1975  1  0.243000  0.302000  0.907000  1
  O  O1976  1  0.243000  0.198000  0.593000  1
  O  O1977  1  0.757000  0.093000  0.802000  1
  O  O1978  1  0.757000  0.407000  0.698000  1
  O  O1979  1  0.757000  0.698000  0.093000  1
  O  O1980  1  0.757000  0.802000  0.407000  1
  O  O1981  1  0.792000  0.565000  0.471300  1
  O  O1982  1  0.792000  0.935000  0.028700  1
  O  O1983  1  0.792000  0.028700  0.565000  1
  O  O1984  1  0.792000  0.471300  0.935000  1
  O  O1985  1  0.208000  0.435000  0.528700  1
  O  O1986  1  0.208000  0.065000  0.971300  1
  O  O1987  1  0.208000  0.971300  0.435000  1
  O  O1988  1  0.208000  0.528700  0.065000  1
  F  F1989  1  0.355700  0.001500  0.518500  1
  F  F1990  1  0.355700  0.498500  0.981500  1
  F  F1991  1  0.355700  0.981500  0.001500  1
  F  F1992  1  0.355700  0.518500  0.498500  1
  F  F1993  1  0.644300  0.998500  0.481500  1
  F  F1994  1  0.644300  0.501500  0.018500  1
  F  F1995  1  0.644300  0.018500  0.998500  1
  F  F1996  1  0.644300  0.481500  0.501500  1
  F  F1997  1  0.305800  0.954800  0.533200  1
  F  F1998  1  0.305800  0.545200  0.966800  1
  F  F1999  1  0.305800  0.966800  0.954800  1
  F  F2000  1  0.305800  0.533200  0.545200  1
  F  F2001  1  0.694200  0.045200  0.466800  1
  F  F2002  1  0.694200  0.454800  0.033200  1
  F  F2003  1  0.694200  0.033200  0.045200  1
  F  F2004  1  0.694200  0.466800  0.454800  1
  F  F2005  1  0.364600  0.969600  0.572700  1
  F  F2006  1  0.364600  0.530400  0.927300  1
  F  F2007  1  0.364600  0.927300  0.969600  1
  F  F2008  1  0.364600  0.572700  0.530400  1
  F  F2009  1  0.635400  0.030400  0.427300  1
  F  F2010  1  0.635400  0.469600  0.072700  1
  F  F2011  1  0.635400  0.072700  0.030400  1
  F  F2012  1  0.635400  0.427300  0.469600  1
  F  F2013  1  0.864000  0.084000  0.014100  1
  F  F2014  1  0.864000  0.416000  0.485900  1
  F  F2015  1  0.864000  0.485900  0.084000  1
  F  F2016  1  0.864000  0.014100  0.416000  1
  F  F2017  1  0.136000  0.916000  0.985900  1
  F  F2018  1  0.136000  0.584000  0.514100  1
  F  F2019  1  0.136000  0.514100  0.916000  1
  F  F2020  1  0.136000  0.985900  0.584000  1
  F  F2021  1  0.894000  0.083100  0.956000  1
  F  F2022  1  0.894000  0.416900  0.544000  1
  F  F2023  1  0.894000  0.544000  0.083100  1
  F  F2024  1  0.894000  0.956000  0.416900  1
  F  F2025  1  0.106000  0.916900  0.044000  1
  F  F2026  1  0.106000  0.583100  0.456000  1
  F  F2027  1  0.106000  0.456000  0.916900  1
  F  F2028  1  0.106000  0.044000  0.583100  1
  F  F2029  1  0.942000  0.087600  0.006200  1
  F  F2030  1  0.942000  0.412400  0.493800  1
  F  F2031  1  0.942000  0.493800  0.087600  1
  F  F2032  1  0.942000  0.006200  0.412400  1
  F  F2033  1  0.058000  0.912400  0.993800  1
  F  F2034  1  0.058000  0.587600  0.506200  1
  F  F2035  1  0.058000  0.506200  0.912400  1
  F  F2036  1  0.058000  0.993800  0.587600  1
  F  F2037  1  0.529000  0.835400  0.115000  1
  F  F2038  1  0.529000  0.664600  0.385000  1
  F  F2039  1  0.529000  0.385000  0.835400  1
  F  F2040  1  0.529000  0.115000  0.664600  1
  F  F2041  1  0.471000  0.164600  0.885000  1
  F  F2042  1  0.471000  0.335400  0.615000  1
  F  F2043  1  0.471000  0.615000  0.164600  1
  F  F2044  1  0.471000  0.885000  0.335400  1
  F  F2045  1  0.527000  0.802000  0.167600  1
  F  F2046  1  0.527000  0.698000  0.332400  1
  F  F2047  1  0.527000  0.332400  0.802000  1
  F  F2048  1  0.527000  0.167600  0.698000  1
  F  F2049  1  0.473000  0.198000  0.832400  1
  F  F2050  1  0.473000  0.302000  0.667600  1
  F  F2051  1  0.473000  0.667600  0.198000  1
  F  F2052  1  0.473000  0.832400  0.302000  1
  F  F2053  1  0.554600  0.776000  0.113000  1
  F  F2054  1  0.554600  0.724000  0.387000  1
  F  F2055  1  0.554600  0.387000  0.776000  1
  F  F2056  1  0.554600  0.113000  0.724000  1
  F  F2057  1  0.445400  0.224000  0.887000  1
  F  F2058  1  0.445400  0.276000  0.613000  1
  F  F2059  1  0.445400  0.613000  0.224000  1
  F  F2060  1  0.445400  0.887000  0.276000  1
  F  F2061  1  0.051000  0.294000  0.775000  1
  F  F2062  1  0.051000  0.206000  0.725000  1
  F  F2063  1  0.051000  0.725000  0.294000  1
  F  F2064  1  0.051000  0.775000  0.206000  1
  F  F2065  1  0.949000  0.706000  0.225000  1
  F  F2066  1  0.949000  0.794000  0.275000  1
  F  F2067  1  0.949000  0.275000  0.706000  1
  F  F2068  1  0.949000  0.225000  0.794000  1
  F  F2069  1  0.009000  0.333000  0.738000  1
  F  F2070  1  0.009000  0.167000  0.762000  1
  F  F2071  1  0.009000  0.762000  0.333000  1
  F  F2072  1  0.009000  0.738000  0.167000  1
  F  F2073  1  0.991000  0.667000  0.262000  1
  F  F2074  1  0.991000  0.833000  0.238000  1
  F  F2075  1  0.991000  0.238000  0.667000  1
  F  F2076  1  0.991000  0.262000  0.833000  1
  F  F2077  1  0.972000  0.289000  0.773000  1
  F  F2078  1  0.972000  0.211000  0.727000  1
  F  F2079  1  0.972000  0.727000  0.289000  1
  F  F2080  1  0.972000  0.773000  0.211000  1
  F  F2081  1  0.028000  0.711000  0.227000  1
  F  F2082  1  0.028000  0.789000  0.273000  1
  F  F2083  1  0.028000  0.273000  0.711000  1
  F  F2084  1  0.028000  0.227000  0.789000  1
