
#######################################################################
#
#                 Cambridge Crystallographic Data Centre
#                                CCDC 
#
#######################################################################
#
# If this CIF has been generated from an entry in the Cambridge 
# Structural Database, then it will include bibliographic, chemical, 
# crystal, experimental, refinement or atomic coordinate data resulting 
# from the CCDC's data processing and validation procedures.
#
#######################################################################

data_AQEROE
_chemical_formula_moiety         
'C408 H264 Fe8 N72 Ni6 16+,26(C4 H10 O1),30(C3 H7 N1 O1),16(C1 F3 O3 S1 1-),30(H2 O1)'
_chemical_name_systematic        
"hexakis(\m~5~-4,4',4'',4'''-Porphyrin-5,10,15,20-tetrayl-tetrakis(N-(pyridin-2-ylmethylene)aniline))-octa-iron-hexa-nickel hexadecakis(trifluoromethanesulfonate) diethyl ether dimethylformamide solvate triacontahydrate"
_symmetry_cell_setting           tetragonal
_symmetry_space_group_name_H-M   'P 4/n'
_symmetry_Int_Tables_number      85
_space_group_name_Hall           '-P 4a'
loop_
_symmetry_equiv_pos_site_id
_symmetry_equiv_pos_as_xyz
1 x,y,z
2 1/2-x,1/2-y,z
3 1/2-y,x,z
4 y,1/2-x,z
5 -x,-y,-z
6 1/2+x,1/2+y,-z
7 1/2+y,-x,-z
8 -y,1/2+x,-z
_cell_length_a                   33.8812(7)
_cell_length_b                   33.8812(7)
_cell_length_c                   27.0998(6)
_cell_angle_alpha                90
_cell_angle_beta                 90
_cell_angle_gamma                90
_cell_volume                     31108.8
_exptl_crystal_colour            purple
_exptl_crystal_description       block
_cell_formula_units_Z            2
loop_
_atom_site_label
_atom_site_type_symbol
_atom_site_fract_x
_atom_site_fract_y
_atom_site_fract_z
Fe1 Fe 0.95502(18) 0.15846(18) 0.4436(2)
Fe2 Fe 0.95489(16) 0.15736(17) -0.1010(2)
Ni1 Ni 1.05396(15) 0.35249(14) 0.17183(16)
Ni2 Ni 1.25000 0.25000 -0.1022(4)
Ni3 Ni 1.25000 0.25000 0.4489(4)
N1 N 0.9527(11) 0.1691(11) 0.5141(12)
N2 N 0.9754(11) 0.2129(10) 0.4431(13)
N3 N 0.9491(9) 0.1624(10) -0.0293(12)
N4 N 0.9227(10) 0.1100(10) -0.0882(12)
N5 N 1.0255(9) 0.3032(9) 0.1828(10)
N6 N 1.0511(9) 0.3443(9) 0.1005(11)
N7 N 1.0799(10) 0.4033(9) 0.1615(10)
N8 N 1.1253(9) 0.4970(9) -0.0988(10)
N9 N 0.9095(9) 0.1925(11) -0.1105(12)
N10 N 0.9830(9) 0.2078(9) -0.1109(11)
N11 N 1.2162(9) 0.2033(10) -0.1018(13)
N12 N 1.1458(10) 0.5396(11) -0.1716(11)
N13 N 0.9368(12) 0.1040(11) 0.4512(12)
N14 N 1.0071(10) 0.1320(11) 0.4537(11)
C1 C 1.1910(14) 0.1831(14) 0.4478(17)
N15 N 1.1958(11) 0.2691(11) 0.4489(13)
N16 N 1.1796(12) 0.5982(11) 0.4309(14)
N17 N 1.1529(11) 0.5460(10) 0.3708(12)
N18 N 1.0591(9) 0.3595(9) 0.2429(11)
C2 C 0.9421(16) 0.1453(14) 0.5529(16)
H1 H 0.9337 0.1197 0.5459
C3 C 0.943(2) 0.1566(19) 0.599(2)
H2 H 0.935 0.1389 0.6233
C4 C 0.956(2) 0.193(2) 0.6131(19)
H3 H 0.9549 0.2001 0.6461
C5 C 0.970(2) 0.2192(19) 0.5765(18)
H4 H 0.9807 0.2437 0.5843
C6 C 0.9667(16) 0.2054(15) 0.5271(16)
C7 C 0.9778(15) 0.2297(14) 0.4860(15)
H5 H 0.986 0.2557 0.4898
C8 C 0.9884(13) 0.2357(12) 0.4012(13)
C9 C 1.0282(14) 0.2393(12) 0.3901(15)
H6 H 1.047 0.2281 0.4109
C10 C 1.0402(13) 0.2594(12) 0.3482(14)
H7 H 1.0669 0.2609 0.3405
C11 C 1.0119(13) 0.2775(13) 0.3170(13)
C12 C 0.9716(14) 0.2735(13) 0.3289(15)
H8 H 0.9524 0.2842 0.3083
C13 C 0.9608(14) 0.2534(13) 0.3719(14)
H9 H 0.9343 0.252 0.3806
C14 C 1.0256(13) 0.2996(12) 0.2723(14)
C15 C 1.0460(12) 0.3333(12) 0.2795(14)
C16 C 1.0150(12) 0.2856(11) 0.2264(13)
C17 C 0.9930(14) 0.2512(13) 0.2176(15)
H10 H 0.9825 0.2349 0.242
C18 C 0.9893(13) 0.2450(13) 0.1690(14)
H11 H 0.9759 0.2247 0.1532
C19 C 1.0109(12) 0.2775(12) 0.1468(14)
C20 C 1.0157(12) 0.2814(11) 0.0960(13)
C21 C 0.9972(12) 0.2507(11) 0.0642(13)
C22 C 0.9655(12) 0.2595(13) 0.0333(14)
H12 H 0.9552 0.2849 0.0328
C23 C 0.9492(13) 0.2307(12) 0.0032(15)
H13 H 0.9274 0.2365 -0.0164
C24 C 0.9657(12) 0.1931(11) 0.0028(13)
C25 C 0.9967(12) 0.1839(12) 0.0325(13)
H14 H 1.0069 0.1584 0.0324
C26 C 1.0132(12) 0.2126(11) 0.0631(14)
H15 H 1.0348 0.2064 0.0828
C27 C 0.9277(13) 0.1365(12) -0.0082(15)
H16 H 0.922 0.1375 0.0253
C28 C 0.9126(13) 0.1049(14) -0.0404(16)
C29 C 0.8907(15) 0.0729(14) -0.0231(17)
H17 H 0.8846 0.0707 0.0102
C30 C 0.8788(14) 0.0453(15) -0.0554(19)
H18 H 0.8632 0.0244 -0.0448
C31 C 0.8900(14) 0.0484(15) -0.106(2)
H19 H 0.8834 0.029 -0.1289
C32 C 0.9114(13) 0.0817(13) -0.1199(16)
H20 H 0.9183 0.0844 -0.1529
C33 C 1.0348(11) 0.3125(11) 0.0755(12)
C34 C 1.0410(12) 0.3176(12) 0.0231(13)
H21 H 1.0339 0.2998 -0.0014
C35 C 1.0587(12) 0.3518(12) 0.0163(15)
H22 H 1.0655 0.3627 -0.0141
C36 C 1.0656(11) 0.3697(12) 0.0640(14)
C37 C 1.0809(11) 0.4055(12) 0.0713(13)
C38 C 1.0881(12) 0.4223(13) 0.1172(13)
C39 C 1.1060(13) 0.4600(12) 0.1261(15)
H23 H 1.1138 0.478 0.1021
C40 C 1.1092(14) 0.4646(12) 0.1733(14)
H24 H 1.1195 0.4866 0.1892
C41 C 1.0942(13) 0.4295(11) 0.1967(14)
C42 C 1.0927(12) 0.4292(11) 0.0268(14)
C43 C 1.0748(13) 0.4654(13) 0.0164(14)
H25 H 1.0556 0.4752 0.0376
C44 C 1.0855(12) 0.4874(12) -0.0259(14)
H26 H 1.0729 0.5111 -0.033
C45 C 1.1138(11) 0.4738(11) -0.0556(13)
C46 C 1.1331(11) 0.4386(11) -0.0467(14)
H27 H 1.1524 0.4294 -0.0682
C47 C 1.1230(12) 0.4172(12) -0.0049(14)
H28 H 1.1368 0.3942 0.0022
C48 C 1.1131(13) 0.4836(13) -0.1418(15)
H29 H 1.0988 0.4603 -0.1449
C49 C 1.1233(13) 0.5075(13) -0.1836(15)
C50 C 1.1139(14) 0.4976(14) -0.2309(14)
H30 H 1.1004 0.4744 -0.2379
C51 C 1.1250(15) 0.5234(16) -0.2684(17)
H31 H 1.1172 0.5185 -0.3008
C52 C 0.8703(13) 0.1833(16) -0.1102(17)
H32 H 0.8628 0.1576 -0.1023
C53 C 0.8410(14) 0.2108(19) -0.121(3)
H33 H 0.8147 0.2032 -0.121
C54 C 0.8508(16) 0.248(2) -0.132(3)
H34 H 0.8314 0.2673 -0.1381
C55 C 0.8910(15) 0.2582(15) -0.135(2)
H35 H 0.899 0.2831 -0.145
C56 C 0.9181(13) 0.2306(14) -0.1211(18)
C57 C 0.9612(12) 0.2375(14) -0.1206(16)
H36 H 0.9719 0.2622 -0.127
C58 C 1.0252(11) 0.2145(11) -0.1085(13)
C59 C 1.0415(12) 0.2315(12) -0.0680(15)
H37 H 1.0255 0.2392 -0.0418
C60 C 1.0825(12) 0.2374(12) -0.0658(15)
H38 H 1.0937 0.2481 -0.0375
C61 C 1.1070(11) 0.2272(11) -0.1059(16)
C62 C 1.0903(13) 0.2118(12) -0.1465(17)
H39 H 1.1061 0.2058 -0.1735
C63 C 1.0483(12) 0.2044(13) -0.1495(16)
H40 H 1.037 0.1933 -0.1776
C64 C 1.1500(11) 0.2331(11) -0.1024(16)
C65 C 1.1640(11) 0.2720(13) -0.1017(16)
C66 C 1.1389(14) 0.3060(13) -0.1032(18)
H41 H 1.1115 0.3057 -0.1034
C67 C 1.1751(12) 0.2022(12) -0.1037(15)
C68 C 1.1618(14) 0.1618(13) -0.1042(19)
H42 H 1.1357 0.1533 -0.105
C69 C 1.1570(13) 0.5629(15) -0.2094(17)
H43 H 1.1722 0.5852 -0.203
C70 C 1.1464(16) 0.5543(17) -0.2579(16)
H44 H 1.1546 0.5709 -0.2832
C71 C 0.8999(15) 0.0905(16) 0.4481(16)
H45 H 0.8794 0.1081 0.4427
C72 C 0.8912(17) 0.0487(17) 0.453(2)
H46 H 0.8654 0.0396 0.4506
C73 C 0.9212(17) 0.0232(16) 0.4612(18)
H47 H 0.9157 -0.0035 0.4648
C74 C 0.9595(17) 0.0361(14) 0.4642(16)
H48 H 0.9801 0.0185 0.4693
C75 C 0.9666(14) 0.0767(14) 0.4593(14)
C76 C 1.0055(14) 0.0942(14) 0.4605(14)
H49 H 1.0281 0.0792 0.4659
C77 C 1.0455(13) 0.1503(12) 0.4537(15)
C78 C 1.0587(14) 0.1713(14) 0.4931(15)
H50 H 1.043 0.1735 0.5211
C79 C 1.0958(14) 0.1898(15) 0.4921(16)
H51 H 1.1047 0.2042 0.5192
C80 C 1.1189(13) 0.1863(13) 0.4498(16)
C81 C 1.1055(13) 0.1660(12) 0.4114(15)
H52 H 1.1213 0.1642 0.3834
C82 C 1.0690(13) 0.1473(12) 0.4112(15)
H53 H 1.0605 0.1332 0.3838
C83 C 1.1584(13) 0.2066(13) 0.4495(16)
C84 C 1.1602(13) 0.2468(13) 0.4505(18)
C85 C 1.1271(13) 0.2717(13) 0.4494(18)
H54 H 1.1009 0.2637 0.4489
C86 C 1.1403(14) 0.3097(16) 0.449(2)
H55 H 1.1245 0.3321 0.4499
C87 C 1.1929(16) 0.6248(17) 0.463(2)
H56 H 1.1920 0.619 0.4964
C88 C 1.2080(19) 0.661(2) 0.448(3)
H57 H 1.2164 0.6788 0.4717
C89 C 1.210(2) 0.670(2) 0.398(3)
H58 H 1.2225 0.6931 0.3874
C90 C 1.1950(17) 0.644(2) 0.364(2)
H59 H 1.1942 0.6503 0.3302
C91 C 1.1811(14) 0.6091(15) 0.3810(17)
C92 C 1.1650(14) 0.5779(14) 0.3498(17)
H60 H 1.1634 0.5809 0.3157
C93 C 1.1371(11) 0.5160(12) 0.3389(13)
C94 C 1.0977(12) 0.5080(12) 0.3395(13)
H61 H 1.0807 0.5225 0.3595
C95 C 1.0834(12) 0.4778(13) 0.3096(14)
H62 H 1.0565 0.4723 0.3094
C96 C 1.1087(11) 0.4557(13) 0.2802(13)
C97 C 1.1481(12) 0.4638(13) 0.2806(14)
H63 H 1.1652 0.4493 0.2608
C98 C 1.1629(12) 0.4941(13) 0.3111(14)
H64 H 1.1899 0.4992 0.3123
C99 C 1.0923(11) 0.4237(11) 0.2472(13)
C100 C 1.0767(12) 0.3895(12) 0.2681(14)
C101 C 1.0753(13) 0.3836(13) 0.3200(13)
H65 H 1.1 0.4000 0.3442
C102 C 1.0559(13) 0.3495(14) 0.3268(15)
H66 H 1.0498 0.3383 0.3572
Fe1A Fe 1.54498(18) 0.34154(18) 0.4436(2)
Fe1B Fe 1.34154(18) -0.04498(18) 0.4436(2)
Fe1C Fe 1.15846(18) 0.54498(18) 0.4436(2)
Fe2A Fe 1.54511(16) 0.34264(17) -0.1010(2)
Fe2B Fe 1.34264(17) -0.04511(16) -0.1010(2)
Fe2C Fe 1.15736(17) 0.54511(16) -0.1010(2)
Ni1A Ni 1.44604(15) 0.14751(14) 0.17183(16)
Ni1B Ni 1.14751(14) 0.05396(15) 0.17183(16)
Ni1C Ni 1.35249(14) 0.44604(15) 0.17183(16)
N1A N 1.5473(11) 0.3309(11) 0.5141(12)
N1B N 1.3309(11) -0.0473(11) 0.5141(12)
N1C N 1.1691(11) 0.5473(11) 0.5141(12)
N2A N 1.5246(11) 0.2871(10) 0.4431(13)
N2B N 1.2871(10) -0.0246(11) 0.4431(13)
N2C N 1.2129(10) 0.5246(11) 0.4431(13)
N3A N 1.5509(9) 0.3376(10) -0.0293(12)
N3B N 1.3376(10) -0.0509(9) -0.0293(12)
N3C N 1.1624(10) 0.5509(9) -0.0293(12)
N4A N 1.5773(10) 0.3900(10) -0.0882(12)
N4B N 1.3900(10) -0.0773(10) -0.0882(12)
N4C N 1.1100(10) 0.5773(10) -0.0882(12)
N5A N 1.4745(9) 0.1968(9) 0.1828(10)
N5B N 1.1968(9) 0.0255(9) 0.1828(10)
N5C N 1.3032(9) 0.4745(9) 0.1828(10)
N6A N 1.4489(9) 0.1557(9) 0.1005(11)
N6B N 1.1557(9) 0.0511(9) 0.1005(11)
N6C N 1.3443(9) 0.4489(9) 0.1005(11)
N7A N 1.4201(10) 0.0967(9) 0.1615(10)
N7B N 1.0967(9) 0.0799(10) 0.1615(10)
N7C N 1.4033(9) 0.4201(10) 0.1615(10)
N8A N 1.3747(9) 0.0030(9) -0.0988(10)
N8B N 1.0030(9) 0.1253(9) -0.0988(10)
N8C N 1.4970(9) 0.3747(9) -0.0988(10)
N9B N 1.3075(11) -0.0905(9) -0.1105(12)
N9C N 1.1925(11) 0.5905(9) -0.1105(12)
N9A N 1.5905(9) 0.3075(11) -0.1105(12)
N10B N 1.2922(9) -0.0170(9) -0.1109(11)
N10C N 1.2078(9) 0.5170(9) -0.1109(11)
N10A N 1.5170(9) 0.2922(9) -0.1109(11)
N11B N 1.2967(10) 0.2162(9) -0.1018(13)
N11C N 1.2033(10) 0.2838(9) -0.1018(13)
N11A N 1.2838(9) 0.2967(10) -0.1018(13)
N12A N 1.3542(10) -0.0396(11) -0.1716(11)
N12B N 0.9604(11) 0.1458(10) -0.1716(11)
N12C N 1.5396(11) 0.3542(10) -0.1716(11)
N13B N 1.3960(11) -0.0632(12) 0.4512(12)
N13C N 1.1040(11) 0.5632(12) 0.4512(12)
N13A N 1.5632(12) 0.3960(11) 0.4512(12)
N14B N 1.3680(11) 0.0071(10) 0.4537(11)
N14C N 1.1320(11) 0.4929(10) 0.4537(11)
N14A N 1.4929(10) 0.3680(11) 0.4537(11)
C1B C 1.3169(14) 0.1910(14) 0.4478(17)
C1C C 1.1831(14) 0.3090(14) 0.4478(17)
C1A C 1.3090(14) 0.3169(14) 0.4478(17)
N15B N 1.2309(11) 0.1958(11) 0.4489(13)
N15C N 1.2691(11) 0.3042(11) 0.4489(13)
N15A N 1.3042(11) 0.2309(11) 0.4489(13)
N16A N 1.3204(12) -0.0982(11) 0.4309(14)
N16B N 0.9018(11) 0.1796(12) 0.4309(14)
N16C N 1.5982(11) 0.3204(12) 0.4309(14)
N17A N 1.3471(11) -0.0460(10) 0.3708(12)
N17B N 0.9540(10) 0.1529(11) 0.3708(12)
N17C N 1.5460(10) 0.3471(11) 0.3708(12)
N18A N 1.4409(9) 0.1405(9) 0.2429(11)
N18B N 1.1405(9) 0.0591(9) 0.2429(11)
N18C N 1.3595(9) 0.4409(9) 0.2429(11)
C2A C 1.5579(16) 0.3547(14) 0.5529(16)
C2B C 1.3547(14) -0.0579(16) 0.5529(16)
C2C C 1.1453(14) 0.5579(16) 0.5529(16)
H1A H 1.5663 0.3803 0.5459
H1B H 1.3803 -0.0663 0.5459
H1C H 1.1197 0.5663 0.5459
C3A C 1.557(2) 0.3434(19) 0.599(2)
C3B C 1.3434(19) -0.057(2) 0.599(2)
C3C C 1.1566(19) 0.557(2) 0.599(2)
H2A H 1.565 0.3611 0.6233
H2B H 1.3611 -0.065 0.6233
H2C H 1.1389 0.565 0.6233
C4A C 1.544(2) 0.307(2) 0.6131(19)
C4B C 1.307(2) -0.044(2) 0.6131(19)
C4C C 1.193(2) 0.544(2) 0.6131(19)
H3A H 1.5451 0.2999 0.6461
H3B H 1.2999 -0.0451 0.6461
H3C H 1.2001 0.5451 0.6461
C5A C 1.530(2) 0.2808(19) 0.5765(18)
C5B C 1.2808(19) -0.030(2) 0.5765(18)
C5C C 1.2192(19) 0.530(2) 0.5765(18)
H4A H 1.5193 0.2563 0.5843
H4B H 1.2563 -0.0193 0.5843
H4C H 1.2437 0.5193 0.5843
C6A C 1.5333(16) 0.2946(15) 0.5271(16)
C6B C 1.2946(15) -0.0333(16) 0.5271(16)
C6C C 1.2054(15) 0.5333(16) 0.5271(16)
C7A C 1.5222(15) 0.2703(14) 0.4860(15)
C7B C 1.2703(14) -0.0222(15) 0.4860(15)
C7C C 1.2297(14) 0.5222(15) 0.4860(15)
H5A H 1.514 0.2443 0.4898
H5B H 1.2443 -0.014 0.4898
H5C H 1.2557 0.514 0.4898
C8A C 1.5116(13) 0.2643(12) 0.4012(13)
C8B C 1.2643(12) -0.0116(13) 0.4012(13)
C8C C 1.2357(12) 0.5116(13) 0.4012(13)
C9A C 1.4718(14) 0.2607(12) 0.3901(15)
C9B C 1.2607(12) 0.0282(14) 0.3901(15)
C9C C 1.2393(12) 0.4718(14) 0.3901(15)
H6A H 1.453 0.2719 0.4109
H6B H 1.2719 0.047 0.4109
H6C H 1.2281 0.453 0.4109
C10A C 1.4598(13) 0.2406(12) 0.3482(14)
C10B C 1.2406(12) 0.0402(13) 0.3482(14)
C10C C 1.2594(12) 0.4598(13) 0.3482(14)
H7A H 1.4331 0.2391 0.3405
H7B H 1.2391 0.0669 0.3405
H7C H 1.2609 0.4331 0.3405
C11A C 1.4881(13) 0.2225(13) 0.3170(13)
C11B C 1.2225(13) 0.0119(13) 0.3170(13)
C11C C 1.2775(13) 0.4881(13) 0.3170(13)
C12A C 1.5284(14) 0.2265(13) 0.3289(15)
C12B C 1.2265(13) -0.0284(14) 0.3289(15)
C12C C 1.2735(13) 0.5284(14) 0.3289(15)
H8A H 1.5476 0.2158 0.3083
H8B H 1.2158 -0.0476 0.3083
H8C H 1.2842 0.5476 0.3083
C13A C 1.5392(14) 0.2466(13) 0.3719(14)
C13B C 1.2466(13) -0.0392(14) 0.3719(14)
C13C C 1.2534(13) 0.5392(14) 0.3719(14)
H9A H 1.5657 0.248 0.3806
H9B H 1.248 -0.0657 0.3806
H9C H 1.252 0.5657 0.3806
C14A C 1.4744(13) 0.2004(12) 0.2723(14)
C14B C 1.2004(12) 0.0256(13) 0.2723(14)
C14C C 1.2996(12) 0.4744(13) 0.2723(14)
C15A C 1.4540(12) 0.1667(12) 0.2795(14)
C15B C 1.1667(12) 0.0460(12) 0.2795(14)
C15C C 1.3333(12) 0.4540(12) 0.2795(14)
C16A C 1.4850(12) 0.2144(11) 0.2264(13)
C16B C 1.2144(11) 0.0150(12) 0.2264(13)
C16C C 1.2856(11) 0.4850(12) 0.2264(13)
C17A C 1.5070(14) 0.2488(13) 0.2176(15)
C17B C 1.2488(13) -0.0070(14) 0.2176(15)
C17C C 1.2512(13) 0.5070(14) 0.2176(15)
H10A H 1.5175 0.2651 0.242
H10B H 1.2651 -0.0175 0.242
H10C H 1.2349 0.5175 0.242
C18A C 1.5107(13) 0.2550(13) 0.1690(14)
C18B C 1.2550(13) -0.0107(13) 0.1690(14)
C18C C 1.2450(13) 0.5107(13) 0.1690(14)
H11A H 1.5241 0.2753 0.1532
H11B H 1.2753 -0.0241 0.1532
H11C H 1.2247 0.5241 0.1532
C19A C 1.4891(12) 0.2225(12) 0.1468(14)
C19B C 1.2225(12) 0.0109(12) 0.1468(14)
C19C C 1.2775(12) 0.4891(12) 0.1468(14)
C20A C 1.4843(12) 0.2186(11) 0.0960(13)
C20B C 1.2186(11) 0.0157(12) 0.0960(13)
C20C C 1.2814(11) 0.4843(12) 0.0960(13)
C21A C 1.5028(12) 0.2493(11) 0.0642(13)
C21B C 1.2493(11) -0.0028(12) 0.0642(13)
C21C C 1.2507(11) 0.5028(12) 0.0642(13)
C22A C 1.5345(12) 0.2405(13) 0.0333(14)
C22B C 1.2405(13) -0.0345(12) 0.0333(14)
C22C C 1.2595(13) 0.5345(12) 0.0333(14)
H12A H 1.5448 0.2151 0.0328
H12B H 1.2151 -0.0448 0.0328
H12C H 1.2849 0.5448 0.0328
C23A C 1.5508(13) 0.2693(12) 0.0032(15)
C23B C 1.2693(12) -0.0508(13) 0.0032(15)
C23C C 1.2307(12) 0.5508(13) 0.0032(15)
H13A H 1.5726 0.2635 -0.0164
H13B H 1.2635 -0.0726 -0.0164
H13C H 1.2365 0.5726 -0.0164
C24A C 1.5343(12) 0.3069(11) 0.0028(13)
C24B C 1.3069(11) -0.0343(12) 0.0028(13)
C24C C 1.1931(11) 0.5343(12) 0.0028(13)
C25A C 1.5033(12) 0.3161(12) 0.0325(13)
C25B C 1.3161(12) -0.0033(12) 0.0325(13)
C25C C 1.1839(12) 0.5033(12) 0.0325(13)
H14A H 1.4931 0.3416 0.0324
H14B H 1.3416 0.0069 0.0324
H14C H 1.1584 0.4931 0.0324
C26A C 1.4868(12) 0.2874(11) 0.0631(14)
C26B C 1.2874(11) 0.0132(12) 0.0631(14)
C26C C 1.2126(11) 0.4868(12) 0.0631(14)
H15A H 1.4652 0.2936 0.0828
H15B H 1.2936 0.0348 0.0828
H15C H 1.2064 0.4652 0.0828
C27A C 1.5723(13) 0.3635(12) -0.0082(15)
C27B C 1.3635(12) -0.0723(13) -0.0082(15)
C27C C 1.1365(12) 0.5723(13) -0.0082(15)
H16A H 1.578 0.3625 0.0253
H16B H 1.3625 -0.078 0.0253
H16C H 1.1375 0.578 0.0253
C28A C 1.5874(13) 0.3951(14) -0.0404(16)
C28B C 1.3951(14) -0.0874(13) -0.0404(16)
C28C C 1.1049(14) 0.5874(13) -0.0404(16)
C29A C 1.6093(15) 0.4271(14) -0.0231(17)
C29B C 1.4271(14) -0.1093(15) -0.0231(17)
C29C C 1.0729(14) 0.6093(15) -0.0231(17)
H17A H 1.6154 0.4293 0.0102
H17B H 1.4293 -0.1154 0.0102
H17C H 1.0707 0.6154 0.0102
C30A C 1.6212(14) 0.4547(15) -0.0554(19)
C30B C 1.4547(15) -0.1212(14) -0.0554(19)
C30C C 1.0453(15) 0.6212(14) -0.0554(19)
H18A H 1.6368 0.4756 -0.0448
H18B H 1.4756 -0.1368 -0.0448
H18C H 1.0244 0.6368 -0.0448
C31A C 1.6100(14) 0.4516(15) -0.106(2)
C31B C 1.4516(15) -0.1100(14) -0.106(2)
C31C C 1.0484(15) 0.6100(14) -0.106(2)
H19A H 1.6166 0.471 -0.1289
H19B H 1.471 -0.1166 -0.1289
H19C H 1.029 0.6166 -0.1289
C32A C 1.5886(13) 0.4183(13) -0.1199(16)
C32B C 1.4183(13) -0.0886(13) -0.1199(16)
C32C C 1.0817(13) 0.5886(13) -0.1199(16)
H20A H 1.5817 0.4156 -0.1529
H20B H 1.4156 -0.0817 -0.1529
H20C H 1.0844 0.5817 -0.1529
C33A C 1.4652(11) 0.1875(11) 0.0755(12)
C33B C 1.1875(11) 0.0348(11) 0.0755(12)
C33C C 1.3125(11) 0.4652(11) 0.0755(12)
C34A C 1.4590(12) 0.1824(12) 0.0231(13)
C34B C 1.1824(12) 0.0410(12) 0.0231(13)
C34C C 1.3176(12) 0.4590(12) 0.0231(13)
H21A H 1.4661 0.2002 -0.0014
H21B H 1.2002 0.0339 -0.0014
H21C H 1.2998 0.4661 -0.0014
C35A C 1.4413(12) 0.1482(12) 0.0163(15)
C35B C 1.1482(12) 0.0587(12) 0.0163(15)
C35C C 1.3518(12) 0.4413(12) 0.0163(15)
H22A H 1.4345 0.1373 -0.0141
H22B H 1.1373 0.0655 -0.0141
H22C H 1.3627 0.4345 -0.0141
C36A C 1.4344(11) 0.1303(12) 0.0640(14)
C36B C 1.1303(12) 0.0656(11) 0.0640(14)
C36C C 1.3697(12) 0.4344(11) 0.0640(14)
C37A C 1.4191(11) 0.0945(12) 0.0713(13)
C37B C 1.0945(12) 0.0809(11) 0.0713(13)
C37C C 1.4055(12) 0.4191(11) 0.0713(13)
C38A C 1.4119(12) 0.0777(13) 0.1172(13)
C38B C 1.0777(13) 0.0881(12) 0.1172(13)
C38C C 1.4223(13) 0.4119(12) 0.1172(13)
C39A C 1.3940(13) 0.0400(12) 0.1261(15)
C39B C 1.0400(12) 0.1060(13) 0.1261(15)
C39C C 1.4600(12) 0.3940(13) 0.1261(15)
H23A H 1.3862 0.022 0.1021
H23B H 1.022 0.1138 0.1021
H23C H 1.478 0.3862 0.1021
C40A C 1.3908(14) 0.0354(12) 0.1733(14)
C40B C 1.0354(12) 0.1092(14) 0.1733(14)
C40C C 1.4646(12) 0.3908(14) 0.1733(14)
H24A H 1.3805 0.0134 0.1892
H24B H 1.0134 0.1195 0.1892
H24C H 1.4866 0.3805 0.1892
C41A C 1.4058(13) 0.0705(11) 0.1967(14)
C41B C 1.0705(11) 0.0942(13) 0.1967(14)
C41C C 1.4295(11) 0.4058(13) 0.1967(14)
C42A C 1.4073(12) 0.0708(11) 0.0268(14)
C42B C 1.0708(11) 0.0927(12) 0.0268(14)
C42C C 1.4292(11) 0.4073(12) 0.0268(14)
C43A C 1.4252(13) 0.0346(13) 0.0164(14)
C43B C 1.0346(13) 0.0748(13) 0.0164(14)
C43C C 1.4654(13) 0.4252(13) 0.0164(14)
H25A H 1.4444 0.0248 0.0376
H25B H 1.0248 0.0556 0.0376
H25C H 1.4752 0.4444 0.0376
C44A C 1.4145(12) 0.0126(12) -0.0259(14)
C44B C 1.0126(12) 0.0855(12) -0.0259(14)
C44C C 1.4874(12) 0.4145(12) -0.0259(14)
H26A H 1.4271 -0.0111 -0.033
H26B H 0.9889 0.0729 -0.033
H26C H 1.5111 0.4271 -0.033
C45A C 1.3862(11) 0.0262(11) -0.0556(13)
C45B C 1.0262(11) 0.1138(11) -0.0556(13)
C45C C 1.4738(11) 0.3862(11) -0.0556(13)
C46A C 1.3669(11) 0.0614(11) -0.0467(14)
C46B C 1.0614(11) 0.1331(11) -0.0467(14)
C46C C 1.4386(11) 0.3669(11) -0.0467(14)
H27A H 1.3476 0.0706 -0.0682
H27B H 1.0706 0.1524 -0.0682
H27C H 1.4294 0.3476 -0.0682
C47A C 1.3770(12) 0.0828(12) -0.0049(14)
C47B C 1.0828(12) 0.1230(12) -0.0049(14)
C47C C 1.4172(12) 0.3770(12) -0.0049(14)
H28A H 1.3632 0.1058 0.0022
H28B H 1.1058 0.1368 0.0022
H28C H 1.3942 0.3632 0.0022
C48A C 1.3869(13) 0.0164(13) -0.1418(15)
C48B C 1.0164(13) 0.1131(13) -0.1418(15)
C48C C 1.4836(13) 0.3869(13) -0.1418(15)
H29A H 1.4012 0.0397 -0.1449
H29B H 1.0397 0.0988 -0.1449
H29C H 1.4603 0.4012 -0.1449
C49A C 1.3767(13) -0.0075(13) -0.1836(15)
C49B C 0.9925(13) 0.1233(13) -0.1836(15)
C49C C 1.5075(13) 0.3767(13) -0.1836(15)
C50A C 1.3861(14) 0.0024(14) -0.2309(14)
C50B C 1.0024(14) 0.1139(14) -0.2309(14)
C50C C 1.4976(14) 0.3861(14) -0.2309(14)
H30A H 1.3996 0.0256 -0.2379
H30B H 1.0256 0.1004 -0.2379
H30C H 1.4744 0.3996 -0.2379
C51A C 1.3750(15) -0.0234(16) -0.2684(17)
C51B C 0.9766(16) 0.1250(15) -0.2684(17)
C51C C 1.5234(16) 0.3750(15) -0.2684(17)
H31A H 1.3828 -0.0185 -0.3008
H31B H 0.9815 0.1172 -0.3008
H31C H 1.5185 0.3828 -0.3008
C52B C 1.3167(16) -0.1297(13) -0.1102(17)
C52C C 1.1833(16) 0.6297(13) -0.1102(17)
C52A C 1.6297(13) 0.3167(16) -0.1102(17)
H32B H 1.3424 -0.1372 -0.1023
H32C H 1.1576 0.6372 -0.1023
H32A H 1.6372 0.3424 -0.1023
C53B C 1.2892(19) -0.1590(14) -0.121(3)
C53C C 1.2108(19) 0.6590(14) -0.121(3)
C53A C 1.6590(14) 0.2892(19) -0.121(3)
H33B H 1.2968 -0.1853 -0.121
H33C H 1.2032 0.6853 -0.121
H33A H 1.6853 0.2968 -0.121
C54B C 1.252(2) -0.1492(16) -0.132(3)
C54C C 1.248(2) 0.6492(16) -0.132(3)
C54A C 1.6492(16) 0.252(2) -0.132(3)
H34B H 1.2327 -0.1686 -0.1381
H34C H 1.2673 0.6686 -0.1381
H34A H 1.6686 0.2327 -0.1381
C55B C 1.2418(15) -0.1090(15) -0.135(2)
C55C C 1.2582(15) 0.6090(15) -0.135(2)
C55A C 1.6090(15) 0.2418(15) -0.135(2)
H35B H 1.2169 -0.101 -0.145
H35C H 1.2831 0.601 -0.145
H35A H 1.601 0.2169 -0.145
C56B C 1.2694(14) -0.0819(13) -0.1211(18)
C56C C 1.2306(14) 0.5819(13) -0.1211(18)
C56A C 1.5819(13) 0.2694(14) -0.1211(18)
C57B C 1.2625(14) -0.0388(12) -0.1206(16)
C57C C 1.2375(14) 0.5388(12) -0.1206(16)
C57A C 1.5388(12) 0.2625(14) -0.1206(16)
H36B H 1.2378 -0.0281 -0.127
H36C H 1.2622 0.5281 -0.127
H36A H 1.5281 0.2378 -0.127
C58B C 1.2855(11) 0.0252(11) -0.1085(13)
C58C C 1.2145(11) 0.4748(11) -0.1085(13)
C58A C 1.4748(11) 0.2855(11) -0.1085(13)
C59B C 1.2685(12) 0.0415(12) -0.0680(15)
C59C C 1.2315(12) 0.4585(12) -0.0680(15)
C59A C 1.4585(12) 0.2685(12) -0.0680(15)
H37B H 1.2608 0.0255 -0.0418
H37C H 1.2392 0.4745 -0.0418
H37A H 1.4745 0.2608 -0.0418
C60B C 1.2626(12) 0.0825(12) -0.0658(15)
C60C C 1.2374(12) 0.4175(12) -0.0658(15)
C60A C 1.4175(12) 0.2626(12) -0.0658(15)
H38B H 1.2519 0.0937 -0.0375
H38C H 1.2481 0.4063 -0.0375
H38A H 1.4063 0.2519 -0.0375
C61B C 1.2728(11) 0.1070(11) -0.1059(16)
C61C C 1.2272(11) 0.3930(11) -0.1059(16)
C61A C 1.3930(11) 0.2728(11) -0.1059(16)
C62B C 1.2882(12) 0.0903(13) -0.1465(17)
C62C C 1.2118(12) 0.4097(13) -0.1465(17)
C62A C 1.4097(13) 0.2882(12) -0.1465(17)
H39B H 1.2942 0.1061 -0.1735
H39C H 1.2058 0.3939 -0.1735
H39A H 1.3939 0.2942 -0.1735
C63B C 1.2956(13) 0.0483(12) -0.1495(16)
C63C C 1.2044(13) 0.4517(12) -0.1495(16)
C63A C 1.4517(12) 0.2956(13) -0.1495(16)
H40B H 1.3067 0.037 -0.1776
H40C H 1.1933 0.463 -0.1776
H40A H 1.463 0.3067 -0.1776
C64B C 1.2669(11) 0.1500(11) -0.1024(16)
C64C C 1.2331(11) 0.3500(11) -0.1024(16)
C64A C 1.3500(11) 0.2669(11) -0.1024(16)
C65B C 1.2280(13) 0.1640(11) -0.1017(16)
C65C C 1.2720(13) 0.3360(11) -0.1017(16)
C65A C 1.3360(11) 0.2280(13) -0.1017(16)
C66B C 1.1940(13) 0.1389(14) -0.1032(18)
C66C C 1.3060(13) 0.3611(14) -0.1032(18)
C66A C 1.3611(14) 0.1940(13) -0.1032(18)
H41B H 1.1943 0.1115 -0.1034
H41C H 1.3057 0.3885 -0.1034
H41A H 1.3885 0.1943 -0.1034
C67B C 1.2978(12) 0.1751(12) -0.1037(15)
C67C C 1.2022(12) 0.3249(12) -0.1037(15)
C67A C 1.3249(12) 0.2978(12) -0.1037(15)
C68B C 1.3382(13) 0.1618(14) -0.1042(19)
C68C C 1.1618(13) 0.3382(14) -0.1042(19)
C68A C 1.3382(14) 0.3382(13) -0.1042(19)
H42B H 1.3467 0.1357 -0.105
H42C H 1.1533 0.3643 -0.105
H42A H 1.3643 0.3467 -0.105
C69A C 1.3430(13) -0.0629(15) -0.2094(17)
C69B C 0.9371(15) 0.1570(13) -0.2094(17)
C69C C 1.5629(15) 0.3430(13) -0.2094(17)
H43A H 1.3278 -0.0852 -0.203
H43B H 0.9148 0.1722 -0.203
H43C H 1.5852 0.3278 -0.203
C70A C 1.3536(16) -0.0543(17) -0.2579(16)
C70B C 0.9457(17) 0.1464(16) -0.2579(16)
C70C C 1.5543(17) 0.3536(16) -0.2579(16)
H44A H 1.3454 -0.0709 -0.2832
H44B H 0.9291 0.1546 -0.2832
H44C H 1.5709 0.3454 -0.2832
C71B C 1.4095(16) -0.1001(15) 0.4481(16)
C71C C 1.0905(16) 0.6001(15) 0.4481(16)
C71A C 1.6001(15) 0.4095(16) 0.4481(16)
H45B H 1.3919 -0.1206 0.4427
H45C H 1.1081 0.6206 0.4427
H45A H 1.6206 0.3919 0.4427
C72B C 1.4513(17) -0.1088(17) 0.453(2)
C72C C 1.0487(17) 0.6088(17) 0.453(2)
C72A C 1.6088(17) 0.4513(17) 0.453(2)
H46B H 1.4604 -0.1346 0.4506
H46C H 1.0396 0.6346 0.4506
H46A H 1.6346 0.4604 0.4506
C73B C 1.4768(16) -0.0788(17) 0.4612(18)
C73C C 1.0232(16) 0.5788(17) 0.4612(18)
C73A C 1.5788(17) 0.4768(16) 0.4612(18)
H47B H 1.5035 -0.0843 0.4648
H47C H 0.9965 0.5843 0.4648
H47A H 1.5843 0.5035 0.4648
C74B C 1.4639(14) -0.0405(17) 0.4642(16)
C74C C 1.0361(14) 0.5405(17) 0.4642(16)
C74A C 1.5405(17) 0.4639(14) 0.4642(16)
H48B H 1.4815 -0.0199 0.4693
H48C H 1.0185 0.5199 0.4693
H48A H 1.5199 0.4815 0.4693
C75B C 1.4233(14) -0.0334(14) 0.4593(14)
C75C C 1.0767(14) 0.5334(14) 0.4593(14)
C75A C 1.5334(14) 0.4233(14) 0.4593(14)
C76B C 1.4058(14) 0.0055(14) 0.4605(14)
C76C C 1.0942(14) 0.4945(14) 0.4605(14)
C76A C 1.4945(14) 0.4058(14) 0.4605(14)
H49B H 1.4208 0.0281 0.4659
H49C H 1.0792 0.4719 0.4659
H49A H 1.4719 0.4208 0.4659
C77B C 1.3497(12) 0.0455(13) 0.4537(15)
C77C C 1.1503(12) 0.4545(13) 0.4537(15)
C77A C 1.4545(13) 0.3497(12) 0.4537(15)
C78B C 1.3287(14) 0.0587(14) 0.4931(15)
C78C C 1.1713(14) 0.4413(14) 0.4931(15)
C78A C 1.4413(14) 0.3287(14) 0.4931(15)
H50B H 1.3265 0.043 0.5211
H50C H 1.1735 0.457 0.5211
H50A H 1.457 0.3265 0.5211
C79B C 1.3102(15) 0.0958(14) 0.4921(16)
C79C C 1.1898(15) 0.4042(14) 0.4921(16)
C79A C 1.4042(14) 0.3102(15) 0.4921(16)
H51B H 1.2958 0.1047 0.5192
H51C H 1.2042 0.3953 0.5192
H51A H 1.3953 0.2958 0.5192
C80B C 1.3137(13) 0.1189(13) 0.4498(16)
C80C C 1.1863(13) 0.3811(13) 0.4498(16)
C80A C 1.3811(13) 0.3137(13) 0.4498(16)
C81B C 1.3340(12) 0.1055(13) 0.4114(15)
C81C C 1.1660(12) 0.3945(13) 0.4114(15)
C81A C 1.3945(13) 0.3340(12) 0.4114(15)
H52B H 1.3358 0.1213 0.3834
H52C H 1.1642 0.3787 0.3834
H52A H 1.3787 0.3358 0.3834
C82B C 1.3527(12) 0.0690(13) 0.4112(15)
C82C C 1.1473(12) 0.4310(13) 0.4112(15)
C82A C 1.4310(13) 0.3527(12) 0.4112(15)
H53B H 1.3668 0.0605 0.3838
H53C H 1.1332 0.4395 0.3838
H53A H 1.4395 0.3668 0.3838
C83B C 1.2934(13) 0.1584(13) 0.4495(16)
C83C C 1.2066(13) 0.3416(13) 0.4495(16)
C83A C 1.3416(13) 0.2934(13) 0.4495(16)
C84B C 1.2532(13) 0.1602(13) 0.4505(18)
C84C C 1.2468(13) 0.3398(13) 0.4505(18)
C84A C 1.3398(13) 0.2532(13) 0.4505(18)
C85B C 1.2283(13) 0.1271(13) 0.4494(18)
C85C C 1.2717(13) 0.3729(13) 0.4494(18)
C85A C 1.3729(13) 0.2283(13) 0.4494(18)
H54B H 1.2363 0.1009 0.4489
H54C H 1.2637 0.3991 0.4489
H54A H 1.3991 0.2363 0.4489
C86B C 1.1903(16) 0.1403(14) 0.449(2)
C86C C 1.3097(16) 0.3597(14) 0.449(2)
C86A C 1.3597(14) 0.1903(16) 0.449(2)
H55B H 1.1679 0.1245 0.4499
H55C H 1.3321 0.3755 0.4499
H55A H 1.3755 0.1679 0.4499
C87A C 1.3071(16) -0.1248(17) 0.463(2)
C87B C 0.8752(17) 0.1929(16) 0.463(2)
C87C C 1.6248(17) 0.3071(16) 0.463(2)
H56A H 1.3080 -0.119 0.4964
H56B H 0.881 0.1920 0.4964
H56C H 1.619 0.3080 0.4964
C88A C 1.2920(19) -0.161(2) 0.448(3)
C88B C 0.839(2) 0.2080(19) 0.448(3)
C88C C 1.661(2) 0.2920(19) 0.448(3)
H57A H 1.2836 -0.1788 0.4717
H57B H 0.8212 0.2164 0.4717
H57C H 1.6788 0.2836 0.4717
C89A C 1.290(2) -0.170(2) 0.398(3)
C89B C 0.830(2) 0.210(2) 0.398(3)
C89C C 1.670(2) 0.290(2) 0.398(3)
H58A H 1.2775 -0.1931 0.3874
H58B H 0.8069 0.2225 0.3874
H58C H 1.6931 0.2775 0.3874
C90A C 1.3050(17) -0.144(2) 0.364(2)
C90B C 0.856(2) 0.1950(17) 0.364(2)
C90C C 1.644(2) 0.3050(17) 0.364(2)
H59A H 1.3058 -0.1503 0.3302
H59B H 0.8497 0.1942 0.3302
H59C H 1.6503 0.3058 0.3302
C91A C 1.3189(14) -0.1091(15) 0.3810(17)
C91B C 0.8909(15) 0.1811(14) 0.3810(17)
C91C C 1.6091(15) 0.3189(14) 0.3810(17)
C92A C 1.3350(14) -0.0779(14) 0.3498(17)
C92B C 0.9221(14) 0.1650(14) 0.3498(17)
C92C C 1.5779(14) 0.3350(14) 0.3498(17)
H60A H 1.3366 -0.0809 0.3157
H60B H 0.9191 0.1634 0.3157
H60C H 1.5809 0.3366 0.3157
C93A C 1.3629(11) -0.0160(12) 0.3389(13)
C93B C 0.9840(12) 0.1371(11) 0.3389(13)
C93C C 1.5160(12) 0.3629(11) 0.3389(13)
C94A C 1.4023(12) -0.0080(12) 0.3395(13)
C94B C 0.9920(12) 0.0977(12) 0.3395(13)
C94C C 1.5080(12) 0.4023(12) 0.3395(13)
H61A H 1.4193 -0.0225 0.3595
H61B H 0.9775 0.0807 0.3595
H61C H 1.5225 0.4193 0.3595
C95A C 1.4166(12) 0.0222(13) 0.3096(14)
C95B C 1.0222(13) 0.0834(12) 0.3096(14)
C95C C 1.4778(13) 0.4166(12) 0.3096(14)
H62A H 1.4435 0.0277 0.3094
H62B H 1.0277 0.0565 0.3094
H62C H 1.4723 0.4435 0.3094
C96A C 1.3913(11) 0.0443(13) 0.2802(13)
C96B C 1.0443(13) 0.1087(11) 0.2802(13)
C96C C 1.4557(13) 0.3913(11) 0.2802(13)
C97A C 1.3519(12) 0.0362(13) 0.2806(14)
C97B C 1.0362(13) 0.1481(12) 0.2806(14)
C97C C 1.4638(13) 0.3519(12) 0.2806(14)
H63A H 1.3348 0.0507 0.2608
H63B H 1.0507 0.1652 0.2608
H63C H 1.4493 0.3348 0.2608
C98A C 1.3371(12) 0.0059(13) 0.3111(14)
C98B C 1.0059(13) 0.1629(12) 0.3111(14)
C98C C 1.4941(13) 0.3371(12) 0.3111(14)
H64A H 1.3101 0.0008 0.3123
H64B H 1.0008 0.1899 0.3123
H64C H 1.4992 0.3101 0.3123
C99A C 1.4077(11) 0.0763(11) 0.2472(13)
C99B C 1.0763(11) 0.0923(11) 0.2472(13)
C99C C 1.4237(11) 0.4077(11) 0.2472(13)
C100A C 1.4233(12) 0.1105(12) 0.2681(14)
C100B C 1.1105(12) 0.0767(12) 0.2681(14)
C100C C 1.3895(12) 0.4233(12) 0.2681(14)
C101A C 1.4247(13) 0.1164(13) 0.3200(13)
C101B C 1.1164(13) 0.0753(13) 0.3200(13)
C101C C 1.3836(13) 0.4247(13) 0.3200(13)
H65A H 1.4 0.1000 0.3442
H65B H 1.1000 0.1 0.3442
H65C H 1.4000 0.4 0.3442
C102A C 1.4441(13) 0.1505(14) 0.3268(15)
C102B C 1.1505(14) 0.0559(13) 0.3268(15)
C102C C 1.3495(14) 0.4441(13) 0.3268(15)
H66A H 1.4502 0.1617 0.3572
H66B H 1.1617 0.0498 0.3572
H66C H 1.3383 0.4502 0.3572
S1 S 0.9318(9) 0.5101(10) 0.3919(11)
O1 O 0.9479(13) 0.5147(15) 0.4411(9)
O2 O 0.9313(13) 0.4698(9) 0.3740(16)
O3 O 0.8948(8) 0.5309(14) 0.3845(17)
C103 C 0.9666(9) 0.5366(13) 0.3525(11)
F1 F 1.0015(9) 0.5185(13) 0.3557(15)
F2 F 0.9548(12) 0.5332(14) 0.3058(10)
F3 F 0.9696(12) 0.5727(10) 0.3646(15)
S2 S 1.1517(10) -0.0104(12) -0.1049(13)
O4 O 1.1636(15) -0.0357(17) -0.0643(19)
O5 O 1.1642(16) 0.0303(14) -0.100(2)
O6 O 1.1594(17) -0.0271(19) -0.1532(16)
C104 C 1.0981(10) -0.0079(13) -0.0994(18)
F4 F 1.0840(15) 0.0141(17) -0.136(2)
F5 F 1.0831(15) -0.0440(16) -0.106(2)
F6 F 1.0876(16) 0.0062(19) -0.058(2)
S3 S 0.7907(10) 0.1021(11) 0.4625(12)
O7 O 0.814(2) 0.0673(14) 0.474(2)
O8 O 0.809(2) 0.1291(18) 0.4275(15)
O9 O 0.7497(13) 0.092(2) 0.453(2)
C105 C 0.7992(17) 0.1286(15) 0.5202(14)
F7 F 0.8354(17) 0.115(2) 0.529(2)
F8 F 0.802(3) 0.1676(17) 0.527(3)
F9 F 0.776(2) 0.113(2) 0.5546(14)
S4 S 1.3512(10) -0.1878(11) 0.0010(14)
O10 O 1.331(2) -0.1503(19) 0.007(2)
O11 O 1.3651(18) -0.1951(19) -0.0488(14)
O12 O 1.3809(19) -0.195(2) 0.0385(17)
C106 C 1.3151(17) -0.2272(16) 0.009(3)
F10 F 1.294(3) -0.225(4) 0.051(3)
F11 F 1.333(3) -0.262(3) 0.009(4)
F12 F 1.289(3) -0.227(3) -0.028(3)
O13 O 1.4126(15) 0.4524(17) 0.4403(18)
C107 C 1.4102(18) 0.4861(19) 0.422(3)
H67 H 1.4316 0.4975 0.4063
N19 N 1.3763(16) 0.5050(18) 0.426(2)
C108 C 1.341(2) 0.4915(19) 0.451(2)
H68 H 1.3206 0.5112 0.4485
H69 H 1.3465 0.4869 0.4855
H70 H 1.3318 0.4674 0.4364
C109 C 1.376(2) 0.5452(19) 0.408(3)
H71 H 1.35 0.5563 0.4123
H72 H 1.3825 0.5453 0.3735
H73 H 1.3947 0.5607 0.4258
O14 O 0.907(4) 0.198(5) 0.243(5)
C110 C 0.891(6) 0.183(6) 0.206(6)
H74 H 0.8646 0.1894 0.2069
N20 N 0.898(4) 0.162(5) 0.166(5)
C111 C 0.931(4) 0.137(6) 0.154(7)
H75 H 0.9257 0.1225 0.1243
H76 H 0.9362 0.1194 0.1805
H77 H 0.9541 0.1535 0.1484
C112 C 0.863(4) 0.158(7) 0.135(7)
H78 H 0.868 0.141 0.1082
H79 H 0.8552 0.1838 0.1231
H80 H 0.8415 0.1476 0.1549
C113 C 1.617(3) 0.447(3) -0.252(4)
H81 H 1.6291 0.4436 -0.2836
H82 H 1.6098 0.4215 -0.2389
H83 H 1.6344 0.4601 -0.2299
C114 C 1.579(3) 0.472(3) -0.258(3)
H84 H 1.5849 0.4984 -0.2695
H85 H 1.5603 0.4595 -0.2805
O15 O 1.565(2) 0.4713(19) -0.208(2)
C115 C 1.528(3) 0.492(3) -0.202(3)
H86 H 1.5074 0.4771 -0.2169
H87 H 1.5301 0.5173 -0.2192
C116 C 1.517(3) 0.501(3) -0.148(3)
H88 H 1.4904 0.5096 -0.1462
H89 H 1.5343 0.5206 -0.1346
H90 H 1.52 0.4769 -0.1287
loop_
_geom_bond_atom_site_label_1
_geom_bond_atom_site_label_2
_geom_bond_site_symmetry_1
_geom_bond_site_symmetry_2
Fe1 N1 1_555 1_555
Fe2 N3 1_555 1_555
Ni1 N5 1_555 1_555
Ni2 N11 1_555 1_555
Ni3 N15 1_555 1_555
N1 C2 1_555 1_555
N2 Fe1 1_555 1_555
N3 C24 1_555 1_555
N4 Fe2 1_555 1_555
N5 C16 1_555 1_555
N6 Ni1 1_555 1_555
N7 Ni1 1_555 1_555
N8 C45 1_555 1_555
N9 Fe2 1_555 1_555
N10 Fe2 1_555 1_555
N11 C67 1_555 1_555
N12 C49 1_555 1_555
N13 Fe1 1_555 1_555
N14 Fe1 1_555 1_555
C1 C83 1_555 1_555
N15 C84 1_555 1_555
N16 C87 1_555 1_555
N17 C92 1_555 1_555
N18 Ni1 1_555 1_555
C2 H1 1_555 1_555
C3 C2 1_555 1_555
H2 C3 1_555 1_555
C4 C3 1_555 1_555
H3 C4 1_555 1_555
C5 C4 1_555 1_555
H4 C5 1_555 1_555
C6 N1 1_555 1_555
C7 N2 1_555 1_555
H5 C7 1_555 1_555
C8 N2 1_555 1_555
C9 C8 1_555 1_555
H6 C9 1_555 1_555
C10 C9 1_555 1_555
H7 C10 1_555 1_555
C11 C10 1_555 1_555
C12 C11 1_555 1_555
H8 C12 1_555 1_555
C13 C8 1_555 1_555
H9 C13 1_555 1_555
C14 C11 1_555 1_555
C15 N18 1_555 1_555
C16 C14 1_555 1_555
C17 C16 1_555 1_555
H10 C17 1_555 1_555
C18 C17 1_555 1_555
H11 C18 1_555 1_555
C19 N5 1_555 1_555
C20 C19 1_555 1_555
C21 C20 1_555 1_555
C22 C21 1_555 1_555
H12 C22 1_555 1_555
C23 C22 1_555 1_555
H13 C23 1_555 1_555
C24 C23 1_555 1_555
C25 C24 1_555 1_555
H14 C25 1_555 1_555
C26 C21 1_555 1_555
H15 C26 1_555 1_555
C27 N3 1_555 1_555
H16 C27 1_555 1_555
C28 N4 1_555 1_555
C29 C28 1_555 1_555
H17 C29 1_555 1_555
C30 C29 1_555 1_555
H18 C30 1_555 1_555
C31 C30 1_555 1_555
H19 C31 1_555 1_555
C32 N4 1_555 1_555
H20 C32 1_555 1_555
C33 N6 1_555 1_555
C34 C33 1_555 1_555
H21 C34 1_555 1_555
C35 C34 1_555 1_555
H22 C35 1_555 1_555
C36 N6 1_555 1_555
C37 C36 1_555 1_555
C38 N7 1_555 1_555
C39 C38 1_555 1_555
H23 C39 1_555 1_555
C40 C39 1_555 1_555
H24 C40 1_555 1_555
C41 N7 1_555 1_555
C42 C37 1_555 1_555
C43 C42 1_555 1_555
H25 C43 1_555 1_555
C44 C43 1_555 1_555
H26 C44 1_555 1_555
C45 C44 1_555 1_555
C46 C45 1_555 1_555
H27 C46 1_555 1_555
C47 C42 1_555 1_555
H28 C47 1_555 1_555
C48 N8 1_555 1_555
H29 C48 1_555 1_555
C49 C48 1_555 1_555
C50 C49 1_555 1_555
H30 C50 1_555 1_555
C51 C50 1_555 1_555
H31 C51 1_555 1_555
C52 N9 1_555 1_555
H32 C52 1_555 1_555
C53 C52 1_555 1_555
H33 C53 1_555 1_555
C54 C53 1_555 1_555
H34 C54 1_555 1_555
C55 C54 1_555 1_555
H35 C55 1_555 1_555
C56 N9 1_555 1_555
C57 N10 1_555 1_555
H36 C57 1_555 1_555
C58 N10 1_555 1_555
C59 C58 1_555 1_555
H37 C59 1_555 1_555
C60 C59 1_555 1_555
H38 C60 1_555 1_555
C61 C60 1_555 1_555
C62 C61 1_555 1_555
H39 C62 1_555 1_555
C63 C58 1_555 1_555
H40 C63 1_555 1_555
C64 C61 1_555 1_555
C65 C64 1_555 1_555
C66 C65 1_555 1_555
H41 C66 1_555 1_555
C67 C64 1_555 1_555
C68 C67 1_555 1_555
H42 C68 1_555 1_555
C69 N12 1_555 1_555
H43 C69 1_555 1_555
C70 C51 1_555 1_555
H44 C70 1_555 1_555
C71 N13 1_555 1_555
H45 C71 1_555 1_555
C72 C71 1_555 1_555
H46 C72 1_555 1_555
C73 C72 1_555 1_555
H47 C73 1_555 1_555
C74 C73 1_555 1_555
H48 C74 1_555 1_555
C75 N13 1_555 1_555
C76 N14 1_555 1_555
H49 C76 1_555 1_555
C77 N14 1_555 1_555
C78 C77 1_555 1_555
H50 C78 1_555 1_555
C79 C78 1_555 1_555
H51 C79 1_555 1_555
C80 C79 1_555 1_555
C81 C80 1_555 1_555
H52 C81 1_555 1_555
C82 C77 1_555 1_555
H53 C82 1_555 1_555
C83 C80 1_555 1_555
C84 C83 1_555 1_555
C85 C84 1_555 1_555
H54 C85 1_555 1_555
C86 C85 1_555 1_555
H55 C86 1_555 1_555
C87 H56 1_555 1_555
C88 C87 1_555 1_555
H57 C88 1_555 1_555
C89 C88 1_555 1_555
H58 C89 1_555 1_555
C90 C89 1_555 1_555
H59 C90 1_555 1_555
C91 N16 1_555 1_555
C92 C91 1_555 1_555
H60 C92 1_555 1_555
C93 N17 1_555 1_555
C94 C93 1_555 1_555
H61 C94 1_555 1_555
C95 C94 1_555 1_555
H62 C95 1_555 1_555
C96 C95 1_555 1_555
C97 C96 1_555 1_555
H63 C97 1_555 1_555
C98 C93 1_555 1_555
H64 C98 1_555 1_555
C99 C41 1_555 1_555
C100 N18 1_555 1_555
C101 C100 1_555 1_555
H65 C101 1_555 1_555
C102 C15 1_555 1_555
H66 C102 1_555 1_555
S1 O1 1_555 1_555
O2 S1 1_555 1_555
O3 S1 1_555 1_555
C103 S1 1_555 1_555
F1 C103 1_555 1_555
F2 C103 1_555 1_555
F3 C103 1_555 1_555
S2 O4 1_555 1_555
O5 S2 1_555 1_555
O6 S2 1_555 1_555
C104 S2 1_555 1_555
F4 C104 1_555 1_555
F5 C104 1_555 1_555
F6 C104 1_555 1_555
S3 O7 1_555 1_555
O8 S3 1_555 1_555
O9 S3 1_555 1_555
C105 S3 1_555 1_555
F7 C105 1_555 1_555
F8 C105 1_555 1_555
F9 C105 1_555 1_555
S4 O10 1_555 1_555
O11 S4 1_555 1_555
O12 S4 1_555 1_555
C106 S4 1_555 1_555
F10 C106 1_555 1_555
F11 C106 1_555 1_555
F12 C106 1_555 1_555
O13 C107 1_555 1_555
C107 H67 1_555 1_555
N19 C107 1_555 1_555
C108 N19 1_555 1_555
H68 C108 1_555 1_555
H69 C108 1_555 1_555
H70 C108 1_555 1_555
C109 N19 1_555 1_555
H71 C109 1_555 1_555
H72 C109 1_555 1_555
H73 C109 1_555 1_555
O14 C110 1_555 1_555
C110 H74 1_555 1_555
N20 C110 1_555 1_555
C111 N20 1_555 1_555
H75 C111 1_555 1_555
H76 C111 1_555 1_555
H77 C111 1_555 1_555
C112 N20 1_555 1_555
H78 C112 1_555 1_555
H79 C112 1_555 1_555
H80 C112 1_555 1_555
C113 H81 1_555 1_555
H82 C113 1_555 1_555
H83 C113 1_555 1_555
C114 C113 1_555 1_555
H84 C114 1_555 1_555
H85 C114 1_555 1_555
O15 C114 1_555 1_555
C115 O15 1_555 1_555
H86 C115 1_555 1_555
H87 C115 1_555 1_555
C116 C115 1_555 1_555
H88 C116 1_555 1_555
H89 C116 1_555 1_555
H90 C116 1_555 1_555
Fe1A N1A 1_555 1_555
Fe1B N1B 1_555 1_555
Fe1C N16 1_555 1_555
Fe2A N3A 1_555 1_555
Fe2B N3B 1_555 1_555
Fe2C N8 1_555 1_555
Ni1A N5A 1_555 1_555
Ni1B N5B 1_555 1_555
Ni1C N5C 1_555 1_555
N1A C2A 1_555 1_555
N1B C2B 1_555 1_555
N1C Fe1C 1_555 1_555
N2A Fe1A 1_555 1_555
N2B Fe1B 1_555 1_555
N2C Fe1C 1_555 1_555
N3A C24A 1_555 1_555
N3B C24B 1_555 1_555
N3C Fe2C 1_555 1_555
N4A Fe2A 1_555 1_555
N4B Fe2B 1_555 1_555
N4C Fe2C 1_555 1_555
N5A C16A 1_555 1_555
N5B C16B 1_555 1_555
N5C C16C 1_555 1_555
N6A Ni1A 1_555 1_555
N6B Ni1B 1_555 1_555
N6C Ni1C 1_555 1_555
N7A Ni1A 1_555 1_555
N7B Ni1B 1_555 1_555
N7C Ni1C 1_555 1_555
N8A Fe2B 1_555 1_555
N8B Fe2 1_555 1_555
N8C Fe2A 1_555 1_555
N9B Fe2B 1_555 1_555
N9C Fe2C 1_555 1_555
N9A Fe2A 1_555 1_555
N10B Fe2B 1_555 1_555
N10C Fe2C 1_555 1_555
N10A Fe2A 1_555 1_555
N11B Ni2 1_555 1_555
N11C Ni2 1_555 1_555
N11A Ni2 1_555 1_555
N12A Fe2B 1_555 1_555
N12B Fe2 1_555 1_555
N12C Fe2A 1_555 1_555
N13B Fe1B 1_555 1_555
N13C Fe1C 1_555 1_555
N13A Fe1A 1_555 1_555
N14B Fe1B 1_555 1_555
N14C Fe1C 1_555 1_555
N14A Fe1A 1_555 1_555
C1B N15A 1_555 1_555
C1C N15 1_555 1_555
C1A N15C 1_555 1_555
N15B Ni3 1_555 1_555
N15C Ni3 1_555 1_555
N15A Ni3 1_555 1_555
N16A Fe1B 1_555 1_555
N16B Fe1 1_555 1_555
N16C Fe1A 1_555 1_555
N17A Fe1B 1_555 1_555
N17B Fe1 1_555 1_555
N17C Fe1A 1_555 1_555
N18A Ni1A 1_555 1_555
N18B Ni1B 1_555 1_555
N18C Ni1C 1_555 1_555
C2A H1A 1_555 1_555
C2B H1B 1_555 1_555
C2C N1C 1_555 1_555
H1C C2C 1_555 1_555
C3A C2A 1_555 1_555
C3B C2B 1_555 1_555
C3C C2C 1_555 1_555
H2A C3A 1_555 1_555
H2B C3B 1_555 1_555
H2C C3C 1_555 1_555
C4A C3A 1_555 1_555
C4B C3B 1_555 1_555
C4C C3C 1_555 1_555
H3A C4A 1_555 1_555
H3B C4B 1_555 1_555
H3C C4C 1_555 1_555
C5A C4A 1_555 1_555
C5B C4B 1_555 1_555
C5C C4C 1_555 1_555
H4A C5A 1_555 1_555
H4B C5B 1_555 1_555
H4C C5C 1_555 1_555
C6A N1A 1_555 1_555
C6B N1B 1_555 1_555
C6C N1C 1_555 1_555
C7A N2A 1_555 1_555
C7B N2B 1_555 1_555
C7C N2C 1_555 1_555
H5A C7A 1_555 1_555
H5B C7B 1_555 1_555
H5C C7C 1_555 1_555
C8A N2A 1_555 1_555
C8B N2B 1_555 1_555
C8C N2C 1_555 1_555
C9A C8A 1_555 1_555
C9B C8B 1_555 1_555
C9C C8C 1_555 1_555
H6A C9A 1_555 1_555
H6B C9B 1_555 1_555
H6C C9C 1_555 1_555
C10A C9A 1_555 1_555
C10B C9B 1_555 1_555
C10C C9C 1_555 1_555
H7A C10A 1_555 1_555
H7B C10B 1_555 1_555
H7C C10C 1_555 1_555
C11A C10A 1_555 1_555
C11B C10B 1_555 1_555
C11C C10C 1_555 1_555
C12A C11A 1_555 1_555
C12B C11B 1_555 1_555
C12C C11C 1_555 1_555
H8A C12A 1_555 1_555
H8B C12B 1_555 1_555
H8C C12C 1_555 1_555
C13A C8A 1_555 1_555
C13B C8B 1_555 1_555
C13C C8C 1_555 1_555
H9A C13A 1_555 1_555
H9B C13B 1_555 1_555
H9C C13C 1_555 1_555
C14A C11A 1_555 1_555
C14B C11B 1_555 1_555
C14C C11C 1_555 1_555
C15A N18A 1_555 1_555
C15B N18B 1_555 1_555
C15C N18C 1_555 1_555
C16A C14A 1_555 1_555
C16B C14B 1_555 1_555
C16C C14C 1_555 1_555
C17A C16A 1_555 1_555
C17B C16B 1_555 1_555
C17C C16C 1_555 1_555
H10A C17A 1_555 1_555
H10B C17B 1_555 1_555
H10C C17C 1_555 1_555
C18A C17A 1_555 1_555
C18B C17B 1_555 1_555
C18C C17C 1_555 1_555
H11A C18A 1_555 1_555
H11B C18B 1_555 1_555
H11C C18C 1_555 1_555
C19A N5A 1_555 1_555
C19B N5B 1_555 1_555
C19C N5C 1_555 1_555
C20A C19A 1_555 1_555
C20B C19B 1_555 1_555
C20C C19C 1_555 1_555
C21A C20A 1_555 1_555
C21B C20B 1_555 1_555
C21C C20C 1_555 1_555
C22A C21A 1_555 1_555
C22B C21B 1_555 1_555
C22C C21C 1_555 1_555
H12A C22A 1_555 1_555
H12B C22B 1_555 1_555
H12C C22C 1_555 1_555
C23A C22A 1_555 1_555
C23B C22B 1_555 1_555
C23C C22C 1_555 1_555
H13A C23A 1_555 1_555
H13B C23B 1_555 1_555
H13C C23C 1_555 1_555
C24A C23A 1_555 1_555
C24B C23B 1_555 1_555
C24C N3C 1_555 1_555
C25A C24A 1_555 1_555
C25B C24B 1_555 1_555
C25C C24C 1_555 1_555
H14A C25A 1_555 1_555
H14B C25B 1_555 1_555
H14C C25C 1_555 1_555
C26A C21A 1_555 1_555
C26B C21B 1_555 1_555
C26C C21C 1_555 1_555
H15A C26A 1_555 1_555
H15B C26B 1_555 1_555
H15C C26C 1_555 1_555
C27A N3A 1_555 1_555
C27B N3B 1_555 1_555
C27C N3C 1_555 1_555
H16A C27A 1_555 1_555
H16B C27B 1_555 1_555
H16C C27C 1_555 1_555
C28A N4A 1_555 1_555
C28B N4B 1_555 1_555
C28C N4C 1_555 1_555
C29A C28A 1_555 1_555
C29B C28B 1_555 1_555
C29C C28C 1_555 1_555
H17A C29A 1_555 1_555
H17B C29B 1_555 1_555
H17C C29C 1_555 1_555
C30A C29A 1_555 1_555
C30B C29B 1_555 1_555
C30C C29C 1_555 1_555
H18A C30A 1_555 1_555
H18B C30B 1_555 1_555
H18C C30C 1_555 1_555
C31A C30A 1_555 1_555
C31B C30B 1_555 1_555
C31C C30C 1_555 1_555
H19A C31A 1_555 1_555
H19B C31B 1_555 1_555
H19C C31C 1_555 1_555
C32A N4A 1_555 1_555
C32B N4B 1_555 1_555
C32C N4C 1_555 1_555
H20A C32A 1_555 1_555
H20B C32B 1_555 1_555
H20C C32C 1_555 1_555
C33A N6A 1_555 1_555
C33B N6B 1_555 1_555
C33C N6C 1_555 1_555
C34A C33A 1_555 1_555
C34B C33B 1_555 1_555
C34C C33C 1_555 1_555
H21A C34A 1_555 1_555
H21B C34B 1_555 1_555
H21C C34C 1_555 1_555
C35A C34A 1_555 1_555
C35B C34B 1_555 1_555
C35C C34C 1_555 1_555
H22A C35A 1_555 1_555
H22B C35B 1_555 1_555
H22C C35C 1_555 1_555
C36A N6A 1_555 1_555
C36B N6B 1_555 1_555
C36C N6C 1_555 1_555
C37A C36A 1_555 1_555
C37B C36B 1_555 1_555
C37C C36C 1_555 1_555
C38A N7A 1_555 1_555
C38B N7B 1_555 1_555
C38C N7C 1_555 1_555
C39A C38A 1_555 1_555
C39B C38B 1_555 1_555
C39C C38C 1_555 1_555
H23A C39A 1_555 1_555
H23B C39B 1_555 1_555
H23C C39C 1_555 1_555
C40A C39A 1_555 1_555
C40B C39B 1_555 1_555
C40C C39C 1_555 1_555
H24A C40A 1_555 1_555
H24B C40B 1_555 1_555
H24C C40C 1_555 1_555
C41A N7A 1_555 1_555
C41B N7B 1_555 1_555
C41C N7C 1_555 1_555
C42A C37A 1_555 1_555
C42B C37B 1_555 1_555
C42C C37C 1_555 1_555
C43A C42A 1_555 1_555
C43B C42B 1_555 1_555
C43C C42C 1_555 1_555
H25A C43A 1_555 1_555
H25B C43B 1_555 1_555
H25C C43C 1_555 1_555
C44A C43A 1_555 1_555
C44B C43B 1_555 1_555
C44C C43C 1_555 1_555
H26A C44A 1_555 1_555
H26B C44B 1_555 1_555
H26C C44C 1_555 1_555
C45A N8A 1_555 1_555
C45B N8B 1_555 1_555
C45C N8C 1_555 1_555
C46A C45A 1_555 1_555
C46B C45B 1_555 1_555
C46C C45C 1_555 1_555
H27A C46A 1_555 1_555
H27B C46B 1_555 1_555
H27C C46C 1_555 1_555
C47A C42A 1_555 1_555
C47B C42B 1_555 1_555
C47C C42C 1_555 1_555
H28A C47A 1_555 1_555
H28B C47B 1_555 1_555
H28C C47C 1_555 1_555
C48A N8A 1_555 1_555
C48B N8B 1_555 1_555
C48C N8C 1_555 1_555
H29A C48A 1_555 1_555
H29B C48B 1_555 1_555
H29C C48C 1_555 1_555
C49A N12A 1_555 1_555
C49B N12B 1_555 1_555
C49C N12C 1_555 1_555
C50A C49A 1_555 1_555
C50B C49B 1_555 1_555
C50C C49C 1_555 1_555
H30A C50A 1_555 1_555
H30B C50B 1_555 1_555
H30C C50C 1_555 1_555
C51A C50A 1_555 1_555
C51B C50B 1_555 1_555
C51C C50C 1_555 1_555
H31A C51A 1_555 1_555
H31B C51B 1_555 1_555
H31C C51C 1_555 1_555
C52B N9B 1_555 1_555
C52C N9C 1_555 1_555
C52A N9A 1_555 1_555
H32B C52B 1_555 1_555
H32C C52C 1_555 1_555
H32A C52A 1_555 1_555
C53B C52B 1_555 1_555
C53C C52C 1_555 1_555
C53A C52A 1_555 1_555
H33B C53B 1_555 1_555
H33C C53C 1_555 1_555
H33A C53A 1_555 1_555
C54B C53B 1_555 1_555
C54C C53C 1_555 1_555
C54A C53A 1_555 1_555
H34B C54B 1_555 1_555
H34C C54C 1_555 1_555
H34A C54A 1_555 1_555
C55B C54B 1_555 1_555
C55C C54C 1_555 1_555
C55A C54A 1_555 1_555
H35B C55B 1_555 1_555
H35C C55C 1_555 1_555
H35A C55A 1_555 1_555
C56B N9B 1_555 1_555
C56C N9C 1_555 1_555
C56A N9A 1_555 1_555
C57B N10B 1_555 1_555
C57C N10C 1_555 1_555
C57A N10A 1_555 1_555
H36B C57B 1_555 1_555
H36C C57C 1_555 1_555
H36A C57A 1_555 1_555
C58B N10B 1_555 1_555
C58C N10C 1_555 1_555
C58A N10A 1_555 1_555
C59B C58B 1_555 1_555
C59C C58C 1_555 1_555
C59A C58A 1_555 1_555
H37B C59B 1_555 1_555
H37C C59C 1_555 1_555
H37A C59A 1_555 1_555
C60B C59B 1_555 1_555
C60C C59C 1_555 1_555
C60A C59A 1_555 1_555
H38B C60B 1_555 1_555
H38C C60C 1_555 1_555
H38A C60A 1_555 1_555
C61B C60B 1_555 1_555
C61C C60C 1_555 1_555
C61A C60A 1_555 1_555
C62B C61B 1_555 1_555
C62C C61C 1_555 1_555
C62A C61A 1_555 1_555
H39B C62B 1_555 1_555
H39C C62C 1_555 1_555
H39A C62A 1_555 1_555
C63B C58B 1_555 1_555
C63C C58C 1_555 1_555
C63A C58A 1_555 1_555
H40B C63B 1_555 1_555
H40C C63C 1_555 1_555
H40A C63A 1_555 1_555
C64B C61B 1_555 1_555
C64C C61C 1_555 1_555
C64A C61A 1_555 1_555
C65B N11 1_555 1_555
C65C N11A 1_555 1_555
C65A N11B 1_555 1_555
C66B C68 1_555 1_555
C66C C65C 1_555 1_555
C66A C65A 1_555 1_555
H41B C66B 1_555 1_555
H41C C66C 1_555 1_555
H41A C66A 1_555 1_555
C67B N11B 1_555 1_555
C67C N11C 1_555 1_555
C67A N11A 1_555 1_555
C68B C66A 1_555 1_555
C68C C66 1_555 1_555
C68A C66C 1_555 1_555
H42B C68B 1_555 1_555
H42C C68C 1_555 1_555
H42A C68A 1_555 1_555
C69A N12A 1_555 1_555
C69B N12B 1_555 1_555
C69C N12C 1_555 1_555
H43A C69A 1_555 1_555
H43B C69B 1_555 1_555
H43C C69C 1_555 1_555
C70A C51A 1_555 1_555
C70B C51B 1_555 1_555
C70C C51C 1_555 1_555
H44A C70A 1_555 1_555
H44B C70B 1_555 1_555
H44C C70C 1_555 1_555
C71B N13B 1_555 1_555
C71C N13C 1_555 1_555
C71A N13A 1_555 1_555
H45B C71B 1_555 1_555
H45C C71C 1_555 1_555
H45A C71A 1_555 1_555
C72B C71B 1_555 1_555
C72C C71C 1_555 1_555
C72A C71A 1_555 1_555
H46B C72B 1_555 1_555
H46C C72C 1_555 1_555
H46A C72A 1_555 1_555
C73B C72B 1_555 1_555
C73C C72C 1_555 1_555
C73A C72A 1_555 1_555
H47B C73B 1_555 1_555
H47C C73C 1_555 1_555
H47A C73A 1_555 1_555
C74B C73B 1_555 1_555
C74C C73C 1_555 1_555
C74A C73A 1_555 1_555
H48B C74B 1_555 1_555
H48C C74C 1_555 1_555
H48A C74A 1_555 1_555
C75B N13B 1_555 1_555
C75C N13C 1_555 1_555
C75A N13A 1_555 1_555
C76B N14B 1_555 1_555
C76C N14C 1_555 1_555
C76A N14A 1_555 1_555
H49B C76B 1_555 1_555
H49C C76C 1_555 1_555
H49A C76A 1_555 1_555
C77B N14B 1_555 1_555
C77C N14C 1_555 1_555
C77A N14A 1_555 1_555
C78B C77B 1_555 1_555
C78C C77C 1_555 1_555
C78A C77A 1_555 1_555
H50B C78B 1_555 1_555
H50C C78C 1_555 1_555
H50A C78A 1_555 1_555
C79B C78B 1_555 1_555
C79C C78C 1_555 1_555
C79A C78A 1_555 1_555
H51B C79B 1_555 1_555
H51C C79C 1_555 1_555
H51A C79A 1_555 1_555
C80B C79B 1_555 1_555
C80C C79C 1_555 1_555
C80A C79A 1_555 1_555
C81B C80B 1_555 1_555
C81C C80C 1_555 1_555
C81A C80A 1_555 1_555
H52B C81B 1_555 1_555
H52C C81C 1_555 1_555
H52A C81A 1_555 1_555
C82B C77B 1_555 1_555
C82C C77C 1_555 1_555
C82A C77A 1_555 1_555
H53B C82B 1_555 1_555
H53C C82C 1_555 1_555
H53A C82A 1_555 1_555
C83B C1B 1_555 1_555
C83C C1C 1_555 1_555
C83A C1A 1_555 1_555
C84B N15B 1_555 1_555
C84C N15C 1_555 1_555
C84A N15A 1_555 1_555
C85B C84B 1_555 1_555
C85C C84C 1_555 1_555
C85A C84A 1_555 1_555
H54B C85B 1_555 1_555
H54C C85C 1_555 1_555
H54A C85A 1_555 1_555
C86B C1 1_555 1_555
C86C C1A 1_555 1_555
C86A C1B 1_555 1_555
H55B C86B 1_555 1_555
H55C C86C 1_555 1_555
H55A C86A 1_555 1_555
C87A N16A 1_555 1_555
C87B N16B 1_555 1_555
C87C N16C 1_555 1_555
H56A C87A 1_555 1_555
H56B C87B 1_555 1_555
H56C C87C 1_555 1_555
C88A C87A 1_555 1_555
C88B C87B 1_555 1_555
C88C C87C 1_555 1_555
H57A C88A 1_555 1_555
H57B C88B 1_555 1_555
H57C C88C 1_555 1_555
C89A C88A 1_555 1_555
C89B C88B 1_555 1_555
C89C C88C 1_555 1_555
H58A C89A 1_555 1_555
H58B C89B 1_555 1_555
H58C C89C 1_555 1_555
C90A C89A 1_555 1_555
C90B C89B 1_555 1_555
C90C C89C 1_555 1_555
H59A C90A 1_555 1_555
H59B C90B 1_555 1_555
H59C C90C 1_555 1_555
C91A N16A 1_555 1_555
C91B N16B 1_555 1_555
C91C N16C 1_555 1_555
C92A N17A 1_555 1_555
C92B N17B 1_555 1_555
C92C N17C 1_555 1_555
H60A C92A 1_555 1_555
H60B C92B 1_555 1_555
H60C C92C 1_555 1_555
C93A N17A 1_555 1_555
C93B N17B 1_555 1_555
C93C N17C 1_555 1_555
C94A C93A 1_555 1_555
C94B C93B 1_555 1_555
C94C C93C 1_555 1_555
H61A C94A 1_555 1_555
H61B C94B 1_555 1_555
H61C C94C 1_555 1_555
C95A C94A 1_555 1_555
C95B C94B 1_555 1_555
C95C C94C 1_555 1_555
H62A C95A 1_555 1_555
H62B C95B 1_555 1_555
H62C C95C 1_555 1_555
C96A C95A 1_555 1_555
C96B C95B 1_555 1_555
C96C C95C 1_555 1_555
C97A C96A 1_555 1_555
C97B C96B 1_555 1_555
C97C C96C 1_555 1_555
H63A C97A 1_555 1_555
H63B C97B 1_555 1_555
H63C C97C 1_555 1_555
C98A C93A 1_555 1_555
C98B C93B 1_555 1_555
C98C C93C 1_555 1_555
H64A C98A 1_555 1_555
H64B C98B 1_555 1_555
H64C C98C 1_555 1_555
C99A C41A 1_555 1_555
C99B C41B 1_555 1_555
C99C C41C 1_555 1_555
C100A N18A 1_555 1_555
C100B N18B 1_555 1_555
C100C N18C 1_555 1_555
C101A C100A 1_555 1_555
C101B C100B 1_555 1_555
C101C C100C 1_555 1_555
H65A C101A 1_555 1_555
H65B C101B 1_555 1_555
H65C C101C 1_555 1_555
C102A C15A 1_555 1_555
C102B C15B 1_555 1_555
C102C C15C 1_555 1_555
H66A C102A 1_555 1_555
H66B C102B 1_555 1_555
H66C C102C 1_555 1_555
N12 Fe2C 1_555 1_555
C1 N15B 1_555 1_555
N17 Fe1C 1_555 1_555
C5 C6 1_555 1_555
C6 C7 1_555 1_555
C12 C13 1_555 1_555
C14 C15 1_555 1_555
C18 C19 1_555 1_555
C20 C33 1_555 1_555
C25 C26 1_555 1_555
C27 C28 1_555 1_555
C31 C32 1_555 1_555
C35 C36 1_555 1_555
C37 C38 1_555 1_555
C40 C41 1_555 1_555
C46 C47 1_555 1_555
C55 C56 1_555 1_555
C56 C57 1_555 1_555
C62 C63 1_555 1_555
C65 N11C 1_555 1_555
C69 C70 1_555 1_555
C74 C75 1_555 1_555
C75 C76 1_555 1_555
C81 C82 1_555 1_555
C86 C1C 1_555 1_555
C90 C91 1_555 1_555
C96 C99 1_555 1_555
C97 C98 1_555 1_555
C99 C100 1_555 1_555
C101 C102 1_555 1_555
C5A C6A 1_555 1_555
C5B C6B 1_555 1_555
C5C C6C 1_555 1_555
C6A C7A 1_555 1_555
C6B C7B 1_555 1_555
C6C C7C 1_555 1_555
C12A C13A 1_555 1_555
C12B C13B 1_555 1_555
C12C C13C 1_555 1_555
C14A C15A 1_555 1_555
C14B C15B 1_555 1_555
C14C C15C 1_555 1_555
C18A C19A 1_555 1_555
C18B C19B 1_555 1_555
C18C C19C 1_555 1_555
C20A C33A 1_555 1_555
C20B C33B 1_555 1_555
C20C C33C 1_555 1_555
C23C C24C 1_555 1_555
C25A C26A 1_555 1_555
C25B C26B 1_555 1_555
C25C C26C 1_555 1_555
C27A C28A 1_555 1_555
C27B C28B 1_555 1_555
C27C C28C 1_555 1_555
C31A C32A 1_555 1_555
C31B C32B 1_555 1_555
C31C C32C 1_555 1_555
C35A C36A 1_555 1_555
C35B C36B 1_555 1_555
C35C C36C 1_555 1_555
C37A C38A 1_555 1_555
C37B C38B 1_555 1_555
C37C C38C 1_555 1_555
C40A C41A 1_555 1_555
C40B C41B 1_555 1_555
C40C C41C 1_555 1_555
C44A C45A 1_555 1_555
C44B C45B 1_555 1_555
C44C C45C 1_555 1_555
C46A C47A 1_555 1_555
C46B C47B 1_555 1_555
C46C C47C 1_555 1_555
C48A C49A 1_555 1_555
C48B C49B 1_555 1_555
C48C C49C 1_555 1_555
C55B C56B 1_555 1_555
C55C C56C 1_555 1_555
C55A C56A 1_555 1_555
C56B C57B 1_555 1_555
C56C C57C 1_555 1_555
C56A C57A 1_555 1_555
C62B C63B 1_555 1_555
C62C C63C 1_555 1_555
C62A C63A 1_555 1_555
C64B C65B 1_555 1_555
C64B C67B 1_555 1_555
C64C C65C 1_555 1_555
C64C C67C 1_555 1_555
C64A C65A 1_555 1_555
C64A C67A 1_555 1_555
C65B C66B 1_555 1_555
C67B C68B 1_555 1_555
C67C C68C 1_555 1_555
C67A C68A 1_555 1_555
C69A C70A 1_555 1_555
C69B C70B 1_555 1_555
C69C C70C 1_555 1_555
C74B C75B 1_555 1_555
C74C C75C 1_555 1_555
C74A C75A 1_555 1_555
C75B C76B 1_555 1_555
C75C C76C 1_555 1_555
C75A C76A 1_555 1_555
C80B C83B 1_555 1_555
C80C C83C 1_555 1_555
C80A C83A 1_555 1_555
C81B C82B 1_555 1_555
C81C C82C 1_555 1_555
C81A C82A 1_555 1_555
C83B C84B 1_555 1_555
C83C C84C 1_555 1_555
C83A C84A 1_555 1_555
C85B C86B 1_555 1_555
C85C C86C 1_555 1_555
C85A C86A 1_555 1_555
C90A C91A 1_555 1_555
C90B C91B 1_555 1_555
C90C C91C 1_555 1_555
C91A C92A 1_555 1_555
C91B C92B 1_555 1_555
C91C C92C 1_555 1_555
C96A C99A 1_555 1_555
C96B C99B 1_555 1_555
C96C C99C 1_555 1_555
C97A C98A 1_555 1_555
C97B C98B 1_555 1_555
C97C C98C 1_555 1_555
C99A C100A 1_555 1_555
C99B C100B 1_555 1_555
C99C C100C 1_555 1_555
C101A C102A 1_555 1_555
C101B C102B 1_555 1_555
C101C C102C 1_555 1_555

#END
