
#######################################################################
#
#                 Cambridge Crystallographic Data Centre
#                                CCDC 
#
#######################################################################
#
# If this CIF has been generated from an entry in the Cambridge 
# Structural Database, then it will include bibliographic, chemical, 
# crystal, experimental, refinement or atomic coordinate data resulting 
# from the CCDC's data processing and validation procedures.
#
#######################################################################

data_AQOVUY
_chemical_formula_moiety         
'C240 H264 Fe4 N8 P16 Pt8 8+,8(C1 F3 O3 S1 1-),6(C1 H2 Cl2),19(H2 O1)'
_chemical_name_systematic        
"octakis(\m~2~-Pyridin-4-ylethynyl-C,N)-octakis(triethylphosphine)-tetrakis(1,1'-bis(diphenylphosphino)ferrocene-P,P')-octa-platinum(ii) octakis(trifluoromethanesulfonate) dichloromethane solvate nonadecahydrate"
_symmetry_cell_setting           monoclinic
_symmetry_space_group_name_H-M   'P 21/c'
_symmetry_Int_Tables_number      14
_space_group_name_Hall           '-P 2ybc'
loop_
_symmetry_equiv_pos_site_id
_symmetry_equiv_pos_as_xyz
1 x,y,z
2 -x,1/2+y,1/2-z
3 -x,-y,-z
4 x,1/2-y,1/2+z
_cell_length_a                   13.851(3)
_cell_length_b                   22.464(5)
_cell_length_c                   51.056(10)
_cell_angle_alpha                90
_cell_angle_beta                 96.35(3)
_cell_angle_gamma                90
_cell_volume                     15788.6
_exptl_crystal_colour            colorless
_exptl_crystal_description       block
_cell_formula_units_Z            2
_exptl_crystal_recrystallization_method 'dichloromethane/diethyl ether'
loop_
_atom_site_label
_atom_site_type_symbol
_atom_site_fract_x
_atom_site_fract_y
_atom_site_fract_z
Pt1 Pt 0.71027(6) 0.53670(4) 0.637501(14)
Pt2 Pt 1.47421(8) 0.76789(6) 0.565986(17)
Pt3 Pt 1.18899(6) 0.78623(4) 0.725956(13)
Pt4 Pt 0.23972(6) 0.24147(4) 0.593465(15)
Fe1 Fe 1.3260(2) 0.81000(13) 0.80471(5)
Fe2 Fe 0.0232(2) 0.15105(13) 0.62999(5)
P1 P 0.6053(4) 0.5654(2) 0.66749(9)
P2 P 0.8115(4) 0.5100(3) 0.60715(10)
P3 P 1.3779(5) 0.6877(4) 0.55330(11)
P4 P 1.5735(8) 0.8468(5) 0.58016(15)
P5 P 1.3147(4) 0.8485(2) 0.73992(8)
P6 P 1.1258(4) 0.7730(2) 0.76514(9)
P7 P 0.1994(4) 0.2506(3) 0.63557(9)
P8 P 0.1211(4) 0.1799(2) 0.57505(9)
N1 N 1.0761(14) 0.7340(8) 0.7055(3)
N2 N 0.3518(13) 0.3053(8) 0.6031(3)
N3 N 1.2401(12) 0.7879(8) 0.6882(3)
N4 N 0.2964(14) 0.2423(9) 0.5576(3)
C1 C 1.0908(14) 0.6716(8) 0.7069(3)
H1 H 1.1464 0.6545 0.7166
C2 C 0.9994(17) 0.7565(9) 0.6941(4)
H2 H 0.9908 0.7983 0.6953
C3 C 1.0235(16) 0.6391(9) 0.6940(3)
H3 H 1.0306 0.5971 0.6941
C4 C 0.9295(14) 0.7247(9) 0.6804(3)
H4 H 0.8748 0.7447 0.6716
C5 C 0.9349(13) 0.6664(10) 0.6789(3)
C6 C 0.8677(17) 0.6275(10) 0.6657(4)
C7 C 0.8110(18) 0.5973(13) 0.6529(5)
C8 C 0.6136(15) 0.4735(10) 0.6226(3)
C9 C 0.5611(15) 0.4341(10) 0.6165(3)
C10 C 0.4933(18) 0.3915(11) 0.6111(3)
C11 C 0.5101(14) 0.3311(9) 0.6167(3)
H5 H 0.5733 0.3180 0.6234
C12 C 0.4006(15) 0.4032(10) 0.6010(3)
H6 H 0.3839 0.4434 0.5969
C13 C 0.4378(18) 0.2919(11) 0.6128(3)
H7 H 0.4511 0.2515 0.6175
C14 C 0.3280(14) 0.3605(11) 0.5962(3)
H8 H 0.2647 0.3705 0.5883
C15 C 0.6370(14) 0.5432(9) 0.7020(3)
H9 H 0.6004 0.5687 0.7133
H10 H 0.6150 0.5017 0.7041
C16 C 0.7438(14) 0.5469(11) 0.7120(4)
H11 H 0.7781 0.5129 0.7054
H12 H 0.7515 0.5462 0.7314
H13 H 0.7709 0.5840 0.7059
C17 C 0.602(2) 0.6461(6) 0.6705(4)
H14 H 0.5458 0.6568 0.6800
H15 H 0.6614 0.6589 0.6816
C18 C 0.5947(16) 0.6811(11) 0.6451(4)
H16 H 0.6590 0.6838 0.6389
H17 H 0.5704 0.7212 0.6482
H18 H 0.5499 0.6609 0.6318
C19 C 0.4807(10) 0.5350(10) 0.6625(3)
H19 H 0.4831 0.4910 0.6613
H20 H 0.4450 0.5458 0.6776
C20 C 0.4290(14) 0.5604(12) 0.6372(4)
H21 H 0.4244 0.6038 0.6388
H22 H 0.3636 0.5434 0.6341
H23 H 0.4656 0.5505 0.6224
C21 C 0.7484(15) 0.4832(13) 0.5761(3)
H24 H 0.7149 0.4454 0.5793
H25 H 0.6984 0.5126 0.5695
C22 C 0.8167(18) 0.4728(12) 0.5549(5)
H26 H 0.8742 0.4982 0.5584
H27 H 0.7829 0.4826 0.5375
H28 H 0.8367 0.4309 0.5551
C23 C 0.885(2) 0.5712(11) 0.5946(5)
H29 H 0.9325 0.5853 0.6091
H30 H 0.9211 0.5553 0.5805
C24 C 0.824(3) 0.6235(18) 0.5839(9)
H31 H 0.8616 0.6481 0.5729
H32 H 0.8048 0.6474 0.5985
H33 H 0.7653 0.6088 0.5732
C25 C 0.9190(19) 0.4666(15) 0.6190(8)
H34 H 0.9557 0.4550 0.6043
H35 H 0.9623 0.4895 0.6320
C26 C 0.879(3) 0.4123(17) 0.6317(8)
H36 H 0.8494 0.4244 0.6473
H37 H 0.9325 0.3844 0.6368
H38 H 0.8307 0.3930 0.6191
C27 C 1.2991(17) 0.7426(11) 0.6844(3)
H39 H 1.3131 0.7139 0.6980
C28 C 1.2147(15) 0.8254(9) 0.6695(3)
H40 H 1.1667 0.8545 0.6718
C29 C 1.3400(16) 0.7367(10) 0.6613(4)
H41 H 1.3840 0.7052 0.6591
C30 C 1.2557(13) 0.8233(10) 0.6470(4)
H42 H 1.2431 0.8542 0.6344
C31 C 1.3166(16) 0.7765(11) 0.6417(4)
C32 C 1.3614(19) 0.7736(12) 0.6179(4)
C33 C 1.400(2) 0.7690(15) 0.5977(5)
C34 C 1.544(2) 0.7607(15) 0.5345(5)
C35 C 1.5805(19) 0.7564(13) 0.5137(5)
C36 C 1.6251(19) 0.7557(13) 0.4906(5)
C37 C 1.5874(19) 0.7998(13) 0.4690(5)
H43 H 1.5362 0.8269 0.4711
C38 C 1.6918(17) 0.7173(11) 0.4851(4)
H44 H 1.7130 0.6874 0.4975
C39 C 0.365(2) 0.2025(13) 0.5550(4)
H45 H 0.3841 0.1754 0.5689
C40 C 0.268(2) 0.2803(12) 0.5390(4)
H46 H 0.2176 0.3075 0.5418
C41 C 1.3799(16) 0.6657(10) 0.5192(3)
H47 H 1.3571 0.6994 0.5077
H48 H 1.4477 0.6568 0.5161
C42 C 1.317(3) 0.6116(14) 0.5117(5)
H49 H 1.3412 0.5775 0.5225
H50 H 1.3199 0.6023 0.4930
H51 H 1.2498 0.6201 0.5147
C43 C 1.4115(18) 0.6197(10) 0.5720(4)
H52 H 1.3934 0.6234 0.5902
H53 H 1.3764 0.5851 0.5636
C44 C 1.5211(18) 0.6103(13) 0.5728(5)
H54 H 1.5406 0.6162 0.5551
H55 H 1.5377 0.5697 0.5787
H56 H 1.5552 0.6390 0.5850
C45 C 1.2506(13) 0.6965(13) 0.5585(6)
H57 H 1.2130 0.6617 0.5512
H58 H 1.2448 0.6985 0.5776
C46 C 1.209(3) 0.7533(15) 0.5452(8)
H59 H 1.2331 0.7879 0.5556
H60 H 1.1381 0.7521 0.5439
H61 H 1.2299 0.7561 0.5274
C47 C 1.627(4) 0.873(2) 0.6134(6)
H62 H 1.6039 0.8435 0.6260
H63 H 1.6974 0.8661 0.6138
C48 C 1.616(7) 0.934(3) 0.6263(12)
H64 H 1.5883 0.9620 0.6130
H65 H 1.6805 0.9477 0.6338
H66 H 1.5738 0.9301 0.6403
C49 C 1.652(4) 0.8930(18) 0.5611(8)
H67 H 1.7098 0.8684 0.5590
H68 H 1.6162 0.8971 0.5433
C50 C 1.690(4) 0.9550(17) 0.5687(12)
H69 H 1.6431 0.9759 0.5784
H70 H 1.6998 0.9775 0.5528
H71 H 1.7522 0.9515 0.5799
C51 C 1.468(3) 0.8985(19) 0.5773(12)
H72 H 1.4305 0.8893 0.5601
H73 H 1.4269 0.8856 0.5909
C52 C 1.471(6) 0.9665(19) 0.579(2)
H74 H 1.4071 0.9828 0.5726
H75 H 1.5196 0.9817 0.5681
H76 H 1.4886 0.9786 0.5974
C53 C 1.4251(15) 0.8221(10) 0.7269(3)
C54 C 1.4602(15) 0.8527(10) 0.7061(4)
H77 H 1.4307 0.8892 0.7001
C55 C 1.4648(14) 0.7700(10) 0.7347(4)
H78 H 1.4401 0.7484 0.7485
C56 C 1.5395(16) 0.8299(10) 0.6937(4)
H79 H 1.5646 0.8504 0.6797
C57 C 1.5434(16) 0.7470(10) 0.7224(4)
H80 H 1.5708 0.7100 0.7283
C58 C 1.5796(18) 0.7746(12) 0.7034(5)
H81 H 1.6332 0.7579 0.6959
C59 C 1.2960(17) 0.9257(9) 0.7286(3)
C60 C 1.3677(14) 0.9650(9) 0.7341(3)
H82 H 1.4261 0.9531 0.7442
C61 C 1.2115(14) 0.9417(10) 0.7138(3)
H83 H 1.1616 0.9130 0.7101
C62 C 1.3576(19) 1.0226(12) 0.7251(4)
H84 H 1.4073 1.0513 0.7293
C63 C 1.1980(16) 0.9974(9) 0.7046(3)
H85 H 1.1383 1.0084 0.6948
C64 C 1.2702(19) 1.0374(10) 0.7093(4)
H86 H 1.2625 1.0761 0.7019
C65 C 1.0515(14) 0.8339(8) 0.7742(3)
C66 C 0.9931(14) 0.8288(11) 0.7946(3)
H87 H 0.9932 0.7925 0.8041
C67 C 1.0463(17) 0.8859(10) 0.7598(3)
H88 H 1.0828 0.8897 0.7452
C68 C 0.9353(15) 0.8748(10) 0.8013(4)
H89 H 0.8953 0.8704 0.8152
C69 C 0.9890(16) 0.9326(12) 0.7663(5)
H90 H 0.9854 0.9682 0.7562
C70 C 0.9371(17) 0.9268(11) 0.7876(4)
H91 H 0.9015 0.9599 0.7929
C71 C 1.051(2) 0.7072(12) 0.7652(4)
C72 C 1.090(2) 0.6514(12) 0.7708(4)
H92 H 1.1580 0.6504 0.7762
C73 C 0.956(2) 0.7101(12) 0.7569(4)
H93 H 0.9249 0.7465 0.7514
C74 C 1.045(3) 0.5980(14) 0.7697(5)
H94 H 1.0777 0.5615 0.7735
C75 C 0.899(2) 0.6508(19) 0.7566(5)
H95 H 0.8308 0.6490 0.7523
C76 C 0.953(3) 0.6014(15) 0.7630(8)
H96 H 0.9183 0.5648 0.7624
C77 C 0.2850(17) 0.2108(9) 0.6594(3)
C78 C 0.3569(18) 0.1729(11) 0.6523(5)
H97 H 0.3583 0.1653 0.6340
C79 C 0.275(2) 0.2210(11) 0.6854(4)
H98 H 0.2236 0.2432 0.6914
C80 C 0.423(2) 0.1464(10) 0.6689(5)
H99 H 0.4688 0.1202 0.6623
C81 C 0.354(2) 0.1936(12) 0.7028(5)
H100 H 0.3543 0.2024 0.7210
C82 C 0.428(2) 0.1567(13) 0.6964(6)
H101 H 0.4759 0.1402 0.7091
C83 C 0.2091(15) 0.3273(9) 0.6444(4)
C84 C 0.1477(16) 0.3671(11) 0.6332(4)
H102 H 0.0950 0.3545 0.6209
C85 C 0.2849(15) 0.3514(10) 0.6619(3)
H103 H 0.3300 0.3236 0.6702
C86 C 0.1596(19) 0.4290(11) 0.6392(4)
H104 H 0.1138 0.4565 0.6309
C87 C 0.3009(19) 0.4070(13) 0.6682(4)
H105 H 0.3548 0.4186 0.6803
C88 C 0.2338(18) 0.4496(11) 0.6562(5)
H106 H 0.2410 0.4909 0.6599
C89 C 0.0253(12) 0.2219(8) 0.5588(3)
C90 C -0.0499(15) 0.1935(8) 0.5438(4)
H107 H -0.0518 0.1512 0.5430
C91 C 0.0263(14) 0.2831(9) 0.5606(4)
H108 H 0.0801 0.3028 0.5699
C92 C -0.1224(16) 0.2266(10) 0.5298(5)
H109 H -0.1718 0.2072 0.5185
C93 C -0.0514(17) 0.3158(9) 0.5487(5)
H110 H -0.0553 0.3574 0.5518
C94 C -0.1230(17) 0.2876(11) 0.5322(6)
H111 H -0.1727 0.3104 0.5226
C95 C 0.1636(13) 0.1344(9) 0.5496(3)
C96 C 0.2175(17) 0.0844(9) 0.5565(4)
H112 H 0.2261 0.0720 0.5744
C97 C 0.1523(14) 0.1517(10) 0.5232(3)
H113 H 0.1184 0.1872 0.5180
C98 C 0.260(3) 0.0519(13) 0.5378(6)
H114 H 0.2958 0.0171 0.5430
C99 C 0.191(2) 0.1169(13) 0.5049(4)
H115 H 0.1755 0.1261 0.4868
C100 C 0.250(3) 0.0694(14) 0.5119(6)
H116 H 0.2829 0.0492 0.4992
C101 C 1.2133(16) 0.7578(9) 0.7928(3)
C102 C 1.2081(15) 0.7771(9) 0.8195(3)
H117 H 1.1545 0.8004 0.8263
C103 C 1.2919(17) 0.7569(11) 0.8339(5)
H118 H 1.3100 0.7648 0.8531
C104 C 1.3448(16) 0.7221(10) 0.8185(4)
H119 H 1.4088 0.7033 0.8246
C105 C 1.3031(17) 0.7231(9) 0.7934(5)
H120 H 1.3283 0.7032 0.7780
C106 C 1.3570(14) 0.8591(9) 0.7739(4)
C107 C 1.4402(15) 0.8456(9) 0.7897(3)
H121 H 1.4924 0.8203 0.7833
C108 C 1.4446(15) 0.8641(11) 0.8144(4)
H122 H 1.4988 0.8578 0.8288
C109 C 1.358(2) 0.8948(13) 0.8160(4)
H123 H 1.3383 0.9142 0.8323
C110 C 1.3001(16) 0.8924(10) 0.7914(4)
H124 H 1.2352 0.9114 0.7867
C111 C 0.0725(16) 0.1259(9) 0.5958(4)
C112 C -0.0248(14) 0.1077(10) 0.5964(4)
H125 H -0.0810 0.1201 0.5836
C113 C -0.029(2) 0.0686(10) 0.6167(5)
H126 H -0.0900 0.0496 0.6215
C114 C 0.0694(18) 0.0581(10) 0.6303(5)
H127 H 0.0884 0.0321 0.6459
C115 C 0.1272(16) 0.0970(10) 0.6181(4)
H128 H 0.1985 0.1023 0.6232
C116 C 0.0846(17) 0.2268(9) 0.6437(4)
C117 C 0.0536(18) 0.1924(10) 0.6643(4)
H129 H 0.0995 0.1759 0.6791
C118 C -0.0385(18) 0.1809(11) 0.6616(4)
H130 H -0.0721 0.1552 0.6738
C119 C -0.0841(18) 0.2101(11) 0.6401(4)
H131 H -0.1549 0.2081 0.6337
C120 C -0.0084(16) 0.2418(10) 0.6268(5)
H132 H -0.0172 0.2669 0.6106
Pt1B Pt 1.28973(6) 0.46330(4) 0.362499(14)
Pt2B Pt 0.52579(8) 0.23211(6) 0.434014(17)
Pt3B Pt 0.81101(6) 0.21377(4) 0.274044(13)
Pt4B Pt 1.76028(6) 0.75853(4) 0.406535(15)
Fe1B Fe 0.6740(2) 0.19000(13) 0.19529(5)
Fe2B Fe 1.9768(2) 0.84895(13) 0.37001(5)
P1B P 1.3947(4) 0.4346(2) 0.33251(9)
P2B P 1.1885(4) 0.4900(3) 0.39285(10)
P3B P 0.6221(5) 0.3123(4) 0.44670(11)
P4B P 0.4265(8) 0.1532(5) 0.41984(15)
P5B P 0.6853(4) 0.1515(2) 0.26008(8)
P6B P 0.8742(4) 0.2270(2) 0.23486(9)
P7B P 1.8006(4) 0.7494(3) 0.36443(9)
P8B P 1.8789(4) 0.8201(2) 0.42495(9)
N1B N 0.9239(14) 0.2660(8) 0.2945(3)
N2B N 1.6482(13) 0.6947(8) 0.3969(3)
N3B N 0.7599(12) 0.2121(8) 0.3118(3)
N4B N 1.7036(14) 0.7577(9) 0.4424(3)
C1B C 0.9092(14) 0.3284(8) 0.2931(3)
H1B H 0.8536 0.3455 0.2834
C2B C 1.0006(17) 0.2435(9) 0.3059(4)
H2B H 1.0092 0.2017 0.3047
C3B C 0.9765(16) 0.3609(9) 0.3060(3)
H3B H 0.9694 0.4029 0.3059
C4B C 1.0705(14) 0.2753(9) 0.3196(3)
H4B H 1.1252 0.2553 0.3284
C5B C 1.0651(13) 0.3336(10) 0.3211(3)
C6B C 1.1323(17) 0.3725(10) 0.3343(4)
C7B C 1.1890(18) 0.4027(13) 0.3471(5)
C8B C 1.3864(15) 0.5265(10) 0.3774(3)
C9B C 1.4389(15) 0.5659(10) 0.3835(3)
C10B C 1.5067(18) 0.6085(11) 0.3889(3)
C11B C 1.4899(14) 0.6689(9) 0.3833(3)
H5B H 1.4267 0.6820 0.3766
C12B C 1.5994(15) 0.5968(10) 0.3990(3)
H6B H 1.6161 0.5566 0.4031
C13B C 1.5622(18) 0.7081(11) 0.3872(3)
H7B H 1.5489 0.7485 0.3825
C14B C 1.6720(14) 0.6395(11) 0.4038(3)
H8B H 1.7353 0.6295 0.4117
C15B C 1.3630(14) 0.4568(9) 0.2980(3)
H9B H 1.3996 0.4313 0.2867
H10B H 1.3850 0.4983 0.2959
C16B C 1.2562(14) 0.4531(11) 0.2880(4)
H11B H 1.2219 0.4871 0.2946
H12B H 1.2485 0.4538 0.2686
H13B H 1.2291 0.4160 0.2941
C17B C 1.398(2) 0.3539(6) 0.3295(4)
H14B H 1.4542 0.3432 0.3200
H15B H 1.3386 0.3411 0.3184
C18B C 1.4053(16) 0.3189(11) 0.3549(4)
H16B H 1.3410 0.3162 0.3611
H17B H 1.4296 0.2788 0.3518
H18B H 1.4501 0.3391 0.3682
C19B C 1.5193(10) 0.4650(10) 0.3375(3)
H19B H 1.5169 0.5090 0.3387
H20B H 1.5550 0.4542 0.3224
C20B C 1.5710(14) 0.4396(12) 0.3628(4)
H21B H 1.5756 0.3962 0.3612
H22B H 1.6364 0.4566 0.3659
H23B H 1.5344 0.4495 0.3776
C21B C 1.2516(15) 0.5168(13) 0.4239(3)
H24B H 1.2851 0.5546 0.4207
H25B H 1.3016 0.4874 0.4305
C22B C 1.1833(18) 0.5272(12) 0.4451(5)
H26B H 1.1258 0.5018 0.4416
H27B H 1.2171 0.5174 0.4625
H28B H 1.1633 0.5691 0.4449
C23B C 1.115(2) 0.4288(11) 0.4054(5)
H29B H 1.0675 0.4147 0.3909
H30B H 1.0789 0.4447 0.4195
C24B C 1.176(3) 0.3765(18) 0.4161(9)
H31B H 1.1384 0.3519 0.4271
H32B H 1.1952 0.3526 0.4015
H33B H 1.2347 0.3912 0.4268
C25B C 1.0810(19) 0.5334(15) 0.3810(8)
H34B H 1.0443 0.5450 0.3957
H35B H 1.0377 0.5105 0.3680
C26B C 1.121(3) 0.5877(17) 0.3683(8)
H36B H 1.1506 0.5756 0.3527
H37B H 1.0675 0.6156 0.3632
H38B H 1.1693 0.6070 0.3809
C27B C 0.7009(17) 0.2574(11) 0.3156(3)
H39B H 0.6869 0.2861 0.3020
C28B C 0.7853(15) 0.1746(9) 0.3305(3)
H40B H 0.8333 0.1455 0.3282
C29B C 0.6600(16) 0.2633(10) 0.3387(4)
H41B H 0.6160 0.2948 0.3409
C30B C 0.7443(13) 0.1767(10) 0.3530(4)
H42B H 0.7569 0.1458 0.3656
C31B C 0.6834(16) 0.2235(11) 0.3583(4)
C32B C 0.6386(19) 0.2264(12) 0.3821(4)
C33B C 0.600(2) 0.2310(15) 0.4023(5)
C34B C 0.456(2) 0.2393(15) 0.4655(5)
C35B C 0.4195(19) 0.2436(13) 0.4863(5)
C36B C 0.3749(19) 0.2443(13) 0.5094(5)
C37B C 0.4126(19) 0.2002(13) 0.5310(5)
H43B H 0.4638 0.1731 0.5289
C38B C 0.3082(17) 0.2827(11) 0.5149(4)
H44B H 0.2870 0.3126 0.5025
C39B C 1.635(2) 0.7975(13) 0.4450(4)
H45B H 1.6159 0.8246 0.4311
C40B C 1.732(2) 0.7197(12) 0.4610(4)
H46B H 1.7824 0.6925 0.4582
C41B C 0.6201(16) 0.3343(10) 0.4808(3)
H47B H 0.6429 0.3006 0.4923
H48B H 0.5523 0.3432 0.4839
C42B C 0.683(3) 0.3884(14) 0.4883(5)
H49B H 0.6588 0.4225 0.4775
H50B H 0.6801 0.3977 0.5070
H51B H 0.7502 0.3799 0.4853
C43B C 0.5885(18) 0.3803(10) 0.4280(4)
H52B H 0.6066 0.3766 0.4098
H53B H 0.6236 0.4149 0.4364
C44B C 0.4789(18) 0.3897(13) 0.4272(5)
H54B H 0.4594 0.3838 0.4449
H55B H 0.4623 0.4303 0.4213
H56B H 0.4448 0.3610 0.4150
C45B C 0.7494(13) 0.3035(13) 0.4415(6)
H57B H 0.7870 0.3383 0.4488
H58B H 0.7552 0.3015 0.4224
C46B C 0.791(3) 0.2467(15) 0.4548(8)
H59B H 0.7669 0.2121 0.4444
H60B H 0.8619 0.2479 0.4561
H61B H 0.7701 0.2439 0.4726
C47B C 0.373(4) 0.127(2) 0.3866(6)
H62B H 0.3961 0.1565 0.3740
H63B H 0.3026 0.1339 0.3862
C48B C 0.384(7) 0.066(3) 0.3737(12)
H64B H 0.4117 0.0380 0.3870
H65B H 0.3195 0.0523 0.3662
H66B H 0.4262 0.0699 0.3597
C49B C 0.348(4) 0.1070(18) 0.4389(8)
H67B H 0.2902 0.1316 0.4410
H68B H 0.3838 0.1029 0.4567
C50B C 0.310(4) 0.0450(17) 0.4313(12)
H69B H 0.3569 0.0241 0.4216
H70B H 0.3002 0.0225 0.4472
H71B H 0.2478 0.0485 0.4201
C51B C 0.532(3) 0.1015(19) 0.4227(12)
H72B H 0.5695 0.1107 0.4399
H73B H 0.5731 0.1144 0.4091
C52B C 0.529(6) 0.0335(19) 0.421(2)
H74B H 0.5929 0.0172 0.4274
H75B H 0.4804 0.0183 0.4319
H76B H 0.5114 0.0214 0.4026
C53B C 0.5749(15) 0.1779(10) 0.2731(3)
C54B C 0.5398(15) 0.1473(10) 0.2939(4)
H77B H 0.5693 0.1108 0.2999
C55B C 0.5352(14) 0.2300(10) 0.2653(4)
H78B H 0.5599 0.2516 0.2515
C56B C 0.4605(16) 0.1701(10) 0.3063(4)
H79B H 0.4354 0.1496 0.3203
C57B C 0.4566(16) 0.2530(10) 0.2776(4)
H80B H 0.4292 0.2900 0.2717
C58B C 0.4204(18) 0.2254(12) 0.2966(5)
H81B H 0.3668 0.2421 0.3041
C59B C 0.7040(17) 0.0743(9) 0.2714(3)
C60B C 0.6323(14) 0.0350(9) 0.2659(3)
H82B H 0.5739 0.0469 0.2558
C61B C 0.7885(14) 0.0583(10) 0.2862(3)
H83B H 0.8384 0.0870 0.2899
C62B C 0.6424(19) -0.0226(12) 0.2749(4)
H84B H 0.5927 -0.0513 0.2707
C63B C 0.8020(16) 0.0026(9) 0.2954(3)
H85B H 0.8617 -0.0084 0.3052
C64B C 0.7298(19) -0.0374(10) 0.2907(4)
H86B H 0.7375 -0.0761 0.2981
C65B C 0.9485(14) 0.1661(8) 0.2258(3)
C66B C 1.0069(14) 0.1712(11) 0.2054(3)
H87B H 1.0068 0.2075 0.1959
C67B C 0.9537(17) 0.1141(10) 0.2402(3)
H88B H 0.9172 0.1103 0.2548
C68B C 1.0647(15) 0.1252(10) 0.1987(4)
H89B H 1.1047 0.1296 0.1848
C69B C 1.0110(16) 0.0674(12) 0.2337(5)
H90B H 1.0146 0.0318 0.2438
C70B C 1.0629(17) 0.0732(11) 0.2124(4)
H91B H 1.0985 0.0401 0.2071
C71B C 0.949(2) 0.2928(12) 0.2348(4)
C72B C 0.910(2) 0.3486(12) 0.2292(4)
H92B H 0.8420 0.3496 0.2238
C73B C 1.044(2) 0.2899(12) 0.2431(4)
H93B H 1.0751 0.2535 0.2486
C74B C 0.955(3) 0.4020(14) 0.2303(5)
H94B H 0.9223 0.4385 0.2265
C75B C 1.101(2) 0.3492(19) 0.2434(5)
H95B H 1.1692 0.3510 0.2477
C76B C 1.047(3) 0.3986(15) 0.2370(8)
H96B H 1.0817 0.4352 0.2376
C77B C 1.7150(17) 0.7892(9) 0.3406(3)
C78B C 1.6431(18) 0.8271(11) 0.3477(5)
H97B H 1.6417 0.8347 0.3660
C79B C 1.725(2) 0.7790(11) 0.3146(4)
H98B H 1.7764 0.7568 0.3086
C80B C 1.577(2) 0.8536(10) 0.3311(5)
H99B H 1.5312 0.8798 0.3377
C81B C 1.646(2) 0.8064(12) 0.2972(5)
H100B H 1.6457 0.7976 0.2790
C82B C 1.572(2) 0.8433(13) 0.3036(6)
H101B H 1.5241 0.8598 0.2909
C83B C 1.7909(15) 0.6727(9) 0.3556(4)
C84B C 1.8523(16) 0.6329(11) 0.3668(4)
H102B H 1.9050 0.6455 0.3791
C85B C 1.7151(15) 0.6486(10) 0.3381(3)
H103B H 1.6700 0.6764 0.3298
C86B C 1.8404(19) 0.5710(11) 0.3608(4)
H104B H 1.8862 0.5435 0.3691
C87B C 1.6991(19) 0.5930(13) 0.3318(4)
H105B H 1.6452 0.5814 0.3197
C88B C 1.7662(18) 0.5504(11) 0.3438(5)
H106B H 1.7590 0.5091 0.3401
C89B C 1.9747(12) 0.7781(8) 0.4412(3)
C90B C 2.0499(15) 0.8065(8) 0.4562(4)
H107B H 2.0518 0.8488 0.4570
C91B C 1.9737(14) 0.7169(9) 0.4394(4)
H108B H 1.9199 0.6972 0.4301
C92B C 2.1224(16) 0.7734(10) 0.4702(5)
H109B H 2.1718 0.7928 0.4815
C93B C 2.0514(17) 0.6842(9) 0.4513(5)
H110B H 2.0553 0.6426 0.4482
C94B C 2.1230(17) 0.7124(11) 0.4678(6)
H111B H 2.1727 0.6896 0.4774
C95B C 1.8364(13) 0.8656(9) 0.4504(3)
C96B C 1.7825(17) 0.9156(9) 0.4435(4)
H112B H 1.7739 0.9280 0.4256
C97B C 1.8477(14) 0.8483(10) 0.4768(3)
H113B H 1.8816 0.8128 0.4820
C98B C 1.740(3) 0.9481(13) 0.4622(6)
H114B H 1.7042 0.9829 0.4570
C99B C 1.809(2) 0.8831(13) 0.4951(4)
H115B H 1.8245 0.8739 0.5132
C100B C 1.750(3) 0.9306(14) 0.4881(6)
H116B H 1.7171 0.9508 0.5008
C101B C 0.7867(16) 0.2422(9) 0.2072(3)
C102B C 0.7919(15) 0.2229(9) 0.1805(3)
H117B H 0.8455 0.1996 0.1737
C103B C 0.7081(17) 0.2431(11) 0.1661(5)
H118B H 0.6900 0.2352 0.1469
C104B C 0.6552(16) 0.2779(10) 0.1815(4)
H119B H 0.5912 0.2967 0.1754
C105B C 0.6969(17) 0.2769(9) 0.2066(5)
H120B H 0.6717 0.2968 0.2220
C106B C 0.6430(14) 0.1409(9) 0.2261(4)
C107B C 0.5598(15) 0.1544(9) 0.2103(3)
H121B H 0.5076 0.1797 0.2167
C108B C 0.5554(15) 0.1359(11) 0.1856(4)
H122B H 0.5012 0.1422 0.1712
C109B C 0.642(2) 0.1052(13) 0.1840(4)
H123B H 0.6617 0.0858 0.1677
C110B C 0.6999(16) 0.1076(10) 0.2086(4)
H124B H 0.7648 0.0886 0.2133
C111B C 1.9275(16) 0.8741(9) 0.4042(4)
C112B C 2.0248(14) 0.8923(10) 0.4036(4)
H125B H 2.0810 0.8799 0.4164
C113B C 2.029(2) 0.9314(10) 0.3833(5)
H126B H 2.0900 0.9504 0.3785
C114B C 1.9306(18) 0.9419(10) 0.3697(5)
H127B H 1.9116 0.9679 0.3541
C115B C 1.8728(16) 0.9030(10) 0.3819(4)
H128B H 1.8015 0.8977 0.3768
C116B C 1.9154(17) 0.7732(9) 0.3563(4)
C117B C 1.9464(18) 0.8076(10) 0.3357(4)
H129B H 1.9005 0.8241 0.3209
C118B C 2.0385(18) 0.8191(11) 0.3384(4)
H130B H 2.0721 0.8448 0.3262
C119B C 2.0841(18) 0.7899(11) 0.3599(4)
H131B H 2.1549 0.7919 0.3663
C120B C 2.0084(16) 0.7582(10) 0.3732(5)
H132B H 2.0172 0.7331 0.3894
S1 S 1.3771(5) 0.6118(3) 0.73223(11)
O1 O 1.4565(12) 0.6085(9) 0.7512(4)
O2 O 1.3035(9) 0.6513(6) 0.7383(2)
O3 O 1.4036(14) 0.6212(9) 0.7059(3)
F1 F 1.3886(12) 0.4973(6) 0.7254(3)
F2 F 1.2891(14) 0.5263(8) 0.7526(3)
F3 F 1.2508(13) 0.5373(8) 0.7105(3)
C121 C 1.3279(17) 0.5421(9) 0.7290(5)
S2 S 0.1444(6) 0.4682(4) 0.56316(16)
O4 O 0.077(2) 0.484(2) 0.5804(8)
O5 O 0.2376(11) 0.4918(8) 0.5688(4)
O6 O 0.143(2) 0.4066(9) 0.5567(9)
F4 F 0.0136(11) 0.4630(7) 0.5222(3)
F5 F 0.050(2) 0.5490(11) 0.5403(6)
F6 F 0.1472(12) 0.5089(9) 0.5152(4)
C122 C 0.0891(16) 0.4949(11) 0.5337(4)
S3 S 1.9405(8) 0.9393(5) 0.6800(2)
O7 O 2.0035(13) 0.9005(8) 0.6949(4)
O8 O 1.9646(15) 0.9991(6) 0.6782(4)
O9 O 1.8444(14) 0.9362(12) 0.6915(5)
F7 F 1.994(2) 0.8980(18) 0.6366(6)
F8 F 1.869(2) 0.8535(8) 0.6505(5)
F9 F 1.851(2) 0.9405(12) 0.6324(4)
C123 C 1.9148(15) 0.9090(8) 0.6492(4)
S4 S 1.6637(16) 1.1844(8) 0.5883(4)
O10 O 1.739(2) 1.1420(12) 0.5895(7)
O11 O 1.576(2) 1.1627(15) 0.5745(7)
O12 O 1.647(3) 1.2018(15) 0.6151(5)
F10 F 1.629(2) 1.2792(12) 0.5589(5)
F11 F 1.7432(17) 1.2883(9) 0.5917(5)
F12 F 1.769(2) 1.2369(13) 0.5568(5)
C124 C 1.6993(18) 1.2476(10) 0.5734(4)
C125 C 1.7474(17) 0.8746(10) 0.7368(4)
H133 H 1.7967 0.9059 0.7414
H134 H 1.6991 0.8910 0.7230
Cl1 Cl 1.6911(7) 0.8606(5) 0.76342(17)
Cl2 Cl 1.8024(7) 0.8165(5) 0.7242(2)
C126 C 1.612(2) 0.5589(16) 0.4738(4)
H135 H 1.6272 0.5974 0.4659
H136 H 1.6600 0.5298 0.4688
Cl3 Cl 1.6323(9) 0.5675(5) 0.5071(2)
Cl4 Cl 1.5030(13) 0.5373(8) 0.4588(3)
C127 C 0.142(3) 0.6432(14) 0.6214(7)
H137 H 0.1274 0.6177 0.6057
H138 H 0.2100 0.6567 0.6204
Cl5 Cl 0.160(2) 0.5925(14) 0.6447(6)
Cl6 Cl 0.0809(14) 0.7048(9) 0.6118(4)
O13 O 1.5814(12) 0.9919(7) 0.6895(3)
O14 O 1.3676(15) 0.8489(10) 0.4955(4)
O15 O 1.5570(13) 1.1157(9) 0.6034(4)
O16 O 1.294(3) 0.5907(16) 0.8179(7)
O17 O 1.3275(19) 0.9859(11) 0.6508(5)
O18 O 1.429(2) 0.9589(12) 0.4873(6)
O19 O -0.102(3) 0.7316(15) 0.5326(7)
O20 O 0.156(3) 0.4260(17) 0.5182(7)
O21 O 1.162(4) 0.923(2) 0.5849(11)
O22 O 1.721(4) 0.783(3) 0.5998(12)
O23 O 1.901(6) 1.041(4) 0.5366(18)
O24? O 1.270(3) 0.9523(17) 0.6026(8)
loop_
_geom_bond_atom_site_label_1
_geom_bond_atom_site_label_2
_geom_bond_site_symmetry_1
_geom_bond_site_symmetry_2
Pt1 P1 1_555 1_555
Pt2 P3 1_555 1_555
Pt3 P5 1_555 1_555
Pt4 P7 1_555 1_555
Fe1 C101 1_555 1_555
Fe2 C111 1_555 1_555
P1 C15 1_555 1_555
P2 Pt1 1_555 1_555
P3 C41 1_555 1_555
P4 Pt2 1_555 1_555
P5 C53 1_555 1_555
P6 Pt3 1_555 1_555
P7 C77 1_555 1_555
P8 Pt4 1_555 1_555
N1 Pt3 1_555 1_555
N2 Pt4 1_555 1_555
N3 Pt3 1_555 1_555
N4 Pt4 1_555 1_555
C1 N1 1_555 1_555
H1 C1 1_555 1_555
C2 N1 1_555 1_555
H2 C2 1_555 1_555
C3 C1 1_555 1_555
H3 C3 1_555 1_555
C4 C2 1_555 1_555
H4 C4 1_555 1_555
C5 C3 1_555 1_555
C6 C5 1_555 1_555
C7 Pt1 1_555 1_555
C8 Pt1 1_555 1_555
C9 C8 1_555 1_555
C10 C9 1_555 1_555
C11 C10 1_555 1_555
H5 C11 1_555 1_555
C12 C10 1_555 1_555
H6 C12 1_555 1_555
C13 N2 1_555 1_555
H7 C13 1_555 1_555
C14 N2 1_555 1_555
H8 C14 1_555 1_555
C15 H9 1_555 1_555
H10 C15 1_555 1_555
C16 C15 1_555 1_555
H11 C16 1_555 1_555
H12 C16 1_555 1_555
H13 C16 1_555 1_555
C17 P1 1_555 1_555
H14 C17 1_555 1_555
H15 C17 1_555 1_555
C18 C17 1_555 1_555
H16 C18 1_555 1_555
H17 C18 1_555 1_555
H18 C18 1_555 1_555
C19 P1 1_555 1_555
H19 C19 1_555 1_555
H20 C19 1_555 1_555
C20 C19 1_555 1_555
H21 C20 1_555 1_555
H22 C20 1_555 1_555
H23 C20 1_555 1_555
C21 P2 1_555 1_555
H24 C21 1_555 1_555
H25 C21 1_555 1_555
C22 C21 1_555 1_555
H26 C22 1_555 1_555
H27 C22 1_555 1_555
H28 C22 1_555 1_555
C23 P2 1_555 1_555
H29 C23 1_555 1_555
H30 C23 1_555 1_555
C24 C23 1_555 1_555
H31 C24 1_555 1_555
H32 C24 1_555 1_555
H33 C24 1_555 1_555
C25 P2 1_555 1_555
H34 C25 1_555 1_555
H35 C25 1_555 1_555
C26 C25 1_555 1_555
H36 C26 1_555 1_555
H37 C26 1_555 1_555
H38 C26 1_555 1_555
C27 N3 1_555 1_555
H39 C27 1_555 1_555
C28 N3 1_555 1_555
H40 C28 1_555 1_555
C29 C27 1_555 1_555
H41 C29 1_555 1_555
C30 C28 1_555 1_555
H42 C30 1_555 1_555
C31 C29 1_555 1_555
C32 C31 1_555 1_555
C33 Pt2 1_555 1_555
C34 Pt2 1_555 1_555
C35 C34 1_555 1_555
C36 C35 1_555 1_555
C37 C36 1_555 1_555
H43 C37 1_555 1_555
C38 C36 1_555 1_555
H44 C38 1_555 1_555
C39 N4 1_555 1_555
H45 C39 1_555 1_555
C40 N4 1_555 1_555
H46 C40 1_555 1_555
C41 H47 1_555 1_555
H48 C41 1_555 1_555
C42 C41 1_555 1_555
H49 C42 1_555 1_555
H50 C42 1_555 1_555
H51 C42 1_555 1_555
C43 P3 1_555 1_555
H52 C43 1_555 1_555
H53 C43 1_555 1_555
C44 C43 1_555 1_555
H54 C44 1_555 1_555
H55 C44 1_555 1_555
H56 C44 1_555 1_555
C45 P3 1_555 1_555
H57 C45 1_555 1_555
H58 C45 1_555 1_555
C46 C45 1_555 1_555
H59 C46 1_555 1_555
H60 C46 1_555 1_555
H61 C46 1_555 1_555
C47 P4 1_555 1_555
H62 C47 1_555 1_555
H63 C47 1_555 1_555
C48 C47 1_555 1_555
H64 C48 1_555 1_555
H65 C48 1_555 1_555
H66 C48 1_555 1_555
C49 P4 1_555 1_555
H67 C49 1_555 1_555
H68 C49 1_555 1_555
C50 C49 1_555 1_555
H69 C50 1_555 1_555
H70 C50 1_555 1_555
H71 C50 1_555 1_555
C51 P4 1_555 1_555
H72 C51 1_555 1_555
H73 C51 1_555 1_555
C52 C51 1_555 1_555
H74 C52 1_555 1_555
H75 C52 1_555 1_555
H76 C52 1_555 1_555
C53 C54 1_555 1_555
C54 H77 1_555 1_555
C55 C53 1_555 1_555
H78 C55 1_555 1_555
C56 C54 1_555 1_555
H79 C56 1_555 1_555
C57 C55 1_555 1_555
H80 C57 1_555 1_555
C58 C56 1_555 1_555
H81 C58 1_555 1_555
C59 P5 1_555 1_555
C60 C59 1_555 1_555
H82 C60 1_555 1_555
C61 C59 1_555 1_555
H83 C61 1_555 1_555
C62 C60 1_555 1_555
H84 C62 1_555 1_555
C63 C61 1_555 1_555
H85 C63 1_555 1_555
C64 C62 1_555 1_555
H86 C64 1_555 1_555
C65 P6 1_555 1_555
C66 C65 1_555 1_555
H87 C66 1_555 1_555
C67 C65 1_555 1_555
H88 C67 1_555 1_555
C68 C66 1_555 1_555
H89 C68 1_555 1_555
C69 C67 1_555 1_555
H90 C69 1_555 1_555
C70 C68 1_555 1_555
H91 C70 1_555 1_555
C71 P6 1_555 1_555
C72 C71 1_555 1_555
H92 C72 1_555 1_555
C73 C71 1_555 1_555
H93 C73 1_555 1_555
C74 C72 1_555 1_555
H94 C74 1_555 1_555
C75 C73 1_555 1_555
H95 C75 1_555 1_555
C76 C74 1_555 1_555
H96 C76 1_555 1_555
C77 C78 1_555 1_555
C78 H97 1_555 1_555
C79 C77 1_555 1_555
H98 C79 1_555 1_555
C80 C78 1_555 1_555
H99 C80 1_555 1_555
C81 C79 1_555 1_555
H100 C81 1_555 1_555
C82 C80 1_555 1_555
H101 C82 1_555 1_555
C83 P7 1_555 1_555
C84 C83 1_555 1_555
H102 C84 1_555 1_555
C85 C83 1_555 1_555
H103 C85 1_555 1_555
C86 C84 1_555 1_555
H104 C86 1_555 1_555
C87 C85 1_555 1_555
H105 C87 1_555 1_555
C88 C86 1_555 1_555
H106 C88 1_555 1_555
C89 P8 1_555 1_555
C90 C89 1_555 1_555
H107 C90 1_555 1_555
C91 C89 1_555 1_555
H108 C91 1_555 1_555
C92 C90 1_555 1_555
H109 C92 1_555 1_555
C93 C91 1_555 1_555
H110 C93 1_555 1_555
C94 C92 1_555 1_555
H111 C94 1_555 1_555
C95 P8 1_555 1_555
C96 C95 1_555 1_555
H112 C96 1_555 1_555
C97 C95 1_555 1_555
H113 C97 1_555 1_555
C98 C96 1_555 1_555
H114 C98 1_555 1_555
C99 C97 1_555 1_555
H115 C99 1_555 1_555
C100 C98 1_555 1_555
H116 C100 1_555 1_555
C101 P6 1_555 1_555
C102 Fe1 1_555 1_555
H117 C102 1_555 1_555
C103 Fe1 1_555 1_555
H118 C103 1_555 1_555
C104 Fe1 1_555 1_555
H119 C104 1_555 1_555
C105 Fe1 1_555 1_555
H120 C105 1_555 1_555
C106 Fe1 1_555 1_555
C107 Fe1 1_555 1_555
H121 C107 1_555 1_555
C108 Fe1 1_555 1_555
H122 C108 1_555 1_555
C109 Fe1 1_555 1_555
H123 C109 1_555 1_555
C110 Fe1 1_555 1_555
H124 C110 1_555 1_555
C111 P8 1_555 1_555
C112 Fe2 1_555 1_555
H125 C112 1_555 1_555
C113 Fe2 1_555 1_555
H126 C113 1_555 1_555
C114 Fe2 1_555 1_555
H127 C114 1_555 1_555
C115 Fe2 1_555 1_555
H128 C115 1_555 1_555
C116 Fe2 1_555 1_555
C117 Fe2 1_555 1_555
H129 C117 1_555 1_555
C118 Fe2 1_555 1_555
H130 C118 1_555 1_555
C119 Fe2 1_555 1_555
H131 C119 1_555 1_555
C120 Fe2 1_555 1_555
H132 C120 1_555 1_555
S1 O1 1_555 1_555
O2 S1 1_555 1_555
O3 S1 1_555 1_555
F1 C121 1_555 1_555
F2 C121 1_555 1_555
F3 C121 1_555 1_555
C121 S1 1_555 1_555
S2 O4 1_555 1_555
O5 S2 1_555 1_555
O6 S2 1_555 1_555
F4 C122 1_555 1_555
F5 C122 1_555 1_555
F6 C122 1_555 1_555
C122 S2 1_555 1_555
S3 O7 1_555 1_555
O8 S3 1_555 1_555
O9 S3 1_555 1_555
F7 C123 1_555 1_555
F8 C123 1_555 1_555
F9 C123 1_555 1_555
C123 S3 1_555 1_555
S4 O10 1_555 1_555
O11 S4 1_555 1_555
O12 S4 1_555 1_555
F10 C124 1_555 1_555
F11 C124 1_555 1_555
F12 C124 1_555 1_555
C124 S4 1_555 1_555
C125 H133 1_555 1_555
H134 C125 1_555 1_555
Cl1 C125 1_555 1_555
Cl2 C125 1_555 1_555
C126 H135 1_555 1_555
H136 C126 1_555 1_555
Cl3 C126 1_555 1_555
Cl4 C126 1_555 1_555
C127 H137 1_555 1_555
H138 C127 1_555 1_555
Cl5 C127 1_555 1_555
Cl6 C127 1_555 1_555
Pt1B P1B 1_555 1_555
Pt2B P3B 1_555 1_555
Pt3B P5B 1_555 1_555
Pt4B P7B 1_555 1_555
Fe1B C101B 1_555 1_555
Fe2B C111B 1_555 1_555
P1B C15B 1_555 1_555
P2B Pt1B 1_555 1_555
P3B C41B 1_555 1_555
P4B Pt2B 1_555 1_555
P5B C53B 1_555 1_555
P6B Pt3B 1_555 1_555
P7B C77B 1_555 1_555
P8B Pt4B 1_555 1_555
N1B Pt3B 1_555 1_555
N2B Pt4B 1_555 1_555
N3B Pt3B 1_555 1_555
N4B Pt4B 1_555 1_555
C1B N1B 1_555 1_555
H1B C1B 1_555 1_555
C2B N1B 1_555 1_555
H2B C2B 1_555 1_555
C3B C1B 1_555 1_555
H3B C3B 1_555 1_555
C4B C2B 1_555 1_555
H4B C4B 1_555 1_555
C5B C3B 1_555 1_555
C6B C5B 1_555 1_555
C7B Pt1B 1_555 1_555
C8B Pt1B 1_555 1_555
C9B C8B 1_555 1_555
C10B C9B 1_555 1_555
C11B C10B 1_555 1_555
H5B C11B 1_555 1_555
C12B C10B 1_555 1_555
H6B C12B 1_555 1_555
C13B N2B 1_555 1_555
H7B C13B 1_555 1_555
C14B N2B 1_555 1_555
H8B C14B 1_555 1_555
C15B H9B 1_555 1_555
H10B C15B 1_555 1_555
C16B C15B 1_555 1_555
H11B C16B 1_555 1_555
H12B C16B 1_555 1_555
H13B C16B 1_555 1_555
C17B P1B 1_555 1_555
H14B C17B 1_555 1_555
H15B C17B 1_555 1_555
C18B C17B 1_555 1_555
H16B C18B 1_555 1_555
H17B C18B 1_555 1_555
H18B C18B 1_555 1_555
C19B P1B 1_555 1_555
H19B C19B 1_555 1_555
H20B C19B 1_555 1_555
C20B C19B 1_555 1_555
H21B C20B 1_555 1_555
H22B C20B 1_555 1_555
H23B C20B 1_555 1_555
C21B P2B 1_555 1_555
H24B C21B 1_555 1_555
H25B C21B 1_555 1_555
C22B C21B 1_555 1_555
H26B C22B 1_555 1_555
H27B C22B 1_555 1_555
H28B C22B 1_555 1_555
C23B P2B 1_555 1_555
H29B C23B 1_555 1_555
H30B C23B 1_555 1_555
C24B C23B 1_555 1_555
H31B C24B 1_555 1_555
H32B C24B 1_555 1_555
H33B C24B 1_555 1_555
C25B P2B 1_555 1_555
H34B C25B 1_555 1_555
H35B C25B 1_555 1_555
C26B C25B 1_555 1_555
H36B C26B 1_555 1_555
H37B C26B 1_555 1_555
H38B C26B 1_555 1_555
C27B N3B 1_555 1_555
H39B C27B 1_555 1_555
C28B N3B 1_555 1_555
H40B C28B 1_555 1_555
C29B C27B 1_555 1_555
H41B C29B 1_555 1_555
C30B C28B 1_555 1_555
H42B C30B 1_555 1_555
C31B C29B 1_555 1_555
C32B C31B 1_555 1_555
C33B Pt2B 1_555 1_555
C34B Pt2B 1_555 1_555
C35B C34B 1_555 1_555
C36B C35B 1_555 1_555
C37B C39 1_555 1_555
H43B C37B 1_555 1_555
C38B C40 1_555 1_555
H44B C38B 1_555 1_555
C39B C37 1_555 1_555
H45B C39B 1_555 1_555
C40B C38 1_555 1_555
H46B C40B 1_555 1_555
C41B H47B 1_555 1_555
H48B C41B 1_555 1_555
C42B C41B 1_555 1_555
H49B C42B 1_555 1_555
H50B C42B 1_555 1_555
H51B C42B 1_555 1_555
C43B P3B 1_555 1_555
H52B C43B 1_555 1_555
H53B C43B 1_555 1_555
C44B C43B 1_555 1_555
H54B C44B 1_555 1_555
H55B C44B 1_555 1_555
H56B C44B 1_555 1_555
C45B P3B 1_555 1_555
H57B C45B 1_555 1_555
H58B C45B 1_555 1_555
C46B C45B 1_555 1_555
H59B C46B 1_555 1_555
H60B C46B 1_555 1_555
H61B C46B 1_555 1_555
C47B P4B 1_555 1_555
H62B C47B 1_555 1_555
H63B C47B 1_555 1_555
C48B C47B 1_555 1_555
H64B C48B 1_555 1_555
H65B C48B 1_555 1_555
H66B C48B 1_555 1_555
C49B P4B 1_555 1_555
H67B C49B 1_555 1_555
H68B C49B 1_555 1_555
C50B C49B 1_555 1_555
H69B C50B 1_555 1_555
H70B C50B 1_555 1_555
H71B C50B 1_555 1_555
C51B P4B 1_555 1_555
H72B C51B 1_555 1_555
H73B C51B 1_555 1_555
C52B C51B 1_555 1_555
H74B C52B 1_555 1_555
H75B C52B 1_555 1_555
H76B C52B 1_555 1_555
C53B C54B 1_555 1_555
C54B H77B 1_555 1_555
C55B C53B 1_555 1_555
H78B C55B 1_555 1_555
C56B C54B 1_555 1_555
H79B C56B 1_555 1_555
C57B C55B 1_555 1_555
H80B C57B 1_555 1_555
C58B C56B 1_555 1_555
H81B C58B 1_555 1_555
C59B P5B 1_555 1_555
C60B C59B 1_555 1_555
H82B C60B 1_555 1_555
C61B C59B 1_555 1_555
H83B C61B 1_555 1_555
C62B C60B 1_555 1_555
H84B C62B 1_555 1_555
C63B C61B 1_555 1_555
H85B C63B 1_555 1_555
C64B C62B 1_555 1_555
H86B C64B 1_555 1_555
C65B P6B 1_555 1_555
C66B C65B 1_555 1_555
H87B C66B 1_555 1_555
C67B C65B 1_555 1_555
H88B C67B 1_555 1_555
C68B C66B 1_555 1_555
H89B C68B 1_555 1_555
C69B C67B 1_555 1_555
H90B C69B 1_555 1_555
C70B C68B 1_555 1_555
H91B C70B 1_555 1_555
C71B P6B 1_555 1_555
C72B C71B 1_555 1_555
H92B C72B 1_555 1_555
C73B C71B 1_555 1_555
H93B C73B 1_555 1_555
C74B C72B 1_555 1_555
H94B C74B 1_555 1_555
C75B C73B 1_555 1_555
H95B C75B 1_555 1_555
C76B C74B 1_555 1_555
H96B C76B 1_555 1_555
C77B C78B 1_555 1_555
C78B H97B 1_555 1_555
C79B C77B 1_555 1_555
H98B C79B 1_555 1_555
C80B C78B 1_555 1_555
H99B C80B 1_555 1_555
C81B C79B 1_555 1_555
H100B C81B 1_555 1_555
C82B C80B 1_555 1_555
H101B C82B 1_555 1_555
C83B P7B 1_555 1_555
C84B C83B 1_555 1_555
H102B C84B 1_555 1_555
C85B C83B 1_555 1_555
H103B C85B 1_555 1_555
C86B C84B 1_555 1_555
H104B C86B 1_555 1_555
C87B C85B 1_555 1_555
H105B C87B 1_555 1_555
C88B C86B 1_555 1_555
H106B C88B 1_555 1_555
C89B P8B 1_555 1_555
C90B C89B 1_555 1_555
H107B C90B 1_555 1_555
C91B C89B 1_555 1_555
H108B C91B 1_555 1_555
C92B C90B 1_555 1_555
H109B C92B 1_555 1_555
C93B C91B 1_555 1_555
H110B C93B 1_555 1_555
C94B C92B 1_555 1_555
H111B C94B 1_555 1_555
C95B P8B 1_555 1_555
C96B C95B 1_555 1_555
H112B C96B 1_555 1_555
C97B C95B 1_555 1_555
H113B C97B 1_555 1_555
C98B C96B 1_555 1_555
H114B C98B 1_555 1_555
C99B C97B 1_555 1_555
H115B C99B 1_555 1_555
C100B C98B 1_555 1_555
H116B C100B 1_555 1_555
C101B P6B 1_555 1_555
C102B Fe1B 1_555 1_555
H117B C102B 1_555 1_555
C103B Fe1B 1_555 1_555
H118B C103B 1_555 1_555
C104B Fe1B 1_555 1_555
H119B C104B 1_555 1_555
C105B Fe1B 1_555 1_555
H120B C105B 1_555 1_555
C106B Fe1B 1_555 1_555
C107B Fe1B 1_555 1_555
H121B C107B 1_555 1_555
C108B Fe1B 1_555 1_555
H122B C108B 1_555 1_555
C109B Fe1B 1_555 1_555
H123B C109B 1_555 1_555
C110B Fe1B 1_555 1_555
H124B C110B 1_555 1_555
C111B P8B 1_555 1_555
C112B Fe2B 1_555 1_555
H125B C112B 1_555 1_555
C113B Fe2B 1_555 1_555
H126B C113B 1_555 1_555
C114B Fe2B 1_555 1_555
H127B C114B 1_555 1_555
C115B Fe2B 1_555 1_555
H128B C115B 1_555 1_555
C116B Fe2B 1_555 1_555
C117B Fe2B 1_555 1_555
H129B C117B 1_555 1_555
C118B Fe2B 1_555 1_555
H130B C118B 1_555 1_555
C119B Fe2B 1_555 1_555
H131B C119B 1_555 1_555
C120B Fe2B 1_555 1_555
H132B C120B 1_555 1_555
P5 C106 1_555 1_555
P7 C116 1_555 1_555
C4 C5 1_555 1_555
C6 C7 1_555 1_555
C11 C13 1_555 1_555
C12 C14 1_555 1_555
C30 C31 1_555 1_555
C32 C33 1_555 1_555
C57 C58 1_555 1_555
C63 C64 1_555 1_555
C69 C70 1_555 1_555
C75 C76 1_555 1_555
C81 C82 1_555 1_555
C87 C88 1_555 1_555
C93 C94 1_555 1_555
C99 C100 1_555 1_555
C101 C102 1_555 1_555
C101 C105 1_555 1_555
C102 C103 1_555 1_555
C103 C104 1_555 1_555
C104 C105 1_555 1_555
C106 C107 1_555 1_555
C106 C110 1_555 1_555
C107 C108 1_555 1_555
C108 C109 1_555 1_555
C109 C110 1_555 1_555
C111 C112 1_555 1_555
C111 C115 1_555 1_555
C112 C113 1_555 1_555
C113 C114 1_555 1_555
C114 C115 1_555 1_555
C116 C117 1_555 1_555
C116 C120 1_555 1_555
C117 C118 1_555 1_555
C118 C119 1_555 1_555
C119 C120 1_555 1_555
P5B C106B 1_555 1_555
P7B C116B 1_555 1_555
N4B C39B 1_555 1_555
N4B C40B 1_555 1_555
C4B C5B 1_555 1_555
C6B C7B 1_555 1_555
C11B C13B 1_555 1_555
C12B C14B 1_555 1_555
C30B C31B 1_555 1_555
C32B C33B 1_555 1_555
C36B C37B 1_555 1_555
C36B C38B 1_555 1_555
C57B C58B 1_555 1_555
C63B C64B 1_555 1_555
C69B C70B 1_555 1_555
C75B C76B 1_555 1_555
C81B C82B 1_555 1_555
C87B C88B 1_555 1_555
C93B C94B 1_555 1_555
C99B C100B 1_555 1_555
C101B C102B 1_555 1_555
C101B C105B 1_555 1_555
C102B C103B 1_555 1_555
C103B C104B 1_555 1_555
C104B C105B 1_555 1_555
C106B C107B 1_555 1_555
C106B C110B 1_555 1_555
C107B C108B 1_555 1_555
C108B C109B 1_555 1_555
C109B C110B 1_555 1_555
C111B C112B 1_555 1_555
C111B C115B 1_555 1_555
C112B C113B 1_555 1_555
C113B C114B 1_555 1_555
C114B C115B 1_555 1_555
C116B C117B 1_555 1_555
C116B C120B 1_555 1_555
C117B C118B 1_555 1_555
C118B C119B 1_555 1_555
C119B C120B 1_555 1_555

#END
