# generated using pymatgen
data_Fe2P8H138Pt4C127S4N4Cl6(O2F)12
_symmetry_space_group_name_H-M   'P 1'
_cell_length_a   13.85100000
_cell_length_b   22.46400000
_cell_length_c   51.05600000
_cell_angle_alpha   90.00000000
_cell_angle_beta   96.35000000
_cell_angle_gamma   90.00000000
_symmetry_Int_Tables_number   1
_chemical_formula_structural   Fe2P8H138Pt4C127S4N4Cl6(O2F)12
_chemical_formula_sum   'Fe8 P32 H552 Pt16 C508 S16 N16 Cl24 O96 F48'
_cell_volume   15788.55276267
_cell_formula_units_Z   4
loop_
 _symmetry_equiv_pos_site_id
 _symmetry_equiv_pos_as_xyz
  1  'x, y, z'
loop_
 _atom_site_type_symbol
 _atom_site_label
 _atom_site_symmetry_multiplicity
 _atom_site_fract_x
 _atom_site_fract_y
 _atom_site_fract_z
 _atom_site_occupancy
  Fe  Fe1  1  0.326000  0.810000  0.804710  1.0
  Fe  Fe2  1  0.674000  0.310000  0.695290  1.0
  Fe  Fe3  1  0.674000  0.190000  0.195290  1.0
  Fe  Fe4  1  0.326000  0.690000  0.304710  1.0
  Fe  Fe5  1  0.023200  0.151050  0.629990  1.0
  Fe  Fe6  1  0.976800  0.651050  0.870010  1.0
  Fe  Fe7  1  0.976800  0.848950  0.370010  1.0
  Fe  Fe8  1  0.023200  0.348950  0.129990  1.0
  P  P9  1  0.605300  0.565400  0.667490  1.0
  P  P10  1  0.394700  0.065400  0.832510  1.0
  P  P11  1  0.394700  0.434600  0.332510  1.0
  P  P12  1  0.605300  0.934600  0.167490  1.0
  P  P13  1  0.811500  0.510000  0.607150  1.0
  P  P14  1  0.188500  0.010000  0.892850  1.0
  P  P15  1  0.188500  0.490000  0.392850  1.0
  P  P16  1  0.811500  0.990000  0.107150  1.0
  P  P17  1  0.377900  0.687700  0.553300  1.0
  P  P18  1  0.622100  0.187700  0.946700  1.0
  P  P19  1  0.622100  0.312300  0.446700  1.0
  P  P20  1  0.377900  0.812300  0.053300  1.0
  P  P21  1  0.573500  0.846800  0.580160  1.0
  P  P22  1  0.426500  0.346800  0.919840  1.0
  P  P23  1  0.426500  0.153200  0.419840  1.0
  P  P24  1  0.573500  0.653200  0.080160  1.0
  P  P25  1  0.314700  0.848500  0.739920  1.0
  P  P26  1  0.685300  0.348500  0.760080  1.0
  P  P27  1  0.685300  0.151500  0.260080  1.0
  P  P28  1  0.314700  0.651500  0.239920  1.0
  P  P29  1  0.125800  0.773000  0.765140  1.0
  P  P30  1  0.874200  0.273000  0.734860  1.0
  P  P31  1  0.874200  0.227000  0.234860  1.0
  P  P32  1  0.125800  0.727000  0.265140  1.0
  P  P33  1  0.199400  0.250600  0.635570  1.0
  P  P34  1  0.800600  0.750600  0.864430  1.0
  P  P35  1  0.800600  0.749400  0.364430  1.0
  P  P36  1  0.199400  0.249400  0.135570  1.0
  P  P37  1  0.121100  0.179900  0.575050  1.0
  P  P38  1  0.878900  0.679900  0.924950  1.0
  P  P39  1  0.878900  0.820100  0.424950  1.0
  P  P40  1  0.121100  0.320100  0.075050  1.0
  H  H41  1  0.796700  0.905900  0.741400  1
  H  H42  1  0.203300  0.405900  0.758600  1
  H  H43  1  0.203300  0.094100  0.258600  1
  H  H44  1  0.796700  0.594100  0.241400  1
  H  H45  1  0.699100  0.891000  0.723000  1
  H  H46  1  0.300900  0.391000  0.777000  1
  H  H47  1  0.300900  0.109000  0.277000  1
  H  H48  1  0.699100  0.609000  0.223000  1
  H  H49  1  0.627200  0.597400  0.465900  1
  H  H50  1  0.372800  0.097400  0.034100  1
  H  H51  1  0.372800  0.402600  0.534100  1
  H  H52  1  0.627200  0.902600  0.965900  1
  H  H53  1  0.660000  0.529800  0.468800  1
  H  H54  1  0.340000  0.029800  0.031200  1
  H  H55  1  0.340000  0.470200  0.531200  1
  H  H56  1  0.660000  0.970200  0.968800  1
  H  H57  1  0.127400  0.617700  0.605700  1
  H  H58  1  0.872600  0.117700  0.894300  1
  H  H59  1  0.872600  0.382300  0.394300  1
  H  H60  1  0.127400  0.882300  0.105700  1
  H  H61  1  0.210000  0.656700  0.620400  1
  H  H62  1  0.790000  0.156700  0.879600  1
  H  H63  1  0.790000  0.343300  0.379600  1
  H  H64  1  0.210000  0.843300  0.120400  1
  H  H65  1  0.146400  0.654500  0.716600  1.0
  H  H66  1  0.853600  0.154500  0.783400  1.0
  H  H67  1  0.853600  0.345500  0.283400  1.0
  H  H68  1  0.146400  0.845500  0.216600  1.0
  H  H69  1  0.990800  0.798300  0.695300  1.0
  H  H70  1  0.009200  0.298300  0.804700  1.0
  H  H71  1  0.009200  0.201700  0.304700  1.0
  H  H72  1  0.990800  0.701700  0.195300  1.0
  H  H73  1  0.030600  0.597100  0.694100  1.0
  H  H74  1  0.969400  0.097100  0.805900  1.0
  H  H75  1  0.969400  0.402900  0.305900  1.0
  H  H76  1  0.030600  0.902900  0.194100  1.0
  H  H77  1  0.874800  0.744700  0.671600  1.0
  H  H78  1  0.125200  0.244700  0.828400  1.0
  H  H79  1  0.125200  0.255300  0.328400  1.0
  H  H80  1  0.874800  0.755300  0.171600  1.0
  H  H81  1  0.573300  0.318000  0.623400  1.0
  H  H82  1  0.426700  0.818000  0.876600  1.0
  H  H83  1  0.426700  0.682000  0.376600  1.0
  H  H84  1  0.573300  0.182000  0.123400  1.0
  H  H85  1  0.383900  0.443400  0.596900  1.0
  H  H86  1  0.616100  0.943400  0.903100  1.0
  H  H87  1  0.616100  0.556600  0.403100  1.0
  H  H88  1  0.383900  0.056600  0.096900  1.0
  H  H89  1  0.451100  0.251500  0.617500  1.0
  H  H90  1  0.548900  0.751500  0.882500  1.0
  H  H91  1  0.548900  0.748500  0.382500  1.0
  H  H92  1  0.451100  0.248500  0.117500  1.0
  H  H93  1  0.264700  0.370500  0.588300  1.0
  H  H94  1  0.735300  0.870500  0.911700  1.0
  H  H95  1  0.735300  0.629500  0.411700  1.0
  H  H96  1  0.264700  0.129500  0.088300  1.0
  H  H97  1  0.600400  0.568700  0.713300  1.0
  H  H98  1  0.399600  0.068700  0.786700  1.0
  H  H99  1  0.399600  0.431300  0.286700  1.0
  H  H100  1  0.600400  0.931300  0.213300  1.0
  H  H101  1  0.615000  0.501700  0.704100  1.0
  H  H102  1  0.385000  0.001700  0.795900  1.0
  H  H103  1  0.385000  0.498300  0.295900  1.0
  H  H104  1  0.615000  0.998300  0.204100  1.0
  H  H105  1  0.778100  0.512900  0.705400  1.0
  H  H106  1  0.221900  0.012900  0.794600  1.0
  H  H107  1  0.221900  0.487100  0.294600  1.0
  H  H108  1  0.778100  0.987100  0.205400  1.0
  H  H109  1  0.751500  0.546200  0.731400  1.0
  H  H110  1  0.248500  0.046200  0.768600  1.0
  H  H111  1  0.248500  0.453800  0.268600  1.0
  H  H112  1  0.751500  0.953800  0.231400  1.0
  H  H113  1  0.770900  0.584000  0.705900  1.0
  H  H114  1  0.229100  0.084000  0.794100  1.0
  H  H115  1  0.229100  0.416000  0.294100  1.0
  H  H116  1  0.770900  0.916000  0.205900  1.0
  H  H117  1  0.545800  0.656800  0.680000  1.0
  H  H118  1  0.454200  0.156800  0.820000  1.0
  H  H119  1  0.454200  0.343200  0.320000  1.0
  H  H120  1  0.545800  0.843200  0.180000  1.0
  H  H121  1  0.661400  0.658900  0.681600  1.0
  H  H122  1  0.338600  0.158900  0.818400  1.0
  H  H123  1  0.338600  0.341100  0.318400  1.0
  H  H124  1  0.661400  0.841100  0.181600  1.0
  H  H125  1  0.659000  0.683800  0.638900  1.0
  H  H126  1  0.341000  0.183800  0.861100  1.0
  H  H127  1  0.341000  0.316200  0.361100  1.0
  H  H128  1  0.659000  0.816200  0.138900  1.0
  H  H129  1  0.570400  0.721200  0.648200  1.0
  H  H130  1  0.429600  0.221200  0.851800  1.0
  H  H131  1  0.429600  0.278800  0.351800  1.0
  H  H132  1  0.570400  0.778800  0.148200  1.0
  H  H133  1  0.549900  0.660900  0.631800  1.0
  H  H134  1  0.450100  0.160900  0.868200  1.0
  H  H135  1  0.450100  0.339100  0.368200  1.0
  H  H136  1  0.549900  0.839100  0.131800  1.0
  H  H137  1  0.483100  0.491000  0.661300  1.0
  H  H138  1  0.516900  0.991000  0.838700  1.0
  H  H139  1  0.516900  0.509000  0.338700  1.0
  H  H140  1  0.483100  0.009000  0.161300  1.0
  H  H141  1  0.445000  0.545800  0.677600  1.0
  H  H142  1  0.555000  0.045800  0.822400  1.0
  H  H143  1  0.555000  0.454200  0.322400  1.0
  H  H144  1  0.445000  0.954200  0.177600  1.0
  H  H145  1  0.424400  0.603800  0.638800  1.0
  H  H146  1  0.575600  0.103800  0.861200  1.0
  H  H147  1  0.575600  0.396200  0.361200  1.0
  H  H148  1  0.424400  0.896200  0.138800  1.0
  H  H149  1  0.363600  0.543400  0.634100  1.0
  H  H150  1  0.636400  0.043400  0.865900  1.0
  H  H151  1  0.636400  0.456600  0.365900  1.0
  H  H152  1  0.363600  0.956600  0.134100  1.0
  H  H153  1  0.465600  0.550500  0.622400  1.0
  H  H154  1  0.534400  0.050500  0.877600  1.0
  H  H155  1  0.534400  0.449500  0.377600  1.0
  H  H156  1  0.465600  0.949500  0.122400  1.0
  H  H157  1  0.714900  0.445400  0.579300  1.0
  H  H158  1  0.285100  0.945400  0.920700  1.0
  H  H159  1  0.285100  0.554600  0.420700  1.0
  H  H160  1  0.714900  0.054600  0.079300  1.0
  H  H161  1  0.698400  0.512600  0.569500  1.0
  H  H162  1  0.301600  0.012600  0.930500  1.0
  H  H163  1  0.301600  0.487400  0.430500  1.0
  H  H164  1  0.698400  0.987400  0.069500  1.0
  H  H165  1  0.874200  0.498200  0.558400  1.0
  H  H166  1  0.125800  0.998200  0.941600  1.0
  H  H167  1  0.125800  0.501800  0.441600  1.0
  H  H168  1  0.874200  0.001800  0.058400  1.0
  H  H169  1  0.782900  0.482600  0.537500  1.0
  H  H170  1  0.217100  0.982600  0.962500  1.0
  H  H171  1  0.217100  0.517400  0.462500  1.0
  H  H172  1  0.782900  0.017400  0.037500  1.0
  H  H173  1  0.836700  0.430900  0.555100  1.0
  H  H174  1  0.163300  0.930900  0.944900  1.0
  H  H175  1  0.163300  0.569100  0.444900  1.0
  H  H176  1  0.836700  0.069100  0.055100  1.0
  H  H177  1  0.932500  0.585300  0.609100  1.0
  H  H178  1  0.067500  0.085300  0.890900  1.0
  H  H179  1  0.067500  0.414700  0.390900  1.0
  H  H180  1  0.932500  0.914700  0.109100  1.0
  H  H181  1  0.921100  0.555300  0.580500  1.0
  H  H182  1  0.078900  0.055300  0.919500  1.0
  H  H183  1  0.078900  0.444700  0.419500  1.0
  H  H184  1  0.921100  0.944700  0.080500  1.0
  H  H185  1  0.861600  0.648100  0.572900  1.0
  H  H186  1  0.138400  0.148100  0.927100  1.0
  H  H187  1  0.138400  0.351900  0.427100  1.0
  H  H188  1  0.861600  0.851900  0.072900  1.0
  H  H189  1  0.804800  0.647400  0.598500  1.0
  H  H190  1  0.195200  0.147400  0.901500  1.0
  H  H191  1  0.195200  0.352600  0.401500  1.0
  H  H192  1  0.804800  0.852600  0.098500  1.0
  H  H193  1  0.765300  0.608800  0.573200  1.0
  H  H194  1  0.234700  0.108800  0.926800  1.0
  H  H195  1  0.234700  0.391200  0.426800  1.0
  H  H196  1  0.765300  0.891200  0.073200  1.0
  H  H197  1  0.955700  0.455000  0.604300  1.0
  H  H198  1  0.044300  0.955000  0.895700  1.0
  H  H199  1  0.044300  0.545000  0.395700  1.0
  H  H200  1  0.955700  0.045000  0.104300  1.0
  H  H201  1  0.962300  0.489500  0.632000  1.0
  H  H202  1  0.037700  0.989500  0.868000  1.0
  H  H203  1  0.037700  0.510500  0.368000  1.0
  H  H204  1  0.962300  0.010500  0.132000  1.0
  H  H205  1  0.849400  0.424400  0.647300  1.0
  H  H206  1  0.150600  0.924400  0.852700  1.0
  H  H207  1  0.150600  0.575600  0.352700  1.0
  H  H208  1  0.849400  0.075600  0.147300  1.0
  H  H209  1  0.932500  0.384400  0.636800  1.0
  H  H210  1  0.067500  0.884400  0.863200  1.0
  H  H211  1  0.067500  0.615600  0.363200  1.0
  H  H212  1  0.932500  0.115600  0.136800  1.0
  H  H213  1  0.830700  0.393000  0.619100  1.0
  H  H214  1  0.169300  0.893000  0.880900  1.0
  H  H215  1  0.169300  0.607000  0.380900  1.0
  H  H216  1  0.830700  0.107000  0.119100  1.0
  H  H217  1  0.313100  0.713900  0.698000  1.0
  H  H218  1  0.686900  0.213900  0.802000  1.0
  H  H219  1  0.686900  0.286100  0.302000  1.0
  H  H220  1  0.313100  0.786100  0.198000  1.0
  H  H221  1  0.166700  0.854500  0.671800  1.0
  H  H222  1  0.833300  0.354500  0.828200  1.0
  H  H223  1  0.833300  0.145500  0.328200  1.0
  H  H224  1  0.166700  0.645500  0.171800  1.0
  H  H225  1  0.384000  0.705200  0.659100  1.0
  H  H226  1  0.616000  0.205200  0.840900  1.0
  H  H227  1  0.616000  0.294800  0.340900  1.0
  H  H228  1  0.384000  0.794800  0.159100  1.0
  H  H229  1  0.243100  0.854200  0.634400  1.0
  H  H230  1  0.756900  0.354200  0.865600  1.0
  H  H231  1  0.756900  0.145800  0.365600  1.0
  H  H232  1  0.243100  0.645800  0.134400  1.0
  H  H233  1  0.536200  0.826900  0.471100  1.0
  H  H234  1  0.463800  0.326900  0.028900  1.0
  H  H235  1  0.463800  0.173100  0.528900  1.0
  H  H236  1  0.536200  0.673100  0.971100  1.0
  H  H237  1  0.713000  0.687400  0.497500  1.0
  H  H238  1  0.287000  0.187400  0.002500  1.0
  H  H239  1  0.287000  0.312600  0.502500  1.0
  H  H240  1  0.713000  0.812600  0.997500  1.0
  H  H241  1  0.384100  0.175400  0.568900  1.0
  H  H242  1  0.615900  0.675400  0.931100  1.0
  H  H243  1  0.615900  0.824600  0.431100  1.0
  H  H244  1  0.384100  0.324600  0.068900  1.0
  H  H245  1  0.217600  0.307500  0.541800  1.0
  H  H246  1  0.782400  0.807500  0.958200  1.0
  H  H247  1  0.782400  0.692500  0.458200  1.0
  H  H248  1  0.217600  0.192500  0.041800  1.0
  H  H249  1  0.357100  0.699400  0.507700  1.0
  H  H250  1  0.642900  0.199400  0.992300  1.0
  H  H251  1  0.642900  0.300600  0.492300  1.0
  H  H252  1  0.357100  0.800600  0.007700  1.0
  H  H253  1  0.447700  0.656800  0.516100  1.0
  H  H254  1  0.552300  0.156800  0.983900  1.0
  H  H255  1  0.552300  0.343200  0.483900  1.0
  H  H256  1  0.447700  0.843200  0.016100  1.0
  H  H257  1  0.341200  0.577500  0.522500  1.0
  H  H258  1  0.658800  0.077500  0.977500  1.0
  H  H259  1  0.658800  0.422500  0.477500  1.0
  H  H260  1  0.341200  0.922500  0.022500  1.0
  H  H261  1  0.319900  0.602300  0.493000  1.0
  H  H262  1  0.680100  0.102300  0.007000  1.0
  H  H263  1  0.680100  0.397700  0.507000  1.0
  H  H264  1  0.319900  0.897700  0.993000  1.0
  H  H265  1  0.249800  0.620100  0.514700  1.0
  H  H266  1  0.750200  0.120100  0.985300  1.0
  H  H267  1  0.750200  0.379900  0.485300  1.0
  H  H268  1  0.249800  0.879900  0.014700  1.0
  H  H269  1  0.393400  0.623400  0.590200  1.0
  H  H270  1  0.606600  0.123400  0.909800  1.0
  H  H271  1  0.606600  0.376600  0.409800  1.0
  H  H272  1  0.393400  0.876600  0.090200  1.0
  H  H273  1  0.376400  0.585100  0.563600  1.0
  H  H274  1  0.623600  0.085100  0.936400  1.0
  H  H275  1  0.623600  0.414900  0.436400  1.0
  H  H276  1  0.376400  0.914900  0.063600  1.0
  H  H277  1  0.540600  0.616200  0.555100  1.0
  H  H278  1  0.459400  0.116200  0.944900  1.0
  H  H279  1  0.459400  0.383800  0.444900  1.0
  H  H280  1  0.540600  0.883800  0.055100  1.0
  H  H281  1  0.537700  0.569700  0.578700  1.0
  H  H282  1  0.462300  0.069700  0.921300  1.0
  H  H283  1  0.462300  0.430300  0.421300  1.0
  H  H284  1  0.537700  0.930300  0.078700  1.0
  H  H285  1  0.555200  0.639000  0.585000  1.0
  H  H286  1  0.444800  0.139000  0.915000  1.0
  H  H287  1  0.444800  0.361000  0.415000  1.0
  H  H288  1  0.555200  0.861000  0.085000  1.0
  H  H289  1  0.213000  0.661700  0.551200  1.0
  H  H290  1  0.787000  0.161700  0.948800  1.0
  H  H291  1  0.787000  0.338300  0.448800  1.0
  H  H292  1  0.213000  0.838300  0.051200  1.0
  H  H293  1  0.244800  0.698500  0.577600  1.0
  H  H294  1  0.755200  0.198500  0.922400  1.0
  H  H295  1  0.755200  0.301500  0.422400  1.0
  H  H296  1  0.244800  0.801500  0.077600  1.0
  H  H297  1  0.233100  0.787900  0.555600  1.0
  H  H298  1  0.766900  0.287900  0.944400  1.0
  H  H299  1  0.766900  0.212100  0.444400  1.0
  H  H300  1  0.233100  0.712100  0.055600  1.0
  H  H301  1  0.138100  0.752100  0.543900  1.0
  H  H302  1  0.861900  0.252100  0.956100  1.0
  H  H303  1  0.861900  0.247900  0.456100  1.0
  H  H304  1  0.138100  0.747900  0.043900  1.0
  H  H305  1  0.229900  0.756100  0.527400  1.0
  H  H306  1  0.770100  0.256100  0.972600  1.0
  H  H307  1  0.770100  0.243900  0.472600  1.0
  H  H308  1  0.229900  0.743900  0.027400  1.0
  H  H309  1  0.603900  0.843500  0.626000  1.0
  H  H310  1  0.396100  0.343500  0.874000  1.0
  H  H311  1  0.396100  0.156500  0.374000  1.0
  H  H312  1  0.603900  0.656500  0.126000  1.0
  H  H313  1  0.697400  0.866100  0.613800  1.0
  H  H314  1  0.302600  0.366100  0.886200  1.0
  H  H315  1  0.302600  0.133900  0.386200  1.0
  H  H316  1  0.697400  0.633900  0.113800  1.0
  H  H317  1  0.588300  0.962000  0.613000  1.0
  H  H318  1  0.411700  0.462000  0.887000  1.0
  H  H319  1  0.411700  0.038000  0.387000  1.0
  H  H320  1  0.588300  0.538000  0.113000  1.0
  H  H321  1  0.680500  0.947700  0.633800  1.0
  H  H322  1  0.319500  0.447700  0.866200  1.0
  H  H323  1  0.319500  0.052300  0.366200  1.0
  H  H324  1  0.680500  0.552300  0.133800  1.0
  H  H325  1  0.573800  0.930100  0.640300  1.0
  H  H326  1  0.426200  0.430100  0.859700  1.0
  H  H327  1  0.426200  0.069900  0.359700  1.0
  H  H328  1  0.573800  0.569900  0.140300  1.0
  H  H329  1  0.709800  0.868400  0.559000  1.0
  H  H330  1  0.290200  0.368400  0.941000  1.0
  H  H331  1  0.290200  0.131600  0.441000  1.0
  H  H332  1  0.709800  0.631600  0.059000  1.0
  H  H333  1  0.616200  0.897100  0.543300  1.0
  H  H334  1  0.383800  0.397100  0.956700  1.0
  H  H335  1  0.383800  0.102900  0.456700  1.0
  H  H336  1  0.616200  0.602900  0.043300  1.0
  H  H337  1  0.643100  0.975900  0.578400  1.0
  H  H338  1  0.356900  0.475900  0.921600  1.0
  H  H339  1  0.356900  0.024100  0.421600  1.0
  H  H340  1  0.643100  0.524100  0.078400  1.0
  H  H341  1  0.699800  0.977500  0.552800  1.0
  H  H342  1  0.300200  0.477500  0.947200  1.0
  H  H343  1  0.300200  0.022500  0.447200  1.0
  H  H344  1  0.699800  0.522500  0.052800  1.0
  H  H345  1  0.752200  0.951500  0.579900  1.0
  H  H346  1  0.247800  0.451500  0.920100  1.0
  H  H347  1  0.247800  0.048500  0.420100  1.0
  H  H348  1  0.752200  0.548500  0.079900  1.0
  H  H349  1  0.430500  0.889300  0.560100  1.0
  H  H350  1  0.569500  0.389300  0.939900  1.0
  H  H351  1  0.569500  0.110700  0.439900  1.0
  H  H352  1  0.430500  0.610700  0.060100  1.0
  H  H353  1  0.426900  0.885600  0.590900  1.0
  H  H354  1  0.573100  0.385600  0.909100  1.0
  H  H355  1  0.573100  0.114400  0.409100  1.0
  H  H356  1  0.426900  0.614400  0.090900  1.0
  H  H357  1  0.407100  0.982800  0.572600  1.0
  H  H358  1  0.592900  0.482800  0.927400  1.0
  H  H359  1  0.592900  0.017200  0.427400  1.0
  H  H360  1  0.407100  0.517200  0.072600  1.0
  H  H361  1  0.519600  0.981700  0.568100  1.0
  H  H362  1  0.480400  0.481700  0.931900  1.0
  H  H363  1  0.480400  0.018300  0.431900  1.0
  H  H364  1  0.519600  0.518300  0.068100  1.0
  H  H365  1  0.488600  0.978600  0.597400  1.0
  H  H366  1  0.511400  0.478600  0.902600  1.0
  H  H367  1  0.511400  0.021400  0.402600  1.0
  H  H368  1  0.488600  0.521400  0.097400  1.0
  H  H369  1  0.430700  0.889200  0.700100  1.0
  H  H370  1  0.569300  0.389200  0.799900  1.0
  H  H371  1  0.569300  0.110800  0.299900  1.0
  H  H372  1  0.430700  0.610800  0.200100  1.0
  H  H373  1  0.440100  0.748400  0.748500  1.0
  H  H374  1  0.559900  0.248400  0.751500  1.0
  H  H375  1  0.559900  0.251600  0.251500  1.0
  H  H376  1  0.440100  0.751600  0.248500  1.0
  H  H377  1  0.564600  0.850400  0.679700  1.0
  H  H378  1  0.435400  0.350400  0.820300  1.0
  H  H379  1  0.435400  0.149600  0.320300  1.0
  H  H380  1  0.564600  0.649600  0.179700  1.0
  H  H381  1  0.570800  0.710000  0.728300  1.0
  H  H382  1  0.429200  0.210000  0.771700  1.0
  H  H383  1  0.429200  0.290000  0.271700  1.0
  H  H384  1  0.570800  0.790000  0.228300  1.0
  H  H385  1  0.633200  0.757900  0.695900  1.0
  H  H386  1  0.366800  0.257900  0.804100  1.0
  H  H387  1  0.366800  0.242100  0.304100  1.0
  H  H388  1  0.633200  0.742100  0.195900  1.0
  H  H389  1  0.426100  0.953100  0.744200  1.0
  H  H390  1  0.573900  0.453100  0.755800  1.0
  H  H391  1  0.573900  0.046900  0.255800  1.0
  H  H392  1  0.426100  0.546900  0.244200  1.0
  H  H393  1  0.161600  0.913000  0.710100  1.0
  H  H394  1  0.838400  0.413000  0.789900  1.0
  H  H395  1  0.838400  0.087000  0.289900  1.0
  H  H396  1  0.161600  0.587000  0.210100  1.0
  H  H397  1  0.407300  0.051300  0.729300  1.0
  H  H398  1  0.592700  0.551300  0.770700  1.0
  H  H399  1  0.592700  0.948700  0.270700  1.0
  H  H400  1  0.407300  0.448700  0.229300  1.0
  H  H401  1  0.138300  0.008400  0.694800  1.0
  H  H402  1  0.861700  0.508400  0.805200  1.0
  H  H403  1  0.861700  0.991600  0.305200  1.0
  H  H404  1  0.138300  0.491600  0.194800  1.0
  H  H405  1  0.262500  0.076100  0.701900  1.0
  H  H406  1  0.737500  0.576100  0.798100  1.0
  H  H407  1  0.737500  0.923900  0.298100  1.0
  H  H408  1  0.262500  0.423900  0.201900  1.0
  H  H409  1  0.993200  0.792500  0.804100  1.0
  H  H410  1  0.006800  0.292500  0.695900  1.0
  H  H411  1  0.006800  0.207500  0.195900  1.0
  H  H412  1  0.993200  0.707500  0.304100  1.0
  H  H413  1  0.082800  0.889700  0.745200  1.0
  H  H414  1  0.917200  0.389700  0.754800  1.0
  H  H415  1  0.917200  0.110300  0.254800  1.0
  H  H416  1  0.082800  0.610300  0.245200  1.0
  H  H417  1  0.895300  0.870400  0.815200  1.0
  H  H418  1  0.104700  0.370400  0.684800  1.0
  H  H419  1  0.104700  0.129600  0.184800  1.0
  H  H420  1  0.895300  0.629600  0.315200  1.0
  H  H421  1  0.985400  0.968200  0.756200  1.0
  H  H422  1  0.014600  0.468200  0.743800  1.0
  H  H423  1  0.014600  0.031800  0.243800  1.0
  H  H424  1  0.985400  0.531800  0.256200  1.0
  H  H425  1  0.901500  0.959900  0.792900  1.0
  H  H426  1  0.098500  0.459900  0.707100  1.0
  H  H427  1  0.098500  0.040100  0.207100  1.0
  H  H428  1  0.901500  0.540100  0.292900  1.0
  H  H429  1  0.158000  0.650400  0.776200  1.0
  H  H430  1  0.842000  0.150400  0.723800  1.0
  H  H431  1  0.842000  0.349600  0.223800  1.0
  H  H432  1  0.158000  0.849600  0.276200  1.0
  H  H433  1  0.924900  0.746500  0.751400  1.0
  H  H434  1  0.075100  0.246500  0.748600  1.0
  H  H435  1  0.075100  0.253500  0.248600  1.0
  H  H436  1  0.924900  0.753500  0.251400  1.0
  H  H437  1  0.077700  0.561500  0.773500  1.0
  H  H438  1  0.922300  0.061500  0.726500  1.0
  H  H439  1  0.922300  0.438500  0.226500  1.0
  H  H440  1  0.077700  0.938500  0.273500  1.0
  H  H441  1  0.830800  0.649000  0.752300  1.0
  H  H442  1  0.169200  0.149000  0.747700  1.0
  H  H443  1  0.169200  0.351000  0.247700  1.0
  H  H444  1  0.830800  0.851000  0.252300  1.0
  H  H445  1  0.918300  0.564800  0.762400  1.0
  H  H446  1  0.081700  0.064800  0.737600  1.0
  H  H447  1  0.081700  0.435200  0.237600  1.0
  H  H448  1  0.918300  0.935200  0.262400  1.0
  H  H449  1  0.358300  0.165300  0.634000  1.0
  H  H450  1  0.641700  0.665300  0.866000  1.0
  H  H451  1  0.641700  0.834700  0.366000  1.0
  H  H452  1  0.358300  0.334700  0.134000  1.0
  H  H453  1  0.223600  0.243200  0.691400  1.0
  H  H454  1  0.776400  0.743200  0.808600  1.0
  H  H455  1  0.776400  0.756800  0.308600  1.0
  H  H456  1  0.223600  0.256800  0.191400  1.0
  H  H457  1  0.468800  0.120200  0.662300  1.0
  H  H458  1  0.531200  0.620200  0.837700  1.0
  H  H459  1  0.531200  0.879800  0.337700  1.0
  H  H460  1  0.468800  0.379800  0.162300  1.0
  H  H461  1  0.354300  0.202400  0.721000  1.0
  H  H462  1  0.645700  0.702400  0.779000  1.0
  H  H463  1  0.645700  0.797600  0.279000  1.0
  H  H464  1  0.354300  0.297600  0.221000  1.0
  H  H465  1  0.475900  0.140200  0.709100  1.0
  H  H466  1  0.524100  0.640200  0.790900  1.0
  H  H467  1  0.524100  0.859800  0.290900  1.0
  H  H468  1  0.475900  0.359800  0.209100  1.0
  H  H469  1  0.095000  0.354500  0.620900  1.0
  H  H470  1  0.905000  0.854500  0.879100  1.0
  H  H471  1  0.905000  0.645500  0.379100  1.0
  H  H472  1  0.095000  0.145500  0.120900  1.0
  H  H473  1  0.330000  0.323600  0.670200  1.0
  H  H474  1  0.670000  0.823600  0.829800  1.0
  H  H475  1  0.670000  0.676400  0.329800  1.0
  H  H476  1  0.330000  0.176400  0.170200  1.0
  H  H477  1  0.113800  0.456500  0.630900  1.0
  H  H478  1  0.886200  0.956500  0.869100  1.0
  H  H479  1  0.886200  0.543500  0.369100  1.0
  H  H480  1  0.113800  0.043500  0.130900  1.0
  H  H481  1  0.354800  0.418600  0.680300  1.0
  H  H482  1  0.645200  0.918600  0.819700  1.0
  H  H483  1  0.645200  0.581400  0.319700  1.0
  H  H484  1  0.354800  0.081400  0.180300  1.0
  H  H485  1  0.241000  0.490900  0.659900  1.0
  H  H486  1  0.759000  0.990900  0.840100  1.0
  H  H487  1  0.759000  0.509100  0.340100  1.0
  H  H488  1  0.241000  0.009100  0.159900  1.0
  H  H489  1  0.948200  0.151200  0.543000  1.0
  H  H490  1  0.051800  0.651200  0.957000  1.0
  H  H491  1  0.051800  0.848800  0.457000  1.0
  H  H492  1  0.948200  0.348800  0.043000  1.0
  H  H493  1  0.080100  0.302800  0.569900  1.0
  H  H494  1  0.919900  0.802800  0.930100  1.0
  H  H495  1  0.919900  0.697200  0.430100  1.0
  H  H496  1  0.080100  0.197200  0.069900  1.0
  H  H497  1  0.828200  0.207200  0.518500  1.0
  H  H498  1  0.171800  0.707200  0.981500  1.0
  H  H499  1  0.171800  0.792800  0.481500  1.0
  H  H500  1  0.828200  0.292800  0.018500  1.0
  H  H501  1  0.944700  0.357400  0.551800  1.0
  H  H502  1  0.055300  0.857400  0.948200  1.0
  H  H503  1  0.055300  0.642600  0.448200  1.0
  H  H504  1  0.944700  0.142600  0.051800  1.0
  H  H505  1  0.827300  0.310400  0.522600  1.0
  H  H506  1  0.172700  0.810400  0.977400  1.0
  H  H507  1  0.172700  0.689600  0.477400  1.0
  H  H508  1  0.827300  0.189600  0.022600  1.0
  H  H509  1  0.226100  0.072000  0.574400  1.0
  H  H510  1  0.773900  0.572000  0.925600  1.0
  H  H511  1  0.773900  0.928000  0.425600  1.0
  H  H512  1  0.226100  0.428000  0.074400  1.0
  H  H513  1  0.118400  0.187200  0.518000  1.0
  H  H514  1  0.881600  0.687200  0.982000  1.0
  H  H515  1  0.881600  0.812800  0.482000  1.0
  H  H516  1  0.118400  0.312800  0.018000  1.0
  H  H517  1  0.295800  0.017100  0.543000  1.0
  H  H518  1  0.704200  0.517100  0.957000  1.0
  H  H519  1  0.704200  0.982900  0.457000  1.0
  H  H520  1  0.295800  0.482900  0.043000  1.0
  H  H521  1  0.175500  0.126100  0.486800  1.0
  H  H522  1  0.824500  0.626100  0.013200  1.0
  H  H523  1  0.824500  0.873900  0.513200  1.0
  H  H524  1  0.175500  0.373900  0.986800  1.0
  H  H525  1  0.282900  0.049200  0.499200  1.0
  H  H526  1  0.717100  0.549200  0.000800  1.0
  H  H527  1  0.717100  0.950800  0.500800  1.0
  H  H528  1  0.282900  0.450800  0.999200  1.0
  H  H529  1  0.154500  0.800400  0.826300  1.0
  H  H530  1  0.845500  0.300400  0.673700  1.0
  H  H531  1  0.845500  0.199600  0.173700  1.0
  H  H532  1  0.154500  0.699600  0.326300  1.0
  H  H533  1  0.310000  0.764800  0.853100  1.0
  H  H534  1  0.690000  0.264800  0.646900  1.0
  H  H535  1  0.690000  0.235200  0.146900  1.0
  H  H536  1  0.310000  0.735200  0.353100  1.0
  H  H537  1  0.408800  0.703300  0.824600  1.0
  H  H538  1  0.591200  0.203300  0.675400  1.0
  H  H539  1  0.591200  0.296700  0.175400  1.0
  H  H540  1  0.408800  0.796700  0.324600  1.0
  H  H541  1  0.328300  0.703200  0.778000  1.0
  H  H542  1  0.671700  0.203200  0.722000  1.0
  H  H543  1  0.671700  0.296800  0.222000  1.0
  H  H544  1  0.328300  0.796800  0.278000  1.0
  H  H545  1  0.492400  0.820300  0.783300  1.0
  H  H546  1  0.507600  0.320300  0.716700  1.0
  H  H547  1  0.507600  0.179700  0.216700  1.0
  H  H548  1  0.492400  0.679700  0.283300  1.0
  H  H549  1  0.498800  0.857800  0.828800  1.0
  H  H550  1  0.501200  0.357800  0.671200  1.0
  H  H551  1  0.501200  0.142200  0.171200  1.0
  H  H552  1  0.498800  0.642200  0.328800  1.0
  H  H553  1  0.338300  0.914200  0.832300  1.0
  H  H554  1  0.661700  0.414200  0.667700  1.0
  H  H555  1  0.661700  0.085800  0.167700  1.0
  H  H556  1  0.338300  0.585800  0.332300  1.0
  H  H557  1  0.235200  0.911400  0.786700  1.0
  H  H558  1  0.764800  0.411400  0.713300  1.0
  H  H559  1  0.764800  0.088600  0.213300  1.0
  H  H560  1  0.235200  0.588600  0.286700  1.0
  H  H561  1  0.919000  0.120100  0.583600  1.0
  H  H562  1  0.081000  0.620100  0.916400  1.0
  H  H563  1  0.081000  0.879900  0.416400  1.0
  H  H564  1  0.919000  0.379900  0.083600  1.0
  H  H565  1  0.910000  0.049600  0.621500  1.0
  H  H566  1  0.090000  0.549600  0.878500  1.0
  H  H567  1  0.090000  0.950400  0.378500  1.0
  H  H568  1  0.910000  0.450400  0.121500  1.0
  H  H569  1  0.088400  0.032100  0.645900  1.0
  H  H570  1  0.911600  0.532100  0.854100  1.0
  H  H571  1  0.911600  0.967900  0.354100  1.0
  H  H572  1  0.088400  0.467900  0.145900  1.0
  H  H573  1  0.198500  0.102300  0.623200  1.0
  H  H574  1  0.801500  0.602300  0.876800  1.0
  H  H575  1  0.801500  0.897700  0.376800  1.0
  H  H576  1  0.198500  0.397700  0.123200  1.0
  H  H577  1  0.099500  0.175900  0.679100  1.0
  H  H578  1  0.900500  0.675900  0.820900  1.0
  H  H579  1  0.900500  0.824100  0.320900  1.0
  H  H580  1  0.099500  0.324100  0.179100  1.0
  H  H581  1  0.927900  0.155200  0.673800  1.0
  H  H582  1  0.072100  0.655200  0.826200  1.0
  H  H583  1  0.072100  0.844800  0.326200  1.0
  H  H584  1  0.927900  0.344800  0.173800  1.0
  H  H585  1  0.845100  0.208100  0.633700  1.0
  H  H586  1  0.154900  0.708100  0.866300  1.0
  H  H587  1  0.154900  0.791900  0.366300  1.0
  H  H588  1  0.845100  0.291900  0.133700  1.0
  H  H589  1  0.982800  0.266900  0.610600  1.0
  H  H590  1  0.017200  0.766900  0.889400  1.0
  H  H591  1  0.017200  0.733100  0.389400  1.0
  H  H592  1  0.982800  0.233100  0.110600  1.0
  Pt  Pt593  1  0.710270  0.536700  0.637501  1.0
  Pt  Pt594  1  0.289730  0.036700  0.862499  1.0
  Pt  Pt595  1  0.289730  0.463300  0.362499  1.0
  Pt  Pt596  1  0.710270  0.963300  0.137501  1.0
  Pt  Pt597  1  0.474210  0.767890  0.565986  1.0
  Pt  Pt598  1  0.525790  0.267890  0.934014  1.0
  Pt  Pt599  1  0.525790  0.232110  0.434014  1.0
  Pt  Pt600  1  0.474210  0.732110  0.065986  1.0
  Pt  Pt601  1  0.188990  0.786230  0.725956  1.0
  Pt  Pt602  1  0.811010  0.286230  0.774044  1.0
  Pt  Pt603  1  0.811010  0.213770  0.274044  1.0
  Pt  Pt604  1  0.188990  0.713770  0.225956  1.0
  Pt  Pt605  1  0.239720  0.241470  0.593465  1.0
  Pt  Pt606  1  0.760280  0.741470  0.906535  1.0
  Pt  Pt607  1  0.760280  0.758530  0.406535  1.0
  Pt  Pt608  1  0.239720  0.258530  0.093465  1.0
  C  C609  1  0.327900  0.542100  0.729000  1
  C  C610  1  0.672100  0.042100  0.771000  1
  C  C611  1  0.672100  0.457900  0.271000  1
  C  C612  1  0.327900  0.957900  0.229000  1
  C  C613  1  0.089100  0.494900  0.533700  1
  C  C614  1  0.910900  0.994900  0.966300  1
  C  C615  1  0.910900  0.505100  0.466300  1
  C  C616  1  0.089100  0.005100  0.033700  1
  C  C617  1  0.914800  0.909000  0.649200  1
  C  C618  1  0.085200  0.409000  0.850800  1
  C  C619  1  0.085200  0.091000  0.350800  1
  C  C620  1  0.914800  0.591000  0.149200  1
  C  C621  1  0.699300  0.247600  0.573400  1
  C  C622  1  0.300700  0.747600  0.926600  1
  C  C623  1  0.300700  0.752400  0.426600  1
  C  C624  1  0.699300  0.252400  0.073400  1
  C  C625  1  0.747400  0.874600  0.736800  1
  C  C626  1  0.252600  0.374600  0.763200  1
  C  C627  1  0.252600  0.125400  0.263200  1
  C  C628  1  0.747400  0.625400  0.236800  1
  C  C629  1  0.612000  0.558900  0.473800  1
  C  C630  1  0.388000  0.058900  0.026200  1
  C  C631  1  0.388000  0.441100  0.526200  1
  C  C632  1  0.612000  0.941100  0.973800  1
  C  C633  1  0.142000  0.643200  0.621400  1
  C  C634  1  0.858000  0.143200  0.878600  1
  C  C635  1  0.858000  0.356800  0.378600  1
  C  C636  1  0.142000  0.856800  0.121400  1
  C  C637  1  0.090800  0.671600  0.706900  1.0
  C  C638  1  0.909200  0.171600  0.793100  1.0
  C  C639  1  0.909200  0.328400  0.293100  1.0
  C  C640  1  0.090800  0.828400  0.206900  1.0
  C  C641  1  0.999400  0.756500  0.694100  1.0
  C  C642  1  0.000600  0.256500  0.805900  1.0
  C  C643  1  0.000600  0.243500  0.305900  1.0
  C  C644  1  0.999400  0.743500  0.194100  1.0
  C  C645  1  0.023500  0.639100  0.694000  1.0
  C  C646  1  0.976500  0.139100  0.806000  1.0
  C  C647  1  0.976500  0.360900  0.306000  1.0
  C  C648  1  0.023500  0.860900  0.194000  1.0
  C  C649  1  0.929500  0.724700  0.680400  1.0
  C  C650  1  0.070500  0.224700  0.819600  1.0
  C  C651  1  0.070500  0.275300  0.319600  1.0
  C  C652  1  0.929500  0.775300  0.180400  1.0
  C  C653  1  0.934900  0.666400  0.678900  1.0
  C  C654  1  0.065100  0.166400  0.821100  1.0
  C  C655  1  0.065100  0.333600  0.321100  1.0
  C  C656  1  0.934900  0.833600  0.178900  1.0
  C  C657  1  0.867700  0.627500  0.665700  1.0
  C  C658  1  0.132300  0.127500  0.834300  1.0
  C  C659  1  0.132300  0.372500  0.334300  1.0
  C  C660  1  0.867700  0.872500  0.165700  1.0
  C  C661  1  0.811000  0.597300  0.652900  1.0
  C  C662  1  0.189000  0.097300  0.847100  1.0
  C  C663  1  0.189000  0.402700  0.347100  1.0
  C  C664  1  0.811000  0.902700  0.152900  1.0
  C  C665  1  0.613600  0.473500  0.622600  1.0
  C  C666  1  0.386400  0.973500  0.877400  1.0
  C  C667  1  0.386400  0.526500  0.377400  1.0
  C  C668  1  0.613600  0.026500  0.122600  1.0
  C  C669  1  0.561100  0.434100  0.616500  1.0
  C  C670  1  0.438900  0.934100  0.883500  1.0
  C  C671  1  0.438900  0.565900  0.383500  1.0
  C  C672  1  0.561100  0.065900  0.116500  1.0
  C  C673  1  0.493300  0.391500  0.611100  1.0
  C  C674  1  0.506700  0.891500  0.888900  1.0
  C  C675  1  0.506700  0.608500  0.388900  1.0
  C  C676  1  0.493300  0.108500  0.111100  1.0
  C  C677  1  0.510100  0.331100  0.616700  1.0
  C  C678  1  0.489900  0.831100  0.883300  1.0
  C  C679  1  0.489900  0.668900  0.383300  1.0
  C  C680  1  0.510100  0.168900  0.116700  1.0
  C  C681  1  0.400600  0.403200  0.601000  1.0
  C  C682  1  0.599400  0.903200  0.899000  1.0
  C  C683  1  0.599400  0.596800  0.399000  1.0
  C  C684  1  0.400600  0.096800  0.101000  1.0
  C  C685  1  0.437800  0.291900  0.612800  1.0
  C  C686  1  0.562200  0.791900  0.887200  1.0
  C  C687  1  0.562200  0.708100  0.387200  1.0
  C  C688  1  0.437800  0.208100  0.112800  1.0
  C  C689  1  0.328000  0.360500  0.596200  1.0
  C  C690  1  0.672000  0.860500  0.903800  1.0
  C  C691  1  0.672000  0.639500  0.403800  1.0
  C  C692  1  0.328000  0.139500  0.096200  1.0
  C  C693  1  0.637000  0.543200  0.702000  1.0
  C  C694  1  0.363000  0.043200  0.798000  1.0
  C  C695  1  0.363000  0.456800  0.298000  1.0
  C  C696  1  0.637000  0.956800  0.202000  1.0
  C  C697  1  0.743800  0.546900  0.712000  1.0
  C  C698  1  0.256200  0.046900  0.788000  1.0
  C  C699  1  0.256200  0.453100  0.288000  1.0
  C  C700  1  0.743800  0.953100  0.212000  1.0
  C  C701  1  0.602000  0.646100  0.670500  1.0
  C  C702  1  0.398000  0.146100  0.829500  1.0
  C  C703  1  0.398000  0.353900  0.329500  1.0
  C  C704  1  0.602000  0.853900  0.170500  1.0
  C  C705  1  0.594700  0.681100  0.645100  1.0
  C  C706  1  0.405300  0.181100  0.854900  1.0
  C  C707  1  0.405300  0.318900  0.354900  1.0
  C  C708  1  0.594700  0.818900  0.145100  1.0
  C  C709  1  0.480700  0.535000  0.662500  1.0
  C  C710  1  0.519300  0.035000  0.837500  1.0
  C  C711  1  0.519300  0.465000  0.337500  1.0
  C  C712  1  0.480700  0.965000  0.162500  1.0
  C  C713  1  0.429000  0.560400  0.637200  1.0
  C  C714  1  0.571000  0.060400  0.862800  1.0
  C  C715  1  0.571000  0.439600  0.362800  1.0
  C  C716  1  0.429000  0.939600  0.137200  1.0
  C  C717  1  0.748400  0.483200  0.576100  1.0
  C  C718  1  0.251600  0.983200  0.923900  1.0
  C  C719  1  0.251600  0.516800  0.423900  1.0
  C  C720  1  0.748400  0.016800  0.076100  1.0
  C  C721  1  0.816700  0.472800  0.554900  1.0
  C  C722  1  0.183300  0.972800  0.945100  1.0
  C  C723  1  0.183300  0.527200  0.445100  1.0
  C  C724  1  0.816700  0.027200  0.054900  1.0
  C  C725  1  0.885000  0.571200  0.594600  1.0
  C  C726  1  0.115000  0.071200  0.905400  1.0
  C  C727  1  0.115000  0.428800  0.405400  1.0
  C  C728  1  0.885000  0.928800  0.094600  1.0
  C  C729  1  0.824000  0.623500  0.583900  1.0
  C  C730  1  0.176000  0.123500  0.916100  1.0
  C  C731  1  0.176000  0.376500  0.416100  1.0
  C  C732  1  0.824000  0.876500  0.083900  1.0
  C  C733  1  0.919000  0.466600  0.619000  1.0
  C  C734  1  0.081000  0.966600  0.881000  1.0
  C  C735  1  0.081000  0.533400  0.381000  1.0
  C  C736  1  0.919000  0.033400  0.119000  1.0
  C  C737  1  0.879000  0.412300  0.631700  1.0
  C  C738  1  0.121000  0.912300  0.868300  1.0
  C  C739  1  0.121000  0.587700  0.368300  1.0
  C  C740  1  0.879000  0.087700  0.131700  1.0
  C  C741  1  0.299100  0.742600  0.684400  1.0
  C  C742  1  0.700900  0.242600  0.815600  1.0
  C  C743  1  0.700900  0.257400  0.315600  1.0
  C  C744  1  0.299100  0.757400  0.184400  1.0
  C  C745  1  0.214700  0.825400  0.669500  1.0
  C  C746  1  0.785300  0.325400  0.830500  1.0
  C  C747  1  0.785300  0.174600  0.330500  1.0
  C  C748  1  0.214700  0.674600  0.169500  1.0
  C  C749  1  0.340000  0.736700  0.661300  1.0
  C  C750  1  0.660000  0.236700  0.838700  1.0
  C  C751  1  0.660000  0.263300  0.338700  1.0
  C  C752  1  0.340000  0.763300  0.161300  1.0
  C  C753  1  0.255700  0.823300  0.647000  1.0
  C  C754  1  0.744300  0.323300  0.853000  1.0
  C  C755  1  0.744300  0.176700  0.353000  1.0
  C  C756  1  0.255700  0.676700  0.147000  1.0
  C  C757  1  0.316600  0.776500  0.641700  1.0
  C  C758  1  0.683400  0.276500  0.858300  1.0
  C  C759  1  0.683400  0.223500  0.358300  1.0
  C  C760  1  0.316600  0.723500  0.141700  1.0
  C  C761  1  0.361400  0.773600  0.617900  1.0
  C  C762  1  0.638600  0.273600  0.882100  1.0
  C  C763  1  0.638600  0.226400  0.382100  1.0
  C  C764  1  0.361400  0.726400  0.117900  1.0
  C  C765  1  0.400000  0.769000  0.597700  1.0
  C  C766  1  0.600000  0.269000  0.902300  1.0
  C  C767  1  0.600000  0.231000  0.402300  1.0
  C  C768  1  0.400000  0.731000  0.097700  1.0
  C  C769  1  0.544000  0.760700  0.534500  1.0
  C  C770  1  0.456000  0.260700  0.965500  1.0
  C  C771  1  0.456000  0.239300  0.465500  1.0
  C  C772  1  0.544000  0.739300  0.034500  1.0
  C  C773  1  0.580500  0.756400  0.513700  1.0
  C  C774  1  0.419500  0.256400  0.986300  1.0
  C  C775  1  0.419500  0.243600  0.486300  1.0
  C  C776  1  0.580500  0.743600  0.013700  1.0
  C  C777  1  0.625100  0.755700  0.490600  1.0
  C  C778  1  0.374900  0.255700  0.009400  1.0
  C  C779  1  0.374900  0.244300  0.509400  1.0
  C  C780  1  0.625100  0.744300  0.990600  1.0
  C  C781  1  0.587400  0.799800  0.469000  1.0
  C  C782  1  0.412600  0.299800  0.031000  1.0
  C  C783  1  0.412600  0.200200  0.531000  1.0
  C  C784  1  0.587400  0.700200  0.969000  1.0
  C  C785  1  0.691800  0.717300  0.485100  1.0
  C  C786  1  0.308200  0.217300  0.014900  1.0
  C  C787  1  0.308200  0.282700  0.514900  1.0
  C  C788  1  0.691800  0.782700  0.985100  1.0
  C  C789  1  0.365000  0.202500  0.555000  1.0
  C  C790  1  0.635000  0.702500  0.945000  1.0
  C  C791  1  0.635000  0.797500  0.445000  1.0
  C  C792  1  0.365000  0.297500  0.055000  1.0
  C  C793  1  0.268000  0.280300  0.539000  1.0
  C  C794  1  0.732000  0.780300  0.961000  1.0
  C  C795  1  0.732000  0.719700  0.461000  1.0
  C  C796  1  0.268000  0.219700  0.039000  1.0
  C  C797  1  0.379900  0.665700  0.519200  1.0
  C  C798  1  0.620100  0.165700  0.980800  1.0
  C  C799  1  0.620100  0.334300  0.480800  1.0
  C  C800  1  0.379900  0.834300  0.019200  1.0
  C  C801  1  0.317000  0.611600  0.511700  1.0
  C  C802  1  0.683000  0.111600  0.988300  1.0
  C  C803  1  0.683000  0.388400  0.488300  1.0
  C  C804  1  0.317000  0.888400  0.011700  1.0
  C  C805  1  0.411500  0.619700  0.572000  1.0
  C  C806  1  0.588500  0.119700  0.928000  1.0
  C  C807  1  0.588500  0.380300  0.428000  1.0
  C  C808  1  0.411500  0.880300  0.072000  1.0
  C  C809  1  0.521100  0.610300  0.572800  1.0
  C  C810  1  0.478900  0.110300  0.927200  1.0
  C  C811  1  0.478900  0.389700  0.427200  1.0
  C  C812  1  0.521100  0.889700  0.072800  1.0
  C  C813  1  0.250600  0.696500  0.558500  1.0
  C  C814  1  0.749400  0.196500  0.941500  1.0
  C  C815  1  0.749400  0.303500  0.441500  1.0
  C  C816  1  0.250600  0.803500  0.058500  1.0
  C  C817  1  0.209000  0.753300  0.545200  1.0
  C  C818  1  0.791000  0.253300  0.954800  1.0
  C  C819  1  0.791000  0.246700  0.454800  1.0
  C  C820  1  0.209000  0.746700  0.045200  1.0
  C  C821  1  0.627000  0.873000  0.613400  1.0
  C  C822  1  0.373000  0.373000  0.886600  1.0
  C  C823  1  0.373000  0.127000  0.386600  1.0
  C  C824  1  0.627000  0.627000  0.113400  1.0
  C  C825  1  0.616000  0.934000  0.626300  1.0
  C  C826  1  0.384000  0.434000  0.873700  1.0
  C  C827  1  0.384000  0.066000  0.373700  1.0
  C  C828  1  0.616000  0.566000  0.126300  1.0
  C  C829  1  0.652000  0.893000  0.561100  1.0
  C  C830  1  0.348000  0.393000  0.938900  1.0
  C  C831  1  0.348000  0.107000  0.438900  1.0
  C  C832  1  0.652000  0.607000  0.061100  1.0
  C  C833  1  0.690000  0.955000  0.568700  1.0
  C  C834  1  0.310000  0.455000  0.931300  1.0
  C  C835  1  0.310000  0.045000  0.431300  1.0
  C  C836  1  0.690000  0.545000  0.068700  1.0
  C  C837  1  0.468000  0.898500  0.577300  1.0
  C  C838  1  0.532000  0.398500  0.922700  1.0
  C  C839  1  0.532000  0.101500  0.422700  1.0
  C  C840  1  0.468000  0.601500  0.077300  1.0
  C  C841  1  0.471000  0.966500  0.579000  1.0
  C  C842  1  0.529000  0.466500  0.921000  1.0
  C  C843  1  0.529000  0.033500  0.421000  1.0
  C  C844  1  0.471000  0.533500  0.079000  1.0
  C  C845  1  0.425100  0.822100  0.726900  1.0
  C  C846  1  0.574900  0.322100  0.773100  1.0
  C  C847  1  0.574900  0.177900  0.273100  1.0
  C  C848  1  0.425100  0.677900  0.226900  1.0
  C  C849  1  0.460200  0.852700  0.706100  1.0
  C  C850  1  0.539800  0.352700  0.793900  1.0
  C  C851  1  0.539800  0.147300  0.293900  1.0
  C  C852  1  0.460200  0.647300  0.206100  1.0
  C  C853  1  0.464800  0.770000  0.734700  1.0
  C  C854  1  0.535200  0.270000  0.765300  1.0
  C  C855  1  0.535200  0.230000  0.265300  1.0
  C  C856  1  0.464800  0.730000  0.234700  1.0
  C  C857  1  0.539500  0.829900  0.693700  1.0
  C  C858  1  0.460500  0.329900  0.806300  1.0
  C  C859  1  0.460500  0.170100  0.306300  1.0
  C  C860  1  0.539500  0.670100  0.193700  1.0
  C  C861  1  0.543400  0.747000  0.722400  1.0
  C  C862  1  0.456600  0.247000  0.777600  1.0
  C  C863  1  0.456600  0.253000  0.277600  1.0
  C  C864  1  0.543400  0.753000  0.222400  1.0
  C  C865  1  0.579600  0.774600  0.703400  1.0
  C  C866  1  0.420400  0.274600  0.796600  1.0
  C  C867  1  0.420400  0.225400  0.296600  1.0
  C  C868  1  0.579600  0.725400  0.203400  1.0
  C  C869  1  0.296000  0.925700  0.728600  1.0
  C  C870  1  0.704000  0.425700  0.771400  1.0
  C  C871  1  0.704000  0.074300  0.271400  1.0
  C  C872  1  0.296000  0.574300  0.228600  1.0
  C  C873  1  0.367700  0.965000  0.734100  1.0
  C  C874  1  0.632300  0.465000  0.765900  1.0
  C  C875  1  0.632300  0.035000  0.265900  1.0
  C  C876  1  0.367700  0.535000  0.234100  1.0
  C  C877  1  0.211500  0.941700  0.713800  1.0
  C  C878  1  0.788500  0.441700  0.786200  1.0
  C  C879  1  0.788500  0.058300  0.286200  1.0
  C  C880  1  0.211500  0.558300  0.213800  1.0
  C  C881  1  0.357600  0.022600  0.725100  1.0
  C  C882  1  0.642400  0.522600  0.774900  1.0
  C  C883  1  0.642400  0.977400  0.274900  1.0
  C  C884  1  0.357600  0.477400  0.225100  1.0
  C  C885  1  0.198000  0.997400  0.704600  1.0
  C  C886  1  0.802000  0.497400  0.795400  1.0
  C  C887  1  0.802000  0.002600  0.295400  1.0
  C  C888  1  0.198000  0.502600  0.204600  1.0
  C  C889  1  0.270200  0.037400  0.709300  1.0
  C  C890  1  0.729800  0.537400  0.790700  1.0
  C  C891  1  0.729800  0.962600  0.290700  1.0
  C  C892  1  0.270200  0.462600  0.209300  1.0
  C  C893  1  0.051500  0.833900  0.774200  1.0
  C  C894  1  0.948500  0.333900  0.725800  1.0
  C  C895  1  0.948500  0.166100  0.225800  1.0
  C  C896  1  0.051500  0.666100  0.274200  1.0
  C  C897  1  0.993100  0.828800  0.794600  1.0
  C  C898  1  0.006900  0.328800  0.705400  1.0
  C  C899  1  0.006900  0.171200  0.205400  1.0
  C  C900  1  0.993100  0.671200  0.294600  1.0
  C  C901  1  0.046300  0.885900  0.759800  1.0
  C  C902  1  0.953700  0.385900  0.740200  1.0
  C  C903  1  0.953700  0.114100  0.240200  1.0
  C  C904  1  0.046300  0.614100  0.259800  1.0
  C  C905  1  0.935300  0.874800  0.801300  1.0
  C  C906  1  0.064700  0.374800  0.698700  1.0
  C  C907  1  0.064700  0.125200  0.198700  1.0
  C  C908  1  0.935300  0.625200  0.301300  1.0
  C  C909  1  0.989000  0.932600  0.766300  1.0
  C  C910  1  0.011000  0.432600  0.733700  1.0
  C  C911  1  0.011000  0.067400  0.233700  1.0
  C  C912  1  0.989000  0.567400  0.266300  1.0
  C  C913  1  0.937100  0.926800  0.787600  1.0
  C  C914  1  0.062900  0.426800  0.712400  1.0
  C  C915  1  0.062900  0.073200  0.212400  1.0
  C  C916  1  0.937100  0.573200  0.287600  1.0
  C  C917  1  0.051000  0.707200  0.765200  1.0
  C  C918  1  0.949000  0.207200  0.734800  1.0
  C  C919  1  0.949000  0.292800  0.234800  1.0
  C  C920  1  0.051000  0.792800  0.265200  1.0
  C  C921  1  0.090000  0.651400  0.770800  1.0
  C  C922  1  0.910000  0.151400  0.729200  1.0
  C  C923  1  0.910000  0.348600  0.229200  1.0
  C  C924  1  0.090000  0.848600  0.270800  1.0
  C  C925  1  0.956000  0.710100  0.756900  1.0
  C  C926  1  0.044000  0.210100  0.743100  1.0
  C  C927  1  0.044000  0.289900  0.243100  1.0
  C  C928  1  0.956000  0.789900  0.256900  1.0
  C  C929  1  0.045000  0.598000  0.769700  1.0
  C  C930  1  0.955000  0.098000  0.730300  1.0
  C  C931  1  0.955000  0.402000  0.230300  1.0
  C  C932  1  0.045000  0.902000  0.269700  1.0
  C  C933  1  0.899000  0.650800  0.756600  1.0
  C  C934  1  0.101000  0.150800  0.743400  1.0
  C  C935  1  0.101000  0.349200  0.243400  1.0
  C  C936  1  0.899000  0.849200  0.256600  1.0
  C  C937  1  0.953000  0.601400  0.763000  1.0
  C  C938  1  0.047000  0.101400  0.737000  1.0
  C  C939  1  0.047000  0.398600  0.237000  1.0
  C  C940  1  0.953000  0.898600  0.263000  1.0
  C  C941  1  0.285000  0.210800  0.659400  1.0
  C  C942  1  0.715000  0.710800  0.840600  1.0
  C  C943  1  0.715000  0.789200  0.340600  1.0
  C  C944  1  0.285000  0.289200  0.159400  1.0
  C  C945  1  0.356900  0.172900  0.652300  1.0
  C  C946  1  0.643100  0.672900  0.847700  1.0
  C  C947  1  0.643100  0.827100  0.347700  1.0
  C  C948  1  0.356900  0.327100  0.152300  1.0
  C  C949  1  0.275000  0.221000  0.685400  1.0
  C  C950  1  0.725000  0.721000  0.814600  1.0
  C  C951  1  0.725000  0.779000  0.314600  1.0
  C  C952  1  0.275000  0.279000  0.185400  1.0
  C  C953  1  0.423000  0.146400  0.668900  1.0
  C  C954  1  0.577000  0.646400  0.831100  1.0
  C  C955  1  0.577000  0.853600  0.331100  1.0
  C  C956  1  0.423000  0.353600  0.168900  1.0
  C  C957  1  0.354000  0.193600  0.702800  1.0
  C  C958  1  0.646000  0.693600  0.797200  1.0
  C  C959  1  0.646000  0.806400  0.297200  1.0
  C  C960  1  0.354000  0.306400  0.202800  1.0
  C  C961  1  0.428000  0.156700  0.696400  1.0
  C  C962  1  0.572000  0.656700  0.803600  1.0
  C  C963  1  0.572000  0.843300  0.303600  1.0
  C  C964  1  0.428000  0.343300  0.196400  1.0
  C  C965  1  0.209100  0.327300  0.644400  1.0
  C  C966  1  0.790900  0.827300  0.855600  1.0
  C  C967  1  0.790900  0.672700  0.355600  1.0
  C  C968  1  0.209100  0.172700  0.144400  1.0
  C  C969  1  0.147700  0.367100  0.633200  1.0
  C  C970  1  0.852300  0.867100  0.866800  1.0
  C  C971  1  0.852300  0.632900  0.366800  1.0
  C  C972  1  0.147700  0.132900  0.133200  1.0
  C  C973  1  0.284900  0.351400  0.661900  1.0
  C  C974  1  0.715100  0.851400  0.838100  1.0
  C  C975  1  0.715100  0.648600  0.338100  1.0
  C  C976  1  0.284900  0.148600  0.161900  1.0
  C  C977  1  0.159600  0.429000  0.639200  1.0
  C  C978  1  0.840400  0.929000  0.860800  1.0
  C  C979  1  0.840400  0.571000  0.360800  1.0
  C  C980  1  0.159600  0.071000  0.139200  1.0
  C  C981  1  0.300900  0.407000  0.668200  1.0
  C  C982  1  0.699100  0.907000  0.831800  1.0
  C  C983  1  0.699100  0.593000  0.331800  1.0
  C  C984  1  0.300900  0.093000  0.168200  1.0
  C  C985  1  0.233800  0.449600  0.656200  1.0
  C  C986  1  0.766200  0.949600  0.843800  1.0
  C  C987  1  0.766200  0.550400  0.343800  1.0
  C  C988  1  0.233800  0.050400  0.156200  1.0
  C  C989  1  0.025300  0.221900  0.558800  1.0
  C  C990  1  0.974700  0.721900  0.941200  1.0
  C  C991  1  0.974700  0.778100  0.441200  1.0
  C  C992  1  0.025300  0.278100  0.058800  1.0
  C  C993  1  0.950100  0.193500  0.543800  1.0
  C  C994  1  0.049900  0.693500  0.956200  1.0
  C  C995  1  0.049900  0.806500  0.456200  1.0
  C  C996  1  0.950100  0.306500  0.043800  1.0
  C  C997  1  0.026300  0.283100  0.560600  1.0
  C  C998  1  0.973700  0.783100  0.939400  1.0
  C  C999  1  0.973700  0.716900  0.439400  1.0
  C  C1000  1  0.026300  0.216900  0.060600  1.0
  C  C1001  1  0.877600  0.226600  0.529800  1.0
  C  C1002  1  0.122400  0.726600  0.970200  1.0
  C  C1003  1  0.122400  0.773400  0.470200  1.0
  C  C1004  1  0.877600  0.273400  0.029800  1.0
  C  C1005  1  0.948600  0.315800  0.548700  1.0
  C  C1006  1  0.051400  0.815800  0.951300  1.0
  C  C1007  1  0.051400  0.684200  0.451300  1.0
  C  C1008  1  0.948600  0.184200  0.048700  1.0
  C  C1009  1  0.877000  0.287600  0.532200  1.0
  C  C1010  1  0.123000  0.787600  0.967800  1.0
  C  C1011  1  0.123000  0.712400  0.467800  1.0
  C  C1012  1  0.877000  0.212400  0.032200  1.0
  C  C1013  1  0.163600  0.134400  0.549600  1.0
  C  C1014  1  0.836400  0.634400  0.950400  1.0
  C  C1015  1  0.836400  0.865600  0.450400  1.0
  C  C1016  1  0.163600  0.365600  0.049600  1.0
  C  C1017  1  0.217500  0.084400  0.556500  1.0
  C  C1018  1  0.782500  0.584400  0.943500  1.0
  C  C1019  1  0.782500  0.915600  0.443500  1.0
  C  C1020  1  0.217500  0.415600  0.056500  1.0
  C  C1021  1  0.152300  0.151700  0.523200  1.0
  C  C1022  1  0.847700  0.651700  0.976800  1.0
  C  C1023  1  0.847700  0.848300  0.476800  1.0
  C  C1024  1  0.152300  0.348300  0.023200  1.0
  C  C1025  1  0.260000  0.051900  0.537800  1.0
  C  C1026  1  0.740000  0.551900  0.962200  1.0
  C  C1027  1  0.740000  0.948100  0.462200  1.0
  C  C1028  1  0.260000  0.448100  0.037800  1.0
  C  C1029  1  0.191000  0.116900  0.504900  1.0
  C  C1030  1  0.809000  0.616900  0.995100  1.0
  C  C1031  1  0.809000  0.883100  0.495100  1.0
  C  C1032  1  0.191000  0.383100  0.004900  1.0
  C  C1033  1  0.250000  0.069400  0.511900  1.0
  C  C1034  1  0.750000  0.569400  0.988100  1.0
  C  C1035  1  0.750000  0.930600  0.488100  1.0
  C  C1036  1  0.250000  0.430600  0.011900  1.0
  C  C1037  1  0.213300  0.757800  0.792800  1.0
  C  C1038  1  0.786700  0.257800  0.707200  1.0
  C  C1039  1  0.786700  0.242200  0.207200  1.0
  C  C1040  1  0.213300  0.742200  0.292800  1.0
  C  C1041  1  0.208100  0.777100  0.819500  1.0
  C  C1042  1  0.791900  0.277100  0.680500  1.0
  C  C1043  1  0.791900  0.222900  0.180500  1.0
  C  C1044  1  0.208100  0.722900  0.319500  1.0
  C  C1045  1  0.291900  0.756900  0.833900  1.0
  C  C1046  1  0.708100  0.256900  0.666100  1.0
  C  C1047  1  0.708100  0.243100  0.166100  1.0
  C  C1048  1  0.291900  0.743100  0.333900  1.0
  C  C1049  1  0.344800  0.722100  0.818500  1.0
  C  C1050  1  0.655200  0.222100  0.681500  1.0
  C  C1051  1  0.655200  0.277900  0.181500  1.0
  C  C1052  1  0.344800  0.777900  0.318500  1.0
  C  C1053  1  0.303100  0.723100  0.793400  1.0
  C  C1054  1  0.696900  0.223100  0.706600  1.0
  C  C1055  1  0.696900  0.276900  0.206600  1.0
  C  C1056  1  0.303100  0.776900  0.293400  1.0
  C  C1057  1  0.357000  0.859100  0.773900  1.0
  C  C1058  1  0.643000  0.359100  0.726100  1.0
  C  C1059  1  0.643000  0.140900  0.226100  1.0
  C  C1060  1  0.357000  0.640900  0.273900  1.0
  C  C1061  1  0.440200  0.845600  0.789700  1.0
  C  C1062  1  0.559800  0.345600  0.710300  1.0
  C  C1063  1  0.559800  0.154400  0.210300  1.0
  C  C1064  1  0.440200  0.654400  0.289700  1.0
  C  C1065  1  0.444600  0.864100  0.814400  1.0
  C  C1066  1  0.555400  0.364100  0.685600  1.0
  C  C1067  1  0.555400  0.135900  0.185600  1.0
  C  C1068  1  0.444600  0.635900  0.314400  1.0
  C  C1069  1  0.358000  0.894800  0.816000  1.0
  C  C1070  1  0.642000  0.394800  0.684000  1.0
  C  C1071  1  0.642000  0.105200  0.184000  1.0
  C  C1072  1  0.358000  0.605200  0.316000  1.0
  C  C1073  1  0.300100  0.892400  0.791400  1.0
  C  C1074  1  0.699900  0.392400  0.708600  1.0
  C  C1075  1  0.699900  0.107600  0.208600  1.0
  C  C1076  1  0.300100  0.607600  0.291400  1.0
  C  C1077  1  0.072500  0.125900  0.595800  1.0
  C  C1078  1  0.927500  0.625900  0.904200  1.0
  C  C1079  1  0.927500  0.874100  0.404200  1.0
  C  C1080  1  0.072500  0.374100  0.095800  1.0
  C  C1081  1  0.975200  0.107700  0.596400  1.0
  C  C1082  1  0.024800  0.607700  0.903600  1.0
  C  C1083  1  0.024800  0.892300  0.403600  1.0
  C  C1084  1  0.975200  0.392300  0.096400  1.0
  C  C1085  1  0.971000  0.068600  0.616700  1.0
  C  C1086  1  0.029000  0.568600  0.883300  1.0
  C  C1087  1  0.029000  0.931400  0.383300  1.0
  C  C1088  1  0.971000  0.431400  0.116700  1.0
  C  C1089  1  0.069400  0.058100  0.630300  1.0
  C  C1090  1  0.930600  0.558100  0.869700  1.0
  C  C1091  1  0.930600  0.941900  0.369700  1.0
  C  C1092  1  0.069400  0.441900  0.130300  1.0
  C  C1093  1  0.127200  0.097000  0.618100  1.0
  C  C1094  1  0.872800  0.597000  0.881900  1.0
  C  C1095  1  0.872800  0.903000  0.381900  1.0
  C  C1096  1  0.127200  0.403000  0.118100  1.0
  C  C1097  1  0.084600  0.226800  0.643700  1.0
  C  C1098  1  0.915400  0.726800  0.856300  1.0
  C  C1099  1  0.915400  0.773200  0.356300  1.0
  C  C1100  1  0.084600  0.273200  0.143700  1.0
  C  C1101  1  0.053600  0.192400  0.664300  1.0
  C  C1102  1  0.946400  0.692400  0.835700  1.0
  C  C1103  1  0.946400  0.807600  0.335700  1.0
  C  C1104  1  0.053600  0.307600  0.164300  1.0
  C  C1105  1  0.961500  0.180900  0.661600  1.0
  C  C1106  1  0.038500  0.680900  0.838400  1.0
  C  C1107  1  0.038500  0.819100  0.338400  1.0
  C  C1108  1  0.961500  0.319100  0.161600  1.0
  C  C1109  1  0.915900  0.210100  0.640100  1.0
  C  C1110  1  0.084100  0.710100  0.859900  1.0
  C  C1111  1  0.084100  0.789900  0.359900  1.0
  C  C1112  1  0.915900  0.289900  0.140100  1.0
  C  C1113  1  0.991600  0.241800  0.626800  1.0
  C  C1114  1  0.008400  0.741800  0.873200  1.0
  C  C1115  1  0.008400  0.758200  0.373200  1.0
  C  C1116  1  0.991600  0.258200  0.126800  1.0
  S  S1117  1  0.377100  0.611800  0.732230  1
  S  S1118  1  0.622900  0.111800  0.767770  1
  S  S1119  1  0.622900  0.388200  0.267770  1
  S  S1120  1  0.377100  0.888200  0.232230  1
  S  S1121  1  0.144400  0.468200  0.563160  1
  S  S1122  1  0.855600  0.968200  0.936840  1
  S  S1123  1  0.855600  0.531800  0.436840  1
  S  S1124  1  0.144400  0.031800  0.063160  1
  S  S1125  1  0.940500  0.939300  0.680000  1
  S  S1126  1  0.059500  0.439300  0.820000  1
  S  S1127  1  0.059500  0.060700  0.320000  1
  S  S1128  1  0.940500  0.560700  0.180000  1
  S  S1129  1  0.663700  0.184400  0.588300  1
  S  S1130  1  0.336300  0.684400  0.911700  1
  S  S1131  1  0.336300  0.815600  0.411700  1
  S  S1132  1  0.663700  0.315600  0.088300  1
  N  N1133  1  0.076100  0.734000  0.705500  1.0
  N  N1134  1  0.923900  0.234000  0.794500  1.0
  N  N1135  1  0.923900  0.266000  0.294500  1.0
  N  N1136  1  0.076100  0.766000  0.205500  1.0
  N  N1137  1  0.351800  0.305300  0.603100  1.0
  N  N1138  1  0.648200  0.805300  0.896900  1.0
  N  N1139  1  0.648200  0.694700  0.396900  1.0
  N  N1140  1  0.351800  0.194700  0.103100  1.0
  N  N1141  1  0.240100  0.787900  0.688200  1.0
  N  N1142  1  0.759900  0.287900  0.811800  1.0
  N  N1143  1  0.759900  0.212100  0.311800  1.0
  N  N1144  1  0.240100  0.712100  0.188200  1.0
  N  N1145  1  0.296400  0.242300  0.557600  1.0
  N  N1146  1  0.703600  0.742300  0.942400  1.0
  N  N1147  1  0.703600  0.757700  0.442400  1.0
  N  N1148  1  0.296400  0.257700  0.057600  1.0
  Cl  Cl1149  1  0.691100  0.860600  0.763420  1
  Cl  Cl1150  1  0.308900  0.360600  0.736580  1
  Cl  Cl1151  1  0.308900  0.139400  0.236580  1
  Cl  Cl1152  1  0.691100  0.639400  0.263420  1
  Cl  Cl1153  1  0.802400  0.816500  0.724200  1
  Cl  Cl1154  1  0.197600  0.316500  0.775800  1
  Cl  Cl1155  1  0.197600  0.183500  0.275800  1
  Cl  Cl1156  1  0.802400  0.683500  0.224200  1
  Cl  Cl1157  1  0.632300  0.567500  0.507100  1
  Cl  Cl1158  1  0.367700  0.067500  0.992900  1
  Cl  Cl1159  1  0.367700  0.432500  0.492900  1
  Cl  Cl1160  1  0.632300  0.932500  0.007100  1
  Cl  Cl1161  1  0.503000  0.537300  0.458800  1
  Cl  Cl1162  1  0.497000  0.037300  0.041200  1
  Cl  Cl1163  1  0.497000  0.462700  0.541200  1
  Cl  Cl1164  1  0.503000  0.962700  0.958800  1
  Cl  Cl1165  1  0.160000  0.592500  0.644700  1
  Cl  Cl1166  1  0.840000  0.092500  0.855300  1
  Cl  Cl1167  1  0.840000  0.407500  0.355300  1
  Cl  Cl1168  1  0.160000  0.907500  0.144700  1
  Cl  Cl1169  1  0.080900  0.704800  0.611800  1
  Cl  Cl1170  1  0.919100  0.204800  0.888200  1
  Cl  Cl1171  1  0.919100  0.295200  0.388200  1
  Cl  Cl1172  1  0.080900  0.795200  0.111800  1
  O  O1173  1  0.456500  0.608500  0.751200  1
  O  O1174  1  0.543500  0.108500  0.748800  1
  O  O1175  1  0.543500  0.391500  0.248800  1
  O  O1176  1  0.456500  0.891500  0.251200  1
  O  O1177  1  0.303500  0.651300  0.738300  1
  O  O1178  1  0.696500  0.151300  0.761700  1
  O  O1179  1  0.696500  0.348700  0.261700  1
  O  O1180  1  0.303500  0.848700  0.238300  1
  O  O1181  1  0.403600  0.621200  0.705900  1
  O  O1182  1  0.596400  0.121200  0.794100  1
  O  O1183  1  0.596400  0.378800  0.294100  1
  O  O1184  1  0.403600  0.878800  0.205900  1
  O  O1185  1  0.077000  0.484000  0.580400  1
  O  O1186  1  0.923000  0.984000  0.919600  1
  O  O1187  1  0.923000  0.516000  0.419600  1
  O  O1188  1  0.077000  0.016000  0.080400  1
  O  O1189  1  0.237600  0.491800  0.568800  1
  O  O1190  1  0.762400  0.991800  0.931200  1
  O  O1191  1  0.762400  0.508200  0.431200  1
  O  O1192  1  0.237600  0.008200  0.068800  1
  O  O1193  1  0.143000  0.406600  0.556700  1
  O  O1194  1  0.857000  0.906600  0.943300  1
  O  O1195  1  0.857000  0.593400  0.443300  1
  O  O1196  1  0.143000  0.093400  0.056700  1
  O  O1197  1  0.003500  0.900500  0.694900  1
  O  O1198  1  0.996500  0.400500  0.805100  1
  O  O1199  1  0.996500  0.099500  0.305100  1
  O  O1200  1  0.003500  0.599500  0.194900  1
  O  O1201  1  0.964600  0.999100  0.678200  1
  O  O1202  1  0.035400  0.499100  0.821800  1
  O  O1203  1  0.035400  0.000900  0.321800  1
  O  O1204  1  0.964600  0.500900  0.178200  1
  O  O1205  1  0.844400  0.936200  0.691500  1
  O  O1206  1  0.155600  0.436200  0.808500  1
  O  O1207  1  0.155600  0.063800  0.308500  1
  O  O1208  1  0.844400  0.563800  0.191500  1
  O  O1209  1  0.739000  0.142000  0.589500  1
  O  O1210  1  0.261000  0.642000  0.910500  1
  O  O1211  1  0.261000  0.858000  0.410500  1
  O  O1212  1  0.739000  0.358000  0.089500  1
  O  O1213  1  0.576000  0.162700  0.574500  1
  O  O1214  1  0.424000  0.662700  0.925500  1
  O  O1215  1  0.424000  0.837300  0.425500  1
  O  O1216  1  0.576000  0.337300  0.074500  1
  O  O1217  1  0.647000  0.201800  0.615100  1
  O  O1218  1  0.353000  0.701800  0.884900  1
  O  O1219  1  0.353000  0.798200  0.384900  1
  O  O1220  1  0.647000  0.298200  0.115100  1
  O  O1221  1  0.581400  0.991900  0.689500  1
  O  O1222  1  0.418600  0.491900  0.810500  1
  O  O1223  1  0.418600  0.008100  0.310500  1
  O  O1224  1  0.581400  0.508100  0.189500  1
  O  O1225  1  0.367600  0.848900  0.495500  1
  O  O1226  1  0.632400  0.348900  0.004500  1
  O  O1227  1  0.632400  0.151100  0.504500  1
  O  O1228  1  0.367600  0.651100  0.995500  1
  O  O1229  1  0.557000  0.115700  0.603400  1
  O  O1230  1  0.443000  0.615700  0.896600  1
  O  O1231  1  0.443000  0.884300  0.396600  1
  O  O1232  1  0.557000  0.384300  0.103400  1
  O  O1233  1  0.294000  0.590700  0.817900  1
  O  O1234  1  0.706000  0.090700  0.682100  1
  O  O1235  1  0.706000  0.409300  0.182100  1
  O  O1236  1  0.294000  0.909300  0.317900  1
  O  O1237  1  0.327500  0.985900  0.650800  1
  O  O1238  1  0.672500  0.485900  0.849200  1
  O  O1239  1  0.672500  0.014100  0.349200  1
  O  O1240  1  0.327500  0.514100  0.150800  1
  O  O1241  1  0.429000  0.958900  0.487300  1
  O  O1242  1  0.571000  0.458900  0.012700  1
  O  O1243  1  0.571000  0.041100  0.512700  1
  O  O1244  1  0.429000  0.541100  0.987300  1
  O  O1245  1  0.898000  0.731600  0.532600  1
  O  O1246  1  0.102000  0.231600  0.967400  1
  O  O1247  1  0.102000  0.268400  0.467400  1
  O  O1248  1  0.898000  0.768400  0.032600  1
  O  O1249  1  0.156000  0.426000  0.518200  1
  O  O1250  1  0.844000  0.926000  0.981800  1
  O  O1251  1  0.844000  0.574000  0.481800  1
  O  O1252  1  0.156000  0.074000  0.018200  1
  O  O1253  1  0.162000  0.923000  0.584900  1
  O  O1254  1  0.838000  0.423000  0.915100  1
  O  O1255  1  0.838000  0.077000  0.415100  1
  O  O1256  1  0.162000  0.577000  0.084900  1
  O  O1257  1  0.721000  0.783000  0.599800  1
  O  O1258  1  0.279000  0.283000  0.900200  1
  O  O1259  1  0.279000  0.217000  0.400200  1
  O  O1260  1  0.721000  0.717000  0.099800  1
  O  O1261  1  0.901000  0.041000  0.536600  1
  O  O1262  1  0.099000  0.541000  0.963400  1
  O  O1263  1  0.099000  0.959000  0.463400  1
  O  O1264  1  0.901000  0.459000  0.036600  1
  O  O1265  1  0.270000  0.952300  0.602600  1
  O  O1266  1  0.730000  0.452300  0.897400  1
  O  O1267  1  0.730000  0.047700  0.397400  1
  O  O1268  1  0.270000  0.547700  0.102600  1
  F  F1269  1  0.388600  0.497300  0.725400  1
  F  F1270  1  0.611400  0.997300  0.774600  1
  F  F1271  1  0.611400  0.502700  0.274600  1
  F  F1272  1  0.388600  0.002700  0.225400  1
  F  F1273  1  0.289100  0.526300  0.752600  1
  F  F1274  1  0.710900  0.026300  0.747400  1
  F  F1275  1  0.710900  0.473700  0.247400  1
  F  F1276  1  0.289100  0.973700  0.252600  1
  F  F1277  1  0.250800  0.537300  0.710500  1
  F  F1278  1  0.749200  0.037300  0.789500  1
  F  F1279  1  0.749200  0.462700  0.289500  1
  F  F1280  1  0.250800  0.962700  0.210500  1
  F  F1281  1  0.013600  0.463000  0.522200  1
  F  F1282  1  0.986400  0.963000  0.977800  1
  F  F1283  1  0.986400  0.537000  0.477800  1
  F  F1284  1  0.013600  0.037000  0.022200  1
  F  F1285  1  0.050000  0.549000  0.540300  1
  F  F1286  1  0.950000  0.049000  0.959700  1
  F  F1287  1  0.950000  0.451000  0.459700  1
  F  F1288  1  0.050000  0.951000  0.040300  1
  F  F1289  1  0.147200  0.508900  0.515200  1
  F  F1290  1  0.852800  0.008900  0.984800  1
  F  F1291  1  0.852800  0.491100  0.484800  1
  F  F1292  1  0.147200  0.991100  0.015200  1
  F  F1293  1  0.994000  0.898000  0.636600  1
  F  F1294  1  0.006000  0.398000  0.863400  1
  F  F1295  1  0.006000  0.102000  0.363400  1
  F  F1296  1  0.994000  0.602000  0.136600  1
  F  F1297  1  0.869000  0.853500  0.650500  1
  F  F1298  1  0.131000  0.353500  0.849500  1
  F  F1299  1  0.131000  0.146500  0.349500  1
  F  F1300  1  0.869000  0.646500  0.150500  1
  F  F1301  1  0.851000  0.940500  0.632400  1
  F  F1302  1  0.149000  0.440500  0.867600  1
  F  F1303  1  0.149000  0.059500  0.367600  1
  F  F1304  1  0.851000  0.559500  0.132400  1
  F  F1305  1  0.629000  0.279200  0.558900  1
  F  F1306  1  0.371000  0.779200  0.941100  1
  F  F1307  1  0.371000  0.720800  0.441100  1
  F  F1308  1  0.629000  0.220800  0.058900  1
  F  F1309  1  0.743200  0.288300  0.591700  1
  F  F1310  1  0.256800  0.788300  0.908300  1
  F  F1311  1  0.256800  0.711700  0.408300  1
  F  F1312  1  0.743200  0.211700  0.091700  1
  F  F1313  1  0.769000  0.236900  0.556800  1
  F  F1314  1  0.231000  0.736900  0.943200  1
  F  F1315  1  0.231000  0.763100  0.443200  1
  F  F1316  1  0.769000  0.263100  0.056800  1
