
#######################################################################
#
#                 Cambridge Crystallographic Data Centre
#                                CCDC 
#
#######################################################################
#
# If this CIF has been generated from an entry in the Cambridge 
# Structural Database, then it will include bibliographic, chemical, 
# crystal, experimental, refinement or atomic coordinate data resulting 
# from the CCDC's data processing and validation procedures.
#
#######################################################################

data_AQOVOS
_chemical_formula_moiety         
'C240 H264 Fe4 N8 P16 Pd4 Pt4 8+,8(C1 F3 O3 S1 1-),2.26(C4 H10 O1),3.72(H2 O1)'
_chemical_name_systematic        
"octakis(\m~2~-Pyridin-4-ylethynyl-C,N)-octakis(triethylphosphine)-tetrakis(1,1'-bis(diphenylphosphino)ferrocene-P,P')-tetra-palladium(ii)-tetra-platinum(ii) octakis(trifluoromethanesulfonate) diethyl ether solvate hydrate"
_symmetry_cell_setting           triclinic
_symmetry_space_group_name_H-M   'P -1'
_symmetry_Int_Tables_number      2
_space_group_name_Hall           '-P 1'
loop_
_symmetry_equiv_pos_site_id
_symmetry_equiv_pos_as_xyz
1 x,y,z
2 -x,-y,-z
_cell_length_a                   13.682(3)
_cell_length_b                   20.077(4)
_cell_length_c                   26.280(5)
_cell_angle_alpha                94.76(3)
_cell_angle_beta                 93.90(3)
_cell_angle_gamma                94.29(3)
_cell_volume                     7153.85
_exptl_crystal_colour            colorless
_exptl_crystal_description       needle
_cell_formula_units_Z            1
_exptl_crystal_recrystallization_method 'acetone/diethyl ether'
loop_
_atom_site_label
_atom_site_type_symbol
_atom_site_fract_x
_atom_site_fract_y
_atom_site_fract_z
Pt1 Pt 0.27172(4) 0.98810(3) 0.71721(2)
Pt2 Pt -0.45504(5) 0.75039(3) 0.83781(2)
Pd1 Pd 0.74352(6) 1.33803(4) 0.85507(3)
Pd2 Pd -0.21987(7) 0.72904(4) 0.50514(3)
Fe1 Fe 1.01345(12) 1.43363(9) 0.81748(7)
Fe2 Fe -0.31857(16) 0.67843(10) 0.34748(8)
P1 P 0.8414(2) 1.42280(16) 0.90269(12)
P2 P 0.7977(2) 1.35439(16) 0.77536(12)
P3 P -0.1383(2) 0.74514(16) 0.43343(13)
P4 P -0.3647(3) 0.67466(17) 0.46963(14)
P5 P 0.1488(3) 1.0191(2) 0.76746(17)
P6 P 0.3944(3) 0.9611(2) 0.66482(16)
P7 P -0.3027(3) 0.7976(2) 0.86991(16)
P8 P -0.6097(4) 0.7141(3) 0.80223(17)
N1 N -0.2794(8) 0.7289(5) 0.5760(4)
N2 N 0.6803(7) 1.3161(6) 0.9225(4)
N3 N 0.6418(7) 1.2620(5) 0.8219(4)
N4 N -0.0958(8) 0.7758(5) 0.5480(4)
C1 C -0.2555(10) 0.6847(6) 0.6098(5)
H1 H -0.2168 0.6494 0.5992
C2 C -0.3311(10) 0.7786(7) 0.5914(6)
H2 H -0.3471 0.8110 0.5685
C3 C -0.3636(11) 0.7846(7) 0.6422(5)
H3 H -0.4011 0.8207 0.6522
C4 C -0.2842(11) 0.6882(7) 0.6587(6)
H4 H -0.2651 0.6557 0.6809
C5 C -0.3416(11) 0.7392(7) 0.6768(5)
C6 C -0.3748(13) 0.7432(7) 0.7256(6)
C7 C -0.4057(13) 0.7479(7) 0.7700(6)
C8 C 0.6724(10) 1.2494(7) 0.9943(5)
H5 H 0.6989 1.2161 1.0137
C9 C 0.5527(11) 1.3255(10) 0.9796(6)
H6 H 0.4963 1.3470 0.9889
C10 C 0.5893(11) 1.2776(9) 1.0085(6)
C11 C 0.7184(10) 1.2693(7) 0.9515(5)
H7 H 0.7769 1.2501 0.9424
C12 C 0.5992(10) 1.3420(8) 0.9367(6)
H8 H 0.5714 1.3736 0.9163
C13 C -0.5078(11) 0.7484(8) 0.9074(6)
C14 C 0.5459(9) 1.2753(6) 0.8150(5)
H9 H 0.5283 1.3200 0.8212
C15 C 0.6656(9) 1.2007(8) 0.8110(5)
H10 H 0.7330 1.1922 0.8150
C16 C 0.4738(9) 1.2244(7) 0.7992(5)
H11 H 0.4069 1.2342 0.7967
C17 C 0.4968(9) 1.1605(7) 0.7871(5)
C18 C 0.4232(10) 1.1076(7) 0.7700(5)
C19 C 0.3649(10) 1.0602(7) 0.7521(5)
C20 C 0.1769(11) 0.9192(7) 0.6786(6)
C21 C 0.1218(10) 0.8816(7) 0.6500(6)
C22 C 0.0494(11) 0.8456(7) 0.6152(5)
C23 C -0.0304(11) 0.8769(7) 0.5960(5)
H12 H -0.0373 0.9227 0.6061
C24 C -0.0221(10) 0.7439(7) 0.5661(5)
H13 H -0.0197 0.6975 0.5561
C25 C -0.0994(10) 0.8408(7) 0.5619(5)
H14 H -0.1521 0.8633 0.5477
C26 C 0.0511(10) 0.7769(7) 0.5991(5)
H15 H 0.1040 0.7530 0.6113
C27 C 0.5967(9) 1.1469(7) 0.7938(5)
H16 H 0.6164 1.1028 0.7870
C28 C 0.5436(11) 1.2601(9) 1.0542(6)
C29 C 0.7748(9) 1.4934(7) 0.9254(5)
C30 C 0.6755(9) 1.4980(8) 0.9078(6)
H17 H 0.6409 1.4625 0.8862
C31 C 0.8217(9) 1.5447(6) 0.9565(5)
H18 H 0.8888 1.5428 0.9679
C32 C 0.6300(11) 1.5541(9) 0.9222(7)
H19 H 0.5640 1.5576 0.9097
C33 C 0.7723(11) 1.6008(8) 0.9722(6)
H20 H 0.8045 1.6359 0.9952
C34 C 0.6765(12) 1.6042(8) 0.9538(6)
H21 H 0.6429 1.6425 0.9635
C35 C 0.9589(10) 1.3393(7) 0.9517(6)
H22 H 0.9823 1.3307 0.9187
C36 C 0.8928(9) 1.3869(6) 0.9582(5)
C37 C 0.9934(11) 1.3031(8) 0.9912(7)
H23 H 1.0389 1.2705 0.9846
C38 C 0.9621(16) 1.3139(10) 1.0403(8)
H24 H 0.9847 1.2891 1.0674
C39 C 0.8962(15) 1.3626(10) 1.0480(6)
H25 H 0.8751 1.3718 1.0814
C40 C 0.8583(11) 1.4000(7) 1.0071(5)
H26 H 0.8120 1.4322 1.0130
C41 C 0.7425(9) 1.4231(6) 0.7499(5)
C42 C 0.6675(9) 1.4506(7) 0.7742(5)
H27 H 0.6464 1.4325 0.8042
C43 C 0.6212(11) 1.5046(8) 0.7559(6)
H28 H 0.5707 1.5237 0.7739
C44 C 0.7684(14) 1.4486(8) 0.7038(6)
H29 H 0.8182 1.4293 0.6854
C45 C 0.7221(14) 1.5015(9) 0.6848(6)
H30 H 0.7402 1.5181 0.6537
C46 C 0.6501(11) 1.5298(7) 0.7112(7)
H31 H 0.6198 1.5669 0.6988
C47 C 0.7608(10) 1.2844(6) 0.7281(5)
C48 C 0.8214(10) 1.2349(7) 0.7201(5)
H32 H 0.8839 1.2372 0.7385
C49 C 0.6686(10) 1.2800(7) 0.7023(5)
H33 H 0.6255 1.3144 0.7081
C50 C 0.7917(12) 1.1809(7) 0.6849(6)
H34 H 0.8352 1.1469 0.6787
C51 C 0.7005(13) 1.1754(7) 0.6586(6)
H35 H 0.6818 1.1378 0.6347
C52 C 0.6387(12) 1.2225(8) 0.6665(5)
H36 H 0.5754 1.2184 0.6488
C53 C -0.0499(9) 0.6852(6) 0.4226(4)
C54 C -0.0527(12) 0.6276(6) 0.4472(6)
H37 H -0.1035 0.6188 0.4692
C55 C 0.0270(9) 0.6987(7) 0.3915(5)
H38 H 0.0300 0.7387 0.3746
C56 C 0.0989(12) 0.6540(7) 0.3853(6)
H39 H 0.1520 0.6638 0.3650
C57 C 0.0168(14) 0.5825(9) 0.4406(7)
H40 H 0.0131 0.5426 0.4576
C58 C 0.0925(14) 0.5948(8) 0.4092(7)
H41 H 0.1396 0.5629 0.4040
C59 C -0.0666(9) 0.8258(6) 0.4416(5)
C60 C -0.1089(11) 0.8823(6) 0.4280(7)
H42 H -0.1750 0.8786 0.4137
C61 C 0.0312(9) 0.8324(7) 0.4625(5)
H43 H 0.0620 0.7936 0.4714
C62 C -0.0562(14) 0.9455(8) 0.4350(10)
H44 H -0.0856 0.9843 0.4251
C63 C 0.0828(13) 0.8943(8) 0.4704(6)
H45 H 0.1483 0.8985 0.4855
C64 C -0.3980(11) 0.6083(8) 0.5105(6)
C65 C -0.4565(12) 0.6183(8) 0.5504(6)
H46 H -0.4842 0.6599 0.5566
C66 C -0.3525(14) 0.5488(9) 0.5023(7)
H47 H -0.3102 0.5426 0.4754
C67 C -0.3715(17) 0.4982(10) 0.5353(8)
H48 H -0.3415 0.4573 0.5304
C68 C -0.4752(17) 0.5657(13) 0.5825(7)
H49 H -0.5172 0.5710 0.6097
C69 C -0.4629(10) 0.7294(7) 0.4702(5)
C70 C -0.4486(12) 0.7981(7) 0.4757(5)
H50 H -0.3828 0.8176 0.4791
C71 C -0.5639(12) 0.7030(9) 0.4660(6)
H51 H -0.5796 0.6558 0.4626
C72 C -0.5238(12) 0.8415(9) 0.4767(6)
H52 H -0.5101 0.8888 0.4804
C73 C -0.6378(13) 0.7455(11) 0.4669(6)
H53 H -0.7045 0.7277 0.4639
C74 C -0.6162(13) 0.8133(10) 0.4723(6)
H54 H -0.6688 0.8417 0.4728
C75 C -0.4307(18) 0.5065(11) 0.5733(9)
H55 H -0.4425 0.4710 0.5945
C76 C 0.0389(15) 0.9501(9) 0.4564(8)
H56 H 0.0749 0.9927 0.4617
C77 C 0.5161(11) 0.9647(12) 0.6958(7)
H57 H 0.5708 0.9838 0.6800
C78 C 0.5295(15) 0.9385(10) 0.7446(8)
H58 H 0.5994 0.9442 0.7565
H59 H 0.5071 0.8907 0.7413
H60 H 0.4914 0.9627 0.7692
C79 C 0.3760(13) 0.8905(8) 0.6173(6)
H61 H 0.3152 0.8950 0.5956
H62 H 0.4314 0.8920 0.5949
C80 C 0.3683(19) 0.8256(13) 0.6378(11)
H63 H 0.3585 0.7901 0.6095
H64 H 0.3123 0.8228 0.6591
H65 H 0.4288 0.8199 0.6585
C81 C 0.0663(16) 0.9466(11) 0.7790(10)
H66 H 0.0700 0.9047 0.7599
C82 C -0.007(2) 0.9536(14) 0.8185(11)
H67 H -0.0451 0.9106 0.8195
H68 H -0.0509 0.9878 0.8097
H69 H 0.0278 0.9669 0.8521
C83 C 0.1846(16) 1.0621(13) 0.8302(7)
H70 H 0.2223 1.1051 0.8260
H71 H 0.1248 1.0725 0.8475
C84 C 0.241(2) 1.0247(13) 0.8606(11)
H72 H 0.2586 1.0499 0.8940
H73 H 0.3011 1.0151 0.8440
H74 H 0.2036 0.9824 0.8656
C85 C 0.063(2) 1.0708(18) 0.7372(13)
H75 H -0.0060 1.0585 0.7346
C86 C 0.0992(15) 1.1271(10) 0.7185(8)
H76 H 0.0450 1.1514 0.7049
H77 H 0.1414 1.1154 0.6910
H78 H 0.1378 1.1556 0.7459
C87 C -0.2736(13) 0.7994(9) 0.9384(5)
H79 H -0.3277 0.8189 0.9563
H80 H -0.2706 0.7528 0.9476
C88 C -0.1720(16) 0.8415(11) 0.9587(9)
H81 H -0.1617 0.8400 0.9959
H82 H -0.1748 0.8881 0.9507
H83 H -0.1176 0.8219 0.9420
C89 C -0.2879(12) 0.8854(7) 0.8558(7)
H84 H -0.2204 0.9039 0.8680
H85 H -0.2948 0.8872 0.8182
C90 C -0.3603(15) 0.9296(10) 0.8798(8)
H86 H -0.3477 0.9756 0.8704
H87 H -0.3528 0.9294 0.9171
H88 H -0.4274 0.9126 0.8673
C91 C -0.1990(12) 0.7606(11) 0.8411(8)
H89 H -0.2019 0.7687 0.8043
H90 H -0.1372 0.7841 0.8575
C92 C -0.6986(13) 0.6805(10) 0.8433(8)
H91 H -0.7184 0.7177 0.8665
H92 H -0.7579 0.6614 0.8218
C93 C -0.658(3) 0.6211(19) 0.8787(15)
H93 H -0.7101 0.6056 0.8998
H94 H -0.6004 0.6397 0.9008
H95 H -0.6403 0.5833 0.8561
C94 C -0.593(3) 0.6155(17) 0.7449(13)
H96 H -0.5948 0.5872 0.7125
H97 H -0.6369 0.5945 0.7679
H98 H -0.5256 0.6206 0.7609
C95 C -0.627(3) 0.685(2) 0.7342(8)
H99 H -0.6956 0.6837 0.7200
H100 H -0.5823 0.7103 0.7129
C96 C 0.4247(19) 1.0329(10) 0.6268(10)
H101 H 0.4299 1.0756 0.6489
H102 H 0.4881 1.0279 0.6114
C97 C 0.336(2) 1.0320(17) 0.5827(14)
H103 H 0.3487 1.0692 0.5615
H104 H 0.2739 1.0368 0.5986
H105 H 0.3319 0.9894 0.5612
C98 C -0.1954(16) 0.6842(10) 0.8456(9)
H106 H -0.1381 0.6685 0.8292
H107 H -0.2555 0.6603 0.8287
H108 H -0.1903 0.6757 0.8818
C99 C -0.6669(17) 0.7869(13) 0.7788(13)
H109 H -0.6259 0.8058 0.7530
H110 H -0.7321 0.7715 0.7614
C100 C -0.678(3) 0.8358(16) 0.8155(13)
H111 H -0.7093 0.8726 0.8002
H112 H -0.6141 0.8525 0.8323
H113 H -0.7203 0.8180 0.8409
C101 C 0.9426(8) 1.4674(6) 0.8779(4)
C102 C 1.0482(9) 1.4677(6) 0.8917(5)
H114 H 1.0782 1.4440 0.9176
C103 C 0.9325(9) 1.5113(6) 0.8377(5)
H115 H 0.8719 1.5216 0.8216
C104 C 1.0262(10) 1.5367(6) 0.8259(6)
H116 H 1.0401 1.5662 0.8004
C105 C 1.0965(9) 1.5095(7) 0.8598(5)
H117 H 1.1658 1.5186 0.8604
C106 C 0.9299(9) 1.3633(7) 0.7741(5)
C107 C 0.9937(9) 1.3316(7) 0.8081(6)
H118 H 0.9738 1.3019 0.8325
C108 C 1.0912(11) 1.3520(8) 0.7992(8)
H119 H 1.1485 1.3391 0.8171
C109 C 1.0900(12) 1.3942(10) 0.7599(8)
H120 H 1.1466 1.4135 0.7459
C110 C 0.9879(12) 1.4046(8) 0.7431(6)
H121 H 0.9654 1.4321 0.7177
C111 C -0.3033(12) 0.5950(7) 0.3830(6)
H122 H -0.2441 0.5826 0.3993
C112 C -0.4505(12) 0.6399(7) 0.3671(6)
H123 H -0.5079 0.6630 0.3716
C113 C -0.3732(11) 0.6339(7) 0.4064(5)
C114 C -0.3376(16) 0.5777(9) 0.3305(7)
H124 H -0.3054 0.5515 0.3060
C115 C -0.4266(16) 0.6061(10) 0.3215(7)
H125 H -0.4646 0.6030 0.2897
C116 C -0.1899(11) 0.7164(7) 0.3251(6)
H126 H -0.1343 0.6923 0.3183
C117 C -0.2101(10) 0.7469(7) 0.3732(4)
C118 C -0.2998(10) 0.7772(6) 0.3662(5)
H127 H -0.3316 0.8010 0.3922
C119 C -0.2657(12) 0.7276(8) 0.2893(6)
H128 H -0.2716 0.7122 0.2539
C120 C -0.3326(11) 0.7667(8) 0.3157(6)
H129 H -0.3905 0.7827 0.3007
Pt1A Pt -0.27172(4) 1.01190(3) 1.28279(2)
Pt2A Pt 0.45504(5) 1.24961(3) 1.16219(2)
Pd1A Pd -0.74352(6) 0.66197(4) 1.14493(3)
Pd2A Pd 0.21987(7) 1.27096(4) 1.49486(3)
Fe1A Fe -1.01345(12) 0.56637(9) 1.18252(7)
Fe2A Fe 0.31857(16) 1.32157(10) 1.65252(8)
P1A P -0.8414(2) 0.57720(16) 1.09731(12)
P2A P -0.7977(2) 0.64561(16) 1.22464(12)
P3A P 0.1383(2) 1.25486(16) 1.56657(13)
P4A P 0.3647(3) 1.32534(17) 1.53037(14)
P5A P -0.1488(3) 0.9809(2) 1.23254(17)
P6A P -0.3944(3) 1.0389(2) 1.33518(16)
P7A P 0.3027(3) 1.2024(2) 1.13009(16)
P8A P 0.6097(4) 1.2859(3) 1.19777(17)
N1A N 0.2794(8) 1.2711(5) 1.4240(4)
N2A N -0.6803(7) 0.6839(6) 1.0775(4)
N3A N -0.6418(7) 0.7380(5) 1.1781(4)
N4A N 0.0958(8) 1.2242(5) 1.4520(4)
C1A C 0.2555(10) 1.3153(6) 1.3902(5)
H1A H 0.2168 1.3506 1.4008
C2A C 0.3311(10) 1.2214(7) 1.4086(6)
H2A H 0.3471 1.1890 1.4315
C3A C 0.3636(11) 1.2154(7) 1.3578(5)
H3A H 0.4011 1.1793 1.3478
C4A C 0.2842(11) 1.3118(7) 1.3413(6)
H4A H 0.2651 1.3443 1.3191
C5A C 0.3416(11) 1.2608(7) 1.3232(5)
C6A C 0.3748(13) 1.2568(7) 1.2744(6)
C7A C 0.4057(13) 1.2521(7) 1.2300(6)
C8A C -0.6724(10) 0.7506(7) 1.0057(5)
H5A H -0.6989 0.7839 0.9863
C9A C -0.5527(11) 0.6745(10) 1.0204(6)
H6A H -0.4963 0.6530 1.0111
C10A C -0.5893(11) 0.7224(9) 0.9915(6)
C11A C -0.7184(10) 0.7307(7) 1.0485(5)
H7A H -0.7769 0.7499 1.0576
C12A C -0.5992(10) 0.6580(8) 1.0633(6)
H8A H -0.5714 0.6264 1.0837
C13A C 0.5078(11) 1.2516(8) 1.0926(6)
C14A C -0.5459(9) 0.7247(6) 1.1850(5)
H9A H -0.5283 0.6800 1.1788
C15A C -0.6656(9) 0.7993(8) 1.1890(5)
H10A H -0.7330 0.8078 1.1850
C16A C -0.4738(9) 0.7756(7) 1.2008(5)
H11A H -0.4069 0.7658 1.2033
C17A C -0.4968(9) 0.8395(7) 1.2129(5)
C18A C -0.4232(10) 0.8924(7) 1.2300(5)
C19A C -0.3649(10) 0.9398(7) 1.2479(5)
C20A C -0.1769(11) 1.0808(7) 1.3214(6)
C21A C -0.1218(10) 1.1184(7) 1.3500(6)
C22A C -0.0494(11) 1.1544(7) 1.3848(5)
C23A C 0.0304(11) 1.1231(7) 1.4040(5)
H12A H 0.0373 1.0773 1.3939
C24A C 0.0221(10) 1.2561(7) 1.4339(5)
H13A H 0.0197 1.3025 1.4439
C25A C 0.0994(10) 1.1592(7) 1.4381(5)
H14A H 0.1521 1.1367 1.4523
C26A C -0.0511(10) 1.2231(7) 1.4009(5)
H15A H -0.1040 1.2470 1.3887
C27A C -0.5967(9) 0.8531(7) 1.2062(5)
H16A H -0.6164 0.8972 1.2130
C28A C -0.5436(11) 0.7399(9) 0.9458(6)
C29A C -0.7748(9) 0.5066(7) 1.0746(5)
C30A C -0.6755(9) 0.5020(8) 1.0922(6)
H17A H -0.6409 0.5375 1.1138
C31A C -0.8217(9) 0.4553(6) 1.0435(5)
H18A H -0.8888 0.4572 1.0321
C32A C -0.6300(11) 0.4459(9) 1.0778(7)
H19A H -0.5640 0.4424 1.0903
C33A C -0.7723(11) 0.3992(8) 1.0278(6)
H20A H -0.8045 0.3641 1.0048
C34A C -0.6765(12) 0.3958(8) 1.0462(6)
H21A H -0.6429 0.3575 1.0365
C35A C -0.9589(10) 0.6607(7) 1.0483(6)
H22A H -0.9823 0.6693 1.0813
C36A C -0.8928(9) 0.6131(6) 1.0418(5)
C37A C -0.9934(11) 0.6969(8) 1.0088(7)
H23A H -1.0389 0.7295 1.0154
C38A C -0.9621(16) 0.6861(10) 0.9597(8)
H24A H -0.9847 0.7109 0.9326
C39A C -0.8962(15) 0.6374(10) 0.9520(6)
H25A H -0.8751 0.6282 0.9186
C40A C -0.8583(11) 0.6000(7) 0.9929(5)
H26A H -0.8120 0.5678 0.9870
C41A C -0.7425(9) 0.5769(6) 1.2501(5)
C42A C -0.6675(9) 0.5494(7) 1.2258(5)
H27A H -0.6464 0.5675 1.1958
C43A C -0.6212(11) 0.4954(8) 1.2441(6)
H28A H -0.5707 0.4763 1.2261
C44A C -0.7684(14) 0.5514(8) 1.2962(6)
H29A H -0.8182 0.5707 1.3146
C45A C -0.7221(14) 0.4985(9) 1.3152(6)
H30A H -0.7402 0.4819 1.3463
C46A C -0.6501(11) 0.4702(7) 1.2888(7)
H31A H -0.6198 0.4331 1.3012
C47A C -0.7608(10) 0.7156(6) 1.2719(5)
C48A C -0.8214(10) 0.7651(7) 1.2799(5)
H32A H -0.8839 0.7628 1.2615
C49A C -0.6686(10) 0.7200(7) 1.2977(5)
H33A H -0.6255 0.6856 1.2919
C50A C -0.7917(12) 0.8191(7) 1.3151(6)
H34A H -0.8352 0.8531 1.3213
C51A C -0.7005(13) 0.8246(7) 1.3414(6)
H35A H -0.6818 0.8622 1.3653
C52A C -0.6387(12) 0.7775(8) 1.3335(5)
H36A H -0.5754 0.7816 1.3512
C53A C 0.0499(9) 1.3148(6) 1.5774(4)
C54A C 0.0527(12) 1.3724(6) 1.5528(6)
H37A H 0.1035 1.3812 1.5308
C55A C -0.0270(9) 1.3013(7) 1.6085(5)
H38A H -0.0300 1.2613 1.6254
C56A C -0.0989(12) 1.3460(7) 1.6147(6)
H39A H -0.1520 1.3362 1.6350
C57A C -0.0168(14) 1.4175(9) 1.5594(7)
H40A H -0.0131 1.4574 1.5424
C58A C -0.0925(14) 1.4052(8) 1.5908(7)
H41A H -0.1396 1.4371 1.5960
C59A C 0.0666(9) 1.1742(6) 1.5584(5)
C60A C 0.1089(11) 1.1177(6) 1.5720(7)
H42A H 0.1750 1.1214 1.5863
C61A C -0.0312(9) 1.1676(7) 1.5375(5)
H43A H -0.0620 1.2064 1.5286
C62A C 0.0562(14) 1.0545(8) 1.5650(10)
H44A H 0.0856 1.0157 1.5749
C63A C -0.0828(13) 1.1057(8) 1.5296(6)
H45A H -0.1483 1.1015 1.5145
C64A C 0.3980(11) 1.3917(8) 1.4895(6)
C65A C 0.4565(12) 1.3817(8) 1.4496(6)
H46A H 0.4842 1.3401 1.4434
C66A C 0.3525(14) 1.4512(9) 1.4977(7)
H47A H 0.3102 1.4574 1.5246
C67A C 0.3715(17) 1.5018(10) 1.4647(8)
H48A H 0.3415 1.5427 1.4696
C68A C 0.4752(17) 1.4343(13) 1.4175(7)
H49A H 0.5172 1.4290 1.3903
C69A C 0.4629(10) 1.2706(7) 1.5298(5)
C70A C 0.4486(12) 1.2019(7) 1.5243(5)
H50A H 0.3828 1.1824 1.5209
C71A C 0.5639(12) 1.2970(9) 1.5340(6)
H51A H 0.5796 1.3442 1.5374
C72A C 0.5238(12) 1.1585(9) 1.5233(6)
H52A H 0.5101 1.1112 1.5196
C73A C 0.6378(13) 1.2545(11) 1.5331(6)
H53A H 0.7045 1.2723 1.5361
C74A C 0.6162(13) 1.1867(10) 1.5277(6)
H54A H 0.6688 1.1583 1.5272
C75A C 0.4307(18) 1.4935(11) 1.4267(9)
H55A H 0.4425 1.5290 1.4055
C76A C -0.0389(15) 1.0499(9) 1.5436(8)
H56A H -0.0749 1.0073 1.5383
C77A C -0.5161(11) 1.0353(12) 1.3042(7)
H57A H -0.5708 1.0162 1.3200
C78A C -0.5295(15) 1.0615(10) 1.2554(8)
H58A H -0.5994 1.0558 1.2435
H59A H -0.5071 1.1093 1.2587
H60A H -0.4914 1.0373 1.2308
C79A C -0.3760(13) 1.1095(8) 1.3827(6)
H61A H -0.3152 1.1050 1.4044
H62A H -0.4314 1.1080 1.4051
C80A C -0.3683(19) 1.1744(13) 1.3622(11)
H63A H -0.3585 1.2099 1.3905
H64A H -0.3123 1.1772 1.3409
H65A H -0.4288 1.1801 1.3415
C81A C -0.0663(16) 1.0534(11) 1.2210(10)
H66A H -0.0700 1.0953 1.2401
C82A C 0.007(2) 1.0464(14) 1.1815(11)
H67A H 0.0451 1.0894 1.1805
H68A H 0.0509 1.0122 1.1903
H69A H -0.0278 1.0331 1.1479
C83A C -0.1846(16) 0.9379(13) 1.1698(7)
H70A H -0.2223 0.8949 1.1740
H71A H -0.1248 0.9275 1.1525
C84A C -0.241(2) 0.9753(13) 1.1394(11)
H72A H -0.2586 0.9501 1.1060
H73A H -0.3011 0.9849 1.1560
H74A H -0.2036 1.0176 1.1344
C85A C -0.063(2) 0.9292(18) 1.2628(13)
H75A H 0.0060 0.9415 1.2654
C86A C -0.0992(15) 0.8729(10) 1.2815(8)
H76A H -0.0450 0.8486 1.2951
H77A H -0.1414 0.8846 1.3090
H78A H -0.1378 0.8444 1.2541
C87A C 0.2736(13) 1.2006(9) 1.0616(5)
H79A H 0.3277 1.1811 1.0437
H80A H 0.2706 1.2472 1.0524
C88A C 0.1720(16) 1.1585(11) 1.0413(9)
H81A H 0.1617 1.1600 1.0041
H82A H 0.1748 1.1119 1.0493
H83A H 0.1176 1.1781 1.0580
C89A C 0.2879(12) 1.1146(7) 1.1442(7)
H84A H 0.2204 1.0961 1.1320
H85A H 0.2948 1.1128 1.1818
C90A C 0.3603(15) 1.0704(10) 1.1202(8)
H86A H 0.3477 1.0244 1.1296
H87A H 0.3528 1.0706 1.0829
H88A H 0.4274 1.0874 1.1327
C91A C 0.1990(12) 1.2394(11) 1.1589(8)
H89A H 0.2019 1.2313 1.1957
H90A H 0.1372 1.2159 1.1425
C92A C 0.6986(13) 1.3195(10) 1.1567(8)
H91A H 0.7184 1.2823 1.1335
H92A H 0.7579 1.3386 1.1782
C93A C 0.658(3) 1.3789(19) 1.1213(15)
H93A H 0.7101 1.3944 1.1002
H94A H 0.6004 1.3603 1.0992
H95A H 0.6403 1.4167 1.1439
C94A C 0.593(3) 1.3845(17) 1.2551(13)
H96A H 0.5948 1.4128 1.2875
H97A H 0.6369 1.4055 1.2321
H98A H 0.5256 1.3794 1.2391
C95A C 0.627(3) 1.315(2) 1.2658(8)
H99A H 0.6956 1.3163 1.2800
H100A H 0.5823 1.2897 1.2871
C96A C -0.4247(19) 0.9671(10) 1.3732(10)
H101A H -0.4299 0.9244 1.3511
H102A H -0.4881 0.9721 1.3886
C97A C -0.336(2) 0.9680(17) 1.4173(14)
H103A H -0.3487 0.9308 1.4385
H104A H -0.2739 0.9632 1.4014
H105A H -0.3319 1.0106 1.4388
C98A C 0.1954(16) 1.3158(10) 1.1544(9)
H106A H 0.1381 1.3315 1.1708
H107A H 0.2555 1.3397 1.1713
H108A H 0.1903 1.3243 1.1182
C99A C 0.6669(17) 1.2131(13) 1.2212(13)
H109A H 0.6259 1.1942 1.2470
H110A H 0.7321 1.2285 1.2386
C100A C 0.678(3) 1.1642(16) 1.1845(13)
H111A H 0.7093 1.1274 1.1998
H112A H 0.6141 1.1475 1.1677
H113A H 0.7203 1.1820 1.1591
C101A C -0.9426(8) 0.5326(6) 1.1221(4)
C102A C -1.0482(9) 0.5323(6) 1.1083(5)
H114A H -1.0782 0.5560 1.0824
C103A C -0.9325(9) 0.4887(6) 1.1623(5)
H115A H -0.8719 0.4784 1.1784
C104A C -1.0262(10) 0.4633(6) 1.1741(6)
H116A H -1.0401 0.4338 1.1996
C105A C -1.0965(9) 0.4905(7) 1.1402(5)
H117A H -1.1658 0.4814 1.1396
C106A C -0.9299(9) 0.6367(7) 1.2259(5)
C107A C -0.9937(9) 0.6684(7) 1.1919(6)
H118A H -0.9738 0.6981 1.1675
C108A C -1.0912(11) 0.6480(8) 1.2008(8)
H119A H -1.1485 0.6609 1.1829
C109A C -1.0900(12) 0.6058(10) 1.2401(8)
H120A H -1.1466 0.5865 1.2541
C110A C -0.9879(12) 0.5954(8) 1.2569(6)
H121A H -0.9654 0.5679 1.2823
C111A C 0.3033(12) 1.4050(7) 1.6170(6)
H122A H 0.2441 1.4174 1.6007
C112A C 0.4505(12) 1.3601(7) 1.6329(6)
H123A H 0.5079 1.3370 1.6284
C113A C 0.3732(11) 1.3661(7) 1.5936(5)
C114A C 0.3376(16) 1.4223(9) 1.6695(7)
H124A H 0.3054 1.4485 1.6940
C115A C 0.4266(16) 1.3939(10) 1.6785(7)
H125A H 0.4646 1.3970 1.7103
C116A C 0.1899(11) 1.2836(7) 1.6749(6)
H126A H 0.1343 1.3077 1.6817
C117A C 0.2101(10) 1.2531(7) 1.6268(4)
C118A C 0.2998(10) 1.2228(6) 1.6338(5)
H127A H 0.3316 1.1990 1.6078
C119A C 0.2657(12) 1.2724(8) 1.7107(6)
H128A H 0.2716 1.2878 1.7461
C120A C 0.3326(11) 1.2333(8) 1.6843(6)
H129A H 0.3905 1.2173 1.6993
O1 O 0.6277(12) 0.8328(8) 1.0629(7)
C121 C 0.6613(15) 0.7908(13) 1.0916(8)
H130 H 0.6249 0.7773 1.1190
C122 C 0.7535(19) 0.7632(12) 1.0833(11)
H131 H 0.7675 0.7322 1.1093
H132 H 0.8060 0.7995 1.0859
H133 H 0.7498 0.7390 1.0492
C123 C 0.5402(18) 0.8612(14) 1.0729(11)
H134 H 0.5032 0.8485 1.1003
C124 C 0.510(2) 0.9079(19) 1.0418(16)
H135 H 0.4483 0.9243 1.0532
H136 H 0.4985 0.8875 1.0065
H137 H 0.5601 0.9455 1.0435
O2 O 0.011(2) 0.6490(14) 0.7059(12)
C125 C -0.007(4) 0.5866(18) 0.6919(17)
H138 H -0.0304 0.5542 0.7134
C126 C 0.013(4) 0.5716(17) 0.6388(16)
H139 H 0.0018 0.5232 0.6296
H140 H 0.0818 0.5862 0.6342
H141 H -0.0304 0.5953 0.6167
C127 C 0.008(4) 0.6814(19) 0.7539(16)
H142 H -0.0065 0.6552 0.7814
C128 C 0.023(4) 0.749(2) 0.764(2)
H143 H 0.0194 0.7610 0.8008
H144 H -0.0273 0.7710 0.7447
H145 H 0.0882 0.7642 0.7540
S1 S 0.3113(3) 1.0261(2) 0.42920(17)
O3 O 0.3976(7) 1.0713(5) 0.4181(4)
O4 O 0.3333(10) 0.9567(5) 0.4373(5)
O5 O 0.2498(10) 1.0579(6) 0.4626(5)
F1 F 0.1521(8) 0.9809(5) 0.3687(4)
F2 F 0.2184(9) 1.0762(5) 0.3507(4)
F3 F 0.2874(9) 0.9848(6) 0.3302(4)
C129 C 0.2389(13) 1.0171(9) 0.3699(8)
S2 S 0.1591(7) 0.5962(6) 0.5499(5)
O6 O 0.0606(11) 0.5944(7) 0.5710(8)
O7 O 0.1953(16) 0.6650(9) 0.5360(10)
O8 O 0.1780(15) 0.5361(10) 0.5241(10)
F4 F 0.3242(16) 0.6031(17) 0.5952(11)
F5 F 0.192(2) 0.5523(11) 0.6354(12)
F6 F 0.2275(12) 0.6659(7) 0.6289(7)
C130 C 0.234(2) 0.6000(14) 0.6085(11)
S3 S 0.3755(2) 0.4210(2) 0.83519(14)
O9 O 0.3430(7) 0.3499(5) 0.8265(4)
O10 O 0.3199(7) 0.4632(5) 0.8062(4)
O11 O 0.4797(6) 0.4329(5) 0.8387(4)
F7 F 0.3653(9) 0.5075(10) 0.9129(6)
F8 F 0.4054(9) 0.4144(11) 0.9338(5)
F9 F 0.2541(7) 0.4257(7) 0.9069(4)
C131 C 0.3477(13) 0.4427(15) 0.8983(8)
S4 S 0.9245(4) 1.1588(3) 0.8758(2)
O12 O 0.907(2) 1.1167(11) 0.8230(8)
O13 O 0.8753(7) 1.2171(5) 0.8706(4)
O14 O 1.0214(11) 1.1574(12) 0.8869(10)
F10 F 0.7626(12) 1.1017(7) 0.8988(9)
F11 F 0.8724(14) 1.0391(7) 0.9053(8)
F12 F 0.875(2) 1.1387(13) 0.9585(9)
C132 C 0.857(2) 1.1059(12) 0.9111(11)
O15 O 0.1358(10) 0.4341(6) 0.4422(5)
O16 O 0.9020(16) 1.1508(11) 1.0831(12)
O17 O 0.761(4) 1.081(2) 1.0348(16)
loop_
_geom_bond_atom_site_label_1
_geom_bond_atom_site_label_2
_geom_bond_site_symmetry_1
_geom_bond_site_symmetry_2
Pt1 P5 1_555 1_555
Pt2 P7 1_555 1_555
Pd1 P1 1_555 1_555
Pd2 P3 1_555 1_555
Fe1 C101 1_555 1_555
Fe2 C111 1_555 1_555
P1 C29 1_555 1_555
P2 Pd1 1_555 1_555
P3 C53 1_555 1_555
P4 Pd2 1_555 1_555
P5 C81 1_555 1_555
P6 Pt1 1_555 1_555
P7 C87 1_555 1_555
P8 Pt2 1_555 1_555
N1 Pd2 1_555 1_555
N2 Pd1 1_555 1_555
N3 Pd1 1_555 1_555
N4 Pd2 1_555 1_555
C1 N1 1_555 1_555
H1 C1 1_555 1_555
C2 N1 1_555 1_555
H2 C2 1_555 1_555
C3 C2 1_555 1_555
H3 C3 1_555 1_555
C4 C1 1_555 1_555
H4 C4 1_555 1_555
C5 C3 1_555 1_555
C6 C5 1_555 1_555
C7 Pt2 1_555 1_555
C8 H5 1_555 1_555
C9 H6 1_555 1_555
C10 C8 1_555 1_555
C11 N2 1_555 1_555
H7 C11 1_555 1_555
C12 N2 1_555 1_555
H8 C12 1_555 1_555
C13 Pt2 1_555 1_555
C14 N3 1_555 1_555
H9 C14 1_555 1_555
C15 N3 1_555 1_555
H10 C15 1_555 1_555
C16 C14 1_555 1_555
H11 C16 1_555 1_555
C17 C16 1_555 1_555
C18 C17 1_555 1_555
C19 Pt1 1_555 1_555
C20 Pt1 1_555 1_555
C21 C20 1_555 1_555
C22 C21 1_555 1_555
C23 C22 1_555 1_555
H12 C23 1_555 1_555
C24 N4 1_555 1_555
H13 C24 1_555 1_555
C25 N4 1_555 1_555
H14 C25 1_555 1_555
C26 C22 1_555 1_555
H15 C26 1_555 1_555
C27 C15 1_555 1_555
H16 C27 1_555 1_555
C28 C10 1_555 1_555
C29 C30 1_555 1_555
C30 H17 1_555 1_555
C31 C29 1_555 1_555
H18 C31 1_555 1_555
C32 C30 1_555 1_555
H19 C32 1_555 1_555
C33 C31 1_555 1_555
H20 C33 1_555 1_555
C34 C32 1_555 1_555
H21 C34 1_555 1_555
C35 H22 1_555 1_555
C36 P1 1_555 1_555
C37 C35 1_555 1_555
H23 C37 1_555 1_555
C38 C37 1_555 1_555
H24 C38 1_555 1_555
C39 C38 1_555 1_555
H25 C39 1_555 1_555
C40 C36 1_555 1_555
H26 C40 1_555 1_555
C41 P2 1_555 1_555
C42 C41 1_555 1_555
H27 C42 1_555 1_555
C43 C42 1_555 1_555
H28 C43 1_555 1_555
C44 C41 1_555 1_555
H29 C44 1_555 1_555
C45 C44 1_555 1_555
H30 C45 1_555 1_555
C46 C43 1_555 1_555
H31 C46 1_555 1_555
C47 P2 1_555 1_555
C48 C47 1_555 1_555
H32 C48 1_555 1_555
C49 C47 1_555 1_555
H33 C49 1_555 1_555
C50 C48 1_555 1_555
H34 C50 1_555 1_555
C51 C50 1_555 1_555
H35 C51 1_555 1_555
C52 C49 1_555 1_555
H36 C52 1_555 1_555
C53 C54 1_555 1_555
C54 H37 1_555 1_555
C55 C53 1_555 1_555
H38 C55 1_555 1_555
C56 C55 1_555 1_555
H39 C56 1_555 1_555
C57 C54 1_555 1_555
H40 C57 1_555 1_555
C58 C56 1_555 1_555
H41 C58 1_555 1_555
C59 P3 1_555 1_555
C60 C59 1_555 1_555
H42 C60 1_555 1_555
C61 C59 1_555 1_555
H43 C61 1_555 1_555
C62 C60 1_555 1_555
H44 C62 1_555 1_555
C63 C61 1_555 1_555
H45 C63 1_555 1_555
C64 P4 1_555 1_555
C65 C64 1_555 1_555
H46 C65 1_555 1_555
C66 C64 1_555 1_555
H47 C66 1_555 1_555
C67 C66 1_555 1_555
H48 C67 1_555 1_555
C68 C65 1_555 1_555
H49 C68 1_555 1_555
C69 P4 1_555 1_555
C70 C69 1_555 1_555
H50 C70 1_555 1_555
C71 C69 1_555 1_555
H51 C71 1_555 1_555
C72 C70 1_555 1_555
H52 C72 1_555 1_555
C73 C71 1_555 1_555
H53 C73 1_555 1_555
C74 C72 1_555 1_555
H54 C74 1_555 1_555
C75 C67 1_555 1_555
H55 C75 1_555 1_555
C76 C62 1_555 1_555
H56 C76 1_555 1_555
C77 P6 1_555 1_555
H57 C77 1_555 1_555
C78 C77 1_555 1_555
H58 C78 1_555 1_555
H59 C78 1_555 1_555
H60 C78 1_555 1_555
C79 P6 1_555 1_555
H61 C79 1_555 1_555
H62 C79 1_555 1_555
C80 C79 1_555 1_555
H63 C80 1_555 1_555
H64 C80 1_555 1_555
H65 C80 1_555 1_555
C81 H66 1_555 1_555
C82 C81 1_555 1_555
H67 C82 1_555 1_555
H68 C82 1_555 1_555
H69 C82 1_555 1_555
C83 P5 1_555 1_555
H70 C83 1_555 1_555
H71 C83 1_555 1_555
C84 C83 1_555 1_555
H72 C84 1_555 1_555
H73 C84 1_555 1_555
H74 C84 1_555 1_555
C85 P5 1_555 1_555
H75 C85 1_555 1_555
C86 C85 1_555 1_555
H76 C86 1_555 1_555
H77 C86 1_555 1_555
H78 C86 1_555 1_555
C87 H79 1_555 1_555
H80 C87 1_555 1_555
C88 C87 1_555 1_555
H81 C88 1_555 1_555
H82 C88 1_555 1_555
H83 C88 1_555 1_555
C89 P7 1_555 1_555
H84 C89 1_555 1_555
H85 C89 1_555 1_555
C90 C89 1_555 1_555
H86 C90 1_555 1_555
H87 C90 1_555 1_555
H88 C90 1_555 1_555
C91 P7 1_555 1_555
H89 C91 1_555 1_555
H90 C91 1_555 1_555
C92 P8 1_555 1_555
H91 C92 1_555 1_555
H92 C92 1_555 1_555
C93 C92 1_555 1_555
H93 C93 1_555 1_555
H94 C93 1_555 1_555
H95 C93 1_555 1_555
C94 H96 1_555 1_555
H97 C94 1_555 1_555
H98 C94 1_555 1_555
C95 P8 1_555 1_555
H99 C95 1_555 1_555
H100 C95 1_555 1_555
C96 P6 1_555 1_555
H101 C96 1_555 1_555
H102 C96 1_555 1_555
C97 C96 1_555 1_555
H103 C97 1_555 1_555
H104 C97 1_555 1_555
H105 C97 1_555 1_555
C98 C91 1_555 1_555
H106 C98 1_555 1_555
H107 C98 1_555 1_555
H108 C98 1_555 1_555
C99 P8 1_555 1_555
H109 C99 1_555 1_555
H110 C99 1_555 1_555
C100 C99 1_555 1_555
H111 C100 1_555 1_555
H112 C100 1_555 1_555
H113 C100 1_555 1_555
C101 P1 1_555 1_555
C102 Fe1 1_555 1_555
H114 C102 1_555 1_555
C103 Fe1 1_555 1_555
H115 C103 1_555 1_555
C104 Fe1 1_555 1_555
H116 C104 1_555 1_555
C105 Fe1 1_555 1_555
H117 C105 1_555 1_555
C106 Fe1 1_555 1_555
C107 Fe1 1_555 1_555
H118 C107 1_555 1_555
C108 Fe1 1_555 1_555
H119 C108 1_555 1_555
C109 Fe1 1_555 1_555
H120 C109 1_555 1_555
C110 Fe1 1_555 1_555
H121 C110 1_555 1_555
C111 H122 1_555 1_555
C112 Fe2 1_555 1_555
H123 C112 1_555 1_555
C113 Fe2 1_555 1_555
C114 Fe2 1_555 1_555
H124 C114 1_555 1_555
C115 Fe2 1_555 1_555
H125 C115 1_555 1_555
C116 Fe2 1_555 1_555
H126 C116 1_555 1_555
C117 Fe2 1_555 1_555
C118 Fe2 1_555 1_555
H127 C118 1_555 1_555
C119 Fe2 1_555 1_555
H128 C119 1_555 1_555
C120 Fe2 1_555 1_555
H129 C120 1_555 1_555
O1 C121 1_555 1_555
C121 H130 1_555 1_555
C122 C121 1_555 1_555
H131 C122 1_555 1_555
H132 C122 1_555 1_555
H133 C122 1_555 1_555
C123 O1 1_555 1_555
H134 C123 1_555 1_555
C124 C123 1_555 1_555
H135 C124 1_555 1_555
H136 C124 1_555 1_555
H137 C124 1_555 1_555
O2 C125 1_555 1_555
C125 H138 1_555 1_555
C126 C125 1_555 1_555
H139 C126 1_555 1_555
H140 C126 1_555 1_555
H141 C126 1_555 1_555
C127 O2 1_555 1_555
H142 C127 1_555 1_555
C128 C127 1_555 1_555
H143 C128 1_555 1_555
H144 C128 1_555 1_555
H145 C128 1_555 1_555
S1 O3 1_555 1_555
O4 S1 1_555 1_555
O5 S1 1_555 1_555
F1 C129 1_555 1_555
F2 C129 1_555 1_555
F3 C129 1_555 1_555
C129 S1 1_555 1_555
S2 O6 1_555 1_555
O7 S2 1_555 1_555
O8 S2 1_555 1_555
F4 C130 1_555 1_555
F5 C130 1_555 1_555
F6 C130 1_555 1_555
C130 S2 1_555 1_555
S3 O9 1_555 1_555
O10 S3 1_555 1_555
O11 S3 1_555 1_555
F7 C131 1_555 1_555
F8 C131 1_555 1_555
F9 C131 1_555 1_555
C131 S3 1_555 1_555
S4 O12 1_555 1_555
O13 S4 1_555 1_555
O14 S4 1_555 1_555
F10 C132 1_555 1_555
F11 C132 1_555 1_555
F12 C132 1_555 1_555
C132 S4 1_555 1_555
Pt1A P5A 1_555 1_555
Pt2A P7A 1_555 1_555
Pd1A P1A 1_555 1_555
Pd2A P3A 1_555 1_555
Fe1A C101A 1_555 1_555
Fe2A C111A 1_555 1_555
P1A C29A 1_555 1_555
P2A Pd1A 1_555 1_555
P3A C53A 1_555 1_555
P4A Pd2A 1_555 1_555
P5A C81A 1_555 1_555
P6A Pt1A 1_555 1_555
P7A C87A 1_555 1_555
P8A Pt2A 1_555 1_555
N1A Pd2A 1_555 1_555
N2A Pd1A 1_555 1_555
N3A Pd1A 1_555 1_555
N4A Pd2A 1_555 1_555
C1A N1A 1_555 1_555
H1A C1A 1_555 1_555
C2A N1A 1_555 1_555
H2A C2A 1_555 1_555
C3A C2A 1_555 1_555
H3A C3A 1_555 1_555
C4A C1A 1_555 1_555
H4A C4A 1_555 1_555
C5A C3A 1_555 1_555
C6A C5A 1_555 1_555
C7A Pt2A 1_555 1_555
C8A H5A 1_555 1_555
C9A H6A 1_555 1_555
C10A C8A 1_555 1_555
C11A N2A 1_555 1_555
H7A C11A 1_555 1_555
C12A N2A 1_555 1_555
H8A C12A 1_555 1_555
C13A C28 1_555 1_555
C14A N3A 1_555 1_555
H9A C14A 1_555 1_555
C15A N3A 1_555 1_555
H10A C15A 1_555 1_555
C16A C14A 1_555 1_555
H11A C16A 1_555 1_555
C17A C16A 1_555 1_555
C18A C17A 1_555 1_555
C19A Pt1A 1_555 1_555
C20A Pt1A 1_555 1_555
C21A C20A 1_555 1_555
C22A C21A 1_555 1_555
C23A C22A 1_555 1_555
H12A C23A 1_555 1_555
C24A N4A 1_555 1_555
H13A C24A 1_555 1_555
C25A N4A 1_555 1_555
H14A C25A 1_555 1_555
C26A C22A 1_555 1_555
H15A C26A 1_555 1_555
C27A C15A 1_555 1_555
H16A C27A 1_555 1_555
C28A C13 1_555 1_555
C29A C30A 1_555 1_555
C30A H17A 1_555 1_555
C31A C29A 1_555 1_555
H18A C31A 1_555 1_555
C32A C30A 1_555 1_555
H19A C32A 1_555 1_555
C33A C31A 1_555 1_555
H20A C33A 1_555 1_555
C34A C32A 1_555 1_555
H21A C34A 1_555 1_555
C35A H22A 1_555 1_555
C36A P1A 1_555 1_555
C37A C35A 1_555 1_555
H23A C37A 1_555 1_555
C38A C37A 1_555 1_555
H24A C38A 1_555 1_555
C39A C38A 1_555 1_555
H25A C39A 1_555 1_555
C40A C36A 1_555 1_555
H26A C40A 1_555 1_555
C41A P2A 1_555 1_555
C42A C41A 1_555 1_555
H27A C42A 1_555 1_555
C43A C42A 1_555 1_555
H28A C43A 1_555 1_555
C44A C41A 1_555 1_555
H29A C44A 1_555 1_555
C45A C44A 1_555 1_555
H30A C45A 1_555 1_555
C46A C43A 1_555 1_555
H31A C46A 1_555 1_555
C47A P2A 1_555 1_555
C48A C47A 1_555 1_555
H32A C48A 1_555 1_555
C49A C47A 1_555 1_555
H33A C49A 1_555 1_555
C50A C48A 1_555 1_555
H34A C50A 1_555 1_555
C51A C50A 1_555 1_555
H35A C51A 1_555 1_555
C52A C49A 1_555 1_555
H36A C52A 1_555 1_555
C53A C54A 1_555 1_555
C54A H37A 1_555 1_555
C55A C53A 1_555 1_555
H38A C55A 1_555 1_555
C56A C55A 1_555 1_555
H39A C56A 1_555 1_555
C57A C54A 1_555 1_555
H40A C57A 1_555 1_555
C58A C56A 1_555 1_555
H41A C58A 1_555 1_555
C59A P3A 1_555 1_555
C60A C59A 1_555 1_555
H42A C60A 1_555 1_555
C61A C59A 1_555 1_555
H43A C61A 1_555 1_555
C62A C60A 1_555 1_555
H44A C62A 1_555 1_555
C63A C61A 1_555 1_555
H45A C63A 1_555 1_555
C64A P4A 1_555 1_555
C65A C64A 1_555 1_555
H46A C65A 1_555 1_555
C66A C64A 1_555 1_555
H47A C66A 1_555 1_555
C67A C66A 1_555 1_555
H48A C67A 1_555 1_555
C68A C65A 1_555 1_555
H49A C68A 1_555 1_555
C69A P4A 1_555 1_555
C70A C69A 1_555 1_555
H50A C70A 1_555 1_555
C71A C69A 1_555 1_555
H51A C71A 1_555 1_555
C72A C70A 1_555 1_555
H52A C72A 1_555 1_555
C73A C71A 1_555 1_555
H53A C73A 1_555 1_555
C74A C72A 1_555 1_555
H54A C74A 1_555 1_555
C75A C67A 1_555 1_555
H55A C75A 1_555 1_555
C76A C62A 1_555 1_555
H56A C76A 1_555 1_555
C77A P6A 1_555 1_555
H57A C77A 1_555 1_555
C78A C77A 1_555 1_555
H58A C78A 1_555 1_555
H59A C78A 1_555 1_555
H60A C78A 1_555 1_555
C79A P6A 1_555 1_555
H61A C79A 1_555 1_555
H62A C79A 1_555 1_555
C80A C79A 1_555 1_555
H63A C80A 1_555 1_555
H64A C80A 1_555 1_555
H65A C80A 1_555 1_555
C81A H66A 1_555 1_555
C82A C81A 1_555 1_555
H67A C82A 1_555 1_555
H68A C82A 1_555 1_555
H69A C82A 1_555 1_555
C83A P5A 1_555 1_555
H70A C83A 1_555 1_555
H71A C83A 1_555 1_555
C84A C83A 1_555 1_555
H72A C84A 1_555 1_555
H73A C84A 1_555 1_555
H74A C84A 1_555 1_555
C85A P5A 1_555 1_555
H75A C85A 1_555 1_555
C86A C85A 1_555 1_555
H76A C86A 1_555 1_555
H77A C86A 1_555 1_555
H78A C86A 1_555 1_555
C87A H79A 1_555 1_555
H80A C87A 1_555 1_555
C88A C87A 1_555 1_555
H81A C88A 1_555 1_555
H82A C88A 1_555 1_555
H83A C88A 1_555 1_555
C89A P7A 1_555 1_555
H84A C89A 1_555 1_555
H85A C89A 1_555 1_555
C90A C89A 1_555 1_555
H86A C90A 1_555 1_555
H87A C90A 1_555 1_555
H88A C90A 1_555 1_555
C91A P7A 1_555 1_555
H89A C91A 1_555 1_555
H90A C91A 1_555 1_555
C92A P8A 1_555 1_555
H91A C92A 1_555 1_555
H92A C92A 1_555 1_555
C93A C92A 1_555 1_555
H93A C93A 1_555 1_555
H94A C93A 1_555 1_555
H95A C93A 1_555 1_555
C94A H96A 1_555 1_555
H97A C94A 1_555 1_555
H98A C94A 1_555 1_555
C95A P8A 1_555 1_555
H99A C95A 1_555 1_555
H100A C95A 1_555 1_555
C96A P6A 1_555 1_555
H101A C96A 1_555 1_555
H102A C96A 1_555 1_555
C97A C96A 1_555 1_555
H103A C97A 1_555 1_555
H104A C97A 1_555 1_555
H105A C97A 1_555 1_555
C98A C91A 1_555 1_555
H106A C98A 1_555 1_555
H107A C98A 1_555 1_555
H108A C98A 1_555 1_555
C99A P8A 1_555 1_555
H109A C99A 1_555 1_555
H110A C99A 1_555 1_555
C100A C99A 1_555 1_555
H111A C100A 1_555 1_555
H112A C100A 1_555 1_555
H113A C100A 1_555 1_555
C101A P1A 1_555 1_555
C102A Fe1A 1_555 1_555
H114A C102A 1_555 1_555
C103A Fe1A 1_555 1_555
H115A C103A 1_555 1_555
C104A Fe1A 1_555 1_555
H116A C104A 1_555 1_555
C105A Fe1A 1_555 1_555
H117A C105A 1_555 1_555
C106A Fe1A 1_555 1_555
C107A Fe1A 1_555 1_555
H118A C107A 1_555 1_555
C108A Fe1A 1_555 1_555
H119A C108A 1_555 1_555
C109A Fe1A 1_555 1_555
H120A C109A 1_555 1_555
C110A Fe1A 1_555 1_555
H121A C110A 1_555 1_555
C111A H122A 1_555 1_555
C112A Fe2A 1_555 1_555
H123A C112A 1_555 1_555
C113A Fe2A 1_555 1_555
C114A Fe2A 1_555 1_555
H124A C114A 1_555 1_555
C115A Fe2A 1_555 1_555
H125A C115A 1_555 1_555
C116A Fe2A 1_555 1_555
H126A C116A 1_555 1_555
C117A Fe2A 1_555 1_555
C118A Fe2A 1_555 1_555
H127A C118A 1_555 1_555
C119A Fe2A 1_555 1_555
H128A C119A 1_555 1_555
C120A Fe2A 1_555 1_555
H129A C120A 1_555 1_555
P2 C106 1_555 1_555
P3 C117 1_555 1_555
P4 C113 1_555 1_555
C4 C5 1_555 1_555
C6 C7 1_555 1_555
C8 C11 1_555 1_555
C9 C10 1_555 1_555
C9 C12 1_555 1_555
C17 C27 1_555 1_555
C18 C19 1_555 1_555
C23 C25 1_555 1_555
C24 C26 1_555 1_555
C33 C34 1_555 1_555
C35 C36 1_555 1_555
C39 C40 1_555 1_555
C45 C46 1_555 1_555
C51 C52 1_555 1_555
C57 C58 1_555 1_555
C63 C76 1_555 1_555
C68 C75 1_555 1_555
C73 C74 1_555 1_555
C94 C95 1_555 1_555
C101 C102 1_555 1_555
C101 C103 1_555 1_555
C102 C105 1_555 1_555
C103 C104 1_555 1_555
C104 C105 1_555 1_555
C106 C107 1_555 1_555
C106 C110 1_555 1_555
C107 C108 1_555 1_555
C108 C109 1_555 1_555
C109 C110 1_555 1_555
C111 C113 1_555 1_555
C111 C114 1_555 1_555
C112 C113 1_555 1_555
C112 C115 1_555 1_555
C114 C115 1_555 1_555
C116 C117 1_555 1_555
C116 C119 1_555 1_555
C117 C118 1_555 1_555
C118 C120 1_555 1_555
C119 C120 1_555 1_555
Pt2A C13A 1_555 1_555
P2A C106A 1_555 1_555
P3A C117A 1_555 1_555
P4A C113A 1_555 1_555
C4A C5A 1_555 1_555
C6A C7A 1_555 1_555
C8A C11A 1_555 1_555
C9A C10A 1_555 1_555
C9A C12A 1_555 1_555
C10A C28A 1_555 1_555
C17A C27A 1_555 1_555
C18A C19A 1_555 1_555
C23A C25A 1_555 1_555
C24A C26A 1_555 1_555
C33A C34A 1_555 1_555
C35A C36A 1_555 1_555
C39A C40A 1_555 1_555
C45A C46A 1_555 1_555
C51A C52A 1_555 1_555
C57A C58A 1_555 1_555
C63A C76A 1_555 1_555
C68A C75A 1_555 1_555
C73A C74A 1_555 1_555
C94A C95A 1_555 1_555
C101A C102A 1_555 1_555
C101A C103A 1_555 1_555
C102A C105A 1_555 1_555
C103A C104A 1_555 1_555
C104A C105A 1_555 1_555
C106A C107A 1_555 1_555
C106A C110A 1_555 1_555
C107A C108A 1_555 1_555
C108A C109A 1_555 1_555
C109A C110A 1_555 1_555
C111A C113A 1_555 1_555
C111A C114A 1_555 1_555
C112A C113A 1_555 1_555
C112A C115A 1_555 1_555
C114A C115A 1_555 1_555
C116A C117A 1_555 1_555
C116A C119A 1_555 1_555
C117A C118A 1_555 1_555
C118A C120A 1_555 1_555
C119A C120A 1_555 1_555

#END
