
#######################################################################
#
#                 Cambridge Crystallographic Data Centre
#                                CCDC 
#
#######################################################################
#
# If this CIF has been generated from an entry in the Cambridge 
# Structural Database, then it will include bibliographic, chemical, 
# crystal, experimental, refinement or atomic coordinate data resulting 
# from the CCDC's data processing and validation procedures.
#
#######################################################################

data_ATIHIV
_chemical_formula_moiety         
'C72 H96 N18 O18 Pd3 6+,6(Cl1 O4 1-),2(H2 O1),3(C3 H6 O1)'
_chemical_name_systematic        
'bis(\m~3~-(2,4,6-Trioxo-1,3,5-triazinane-1,3,5-triyl)triethane-2,1-diyl triisonicotinate)-tris(1,2-bis(dimethylamino)ethane)-tri-palladium hexakis(perchlorate) acetone solvate dihydrate'
_symmetry_cell_setting           rhombohedral
_symmetry_space_group_name_H-M   'R 3'
_symmetry_Int_Tables_number      146
_space_group_name_Hall           'R 3'
loop_
_symmetry_equiv_pos_site_id
_symmetry_equiv_pos_as_xyz
1 x,y,z
2 -y,x-y,z
3 -x+y,-x,z
4 2/3+x,1/3+y,1/3+z
5 2/3-y,1/3+x-y,1/3+z
6 2/3-x+y,1/3-x,1/3+z
7 1/3+x,2/3+y,2/3+z
8 1/3-y,2/3+x-y,2/3+z
9 1/3-x+y,2/3-x,2/3+z
_cell_length_a                   15.52570(10)
_cell_length_b                   15.52570(10)
_cell_length_c                   40.6727(7)
_cell_angle_alpha                90
_cell_angle_beta                 90
_cell_angle_gamma                120
_cell_volume                     8490.55
_exptl_crystal_colour            colorless
_exptl_crystal_description       hexagonal
_cell_formula_units_Z            3
loop_
_atom_site_label
_atom_site_type_symbol
_atom_site_fract_x
_atom_site_fract_y
_atom_site_fract_z
Pd1 Pd 0.37778(4) 0.03323(3) 0.833471(16)
O1 O 0.1377(4) 0.2144(3) 0.73594(9)
O2 O 0.2953(6) 0.3328(4) 0.72480(14)
O3 O -0.1015(6) 0.0936(4) 0.68190(11)
O4 O 0.1742(4) 0.2044(3) 0.94880(10)
O5 O 0.3330(6) 0.3178(4) 0.95844(14)
O6 O 0.1925(5) 0.0713(3) 1.00460(11)
N1 N 0.3290(6) 0.1029(4) 0.80288(12)
N2 N 0.0476(7) 0.1002(4) 0.68038(11)
N3 N 0.3454(6) 0.0963(4) 0.87191(11)
N4 N 0.0616(7) 0.0982(4) 1.00554(10)
N5 N 0.4133(6) -0.0299(4) 0.79477(14)
N6 N 0.4267(6) -0.0398(4) 0.86386(15)
C1 C 0.3918(8) 0.1921(6) 0.79015(16)
H3 H 0.4585 0.2212 0.7960
C2 C 0.3655(8) 0.2427(5) 0.76957(17)
H4 H 0.4132 0.3036 0.7609
C3 C 0.2663(7) 0.2023(5) 0.76158(15)
C4 C 0.2011(7) 0.1127(5) 0.77501(15)
H5 H 0.1335 0.0832 0.7705
C5 C 0.2356(7) 0.0665(5) 0.79511(16)
H6 H 0.1896 0.0051 0.8039
C6 C 0.2361(8) 0.2580(6) 0.73926(17)
C7 C 0.1016(7) 0.2565(5) 0.71119(15)
H7 H 0.1453 0.3280 0.7100
H8 H 0.0354 0.2433 0.7170
C8 C 0.0991(7) 0.2095(5) 0.67839(15)
H9 H 0.0655 0.2289 0.6624
H10 H 0.1666 0.2341 0.6708
C9 C -0.0544(10) 0.0495(7) 0.68037(14)
C10 C 0.4135(7) 0.1809(5) 0.88597(16)
H11 H 0.4790 0.2086 0.8789
C11 C 0.3930(7) 0.2298(5) 0.91020(15)
H12 H 0.4433 0.2881 0.9195
C12 C 0.2949(7) 0.1895(5) 0.92038(15)
C13 C 0.2244(7) 0.1021(5) 0.90694(15)
H13 H 0.1585 0.0728 0.9138
C14 C 0.2522(7) 0.0570(5) 0.88281(19)
H14 H 0.2037 -0.0031 0.8739
C15 C 0.2716(8) 0.2444(6) 0.94511(17)
C16 C 0.1404(7) 0.2512(5) 0.97283(18)
H15 H 0.0774 0.2439 0.9657
H16 H 0.1884 0.3217 0.9741
C17 C 0.1281(8) 0.2050(6) 1.00613(16)
H17 H 0.1926 0.2190 1.0142
H18 H 0.1021 0.2348 1.0212
C18 C 0.1038(10) 0.0400(7) 1.00509(14)
C19 C 0.4782(8) 0.0452(6) 0.76809(19)
H19 H 0.4422 0.0740 0.7582
H20 H 0.4945 0.0116 0.7515
H21 H 0.5382 0.0967 0.7779
C20 C 0.3222(7) -0.1060(5) 0.77831(18)
H22 H 0.2848 -0.0762 0.7704
H23 H 0.2825 -0.1579 0.7937
H24 H 0.3398 -0.1336 0.7601
C21 C 0.4710(9) -0.0726(7) 0.8090(2)
H25 H 0.4682 -0.1235 0.7944
H26 H 0.5401 -0.0211 0.8114
C22 C 0.5249(7) 0.0303(5) 0.87755(17)
H27 H 0.5708 0.0635 0.8599
H28 H 0.5480 -0.0054 0.8907
H29 H 0.5197 0.0784 0.8909
C23 C 0.3556(8) -0.0950(6) 0.89034(19)
H30 H 0.2920 -0.1405 0.8810
H31 H 0.3492 -0.0491 0.9045
H32 H 0.3793 -0.1315 0.9028
C24 C 0.4302(8) -0.1157(6) 0.8408(2)
H33 H 0.4708 -0.1402 0.8507
H34 H 0.3636 -0.1717 0.8380
Pd1A Pd -0.03323(3) 0.34455(5) 0.833471(16)
Pd1B Pd -0.34455(5) -0.37778(4) 0.833471(16)
O1A O -0.2144(3) -0.0767(5) 0.73594(9)
O1B O 0.0767(5) -0.1377(4) 0.73594(9)
O2A O -0.3328(4) -0.0375(7) 0.72480(14)
O2B O 0.0375(7) -0.2953(6) 0.72480(14)
O3B O 0.1951(7) 0.1015(6) 0.68190(11)
O3A O -0.0936(4) -0.1951(7) 0.68190(11)
O4A O -0.2044(3) -0.0302(5) 0.94880(10)
O4B O 0.0302(5) -0.1742(4) 0.94880(10)
O5B O -0.0152(7) -0.3330(6) 0.95844(14)
O5A O -0.3178(4) 0.0152(7) 0.95844(14)
O6A O -0.0713(3) 0.1212(6) 1.00460(11)
O6B O -0.1212(6) -0.1925(5) 1.00460(11)
N1A N -0.1029(4) 0.2261(7) 0.80288(12)
N1B N -0.2261(7) -0.3290(6) 0.80288(12)
N2A N -0.1002(4) -0.0526(8) 0.68038(11)
N2B N 0.0526(8) -0.0476(7) 0.68038(11)
N3A N -0.0963(4) 0.2491(7) 0.87191(11)
N3B N -0.2491(7) -0.3454(6) 0.87191(11)
N4A N -0.0982(4) -0.0366(8) 1.00554(10)
N4B N 0.0366(8) -0.0616(7) 1.00554(10)
N5B N -0.4432(7) -0.4133(6) 0.79477(14)
N5A N 0.0299(4) 0.4432(7) 0.79477(14)
N6B N -0.4665(7) -0.4267(6) 0.86386(15)
N6A N 0.0398(4) 0.4665(7) 0.86386(15)
C1A C -0.1921(6) 0.1997(10) 0.79015(16)
C1B C -0.1997(10) -0.3918(8) 0.79015(16)
H3B H -0.2373 -0.4585 0.7960
H3A H -0.2212 0.2373 0.7960
C2A C -0.2427(5) 0.1228(9) 0.76957(17)
C2B C -0.1228(9) -0.3655(8) 0.76957(17)
H4B H -0.1096 -0.4132 0.7609
H4A H -0.3036 0.1096 0.7609
C3A C -0.2023(5) 0.0640(9) 0.76158(15)
C3B C -0.0640(9) -0.2663(7) 0.76158(15)
C4B C -0.0884(9) -0.2011(7) 0.77501(15)
C4A C -0.1127(5) 0.0884(9) 0.77501(15)
H5B H -0.0503 -0.1335 0.7705
H5A H -0.0832 0.0503 0.7705
C5B C -0.1691(9) -0.2356(7) 0.79511(16)
C5A C -0.0665(5) 0.1691(9) 0.79511(16)
H6B H -0.1845 -0.1896 0.8039
H6A H -0.0051 0.1845 0.8039
C6A C -0.2580(6) -0.0219(10) 0.73926(17)
C6B C 0.0219(10) -0.2361(8) 0.73926(17)
C7A C -0.2565(5) -0.1549(9) 0.71119(15)
C7B C 0.1549(9) -0.1016(7) 0.71119(15)
H7B H 0.1827 -0.1453 0.7100
H7A H -0.3280 -0.1827 0.7100
H8B H 0.2079 -0.0354 0.7170
H8A H -0.2433 -0.2079 0.7170
C8A C -0.2095(5) -0.1104(9) 0.67839(15)
C8B C 0.1104(9) -0.0991(7) 0.67839(15)
H9B H 0.1634 -0.0655 0.6624
H9A H -0.2289 -0.1634 0.6624
H10B H 0.0675 -0.1666 0.6708
H10A H -0.2341 -0.0675 0.6708
C9B C 0.1039(12) 0.0544(10) 0.68037(14)
C9A C -0.0495(7) -0.1039(12) 0.68037(14)
C10A C -0.1809(5) 0.2326(9) 0.88597(16)
C10B C -0.2326(9) -0.4135(7) 0.88597(16)
H11A H -0.2086 0.2704 0.8789
H11B H -0.2704 -0.4790 0.8789
C11A C -0.2298(5) 0.1632(9) 0.91020(15)
C11B C -0.1632(9) -0.3930(7) 0.91020(15)
H12A H -0.2881 0.1552 0.9195
H12B H -0.1552 -0.4433 0.9195
C12A C -0.1895(5) 0.1054(9) 0.92038(15)
C12B C -0.1054(9) -0.2949(7) 0.92038(15)
C13A C -0.1021(5) 0.1223(9) 0.90694(15)
C13B C -0.1223(9) -0.2244(7) 0.90694(15)
H13A H -0.0728 0.0857 0.9138
H13B H -0.0857 -0.1585 0.9138
C14A C -0.0570(5) 0.1952(9) 0.88281(19)
C14B C -0.1952(9) -0.2522(7) 0.88281(19)
H14A H 0.0031 0.2068 0.8739
H14B H -0.2068 -0.2037 0.8739
C15A C -0.2444(6) 0.0272(10) 0.94511(17)
C15B C -0.0272(10) -0.2716(8) 0.94511(17)
C16A C -0.2512(5) -0.1108(9) 0.97283(18)
C16B C 0.1108(9) -0.1404(7) 0.97283(18)
H15A H -0.2439 -0.1665 0.9657
H15B H 0.1665 -0.0774 0.9657
H16A H -0.3217 -0.1333 0.9741
H16B H 0.1333 -0.1884 0.9741
C17A C -0.2050(6) -0.0769(10) 1.00613(16)
C17B C 0.0769(10) -0.1281(8) 1.00613(16)
H17B H 0.0264 -0.1926 1.0142
H17A H -0.2190 -0.0264 1.0142
H18B H 0.1327 -0.1021 1.0212
H18A H -0.2348 -0.1327 1.0212
C18A C -0.0400(7) 0.0638(12) 1.00509(14)
C18B C -0.0638(12) -0.1038(10) 1.00509(14)
C19B C -0.4330(10) -0.4782(8) 0.76809(19)
C19A C -0.0452(6) 0.4330(10) 0.76809(19)
H19B H -0.3682 -0.4422 0.7582
H19A H -0.0740 0.3682 0.7582
H20B H -0.4829 -0.4945 0.7515
H20A H -0.0116 0.4829 0.7515
H21B H -0.4415 -0.5382 0.7779
H21A H -0.0967 0.4415 0.7779
C20B C -0.4282(9) -0.3222(7) 0.77831(18)
C20A C 0.1060(5) 0.4282(9) 0.77831(18)
H22B H -0.3610 -0.2848 0.7704
H22A H 0.0762 0.3610 0.7704
H23B H -0.4404 -0.2825 0.7937
H23A H 0.1579 0.4404 0.7937
H24B H -0.4734 -0.3398 0.7601
H24A H 0.1336 0.4734 0.7601
C21B C -0.5436(11) -0.4710(9) 0.8090(2)
C21A C 0.0726(7) 0.5436(11) 0.8090(2)
H25B H -0.5917 -0.4682 0.7944
H25A H 0.1235 0.5917 0.7944
H26B H -0.5612 -0.5401 0.8114
H26A H 0.0211 0.5612 0.8114
C22B C -0.4946(9) -0.5249(7) 0.87755(17)
C22A C -0.0303(5) 0.4946(9) 0.87755(17)
H27B H -0.5073 -0.5708 0.8599
H27A H -0.0635 0.5073 0.8599
H28B H -0.5534 -0.5480 0.8907
H28A H 0.0054 0.5534 0.8907
H29B H -0.4413 -0.5197 0.8909
H29A H -0.0784 0.4413 0.8909
C23B C -0.4506(10) -0.3556(8) 0.89034(19)
C23A C 0.0950(6) 0.4506(10) 0.89034(19)
H30B H -0.4325 -0.2920 0.8810
H30A H 0.1405 0.4325 0.8810
H31B H -0.3983 -0.3492 0.9045
H31A H 0.0491 0.3983 0.9045
H32B H -0.5108 -0.3793 0.9028
H32A H 0.1315 0.5108 0.9028
C24B C -0.5459(10) -0.4302(8) 0.8408(2)
C24A C 0.1157(6) 0.5459(10) 0.8408(2)
H33B H -0.6110 -0.4708 0.8507
H33A H 0.1402 0.6110 0.8507
H34B H -0.5353 -0.3636 0.8380
H34A H 0.1717 0.5353 0.8380
Cl1 Cl 0.21726(16) 0.28712(17) 0.84701(6)
O7 O 0.3021(4) 0.2799(4) 0.84117(13)
O8 O 0.1331(5) 0.1917(5) 0.8449(2)
O9 O 0.2216(5) 0.3231(5) 0.87914(16)
O10 O 0.2050(7) 0.3410(7) 0.8248(2)
Cl2 Cl 0.3333 -0.3333 0.75864(7)
O11 O 0.3333 -0.3333 0.79396(16)
O12 O 0.4194(4) -0.2472(3) 0.74701(11)
O12A O 0.2472(3) -0.3334(5) 0.74701(11)
O12B O 0.3334(5) -0.4194(4) 0.74701(11)
Cl3 Cl 0.6667 0.3333 0.81311(9)
O13 O 0.6667 0.3333 0.7785(2)
O14 O 0.6173(4) 0.3846(3) 0.82433(11)
O14A O 0.6154(3) 0.2327(5) 0.82433(11)
O14B O 0.7673(5) 0.3827(4) 0.82433(11)
Cl4 Cl 0.6667 0.3333 0.92915(8)
O15 O 0.6667 0.3333 0.8951(2)
O16 O 0.6276(5) 0.3946(4) 0.94071(11)
O16A O 0.6054(4) 0.2330(6) 0.94071(11)
O16B O 0.7670(6) 0.3724(5) 0.94071(11)
O17 O 0.3333 0.6667 0.9379(18)
O18 O -0.1092(12) 0.3188(10) 0.6911(4)
C25 C -0.2921(15) 0.1825(18) 0.6705(7)
H35 H -0.3290 0.1721 0.6904
H36 H -0.2994 0.1204 0.6631
H37 H -0.3168 0.2086 0.6539
C26 C -0.1837(15) 0.2554(15) 0.6767(4)
C27 C -0.1448(16) 0.275(2) 0.6419(4)
H38 H -0.0746 0.3215 0.6421
H39 H -0.1781 0.3024 0.6295
H40 H -0.1570 0.2139 0.6320
O19 O 0.0000 0.0000 0.8169(8)
loop_
_geom_bond_atom_site_label_1
_geom_bond_atom_site_label_2
_geom_bond_site_symmetry_1
_geom_bond_site_symmetry_2
Pd1 N1 1_555 1_555
Cl1 O7 1_555 1_555
Cl2 O11 1_555 1_555
Cl3 O13 1_555 1_555
Cl4 O15 1_555 1_555
O1 C6 1_555 1_555
O2 C6 1_555 1_555
O3 C9 1_555 1_555
O4 C15 1_555 1_555
O5 C15 1_555 1_555
O6 C18 1_555 1_555
O8 Cl1 1_555 1_555
O9 Cl1 1_555 1_555
O10 Cl1 1_555 1_555
O12 Cl2 1_555 1_555
O14 Cl3 1_555 1_555
O16 Cl4 1_555 1_555
N1 C1 1_555 1_555
N2 C8 1_555 1_555
N3 Pd1 1_555 1_555
N4 C17 1_555 1_555
N5 Pd1 1_555 1_555
N6 Pd1 1_555 1_555
C1 H3 1_555 1_555
C2 C1 1_555 1_555
H4 C2 1_555 1_555
C3 C2 1_555 1_555
C4 C3 1_555 1_555
H5 C4 1_555 1_555
C5 N1 1_555 1_555
H6 C5 1_555 1_555
C6 C3 1_555 1_555
C7 O1 1_555 1_555
H7 C7 1_555 1_555
H8 C7 1_555 1_555
C8 C7 1_555 1_555
H9 C8 1_555 1_555
H10 C8 1_555 1_555
C9 N2 1_555 1_555
C10 N3 1_555 1_555
H11 C10 1_555 1_555
C11 C10 1_555 1_555
H12 C11 1_555 1_555
C12 C11 1_555 1_555
C13 C12 1_555 1_555
H13 C13 1_555 1_555
C14 N3 1_555 1_555
H14 C14 1_555 1_555
C15 C12 1_555 1_555
C16 O4 1_555 1_555
H15 C16 1_555 1_555
H16 C16 1_555 1_555
C17 C16 1_555 1_555
H17 C17 1_555 1_555
H18 C17 1_555 1_555
C18 N4 1_555 1_555
C19 N5 1_555 1_555
H19 C19 1_555 1_555
H20 C19 1_555 1_555
H21 C19 1_555 1_555
C20 N5 1_555 1_555
H22 C20 1_555 1_555
H23 C20 1_555 1_555
H24 C20 1_555 1_555
C21 N5 1_555 1_555
H25 C21 1_555 1_555
H26 C21 1_555 1_555
C22 N6 1_555 1_555
H27 C22 1_555 1_555
H28 C22 1_555 1_555
H29 C22 1_555 1_555
C23 N6 1_555 1_555
H30 C23 1_555 1_555
H31 C23 1_555 1_555
H32 C23 1_555 1_555
C24 N6 1_555 1_555
H33 C24 1_555 1_555
H34 C24 1_555 1_555
O18 C26 1_555 1_555
C25 H35 1_555 1_555
H36 C25 1_555 1_555
H37 C25 1_555 1_555
C26 C25 1_555 1_555
C27 C26 1_555 1_555
H38 C27 1_555 1_555
H39 C27 1_555 1_555
H40 C27 1_555 1_555
Pd1A N1A 1_555 1_555
Pd1B N1B 1_555 1_555
O1A C6A 1_555 1_555
O1B C6B 1_555 1_555
O2A C6A 1_555 1_555
O2B C6B 1_555 1_555
O3B C9B 1_555 1_555
O3A C9A 1_555 1_555
O4A C15A 1_555 1_555
O4B C15B 1_555 1_555
O5B C15B 1_555 1_555
O5A C15A 1_555 1_555
O6A C18A 1_555 1_555
O6B C18B 1_555 1_555
O12A Cl2 1_555 1_555
O12B Cl2 1_555 1_555
O14A Cl3 1_555 1_555
O14B Cl3 1_555 1_555
O16A Cl4 1_555 1_555
O16B Cl4 1_555 1_555
N1A C1A 1_555 1_555
N1B C1B 1_555 1_555
N2A C9 1_555 1_555
N2B C8B 1_555 1_555
N3A Pd1A 1_555 1_555
N3B Pd1B 1_555 1_555
N4A C17A 1_555 1_555
N4B C18 1_555 1_555
N5B Pd1B 1_555 1_555
N5A Pd1A 1_555 1_555
N6B Pd1B 1_555 1_555
N6A Pd1A 1_555 1_555
C1A H3A 1_555 1_555
C1B H3B 1_555 1_555
C2A C1A 1_555 1_555
C2B C1B 1_555 1_555
H4B C2B 1_555 1_555
H4A C2A 1_555 1_555
C3A C2A 1_555 1_555
C3B C2B 1_555 1_555
C4B C3B 1_555 1_555
C4A C3A 1_555 1_555
H5B C4B 1_555 1_555
H5A C4A 1_555 1_555
C5B N1B 1_555 1_555
C5A N1A 1_555 1_555
H6B C5B 1_555 1_555
H6A C5A 1_555 1_555
C6A C3A 1_555 1_555
C6B C3B 1_555 1_555
C7A O1A 1_555 1_555
C7B O1B 1_555 1_555
H7B C7B 1_555 1_555
H7A C7A 1_555 1_555
H8B C7B 1_555 1_555
H8A C7A 1_555 1_555
C8A N2A 1_555 1_555
C8B C7B 1_555 1_555
H9B C8B 1_555 1_555
H9A C8A 1_555 1_555
H10B C8B 1_555 1_555
H10A C8A 1_555 1_555
C9B N2 1_555 1_555
C9A N2A 1_555 1_555
C10A N3A 1_555 1_555
C10B N3B 1_555 1_555
H11A C10A 1_555 1_555
H11B C10B 1_555 1_555
C11A C10A 1_555 1_555
C11B C10B 1_555 1_555
H12A C11A 1_555 1_555
H12B C11B 1_555 1_555
C12A C11A 1_555 1_555
C12B C11B 1_555 1_555
C13A C12A 1_555 1_555
C13B C12B 1_555 1_555
H13A C13A 1_555 1_555
H13B C13B 1_555 1_555
C14A N3A 1_555 1_555
C14B N3B 1_555 1_555
H14A C14A 1_555 1_555
H14B C14B 1_555 1_555
C15A C12A 1_555 1_555
C15B C12B 1_555 1_555
C16A O4A 1_555 1_555
C16B O4B 1_555 1_555
H15A C16A 1_555 1_555
H15B C16B 1_555 1_555
H16A C16A 1_555 1_555
H16B C16B 1_555 1_555
C17A C16A 1_555 1_555
C17B N4B 1_555 1_555
H17B C17B 1_555 1_555
H17A C17A 1_555 1_555
H18B C17B 1_555 1_555
H18A C17A 1_555 1_555
C18A N4 1_555 1_555
C18B N4A 1_555 1_555
C19B N5B 1_555 1_555
C19A N5A 1_555 1_555
H19B C19B 1_555 1_555
H19A C19A 1_555 1_555
H20B C19B 1_555 1_555
H20A C19A 1_555 1_555
H21B C19B 1_555 1_555
H21A C19A 1_555 1_555
C20B N5B 1_555 1_555
C20A N5A 1_555 1_555
H22B C20B 1_555 1_555
H22A C20A 1_555 1_555
H23B C20B 1_555 1_555
H23A C20A 1_555 1_555
H24B C20B 1_555 1_555
H24A C20A 1_555 1_555
C21B N5B 1_555 1_555
C21A N5A 1_555 1_555
H25B C21B 1_555 1_555
H25A C21A 1_555 1_555
H26B C21B 1_555 1_555
H26A C21A 1_555 1_555
C22B N6B 1_555 1_555
C22A N6A 1_555 1_555
H27B C22B 1_555 1_555
H27A C22A 1_555 1_555
H28B C22B 1_555 1_555
H28A C22A 1_555 1_555
H29B C22B 1_555 1_555
H29A C22A 1_555 1_555
C23B N6B 1_555 1_555
C23A N6A 1_555 1_555
H30B C23B 1_555 1_555
H30A C23A 1_555 1_555
H31B C23B 1_555 1_555
H31A C23A 1_555 1_555
H32B C23B 1_555 1_555
H32A C23A 1_555 1_555
C24B N6B 1_555 1_555
C24A N6A 1_555 1_555
H33B C24B 1_555 1_555
H33A C24A 1_555 1_555
H34B C24B 1_555 1_555
H34A C24A 1_555 1_555
C4 C5 1_555 1_555
C13 C14 1_555 1_555
C21 C24 1_555 1_555
N2B C9B 1_555 1_555
N2B C9A 1_555 1_555
N4A C18A 1_555 1_555
N4B C18B 1_555 1_555
C4B C5B 1_555 1_555
C4A C5A 1_555 1_555
C7A C8A 1_555 1_555
C13A C14A 1_555 1_555
C13B C14B 1_555 1_555
C16B C17B 1_555 1_555
C21B C24B 1_555 1_555
C21A C24A 1_555 1_555

#END
