
#######################################################################
#
#                 Cambridge Crystallographic Data Centre
#                                CCDC 
#
#######################################################################
#
# If this CIF has been generated from an entry in the Cambridge 
# Structural Database, then it will include bibliographic, chemical, 
# crystal, experimental, refinement or atomic coordinate data resulting 
# from the CCDC's data processing and validation procedures.
#
#######################################################################

data_ATIHER
_chemical_formula_moiety         
'C72 H96 N18 O18 Pd3 6+,6(B1 F4 1-),H2 O1,3(C3 H8 O1)'
_chemical_name_systematic        
'bis(\m~3~-(2,4,6-Trioxo-1,3,5-triazinane-1,3,5-triyl)triethane-2,1-diyl triisonicotinate)-tris(1,2-bis(dimethylamino)ethane)-tri-palladium hexakis(tetrafluoroborate) isopropanol solvate monohydrate'
_symmetry_cell_setting           rhombohedral
_symmetry_space_group_name_H-M   'R 3'
_symmetry_Int_Tables_number      146
_space_group_name_Hall           'R 3'
loop_
_symmetry_equiv_pos_site_id
_symmetry_equiv_pos_as_xyz
1 x,y,z
2 -y,x-y,z
3 -x+y,-x,z
4 2/3+x,1/3+y,1/3+z
5 2/3-y,1/3+x-y,1/3+z
6 2/3-x+y,1/3-x,1/3+z
7 1/3+x,2/3+y,2/3+z
8 1/3-y,2/3+x-y,2/3+z
9 1/3-x+y,2/3-x,2/3+z
_cell_length_a                   15.5209(6)
_cell_length_b                   15.5209(6)
_cell_length_c                   39.8268(18)
_cell_angle_alpha                90
_cell_angle_beta                 90
_cell_angle_gamma                120
_cell_volume                     8308.83
_exptl_crystal_colour            yellow
_exptl_crystal_description       triangle
_cell_formula_units_Z            3
loop_
_atom_site_label
_atom_site_type_symbol
_atom_site_fract_x
_atom_site_fract_y
_atom_site_fract_z
Pd1 Pd 0.37162(4) 0.01961(3) -0.1623(2)
O1 O 0.3053(6) 0.3271(4) -0.2741(3)
O2 O 0.1464(5) 0.2086(3) -0.2650(3)
O3 O -0.0941(8) 0.1003(6) -0.3218(3)
O4 O 0.3228(6) 0.3173(4) -0.0411(3)
O5 O 0.1615(6) 0.2055(4) -0.0515(3)
O6 O -0.0791(6) 0.1141(4) 0.0057(3)
N1 N 0.3299(6) 0.0931(4) -0.1949(3)
N2 N 0.0522(7) 0.0998(5) -0.3238(3)
N3 N 0.3364(6) 0.0851(4) -0.1248(3)
N4 N 0.0584(6) 0.0985(4) 0.0065(3)
N5 N 0.4079(6) -0.0465(5) -0.2009(3)
N6 N 0.4145(8) -0.0547(6) -0.1299(3)
C1 C 0.2339(7) 0.0531(5) -0.2040(3)
H1 H 0.1879 -0.0095 -0.1959
C2 C 0.2018(7) 0.1014(5) -0.2248(3)
H2 H 0.1347 0.0734 -0.2301
C3 C 0.2719(6) 0.1937(4) -0.2378(3)
C4 C 0.3710(7) 0.2329(5) -0.2286(3)
H3 H 0.4195 0.2943 -0.2369
C5 C 0.3963(8) 0.1803(5) -0.2074(3)
H4 H 0.4627 0.2066 -0.2015
C6 C 0.2456(8) 0.2532(5) -0.2610(3)
C7 C 0.1108(8) 0.2524(6) -0.2899(3)
H5 H 0.1545 0.3240 -0.2904
H6 H 0.0446 0.2388 -0.2839
C8 C 0.1081(10) 0.2102(6) -0.3237(3)
H7 H 0.0774 0.2343 -0.3395
H8 H 0.1757 0.2334 -0.3312
C9 C -0.0515(10) 0.0543(7) -0.3237(3)
C10 C 0.2405(7) 0.0483(5) -0.1155(3)
H9 H 0.1918 -0.0112 -0.1249
C11 C 0.2127(8) 0.0964(5) -0.0925(3)
H10 H 0.1463 0.0695 -0.0863
C12 C 0.2854(7) 0.1855(5) -0.0787(3)
C13 C 0.3817(8) 0.2210(5) -0.0881(3)
H11 H 0.4318 0.2797 -0.0787
C14 C 0.4050(7) 0.1712(5) -0.1110(3)
H12 H 0.4711 0.1978 -0.1173
C15 C 0.2606(8) 0.2438(5) -0.0553(3)
C16 C 0.1310(8) 0.2528(5) -0.0276(3)
H13 H 0.0674 0.2451 -0.0342
H14 H 0.1793 0.3234 -0.0268
C17 C 0.1218(9) 0.2073(6) 0.0071(3)
H15 H 0.1874 0.2245 0.0151
H16 H 0.0939 0.2351 0.0225
C18 C -0.0422(8) 0.0619(6) 0.0063(3)
C19 C 0.4805(17) 0.0289(11) -0.2264(5)
H17 H 0.4511 0.0646 -0.2362
H18 H 0.4944 -0.0056 -0.2436
H19 H 0.5412 0.0749 -0.2152
C20 C 0.3232(11) -0.1112(8) -0.2200(3)
H20 H 0.2921 -0.0753 -0.2283
H21 H 0.2770 -0.1651 -0.2060
H22 H 0.3428 -0.1371 -0.2385
C21 C 0.4600(16) -0.0928(13) -0.1856(4)
H23 H 0.4544 -0.1456 -0.2001
H24 H 0.5300 -0.0438 -0.1833
C22 C 0.4228(11) -0.1300(9) -0.1557(5)
H25 H 0.4640 -0.1536 -0.1455
H26 H 0.3570 -0.1871 -0.1588
C23 C 0.5066(16) 0.0109(11) -0.1125(6)
H27 H 0.5567 0.0515 -0.1285
H28 H 0.5281 -0.0281 -0.1001
H29 H 0.4960 0.0527 -0.0973
C24 C 0.3358(14) -0.1160(11) -0.1052(4)
H30 H 0.2761 -0.1616 -0.1169
H31 H 0.3229 -0.0735 -0.0911
H32 H 0.3575 -0.1526 -0.0916
Pd1A Pd -0.01961(3) 0.35201(5) -0.1623(2)
Pd1B Pd -0.35201(5) -0.37162(4) -0.1623(2)
O1A O -0.3271(4) -0.0218(7) -0.2741(3)
O1B O 0.0218(7) -0.3053(6) -0.2741(3)
O2A O -0.2086(3) -0.0622(6) -0.2650(3)
O2B O 0.0622(6) -0.1464(5) -0.2650(3)
O3B O 0.1944(10) 0.0941(8) -0.3218(3)
O3A O -0.1003(6) -0.1944(10) -0.3218(3)
O4A O -0.3173(4) 0.0055(7) -0.0411(3)
O4B O -0.0055(7) -0.3228(6) -0.0411(3)
O5A O -0.2055(4) -0.0440(7) -0.0515(3)
O5B O 0.0440(7) -0.1615(6) -0.0515(3)
O6A O -0.1141(4) -0.1932(7) 0.0057(3)
O6B O 0.1932(7) 0.0791(6) 0.0057(3)
N1A N -0.0931(4) 0.2368(7) -0.1949(3)
N1B N -0.2368(7) -0.3299(6) -0.1949(3)
N2A N -0.0998(5) -0.0476(9) -0.3238(3)
N2B N 0.0476(9) -0.0522(7) -0.3238(3)
N3A N -0.0851(4) 0.2513(7) -0.1248(3)
N3B N -0.2513(7) -0.3364(6) -0.1248(3)
N4A N -0.0985(4) -0.0401(7) 0.0065(3)
N4B N 0.0401(7) -0.0584(6) 0.0065(3)
N5B N -0.4544(8) -0.4079(6) -0.2009(3)
N5A N 0.0465(5) 0.4544(8) -0.2009(3)
N6B N -0.4692(10) -0.4145(8) -0.1299(3)
N6A N 0.0547(6) 0.4692(10) -0.1299(3)
C1A C -0.0531(5) 0.1808(9) -0.2040(3)
C1B C -0.1808(9) -0.2339(7) -0.2040(3)
H1B H -0.1974 -0.1879 -0.1959
H1A H 0.0095 0.1974 -0.1959
C2A C -0.1014(5) 0.1004(9) -0.2248(3)
C2B C -0.1004(9) -0.2018(7) -0.2248(3)
H2B H -0.0613 -0.1347 -0.2301
H2A H -0.0734 0.0613 -0.2301
C3A C -0.1937(4) 0.0782(7) -0.2378(3)
C3B C -0.0782(7) -0.2719(6) -0.2378(3)
C4B C -0.1381(9) -0.3710(7) -0.2286(3)
C4A C -0.2329(5) 0.1381(9) -0.2286(3)
H3B H -0.1252 -0.4195 -0.2369
H3A H -0.2943 0.1252 -0.2369
C5B C -0.2160(9) -0.3963(8) -0.2074(3)
C5A C -0.1803(5) 0.2160(9) -0.2074(3)
H4B H -0.2561 -0.4627 -0.2015
H4A H -0.2066 0.2561 -0.2015
C6A C -0.2532(5) -0.0076(9) -0.2610(3)
C6B C 0.0076(9) -0.2456(8) -0.2610(3)
C7A C -0.2524(6) -0.1416(10) -0.2899(3)
C7B C 0.1416(10) -0.1108(8) -0.2899(3)
H5B H 0.1695 -0.1545 -0.2904
H5A H -0.3240 -0.1695 -0.2904
H6B H 0.1942 -0.0446 -0.2839
H6A H -0.2388 -0.1942 -0.2839
C8A C -0.2102(6) -0.1021(12) -0.3237(3)
C8B C 0.1021(12) -0.1081(10) -0.3237(3)
H7B H 0.1569 -0.0774 -0.3395
H7A H -0.2343 -0.1569 -0.3395
H8B H 0.0577 -0.1757 -0.3312
H8A H -0.2334 -0.0577 -0.3312
C9B C 0.1058(12) 0.0515(10) -0.3237(3)
C9A C -0.0543(7) -0.1058(12) -0.3237(3)
C10A C -0.0483(5) 0.1922(9) -0.1155(3)
C10B C -0.1922(9) -0.2405(7) -0.1155(3)
H9A H 0.0112 0.2030 -0.1249
H9B H -0.2030 -0.1918 -0.1249
C11A C -0.0964(5) 0.1163(9) -0.0925(3)
C11B C -0.1163(9) -0.2127(8) -0.0925(3)
H10A H -0.0695 0.0768 -0.0863
H10B H -0.0768 -0.1463 -0.0863
C12A C -0.1855(5) 0.0999(9) -0.0787(3)
C12B C -0.0999(9) -0.2854(7) -0.0787(3)
C13A C -0.2210(5) 0.1607(9) -0.0881(3)
C13B C -0.1607(9) -0.3817(8) -0.0881(3)
H11A H -0.2797 0.1521 -0.0787
H11B H -0.1521 -0.4318 -0.0787
C14A C -0.1712(5) 0.2338(9) -0.1110(3)
C14B C -0.2338(9) -0.4050(7) -0.1110(3)
H12A H -0.1978 0.2733 -0.1173
H12B H -0.2733 -0.4711 -0.1173
C15A C -0.2438(5) 0.0168(9) -0.0553(3)
C15B C -0.0168(9) -0.2606(8) -0.0553(3)
C16A C -0.2528(5) -0.1218(9) -0.0276(3)
C16B C 0.1218(9) -0.1310(8) -0.0276(3)
H13A H -0.2451 -0.1777 -0.0342
H13B H 0.1777 -0.0674 -0.0342
H14A H -0.3234 -0.1441 -0.0268
H14B H 0.1441 -0.1793 -0.0268
C17A C -0.2073(6) -0.0855(11) 0.0071(3)
C17B C 0.0855(11) -0.1218(9) 0.0071(3)
H15B H 0.0371 -0.1874 0.0151
H15A H -0.2245 -0.0371 0.0151
H16B H 0.1412 -0.0939 0.0225
H16A H -0.2351 -0.1412 0.0225
C18A C -0.0619(6) -0.1041(10) 0.0063(3)
C18B C 0.1041(10) 0.0422(8) 0.0063(3)
C19B C -0.4516(20) -0.4805(17) -0.2264(5)
C19A C -0.0289(11) 0.4516(20) -0.2264(5)
H17B H -0.3865 -0.4511 -0.2362
H17A H -0.0646 0.3865 -0.2362
H18B H -0.5000 -0.4944 -0.2436
H18A H 0.0056 0.5000 -0.2436
H19B H -0.4663 -0.5412 -0.2152
H19A H -0.0749 0.4663 -0.2152
C20B C -0.4344(14) -0.3232(11) -0.2200(3)
C20A C 0.1112(8) 0.4344(14) -0.2200(3)
H20B H -0.3674 -0.2921 -0.2283
H20A H 0.0753 0.3674 -0.2283
H21B H -0.4421 -0.2770 -0.2060
H21A H 0.1651 0.4421 -0.2060
H22B H -0.4799 -0.3428 -0.2385
H22A H 0.1371 0.4799 -0.2385
C21B C -0.5528(21) -0.4600(16) -0.1856(4)
C21A C 0.0928(13) 0.5528(21) -0.1856(4)
H23B H -0.6000 -0.4544 -0.2001
H23A H 0.1456 0.6000 -0.2001
H24B H -0.5738 -0.5300 -0.1833
H24A H 0.0438 0.5738 -0.1833
C22B C -0.5528(14) -0.4228(11) -0.1557(5)
C22A C 0.1300(9) 0.5528(14) -0.1557(5)
H25B H -0.6176 -0.4640 -0.1455
H25A H 0.1536 0.6176 -0.1455
H26B H -0.5441 -0.3570 -0.1588
H26A H 0.1871 0.5441 -0.1588
C23B C -0.4957(19) -0.5066(16) -0.1125(6)
C23A C -0.0109(11) 0.4957(19) -0.1125(6)
H27B H -0.5052 -0.5567 -0.1285
H27A H -0.0515 0.5052 -0.1285
H28B H -0.5562 -0.5281 -0.1001
H28A H 0.0281 0.5562 -0.1001
H29B H -0.4433 -0.4960 -0.0973
H29A H -0.0527 0.4433 -0.0973
C24B C -0.4518(18) -0.3358(14) -0.1052(4)
C24A C 0.1160(11) 0.4518(18) -0.1052(4)
H30B H -0.4377 -0.2761 -0.1169
H30A H 0.1616 0.4377 -0.1169
H31B H -0.3964 -0.3229 -0.0911
H31A H 0.0735 0.3964 -0.0911
H32B H -0.5101 -0.3575 -0.0916
H32A H 0.1526 0.5101 -0.0916
B1 B 0.2237(6) 0.2877(7) -0.1548(3)
F1 F 0.3056(4) 0.2828(5) -0.1580(3)
F2 F 0.2168(11) 0.3414(12) -0.1771(5)
F3 F 0.2253(8) 0.3234(8) -0.1240(3)
F4 F 0.1425(5) 0.1995(7) -0.1580(4)
B2 B -0.3333 0.3333 0.4252(4)
F5 F -0.3333 0.3333 0.4597(3)
F6 F -0.2497(6) 0.4178(4) 0.4136(3)
F6A F -0.4178(4) 0.3325(7) 0.4136(3)
F6B F -0.3325(7) 0.2497(6) 0.4136(3)
B3 B 0.3333 0.6667 0.2537(5)
F7 F 0.3333 0.6667 0.2231(4)
F8 F 0.2902(8) 0.7190(6) 0.2665(3)
F8A F 0.2810(6) 0.5712(10) 0.2665(3)
F8B F 0.4288(10) 0.7098(8) 0.2665(3)
B4 B -0.6667 -0.3333 0.1007(3)
F9 F -0.6667 -0.3333 0.1341(3)
F10 F -0.5733(14) -0.2754(9) 0.0907(3)
F10A F -0.7246(9) -0.2979(17) 0.0907(3)
F10B F -0.7021(17) -0.4267(14) 0.0907(3)
O7 O 0.0000 0.0000 -0.1664(19)
O8 O -0.268(3) 0.1958(16) -0.3263(11)
C25 C -0.121(3) 0.3122(19) -0.3022(6)
H35 H -0.1466 0.2594 -0.2860
H36 H -0.1319 0.3646 -0.2944
H37 H -0.0510 0.3377 -0.3051
C26 C -0.167(3) 0.2781(17) -0.3310(8)
C27 C -0.145(5) 0.323(3) -0.3587(7)
H38 H -0.1901 0.2800 -0.3757
H39 H -0.0781 0.3397 -0.3647
H40 H -0.1491 0.3820 -0.3570
H33? H 0.0000 0.0000 -0.1872
H34? H 0.0442 0.0567 -0.1593
loop_
_geom_bond_atom_site_label_1
_geom_bond_atom_site_label_2
_geom_bond_site_symmetry_1
_geom_bond_site_symmetry_2
Pd1 N1 1_555 1_555
O1 C6 1_555 1_555
O2 C6 1_555 1_555
O3 C9 1_555 1_555
O4 C15 1_555 1_555
O5 C15 1_555 1_555
O6 C18 1_555 1_555
N1 C1 1_555 1_555
N2 C8 1_555 1_555
N3 Pd1 1_555 1_555
N4 C17 1_555 1_555
N5 Pd1 1_555 1_555
N6 Pd1 1_555 1_555
C1 H1 1_555 1_555
C2 C1 1_555 1_555
H2 C2 1_555 1_555
C3 C2 1_555 1_555
C4 C3 1_555 1_555
H3 C4 1_555 1_555
C5 N1 1_555 1_555
H4 C5 1_555 1_555
C6 C3 1_555 1_555
C7 O2 1_555 1_555
H5 C7 1_555 1_555
H6 C7 1_555 1_555
C8 C7 1_555 1_555
H7 C8 1_555 1_555
H8 C8 1_555 1_555
C9 N2 1_555 1_555
C10 N3 1_555 1_555
H9 C10 1_555 1_555
C11 C10 1_555 1_555
H10 C11 1_555 1_555
C12 C11 1_555 1_555
C13 C12 1_555 1_555
H11 C13 1_555 1_555
C14 N3 1_555 1_555
H12 C14 1_555 1_555
C15 C12 1_555 1_555
C16 O5 1_555 1_555
H13 C16 1_555 1_555
H14 C16 1_555 1_555
C17 C16 1_555 1_555
H15 C17 1_555 1_555
H16 C17 1_555 1_555
C18 N4 1_555 1_555
C19 N5 1_555 1_555
H17 C19 1_555 1_555
H18 C19 1_555 1_555
H19 C19 1_555 1_555
C20 N5 1_555 1_555
H20 C20 1_555 1_555
H21 C20 1_555 1_555
H22 C20 1_555 1_555
C21 N5 1_555 1_555
H23 C21 1_555 1_555
H24 C21 1_555 1_555
C22 N6 1_555 1_555
H25 C22 1_555 1_555
H26 C22 1_555 1_555
C23 N6 1_555 1_555
H27 C23 1_555 1_555
H28 C23 1_555 1_555
H29 C23 1_555 1_555
C24 N6 1_555 1_555
H30 C24 1_555 1_555
H31 C24 1_555 1_555
H32 C24 1_555 1_555
B1 F1 1_555 1_555
F2 B1 1_555 1_555
F3 B1 1_555 1_555
F4 B1 1_555 1_555
B2 F5 1_555 1_555
F6 B2 1_555 1_555
B3 F7 1_555 1_555
F8 B3 1_555 1_555
B4 F9 1_555 1_555
F10 B4 1_555 1_555
O8 C26 1_555 1_555
C25 H35 1_555 1_555
H36 C25 1_555 1_555
H37 C25 1_555 1_555
C26 C25 1_555 1_555
C27 C26 1_555 1_555
H38 C27 1_555 1_555
H39 C27 1_555 1_555
H40 C27 1_555 1_555
Pd1A N1A 1_555 1_555
Pd1B N1B 1_555 1_555
O1A C6A 1_555 1_555
O1B C6B 1_555 1_555
O2A C6A 1_555 1_555
O2B C6B 1_555 1_555
O3B C9B 1_555 1_555
O3A C9A 1_555 1_555
O4A C15A 1_555 1_555
O4B C15B 1_555 1_555
O5A C15A 1_555 1_555
O5B C15B 1_555 1_555
O6A C18A 1_555 1_555
O6B C18B 1_555 1_555
N1A C1A 1_555 1_555
N1B C1B 1_555 1_555
N2A C9 1_555 1_555
N2B C8B 1_555 1_555
N3A Pd1A 1_555 1_555
N3B Pd1B 1_555 1_555
N4A C18 1_555 1_555
N4B C17B 1_555 1_555
N5B Pd1B 1_555 1_555
N5A Pd1A 1_555 1_555
N6B Pd1B 1_555 1_555
N6A Pd1A 1_555 1_555
C1A H1A 1_555 1_555
C1B H1B 1_555 1_555
C2A C1A 1_555 1_555
C2B C1B 1_555 1_555
H2B C2B 1_555 1_555
H2A C2A 1_555 1_555
C3A C2A 1_555 1_555
C3B C2B 1_555 1_555
C4B C3B 1_555 1_555
C4A C3A 1_555 1_555
H3B C4B 1_555 1_555
H3A C4A 1_555 1_555
C5B N1B 1_555 1_555
C5A N1A 1_555 1_555
H4B C5B 1_555 1_555
H4A C5A 1_555 1_555
C6A C3A 1_555 1_555
C6B C3B 1_555 1_555
C7A O2A 1_555 1_555
C7B O2B 1_555 1_555
H5B C7B 1_555 1_555
H5A C7A 1_555 1_555
H6B C7B 1_555 1_555
H6A C7A 1_555 1_555
C8A N2A 1_555 1_555
C8B C7B 1_555 1_555
H7B C8B 1_555 1_555
H7A C8A 1_555 1_555
H8B C8B 1_555 1_555
H8A C8A 1_555 1_555
C9B N2 1_555 1_555
C9A N2A 1_555 1_555
C10A N3A 1_555 1_555
C10B N3B 1_555 1_555
H9A C10A 1_555 1_555
H9B C10B 1_555 1_555
C11A C10A 1_555 1_555
C11B C10B 1_555 1_555
H10A C11A 1_555 1_555
H10B C11B 1_555 1_555
C12A C11A 1_555 1_555
C12B C11B 1_555 1_555
C13A C12A 1_555 1_555
C13B C12B 1_555 1_555
H11A C13A 1_555 1_555
H11B C13B 1_555 1_555
C14A N3A 1_555 1_555
C14B N3B 1_555 1_555
H12A C14A 1_555 1_555
H12B C14B 1_555 1_555
C15A C12A 1_555 1_555
C15B C12B 1_555 1_555
C16A O5A 1_555 1_555
C16B O5B 1_555 1_555
H13A C16A 1_555 1_555
H13B C16B 1_555 1_555
H14A C16A 1_555 1_555
H14B C16B 1_555 1_555
C17A N4A 1_555 1_555
C17B C16B 1_555 1_555
H15B C17B 1_555 1_555
H15A C17A 1_555 1_555
H16B C17B 1_555 1_555
H16A C17A 1_555 1_555
C18A N4A 1_555 1_555
C18B N4 1_555 1_555
C19B N5B 1_555 1_555
C19A N5A 1_555 1_555
H17B C19B 1_555 1_555
H17A C19A 1_555 1_555
H18B C19B 1_555 1_555
H18A C19A 1_555 1_555
H19B C19B 1_555 1_555
H19A C19A 1_555 1_555
C20B N5B 1_555 1_555
C20A N5A 1_555 1_555
H20B C20B 1_555 1_555
H20A C20A 1_555 1_555
H21B C20B 1_555 1_555
H21A C20A 1_555 1_555
H22B C20B 1_555 1_555
H22A C20A 1_555 1_555
C21B N5B 1_555 1_555
C21A N5A 1_555 1_555
H23B C21B 1_555 1_555
H23A C21A 1_555 1_555
H24B C21B 1_555 1_555
H24A C21A 1_555 1_555
C22B N6B 1_555 1_555
C22A N6A 1_555 1_555
H25B C22B 1_555 1_555
H25A C22A 1_555 1_555
H26B C22B 1_555 1_555
H26A C22A 1_555 1_555
C23B N6B 1_555 1_555
C23A N6A 1_555 1_555
H27B C23B 1_555 1_555
H27A C23A 1_555 1_555
H28B C23B 1_555 1_555
H28A C23A 1_555 1_555
H29B C23B 1_555 1_555
H29A C23A 1_555 1_555
C24B N6B 1_555 1_555
C24A N6A 1_555 1_555
H30B C24B 1_555 1_555
H30A C24A 1_555 1_555
H31B C24B 1_555 1_555
H31A C24A 1_555 1_555
H32B C24B 1_555 1_555
H32A C24A 1_555 1_555
F6A B2 1_555 1_555
F6B B2 1_555 1_555
F8A B3 1_555 1_555
F8B B3 1_555 1_555
F10A B4 1_555 1_555
F10B B4 1_555 1_555
C4 C5 1_555 1_555
C13 C14 1_555 1_555
C21 C22 1_555 1_555
N2B C9B 1_555 1_555
N2B C9A 1_555 1_555
N4B C18A 1_555 1_555
N4B C18B 1_555 1_555
C4B C5B 1_555 1_555
C4A C5A 1_555 1_555
C7A C8A 1_555 1_555
C13A C14A 1_555 1_555
C13B C14B 1_555 1_555
C16A C17A 1_555 1_555
C21B C22B 1_555 1_555
C21A C22A 1_555 1_555

#END
