
#######################################################################
#
#                 Cambridge Crystallographic Data Centre
#                                CCDC 
#
#######################################################################
#
# If this CIF has been generated from an entry in the Cambridge 
# Structural Database, then it will include bibliographic, chemical, 
# crystal, experimental, refinement or atomic coordinate data resulting 
# from the CCDC's data processing and validation procedures.
#
#######################################################################

data_ATOXIR
_chemical_name_common            
'Octa-sodium hexakis(methyltripentylammonium) tetrakis(mu!3$-10,15-Dihydro-5H-tribenzo[a,d,g][9]annulene-2,3,7,8,12,13-hexolato)-hexa-copper(ii) di-iodide hydrate'
_chemical_formula_moiety         
'8(Na1 1+),6(C16 H36 N1 1+),C84 H48 Cu6 O24 12-,2(I1 1-),79(H2 O1)'
_chemical_name_systematic        
'Octa-sodium hexakis(methyltripentylammonium) tetrakis(\m~3~-cyclotricatechylene)-hexa-copper(ii) di-iodide hydrate'
_symmetry_cell_setting           cubic
_symmetry_space_group_name_H-M   'F d -3 m'
_symmetry_Int_Tables_number      227
_space_group_name_Hall           '-F 4vw 2vw 3'
loop_
_symmetry_equiv_pos_site_id
_symmetry_equiv_pos_as_xyz
1 x,y,z
2 3/4-x,1/4-y,1/2+z
3 1/4-x,1/2+y,3/4-z
4 1/2+x,3/4-y,1/4-z
5 z,x,y
6 1/2+z,3/4-x,1/4-y
7 3/4-z,1/4-x,1/2+y
8 1/4-z,1/2+x,3/4-y
9 y,z,x
10 1/4-y,1/2+z,3/4-x
11 1/2+y,3/4-z,1/4-x
12 3/4-y,1/4-z,1/2+x
13 3/4+y,1/4+x,1/2-z
14 -y,-x,-z
15 1/4+y,1/2-x,3/4+z
16 1/2-y,3/4+x,1/4+z
17 3/4+x,1/4+z,1/2-y
18 1/2-x,3/4+z,1/4+y
19 -x,-z,-y
20 1/4+x,1/2-z,3/4+y
21 3/4+z,1/4+y,1/2-x
22 1/4+z,1/2-y,3/4+x
23 1/2-z,3/4+y,1/4+x
24 -z,-y,-x
25 x,1/2+y,1/2+z
26 3/4-x,3/4-y,z
27 1/4-x,y,1/4-z
28 1/2+x,1/4-y,3/4-z
29 z,1/2+x,1/2+y
30 1/2+z,1/4-x,3/4-y
31 3/4-z,3/4-x,y
32 1/4-z,x,1/4-y
33 y,1/2+z,1/2+x
34 1/4-y,z,1/4-x
35 1/2+y,1/4-z,3/4-x
36 3/4-y,3/4-z,x
37 3/4+y,3/4+x,-z
38 -y,1/2-x,1/2-z
39 1/4+y,-x,1/4+z
40 1/2-y,1/4+x,3/4+z
41 3/4+x,3/4+z,-y
42 1/2-x,1/4+z,3/4+y
43 -x,1/2-z,1/2-y
44 1/4+x,-z,1/4+y
45 3/4+z,3/4+y,-x
46 1/4+z,-y,1/4+x
47 1/2-z,1/4+y,3/4+x
48 -z,1/2-y,1/2-x
49 1/2+x,y,1/2+z
50 1/4-x,1/4-y,z
51 3/4-x,1/2+y,1/4-z
52 x,3/4-y,3/4-z
53 1/2+z,x,1/2+y
54 z,3/4-x,3/4-y
55 1/4-z,1/4-x,y
56 3/4-z,1/2+x,1/4-y
57 1/2+y,z,1/2+x
58 3/4-y,1/2+z,1/4-x
59 y,3/4-z,3/4-x
60 1/4-y,1/4-z,x
61 1/4+y,1/4+x,-z
62 1/2-y,-x,1/2-z
63 3/4+y,1/2-x,1/4+z
64 -y,3/4+x,3/4+z
65 1/4+x,1/4+z,-y
66 -x,3/4+z,3/4+y
67 1/2-x,-z,1/2-y
68 3/4+x,1/2-z,1/4+y
69 1/4+z,1/4+y,-x
70 3/4+z,1/2-y,1/4+x
71 -z,3/4+y,3/4+x
72 1/2-z,-y,1/2-x
73 1/2+x,1/2+y,z
74 1/4-x,3/4-y,1/2+z
75 3/4-x,y,3/4-z
76 x,1/4-y,1/4-z
77 1/2+z,1/2+x,y
78 z,1/4-x,1/4-y
79 1/4-z,3/4-x,1/2+y
80 3/4-z,x,3/4-y
81 1/2+y,1/2+z,x
82 3/4-y,z,3/4-x
83 y,1/4-z,1/4-x
84 1/4-y,3/4-z,1/2+x
85 1/4+y,3/4+x,1/2-z
86 1/2-y,1/2-x,-z
87 3/4+y,-x,3/4+z
88 -y,1/4+x,1/4+z
89 1/4+x,3/4+z,1/2-y
90 -x,1/4+z,1/4+y
91 1/2-x,1/2-z,-y
92 3/4+x,-z,3/4+y
93 1/4+z,3/4+y,1/2-x
94 3/4+z,-y,3/4+x
95 -z,1/4+y,1/4+x
96 1/2-z,1/2-y,-x
97 -x,-y,-z
98 1/4+x,3/4+y,1/2-z
99 3/4+x,1/2-y,1/4+z
100 1/2-x,1/4+y,3/4+z
101 -z,-x,-y
102 1/2-z,1/4+x,3/4+y
103 1/4+z,3/4+x,1/2-y
104 3/4+z,1/2-x,1/4+y
105 -y,-z,-x
106 3/4+y,1/2-z,1/4+x
107 1/2-y,1/4+z,3/4+x
108 1/4+y,3/4+z,1/2-x
109 1/4-y,3/4-x,1/2+z
110 y,x,z
111 3/4-y,1/2+x,1/4-z
112 1/2+y,1/4-x,3/4-z
113 1/4-x,3/4-z,1/2+y
114 1/2+x,1/4-z,3/4-y
115 x,z,y
116 3/4-x,1/2+z,1/4-y
117 1/4-z,3/4-y,1/2+x
118 3/4-z,1/2+y,1/4-x
119 1/2+z,1/4-y,3/4-x
120 z,y,x
121 -x,1/2-y,1/2-z
122 1/4+x,1/4+y,-z
123 3/4+x,-y,3/4+z
124 1/2-x,3/4+y,1/4+z
125 -z,1/2-x,1/2-y
126 1/2-z,3/4+x,1/4+y
127 1/4+z,1/4+x,-y
128 3/4+z,-x,3/4+y
129 -y,1/2-z,1/2-x
130 3/4+y,-z,3/4+x
131 1/2-y,3/4+z,1/4+x
132 1/4+y,1/4+z,-x
133 1/4-y,1/4-x,z
134 y,1/2+x,1/2+z
135 3/4-y,x,3/4-z
136 1/2+y,3/4-x,1/4-z
137 1/4-x,1/4-z,y
138 1/2+x,3/4-z,1/4-y
139 x,1/2+z,1/2+y
140 3/4-x,z,3/4-y
141 1/4-z,1/4-y,x
142 3/4-z,y,3/4-x
143 1/2+z,3/4-y,1/4-x
144 z,1/2+y,1/2+x
145 1/2-x,-y,1/2-z
146 3/4+x,3/4+y,-z
147 1/4+x,1/2-y,3/4+z
148 -x,1/4+y,1/4+z
149 1/2-z,-x,1/2-y
150 -z,1/4+x,1/4+y
151 3/4+z,3/4+x,-y
152 1/4+z,1/2-x,3/4+y
153 1/2-y,-z,1/2-x
154 1/4+y,1/2-z,3/4+x
155 -y,1/4+z,1/4+x
156 3/4+y,3/4+z,-x
157 3/4-y,3/4-x,z
158 1/2+y,x,1/2+z
159 1/4-y,1/2+x,3/4-z
160 y,1/4-x,1/4-z
161 3/4-x,3/4-z,y
162 x,1/4-z,1/4-y
163 1/2+x,z,1/2+y
164 1/4-x,1/2+z,3/4-y
165 3/4-z,3/4-y,x
166 1/4-z,1/2+y,3/4-x
167 z,1/4-y,1/4-x
168 1/2+z,y,1/2+x
169 1/2-x,1/2-y,-z
170 3/4+x,1/4+y,1/2-z
171 1/4+x,-y,1/4+z
172 -x,3/4+y,3/4+z
173 1/2-z,1/2-x,-y
174 -z,3/4+x,3/4+y
175 3/4+z,1/4+x,1/2-y
176 1/4+z,-x,1/4+y
177 1/2-y,1/2-z,-x
178 1/4+y,-z,1/4+x
179 -y,3/4+z,3/4+x
180 3/4+y,1/4+z,1/2-x
181 3/4-y,1/4-x,1/2+z
182 1/2+y,1/2+x,z
183 1/4-y,x,1/4-z
184 y,3/4-x,3/4-z
185 3/4-x,1/4-z,1/2+y
186 x,3/4-z,3/4-y
187 1/2+x,1/2+z,y
188 1/4-x,z,1/4-y
189 3/4-z,1/4-y,1/2+x
190 1/4-z,y,1/4-x
191 z,3/4-y,3/4-x
192 1/2+z,1/2+y,x
_cell_length_a                   36.6111(5)
_cell_length_b                   36.6111(5)
_cell_length_c                   36.6111(5)
_cell_angle_alpha                90
_cell_angle_beta                 90
_cell_angle_gamma                90
_cell_volume                     49072.5
_exptl_crystal_colour            yellow
_exptl_crystal_description       'partial cube'
_cell_formula_units_Z            8
loop_
_atom_site_label
_atom_site_type_symbol
_atom_site_fract_x
_atom_site_fract_y
_atom_site_fract_z
I1 I 0.2453(2) 0.2453(2) 0.0047(2)
I1U I 0.2547(2) 0.2547(2) -0.0047(2)
O1 O 0.0785(7) 0.4929(6) 1.0390(6)
Na1 Na 0.1010(5) 0.5073(6) 1.0498(5)
O1HE O 0.0785(7) 0.5390(6) 0.9929(6)
Na1HE Na 0.1010(5) 0.5498(5) 1.0073(6)
O2 O 0.0425(4) 0.4787(3) 0.9787(3)
O3 O 0.1068(5) 0.4145(5) 0.9569(5)
O4 O 0.0764(6) 0.4231(6) 0.9717(5)
C2 C 0.1910(4) 0.5590(4) 1.0590(4)
C1 C 0.2140(3) 0.47549(16) 0.97549(16)
H1 H 0.2393 0.4689 0.9689
H2 H 0.1974 0.4604 0.9604
Cu1 Cu 0.1250 0.44674(5) 1.1250
O5 O 0.12630(10) 0.44747(10) 1.07259(12)
C3 C 0.16126(18) 0.45263(16) 1.06073(18)
C4 C 0.20770(18) 0.46633(17) 1.01560(17)
C5 C 0.17122(19) 0.45886(16) 1.02533(17)
H3 H 0.1531 0.4581 1.0068
C1EB C 0.27451(16) 0.47549(16) 1.0360(3)
C1ZB C 0.27451(16) 0.5360(3) 0.97549(16)
C1BA C -0.02451(16) 0.7140(3) 0.97549(16)
C1J C -0.02451(16) 0.77451(16) 1.0360(3)
C1WA C 0.0360(3) 0.77451(16) 0.97549(16)
C1IA C 0.27451(16) 0.77451(16) 1.2140(3)
C1G C 0.27451(16) 0.7140(3) 1.27451(16)
C1WB C 0.2140(3) 0.77451(16) 1.27451(16)
C1AB C -0.02451(16) 0.5360(3) 1.27451(16)
C1BC C -0.02451(16) 0.47549(16) 1.2140(3)
C1Z C 0.0360(3) 0.47549(16) 1.27451(16)
H1EB H 0.2811 0.4689 1.0107
H1ZB H 0.2811 0.5107 0.9689
H1BA H -0.0311 0.7393 0.9689
H1J H -0.0311 0.7811 1.0107
H1WA H 0.0107 0.7811 0.9689
H1IA H 0.2811 0.7811 1.2393
H1G H 0.2811 0.7393 1.2811
H1WB H 0.2393 0.7811 1.2811
H1AB H -0.0311 0.5107 1.2811
H1BC H -0.0311 0.4689 1.2393
H1Z H 0.0107 0.4689 1.2811
H2EB H 0.2896 0.4604 1.0526
H2ZB H 0.2896 0.5526 0.9604
H2BA H -0.0396 0.6974 0.9604
H2J H -0.0396 0.7896 1.0526
H2WA H 0.0526 0.7896 0.9604
H2IA H 0.2896 0.7896 1.1974
H2G H 0.2896 0.6974 1.2896
H2WB H 0.1974 0.7896 1.2896
H2AB H -0.0396 0.5526 1.2896
H2BC H -0.0396 0.4604 1.1974
H2Z H 0.0526 0.4604 1.2896
Cu1BA Cu 0.1250 0.6250 0.94674(5)
Cu1WA Cu 0.1250 0.80326(5) 1.1250
Cu1G Cu 0.1250 0.6250 1.30326(5)
Cu1J Cu -0.05326(5) 0.6250 1.1250
Cu1IA Cu 0.30326(5) 0.6250 1.1250
O5HE O 0.12630(10) 0.57259(12) 0.94747(10)
O5HD O 0.12370(10) 0.67741(12) 0.94747(10)
O5BA O 0.07259(12) 0.62630(10) 0.94747(10)
O5ZB O 0.17741(12) 0.62370(10) 0.94747(10)
O5WA O 0.12370(10) 0.80253(10) 1.07259(12)
O5WB O 0.12630(10) 0.80253(10) 1.17741(12)
O5JE O 0.17741(12) 0.80253(10) 1.12630(10)
O5JF O 0.07259(12) 0.80253(10) 1.12370(10)
O5CG O 0.12630(10) 0.67741(12) 1.30253(10)
O5GF O 0.12370(10) 0.57259(12) 1.30253(10)
O5AB O 0.07259(12) 0.62370(10) 1.30253(10)
O5G O 0.17741(12) 0.62630(10) 1.30253(10)
O5OD O 0.07259(12) 0.44747(10) 1.12630(10)
O5GG O 0.17741(12) 0.44747(10) 1.12370(10)
O5Z O 0.12370(10) 0.44747(10) 1.17741(12)
O5BC O -0.05253(10) 0.57259(12) 1.12630(10)
O5J O -0.05253(10) 0.67741(12) 1.12370(10)
O5YF O -0.05253(10) 0.62630(10) 1.07259(12)
O5EE O -0.05253(10) 0.62370(10) 1.17741(12)
O5FD O 0.30253(10) 0.62630(10) 1.17741(12)
O5ZE O 0.30253(10) 0.62370(10) 1.07259(12)
O5EB O 0.30253(10) 0.57259(12) 1.12370(10)
O5IA O 0.30253(10) 0.67741(12) 1.12630(10)
C3HE C 0.16126(18) 0.56073(18) 0.95263(16)
C3HD C 0.08874(18) 0.68927(18) 0.95263(16)
C3BA C 0.06073(18) 0.66126(18) 0.95263(16)
C3ZB C 0.18927(18) 0.58874(18) 0.95263(16)
C3WA C 0.08874(18) 0.79737(16) 1.06073(18)
C3WB C 0.16126(18) 0.79737(16) 1.18927(18)
C3JE C 0.18927(18) 0.79737(16) 1.16126(18)
C3JF C 0.06073(18) 0.79737(16) 1.08874(18)
C3CG C 0.16126(18) 0.68927(18) 1.29737(16)
C3GF C 0.08874(18) 0.56073(18) 1.29737(16)
C3AB C 0.06073(18) 0.58874(18) 1.29737(16)
C3G C 0.18927(18) 0.66126(18) 1.29737(16)
C3OD C 0.06073(18) 0.45263(16) 1.16126(18)
C3GG C 0.18927(18) 0.45263(16) 1.08874(18)
C3Z C 0.08874(18) 0.45263(16) 1.18927(18)
C3BC C -0.04737(16) 0.56073(18) 1.16126(18)
C3J C -0.04737(16) 0.68927(18) 1.08874(18)
C3YF C -0.04737(16) 0.66126(18) 1.06073(18)
C3EE C -0.04737(16) 0.58874(18) 1.18927(18)
C3FD C 0.29737(16) 0.66126(18) 1.18927(18)
C3ZE C 0.29737(16) 0.58874(18) 1.06073(18)
C3EB C 0.29737(16) 0.56073(18) 1.08874(18)
C3IA C 0.29737(16) 0.68927(18) 1.16126(18)
C4GG C 0.23440(17) 0.46633(17) 1.04230(18)
C4EB C 0.28367(17) 0.51560(17) 1.04230(18)
C4ZE C 0.28367(17) 0.54230(18) 1.01560(17)
C4ZB C 0.23440(17) 0.54230(18) 0.96633(17)
C4HE C 0.20770(18) 0.51560(17) 0.96633(17)
C4BA C 0.01560(17) 0.70770(18) 0.96633(17)
C4YF C -0.03367(17) 0.70770(18) 1.01560(17)
C4J C -0.03367(17) 0.73440(17) 1.04230(18)
C4JF C 0.01560(17) 0.78367(17) 1.04230(18)
C4WA C 0.04230(18) 0.78367(17) 1.01560(17)
C4HD C 0.04230(18) 0.73440(17) 0.96633(17)
C4JE C 0.23440(17) 0.78367(17) 1.20770(18)
C4IA C 0.28367(17) 0.73440(17) 1.20770(18)
C4FD C 0.28367(17) 0.70770(18) 1.23440(17)
C4G C 0.23440(17) 0.70770(18) 1.28367(17)
C4CG C 0.20770(18) 0.73440(17) 1.28367(17)
C4WB C 0.20770(18) 0.78367(17) 1.23440(17)
C4AB C 0.01560(17) 0.54230(18) 1.28367(17)
C4EE C -0.03367(17) 0.54230(18) 1.23440(17)
C4BC C -0.03367(17) 0.51560(17) 1.20770(18)
C4OD C 0.01560(17) 0.46633(17) 1.20770(18)
C4Z C 0.04230(18) 0.46633(17) 1.23440(17)
C4GF C 0.04230(18) 0.51560(17) 1.28367(17)
C5HE C 0.17122(19) 0.52533(17) 0.95886(16)
C5ZB C 0.22467(17) 0.57878(19) 0.95886(16)
C5BA C 0.02533(17) 0.67122(19) 0.95886(16)
C5HD C 0.07878(19) 0.72467(17) 0.95886(16)
C5WA C 0.07878(19) 0.79114(16) 1.02533(17)
C5JF C 0.02533(17) 0.79114(16) 1.07878(19)
C5JE C 0.22467(17) 0.79114(16) 1.17122(19)
C5WB C 0.17122(19) 0.79114(16) 1.22467(17)
C5CG C 0.17122(19) 0.72467(17) 1.29114(16)
C5G C 0.22467(17) 0.67122(19) 1.29114(16)
C5AB C 0.02533(17) 0.57878(19) 1.29114(16)
C5OD C 0.02533(17) 0.45886(16) 1.17122(19)
C5Z C 0.07878(19) 0.45886(16) 1.22467(17)
C5GF C 0.07878(19) 0.52533(17) 1.29114(16)
C5GG C 0.22467(17) 0.45886(16) 1.07878(19)
C5BC C -0.04114(16) 0.52533(17) 1.17122(19)
C5EE C -0.04114(16) 0.57878(19) 1.22467(17)
C5YF C -0.04114(16) 0.67122(19) 1.02533(17)
C5J C -0.04114(16) 0.72467(17) 1.07878(19)
C5FD C 0.29114(16) 0.67122(19) 1.22467(17)
C5IA C 0.29114(16) 0.72467(17) 1.17122(19)
C5EB C 0.29114(16) 0.52533(17) 1.07878(19)
C5ZE C 0.29114(16) 0.57878(19) 1.02533(17)
H3ZB H 0.2432 0.5969 0.9581
H3HD H 0.0969 0.7432 0.9581
H3JF H 0.0068 0.7919 1.0969
H3WB H 0.1531 0.7919 1.2432
H3G H 0.2432 0.6531 1.2919
H3GF H 0.0969 0.5068 1.2919
H3Z H 0.0969 0.4581 1.2432
H3GG H 0.2432 0.4581 1.0969
H3OD H 0.0068 0.4581 1.1531
H3EE H -0.0419 0.5969 1.2432
H3YF H -0.0419 0.6531 1.0068
H3J H -0.0419 0.7432 1.0969
H3BC H -0.0419 0.5068 1.1531
H3AB H 0.0068 0.5969 1.2919
H3CG H 0.1531 0.7432 1.2919
H3IA H 0.2919 0.7432 1.1531
H3EB H 0.2919 0.5068 1.0969
H3ZE H 0.2919 0.5969 1.0068
H3FD H 0.2919 0.6531 1.2432
H3JE H 0.2432 0.7919 1.1531
H3WA H 0.0969 0.7919 1.0068
H3BA H 0.0068 0.6531 0.9581
H3HE H 0.1531 0.5068 0.9581
loop_
_geom_bond_atom_site_label_1
_geom_bond_atom_site_label_2
_geom_bond_site_symmetry_1
_geom_bond_site_symmetry_2
C1 H1 1_555 1_555
H2 C1 1_555 1_555
I1 I1U 1_555 1_555
O1 Na1 1_555 1_555
Na1 Na1HE 1_555 1_555
O3 O4 1_555 1_555
Cu1 O5 1_555 1_555
O5 C3 1_555 1_555
C3 C5 1_555 1_555
C4 C1 1_555 1_555
C5 C4 1_555 1_555
H3 C5 1_555 1_555
C1EB H1EB 1_555 1_555
C1ZB H1ZB 1_555 1_555
C1BA H1BA 1_555 1_555
C1J H1J 1_555 1_555
C1WA H1WA 1_555 1_555
C1IA H1IA 1_555 1_555
C1G H1G 1_555 1_555
C1WB H1WB 1_555 1_555
C1AB H1AB 1_555 1_555
C1BC H1BC 1_555 1_555
C1Z H1Z 1_555 1_555
H2EB C1EB 1_555 1_555
H2ZB C1ZB 1_555 1_555
H2BA C1BA 1_555 1_555
H2J C1J 1_555 1_555
H2WA C1WA 1_555 1_555
H2IA C1IA 1_555 1_555
H2G C1G 1_555 1_555
H2WB C1WB 1_555 1_555
H2AB C1AB 1_555 1_555
H2BC C1BC 1_555 1_555
H2Z C1Z 1_555 1_555
O1HE Na1HE 1_555 1_555
Cu1BA O5HE 1_555 1_555
Cu1WA O5WA 1_555 1_555
Cu1G O5CG 1_555 1_555
Cu1J O5BC 1_555 1_555
Cu1IA O5FD 1_555 1_555
O5HE C3HE 1_555 1_555
O5HD Cu1BA 1_555 1_555
O5BA Cu1BA 1_555 1_555
O5ZB Cu1BA 1_555 1_555
O5WA C3WA 1_555 1_555
O5WB Cu1WA 1_555 1_555
O5JE Cu1WA 1_555 1_555
O5JF Cu1WA 1_555 1_555
O5CG C3CG 1_555 1_555
O5GF Cu1G 1_555 1_555
O5AB Cu1G 1_555 1_555
O5G Cu1G 1_555 1_555
O5OD Cu1 1_555 1_555
O5GG Cu1 1_555 1_555
O5Z Cu1 1_555 1_555
O5BC C3BC 1_555 1_555
O5J Cu1J 1_555 1_555
O5YF Cu1J 1_555 1_555
O5EE Cu1J 1_555 1_555
O5FD C3FD 1_555 1_555
O5ZE Cu1IA 1_555 1_555
O5EB Cu1IA 1_555 1_555
O5IA Cu1IA 1_555 1_555
C3HE C3ZB 1_555 1_555
C3HD O5HD 1_555 1_555
C3BA O5BA 1_555 1_555
C3ZB O5ZB 1_555 1_555
C3WA C3JF 1_555 1_555
C3WB O5WB 1_555 1_555
C3JE O5JE 1_555 1_555
C3JF O5JF 1_555 1_555
C3CG C3G 1_555 1_555
C3GF O5GF 1_555 1_555
C3AB O5AB 1_555 1_555
C3G O5G 1_555 1_555
C3OD O5OD 1_555 1_555
C3GG C3 1_555 1_555
C3Z O5Z 1_555 1_555
C3BC C3EE 1_555 1_555
C3J O5J 1_555 1_555
C3YF O5YF 1_555 1_555
C3EE O5EE 1_555 1_555
C3FD C3IA 1_555 1_555
C3ZE O5ZE 1_555 1_555
C3EB O5EB 1_555 1_555
C3IA O5IA 1_555 1_555
C4GG C4 1_555 1_555
C4EB C1EB 1_555 1_555
C4ZE C1ZB 1_555 1_555
C4ZB C1ZB 1_555 1_555
C4HE C1 1_555 1_555
C4BA C1BA 1_555 1_555
C4YF C1BA 1_555 1_555
C4J C1J 1_555 1_555
C4JF C1J 1_555 1_555
C4WA C1WA 1_555 1_555
C4HD C1WA 1_555 1_555
C4JE C1IA 1_555 1_555
C4IA C1IA 1_555 1_555
C4FD C1G 1_555 1_555
C4G C1G 1_555 1_555
C4CG C1WB 1_555 1_555
C4WB C1WB 1_555 1_555
C4AB C1AB 1_555 1_555
C4EE C1AB 1_555 1_555
C4BC C1BC 1_555 1_555
C4OD C1BC 1_555 1_555
C4Z C1Z 1_555 1_555
C4GF C1Z 1_555 1_555
C5HE C3HE 1_555 1_555
C5ZB C3ZB 1_555 1_555
C5BA C3BA 1_555 1_555
C5HD C3HD 1_555 1_555
C5WA C3WA 1_555 1_555
C5JF C3JF 1_555 1_555
C5JE C3JE 1_555 1_555
C5WB C3WB 1_555 1_555
C5CG C3CG 1_555 1_555
C5G C3G 1_555 1_555
C5AB C3AB 1_555 1_555
C5OD C3OD 1_555 1_555
C5Z C3Z 1_555 1_555
C5GF C3GF 1_555 1_555
C5GG C3GG 1_555 1_555
C5BC C3BC 1_555 1_555
C5EE C3EE 1_555 1_555
C5YF C3YF 1_555 1_555
C5J C3J 1_555 1_555
C5FD C3FD 1_555 1_555
C5IA C3IA 1_555 1_555
C5EB C3EB 1_555 1_555
C5ZE C3ZE 1_555 1_555
H3ZB C5ZB 1_555 1_555
H3HD C5HD 1_555 1_555
H3JF C5JF 1_555 1_555
H3WB C5WB 1_555 1_555
H3G C5G 1_555 1_555
H3GF C5GF 1_555 1_555
H3Z C5Z 1_555 1_555
H3GG C5GG 1_555 1_555
H3OD C5OD 1_555 1_555
H3EE C5EE 1_555 1_555
H3YF C5YF 1_555 1_555
H3J C5J 1_555 1_555
H3BC C5BC 1_555 1_555
H3AB C5AB 1_555 1_555
H3CG C5CG 1_555 1_555
H3IA C5IA 1_555 1_555
H3EB C5EB 1_555 1_555
H3ZE C5ZE 1_555 1_555
H3FD C5FD 1_555 1_555
H3JE C5JE 1_555 1_555
H3WA C5WA 1_555 1_555
H3BA C5BA 1_555 1_555
H3HE C5HE 1_555 1_555
C1EB C4GG 1_555 1_555
O5GG C3GG 1_555 1_555
C3HD C3BA 1_555 1_555
C3WB C3JE 1_555 1_555
C3GF C3AB 1_555 1_555
C3OD C3Z 1_555 1_555
C3J C3YF 1_555 1_555
C3ZE C3EB 1_555 1_555
C4GG C5GG 1_555 1_555
C4EB C4ZE 1_555 1_555
C4EB C5EB 1_555 1_555
C4ZE C5ZE 1_555 1_555
C4ZB C4HE 1_555 1_555
C4ZB C5ZB 1_555 1_555
C4HE C5HE 1_555 1_555
C4BA C4HD 1_555 1_555
C4BA C5BA 1_555 1_555
C4YF C4J 1_555 1_555
C4YF C5YF 1_555 1_555
C4J C5J 1_555 1_555
C4JF C4WA 1_555 1_555
C4JF C5JF 1_555 1_555
C4WA C5WA 1_555 1_555
C4HD C5HD 1_555 1_555
C4JE C4WB 1_555 1_555
C4JE C5JE 1_555 1_555
C4IA C4FD 1_555 1_555
C4IA C5IA 1_555 1_555
C4FD C5FD 1_555 1_555
C4G C4CG 1_555 1_555
C4G C5G 1_555 1_555
C4CG C5CG 1_555 1_555
C4WB C5WB 1_555 1_555
C4AB C4GF 1_555 1_555
C4AB C5AB 1_555 1_555
C4EE C4BC 1_555 1_555
C4EE C5EE 1_555 1_555
C4BC C5BC 1_555 1_555
C4OD C4Z 1_555 1_555
C4OD C5OD 1_555 1_555
C4Z C5Z 1_555 1_555
C4GF C5GF 1_555 1_555

#END
