
#######################################################################
#
#                 Cambridge Crystallographic Data Centre
#                                CCDC 
#
#######################################################################
#
# If this CIF has been generated from an entry in the Cambridge 
# Structural Database, then it will include bibliographic, chemical, 
# crystal, experimental, refinement or atomic coordinate data resulting 
# from the CCDC's data processing and validation procedures.
#
#######################################################################

data_ATUJAB
_chemical_formula_moiety         
'C96 H116 B2 Co2 Fe2 N26 2+,2(F6 P1 1-),4(H2 O1)'
_chemical_name_systematic        
"tetrakis(\m~2~-Cyano)-dicyano-tetrakis(4,4'-di-t-butyl-2,2'-bipyridine)-bis(hydrogen tripyrazolylborate-N,N',N'')-di-cobalt-di-iron bis(hexafluorophosphate) tetrahydrate"
_symmetry_cell_setting           triclinic
_symmetry_space_group_name_H-M   'P -1'
_symmetry_Int_Tables_number      2
_space_group_name_Hall           '-P 1'
loop_
_symmetry_equiv_pos_site_id
_symmetry_equiv_pos_as_xyz
1 x,y,z
2 -x,-y,-z
_cell_length_a                   12.415(4)
_cell_length_b                   14.797(5)
_cell_length_c                   17.908(6)
_cell_angle_alpha                113.658(5)
_cell_angle_beta                 97.462(6)
_cell_angle_gamma                105.884(5)
_cell_volume                     2788.91
_exptl_crystal_colour            green
_exptl_crystal_description       plate
_cell_formula_units_Z            1
loop_
_atom_site_label
_atom_site_type_symbol
_atom_site_fract_x
_atom_site_fract_y
_atom_site_fract_z
Co1 Co 0.50313(6) 0.39558(5) 0.28998(4)
Fe1 Fe 0.73534(6) 0.72270(6) 0.54622(5)
N1 N 0.5932(4) 0.5201(3) 0.3882(3)
N2 N 0.4074(4) 0.3496(3) 0.3498(3)
N3 N 0.8996(5) 0.6114(4) 0.5713(4)
N4 N 0.8314(4) 0.8607(3) 0.6475(3)
N5 N 0.8558(4) 0.9520(3) 0.6400(3)
N6 N 0.8231(4) 0.7725(3) 0.4761(3)
N7 N 0.8441(4) 0.8723(3) 0.4856(3)
N8 N 0.6270(4) 0.7934(3) 0.5265(3)
N9 N 0.6680(4) 0.8922(3) 0.5331(3)
N10 N 0.4164(4) 0.2621(3) 0.1924(3)
N11 N 0.5960(4) 0.3182(3) 0.3107(3)
N12 N 0.5927(4) 0.4460(3) 0.2252(3)
N13 N 0.4137(4) 0.4758(3) 0.2698(3)
C1 C 0.6458(5) 0.5982(4) 0.4497(4)
C2 C 0.3509(5) 0.3219(4) 0.3895(3)
C3 C 0.8396(5) 0.6563(4) 0.5643(4)
C4 C 0.8766(5) 0.8893(4) 0.7282(3)
H1 H 0.8727 0.8414 0.7515
C5 C 0.9302(5) 0.9974(5) 0.7741(4)
H2 H 0.9689 1.0371 0.8329
C6 C 0.9152(5) 1.0351(4) 0.7161(4)
H3 H 0.9421 1.1073 0.7277
C7 C 0.8616(5) 0.7242(5) 0.4113(4)
H4 H 0.8572 0.6529 0.3901
C8 C 0.9091(5) 0.7912(5) 0.3785(4)
H5 H 0.9436 0.7760 0.3328
C9 C 0.8953(5) 0.8845(5) 0.4266(4)
H6 H 0.9179 0.9467 0.4195
C10 C 0.5109(5) 0.7659(4) 0.5106(3)
H7 H 0.4587 0.7005 0.5029
C11 C 0.4784(5) 0.8477(5) 0.5071(4)
H8 H 0.4019 0.8490 0.4968
C12 C 0.5810(5) 0.9260(4) 0.5217(4)
H9 H 0.5885 0.9925 0.5234
C13 C 0.3226(4) 0.2413(4) 0.1333(3)
H10 H 0.2987 0.2978 0.1352
C14 C 0.2594(5) 0.1402(4) 0.0696(4)
H11 H 0.1936 0.1286 0.0286
C15 C 0.2903(5) 0.0565(4) 0.0648(4)
C16 C 0.3892(5) 0.0786(4) 0.1266(3)
H12 H 0.4146 0.0230 0.1253
C17 C 0.4499(4) 0.1811(4) 0.1894(3)
C18 C 0.5538(4) 0.2134(4) 0.2572(3)
C19 C 0.6054(5) 0.1468(4) 0.2686(3)
H13 H 0.5731 0.0734 0.2305
C20 C 0.7049(5) 0.1856(4) 0.3355(3)
C21 C 0.7474(5) 0.2942(4) 0.3891(4)
H14 H 0.8150 0.3250 0.4352
C22 C 0.6909(5) 0.3570(4) 0.3750(3)
H15 H 0.7208 0.4307 0.4125
C23 C 0.6839(5) 0.4210(5) 0.2015(4)
H16 H 0.7062 0.3718 0.2152
C24 C 0.7455(5) 0.4646(5) 0.1581(4)
H17 H 0.8093 0.4453 0.1426
C25 C 0.7156(5) 0.5365(5) 0.1366(3)
C26 C 0.6215(5) 0.5617(4) 0.1619(3)
H18 H 0.5982 0.6110 0.1491
C27 C 0.5619(4) 0.5162(4) 0.2052(3)
C28 C 0.4620(4) 0.5381(4) 0.2341(3)
C29 C 0.4194(5) 0.6119(4) 0.2285(3)
H19 H 0.4551 0.6535 0.2034
C30 C 0.3243(5) 0.6274(4) 0.2592(3)
C31 C 0.2759(5) 0.5627(4) 0.2944(4)
H20 H 0.2104 0.5689 0.3153
C32 C 0.3223(5) 0.4894(4) 0.2993(4)
H21 H 0.2882 0.4473 0.3245
C33 C 0.2280(5) -0.0574(4) -0.0063(4)
C34 C 0.3104(5) -0.0833(5) -0.0631(4)
H22 H 0.3307 -0.0313 -0.0846
H23 H 0.2712 -0.1542 -0.1108
H24 H 0.3813 -0.0808 -0.0298
C35 C 0.1139(5) -0.0686(5) -0.0620(4)
H25 H 0.0599 -0.0537 -0.0274
H26 H 0.0782 -0.1408 -0.1084
H27 H 0.1313 -0.0184 -0.0854
C36 C 0.2009(6) -0.1356(4) 0.0315(4)
H28 H 0.2738 -0.1322 0.0631
H29 H 0.1596 -0.2076 -0.0144
H30 H 0.1521 -0.1169 0.0697
C37 C 0.7647(5) 0.1117(4) 0.3468(4)
C38 C 0.8332(6) 0.0883(6) 0.2809(5)
H31 H 0.8732 0.0417 0.2867
H32 H 0.8908 0.1546 0.2897
H33 H 0.7798 0.0534 0.2240
C39 C 0.6750(5) 0.0086(5) 0.3348(4)
H34 H 0.6254 -0.0305 0.2764
H35 H 0.6268 0.0252 0.3740
H36 H 0.7155 -0.0346 0.3464
C40 C 0.8519(5) 0.1662(5) 0.4364(4)
H37 H 0.8845 0.1160 0.4435
H38 H 0.8110 0.1893 0.4797
H39 H 0.9148 0.2276 0.4423
C41 C 0.7784(5) 0.5839(5) 0.0847(4)
C42 C 0.8175(6) 0.7045(6) 0.1306(4)
H40 H 0.8714 0.7316 0.1863
H41 H 0.7494 0.7250 0.1379
H42 H 0.8567 0.7341 0.0971
C43 C 0.6897(5) 0.5419(5) -0.0010(4)
H43 H 0.7277 0.5675 -0.0370
H44 H 0.6250 0.5670 0.0086
H45 H 0.6599 0.4644 -0.0289
C44 C 0.8810(6) 0.5487(7) 0.0684(5)
H46 H 0.9402 0.5786 0.1222
H47 H 0.9145 0.5735 0.0304
H48 H 0.8544 0.4714 0.0421
C45 C 0.2769(5) 0.7098(5) 0.2523(4)
C46 C 0.2164(6) 0.6712(5) 0.1592(4)
H49 H 0.2723 0.6610 0.1256
H50 H 0.1865 0.7239 0.1541
H51 H 0.1517 0.6041 0.1385
C47 C 0.3786(6) 0.8154(5) 0.2843(4)
H52 H 0.4334 0.8051 0.2497
H53 H 0.4186 0.8398 0.3436
H54 H 0.3484 0.8683 0.2800
C48 C 0.1897(6) 0.7268(5) 0.3052(4)
H55 H 0.1683 0.7861 0.3062
H56 H 0.2253 0.7423 0.3632
H57 H 0.1199 0.6626 0.2801
B1 B 0.8028(5) 0.9466(5) 0.5544(4)
H58 H 0.8246 1.0183 0.5571
Co1A Co 0.49687(6) 0.60442(5) 0.71002(4)
Fe1A Fe 0.26466(6) 0.27730(6) 0.45378(5)
N1A N 0.4068(4) 0.4799(3) 0.6118(3)
N2A N 0.5926(4) 0.6504(3) 0.6502(3)
N3A N 0.1004(5) 0.3886(4) 0.4287(4)
N4A N 0.1686(4) 0.1393(3) 0.3525(3)
N5A N 0.1442(4) 0.0480(3) 0.3600(3)
N6A N 0.1769(4) 0.2275(3) 0.5239(3)
N7A N 0.1559(4) 0.1277(3) 0.5144(3)
N8A N 0.3730(4) 0.2066(3) 0.4735(3)
N9A N 0.3320(4) 0.1078(3) 0.4669(3)
N10A N 0.5836(4) 0.7379(3) 0.8076(3)
N11A N 0.4040(4) 0.6818(3) 0.6893(3)
N12A N 0.4073(4) 0.5540(3) 0.7748(3)
N13A N 0.5863(4) 0.5242(3) 0.7302(3)
C1A C 0.3542(5) 0.4018(4) 0.5503(4)
C2A C 0.6491(5) 0.6781(4) 0.6105(3)
C3A C 0.1604(5) 0.3437(4) 0.4357(4)
C4A C 0.1234(5) 0.1107(4) 0.2718(3)
H1A H 0.1273 0.1586 0.2485
C5A C 0.0698(5) 0.0026(5) 0.2259(4)
H2A H 0.0311 -0.0371 0.1671
C6A C 0.0848(5) -0.0351(4) 0.2839(4)
H3A H 0.0579 -0.1073 0.2723
C7A C 0.1384(5) 0.2758(5) 0.5887(4)
H4A H 0.1428 0.3471 0.6099
C8A C 0.0909(5) 0.2088(5) 0.6215(4)
H5A H 0.0564 0.2240 0.6672
C9A C 0.1047(5) 0.1155(5) 0.5734(4)
H6A H 0.0821 0.0533 0.5805
C10A C 0.4891(5) 0.2341(4) 0.4894(3)
H7A H 0.5413 0.2995 0.4971
C11A C 0.5216(5) 0.1523(5) 0.4929(4)
H8A H 0.5981 0.1510 0.5032
C12A C 0.4190(5) 0.0740(4) 0.4783(4)
H9A H 0.4115 0.0075 0.4766
C13A C 0.6774(4) 0.7587(4) 0.8667(3)
H10A H 0.7013 0.7022 0.8648
C14A C 0.7406(5) 0.8598(4) 0.9304(4)
H11A H 0.8064 0.8714 0.9714
C15A C 0.7097(5) 0.9435(4) 0.9352(4)
C16A C 0.6108(5) 0.9214(4) 0.8734(3)
H12A H 0.5854 0.9770 0.8747
C17A C 0.5501(4) 0.8189(4) 0.8106(3)
C18A C 0.4462(4) 0.7866(4) 0.7428(3)
C19A C 0.3946(5) 0.8532(4) 0.7314(3)
H13A H 0.4269 0.9266 0.7695
C20A C 0.2951(5) 0.8144(4) 0.6645(3)
C21A C 0.2526(5) 0.7058(4) 0.6109(4)
H14A H 0.1850 0.6750 0.5648
C22A C 0.3091(5) 0.6430(4) 0.6250(3)
H15A H 0.2792 0.5693 0.5875
C23A C 0.3161(5) 0.5790(5) 0.7985(4)
H16A H 0.2938 0.6282 0.7848
C24A C 0.2545(5) 0.5354(5) 0.8419(4)
H17A H 0.1907 0.5547 0.8574
C25A C 0.2844(5) 0.4635(5) 0.8634(3)
C26A C 0.3785(5) 0.4383(4) 0.8381(3)
H18A H 0.4018 0.3890 0.8509
C27A C 0.4381(4) 0.4838(4) 0.7948(3)
C28A C 0.5380(4) 0.4619(4) 0.7659(3)
C29A C 0.5806(5) 0.3881(4) 0.7715(3)
H19A H 0.5449 0.3465 0.7966
C30A C 0.6757(5) 0.3726(4) 0.7408(3)
C31A C 0.7241(5) 0.4373(4) 0.7056(4)
H20A H 0.7896 0.4311 0.6847
C32A C 0.6777(5) 0.5106(4) 0.7007(4)
H21A H 0.7118 0.5527 0.6755
C33A C 0.7720(5) 1.0574(4) 1.0063(4)
C34A C 0.6896(5) 1.0833(5) 1.0631(4)
H22A H 0.6693 1.0313 1.0846
H23A H 0.7288 1.1542 1.1108
H24A H 0.6187 1.0808 1.0298
C35A C 0.8861(5) 1.0686(5) 1.0620(4)
H25A H 0.9401 1.0537 1.0274
H26A H 0.9218 1.1408 1.1084
H27A H 0.8687 1.0184 1.0854
C36A C 0.7991(6) 1.1356(4) 0.9685(4)
H28A H 0.7262 1.1322 0.9369
H29A H 0.8404 1.2076 1.0144
H30A H 0.8479 1.1169 0.9303
C37A C 0.2353(5) 0.8883(4) 0.6532(4)
C38A C 0.1668(6) 0.9117(6) 0.7191(5)
H31A H 0.1268 0.9583 0.7133
H32A H 0.1092 0.8454 0.7103
H33A H 0.2202 0.9466 0.7760
C39A C 0.3250(5) 0.9914(5) 0.6652(4)
H34A H 0.3746 1.0305 0.7236
H35A H 0.3732 0.9748 0.6260
H36A H 0.2845 1.0346 0.6536
C40A C 0.1481(5) 0.8338(5) 0.5636(4)
H37A H 0.1155 0.8840 0.5565
H38A H 0.1890 0.8107 0.5203
H39A H 0.0852 0.7724 0.5577
C41A C 0.2216(5) 0.4161(5) 0.9153(4)
C42A C 0.1825(6) 0.2955(6) 0.8694(4)
H40A H 0.1286 0.2684 0.8137
H41A H 0.2506 0.2750 0.8621
H42A H 0.1433 0.2659 0.9029
C43A C 0.3103(5) 0.4581(5) 1.0010(4)
H43A H 0.2723 0.4325 1.0370
H44A H 0.3750 0.4330 0.9914
H45A H 0.3401 0.5356 1.0289
C44A C 0.1190(6) 0.4513(7) 0.9316(5)
H46A H 0.0598 0.4214 0.8778
H47A H 0.0855 0.4265 0.9696
H48A H 0.1456 0.5286 0.9579
C45A C 0.7231(5) 0.2902(5) 0.7477(4)
C46A C 0.7836(6) 0.3288(5) 0.8408(4)
H49A H 0.7277 0.3390 0.8744
H50A H 0.8135 0.2761 0.8459
H51A H 0.8483 0.3959 0.8615
C47A C 0.6214(6) 0.1846(5) 0.7157(4)
H52A H 0.5666 0.1949 0.7503
H53A H 0.5814 0.1602 0.6564
H54A H 0.6516 0.1317 0.7200
C48A C 0.8103(6) 0.2732(5) 0.6948(4)
H55A H 0.8317 0.2139 0.6938
H56A H 0.7747 0.2577 0.6368
H57A H 0.8801 0.3374 0.7199
B1A B 0.1972(5) 0.0534(5) 0.4456(4)
H58A H 0.1754 -0.0183 0.4429
P1 P 0.48503(15) 0.21801(12) 0.94659(10)
F1 F 0.4701(3) 0.3217(3) 1.0135(2)
F2 F 0.6223(3) 0.2806(3) 0.9736(2)
F3 F 0.5024(3) 0.1814(3) 1.0187(2)
F4 F 0.3475(3) 0.1546(3) 0.9181(2)
F5 F 0.5011(4) 0.1146(3) 0.8792(2)
F6 F 0.4680(4) 0.2558(3) 0.8742(2)
O2 O 1.0747(12) 0.3527(11) 0.1150(9)
O3 O 1.0077(11) 0.5481(8) 0.4419(8)
O1? O 0.9840(10) 0.3797(10) 0.1365(7)
O4? O 0.9880(11) 0.4501(13) 0.2915(8)
loop_
_geom_bond_atom_site_label_1
_geom_bond_atom_site_label_2
_geom_bond_site_symmetry_1
_geom_bond_site_symmetry_2
Co1 N1 1_555 1_555
Fe1 N4 1_555 1_555
P1 F1 1_555 1_555
N1 C1 1_555 1_555
N2 Co1 1_555 1_555
N3 C3 1_555 1_555
N4 N5 1_555 1_555
N5 C6 1_555 1_555
N6 Fe1 1_555 1_555
N7 N6 1_555 1_555
N8 Fe1 1_555 1_555
N9 N8 1_555 1_555
N10 Co1 1_555 1_555
N11 Co1 1_555 1_555
N12 Co1 1_555 1_555
N13 Co1 1_555 1_555
F2 P1 1_555 1_555
F3 P1 1_555 1_555
F4 P1 1_555 1_555
F5 P1 1_555 1_555
F6 P1 1_555 1_555
C1 Fe1 1_555 1_555
C2 N2 1_555 1_555
C3 Fe1 1_555 1_555
C4 N4 1_555 1_555
H1 C4 1_555 1_555
C5 C4 1_555 1_555
H2 C5 1_555 1_555
C6 C5 1_555 1_555
H3 C6 1_555 1_555
C7 N6 1_555 1_555
H4 C7 1_555 1_555
C8 C7 1_555 1_555
H5 C8 1_555 1_555
C9 N7 1_555 1_555
H6 C9 1_555 1_555
C10 N8 1_555 1_555
H7 C10 1_555 1_555
C11 C10 1_555 1_555
H8 C11 1_555 1_555
C12 N9 1_555 1_555
H9 C12 1_555 1_555
C13 N10 1_555 1_555
H10 C13 1_555 1_555
C14 C13 1_555 1_555
H11 C14 1_555 1_555
C15 C14 1_555 1_555
C16 C15 1_555 1_555
H12 C16 1_555 1_555
C17 N10 1_555 1_555
C18 N11 1_555 1_555
C19 C18 1_555 1_555
H13 C19 1_555 1_555
C20 C19 1_555 1_555
C21 C20 1_555 1_555
H14 C21 1_555 1_555
C22 N11 1_555 1_555
H15 C22 1_555 1_555
C23 N12 1_555 1_555
H16 C23 1_555 1_555
C24 C23 1_555 1_555
H17 C24 1_555 1_555
C25 C24 1_555 1_555
C26 C25 1_555 1_555
H18 C26 1_555 1_555
C27 N12 1_555 1_555
C28 N13 1_555 1_555
C29 C28 1_555 1_555
H19 C29 1_555 1_555
C30 C29 1_555 1_555
C31 C30 1_555 1_555
H20 C31 1_555 1_555
C32 N13 1_555 1_555
H21 C32 1_555 1_555
C33 C15 1_555 1_555
C34 C33 1_555 1_555
H22 C34 1_555 1_555
H23 C34 1_555 1_555
H24 C34 1_555 1_555
C35 C33 1_555 1_555
H25 C35 1_555 1_555
H26 C35 1_555 1_555
H27 C35 1_555 1_555
C36 C33 1_555 1_555
H28 C36 1_555 1_555
H29 C36 1_555 1_555
H30 C36 1_555 1_555
C37 C20 1_555 1_555
C38 C37 1_555 1_555
H31 C38 1_555 1_555
H32 C38 1_555 1_555
H33 C38 1_555 1_555
C39 C37 1_555 1_555
H34 C39 1_555 1_555
H35 C39 1_555 1_555
H36 C39 1_555 1_555
C40 C37 1_555 1_555
H37 C40 1_555 1_555
H38 C40 1_555 1_555
H39 C40 1_555 1_555
C41 C25 1_555 1_555
C42 C41 1_555 1_555
H40 C42 1_555 1_555
H41 C42 1_555 1_555
H42 C42 1_555 1_555
C43 C41 1_555 1_555
H43 C43 1_555 1_555
H44 C43 1_555 1_555
H45 C43 1_555 1_555
C44 C41 1_555 1_555
H46 C44 1_555 1_555
H47 C44 1_555 1_555
H48 C44 1_555 1_555
C45 C30 1_555 1_555
C46 C45 1_555 1_555
H49 C46 1_555 1_555
H50 C46 1_555 1_555
H51 C46 1_555 1_555
C47 C45 1_555 1_555
H52 C47 1_555 1_555
H53 C47 1_555 1_555
H54 C47 1_555 1_555
C48 C45 1_555 1_555
H55 C48 1_555 1_555
H56 C48 1_555 1_555
H57 C48 1_555 1_555
B1 N5 1_555 1_555
H58 B1 1_555 1_555
Co1A N1A 1_555 1_555
Fe1A C2 1_555 1_555
N1A C1A 1_555 1_555
N2A Co1A 1_555 1_555
N3A C3A 1_555 1_555
N4A Fe1A 1_555 1_555
N5A N4A 1_555 1_555
N6A Fe1A 1_555 1_555
N7A N6A 1_555 1_555
N8A Fe1A 1_555 1_555
N9A N8A 1_555 1_555
N10A Co1A 1_555 1_555
N11A Co1A 1_555 1_555
N12A Co1A 1_555 1_555
N13A Co1A 1_555 1_555
C1A Fe1A 1_555 1_555
C2A Fe1 1_555 1_555
C3A Fe1A 1_555 1_555
C4A N4A 1_555 1_555
H1A C4A 1_555 1_555
C5A C4A 1_555 1_555
H2A C5A 1_555 1_555
C6A N5A 1_555 1_555
H3A C6A 1_555 1_555
C7A N6A 1_555 1_555
H4A C7A 1_555 1_555
C8A C7A 1_555 1_555
H5A C8A 1_555 1_555
C9A N7A 1_555 1_555
H6A C9A 1_555 1_555
C10A N8A 1_555 1_555
H7A C10A 1_555 1_555
C11A C10A 1_555 1_555
H8A C11A 1_555 1_555
C12A N9A 1_555 1_555
H9A C12A 1_555 1_555
C13A N10A 1_555 1_555
H10A C13A 1_555 1_555
C14A C13A 1_555 1_555
H11A C14A 1_555 1_555
C15A C14A 1_555 1_555
C16A C15A 1_555 1_555
H12A C16A 1_555 1_555
C17A N10A 1_555 1_555
C18A N11A 1_555 1_555
C19A C18A 1_555 1_555
H13A C19A 1_555 1_555
C20A C19A 1_555 1_555
C21A C20A 1_555 1_555
H14A C21A 1_555 1_555
C22A N11A 1_555 1_555
H15A C22A 1_555 1_555
C23A N12A 1_555 1_555
H16A C23A 1_555 1_555
C24A C23A 1_555 1_555
H17A C24A 1_555 1_555
C25A C24A 1_555 1_555
C26A C25A 1_555 1_555
H18A C26A 1_555 1_555
C27A N12A 1_555 1_555
C28A N13A 1_555 1_555
C29A C28A 1_555 1_555
H19A C29A 1_555 1_555
C30A C29A 1_555 1_555
C31A C30A 1_555 1_555
H20A C31A 1_555 1_555
C32A N13A 1_555 1_555
H21A C32A 1_555 1_555
C33A C15A 1_555 1_555
C34A C33A 1_555 1_555
H22A C34A 1_555 1_555
H23A C34A 1_555 1_555
H24A C34A 1_555 1_555
C35A C33A 1_555 1_555
H25A C35A 1_555 1_555
H26A C35A 1_555 1_555
H27A C35A 1_555 1_555
C36A C33A 1_555 1_555
H28A C36A 1_555 1_555
H29A C36A 1_555 1_555
H30A C36A 1_555 1_555
C37A C20A 1_555 1_555
C38A C37A 1_555 1_555
H31A C38A 1_555 1_555
H32A C38A 1_555 1_555
H33A C38A 1_555 1_555
C39A C37A 1_555 1_555
H34A C39A 1_555 1_555
H35A C39A 1_555 1_555
H36A C39A 1_555 1_555
C40A C37A 1_555 1_555
H37A C40A 1_555 1_555
H38A C40A 1_555 1_555
H39A C40A 1_555 1_555
C41A C25A 1_555 1_555
C42A C41A 1_555 1_555
H40A C42A 1_555 1_555
H41A C42A 1_555 1_555
H42A C42A 1_555 1_555
C43A C41A 1_555 1_555
H43A C43A 1_555 1_555
H44A C43A 1_555 1_555
H45A C43A 1_555 1_555
C44A C41A 1_555 1_555
H46A C44A 1_555 1_555
H47A C44A 1_555 1_555
H48A C44A 1_555 1_555
C45A C30A 1_555 1_555
C46A C45A 1_555 1_555
H49A C46A 1_555 1_555
H50A C46A 1_555 1_555
H51A C46A 1_555 1_555
C47A C45A 1_555 1_555
H52A C47A 1_555 1_555
H53A C47A 1_555 1_555
H54A C47A 1_555 1_555
C48A C45A 1_555 1_555
H55A C48A 1_555 1_555
H56A C48A 1_555 1_555
H57A C48A 1_555 1_555
B1A N5A 1_555 1_555
H58A B1A 1_555 1_555
N7 B1 1_555 1_555
N9 B1 1_555 1_555
C8 C9 1_555 1_555
C11 C12 1_555 1_555
C16 C17 1_555 1_555
C17 C18 1_555 1_555
C21 C22 1_555 1_555
C26 C27 1_555 1_555
C27 C28 1_555 1_555
C31 C32 1_555 1_555
N2A C2A 1_555 1_555
N7A B1A 1_555 1_555
N9A B1A 1_555 1_555
C5A C6A 1_555 1_555
C8A C9A 1_555 1_555
C11A C12A 1_555 1_555
C16A C17A 1_555 1_555
C17A C18A 1_555 1_555
C21A C22A 1_555 1_555
C26A C27A 1_555 1_555
C27A C28A 1_555 1_555
C31A C32A 1_555 1_555

#END
