
#######################################################################
#
#                 Cambridge Crystallographic Data Centre
#                                CCDC 
#
#######################################################################
#
# If this CIF has been generated from an entry in the Cambridge 
# Structural Database, then it will include bibliographic, chemical, 
# crystal, experimental, refinement or atomic coordinate data resulting 
# from the CCDC's data processing and validation procedures.
#
#######################################################################

data_AVAMOZ
_chemical_formula_moiety         'C138 H216 O12 P12 Pt6,2(C1 H1 Cl3)'
_chemical_name_systematic        
"tris((\m~2~-Terephthalato-O,O')-(\m~2~-phenanthrene-2,9-diyl))-dodecakis(triethylphosphine)-hexa-platinum chloroform solvate"
_symmetry_cell_setting           hexagonal
_symmetry_space_group_name_H-M   'P 63'
_symmetry_Int_Tables_number      173
_space_group_name_Hall           'P 6c'
loop_
_symmetry_equiv_pos_site_id
_symmetry_equiv_pos_as_xyz
1 x,y,z
2 -x,-y,1/2+z
3 -y,x-y,z
4 -x+y,-x,z
5 x-y,x,1/2+z
6 y,-x+y,1/2+z
_cell_length_a                   26.2312(9)
_cell_length_b                   26.2312(9)
_cell_length_c                   14.5061(5)
_cell_angle_alpha                90
_cell_angle_beta                 90
_cell_angle_gamma                120
_cell_volume                     8644.06
_exptl_crystal_colour            colorless
_exptl_crystal_description       prism
_cell_formula_units_Z            2
loop_
_atom_site_label
_atom_site_type_symbol
_atom_site_fract_x
_atom_site_fract_y
_atom_site_fract_z
Pt1 Pt 0.60466(3) 0.49257(3) 0.0963(16)
Pt2 Pt 0.10462(3) 0.27596(3) 0.1431(16)
P1 P 0.6027(3) 0.4851(4) -0.0625(17)
P2 P 0.6086(3) 0.4937(2) 0.2477(18)
P3 P 0.1092(4) 0.2549(3) -0.0088(17)
P4 P 0.0988(4) 0.2923(3) 0.2951(17)
O1 O 0.5119(4) 0.4401(5) 0.104(2)
O2 O 0.4984(6) 0.5105(9) 0.047(2)
O3 O 0.1968(5) 0.3349(6) 0.137(2)
O4 O 0.2160(6) 0.2698(9) 0.203(2)
C1 C 0.4806(8) 0.4634(10) 0.084(2)
C2 C 0.4143(7) 0.4242(8) 0.109(2)
C3 C 0.3761(7) 0.4433(8) 0.087(3)
H1 H 0.3903 0.4795 0.0551
C4 C 0.3151(7) 0.4097(8) 0.110(2)
H2 H 0.2895 0.4252 0.1013
C5 C 0.2945(6) 0.3547(7) 0.147(2)
C6 C 0.3342(7) 0.3390(8) 0.171(2)
H3 H 0.3198 0.3021 0.2009
C7 C 0.3954(7) 0.3728(7) 0.156(2)
H4 H 0.4218 0.3605 0.1776
C8 C 0.2326(8) 0.3176(10) 0.163(2)
C9 C 0.6926(7) 0.5479(6) 0.092(2)
C10 C 0.7354(7) 0.5283(6) 0.090(2)
H5 H 0.7230 0.4878 0.0818
C11 C 0.7925(7) 0.5678(7) 0.099(2)
H6 H 0.8199 0.5541 0.0962
C12 C 0.8151(6) 0.6294(6) 0.113(2)
C13 C 0.8760(6) 0.6705(7) 0.122(2)
H7 H 0.9033 0.6568 0.1186
C14 C 0.8962(6) 0.7268(7) 0.137(3)
H8 H 0.9369 0.7524 0.1484
C15 C 0.8564(7) 0.7493(6) 0.134(2)
C16 C 0.8776(8) 0.8098(7) 0.157(2)
H9 H 0.9180 0.8349 0.1718
C17 C 0.8405(9) 0.8306(6) 0.158(3)
H10 H 0.8566 0.8715 0.1687
C18 C 0.0183(10) 0.2223(7) 0.143(3)
C19 C -0.0226(7) 0.2421(6) 0.129(2)
H11 H -0.0078 0.2831 0.1212
C20 C 0.7956(6) 0.7121(5) 0.127(2)
C21 C 0.7747(6) 0.6493(6) 0.111(2)
C22 C 0.7142(6) 0.6076(6) 0.104(2)
H12 H 0.6868 0.6212 0.1070
C23 C 0.5337(15) 0.4059(14) -0.090(3)
H13 H 0.4984 0.4006 -0.0568
H14 H 0.5251 0.4018 -0.1570
C24 C 0.5490 0.3620 -0.060(5)
H15 H 0.5853 0.3692 -0.0903
H16 H 0.5170 0.3225 -0.0755
H17 H 0.5549 0.3649 0.0073
C25 C 0.6612(15) 0.4740(16) -0.114(3)
H18 H 0.7003 0.5047 -0.0917
H19 H 0.6554 0.4351 -0.0957
C26 C 0.659(2) 0.477(2) -0.222(3)
H20 H 0.6736 0.5182 -0.2406
H21 H 0.6180 0.4530 -0.2426
H22 H 0.6832 0.4627 -0.2494
C27 C 0.600(3) 0.543(2) -0.135(4)
H23 H 0.6206 0.5461 -0.1947
H24 H 0.5589 0.5308 -0.1489
C28 C 0.628(3) 0.597(3) -0.089(5)
H25 H 0.5999 0.5992 -0.0472
H26 H 0.6418 0.6290 -0.1345
H27 H 0.6617 0.6010 -0.0540
C29 C 0.6187(13) 0.5620(11) 0.306(2)
H28 H 0.6109 0.5551 0.3727
H29 H 0.6594 0.5948 0.2970
C30 C 0.5751(10) 0.5767(10) 0.262(3)
H30 H 0.5745 0.5709 0.1950
H31 H 0.5869 0.6178 0.2749
H32 H 0.5357 0.5508 0.2870
C31 C 0.5403(11) 0.4383(11) 0.313(3)
H33 H 0.5469 0.4441 0.3804
H34 H 0.5062 0.4429 0.2965
C32 C 0.5282(12) 0.3722(10) 0.283(3)
H35 H 0.5242 0.3680 0.2156
H36 H 0.4918 0.3419 0.3119
H37 H 0.5613 0.3675 0.3029
C33 C 0.6710(11) 0.4890(12) 0.301(2)
H38 H 0.6704 0.4538 0.2745
H39 H 0.7079 0.5237 0.2792
C34 C 0.6747(14) 0.4861(18) 0.399(3)
H40 H 0.6703 0.5175 0.4274
H41 H 0.7131 0.4909 0.4157
H42 H 0.6434 0.4478 0.4208
C35 C 0.1769(19) 0.302(2) -0.072(3)
H43 H 0.2089 0.3041 -0.0328
H44 H 0.1753 0.2793 -0.1272
C36 C 0.1940 0.3510 -0.098(5)
H45 H 0.2184 0.3585 -0.1530
H46 H 0.2174 0.3789 -0.0494
H47 H 0.1603 0.3559 -0.1131
C37 C 0.0496(18) 0.2398(16) -0.086(3)
H48 H 0.0570 0.2269 -0.1460
H49 H 0.0127 0.2069 -0.0604
C38 C 0.0415(19) 0.2904(19) -0.101(4)
H50 H 0.0124 0.2813 -0.1493
H51 H 0.0791 0.3245 -0.1188
H52 H 0.0278 0.2994 -0.0433
C39 C 0.0919(12) 0.1741(17) -0.021(4)
H53 H 0.0504 0.1467 -0.0046
H54 H 0.0980 0.1663 -0.0860
C40 C 0.1334(15) 0.1646(14) 0.043(3)
H55 H 0.1677 0.2027 0.0586
H56 H 0.1464 0.1399 0.0121
H57 H 0.1122 0.1450 0.0999
C41 C 0.0422(12) 0.3099(10) 0.329(2)
H58 H 0.0452 0.3410 0.2865
H59 H 0.0034 0.2745 0.3173
C42 C 0.0421(10) 0.3289(11) 0.421(3)
H60 H 0.0463 0.3026 0.4640
H61 H 0.0048 0.3280 0.4326
H62 H 0.0749 0.3691 0.4287
C43 C 0.1651(16) 0.3384(15) 0.358(3)
H63 H 0.1577 0.3385 0.4250
H64 H 0.1954 0.3270 0.3478
C44 C 0.1815(18) 0.3972(18) 0.313(3)
H65 H 0.1744 0.3914 0.2461
H66 H 0.2231 0.4253 0.3238
H67 H 0.1573 0.4125 0.3387
C45 C 0.072(2) 0.2260(16) 0.369(3)
H68 H 0.0775 0.2389 0.4348
H69 H 0.0290 0.2005 0.3590
C46 C 0.1008(18) 0.1928(18) 0.353(3)
H70 H 0.0835 0.1676 0.2990
H71 H 0.0960 0.1683 0.4071
H72 H 0.1429 0.2198 0.3422
C17C C -0.0099(11) 0.1595(9) 0.158(3)
C16C C -0.0678(11) 0.1224(8) 0.157(2)
C15C C -0.1071(9) 0.1436(7) 0.134(2)
C14C C -0.1694(9) 0.1038(6) 0.137(3)
C13C C -0.2055(9) 0.1240(6) 0.122(2)
C12C C -0.1857(8) 0.1849(6) 0.113(2)
C11C C -0.2247(10) 0.2075(7) 0.099(2)
C10C C -0.2071(9) 0.2646(7) 0.090(2)
C9C C -0.1447(9) 0.3074(7) 0.092(2)
Pt1C Pt -0.11209(4) 0.39534(3) 0.0963(16)
P1C P -0.1176(5) 0.3973(3) -0.0625(17)
C23C C -0.1278(21) 0.4663(15) -0.090(3)
H13C H -0.0978 0.5016 -0.0568
H14C H -0.1233 0.4749 -0.1570
C24C C -0.1870 0.4510 -0.060(5)
H15C H -0.2161 0.4147 -0.0903
H16C H -0.1945 0.4830 -0.0755
H17C H -0.1900 0.4451 0.0073
C25C C -0.1872(22) 0.3388(15) -0.114(3)
H18C H -0.1956 0.2997 -0.0917
H19C H -0.2203 0.3446 -0.0957
C26C C -0.182(3) 0.341(2) -0.222(3)
H20C H -0.1554 0.3264 -0.2406
H21C H -0.1650 0.3820 -0.2426
H22C H -0.2205 0.3168 -0.2494
C27C C -0.057(4) 0.400(3) -0.135(4)
H23C H -0.0745 0.3794 -0.1947
H24C H -0.0281 0.4411 -0.1489
C28C C -0.031(4) 0.372(3) -0.089(5)
H25C H -0.0007 0.4001 -0.0472
H26C H -0.0128 0.3582 -0.1345
H27C H -0.0607 0.3383 -0.0540
P2C P -0.1149(4) 0.3914(3) 0.2477(18)
C29C C -0.0567(17) 0.3813(13) 0.306(2)
H28C H -0.0558 0.3891 0.3727
H29C H -0.0646 0.3406 0.2970
C30C C 0.0016(14) 0.4249(10) 0.262(3)
H30C H -0.0036 0.4255 0.1950
H31C H 0.0309 0.4131 0.2749
H32C H 0.0151 0.4643 0.2870
C31C C -0.1020(16) 0.4597(11) 0.313(3)
H33C H -0.1028 0.4531 0.3804
H34C H -0.0633 0.4938 0.2965
C32C C -0.1560(16) 0.4718(12) 0.283(3)
H35C H -0.1562 0.4758 0.2156
H36C H -0.1499 0.5082 0.3119
H37C H -0.1938 0.4387 0.3029
C33C C -0.1820(16) 0.3290(11) 0.301(2)
H38C H -0.2166 0.3296 0.2745
H39C H -0.1842 0.2921 0.2792
C34C C -0.1886(23) 0.3253(14) 0.399(3)
H40C H -0.1528 0.3297 0.4274
H41C H -0.2222 0.2869 0.4157
H42C H -0.1956 0.3566 0.4208
O1C O -0.0718(6) 0.4881(4) 0.104(2)
C1C C -0.0172(13) 0.5194(8) 0.084(2)
O2C O 0.0121(11) 0.5016(6) 0.047(2)
C2C C 0.0099(11) 0.5857(7) 0.109(2)
C3C C 0.0672(11) 0.6239(7) 0.087(3)
H1C H 0.0892 0.6097 0.0551
C4C C 0.0946(11) 0.6849(7) 0.110(2)
H2C H 0.1357 0.7105 0.1013
C5C C 0.0602(9) 0.7055(6) 0.147(2)
C6C C 0.0048(11) 0.6658(7) 0.171(2)
H3C H -0.0177 0.6802 0.2009
C7C C -0.0226(10) 0.6046(7) 0.156(2)
H4C H -0.0613 0.5782 0.1776
C8C C 0.0850(13) 0.7674(8) 0.163(2)
O3C O 0.1381(8) 0.8032(5) 0.137(2)
Pt2C Pt 0.17134(4) 0.89538(3) 0.1431(16)
P3C P 0.1457(5) 0.8908(4) -0.0088(17)
C35C C 0.1251(28) 0.8231(19) -0.072(3)
H43C H 0.0952 0.7911 -0.0328
H44C H 0.1040 0.8247 -0.1272
C36C C 0.1570 0.8060 -0.098(5)
H45C H 0.1401 0.7816 -0.1530
H46C H 0.1615 0.7826 -0.0494
H47C H 0.1956 0.8397 -0.1131
C37C C 0.1902(24) 0.9504(18) -0.086(3)
H48C H 0.1699 0.9430 -0.1460
H49C H 0.1942 0.9873 -0.0604
C38C C 0.2489(27) 0.9585(19) -0.101(4)
H50C H 0.2689 0.9876 -0.1493
H51C H 0.2454 0.9209 -0.1188
H52C H 0.2716 0.9722 -0.0433
C39C C 0.0822(21) 0.9081(12) -0.021(4)
H53C H 0.0963 0.9496 -0.0046
H54C H 0.0683 0.9020 -0.0860
C40C C 0.0312(21) 0.8666(15) 0.043(3)
H55C H 0.0350 0.8323 0.0586
H56C H -0.0065 0.8536 0.0121
H57C H 0.0328 0.8878 0.0999
P4C P 0.1935(5) 0.9012(4) 0.2951(17)
C41C C 0.2677(16) 0.9578(12) 0.329(2)
H58C H 0.2958 0.9548 0.2865
H59C H 0.2711 0.9966 0.3173
C42C C 0.2868(15) 0.9579(10) 0.421(3)
H60C H 0.2563 0.9537 0.4640
H61C H 0.3232 0.9952 0.4326
H62C H 0.2942 0.9251 0.4287
C43C C 0.1733(22) 0.8349(16) 0.358(3)
H63C H 0.1808 0.8423 0.4250
H64C H 0.1316 0.8046 0.3478
C44C C 0.2157(25) 0.8185(18) 0.313(3)
H65C H 0.2170 0.8256 0.2461
H66C H 0.2022 0.7769 0.3238
H67C H 0.2552 0.8427 0.3387
C45C C 0.1540(26) 0.928(2) 0.369(3)
H68C H 0.1614 0.9225 0.4348
H69C H 0.1715 0.9710 0.3590
C46C C 0.0920(25) 0.8992(18) 0.353(3)
H70C H 0.0841 0.9165 0.2990
H71C H 0.0723 0.9040 0.4071
H72C H 0.0769 0.8571 0.3422
C18C C 0.2040(12) 0.9817(10) 0.143(3)
C17B C 0.1694(6) 1.0099(11) 0.158(3)
C16B C 0.1902(7) 1.0678(11) 0.157(2)
C15B C 0.2507(6) 1.1071(9) 0.134(2)
C14B C 0.2732(7) 1.1694(9) 0.137(3)
C13B C 0.3295(7) 1.2055(9) 0.122(2)
C12B C 0.3706(6) 1.1857(8) 0.113(2)
C11B C 0.4322(7) 1.2247(10) 0.099(2)
C10B C 0.4717(6) 1.2071(9) 0.090(2)
C9B C 0.4521(6) 1.1447(9) 0.092(2)
Pt1B Pt 0.50743(3) 1.11209(4) 0.0963(16)
P1B P 0.5149(4) 1.1176(5) -0.0625(17)
C23B C 0.5941(14) 1.1278(21) -0.090(3)
H13B H 0.5994 1.0978 -0.0568
H14B H 0.5982 1.1233 -0.1570
C24B C 0.6380 1.1870 -0.060(5)
H15B H 0.6308 1.2161 -0.0903
H16B H 0.6775 1.1945 -0.0755
H17B H 0.6351 1.1900 0.0073
C25B C 0.5260(16) 1.1872(22) -0.114(3)
H18B H 0.4953 1.1956 -0.0917
H19B H 0.5649 1.2203 -0.0957
C26B C 0.523(2) 1.182(3) -0.222(3)
H20B H 0.4818 1.1554 -0.2406
H21B H 0.5470 1.1650 -0.2426
H22B H 0.5373 1.2205 -0.2494
C27B C 0.457(2) 1.057(4) -0.135(4)
H23B H 0.4539 1.0745 -0.1947
H24B H 0.4692 1.0281 -0.1489
C28B C 0.403(3) 1.031(4) -0.089(5)
H25B H 0.4008 1.0007 -0.0472
H26B H 0.3710 1.0128 -0.1345
H27B H 0.3990 1.0607 -0.0540
P2B P 0.5063(2) 1.1149(4) 0.2477(18)
C29B C 0.4380(11) 1.0567(17) 0.306(2)
H28B H 0.4449 1.0558 0.3727
H29B H 0.4052 1.0646 0.2970
C30B C 0.4233(10) 0.9984(14) 0.262(3)
H30B H 0.4291 1.0036 0.1950
H31B H 0.3822 0.9691 0.2749
H32B H 0.4492 0.9849 0.2870
C31B C 0.5617(11) 1.1020(16) 0.313(3)
H33B H 0.5559 1.1028 0.3804
H34B H 0.5571 1.0633 0.2965
C32B C 0.6278(10) 1.1560(16) 0.283(3)
H35B H 0.6320 1.1562 0.2156
H36B H 0.6581 1.1499 0.3119
H37B H 0.6325 1.1938 0.3029
C33B C 0.5110(12) 1.1820(16) 0.301(2)
H38B H 0.5462 1.2166 0.2745
H39B H 0.4763 1.1842 0.2792
C34B C 0.5139(18) 1.1886(23) 0.399(3)
H40B H 0.4825 1.1528 0.4274
H41B H 0.5091 1.2222 0.4157
H42B H 0.5522 1.1956 0.4208
O1B O 0.5599(5) 1.0718(6) 0.104(2)
C1B C 0.5366(10) 1.0172(13) 0.084(2)
O2B O 0.4895(9) 0.9879(11) 0.047(2)
C2B C 0.5758(8) 0.9901(11) 0.109(2)
C3B C 0.5567(8) 0.9328(11) 0.087(3)
H1B H 0.5205 0.9108 0.0551
C4B C 0.5903(8) 0.9054(11) 0.110(2)
H2B H 0.5748 0.8643 0.1013
C5B C 0.6453(7) 0.9398(9) 0.147(2)
C6B C 0.6610(8) 0.9952(11) 0.171(2)
H3B H 0.6979 1.0177 0.2009
C7B C 0.6272(7) 1.0226(10) 0.156(2)
H4B H 0.6395 1.0613 0.1776
C8B C 0.6824(10) 0.9150(13) 0.163(2)
O3B O 0.6651(6) 0.8619(8) 0.137(2)
Pt2B Pt 0.72404(3) 0.82866(4) 0.1431(16)
P3B P 0.7451(3) 0.8543(5) -0.0088(17)
C35B C 0.698(2) 0.8749(28) -0.072(3)
H43B H 0.6959 0.9048 -0.0328
H44B H 0.7207 0.8960 -0.1272
C36B C 0.6490 0.8430 -0.098(5)
H45B H 0.6415 0.8599 -0.1530
H46B H 0.6211 0.8385 -0.0494
H47B H 0.6441 0.8044 -0.1131
C37B C 0.7602(16) 0.8098(24) -0.086(3)
H48B H 0.7731 0.8301 -0.1460
H49B H 0.7931 0.8058 -0.0604
C38B C 0.7096(19) 0.7511(27) -0.101(4)
H50B H 0.7187 0.7311 -0.1493
H51B H 0.6755 0.7546 -0.1188
H52B H 0.7006 0.7284 -0.0433
C39B C 0.8259(17) 0.9178(21) -0.021(4)
H53B H 0.8533 0.9037 -0.0046
H54B H 0.8337 0.9317 -0.0860
C40B C 0.8354(14) 0.9688(21) 0.043(3)
H55B H 0.7973 0.9650 0.0586
H56B H 0.8601 1.0065 0.0121
H57B H 0.8550 0.9672 0.0999
P4B P 0.7077(3) 0.8065(5) 0.2951(17)
C41B C 0.6901(10) 0.7323(16) 0.329(2)
H58B H 0.6590 0.7042 0.2865
H59B H 0.7255 0.7289 0.3173
C42B C 0.6711(11) 0.7132(15) 0.421(3)
H60B H 0.6974 0.7437 0.4640
H61B H 0.6720 0.6768 0.4326
H62B H 0.6309 0.7058 0.4287
C43B C 0.6616(15) 0.8267(22) 0.358(3)
H63B H 0.6615 0.8192 0.4250
H64B H 0.6730 0.8684 0.3478
C44B C 0.6028(18) 0.7843(25) 0.313(3)
H65B H 0.6086 0.7830 0.2461
H66B H 0.5747 0.7978 0.3238
H67B H 0.5875 0.7448 0.3387
C45B C 0.7740(16) 0.8460(26) 0.369(3)
H68B H 0.7611 0.8386 0.4348
H69B H 0.7995 0.8285 0.3590
C46B C 0.8072(18) 0.9080(25) 0.353(3)
H70B H 0.8324 0.9159 0.2990
H71B H 0.8317 0.9277 0.4071
H72B H 0.7802 0.9231 0.3422
C18B C 0.7777(7) 0.7960(12) 0.143(3)
C19B C 0.7579(6) 0.7353(9) 0.129(2)
H11B H 0.7169 0.7091 0.1212
O4B O 0.7302(9) 0.9462(11) 0.203(2)
C22B C 0.3924(6) 1.1066(8) 0.104(2)
C21B C 0.3507(6) 1.1254(8) 0.111(2)
C20B C 0.2879(5) 1.0835(8) 0.127(2)
C19C C 0.2647(9) 1.0226(7) 0.129(2)
H11C H 0.2909 1.0078 0.1212
H12B H 0.3788 1.0656 0.1070
H5B H 0.5122 1.2352 0.0818
H6B H 0.4459 1.2658 0.0962
H7B H 0.3432 1.2465 0.1186
H8B H 0.2476 1.1845 0.1484
H9B H 0.1651 1.0831 0.1718
H10B H 0.1285 0.9851 0.1687
O4C O 0.0538(11) 0.7840(6) 0.203(2)
C22C C -0.1066(8) 0.2858(6) 0.104(2)
C21C C -0.1254(8) 0.2253(6) 0.111(2)
C20C C -0.0835(8) 0.2044(6) 0.127(2)
H12C H -0.0656 0.3132 0.1070
H5C H -0.2352 0.2770 0.0818
H6C H -0.2658 0.1801 0.0962
H7C H -0.2465 0.0967 0.1186
H8C H -0.1845 0.0631 0.1484
H9C H -0.0831 0.0820 0.1718
H10C H 0.0149 0.1434 0.1687
C47 C 0.536(2) 0.655(3) 0.081(5)
H73 H 0.5354 0.6165 0.0703
Cl1 Cl 0.6069(5) 0.7067(5) 0.100(2)
Cl2 Cl 0.4857(9) 0.6437(9) 0.166(2)
Cl3 Cl 0.5057(10) 0.6689(7) -0.015(2)
Cl4 Cl 0.7396(10) 0.3759(9) 0.1102
C48 C 0.6667 0.3333 0.1429
H74 H 0.6667 0.3333 0.2118
Cl4C Cl 0.6363(13) 0.2604(10) 0.1102
Cl4B Cl 0.6241(9) 0.3637(13) 0.1102
loop_
_geom_bond_atom_site_label_1
_geom_bond_atom_site_label_2
_geom_bond_site_symmetry_1
_geom_bond_site_symmetry_2
Pt1 P1 1_555 1_555
Pt2 P3 1_555 1_555
P1 C23 1_555 1_555
P2 Pt1 1_555 1_555
P3 C35 1_555 1_555
P4 Pt2 1_555 1_555
O1 Pt1 1_555 1_555
O2 C1 1_555 1_555
O3 Pt2 1_555 1_555
O4 C8 1_555 1_555
C1 O1 1_555 1_555
C2 C1 1_555 1_555
C3 C2 1_555 1_555
H1 C3 1_555 1_555
C4 C3 1_555 1_555
H2 C4 1_555 1_555
C5 C4 1_555 1_555
C6 C5 1_555 1_555
H3 C6 1_555 1_555
C7 C2 1_555 1_555
H4 C7 1_555 1_555
C8 O3 1_555 1_555
C9 Pt1 1_555 1_555
C10 C9 1_555 1_555
H5 C10 1_555 1_555
C11 C10 1_555 1_555
H6 C11 1_555 1_555
C12 C11 1_555 1_555
C13 C12 1_555 1_555
H7 C13 1_555 1_555
C14 C13 1_555 1_555
H8 C14 1_555 1_555
C15 C14 1_555 1_555
C16 C15 1_555 1_555
H9 C16 1_555 1_555
C17 C16 1_555 1_555
H10 C17 1_555 1_555
C18 Pt2 1_555 1_555
C19 C18 1_555 1_555
H11 C19 1_555 1_555
C20 C15 1_555 1_555
C21 C12 1_555 1_555
C22 C9 1_555 1_555
H12 C22 1_555 1_555
C23 H13 1_555 1_555
H14 C23 1_555 1_555
C24 C23 1_555 1_555
H15 C24 1_555 1_555
H16 C24 1_555 1_555
H17 C24 1_555 1_555
C25 P1 1_555 1_555
H18 C25 1_555 1_555
H19 C25 1_555 1_555
C26 C25 1_555 1_555
H20 C26 1_555 1_555
H21 C26 1_555 1_555
H22 C26 1_555 1_555
C27 P1 1_555 1_555
H23 C27 1_555 1_555
H24 C27 1_555 1_555
C28 C27 1_555 1_555
H25 C28 1_555 1_555
H26 C28 1_555 1_555
H27 C28 1_555 1_555
C29 P2 1_555 1_555
H28 C29 1_555 1_555
H29 C29 1_555 1_555
C30 C29 1_555 1_555
H30 C30 1_555 1_555
H31 C30 1_555 1_555
H32 C30 1_555 1_555
C31 P2 1_555 1_555
H33 C31 1_555 1_555
H34 C31 1_555 1_555
C32 C31 1_555 1_555
H35 C32 1_555 1_555
H36 C32 1_555 1_555
H37 C32 1_555 1_555
C33 P2 1_555 1_555
H38 C33 1_555 1_555
H39 C33 1_555 1_555
C34 C33 1_555 1_555
H40 C34 1_555 1_555
H41 C34 1_555 1_555
H42 C34 1_555 1_555
C35 H43 1_555 1_555
H44 C35 1_555 1_555
C36 C35 1_555 1_555
H45 C36 1_555 1_555
H46 C36 1_555 1_555
H47 C36 1_555 1_555
C37 P3 1_555 1_555
H48 C37 1_555 1_555
H49 C37 1_555 1_555
C38 C37 1_555 1_555
H50 C38 1_555 1_555
H51 C38 1_555 1_555
H52 C38 1_555 1_555
C39 P3 1_555 1_555
H53 C39 1_555 1_555
H54 C39 1_555 1_555
C40 C39 1_555 1_555
H55 C40 1_555 1_555
H56 C40 1_555 1_555
H57 C40 1_555 1_555
C41 P4 1_555 1_555
H58 C41 1_555 1_555
H59 C41 1_555 1_555
C42 C41 1_555 1_555
H60 C42 1_555 1_555
H61 C42 1_555 1_555
H62 C42 1_555 1_555
C43 P4 1_555 1_555
H63 C43 1_555 1_555
H64 C43 1_555 1_555
C44 C43 1_555 1_555
H65 C44 1_555 1_555
H66 C44 1_555 1_555
H67 C44 1_555 1_555
C45 P4 1_555 1_555
H68 C45 1_555 1_555
H69 C45 1_555 1_555
C46 C45 1_555 1_555
H70 C46 1_555 1_555
H71 C46 1_555 1_555
H72 C46 1_555 1_555
C47 H73 1_555 1_555
Cl1 C47 1_555 1_555
Cl2 C47 1_555 1_555
Cl3 C47 1_555 1_555
Cl4 C48 1_555 1_555
C48 H74 1_555 1_555
C17C C18 1_555 1_555
C16C C17C 1_555 1_555
C15C C16C 1_555 1_555
C14C C15C 1_555 1_555
C13C C14C 1_555 1_555
C12C C13C 1_555 1_555
C11C C12C 1_555 1_555
C10C C11C 1_555 1_555
C9C C10C 1_555 1_555
Pt1C C9C 1_555 1_555
P1C Pt1C 1_555 1_555
C23C P1C 1_555 1_555
H13C C23C 1_555 1_555
H14C C23C 1_555 1_555
C24C C23C 1_555 1_555
H15C C24C 1_555 1_555
H16C C24C 1_555 1_555
H17C C24C 1_555 1_555
C25C P1C 1_555 1_555
H18C C25C 1_555 1_555
H19C C25C 1_555 1_555
C26C C25C 1_555 1_555
H20C C26C 1_555 1_555
H21C C26C 1_555 1_555
H22C C26C 1_555 1_555
C27C P1C 1_555 1_555
H23C C27C 1_555 1_555
H24C C27C 1_555 1_555
C28C C27C 1_555 1_555
H25C C28C 1_555 1_555
H26C C28C 1_555 1_555
H27C C28C 1_555 1_555
P2C Pt1C 1_555 1_555
C29C P2C 1_555 1_555
H28C C29C 1_555 1_555
H29C C29C 1_555 1_555
C30C C29C 1_555 1_555
H30C C30C 1_555 1_555
H31C C30C 1_555 1_555
H32C C30C 1_555 1_555
C31C P2C 1_555 1_555
H33C C31C 1_555 1_555
H34C C31C 1_555 1_555
C32C C31C 1_555 1_555
H35C C32C 1_555 1_555
H36C C32C 1_555 1_555
H37C C32C 1_555 1_555
C33C P2C 1_555 1_555
H38C C33C 1_555 1_555
H39C C33C 1_555 1_555
C34C C33C 1_555 1_555
H40C C34C 1_555 1_555
H41C C34C 1_555 1_555
H42C C34C 1_555 1_555
O1C Pt1C 1_555 1_555
C1C O1C 1_555 1_555
O2C C1C 1_555 1_555
C2C C1C 1_555 1_555
C3C C2C 1_555 1_555
H1C C3C 1_555 1_555
C4C C3C 1_555 1_555
H2C C4C 1_555 1_555
C5C C4C 1_555 1_555
C6C C5C 1_555 1_555
H3C C6C 1_555 1_555
C7C C2C 1_555 1_555
H4C C7C 1_555 1_555
C8C C5C 1_555 1_555
O3C C8C 1_555 1_555
Pt2C O3C 1_555 1_555
P3C Pt2C 1_555 1_555
C35C P3C 1_555 1_555
H43C C35C 1_555 1_555
H44C C35C 1_555 1_555
C36C C35C 1_555 1_555
H45C C36C 1_555 1_555
H46C C36C 1_555 1_555
H47C C36C 1_555 1_555
C37C P3C 1_555 1_555
H48C C37C 1_555 1_555
H49C C37C 1_555 1_555
C38C C37C 1_555 1_555
H50C C38C 1_555 1_555
H51C C38C 1_555 1_555
H52C C38C 1_555 1_555
C39C P3C 1_555 1_555
H53C C39C 1_555 1_555
H54C C39C 1_555 1_555
C40C C39C 1_555 1_555
H55C C40C 1_555 1_555
H56C C40C 1_555 1_555
H57C C40C 1_555 1_555
P4C Pt2C 1_555 1_555
C41C P4C 1_555 1_555
H58C C41C 1_555 1_555
H59C C41C 1_555 1_555
C42C C41C 1_555 1_555
H60C C42C 1_555 1_555
H61C C42C 1_555 1_555
H62C C42C 1_555 1_555
C43C P4C 1_555 1_555
H63C C43C 1_555 1_555
H64C C43C 1_555 1_555
C44C C43C 1_555 1_555
H65C C44C 1_555 1_555
H66C C44C 1_555 1_555
H67C C44C 1_555 1_555
C45C P4C 1_555 1_555
H68C C45C 1_555 1_555
H69C C45C 1_555 1_555
C46C C45C 1_555 1_555
H70C C46C 1_555 1_555
H71C C46C 1_555 1_555
H72C C46C 1_555 1_555
C18C Pt2C 1_555 1_555
C17B C18C 1_555 1_555
C16B C17B 1_555 1_555
C15B C16B 1_555 1_555
C14B C15B 1_555 1_555
C13B C14B 1_555 1_555
C12B C13B 1_555 1_555
C11B C12B 1_555 1_555
C10B C11B 1_555 1_555
C9B C10B 1_555 1_555
Pt1B C9B 1_555 1_555
P1B Pt1B 1_555 1_555
C23B P1B 1_555 1_555
H13B C23B 1_555 1_555
H14B C23B 1_555 1_555
C24B C23B 1_555 1_555
H15B C24B 1_555 1_555
H16B C24B 1_555 1_555
H17B C24B 1_555 1_555
C25B P1B 1_555 1_555
H18B C25B 1_555 1_555
H19B C25B 1_555 1_555
C26B C25B 1_555 1_555
H20B C26B 1_555 1_555
H21B C26B 1_555 1_555
H22B C26B 1_555 1_555
C27B P1B 1_555 1_555
H23B C27B 1_555 1_555
H24B C27B 1_555 1_555
C28B C27B 1_555 1_555
H25B C28B 1_555 1_555
H26B C28B 1_555 1_555
H27B C28B 1_555 1_555
P2B Pt1B 1_555 1_555
C29B P2B 1_555 1_555
H28B C29B 1_555 1_555
H29B C29B 1_555 1_555
C30B C29B 1_555 1_555
H30B C30B 1_555 1_555
H31B C30B 1_555 1_555
H32B C30B 1_555 1_555
C31B P2B 1_555 1_555
H33B C31B 1_555 1_555
H34B C31B 1_555 1_555
C32B C31B 1_555 1_555
H35B C32B 1_555 1_555
H36B C32B 1_555 1_555
H37B C32B 1_555 1_555
C33B P2B 1_555 1_555
H38B C33B 1_555 1_555
H39B C33B 1_555 1_555
C34B C33B 1_555 1_555
H40B C34B 1_555 1_555
H41B C34B 1_555 1_555
H42B C34B 1_555 1_555
O1B Pt1B 1_555 1_555
C1B O1B 1_555 1_555
O2B C1B 1_555 1_555
C2B C1B 1_555 1_555
C3B C2B 1_555 1_555
H1B C3B 1_555 1_555
C4B C3B 1_555 1_555
H2B C4B 1_555 1_555
C5B C4B 1_555 1_555
C6B C5B 1_555 1_555
H3B C6B 1_555 1_555
C7B C2B 1_555 1_555
H4B C7B 1_555 1_555
C8B C5B 1_555 1_555
O3B C8B 1_555 1_555
Pt2B O3B 1_555 1_555
P3B Pt2B 1_555 1_555
C35B P3B 1_555 1_555
H43B C35B 1_555 1_555
H44B C35B 1_555 1_555
C36B C35B 1_555 1_555
H45B C36B 1_555 1_555
H46B C36B 1_555 1_555
H47B C36B 1_555 1_555
C37B P3B 1_555 1_555
H48B C37B 1_555 1_555
H49B C37B 1_555 1_555
C38B C37B 1_555 1_555
H50B C38B 1_555 1_555
H51B C38B 1_555 1_555
H52B C38B 1_555 1_555
C39B P3B 1_555 1_555
H53B C39B 1_555 1_555
H54B C39B 1_555 1_555
C40B C39B 1_555 1_555
H55B C40B 1_555 1_555
H56B C40B 1_555 1_555
H57B C40B 1_555 1_555
P4B Pt2B 1_555 1_555
C41B P4B 1_555 1_555
H58B C41B 1_555 1_555
H59B C41B 1_555 1_555
C42B C41B 1_555 1_555
H60B C42B 1_555 1_555
H61B C42B 1_555 1_555
H62B C42B 1_555 1_555
C43B P4B 1_555 1_555
H63B C43B 1_555 1_555
H64B C43B 1_555 1_555
C44B C43B 1_555 1_555
H65B C44B 1_555 1_555
H66B C44B 1_555 1_555
H67B C44B 1_555 1_555
C45B P4B 1_555 1_555
H68B C45B 1_555 1_555
H69B C45B 1_555 1_555
C46B C45B 1_555 1_555
H70B C46B 1_555 1_555
H71B C46B 1_555 1_555
H72B C46B 1_555 1_555
C18B C17 1_555 1_555
C19B C20 1_555 1_555
H11B C19B 1_555 1_555
O4B C8B 1_555 1_555
C22B C9B 1_555 1_555
C21B C12B 1_555 1_555
C20B C15B 1_555 1_555
C19C C18C 1_555 1_555
H11C C19C 1_555 1_555
H12B C22B 1_555 1_555
H5B C10B 1_555 1_555
H6B C11B 1_555 1_555
H7B C13B 1_555 1_555
H8B C14B 1_555 1_555
H9B C16B 1_555 1_555
H10B C17B 1_555 1_555
O4C C8C 1_555 1_555
C22C C9C 1_555 1_555
C21C C12C 1_555 1_555
C20C C19 1_555 1_555
H12C C22C 1_555 1_555
H5C C10C 1_555 1_555
H6C C11C 1_555 1_555
H7C C13C 1_555 1_555
H8C C14C 1_555 1_555
H9C C16C 1_555 1_555
H10C C17C 1_555 1_555
Cl4C C48 1_555 1_555
Cl4B C48 1_555 1_555
C5 C8 1_555 1_555
C6 C7 1_555 1_555
C20 C21 1_555 1_555
C21 C22 1_555 1_555
C15C C20C 1_555 1_555
C6C C7C 1_555 1_555
C6B C7B 1_555 1_555
Pt2B C18B 1_555 1_555
C18B C19B 1_555 1_555
C22B C21B 1_555 1_555
C21B C20B 1_555 1_555
C20B C19C 1_555 1_555
C22C C21C 1_555 1_555
C21C C20C 1_555 1_555

#END
