
#######################################################################
#
#                 Cambridge Crystallographic Data Centre
#                                CCDC 
#
#######################################################################
#
# If this CIF has been generated from an entry in the Cambridge 
# Structural Database, then it will include bibliographic, chemical, 
# crystal, experimental, refinement or atomic coordinate data resulting 
# from the CCDC's data processing and validation procedures.
#
#######################################################################

data_AVAMIT
_chemical_formula_moiety         'C132 H216 O12 P12 Pt6,9(H2 O1)'
_chemical_name_systematic        
"tris((\m~2~-trans,trans-Hexa-2,4-dien-1,6-dioato-O,O')-(\m~2~-phenanthrene-2,9-diyl))-dodecakis(triethylphosphine)-hexa-platinum nonahydrate"
_symmetry_cell_setting           hexagonal
_symmetry_space_group_name_H-M   'P 63'
_symmetry_Int_Tables_number      173
_space_group_name_Hall           'P 6c'
loop_
_symmetry_equiv_pos_site_id
_symmetry_equiv_pos_as_xyz
1 x,y,z
2 -x,-y,1/2+z
3 -y,x-y,z
4 -x+y,-x,z
5 x-y,x,1/2+z
6 y,-x+y,1/2+z
_cell_length_a                   26.4164(5)
_cell_length_b                   26.4164(5)
_cell_length_c                   13.6104(2)
_cell_angle_alpha                90
_cell_angle_beta                 90
_cell_angle_gamma                120
_cell_volume                     8225.24
_exptl_crystal_colour            colorless
_exptl_crystal_description       prism
_cell_formula_units_Z            2
loop_
_atom_site_label
_atom_site_type_symbol
_atom_site_fract_x
_atom_site_fract_y
_atom_site_fract_z
Pt1 Pt 0.615732(17) 0.482339(18) 0.33731(4)
Pt2 Pt 0.086818(14) 0.268779(17) 0.35950(4)
P1 P 0.6181(2) 0.4818(2) 0.5065(4)
P2 P 0.6117(2) 0.47892(18) 0.1677(4)
P3 P 0.08012(14) 0.28588(19) 0.5224(2)
P4 P 0.09078(13) 0.23975(16) 0.2018(2)
O1 O 0.5244(3) 0.4227(3) 0.3472(10)
O2 O 0.5010(4) 0.4895(6) 0.3063(11)
O3 O 0.1767(2) 0.3323(3) 0.3552(7)
O4 O 0.2070(4) 0.2702(5) 0.4020(9)
C1 C 0.4896(5) 0.4423(6) 0.3357(16)
C2 C 0.4282(4) 0.3983(5) 0.3673(14)
H1 H 0.4211 0.3631 0.3981
C3 C 0.3856 0.4074 0.3534(12)
H2 H 0.3939 0.4442 0.3278
C4 C 0.3222(5) 0.3622(6) 0.3758(9)
H3 H 0.3155 0.3264 0.4036
C5 C 0.2756(4) 0.3673(5) 0.3609(11)
H4 H 0.2811 0.4043 0.3421
C6 C 0.2155(5) 0.3182(6) 0.3720(12)
C7 C 0.7016(4) 0.5387(4) 0.3360(12)
C8 C 0.7448(4) 0.5218(4) 0.3352(15)
H5 H 0.7323 0.4813 0.3333
C9 C 0.8034(4) 0.5609(4) 0.3371(11)
H6 H 0.8305 0.5475 0.3311
C10 C 0.8238(4) 0.6212(4) 0.3479(10)
C11 C 0.8849(3) 0.6632(4) 0.3591(9)
H7 H 0.9121 0.6498 0.3610
C12 C 0.9042(4) 0.7189(4) 0.3667(12)
H8 H 0.9449 0.7451 0.3736
C13 C 0.8647(4) 0.7412(4) 0.3647(8)
C14 C 0.8854(5) 0.8019(5) 0.3768(8)
H9 H 0.9260 0.8280 0.3859
C15 C 0.8474(5) 0.8238(5) 0.3755(8)
H10 H 0.8622 0.8644 0.3851
C16 C -0.0001(4) 0.2140(4) 0.3599(9)
C17 C -0.0396(4) 0.2323(3) 0.3475(9)
H11 H -0.0249 0.2726 0.3349
C18 C 0.8043(4) 0.7037(4) 0.3519(8)
C19 C 0.7824(4) 0.6410(4) 0.3453(8)
C20 C 0.7223(4) 0.5986(4) 0.3388(8)
H12 H 0.6947 0.6117 0.3363
C21 C 0.5511(10) 0.4262(10) 0.565(2)
H13 H 0.5516 0.4326 0.6365
H14 H 0.5161 0.4250 0.5358
C22 C 0.5535(15) 0.3694(13) 0.540(3)
H15 H 0.5213 0.3359 0.5736
H16 H 0.5909 0.3741 0.5625
H17 H 0.5498 0.3628 0.4691
C23 C 0.6836(8) 0.4904(11) 0.5611(15)
H18 H 0.6899 0.4587 0.5365
H19 H 0.7169 0.5279 0.5382
C24 C 0.6847 0.4897 0.6724(17)
H20 H 0.7215 0.4931 0.6947
H21 H 0.6519 0.4529 0.6964
H22 H 0.6814 0.5226 0.6980
C25 C 0.6246(12) 0.5486(10) 0.5662(19)
H23 H 0.6188 0.5423 0.6380
H24 H 0.6641 0.5823 0.5545
C26 C 0.5780(11) 0.5616(11) 0.5233(19)
H25 H 0.5816 0.5966 0.5546
H26 H 0.5389 0.5283 0.5357
H27 H 0.5840 0.5680 0.4523
C27 C 0.5539(9) 0.4073(8) 0.1214(18)
H28 H 0.5153 0.3953 0.1509
H29 H 0.5510 0.4064 0.0488
C28 C 0.5814(19) 0.3694(18) 0.161(3)
H30 H 0.5567 0.3286 0.1411
H31 H 0.5836 0.3717 0.2332
H32 H 0.6208 0.3847 0.1342
C29 C 0.6801 0.4913 0.1043(14)
H33 H 0.7114 0.5321 0.1166
H34 H 0.6926 0.4651 0.1340
C30 C 0.6743(9) 0.4813(10) -0.0015(18)
H35 H 0.7117 0.4886 -0.0288
H36 H 0.6631 0.5079 -0.0322
H37 H 0.6441 0.4408 -0.0147
C31 C 0.5831(10) 0.5225(9) 0.1090(17)
H38 H 0.5821 0.5179 0.0367
H39 H 0.5428 0.5094 0.1322
C32 C 0.6231(12) 0.5854(10) 0.137(2)
H40 H 0.6088 0.6098 0.1070
H41 H 0.6626 0.5981 0.1129
H42 H 0.6238 0.5894 0.2084
C33 C 0.0544 0.2191 0.5960(12)
H43 H 0.0498 0.2274 0.6653
H44 H 0.0157 0.1886 0.5716
C34 C 0.0953(10) 0.1978(10) 0.5904(15)
H45 H 0.0809 0.1623 0.6302
H46 H 0.1335 0.2278 0.6155
H47 H 0.0994 0.1889 0.5219
C35 C 0.1516(8) 0.3510(15) 0.5775(12)
H48 H 0.1476 0.3506 0.6498
H49 H 0.1848 0.3447 0.5627
C36 C 0.1652(12) 0.4071(11) 0.542(2)
H50 H 0.1644 0.4065 0.4695
H51 H 0.2042 0.4365 0.5642
H52 H 0.1363 0.4169 0.5661
C37 C 0.0238(7) 0.3088(8) 0.5514(13)
H53 H 0.0330 0.3437 0.5113
H54 H -0.0151 0.2770 0.5304
C38 C 0.0199 0.3227 0.6566(11)
H55 H 0.0040 0.2868 0.6957
H56 H -0.0058 0.3394 0.6621
H57 H 0.0590 0.3510 0.6808
C39 C 0.0754(6) 0.1632(7) 0.1956(10)
H58 H 0.0332 0.1366 0.2071
H59 H 0.0845 0.1555 0.1285
C40 C 0.1101 0.1492 0.2697(15)
H60 H 0.1517 0.1784 0.2645
H61 H 0.1045 0.1103 0.2560
H62 H 0.0964 0.1499 0.3363
C41 C 0.1603(5) 0.2757(7) 0.1390(9)
H63 H 0.1893 0.2713 0.1786
H64 H 0.1562 0.2560 0.0751
C42 C 0.1834(8) 0.3405(9) 0.1206(14)
H65 H 0.1541 0.3455 0.0843
H66 H 0.2195 0.3567 0.0821
H67 H 0.1913 0.3611 0.1836
C43 C 0.0373(6) 0.2371(6) 0.1172(8)
H68 H 0.0475 0.2299 0.0506
H69 H -0.0011 0.2030 0.1345
C44 C 0.0306(7) 0.2893(8) 0.1127(12)
H70 H 0.0284 0.3019 0.1796
H71 H -0.0053 0.2798 0.0770
H72 H 0.0642 0.3209 0.0786
C15C C -0.0236(7) 0.1526(5) 0.3755(8)
C14C C -0.0835(7) 0.1146(5) 0.3768(8)
C13C C -0.1235(6) 0.1353(4) 0.3647(8)
C12C C -0.1853(6) 0.0958(4) 0.3667(12)
C11C C -0.2217(5) 0.1151(3) 0.3591(9)
C10C C -0.2026(6) 0.1762(4) 0.3479(10)
C9C C -0.2425(6) 0.1966(4) 0.3371(11)
C8C C -0.2230(6) 0.2552(4) 0.3352(15)
C7C C -0.1629(6) 0.2984(4) 0.3360(12)
Pt1C Pt -0.133393(25) 0.384268(17) 0.33731(4)
P1C P -0.1363(3) 0.3819(2) 0.5065(4)
C21C C -0.1249(14) 0.4489(10) 0.565(2)
H13C H -0.1190 0.4484 0.6365
H14C H -0.0911 0.4839 0.5358
C22C C -0.1841(20) 0.4465(15) 0.540(3)
H15C H -0.1854 0.4787 0.5736
H16C H -0.2168 0.4091 0.5625
H17C H -0.1870 0.4502 0.4691
C23C C -0.1932(14) 0.3164(8) 0.5611(15)
H18C H -0.2312 0.3101 0.5365
H19C H -0.1890 0.2831 0.5382
C24C C -0.1950 0.3153 0.6724(17)
H20C H -0.2284 0.2785 0.6947
H21C H -0.1990 0.3481 0.6964
H22C H -0.1588 0.3186 0.6980
C25C C -0.0760(16) 0.3754(12) 0.5662(19)
H23C H -0.0765 0.3812 0.6380
H24C H -0.0818 0.3359 0.5545
C26C C -0.0164(16) 0.4220(11) 0.5233(19)
H25C H 0.0150 0.4184 0.5546
H26C H -0.0106 0.4611 0.5357
H27C H -0.0160 0.4160 0.4523
P2C P -0.13278(27) 0.3883(2) 0.1677(4)
C27C C -0.1466(12) 0.4461(9) 0.1214(18)
H28C H -0.1200 0.4847 0.1509
H29C H -0.1446 0.4490 0.0488
C28C C -0.2120(26) 0.4186(19) 0.161(3)
H30C H -0.2281 0.4433 0.1411
H31C H -0.2119 0.4164 0.2332
H32C H -0.2361 0.3792 0.1342
C29C C -0.1888 0.3199 0.1043(14)
H33C H -0.1793 0.2886 0.1166
H34C H -0.2275 0.3074 0.1340
C30C C -0.1930(13) 0.3257(9) -0.0015(18)
H35C H -0.2231 0.2883 -0.0288
H36C H -0.1552 0.3369 -0.0322
H37C H -0.2033 0.3559 -0.0147
C31C C -0.0606(13) 0.4169(10) 0.1090(17)
H38C H -0.0642 0.4179 0.0367
H39C H -0.0334 0.4572 0.1322
C32C C -0.0377(16) 0.3769(12) 0.137(2)
H40C H 0.0010 0.3912 0.1070
H41C H -0.0645 0.3374 0.1129
H42C H -0.0344 0.3762 0.2084
O1C O -0.1017(4) 0.4756(3) 0.3472(10)
C1C C -0.0473(8) 0.5104(5) 0.3357(16)
O2C O -0.0115(7) 0.4990(4) 0.3063(11)
C2C C -0.0299(6) 0.5718(4) 0.3673(14)
H1C H -0.0580 0.5789 0.3981
C3C C 0.0218 0.6144 0.3534(12)
H2C H 0.0503 0.6061 0.3278
C4C C 0.0400(8) 0.6778(5) 0.3758(9)
H3C H 0.0109 0.6845 0.4036
C5C C 0.0917(6) 0.7244(4) 0.3609(11)
H4C H 0.1232 0.7189 0.3421
C6C C 0.1027(8) 0.7845(5) 0.3720(12)
O3C O 0.1556(4) 0.8233(2) 0.3552(7)
Pt2C Pt 0.181961(22) 0.913182(14) 0.35950(4)
P3C P 0.20576(24) 0.91988(14) 0.5224(2)
C33C C 0.1647 0.9456 0.5960(12)
H43C H 0.1776 0.9502 0.6653
H44C H 0.1729 0.9843 0.5716
C34C C 0.1025(14) 0.9047(10) 0.5904(15)
H45C H 0.0814 0.9191 0.6302
H46C H 0.0943 0.8665 0.6155
H47C H 0.0895 0.9006 0.5219
C35C C 0.1994(17) 0.8484(8) 0.5775(12)
H48C H 0.2030 0.8524 0.6498
H49C H 0.1599 0.8152 0.5627
C36C C 0.2419(16) 0.8348(12) 0.542(2)
H50C H 0.2421 0.8356 0.4695
H51C H 0.2323 0.7958 0.5642
H52C H 0.2806 0.8637 0.5661
C37C C 0.2850(11) 0.9762(7) 0.5514(13)
H53C H 0.3107 0.9670 0.5113
H54C H 0.2921 1.0151 0.5304
C38C C 0.3028 0.9801 0.6566(11)
H55C H 0.2828 0.9960 0.6957
H56C H 0.3452 1.0058 0.6621
H57C H 0.2920 0.9410 0.6808
P4C P 0.14897(21) 0.90922(13) 0.2018(2)
C39C C 0.0878(9) 0.9246(6) 0.1956(10)
H58C H 0.1034 0.9668 0.2071
H59C H 0.0710 0.9155 0.1285
C40C C 0.0391 0.8899 0.2697(15)
H60C H 0.0267 0.8483 0.2645
H61C H 0.0058 0.8955 0.2560
H62C H 0.0535 0.9036 0.3363
C41C C 0.1154(9) 0.8397(5) 0.1390(9)
H63C H 0.0820 0.8107 0.1786
H64C H 0.0998 0.8438 0.0751
C42C C 0.1571(12) 0.8166(8) 0.1206(14)
H65C H 0.1914 0.8459 0.0843
H66C H 0.1372 0.7805 0.0821
H67C H 0.1698 0.8087 0.1836
C43C C 0.1998(8) 0.9627(6) 0.1172(8)
H68C H 0.1824 0.9525 0.0506
H69C H 0.2041 1.0011 0.1345
C44C C 0.2587(11) 0.9694(7) 0.1127(12)
H70C H 0.2735 0.9716 0.1796
H71C H 0.2851 1.0053 0.0770
H72C H 0.2567 0.9358 0.0786
C16C C 0.2141(6) 1.0001(4) 0.3599(9)
C15B C 0.1762(5) 1.0236(7) 0.3755(8)
C14B C 0.1981(5) 1.0835(7) 0.3768(8)
C13B C 0.2588(4) 1.1235(6) 0.3647(8)
C12B C 0.2811(4) 1.1853(6) 0.3667(12)
C11B C 0.3368(4) 1.2217(5) 0.3591(9)
C10B C 0.3788(4) 1.2026(6) 0.3479(10)
C9B C 0.4391(4) 1.2425(6) 0.3371(11)
C8B C 0.4782(4) 1.2230(6) 0.3352(15)
C7B C 0.4613(4) 1.1629(6) 0.3360(12)
Pt1B Pt 0.517661(18) 1.133393(25) 0.33731(4)
P1B P 0.5182(2) 1.1363(3) 0.5065(4)
C21B C 0.5738(10) 1.1249(14) 0.565(2)
H13B H 0.5674 1.1190 0.6365
H14B H 0.5750 1.0911 0.5358
C22B C 0.6306(13) 1.1841(20) 0.540(3)
H15B H 0.6641 1.1854 0.5736
H16B H 0.6259 1.2168 0.5625
H17B H 0.6372 1.1870 0.4691
C23B C 0.5096(11) 1.1932(14) 0.5611(15)
H18B H 0.5413 1.2312 0.5365
H19B H 0.4721 1.1890 0.5382
C24B C 0.5103 1.1950 0.6724(17)
H20B H 0.5069 1.2284 0.6947
H21B H 0.5471 1.1990 0.6964
H22B H 0.4774 1.1588 0.6980
C25B C 0.4514(10) 1.0760(16) 0.5662(19)
H23B H 0.4577 1.0765 0.6380
H24B H 0.4177 1.0818 0.5545
C26B C 0.4384(11) 1.0164(16) 0.5233(19)
H25B H 0.4034 0.9850 0.5546
H26B H 0.4717 1.0106 0.5357
H27B H 0.4320 1.0160 0.4523
P2B P 0.52108(18) 1.13278(27) 0.1677(4)
C27B C 0.5927(8) 1.1466(12) 0.1214(18)
H28B H 0.6047 1.1200 0.1509
H29B H 0.5936 1.1446 0.0488
C28B C 0.6306(18) 1.2120(26) 0.161(3)
H30B H 0.6714 1.2281 0.1411
H31B H 0.6283 1.2119 0.2332
H32B H 0.6153 1.2361 0.1342
C29B C 0.5087 1.1888 0.1043(14)
H33B H 0.4679 1.1793 0.1166
H34B H 0.5349 1.2275 0.1340
C30B C 0.5187(10) 1.1930(13) -0.0015(18)
H35B H 0.5114 1.2231 -0.0288
H36B H 0.4921 1.1552 -0.0322
H37B H 0.5592 1.2033 -0.0147
C31B C 0.4775(9) 1.0606(13) 0.1090(17)
H38B H 0.4821 1.0642 0.0367
H39B H 0.4906 1.0334 0.1322
C32B C 0.4146(10) 1.0377(16) 0.137(2)
H40B H 0.3902 0.9990 0.1070
H41B H 0.4019 1.0645 0.1129
H42B H 0.4106 1.0344 0.2084
O1B O 0.5773(3) 1.1017(4) 0.3472(10)
C1B C 0.5577(6) 1.0473(8) 0.3357(16)
O2B O 0.5105(6) 1.0115(7) 0.3063(11)
C2B C 0.6017(5) 1.0299(6) 0.3673(14)
H1B H 0.6369 1.0580 0.3981
C3B C 0.5926 0.9782 0.3534(12)
H2B H 0.5558 0.9497 0.3278
C4B C 0.6378(6) 0.9600(8) 0.3758(9)
H3B H 0.6736 0.9891 0.4036
C5B C 0.6327(5) 0.9083(6) 0.3609(11)
H4B H 0.5957 0.8768 0.3421
C6B C 0.6818(6) 0.8973(8) 0.3720(12)
O3B O 0.6677(3) 0.8444(4) 0.3552(7)
Pt2B Pt 0.731221(17) 0.818039(22) 0.35950(4)
P3B P 0.71412(19) 0.79424(24) 0.5224(2)
C33B C 0.7809 0.8353 0.5960(12)
H43B H 0.7726 0.8224 0.6653
H44B H 0.8114 0.8271 0.5716
C34B C 0.8022(10) 0.8975(14) 0.5904(15)
H45B H 0.8377 0.9186 0.6302
H46B H 0.7722 0.9057 0.6155
H47B H 0.8111 0.9105 0.5219
C35B C 0.6490(15) 0.8006(17) 0.5775(12)
H48B H 0.6494 0.7970 0.6498
H49B H 0.6553 0.8401 0.5627
C36B C 0.5929(11) 0.7581(16) 0.542(2)
H50B H 0.5935 0.7579 0.4695
H51B H 0.5635 0.7677 0.5642
H52B H 0.5831 0.7194 0.5661
C37B C 0.6912(8) 0.7150(11) 0.5514(13)
H53B H 0.6563 0.6893 0.5113
H54B H 0.7230 0.7079 0.5304
C38B C 0.6773 0.6972 0.6566(11)
H55B H 0.7132 0.7172 0.6957
H56B H 0.6606 0.6548 0.6621
H57B H 0.6490 0.7080 0.6808
P4B P 0.76025(16) 0.85103(21) 0.2018(2)
C39B C 0.8368(7) 0.9122(9) 0.1956(10)
H58B H 0.8634 0.8966 0.2071
H59B H 0.8445 0.9290 0.1285
C40B C 0.8508 0.9609 0.2697(15)
H60B H 0.8216 0.9733 0.2645
H61B H 0.8897 0.9942 0.2560
H62B H 0.8501 0.9465 0.3363
C41B C 0.7243(7) 0.8846(9) 0.1390(9)
H63B H 0.7287 0.9180 0.1786
H64B H 0.7440 0.9002 0.0751
C42B C 0.6595(9) 0.8429(12) 0.1206(14)
H65B H 0.6545 0.8086 0.0843
H66B H 0.6433 0.8628 0.0821
H67B H 0.6389 0.8302 0.1836
C43B C 0.7629(6) 0.8002(8) 0.1172(8)
H68B H 0.7701 0.8176 0.0506
H69B H 0.7970 0.7959 0.1345
C44B C 0.7107(8) 0.7413(11) 0.1127(12)
H70B H 0.6981 0.7265 0.1796
H71B H 0.7202 0.7149 0.0770
H72B H 0.6791 0.7433 0.0786
C16B C 0.7860(4) 0.7859(6) 0.3599(9)
C17B C 0.7677(3) 0.7281(5) 0.3475(9)
H11B H 0.7274 0.7025 0.3349
O4B O 0.7298(5) 0.9368(6) 0.4020(9)
C20B C 0.4014(4) 1.1237(6) 0.3388(8)
C19B C 0.3590(4) 1.1414(6) 0.3453(8)
C18B C 0.2963(4) 1.1006(6) 0.3519(8)
C17C C 0.2719(5) 1.0396(4) 0.3475(9)
H11C H 0.2975 1.0249 0.3349
H12B H 0.3883 1.0830 0.3363
H5B H 0.5187 1.2510 0.3333
H6B H 0.4525 1.2830 0.3311
H7B H 0.3502 1.2623 0.3610
H8B H 0.2549 1.1998 0.3736
H9B H 0.1720 1.0980 0.3859
H10B H 0.1356 0.9978 0.3851
O4C O 0.0632(6) 0.7930(4) 0.4020(9)
C20C C -0.1237(6) 0.2777(4) 0.3388(8)
C19C C -0.1414(6) 0.2176(4) 0.3453(8)
C18C C -0.1006(6) 0.1957(4) 0.3519(8)
H12C H -0.0830 0.3053 0.3363
H5C H -0.2510 0.2677 0.3333
H6C H -0.2830 0.1695 0.3311
H7C H -0.2623 0.0879 0.3610
H8C H -0.1998 0.0551 0.3736
H9C H -0.0980 0.0740 0.3859
H10C H 0.0022 0.1378 0.3851
O5 O 0.5971(8) 0.6774(7) 0.3199(13)
O6 O 0.5470(13) 0.6687(13) 0.143(2)
O7 O 0.4799(13) 0.6282(13) 0.325(2)
O8 O 0.3333 0.6667 0.220(2)
O9 O 0.0000 0.0000 0.153(2)
O10 O 0.0000 0.0000 0.368(4)
loop_
_geom_bond_atom_site_label_1
_geom_bond_atom_site_label_2
_geom_bond_site_symmetry_1
_geom_bond_site_symmetry_2
Pt1 P1 1_555 1_555
Pt2 P3 1_555 1_555
P1 C21 1_555 1_555
P2 Pt1 1_555 1_555
P3 C33 1_555 1_555
P4 Pt2 1_555 1_555
O1 Pt1 1_555 1_555
O2 C1 1_555 1_555
O3 Pt2 1_555 1_555
O4 C6 1_555 1_555
C1 O1 1_555 1_555
C2 C1 1_555 1_555
H1 C2 1_555 1_555
C3 C2 1_555 1_555
H2 C3 1_555 1_555
C4 C3 1_555 1_555
H3 C4 1_555 1_555
C5 C4 1_555 1_555
H4 C5 1_555 1_555
C6 O3 1_555 1_555
C7 Pt1 1_555 1_555
C8 C7 1_555 1_555
H5 C8 1_555 1_555
C9 C8 1_555 1_555
H6 C9 1_555 1_555
C10 C9 1_555 1_555
C11 C10 1_555 1_555
H7 C11 1_555 1_555
C12 C11 1_555 1_555
H8 C12 1_555 1_555
C13 C12 1_555 1_555
C14 C13 1_555 1_555
H9 C14 1_555 1_555
C15 C14 1_555 1_555
H10 C15 1_555 1_555
C16 Pt2 1_555 1_555
C17 C16 1_555 1_555
H11 C17 1_555 1_555
C18 C13 1_555 1_555
C19 C10 1_555 1_555
C20 C7 1_555 1_555
H12 C20 1_555 1_555
C21 H13 1_555 1_555
H14 C21 1_555 1_555
C22 C21 1_555 1_555
H15 C22 1_555 1_555
H16 C22 1_555 1_555
H17 C22 1_555 1_555
C23 P1 1_555 1_555
H18 C23 1_555 1_555
H19 C23 1_555 1_555
C24 C23 1_555 1_555
H20 C24 1_555 1_555
H21 C24 1_555 1_555
H22 C24 1_555 1_555
C25 P1 1_555 1_555
H23 C25 1_555 1_555
H24 C25 1_555 1_555
C26 C25 1_555 1_555
H25 C26 1_555 1_555
H26 C26 1_555 1_555
H27 C26 1_555 1_555
C27 P2 1_555 1_555
H28 C27 1_555 1_555
H29 C27 1_555 1_555
C28 C27 1_555 1_555
H30 C28 1_555 1_555
H31 C28 1_555 1_555
H32 C28 1_555 1_555
C29 P2 1_555 1_555
H33 C29 1_555 1_555
H34 C29 1_555 1_555
C30 C29 1_555 1_555
H35 C30 1_555 1_555
H36 C30 1_555 1_555
H37 C30 1_555 1_555
C31 P2 1_555 1_555
H38 C31 1_555 1_555
H39 C31 1_555 1_555
C32 C31 1_555 1_555
H40 C32 1_555 1_555
H41 C32 1_555 1_555
H42 C32 1_555 1_555
C33 H43 1_555 1_555
H44 C33 1_555 1_555
C34 C33 1_555 1_555
H45 C34 1_555 1_555
H46 C34 1_555 1_555
H47 C34 1_555 1_555
C35 P3 1_555 1_555
H48 C35 1_555 1_555
H49 C35 1_555 1_555
C36 C35 1_555 1_555
H50 C36 1_555 1_555
H51 C36 1_555 1_555
H52 C36 1_555 1_555
C37 P3 1_555 1_555
H53 C37 1_555 1_555
H54 C37 1_555 1_555
C38 C37 1_555 1_555
H55 C38 1_555 1_555
H56 C38 1_555 1_555
H57 C38 1_555 1_555
C39 P4 1_555 1_555
H58 C39 1_555 1_555
H59 C39 1_555 1_555
C40 C39 1_555 1_555
H60 C40 1_555 1_555
H61 C40 1_555 1_555
H62 C40 1_555 1_555
C41 P4 1_555 1_555
H63 C41 1_555 1_555
H64 C41 1_555 1_555
C42 C41 1_555 1_555
H65 C42 1_555 1_555
H66 C42 1_555 1_555
H67 C42 1_555 1_555
C43 P4 1_555 1_555
H68 C43 1_555 1_555
H69 C43 1_555 1_555
C44 C43 1_555 1_555
H70 C44 1_555 1_555
H71 C44 1_555 1_555
H72 C44 1_555 1_555
C15C C16 1_555 1_555
C14C C15C 1_555 1_555
C13C C14C 1_555 1_555
C12C C13C 1_555 1_555
C11C C12C 1_555 1_555
C10C C11C 1_555 1_555
C9C C10C 1_555 1_555
C8C C9C 1_555 1_555
C7C C8C 1_555 1_555
Pt1C C7C 1_555 1_555
P1C Pt1C 1_555 1_555
C21C P1C 1_555 1_555
H13C C21C 1_555 1_555
H14C C21C 1_555 1_555
C22C C21C 1_555 1_555
H15C C22C 1_555 1_555
H16C C22C 1_555 1_555
H17C C22C 1_555 1_555
C23C P1C 1_555 1_555
H18C C23C 1_555 1_555
H19C C23C 1_555 1_555
C24C C23C 1_555 1_555
H20C C24C 1_555 1_555
H21C C24C 1_555 1_555
H22C C24C 1_555 1_555
C25C P1C 1_555 1_555
H23C C25C 1_555 1_555
H24C C25C 1_555 1_555
C26C C25C 1_555 1_555
H25C C26C 1_555 1_555
H26C C26C 1_555 1_555
H27C C26C 1_555 1_555
P2C Pt1C 1_555 1_555
C27C P2C 1_555 1_555
H28C C27C 1_555 1_555
H29C C27C 1_555 1_555
C28C C27C 1_555 1_555
H30C C28C 1_555 1_555
H31C C28C 1_555 1_555
H32C C28C 1_555 1_555
C29C P2C 1_555 1_555
H33C C29C 1_555 1_555
H34C C29C 1_555 1_555
C30C C29C 1_555 1_555
H35C C30C 1_555 1_555
H36C C30C 1_555 1_555
H37C C30C 1_555 1_555
C31C P2C 1_555 1_555
H38C C31C 1_555 1_555
H39C C31C 1_555 1_555
C32C C31C 1_555 1_555
H40C C32C 1_555 1_555
H41C C32C 1_555 1_555
H42C C32C 1_555 1_555
O1C Pt1C 1_555 1_555
C1C O1C 1_555 1_555
O2C C1C 1_555 1_555
C2C C1C 1_555 1_555
H1C C2C 1_555 1_555
C3C C2C 1_555 1_555
H2C C3C 1_555 1_555
C4C C3C 1_555 1_555
H3C C4C 1_555 1_555
C5C C4C 1_555 1_555
H4C C5C 1_555 1_555
C6C C5C 1_555 1_555
O3C C6C 1_555 1_555
Pt2C O3C 1_555 1_555
P3C Pt2C 1_555 1_555
C33C P3C 1_555 1_555
H43C C33C 1_555 1_555
H44C C33C 1_555 1_555
C34C C33C 1_555 1_555
H45C C34C 1_555 1_555
H46C C34C 1_555 1_555
H47C C34C 1_555 1_555
C35C P3C 1_555 1_555
H48C C35C 1_555 1_555
H49C C35C 1_555 1_555
C36C C35C 1_555 1_555
H50C C36C 1_555 1_555
H51C C36C 1_555 1_555
H52C C36C 1_555 1_555
C37C P3C 1_555 1_555
H53C C37C 1_555 1_555
H54C C37C 1_555 1_555
C38C C37C 1_555 1_555
H55C C38C 1_555 1_555
H56C C38C 1_555 1_555
H57C C38C 1_555 1_555
P4C Pt2C 1_555 1_555
C39C P4C 1_555 1_555
H58C C39C 1_555 1_555
H59C C39C 1_555 1_555
C40C C39C 1_555 1_555
H60C C40C 1_555 1_555
H61C C40C 1_555 1_555
H62C C40C 1_555 1_555
C41C P4C 1_555 1_555
H63C C41C 1_555 1_555
H64C C41C 1_555 1_555
C42C C41C 1_555 1_555
H65C C42C 1_555 1_555
H66C C42C 1_555 1_555
H67C C42C 1_555 1_555
C43C P4C 1_555 1_555
H68C C43C 1_555 1_555
H69C C43C 1_555 1_555
C44C C43C 1_555 1_555
H70C C44C 1_555 1_555
H71C C44C 1_555 1_555
H72C C44C 1_555 1_555
C16C Pt2C 1_555 1_555
C15B C16C 1_555 1_555
C14B C15B 1_555 1_555
C13B C14B 1_555 1_555
C12B C13B 1_555 1_555
C11B C12B 1_555 1_555
C10B C11B 1_555 1_555
C9B C10B 1_555 1_555
C8B C9B 1_555 1_555
C7B C8B 1_555 1_555
Pt1B C7B 1_555 1_555
P1B Pt1B 1_555 1_555
C21B P1B 1_555 1_555
H13B C21B 1_555 1_555
H14B C21B 1_555 1_555
C22B C21B 1_555 1_555
H15B C22B 1_555 1_555
H16B C22B 1_555 1_555
H17B C22B 1_555 1_555
C23B P1B 1_555 1_555
H18B C23B 1_555 1_555
H19B C23B 1_555 1_555
C24B C23B 1_555 1_555
H20B C24B 1_555 1_555
H21B C24B 1_555 1_555
H22B C24B 1_555 1_555
C25B P1B 1_555 1_555
H23B C25B 1_555 1_555
H24B C25B 1_555 1_555
C26B C25B 1_555 1_555
H25B C26B 1_555 1_555
H26B C26B 1_555 1_555
H27B C26B 1_555 1_555
P2B Pt1B 1_555 1_555
C27B P2B 1_555 1_555
H28B C27B 1_555 1_555
H29B C27B 1_555 1_555
C28B C27B 1_555 1_555
H30B C28B 1_555 1_555
H31B C28B 1_555 1_555
H32B C28B 1_555 1_555
C29B P2B 1_555 1_555
H33B C29B 1_555 1_555
H34B C29B 1_555 1_555
C30B C29B 1_555 1_555
H35B C30B 1_555 1_555
H36B C30B 1_555 1_555
H37B C30B 1_555 1_555
C31B P2B 1_555 1_555
H38B C31B 1_555 1_555
H39B C31B 1_555 1_555
C32B C31B 1_555 1_555
H40B C32B 1_555 1_555
H41B C32B 1_555 1_555
H42B C32B 1_555 1_555
O1B Pt1B 1_555 1_555
C1B O1B 1_555 1_555
O2B C1B 1_555 1_555
C2B C1B 1_555 1_555
H1B C2B 1_555 1_555
C3B C2B 1_555 1_555
H2B C3B 1_555 1_555
C4B C3B 1_555 1_555
H3B C4B 1_555 1_555
C5B C4B 1_555 1_555
H4B C5B 1_555 1_555
C6B C5B 1_555 1_555
O3B C6B 1_555 1_555
Pt2B O3B 1_555 1_555
P3B Pt2B 1_555 1_555
C33B P3B 1_555 1_555
H43B C33B 1_555 1_555
H44B C33B 1_555 1_555
C34B C33B 1_555 1_555
H45B C34B 1_555 1_555
H46B C34B 1_555 1_555
H47B C34B 1_555 1_555
C35B P3B 1_555 1_555
H48B C35B 1_555 1_555
H49B C35B 1_555 1_555
C36B C35B 1_555 1_555
H50B C36B 1_555 1_555
H51B C36B 1_555 1_555
H52B C36B 1_555 1_555
C37B P3B 1_555 1_555
H53B C37B 1_555 1_555
H54B C37B 1_555 1_555
C38B C37B 1_555 1_555
H55B C38B 1_555 1_555
H56B C38B 1_555 1_555
H57B C38B 1_555 1_555
P4B Pt2B 1_555 1_555
C39B P4B 1_555 1_555
H58B C39B 1_555 1_555
H59B C39B 1_555 1_555
C40B C39B 1_555 1_555
H60B C40B 1_555 1_555
H61B C40B 1_555 1_555
H62B C40B 1_555 1_555
C41B P4B 1_555 1_555
H63B C41B 1_555 1_555
H64B C41B 1_555 1_555
C42B C41B 1_555 1_555
H65B C42B 1_555 1_555
H66B C42B 1_555 1_555
H67B C42B 1_555 1_555
C43B P4B 1_555 1_555
H68B C43B 1_555 1_555
H69B C43B 1_555 1_555
C44B C43B 1_555 1_555
H70B C44B 1_555 1_555
H71B C44B 1_555 1_555
H72B C44B 1_555 1_555
C16B C15 1_555 1_555
C17B C18 1_555 1_555
H11B C17B 1_555 1_555
O4B C6B 1_555 1_555
C20B C7B 1_555 1_555
C19B C10B 1_555 1_555
C18B C13B 1_555 1_555
C17C C16C 1_555 1_555
H11C C17C 1_555 1_555
H12B C20B 1_555 1_555
H5B C8B 1_555 1_555
H6B C9B 1_555 1_555
H7B C11B 1_555 1_555
H8B C12B 1_555 1_555
H9B C14B 1_555 1_555
H10B C15B 1_555 1_555
O4C C6C 1_555 1_555
C20C C7C 1_555 1_555
C19C C10C 1_555 1_555
C18C C17 1_555 1_555
H12C C20C 1_555 1_555
H5C C8C 1_555 1_555
H6C C9C 1_555 1_555
H7C C11C 1_555 1_555
H8C C12C 1_555 1_555
H9C C14C 1_555 1_555
H10C C15C 1_555 1_555
C5 C6 1_555 1_555
C18 C19 1_555 1_555
C19 C20 1_555 1_555
C13C C18C 1_555 1_555
Pt2B C16B 1_555 1_555
C16B C17B 1_555 1_555
C20B C19B 1_555 1_555
C19B C18B 1_555 1_555
C18B C17C 1_555 1_555
C20C C19C 1_555 1_555
C19C C18C 1_555 1_555

#END
