
#######################################################################
#
#                 Cambridge Crystallographic Data Centre
#                                CCDC 
#
#######################################################################
#
# If this CIF has been generated from an entry in the Cambridge 
# Structural Database, then it will include bibliographic, chemical, 
# crystal, experimental, refinement or atomic coordinate data resulting 
# from the CCDC's data processing and validation procedures.
#
#######################################################################

data_AVAMUF
_chemical_formula_moiety         'C92 H144 O8 P8 Pt4,3(C1 H1 Cl3)'
_chemical_name_systematic        
"bis((\m~2~-Benzene-1,3-dicarboxylato-O,O')-(\m~2~-phenanthrene-2,9-diyl))-octakis(triethylphosphine)-tetra-platinum chloroform solvate"
_symmetry_cell_setting           monoclinic
_symmetry_space_group_name_H-M   'C 2'
_symmetry_Int_Tables_number      5
_space_group_name_Hall           'C 2y'
loop_
_symmetry_equiv_pos_site_id
_symmetry_equiv_pos_as_xyz
1 x,y,z
2 -x,y,-z
3 1/2+x,1/2+y,z
4 1/2-x,1/2+y,-z
_cell_length_a                   65.5820(13)
_cell_length_b                   13.9473(3)
_cell_length_c                   18.5091(4)
_cell_angle_alpha                90
_cell_angle_beta                 96.5331(8)
_cell_angle_gamma                90
_cell_volume                     16820.2
_exptl_crystal_colour            colorless
_exptl_crystal_description       prism
_cell_formula_units_Z            6
_exptl_crystal_recrystallization_method acetone/chloroform/dichloromethane
loop_
_atom_site_label
_atom_site_type_symbol
_atom_site_fract_x
_atom_site_fract_y
_atom_site_fract_z
Pt1 Pt 0.260974(5) 0.75472(3) 0.159705(18)
Pt3 Pt 0.194603(5) 0.77215(2) 0.483697(17)
Pt5 Pt 0.083705(4) 0.81693(2) 0.197228(15)
Pt6 Pt 0.134377(4) 0.79873(2) -0.166774(16)
P1 P 0.25583(4) 0.59227(18) 0.17027(13)
P3 P 0.26588(5) 0.9137(2) 0.14501(17)
P5 P 0.13262(4) 0.6354(2) -0.1475(2)
P7 P 0.13694(4) 0.9604(2) -0.18454(17)
P9 P 0.08494(4) 0.6521(2) 0.19145(16)
P10 P 0.08663(4) 0.98075(19) 0.19005(14)
P11 P 0.19050(4) 0.6095(2) 0.47203(16)
P12 P 0.19792(4) 0.9356(2) 0.48181(15)
O1 O 0.24433(9) 0.7559(6) 0.0551(3)
O3 O 0.27025(10) 0.7420(8) -0.0107(4)
O5 O 0.16646(8) 0.7892(5) -0.1706(3)
O7 O 0.17402(9) 0.8047(8) -0.0506(3)
O9 O 0.09893(8) 0.8163(5) 0.3046(3)
O10 O 0.06905(10) 0.8339(9) 0.3473(4)
O11 O 0.16237(8) 0.7955(5) 0.4698(3)
O12 O 0.16127(10) 0.7857(8) 0.5902(3)
C1 C 0.25186(14) 0.7490(8) -0.0050(5)
C3 C 0.23633(12) 0.7553(7) -0.0708(5)
C5 C 0.24221(13) 0.7443(7) -0.1401(5)
H1 H 0.2563 0.7353 -0.1463
C7 C 0.22746(14) 0.7465(7) -0.2006(5)
H3 H 0.2314 0.7372 -0.2478
C9 C 0.20675(13) 0.7622(7) -0.1918(4)
H5 H 0.1968 0.7658 -0.2332
C11 C 0.20085(12) 0.7726(6) -0.1228(4)
C13 C 0.21552(12) 0.7704(7) -0.0624(4)
H7 H 0.2115 0.7792 -0.0152
C15 C 0.17866(12) 0.7906(7) -0.1125(4)
C17 C 0.10402(12) 0.8057(7) -0.1678(4)
C19 C 0.09048(12) 0.8063(8) -0.2335(4)
H9 H 0.0962 0.8042 -0.2783
C21 C 0.06953(12) 0.8099(8) -0.2350(4)
H11 H 0.0611 0.8097 -0.2803
C23 C 0.06054(11) 0.8138(7) -0.1699(4)
C25 C 0.03867(12) 0.8178(8) -0.1700(4)
H13 H 0.0301 0.8177 -0.2150
C27 C 0.02989(12) 0.8216(7) -0.1067(4)
H15 H 0.0154 0.8247 -0.1084
C29 C 0.04225(12) 0.8211(6) -0.0376(4)
C31 C 0.03361(12) 0.8216(7) 0.0280(4)
H17 H 0.0191 0.8238 0.0269
C33 C 0.04558(12) 0.8190(8) 0.0942(4)
H19 H 0.0391 0.8189 0.1377
C35 C 0.06734(12) 0.8166(7) 0.0989(5)
C37 C 0.07578(11) 0.8156(6) 0.0339(4)
H21 H 0.0903 0.8143 0.0354
C39 C 0.06386(11) 0.8163(6) -0.0354(4)
C41 C 0.07337(11) 0.8138(6) -0.1022(4)
C43 C 0.09473(11) 0.8093(6) -0.1045(4)
H23 H 0.1033 0.8087 -0.0595
C45 C 0.08755(13) 0.8264(8) 0.3555(5)
C47 C 0.09915(12) 0.8277(7) 0.4317(4)
C49 C 0.08790(14) 0.8413(7) 0.4901(5)
H30 H 0.0735 0.8506 0.4822
C51 C 0.09807(14) 0.8413(7) 0.5611(4)
H33 H 0.0905 0.8518 0.6013
C53 C 0.11903(12) 0.8259(7) 0.5727(4)
H37 H 0.1258 0.8233 0.6209
C55 C 0.13029(12) 0.8141(6) 0.5135(4)
C57 C 0.12023(12) 0.8158(6) 0.4436(4)
H43 H 0.1279 0.8086 0.4033
C59 C 0.15312(13) 0.7964(7) 0.5267(5)
C61 C 0.22538(13) 0.7557(7) 0.4993(5)
C63 C 0.23544(15) 0.7467(8) 0.5704(5)
H51 H 0.2276 0.7401 0.6101
C65 C 0.25634(14) 0.7474(8) 0.5831(5)
H55 H 0.2627 0.7436 0.6318
C67 C 0.26888(13) 0.7538(7) 0.5260(5)
C69 C 0.29105(14) 0.7538(8) 0.5388(5)
H61 H 0.2975 0.7520 0.5874
C71 C 0.30267(13) 0.7562(8) 0.4845(5)
H64 H 0.3172 0.7569 0.4947
C73 C 0.29327(12) 0.7579(7) 0.4099(5)
C75 C 0.30526(13) 0.7546(8) 0.3503(5)
H70 H 0.3198 0.7540 0.3600
C77 C 0.29632(12) 0.7521(7) 0.2787(5)
H74 H 0.3048 0.7467 0.2405
C79 C 0.27494(12) 0.7576(7) 0.2619(4)
C81 C 0.26313(12) 0.7600(7) 0.3202(4)
H80 H 0.2486 0.7622 0.3097
C83 C 0.27162(13) 0.7595(7) 0.3938(4)
C85 C 0.25902(12) 0.7577(7) 0.4541(5)
C87 C 0.23734(12) 0.7607(7) 0.4428(5)
H88 H 0.2308 0.7664 0.3946
C89 C 0.24662(18) 0.5539(7) 0.2552(6)
H92 H 0.2575 0.5673 0.2954
H93 H 0.2346 0.5940 0.2633
C91 C 0.2404(2) 0.4484(8) 0.2604(7)
H96 H 0.2278 0.4366 0.2274
H97 H 0.2378 0.4339 0.3104
H98 H 0.2514 0.4073 0.2467
C93 C 0.23642(15) 0.5455(8) 0.1001(5)
H102 H 0.2407 0.5596 0.0516
H103 H 0.2356 0.4750 0.1052
C94 C 0.21546(16) 0.5889(10) 0.1053(6)
H104 H 0.2109 0.5725 0.1524
H105 H 0.2056 0.5634 0.0661
H106 H 0.2163 0.6587 0.1007
C95 C 0.27858(15) 0.5224(8) 0.1606(6)
H107 H 0.2890 0.5357 0.2024
H108 H 0.2751 0.4534 0.1619
C96 C 0.2877(2) 0.5430(10) 0.0917(7)
H109 H 0.2766 0.5539 0.0522
H110 H 0.2960 0.4883 0.0796
H111 H 0.2963 0.6004 0.0982
C97 C 0.24390(17) 0.9746(9) 0.0936(7)
H112 H 0.2458 1.0447 0.0992
H113 H 0.2439 0.9593 0.0414
C98 C 0.2230(2) 0.9477(11) 0.1168(7)
H114 H 0.2217 0.8778 0.1181
H115 H 0.2121 0.9742 0.0819
H116 H 0.2218 0.9740 0.1652
C99 C 0.28664(18) 0.9409(10) 0.0858(7)
H117 H 0.2816 0.9253 0.0347
H118 H 0.2897 1.0104 0.0884
C100 C 0.30586(19) 0.8865(12) 0.1075(8)
H119 H 0.3026 0.8184 0.1126
H120 H 0.3124 0.9110 0.1540
H121 H 0.3152 0.8941 0.0702
C101 C 0.2737(2) 0.9856(11) 0.2239(7)
H122 H 0.2848 0.9516 0.2547
H123 H 0.2795 1.0467 0.2081
C102 C 0.2560(3) 1.0083(12) 0.2702(7)
H124 H 0.2469 0.9525 0.2702
H125 H 0.2482 1.0635 0.2493
H126 H 0.2617 1.0231 0.3202
C103 C 0.1121(2) 0.5719(10) -0.2002(12)
H127 H 0.1097 0.6029 -0.2485
H128 H 0.1169 0.5058 -0.2081
C104 C 0.0912(2) 0.5648(10) -0.1693(11)
H129 H 0.0934 0.5678 -0.1161
H130 H 0.0845 0.5039 -0.1844
H131 H 0.0824 0.6182 -0.1879
C105 C 0.1284(3) 0.6015(14) -0.0569(10)
H132 H 0.1188 0.6474 -0.0380
H133 H 0.1220 0.5371 -0.0580
C106 C 0.1484(3) 0.5995(18) -0.0061(12)
H134 H 0.1453 0.5858 0.0435
H135 H 0.1552 0.6619 -0.0072
H136 H 0.1574 0.5495 -0.0219
C107 C 0.15594(19) 0.5711(8) -0.1650(7)
H137 H 0.1680 0.6001 -0.1359
H138 H 0.1549 0.5034 -0.1497
C108 C 0.1589(2) 0.5748(13) -0.2437(9)
H139 H 0.1486 0.5344 -0.2715
H140 H 0.1727 0.5514 -0.2501
H141 H 0.1575 0.6411 -0.2610
C109 C 0.1462(3) 1.0185(14) -0.1047(9)
H142 H 0.1610 1.0031 -0.0929
H143 H 0.1450 1.0886 -0.1123
C110 C 0.1344(3) 0.9895(14) -0.0383(10)
H144 H 0.1202 1.0127 -0.0466
H145 H 0.1413 1.0182 0.0064
H146 H 0.1344 0.9195 -0.0333
C111 C 0.1153(3) 1.0199(15) -0.2317(11)
H147 H 0.1201 1.0786 -0.2547
H148 H 0.1091 0.9775 -0.2711
C112 C 0.0984(3) 1.0484(11) -0.1833(11)
H149 H 0.0891 0.9941 -0.1795
H150 H 0.0906 1.1032 -0.2050
H151 H 0.1048 1.0658 -0.1347
C113 C 0.1540(3) 0.9763(14) -0.2567(10)
H152 H 0.1660 0.9337 -0.2465
H153 H 0.1465 0.9566 -0.3039
C114 C 0.1615(4) 1.0807(14) -0.2628(13)
H154 H 0.1503 1.1200 -0.2871
H155 H 0.1732 1.0822 -0.2911
H156 H 0.1656 1.1063 -0.2140
C115 C 0.06007(18) 0.5922(9) 0.1912(7)
H157 H 0.0511 0.6109 0.1468
H158 H 0.0621 0.5220 0.1896
C116 C 0.0496(2) 0.6165(10) 0.2564(7)
H159 H 0.0599 0.6313 0.2975
H160 H 0.0413 0.5617 0.2689
H161 H 0.0406 0.6723 0.2455
C117 C 0.1008(2) 0.5963(10) 0.2677(8)
H162 H 0.0957 0.6163 0.3138
H163 H 0.0994 0.5257 0.2638
C118 C 0.1236(2) 0.6241(11) 0.2694(8)
H164 H 0.1287 0.6026 0.2244
H165 H 0.1315 0.5934 0.3112
H166 H 0.1250 0.6939 0.2737
C119 C 0.0958(2) 0.6107(8) 0.1089(7)
H167 H 0.0864 0.6323 0.0662
H168 H 0.1090 0.6443 0.1069
C120 C 0.0995(3) 0.5079(10) 0.1000(9)
H169 H 0.1104 0.4867 0.1371
H170 H 0.1036 0.4961 0.0516
H171 H 0.0869 0.4722 0.1054
C121 C 0.06274(16) 1.0475(9) 0.1835(7)
H172 H 0.0658 1.1170 0.1841
H173 H 0.0546 1.0325 0.1365
C122 C 0.04978(18) 1.0237(10) 0.2468(6)
H174 H 0.0505 0.9547 0.2568
H175 H 0.0355 1.0424 0.2329
H176 H 0.0553 1.0590 0.2905
C123 C 0.10240(15) 1.0345(8) 0.2667(6)
H177 H 0.1017 1.1052 0.2620
H178 H 0.0967 1.0168 0.3122
C124 C 0.12509(17) 1.0035(9) 0.2726(7)
H179 H 0.1260 0.9336 0.2780
H180 H 0.1327 1.0342 0.3150
H181 H 0.1310 1.0228 0.2285
C125 C 0.09871(17) 1.0174(8) 0.1097(6)
H182 H 0.1122 0.9851 0.1116
H183 H 0.0901 0.9936 0.0660
C126 C 0.1020(3) 1.1245(9) 0.1004(9)
H184 H 0.0887 1.1563 0.0889
H185 H 0.1105 1.1350 0.0606
H186 H 0.1091 1.1511 0.1455
C127 C 0.2020(2) 0.5372(9) 0.5477(7)
H187 H 0.2004 0.4682 0.5356
H188 H 0.2169 0.5514 0.5572
C128 C 0.1915(3) 0.5603(15) 0.6151(8)
H189 H 0.1935 0.6281 0.6277
H190 H 0.1973 0.5204 0.6559
H191 H 0.1767 0.5471 0.6050
C129 C 0.16334(17) 0.5703(8) 0.4573(7)
H192 H 0.1561 0.5991 0.4961
H193 H 0.1571 0.5976 0.4105
C130 C 0.1590(2) 0.4627(9) 0.4559(10)
H194 H 0.1680 0.4307 0.4247
H195 H 0.1446 0.4515 0.4367
H196 H 0.1615 0.4370 0.5054
C131 C 0.20162(18) 0.5585(10) 0.3942(7)
H197 H 0.2168 0.5636 0.4022
H198 H 0.1980 0.4898 0.3891
C132 C 0.1935(2) 0.6126(10) 0.3246(6)
H199 H 0.1786 0.6042 0.3154
H200 H 0.2000 0.5871 0.2835
H201 H 0.1967 0.6809 0.3306
C133 C 0.17905(17) 0.9892(9) 0.4127(6)
H202 H 0.1651 0.9768 0.4257
H203 H 0.1811 1.0595 0.4121
C134 C 0.1810(2) 0.9476(11) 0.3350(6)
H204 H 0.1949 0.9590 0.3223
H205 H 0.1710 0.9792 0.2993
H206 H 0.1782 0.8785 0.3348
C135 C 0.19208(18) 0.9933(8) 0.5654(6)
H207 H 0.1973 1.0599 0.5667
H208 H 0.1770 0.9960 0.5657
C136 C 0.20183(18) 0.9386(9) 0.6350(6)
H209 H 0.1946 0.8779 0.6395
H210 H 0.2007 0.9782 0.6781
H211 H 0.2163 0.9257 0.6308
C137 C 0.22172(16) 0.9913(8) 0.4606(7)
H212 H 0.2267 0.9540 0.4207
H213 H 0.2183 1.0562 0.4413
C138 C 0.2395(2) 1.0016(10) 0.5207(8)
H214 H 0.2346 1.0321 0.5632
H215 H 0.2503 1.0412 0.5032
H216 H 0.2451 0.9381 0.5342
Pt2 Pt -0.027615(4) 0.30386(3) 0.154310(16)
Pt4 Pt 0.092882(5) 0.33070(2) 0.512406(17)
P2 P -0.03050(4) 0.1409(2) 0.17080(17)
P4 P -0.02589(4) 0.4682(2) 0.15186(16)
P6 P 0.09715(4) 0.1687(2) 0.49776(15)
P8 P 0.08520(4) 0.49058(18) 0.52392(13)
O2 O 0.00462(8) 0.2977(5) 0.1594(3)
O4 O 0.00956(11) 0.2833(10) 0.2798(4)
O6 O 0.07829(9) 0.3340(6) 0.4049(3)
O8 O 0.10621(10) 0.3288(8) 0.3451(4)
C2 C 0.01579(14) 0.2935(9) 0.2202(5)
C4 C 0.03863(13) 0.3037(8) 0.2158(5)
C6 C 0.04643(12) 0.3072(7) 0.1493(4)
H2 H 0.0374 0.3043 0.1054
C8 C 0.06754(13) 0.3151(8) 0.1466(5)
H4 H 0.0729 0.3159 0.1010
C10 C 0.08075(13) 0.3218(7) 0.2108(4)
H6 H 0.0951 0.3259 0.2089
C12 C 0.07301(12) 0.3227(7) 0.2782(4)
C14 C 0.05184(12) 0.3122(8) 0.2792(4)
H8 H 0.0464 0.3110 0.3246
C16 C 0.08743(13) 0.3300(8) 0.3476(4)
C18 C 0.10563(12) 0.3258(6) 0.6146(4)
C20 C 0.12779(12) 0.3291(7) 0.6320(5)
H10 H 0.1362 0.3367 0.5937
C22 C 0.13698(12) 0.3216(7) 0.7025(4)
H12 H 0.1515 0.3214 0.7113
C24 C 0.12565(12) 0.3144(7) 0.7606(4)
C26 C 0.13525(12) 0.3101(9) 0.8342(4)
H14 H 0.1498 0.3091 0.8430
C28 C 0.12402(12) 0.3076(8) 0.8917(5)
H16 H 0.1308 0.3044 0.9398
C30 C 0.10213(12) 0.3098(7) 0.8804(4)
C32 C 0.09041(13) 0.3098(7) 0.9400(4)
H18 H 0.0972 0.3089 0.9882
C34 C 0.06929(11) 0.3111(7) 0.9289(4)
H20 H 0.0618 0.3124 0.9699
C36 C -0.05831(11) 0.3106(7) 0.1420(4)
C38 C -0.07003(11) 0.3115(7) 0.1991(4)
H22 H -0.0631 0.3120 0.2470
C40 C 0.09162(11) 0.3119(6) 0.8087(4)
C42 C 0.10381(11) 0.3150(6) 0.7476(4)
C44 C 0.09482(11) 0.3180(6) 0.6741(4)
H24 H 0.0803 0.3144 0.6652
C46 C -0.04975(18) 0.0804(8) 0.1077(7)
H25 H -0.0498 0.0117 0.1212
H26 H -0.0634 0.1067 0.1154
C48 C -0.0476(2) 0.0865(10) 0.0290(8)
H27 H -0.0432 0.1513 0.0173
H28 H -0.0609 0.0723 0.0009
H29 H -0.0374 0.0400 0.0167
C50 C -0.0378(3) 0.1171(9) 0.2623(8)
H31 H -0.0287 0.1572 0.2964
H32 H -0.0519 0.1423 0.2628
C52 C -0.0376(5) 0.023(2) 0.2934(17)
H34 H -0.0418 0.0261 0.3424
H35 H -0.0237 -0.0042 0.2960
H36 H -0.0471 -0.0188 0.2629
C54 C -0.00708(16) 0.0680(9) 0.1749(7)
H38 H 0.0029 0.0919 0.2150
H39 H -0.0105 0.0010 0.1863
C56 C 0.00308(19) 0.0691(11) 0.1039(7)
H40 H -0.0053 0.0317 0.0667
H41 H 0.0168 0.0410 0.1127
H42 H 0.0041 0.1354 0.0871
C58 C -0.04367(18) 0.5294(9) 0.0862(7)
H44 H -0.0577 0.5076 0.0921
H45 H -0.0430 0.5990 0.0968
C60 C -0.0400(3) 0.5144(12) 0.0088(8)
H46 H -0.0287 0.5560 -0.0027
H47 H -0.0524 0.5301 -0.0233
H48 H -0.0363 0.4473 0.0016
C62 C -0.00031(16) 0.5126(9) 0.1377(8)
H49 H 0.0095 0.4918 0.1792
H50 H 0.0039 0.4823 0.0933
C64 C 0.00132(16) 0.6210(8) 0.1301(8)
H52 H -0.0089 0.6432 0.0909
H53 H 0.0151 0.6377 0.1186
H54 H -0.0012 0.6517 0.1759
C66 C -0.0324 0.5201(9) 0.2416
H56 H -0.0333 0.5908 0.2375
H57 H -0.0460 0.4956 0.2517
C68 C -0.0164(3) 0.4940(14) 0.3042(8)
H58 H -0.0177 0.4259 0.3159
H59 H -0.0186 0.5328 0.3468
H60 H -0.0027 0.5064 0.2903
C70 C 0.07595(17) 0.1151(8) 0.4370(7)
H62 H 0.0781 0.1305 0.3862
H63 H 0.0768 0.0446 0.4424
C72 C 0.05404(16) 0.1469(9) 0.4492(7)
H65 H 0.0503 0.1182 0.4942
H66 H 0.0443 0.1256 0.4082
H67 H 0.0536 0.2169 0.4530
C74 C 0.09975(17) 0.0952(7) 0.5793(6)
H68 H 0.1049 0.0313 0.5669
H69 H 0.1102 0.1247 0.6153
C76 C 0.0797(2) 0.0817(9) 0.6150(7)
H71 H 0.0708 0.1373 0.6040
H72 H 0.0831 0.0757 0.6677
H73 H 0.0727 0.0235 0.5957
C78 C 0.11922(15) 0.1343(8) 0.4517(6)
H75 H 0.1195 0.0636 0.4475
H76 H 0.1175 0.1611 0.4019
C80 C 0.13992(17) 0.1682(10) 0.4905(7)
H77 H 0.1412 0.2376 0.4843
H78 H 0.1511 0.1355 0.4696
H79 H 0.1406 0.1531 0.5425
C82 C 0.06700(18) 0.5349(8) 0.4501(6)
H81 H 0.0655 0.6051 0.4553
H82 H 0.0725 0.5226 0.4033
C84 C 0.04535(18) 0.4873(9) 0.4480(7)
H83 H 0.0469 0.4177 0.4529
H84 H 0.0372 0.5023 0.4017
H85 H 0.0384 0.5122 0.4882
C86 C 0.07395(18) 0.5203(8) 0.6056(6)
H86 H 0.0619 0.4784 0.6082
H87 H 0.0840 0.5046 0.6478
C88 C 0.0670(2) 0.6254(8) 0.6136(6)
H89 H 0.0785 0.6685 0.6077
H90 H 0.0626 0.6346 0.6619
H91 H 0.0556 0.6396 0.5763
C90 C 0.10651(16) 0.5751(7) 0.5205(6)
H94 H 0.1135 0.5600 0.4771
H95 H 0.1008 0.6405 0.5139
C92 C 0.1225(2) 0.5754(10) 0.5869(7)
H99 H 0.1160 0.5926 0.6301
H100 H 0.1332 0.6224 0.5798
H101 H 0.1287 0.5115 0.5934
C36A C 0.05831(11) 0.3106(7) 0.8580(4)
Pt2A Pt 0.027615(4) 0.30386(3) 0.845690(16)
P2A P 0.03050(4) 0.1409(2) 0.82920(17)
C46A C 0.04975(18) 0.0804(8) 0.8923(7)
H25A H 0.0498 0.0117 0.8788
H26A H 0.0634 0.1067 0.8846
C48A C 0.0476(2) 0.0865(10) 0.9710(8)
H27A H 0.0432 0.1513 0.9827
H28A H 0.0609 0.0723 0.9991
H29A H 0.0374 0.0400 0.9833
C50A C 0.0378(3) 0.1171(9) 0.7377(8)
H31A H 0.0287 0.1572 0.7036
H32A H 0.0519 0.1423 0.7372
C52A C 0.0376(5) 0.023(2) 0.7066(17)
H34A H 0.0418 0.0261 0.6576
H35A H 0.0237 -0.0042 0.7040
H36A H 0.0471 -0.0188 0.7371
C54A C 0.00708(16) 0.0680(9) 0.8251(7)
H38A H -0.0029 0.0919 0.7850
H39A H 0.0105 0.0010 0.8137
C56A C -0.00308(19) 0.0691(11) 0.8961(7)
H40A H 0.0053 0.0317 0.9333
H41A H -0.0168 0.0410 0.8873
H42A H -0.0041 0.1354 0.9129
P4A P 0.02589(4) 0.4682(2) 0.84814(16)
C58A C 0.04367(18) 0.5294(9) 0.9138(7)
H44A H 0.0577 0.5076 0.9079
H45A H 0.0430 0.5990 0.9032
C60A C 0.0400(3) 0.5144(12) 0.9912(8)
H46A H 0.0287 0.5560 1.0027
H47A H 0.0524 0.5301 1.0233
H48A H 0.0363 0.4473 0.9984
C62A C 0.00031(16) 0.5126(9) 0.8623(8)
H49A H -0.0095 0.4918 0.8208
H50A H -0.0039 0.4823 0.9067
C64A C -0.00132(16) 0.6210(8) 0.8699(8)
H52A H 0.0089 0.6432 0.9091
H53A H -0.0151 0.6377 0.8814
H54A H 0.0012 0.6517 0.8241
C66A C 0.0324 0.5201(9) 0.7584
H56A H 0.0333 0.5908 0.7625
H57A H 0.0460 0.4956 0.7483
C68A C 0.0164(3) 0.4940(14) 0.6958(8)
H58A H 0.0177 0.4259 0.6841
H59A H 0.0186 0.5328 0.6532
H60A H 0.0027 0.5064 0.7097
O2A O -0.00462(8) 0.2977(5) 0.8406(3)
C2A C -0.01579(14) 0.2935(9) 0.7798(5)
O4A O -0.00956(11) 0.2833(10) 0.7202(4)
C4A C -0.03863(13) 0.3037(8) 0.7842(5)
C6A C -0.04643(12) 0.3072(7) 0.8507(4)
H2A H -0.0374 0.3043 0.8946
C8A C -0.06754(13) 0.3151(8) 0.8534(5)
H4A H -0.0729 0.3159 0.8990
C10A C -0.08075(13) 0.3218(7) 0.7892(4)
H6A H -0.0951 0.3259 0.7911
C12A C -0.07301(12) 0.3227(7) 0.7218(4)
C14A C -0.05184(12) 0.3122(8) 0.7208(4)
H8A H -0.0464 0.3110 0.6754
C16A C -0.08743(13) 0.3300(8) 0.6524(4)
O6A O -0.07829(9) 0.3340(6) 0.5951(3)
Pt4A Pt -0.092882(5) 0.33070(2) 0.487594(17)
P6A P -0.09715(4) 0.1687(2) 0.50224(15)
C70A C -0.07595(17) 0.1151(8) 0.5630(7)
H62A H -0.0781 0.1305 0.6138
H63A H -0.0768 0.0446 0.5576
C72A C -0.05404(16) 0.1469(9) 0.5508(7)
H65A H -0.0503 0.1182 0.5058
H66A H -0.0443 0.1256 0.5918
H67A H -0.0536 0.2169 0.5470
C74A C -0.09975(17) 0.0952(7) 0.4207(6)
H68A H -0.1049 0.0313 0.4331
H69A H -0.1102 0.1247 0.3847
C76A C -0.0797(2) 0.0817(9) 0.3850(7)
H71A H -0.0708 0.1373 0.3960
H72A H -0.0831 0.0757 0.3323
H73A H -0.0727 0.0235 0.4043
C78A C -0.11922(15) 0.1343(8) 0.5483(6)
H75A H -0.1195 0.0636 0.5525
H76A H -0.1175 0.1611 0.5981
C80A C -0.13992(17) 0.1682(10) 0.5095(7)
H77A H -0.1412 0.2376 0.5157
H78A H -0.1511 0.1355 0.5304
H79A H -0.1406 0.1531 0.4575
P8A P -0.08520(4) 0.49058(18) 0.47608(13)
C82A C -0.06700(18) 0.5349(8) 0.5499(6)
H81A H -0.0655 0.6051 0.5447
H82A H -0.0725 0.5226 0.5967
C84A C -0.04535(18) 0.4873(9) 0.5520(7)
H83A H -0.0469 0.4177 0.5471
H84A H -0.0372 0.5023 0.5983
H85A H -0.0384 0.5122 0.5118
C86A C -0.07395(18) 0.5203(8) 0.3944(6)
H86A H -0.0619 0.4784 0.3918
H87A H -0.0840 0.5046 0.3522
C88A C -0.0670(2) 0.6254(8) 0.3864(6)
H89A H -0.0785 0.6685 0.3923
H90A H -0.0626 0.6346 0.3381
H91A H -0.0556 0.6396 0.4237
C90A C -0.10651(16) 0.5751(7) 0.4795(6)
H94A H -0.1135 0.5600 0.5229
H95A H -0.1008 0.6405 0.4861
C92A C -0.1225(2) 0.5754(10) 0.4131(7)
H99A H -0.1160 0.5926 0.3699
H100A H -0.1332 0.6224 0.4202
H101A H -0.1287 0.5115 0.4066
C18A C -0.10563(12) 0.3258(6) 0.3854(4)
C20A C -0.12779(12) 0.3291(7) 0.3680(5)
H10A H -0.1362 0.3367 0.4063
C22A C -0.13698(12) 0.3216(7) 0.2975(4)
H12A H -0.1515 0.3214 0.2887
C24A C -0.12565(12) 0.3144(7) 0.2394(4)
C26A C -0.13525(12) 0.3101(9) 0.1658(4)
H14A H -0.1498 0.3091 0.1570
C28A C -0.12402(12) 0.3076(8) 0.1083(5)
H16A H -0.1308 0.3044 0.0602
C30A C -0.10213(12) 0.3098(7) 0.1196(4)
C32A C -0.09041(13) 0.3098(7) 0.0600(4)
H18A H -0.0972 0.3089 0.0118
C34A C -0.06929(11) 0.3111(7) 0.0711(4)
H20A H -0.0618 0.3124 0.0301
C40A C -0.09162(11) 0.3119(6) 0.1913(4)
C42A C -0.10381(11) 0.3150(6) 0.2524(4)
C44A C -0.09482(11) 0.3180(6) 0.3259(4)
H24A H -0.0803 0.3144 0.3348
O8A O -0.10621(10) 0.3288(8) 0.6549(4)
C38A C 0.07003(11) 0.3115(7) 0.8009(4)
H22A H 0.0631 0.3120 0.7530
Cl1 Cl 0.13556(5) 0.8102(3) 0.1179(2)
Cl2 Cl 0.17760(8) 0.7618(6) 0.1585(3)
Cl3 Cl 0.16732(8) 0.9558(4) 0.1269(3)
C139 C 0.1618(2) 0.8341(12) 0.1068(7)
H217 H 0.1638 0.8224 0.0547
Cl4 Cl 0.18840(11) 0.3665(4) 0.0975(4)
Cl5 Cl 0.19609(9) 0.1880(5) 0.1694(3)
Cl6 Cl 0.17108(9) 0.1954(5) 0.0332(4)
C140 C 0.1915(2) 0.2477(12) 0.0848(9)
H218 H 0.2039 0.2389 0.0587
Cl7 Cl 0.13886(10) 0.2909(12) 0.1836(4)
Cl8 Cl 0.15966(14) 0.2308(6) 0.3187(5)
Cl9 Cl 0.1610(2) 0.4136(9) 0.2670(7)
C141 C 0.1458(2) 0.323(3) 0.2685(12)
H219 H 0.1334 0.3416 0.2925
Cl10 Cl 0.02197(15) 0.7236(7) 0.4250(5)
Cl11 Cl 0.00979(15) 0.8213(9) 0.2924(5)
Cl12 Cl 0.01878(19) 0.9345(9) 0.4102(7)
C142 C 0.0252(2) 0.8277(14) 0.3823(10)
H220 H 0.0399 0.8311 0.3735
Cl13? Cl 0.0074(5) 0.744(3) 0.3446(19)
Cl14? Cl 0.0085(5) 0.916(2) 0.3486(18)
Cl15? Cl 0.0263(3) 0.8911(17) 0.4740(13)
Cl16? Cl 0.03462(10) 0.2991(5) 0.5871(3)
Cl17? Cl 0.0000 0.3413(11) 0.5000
Cl18? Cl 0.00532(15) 0.1464(8) 0.5449(6)
C143? C 0.0081(4) 0.261(2) 0.5714(13)
H221? H 0.0008 0.2738 0.6150
loop_
_geom_bond_atom_site_label_1
_geom_bond_atom_site_label_2
_geom_bond_site_symmetry_1
_geom_bond_site_symmetry_2
Pt1 P1 1_555 1_555
Pt2 P2 1_555 1_555
Pt3 P11 1_555 1_555
Pt4 P6 1_555 1_555
Pt5 P9 1_555 1_555
Pt6 P5 1_555 1_555
P1 C89 1_555 1_555
P2 C46 1_555 1_555
P3 Pt1 1_555 1_555
P4 Pt2 1_555 1_555
P5 C103 1_555 1_555
P6 C70 1_555 1_555
P7 Pt6 1_555 1_555
P8 Pt4 1_555 1_555
P9 C115 1_555 1_555
P10 Pt5 1_555 1_555
P11 C127 1_555 1_555
P12 Pt3 1_555 1_555
O1 Pt1 1_555 1_555
O2 Pt2 1_555 1_555
O3 C1 1_555 1_555
O4 C2 1_555 1_555
O5 Pt6 1_555 1_555
O6 Pt4 1_555 1_555
O7 C15 1_555 1_555
O8 C16 1_555 1_555
O9 Pt5 1_555 1_555
O10 C45 1_555 1_555
O11 Pt3 1_555 1_555
O12 C59 1_555 1_555
C1 O1 1_555 1_555
C2 O2 1_555 1_555
C3 C1 1_555 1_555
C4 C2 1_555 1_555
C5 C3 1_555 1_555
H1 C5 1_555 1_555
C6 C4 1_555 1_555
H2 C6 1_555 1_555
C7 C5 1_555 1_555
H3 C7 1_555 1_555
C8 C6 1_555 1_555
H4 C8 1_555 1_555
C9 C7 1_555 1_555
H5 C9 1_555 1_555
C10 C8 1_555 1_555
H6 C10 1_555 1_555
C11 C9 1_555 1_555
C12 C10 1_555 1_555
C13 C3 1_555 1_555
H7 C13 1_555 1_555
C14 C4 1_555 1_555
H8 C14 1_555 1_555
C15 O5 1_555 1_555
C16 O6 1_555 1_555
C17 Pt6 1_555 1_555
C18 Pt4 1_555 1_555
C19 C17 1_555 1_555
H9 C19 1_555 1_555
C20 C18 1_555 1_555
H10 C20 1_555 1_555
C21 C19 1_555 1_555
H11 C21 1_555 1_555
C22 C20 1_555 1_555
H12 C22 1_555 1_555
C23 C21 1_555 1_555
C24 C22 1_555 1_555
C25 C23 1_555 1_555
H13 C25 1_555 1_555
C26 C24 1_555 1_555
H14 C26 1_555 1_555
C27 C25 1_555 1_555
H15 C27 1_555 1_555
C28 C26 1_555 1_555
H16 C28 1_555 1_555
C29 C27 1_555 1_555
C30 C28 1_555 1_555
C31 C29 1_555 1_555
H17 C31 1_555 1_555
C32 C30 1_555 1_555
H18 C32 1_555 1_555
C33 C31 1_555 1_555
H19 C33 1_555 1_555
C34 C32 1_555 1_555
H20 C34 1_555 1_555
C35 Pt5 1_555 1_555
C36 Pt2 1_555 1_555
C37 C35 1_555 1_555
H21 C37 1_555 1_555
C38 C36 1_555 1_555
H22 C38 1_555 1_555
C39 C29 1_555 1_555
C40 C30 1_555 1_555
C41 C23 1_555 1_555
C42 C24 1_555 1_555
C43 C17 1_555 1_555
H23 C43 1_555 1_555
C44 C18 1_555 1_555
H24 C44 1_555 1_555
C45 O9 1_555 1_555
C46 H25 1_555 1_555
H26 C46 1_555 1_555
C47 C45 1_555 1_555
C48 C46 1_555 1_555
H27 C48 1_555 1_555
H28 C48 1_555 1_555
H29 C48 1_555 1_555
C49 C47 1_555 1_555
H30 C49 1_555 1_555
C50 P2 1_555 1_555
H31 C50 1_555 1_555
H32 C50 1_555 1_555
C51 C49 1_555 1_555
H33 C51 1_555 1_555
C52 C50 1_555 1_555
H34 C52 1_555 1_555
H35 C52 1_555 1_555
H36 C52 1_555 1_555
C53 C51 1_555 1_555
H37 C53 1_555 1_555
C54 P2 1_555 1_555
H38 C54 1_555 1_555
H39 C54 1_555 1_555
C55 C53 1_555 1_555
C56 C54 1_555 1_555
H40 C56 1_555 1_555
H41 C56 1_555 1_555
H42 C56 1_555 1_555
C57 C47 1_555 1_555
H43 C57 1_555 1_555
C58 P4 1_555 1_555
H44 C58 1_555 1_555
H45 C58 1_555 1_555
C59 O11 1_555 1_555
C60 C58 1_555 1_555
H46 C60 1_555 1_555
H47 C60 1_555 1_555
H48 C60 1_555 1_555
C61 Pt3 1_555 1_555
C62 P4 1_555 1_555
H49 C62 1_555 1_555
H50 C62 1_555 1_555
C63 C61 1_555 1_555
H51 C63 1_555 1_555
C64 C62 1_555 1_555
H52 C64 1_555 1_555
H53 C64 1_555 1_555
H54 C64 1_555 1_555
C65 C63 1_555 1_555
H55 C65 1_555 1_555
C66 P4 1_555 1_555
H56 C66 1_555 1_555
H57 C66 1_555 1_555
C67 C65 1_555 1_555
C68 C66 1_555 1_555
H58 C68 1_555 1_555
H59 C68 1_555 1_555
H60 C68 1_555 1_555
C69 C67 1_555 1_555
H61 C69 1_555 1_555
C70 H62 1_555 1_555
H63 C70 1_555 1_555
C71 C69 1_555 1_555
H64 C71 1_555 1_555
C72 C70 1_555 1_555
H65 C72 1_555 1_555
H66 C72 1_555 1_555
H67 C72 1_555 1_555
C73 C71 1_555 1_555
C74 P6 1_555 1_555
H68 C74 1_555 1_555
H69 C74 1_555 1_555
C75 C73 1_555 1_555
H70 C75 1_555 1_555
C76 C74 1_555 1_555
H71 C76 1_555 1_555
H72 C76 1_555 1_555
H73 C76 1_555 1_555
C77 C75 1_555 1_555
H74 C77 1_555 1_555
C78 P6 1_555 1_555
H75 C78 1_555 1_555
H76 C78 1_555 1_555
C79 Pt1 1_555 1_555
C80 C78 1_555 1_555
H77 C80 1_555 1_555
H78 C80 1_555 1_555
H79 C80 1_555 1_555
C81 C79 1_555 1_555
H80 C81 1_555 1_555
C82 P8 1_555 1_555
H81 C82 1_555 1_555
H82 C82 1_555 1_555
C83 C73 1_555 1_555
C84 C82 1_555 1_555
H83 C84 1_555 1_555
H84 C84 1_555 1_555
H85 C84 1_555 1_555
C85 C67 1_555 1_555
C86 P8 1_555 1_555
H86 C86 1_555 1_555
H87 C86 1_555 1_555
C87 C61 1_555 1_555
H88 C87 1_555 1_555
C88 C86 1_555 1_555
H89 C88 1_555 1_555
H90 C88 1_555 1_555
H91 C88 1_555 1_555
C89 H92 1_555 1_555
H93 C89 1_555 1_555
C90 P8 1_555 1_555
H94 C90 1_555 1_555
H95 C90 1_555 1_555
C91 C89 1_555 1_555
H96 C91 1_555 1_555
H97 C91 1_555 1_555
H98 C91 1_555 1_555
C92 C90 1_555 1_555
H99 C92 1_555 1_555
H100 C92 1_555 1_555
H101 C92 1_555 1_555
C93 P1 1_555 1_555
H102 C93 1_555 1_555
H103 C93 1_555 1_555
C94 C93 1_555 1_555
H104 C94 1_555 1_555
H105 C94 1_555 1_555
H106 C94 1_555 1_555
C95 P1 1_555 1_555
H107 C95 1_555 1_555
H108 C95 1_555 1_555
C96 C95 1_555 1_555
H109 C96 1_555 1_555
H110 C96 1_555 1_555
H111 C96 1_555 1_555
C97 P3 1_555 1_555
H112 C97 1_555 1_555
H113 C97 1_555 1_555
C98 C97 1_555 1_555
H114 C98 1_555 1_555
H115 C98 1_555 1_555
H116 C98 1_555 1_555
C99 P3 1_555 1_555
H117 C99 1_555 1_555
H118 C99 1_555 1_555
C100 C99 1_555 1_555
H119 C100 1_555 1_555
H120 C100 1_555 1_555
H121 C100 1_555 1_555
C101 P3 1_555 1_555
H122 C101 1_555 1_555
H123 C101 1_555 1_555
C102 C101 1_555 1_555
H124 C102 1_555 1_555
H125 C102 1_555 1_555
H126 C102 1_555 1_555
C103 H127 1_555 1_555
H128 C103 1_555 1_555
C104 C103 1_555 1_555
H129 C104 1_555 1_555
H130 C104 1_555 1_555
H131 C104 1_555 1_555
C105 P5 1_555 1_555
H132 C105 1_555 1_555
H133 C105 1_555 1_555
C106 C105 1_555 1_555
H134 C106 1_555 1_555
H135 C106 1_555 1_555
H136 C106 1_555 1_555
C107 P5 1_555 1_555
H137 C107 1_555 1_555
H138 C107 1_555 1_555
C108 C107 1_555 1_555
H139 C108 1_555 1_555
H140 C108 1_555 1_555
H141 C108 1_555 1_555
C109 P7 1_555 1_555
H142 C109 1_555 1_555
H143 C109 1_555 1_555
C110 C109 1_555 1_555
H144 C110 1_555 1_555
H145 C110 1_555 1_555
H146 C110 1_555 1_555
C111 P7 1_555 1_555
H147 C111 1_555 1_555
H148 C111 1_555 1_555
C112 C111 1_555 1_555
H149 C112 1_555 1_555
H150 C112 1_555 1_555
H151 C112 1_555 1_555
C113 P7 1_555 1_555
H152 C113 1_555 1_555
H153 C113 1_555 1_555
C114 C113 1_555 1_555
H154 C114 1_555 1_555
H155 C114 1_555 1_555
H156 C114 1_555 1_555
C115 H157 1_555 1_555
H158 C115 1_555 1_555
C116 C115 1_555 1_555
H159 C116 1_555 1_555
H160 C116 1_555 1_555
H161 C116 1_555 1_555
C117 P9 1_555 1_555
H162 C117 1_555 1_555
H163 C117 1_555 1_555
C118 C117 1_555 1_555
H164 C118 1_555 1_555
H165 C118 1_555 1_555
H166 C118 1_555 1_555
C119 P9 1_555 1_555
H167 C119 1_555 1_555
H168 C119 1_555 1_555
C120 C119 1_555 1_555
H169 C120 1_555 1_555
H170 C120 1_555 1_555
H171 C120 1_555 1_555
C121 P10 1_555 1_555
H172 C121 1_555 1_555
H173 C121 1_555 1_555
C122 C121 1_555 1_555
H174 C122 1_555 1_555
H175 C122 1_555 1_555
H176 C122 1_555 1_555
C123 P10 1_555 1_555
H177 C123 1_555 1_555
H178 C123 1_555 1_555
C124 C123 1_555 1_555
H179 C124 1_555 1_555
H180 C124 1_555 1_555
H181 C124 1_555 1_555
C125 P10 1_555 1_555
H182 C125 1_555 1_555
H183 C125 1_555 1_555
C126 C125 1_555 1_555
H184 C126 1_555 1_555
H185 C126 1_555 1_555
H186 C126 1_555 1_555
C127 H187 1_555 1_555
H188 C127 1_555 1_555
C128 C127 1_555 1_555
H189 C128 1_555 1_555
H190 C128 1_555 1_555
H191 C128 1_555 1_555
C129 P11 1_555 1_555
H192 C129 1_555 1_555
H193 C129 1_555 1_555
C130 C129 1_555 1_555
H194 C130 1_555 1_555
H195 C130 1_555 1_555
H196 C130 1_555 1_555
C131 P11 1_555 1_555
H197 C131 1_555 1_555
H198 C131 1_555 1_555
C132 C131 1_555 1_555
H199 C132 1_555 1_555
H200 C132 1_555 1_555
H201 C132 1_555 1_555
C133 P12 1_555 1_555
H202 C133 1_555 1_555
H203 C133 1_555 1_555
C134 C133 1_555 1_555
H204 C134 1_555 1_555
H205 C134 1_555 1_555
H206 C134 1_555 1_555
C135 P12 1_555 1_555
H207 C135 1_555 1_555
H208 C135 1_555 1_555
C136 C135 1_555 1_555
H209 C136 1_555 1_555
H210 C136 1_555 1_555
H211 C136 1_555 1_555
C137 P12 1_555 1_555
H212 C137 1_555 1_555
H213 C137 1_555 1_555
C138 C137 1_555 1_555
H214 C138 1_555 1_555
H215 C138 1_555 1_555
H216 C138 1_555 1_555
Cl1 C139 1_555 1_555
Cl2 C139 1_555 1_555
Cl3 C139 1_555 1_555
Cl4 C140 1_555 1_555
Cl5 C140 1_555 1_555
Cl6 C140 1_555 1_555
Cl7 C141 1_555 1_555
Cl8 C141 1_555 1_555
Cl9 C141 1_555 1_555
Cl10 C142 1_555 1_555
Cl11 C142 1_555 1_555
Cl12 C142 1_555 1_555
C139 H217 1_555 1_555
C140 H218 1_555 1_555
C141 H219 1_555 1_555
C142 H220 1_555 1_555
C36A C34 1_555 1_555
Pt2A C36A 1_555 1_555
P2A Pt2A 1_555 1_555
C46A P2A 1_555 1_555
H25A C46A 1_555 1_555
H26A C46A 1_555 1_555
C48A C46A 1_555 1_555
H27A C48A 1_555 1_555
H28A C48A 1_555 1_555
H29A C48A 1_555 1_555
C50A P2A 1_555 1_555
H31A C50A 1_555 1_555
H32A C50A 1_555 1_555
C52A C50A 1_555 1_555
H34A C52A 1_555 1_555
H35A C52A 1_555 1_555
H36A C52A 1_555 1_555
C54A P2A 1_555 1_555
H38A C54A 1_555 1_555
H39A C54A 1_555 1_555
C56A C54A 1_555 1_555
H40A C56A 1_555 1_555
H41A C56A 1_555 1_555
H42A C56A 1_555 1_555
P4A Pt2A 1_555 1_555
C58A P4A 1_555 1_555
H44A C58A 1_555 1_555
H45A C58A 1_555 1_555
C60A C58A 1_555 1_555
H46A C60A 1_555 1_555
H47A C60A 1_555 1_555
H48A C60A 1_555 1_555
C62A P4A 1_555 1_555
H49A C62A 1_555 1_555
H50A C62A 1_555 1_555
C64A C62A 1_555 1_555
H52A C64A 1_555 1_555
H53A C64A 1_555 1_555
H54A C64A 1_555 1_555
C66A P4A 1_555 1_555
H56A C66A 1_555 1_555
H57A C66A 1_555 1_555
C68A C66A 1_555 1_555
H58A C68A 1_555 1_555
H59A C68A 1_555 1_555
H60A C68A 1_555 1_555
O2A Pt2A 1_555 1_555
C2A O2A 1_555 1_555
O4A C2A 1_555 1_555
C4A C2A 1_555 1_555
C6A C4A 1_555 1_555
H2A C6A 1_555 1_555
C8A C6A 1_555 1_555
H4A C8A 1_555 1_555
C10A C8A 1_555 1_555
H6A C10A 1_555 1_555
C12A C10A 1_555 1_555
C14A C4A 1_555 1_555
H8A C14A 1_555 1_555
C16A C12A 1_555 1_555
O6A C16A 1_555 1_555
Pt4A O6A 1_555 1_555
P6A Pt4A 1_555 1_555
C70A P6A 1_555 1_555
H62A C70A 1_555 1_555
H63A C70A 1_555 1_555
C72A C70A 1_555 1_555
H65A C72A 1_555 1_555
H66A C72A 1_555 1_555
H67A C72A 1_555 1_555
C74A P6A 1_555 1_555
H68A C74A 1_555 1_555
H69A C74A 1_555 1_555
C76A C74A 1_555 1_555
H71A C76A 1_555 1_555
H72A C76A 1_555 1_555
H73A C76A 1_555 1_555
C78A P6A 1_555 1_555
H75A C78A 1_555 1_555
H76A C78A 1_555 1_555
C80A C78A 1_555 1_555
H77A C80A 1_555 1_555
H78A C80A 1_555 1_555
H79A C80A 1_555 1_555
P8A Pt4A 1_555 1_555
C82A P8A 1_555 1_555
H81A C82A 1_555 1_555
H82A C82A 1_555 1_555
C84A C82A 1_555 1_555
H83A C84A 1_555 1_555
H84A C84A 1_555 1_555
H85A C84A 1_555 1_555
C86A P8A 1_555 1_555
H86A C86A 1_555 1_555
H87A C86A 1_555 1_555
C88A C86A 1_555 1_555
H89A C88A 1_555 1_555
H90A C88A 1_555 1_555
H91A C88A 1_555 1_555
C90A P8A 1_555 1_555
H94A C90A 1_555 1_555
H95A C90A 1_555 1_555
C92A C90A 1_555 1_555
H99A C92A 1_555 1_555
H100A C92A 1_555 1_555
H101A C92A 1_555 1_555
C18A Pt4A 1_555 1_555
C20A C18A 1_555 1_555
H10A C20A 1_555 1_555
C22A C20A 1_555 1_555
H12A C22A 1_555 1_555
C24A C22A 1_555 1_555
C26A C24A 1_555 1_555
H14A C26A 1_555 1_555
C28A C26A 1_555 1_555
H16A C28A 1_555 1_555
C30A C28A 1_555 1_555
C32A C30A 1_555 1_555
H18A C32A 1_555 1_555
C34A C36 1_555 1_555
H20A C34A 1_555 1_555
C40A C38 1_555 1_555
C42A C24A 1_555 1_555
C44A C18A 1_555 1_555
H24A C44A 1_555 1_555
O8A C16A 1_555 1_555
C38A C40 1_555 1_555
H22A C38A 1_555 1_555
C11 C13 1_555 1_555
C11 C15 1_555 1_555
C12 C14 1_555 1_555
C12 C16 1_555 1_555
C33 C35 1_555 1_555
C37 C39 1_555 1_555
C39 C41 1_555 1_555
C40 C42 1_555 1_555
C41 C43 1_555 1_555
C42 C44 1_555 1_555
C55 C57 1_555 1_555
C55 C59 1_555 1_555
C77 C79 1_555 1_555
C81 C83 1_555 1_555
C83 C85 1_555 1_555
C85 C87 1_555 1_555
C36A C38A 1_555 1_555
C12A C14A 1_555 1_555
C30A C40A 1_555 1_555
C32A C34A 1_555 1_555
C40A C42A 1_555 1_555
C42A C44A 1_555 1_555

#END
