# generated using pymatgen
data_P4H73Pt2C45NO5
_symmetry_space_group_name_H-M   'P 1'
_cell_length_a   17.29670000
_cell_length_b   21.74530000
_cell_length_c   26.39520000
_cell_angle_alpha   90.00000000
_cell_angle_beta   90.00000000
_cell_angle_gamma   90.00000000
_symmetry_Int_Tables_number   1
_chemical_formula_structural   P4H73Pt2C45NO5
_chemical_formula_sum   'P32 H584 Pt16 C360 N8 O40'
_cell_volume   9927.81358020
_cell_formula_units_Z   8
loop_
 _symmetry_equiv_pos_site_id
 _symmetry_equiv_pos_as_xyz
  1  'x, y, z'
loop_
 _atom_site_type_symbol
 _atom_site_label
 _atom_site_symmetry_multiplicity
 _atom_site_fract_x
 _atom_site_fract_y
 _atom_site_fract_z
 _atom_site_occupancy
  P  P1  1  0.731640  0.040280  0.347700  1.0
  P  P2  1  0.231640  0.040280  0.152300  1.0
  P  P3  1  0.768360  0.540280  0.347700  1.0
  P  P4  1  0.731640  0.459720  0.847700  1.0
  P  P5  1  0.268360  0.959720  0.652300  1.0
  P  P6  1  0.768360  0.959720  0.847700  1.0
  P  P7  1  0.231640  0.459720  0.652300  1.0
  P  P8  1  0.268360  0.540280  0.152300  1.0
  P  P9  1  0.515870  0.928400  0.314300  1.0
  P  P10  1  0.015870  0.928400  0.185700  1.0
  P  P11  1  0.984130  0.428400  0.314300  1.0
  P  P12  1  0.515870  0.571600  0.814300  1.0
  P  P13  1  0.484130  0.071600  0.685700  1.0
  P  P14  1  0.984130  0.071600  0.814300  1.0
  P  P15  1  0.015870  0.571600  0.685700  1.0
  P  P16  1  0.484130  0.428400  0.185700  1.0
  P  P17  1  0.384610  0.312210  0.461240  1.0
  P  P18  1  0.884610  0.312210  0.038760  1.0
  P  P19  1  0.115390  0.812210  0.461240  1.0
  P  P20  1  0.384610  0.187790  0.961240  1.0
  P  P21  1  0.615390  0.687790  0.538760  1.0
  P  P22  1  0.115390  0.687790  0.961240  1.0
  P  P23  1  0.884610  0.187790  0.538760  1.0
  P  P24  1  0.615390  0.812210  0.038760  1.0
  P  P25  1  0.233160  0.154060  0.403500  1.0
  P  P26  1  0.733160  0.154060  0.096500  1.0
  P  P27  1  0.266840  0.654060  0.403500  1.0
  P  P28  1  0.233160  0.345940  0.903500  1.0
  P  P29  1  0.766840  0.845940  0.596500  1.0
  P  P30  1  0.266840  0.845940  0.903500  1.0
  P  P31  1  0.733160  0.345940  0.596500  1.0
  P  P32  1  0.766840  0.654060  0.096500  1.0
  H  H33  1  0.514000  0.103000  0.376600  1
  H  H34  1  0.014000  0.103000  0.123400  1
  H  H35  1  0.986000  0.603000  0.376600  1
  H  H36  1  0.514000  0.397000  0.876600  1
  H  H37  1  0.486000  0.897000  0.623400  1
  H  H38  1  0.986000  0.897000  0.876600  1
  H  H39  1  0.014000  0.397000  0.623400  1
  H  H40  1  0.486000  0.603000  0.123400  1
  H  H41  1  0.464000  0.140000  0.390000  1
  H  H42  1  0.964000  0.140000  0.110000  1
  H  H43  1  0.036000  0.640000  0.390000  1
  H  H44  1  0.464000  0.360000  0.890000  1
  H  H45  1  0.536000  0.860000  0.610000  1
  H  H46  1  0.036000  0.860000  0.890000  1
  H  H47  1  0.964000  0.360000  0.610000  1
  H  H48  1  0.536000  0.640000  0.110000  1
  H  H49  1  0.514500  0.137700  0.178400  1.0
  H  H50  1  0.014500  0.137700  0.321600  1.0
  H  H51  1  0.985500  0.637700  0.178400  1.0
  H  H52  1  0.514500  0.362300  0.678400  1.0
  H  H53  1  0.485500  0.862300  0.821600  1.0
  H  H54  1  0.985500  0.862300  0.678400  1.0
  H  H55  1  0.014500  0.362300  0.821600  1.0
  H  H56  1  0.485500  0.637700  0.321600  1.0
  H  H57  1  0.425300  0.216200  0.163100  1.0
  H  H58  1  0.925300  0.216200  0.336900  1.0
  H  H59  1  0.074700  0.716200  0.163100  1.0
  H  H60  1  0.425300  0.283800  0.663100  1.0
  H  H61  1  0.574700  0.783800  0.836900  1.0
  H  H62  1  0.074700  0.783800  0.663100  1.0
  H  H63  1  0.925300  0.283800  0.836900  1.0
  H  H64  1  0.574700  0.716200  0.336900  1.0
  H  H65  1  0.365000  0.263700  0.232400  1.0
  H  H66  1  0.865000  0.263700  0.267600  1.0
  H  H67  1  0.135000  0.763700  0.232400  1.0
  H  H68  1  0.365000  0.236300  0.732400  1.0
  H  H69  1  0.635000  0.736300  0.767600  1.0
  H  H70  1  0.135000  0.736300  0.732400  1.0
  H  H71  1  0.865000  0.236300  0.767600  1.0
  H  H72  1  0.635000  0.763700  0.267600  1.0
  H  H73  1  0.167500  0.304100  0.471300  1.0
  H  H74  1  0.667500  0.304100  0.028700  1.0
  H  H75  1  0.332500  0.804100  0.471300  1.0
  H  H76  1  0.167500  0.195900  0.971300  1.0
  H  H77  1  0.832500  0.695900  0.528700  1.0
  H  H78  1  0.332500  0.695900  0.971300  1.0
  H  H79  1  0.667500  0.195900  0.528700  1.0
  H  H80  1  0.832500  0.804100  0.028700  1.0
  H  H81  1  0.098800  0.316700  0.545300  1.0
  H  H82  1  0.598800  0.316700  0.954700  1.0
  H  H83  1  0.401200  0.816700  0.545300  1.0
  H  H84  1  0.098800  0.183300  0.045300  1.0
  H  H85  1  0.901200  0.683300  0.454700  1.0
  H  H86  1  0.401200  0.683300  0.045300  1.0
  H  H87  1  0.598800  0.183300  0.454700  1.0
  H  H88  1  0.901200  0.816700  0.954700  1.0
  H  H89  1  0.081100  0.296500  0.637300  1.0
  H  H90  1  0.581100  0.296500  0.862700  1.0
  H  H91  1  0.418900  0.796500  0.637300  1.0
  H  H92  1  0.081100  0.203500  0.137300  1.0
  H  H93  1  0.918900  0.703500  0.362700  1.0
  H  H94  1  0.418900  0.703500  0.137300  1.0
  H  H95  1  0.581100  0.203500  0.362700  1.0
  H  H96  1  0.918900  0.796500  0.862700  1.0
  H  H97  1  0.121400  0.249700  0.709800  1.0
  H  H98  1  0.621400  0.249700  0.790200  1.0
  H  H99  1  0.378600  0.749700  0.709800  1.0
  H  H100  1  0.121400  0.250300  0.209800  1.0
  H  H101  1  0.878600  0.750300  0.290200  1.0
  H  H102  1  0.378600  0.750300  0.209800  1.0
  H  H103  1  0.621400  0.250300  0.290200  1.0
  H  H104  1  0.878600  0.749700  0.790200  1.0
  H  H105  1  0.206500  0.175500  0.754400  1.0
  H  H106  1  0.706500  0.175500  0.745600  1.0
  H  H107  1  0.293500  0.675500  0.754400  1.0
  H  H108  1  0.206500  0.324500  0.254400  1.0
  H  H109  1  0.793500  0.824500  0.245600  1.0
  H  H110  1  0.293500  0.824500  0.254400  1.0
  H  H111  1  0.706500  0.324500  0.245600  1.0
  H  H112  1  0.793500  0.675500  0.745600  1.0
  H  H113  1  0.294500  0.095500  0.752200  1.0
  H  H114  1  0.794500  0.095500  0.747800  1.0
  H  H115  1  0.205500  0.595500  0.752200  1.0
  H  H116  1  0.294500  0.404500  0.252200  1.0
  H  H117  1  0.705500  0.904500  0.247800  1.0
  H  H118  1  0.205500  0.904500  0.252200  1.0
  H  H119  1  0.794500  0.404500  0.247800  1.0
  H  H120  1  0.705500  0.595500  0.747800  1.0
  H  H121  1  0.682900  0.883700  0.399300  1.0
  H  H122  1  0.182900  0.883700  0.100700  1.0
  H  H123  1  0.817100  0.383700  0.399300  1.0
  H  H124  1  0.682900  0.616300  0.899300  1.0
  H  H125  1  0.317100  0.116300  0.600700  1.0
  H  H126  1  0.817100  0.116300  0.899300  1.0
  H  H127  1  0.182900  0.616300  0.600700  1.0
  H  H128  1  0.317100  0.383700  0.100700  1.0
  H  H129  1  0.303200  0.176800  0.538800  1.0
  H  H130  1  0.803200  0.176800  0.961200  1.0
  H  H131  1  0.196800  0.676800  0.538800  1.0
  H  H132  1  0.303200  0.323200  0.038800  1.0
  H  H133  1  0.696800  0.823200  0.461200  1.0
  H  H134  1  0.196800  0.823200  0.038800  1.0
  H  H135  1  0.803200  0.323200  0.461200  1.0
  H  H136  1  0.696800  0.676800  0.961200  1.0
  H  H137  1  0.715900  0.128700  0.298800  1.0
  H  H138  1  0.215900  0.128700  0.201200  1.0
  H  H139  1  0.784100  0.628700  0.298800  1.0
  H  H140  1  0.715900  0.371300  0.798800  1.0
  H  H141  1  0.284100  0.871300  0.701200  1.0
  H  H142  1  0.784100  0.871300  0.798800  1.0
  H  H143  1  0.215900  0.371300  0.701200  1.0
  H  H144  1  0.284100  0.628700  0.201200  1.0
  H  H145  1  0.801100  0.126900  0.322400  1.0
  H  H146  1  0.301100  0.126900  0.177600  1.0
  H  H147  1  0.698900  0.626900  0.322400  1.0
  H  H148  1  0.801100  0.373100  0.822400  1.0
  H  H149  1  0.198900  0.873100  0.677600  1.0
  H  H150  1  0.698900  0.873100  0.822400  1.0
  H  H151  1  0.301100  0.373100  0.677600  1.0
  H  H152  1  0.198900  0.626900  0.177600  1.0
  H  H153  1  0.837000  0.050800  0.262100  1.0
  H  H154  1  0.337000  0.050800  0.237900  1.0
  H  H155  1  0.663000  0.550800  0.262100  1.0
  H  H156  1  0.837000  0.449200  0.762100  1.0
  H  H157  1  0.163000  0.949200  0.737900  1.0
  H  H158  1  0.663000  0.949200  0.762100  1.0
  H  H159  1  0.337000  0.449200  0.737900  1.0
  H  H160  1  0.163000  0.550800  0.237900  1.0
  H  H161  1  0.808100  0.111800  0.234000  1.0
  H  H162  1  0.308100  0.111800  0.266000  1.0
  H  H163  1  0.691900  0.611800  0.234000  1.0
  H  H164  1  0.808100  0.388200  0.734000  1.0
  H  H165  1  0.191900  0.888200  0.766000  1.0
  H  H166  1  0.691900  0.888200  0.734000  1.0
  H  H167  1  0.308100  0.388200  0.766000  1.0
  H  H168  1  0.191900  0.611800  0.266000  1.0
  H  H169  1  0.752000  0.053500  0.238300  1.0
  H  H170  1  0.252000  0.053500  0.261700  1.0
  H  H171  1  0.748000  0.553500  0.238300  1.0
  H  H172  1  0.752000  0.446500  0.738300  1.0
  H  H173  1  0.248000  0.946500  0.761700  1.0
  H  H174  1  0.748000  0.946500  0.738300  1.0
  H  H175  1  0.252000  0.446500  0.761700  1.0
  H  H176  1  0.248000  0.553500  0.261700  1.0
  H  H177  1  0.807000  0.967200  0.389400  1.0
  H  H178  1  0.307000  0.967200  0.110600  1.0
  H  H179  1  0.693000  0.467200  0.389400  1.0
  H  H180  1  0.807000  0.532800  0.889400  1.0
  H  H181  1  0.193000  0.032800  0.610600  1.0
  H  H182  1  0.693000  0.032800  0.889400  1.0
  H  H183  1  0.307000  0.532800  0.610600  1.0
  H  H184  1  0.193000  0.467200  0.110600  1.0
  H  H185  1  0.836100  0.975200  0.332400  1.0
  H  H186  1  0.336100  0.975200  0.167600  1.0
  H  H187  1  0.663900  0.475200  0.332400  1.0
  H  H188  1  0.836100  0.524800  0.832400  1.0
  H  H189  1  0.163900  0.024800  0.667600  1.0
  H  H190  1  0.663900  0.024800  0.832400  1.0
  H  H191  1  0.336100  0.524800  0.667600  1.0
  H  H192  1  0.163900  0.475200  0.167600  1.0
  H  H193  1  0.905100  0.063700  0.354100  1.0
  H  H194  1  0.405100  0.063700  0.145900  1.0
  H  H195  1  0.594900  0.563700  0.354100  1.0
  H  H196  1  0.905100  0.436300  0.854100  1.0
  H  H197  1  0.094900  0.936300  0.645900  1.0
  H  H198  1  0.594900  0.936300  0.854100  1.0
  H  H199  1  0.405100  0.436300  0.645900  1.0
  H  H200  1  0.094900  0.563700  0.145900  1.0
  H  H201  1  0.929800  0.009600  0.391900  1.0
  H  H202  1  0.429800  0.009600  0.108100  1.0
  H  H203  1  0.570200  0.509600  0.391900  1.0
  H  H204  1  0.929800  0.490400  0.891900  1.0
  H  H205  1  0.070200  0.990400  0.608100  1.0
  H  H206  1  0.570200  0.990400  0.891900  1.0
  H  H207  1  0.429800  0.490400  0.608100  1.0
  H  H208  1  0.070200  0.509600  0.108100  1.0
  H  H209  1  0.871000  0.061700  0.410500  1.0
  H  H210  1  0.371000  0.061700  0.089500  1.0
  H  H211  1  0.629000  0.561700  0.410500  1.0
  H  H212  1  0.871000  0.438300  0.910500  1.0
  H  H213  1  0.129000  0.938300  0.589500  1.0
  H  H214  1  0.629000  0.938300  0.910500  1.0
  H  H215  1  0.371000  0.438300  0.589500  1.0
  H  H216  1  0.129000  0.561700  0.089500  1.0
  H  H217  1  0.749300  0.108300  0.415200  1.0
  H  H218  1  0.249300  0.108300  0.084800  1.0
  H  H219  1  0.750700  0.608300  0.415200  1.0
  H  H220  1  0.749300  0.391700  0.915200  1.0
  H  H221  1  0.250700  0.891700  0.584800  1.0
  H  H222  1  0.750700  0.891700  0.915200  1.0
  H  H223  1  0.249300  0.391700  0.584800  1.0
  H  H224  1  0.250700  0.608300  0.084800  1.0
  H  H225  1  0.660800  0.108600  0.397700  1.0
  H  H226  1  0.160800  0.108600  0.102300  1.0
  H  H227  1  0.839200  0.608600  0.397700  1.0
  H  H228  1  0.660800  0.391400  0.897700  1.0
  H  H229  1  0.339200  0.891400  0.602300  1.0
  H  H230  1  0.839200  0.891400  0.897700  1.0
  H  H231  1  0.160800  0.391400  0.602300  1.0
  H  H232  1  0.339200  0.608600  0.102300  1.0
  H  H233  1  0.641900  0.012800  0.439900  1.0
  H  H234  1  0.141900  0.012800  0.060100  1.0
  H  H235  1  0.858100  0.512800  0.439900  1.0
  H  H236  1  0.641900  0.487200  0.939900  1.0
  H  H237  1  0.358100  0.987200  0.560100  1.0
  H  H238  1  0.858100  0.987200  0.939900  1.0
  H  H239  1  0.141900  0.487200  0.560100  1.0
  H  H240  1  0.358100  0.512800  0.060100  1.0
  H  H241  1  0.669700  0.064800  0.478700  1.0
  H  H242  1  0.169700  0.064800  0.021300  1.0
  H  H243  1  0.830300  0.564800  0.478700  1.0
  H  H244  1  0.669700  0.435200  0.978700  1.0
  H  H245  1  0.330300  0.935200  0.521300  1.0
  H  H246  1  0.830300  0.935200  0.978700  1.0
  H  H247  1  0.169700  0.435200  0.521300  1.0
  H  H248  1  0.330300  0.564800  0.021300  1.0
  H  H249  1  0.729900  0.014600  0.458600  1.0
  H  H250  1  0.229900  0.014600  0.041400  1.0
  H  H251  1  0.770100  0.514600  0.458600  1.0
  H  H252  1  0.729900  0.485400  0.958600  1.0
  H  H253  1  0.270100  0.985400  0.541400  1.0
  H  H254  1  0.770100  0.985400  0.958600  1.0
  H  H255  1  0.229900  0.485400  0.541400  1.0
  H  H256  1  0.270100  0.514600  0.041400  1.0
  H  H257  1  0.453100  0.851600  0.360900  1.0
  H  H258  1  0.953100  0.851600  0.139100  1.0
  H  H259  1  0.046900  0.351600  0.360900  1.0
  H  H260  1  0.453100  0.648400  0.860900  1.0
  H  H261  1  0.546900  0.148400  0.639100  1.0
  H  H262  1  0.046900  0.148400  0.860900  1.0
  H  H263  1  0.953100  0.648400  0.639100  1.0
  H  H264  1  0.546900  0.351600  0.139100  1.0
  H  H265  1  0.544700  0.844700  0.366800  1.0
  H  H266  1  0.044700  0.844700  0.133200  1.0
  H  H267  1  0.955300  0.344700  0.366800  1.0
  H  H268  1  0.544700  0.655300  0.866800  1.0
  H  H269  1  0.455300  0.155300  0.633200  1.0
  H  H270  1  0.955300  0.155300  0.866800  1.0
  H  H271  1  0.044700  0.655300  0.633200  1.0
  H  H272  1  0.455300  0.344700  0.133200  1.0
  H  H273  1  0.543600  0.932100  0.423200  1.0
  H  H274  1  0.043600  0.932100  0.076800  1.0
  H  H275  1  0.956400  0.432100  0.423200  1.0
  H  H276  1  0.543600  0.567900  0.923200  1.0
  H  H277  1  0.456400  0.067900  0.576800  1.0
  H  H278  1  0.956400  0.067900  0.923200  1.0
  H  H279  1  0.043600  0.567900  0.576800  1.0
  H  H280  1  0.456400  0.432100  0.076800  1.0
  H  H281  1  0.495500  0.875200  0.445200  1.0
  H  H282  1  0.995500  0.875200  0.054800  1.0
  H  H283  1  0.004500  0.375200  0.445200  1.0
  H  H284  1  0.495500  0.624800  0.945200  1.0
  H  H285  1  0.504500  0.124800  0.554800  1.0
  H  H286  1  0.004500  0.124800  0.945200  1.0
  H  H287  1  0.995500  0.624800  0.554800  1.0
  H  H288  1  0.504500  0.375200  0.054800  1.0
  H  H289  1  0.451200  0.932100  0.420100  1.0
  H  H290  1  0.951200  0.932100  0.079900  1.0
  H  H291  1  0.048800  0.432100  0.420100  1.0
  H  H292  1  0.451200  0.567900  0.920100  1.0
  H  H293  1  0.548800  0.067900  0.579900  1.0
  H  H294  1  0.048800  0.067900  0.920100  1.0
  H  H295  1  0.951200  0.567900  0.579900  1.0
  H  H296  1  0.548800  0.432100  0.079900  1.0
  H  H297  1  0.432600  0.003300  0.347800  1.0
  H  H298  1  0.932600  0.003300  0.152200  1.0
  H  H299  1  0.067400  0.503300  0.347800  1.0
  H  H300  1  0.432600  0.496700  0.847800  1.0
  H  H301  1  0.567400  0.996700  0.652200  1.0
  H  H302  1  0.067400  0.996700  0.847800  1.0
  H  H303  1  0.932600  0.496700  0.652200  1.0
  H  H304  1  0.567400  0.503300  0.152200  1.0
  H  H305  1  0.429400  0.004900  0.287400  1.0
  H  H306  1  0.929400  0.004900  0.212600  1.0
  H  H307  1  0.070600  0.504900  0.287400  1.0
  H  H308  1  0.429400  0.495100  0.787400  1.0
  H  H309  1  0.570600  0.995100  0.712600  1.0
  H  H310  1  0.070600  0.995100  0.787400  1.0
  H  H311  1  0.929400  0.495100  0.712600  1.0
  H  H312  1  0.570600  0.504900  0.212600  1.0
  H  H313  1  0.347700  0.919000  0.286900  1.0
  H  H314  1  0.847700  0.919000  0.213100  1.0
  H  H315  1  0.152300  0.419000  0.286900  1.0
  H  H316  1  0.347700  0.581000  0.786900  1.0
  H  H317  1  0.652300  0.081000  0.713100  1.0
  H  H318  1  0.152300  0.081000  0.786900  1.0
  H  H319  1  0.847700  0.581000  0.713100  1.0
  H  H320  1  0.652300  0.419000  0.213100  1.0
  H  H321  1  0.310700  0.972000  0.321200  1.0
  H  H322  1  0.810700  0.972000  0.178800  1.0
  H  H323  1  0.189300  0.472000  0.321200  1.0
  H  H324  1  0.310700  0.528000  0.821200  1.0
  H  H325  1  0.689300  0.028000  0.678800  1.0
  H  H326  1  0.189300  0.028000  0.821200  1.0
  H  H327  1  0.810700  0.528000  0.678800  1.0
  H  H328  1  0.689300  0.472000  0.178800  1.0
  H  H329  1  0.352800  0.914700  0.347400  1.0
  H  H330  1  0.852800  0.914700  0.152600  1.0
  H  H331  1  0.147200  0.414700  0.347400  1.0
  H  H332  1  0.352800  0.585300  0.847400  1.0
  H  H333  1  0.647200  0.085300  0.652600  1.0
  H  H334  1  0.147200  0.085300  0.847400  1.0
  H  H335  1  0.852800  0.585300  0.652600  1.0
  H  H336  1  0.647200  0.414700  0.152600  1.0
  H  H337  1  0.549900  0.852500  0.256200  1.0
  H  H338  1  0.049900  0.852500  0.243800  1.0
  H  H339  1  0.950100  0.352500  0.256200  1.0
  H  H340  1  0.549900  0.647500  0.756200  1.0
  H  H341  1  0.450100  0.147500  0.743800  1.0
  H  H342  1  0.950100  0.147500  0.756200  1.0
  H  H343  1  0.049900  0.647500  0.743800  1.0
  H  H344  1  0.450100  0.352500  0.243800  1.0
  H  H345  1  0.457900  0.856500  0.261000  1.0
  H  H346  1  0.957900  0.856500  0.239000  1.0
  H  H347  1  0.042100  0.356500  0.261000  1.0
  H  H348  1  0.457900  0.643500  0.761000  1.0
  H  H349  1  0.542100  0.143500  0.739000  1.0
  H  H350  1  0.042100  0.143500  0.761000  1.0
  H  H351  1  0.957900  0.643500  0.739000  1.0
  H  H352  1  0.542100  0.356500  0.239000  1.0
  H  H353  1  0.456500  0.944100  0.210200  1.0
  H  H354  1  0.956500  0.944100  0.289800  1.0
  H  H355  1  0.043500  0.444100  0.210200  1.0
  H  H356  1  0.456500  0.555900  0.710200  1.0
  H  H357  1  0.543500  0.055900  0.789800  1.0
  H  H358  1  0.043500  0.055900  0.710200  1.0
  H  H359  1  0.956500  0.555900  0.789800  1.0
  H  H360  1  0.543500  0.444100  0.289800  1.0
  H  H361  1  0.499500  0.889500  0.180900  1.0
  H  H362  1  0.999500  0.889500  0.319100  1.0
  H  H363  1  0.000500  0.389500  0.180900  1.0
  H  H364  1  0.499500  0.610500  0.680900  1.0
  H  H365  1  0.500500  0.110500  0.819100  1.0
  H  H366  1  0.000500  0.110500  0.680900  1.0
  H  H367  1  0.999500  0.610500  0.819100  1.0
  H  H368  1  0.500500  0.389500  0.319100  1.0
  H  H369  1  0.548900  0.943100  0.206900  1.0
  H  H370  1  0.048900  0.943100  0.293100  1.0
  H  H371  1  0.951100  0.443100  0.206900  1.0
  H  H372  1  0.548900  0.556900  0.706900  1.0
  H  H373  1  0.451100  0.056900  0.793100  1.0
  H  H374  1  0.951100  0.056900  0.706900  1.0
  H  H375  1  0.048900  0.556900  0.793100  1.0
  H  H376  1  0.451100  0.443100  0.293100  1.0
  H  H377  1  0.446900  0.346800  0.535200  1.0
  H  H378  1  0.946900  0.346800  0.964800  1.0
  H  H379  1  0.053100  0.846800  0.535200  1.0
  H  H380  1  0.446900  0.153200  0.035200  1.0
  H  H381  1  0.553100  0.653200  0.464800  1.0
  H  H382  1  0.053100  0.653200  0.035200  1.0
  H  H383  1  0.946900  0.153200  0.464800  1.0
  H  H384  1  0.553100  0.846800  0.964800  1.0
  H  H385  1  0.371200  0.308400  0.549900  1.0
  H  H386  1  0.871200  0.308400  0.950100  1.0
  H  H387  1  0.128800  0.808400  0.549900  1.0
  H  H388  1  0.371200  0.191600  0.049900  1.0
  H  H389  1  0.628800  0.691600  0.450100  1.0
  H  H390  1  0.128800  0.691600  0.049900  1.0
  H  H391  1  0.871200  0.191600  0.450100  1.0
  H  H392  1  0.628800  0.808400  0.950100  1.0
  H  H393  1  0.439200  0.215600  0.526800  1.0
  H  H394  1  0.939200  0.215600  0.973200  1.0
  H  H395  1  0.060800  0.715600  0.526800  1.0
  H  H396  1  0.439200  0.284400  0.026800  1.0
  H  H397  1  0.560800  0.784400  0.473200  1.0
  H  H398  1  0.060800  0.784400  0.026800  1.0
  H  H399  1  0.939200  0.284400  0.473200  1.0
  H  H400  1  0.560800  0.715600  0.973200  1.0
  H  H401  1  0.478100  0.249900  0.573900  1.0
  H  H402  1  0.978100  0.249900  0.926100  1.0
  H  H403  1  0.021900  0.749900  0.573900  1.0
  H  H404  1  0.478100  0.250100  0.073900  1.0
  H  H405  1  0.521900  0.750100  0.426100  1.0
  H  H406  1  0.021900  0.750100  0.073900  1.0
  H  H407  1  0.978100  0.250100  0.426100  1.0
  H  H408  1  0.521900  0.749900  0.926100  1.0
  H  H409  1  0.515500  0.256100  0.518700  1.0
  H  H410  1  0.015500  0.256100  0.981300  1.0
  H  H411  1  0.984500  0.756100  0.518700  1.0
  H  H412  1  0.515500  0.243900  0.018700  1.0
  H  H413  1  0.484500  0.743900  0.481300  1.0
  H  H414  1  0.984500  0.743900  0.018700  1.0
  H  H415  1  0.015500  0.243900  0.481300  1.0
  H  H416  1  0.484500  0.756100  0.981300  1.0
  H  H417  1  0.502000  0.283700  0.424900  1.0
  H  H418  1  0.002000  0.283700  0.075100  1.0
  H  H419  1  0.998000  0.783700  0.424900  1.0
  H  H420  1  0.502000  0.216300  0.924900  1.0
  H  H421  1  0.498000  0.716300  0.575100  1.0
  H  H422  1  0.998000  0.716300  0.924900  1.0
  H  H423  1  0.002000  0.216300  0.575100  1.0
  H  H424  1  0.498000  0.783700  0.075100  1.0
  H  H425  1  0.455700  0.327800  0.387400  1.0
  H  H426  1  0.955700  0.327800  0.112600  1.0
  H  H427  1  0.044300  0.827800  0.387400  1.0
  H  H428  1  0.455700  0.172200  0.887400  1.0
  H  H429  1  0.544300  0.672200  0.612600  1.0
  H  H430  1  0.044300  0.672200  0.887400  1.0
  H  H431  1  0.955700  0.172200  0.612600  1.0
  H  H432  1  0.544300  0.827800  0.112600  1.0
  H  H433  1  0.496400  0.414000  0.434900  1.0
  H  H434  1  0.996400  0.414000  0.065100  1.0
  H  H435  1  0.003600  0.914000  0.434900  1.0
  H  H436  1  0.496400  0.086000  0.934900  1.0
  H  H437  1  0.503600  0.586000  0.565100  1.0
  H  H438  1  0.003600  0.586000  0.934900  1.0
  H  H439  1  0.996400  0.086000  0.565100  1.0
  H  H440  1  0.503600  0.914000  0.065100  1.0
  H  H441  1  0.568800  0.376200  0.413700  1.0
  H  H442  1  0.068800  0.376200  0.086300  1.0
  H  H443  1  0.931200  0.876200  0.413700  1.0
  H  H444  1  0.568800  0.123800  0.913700  1.0
  H  H445  1  0.431200  0.623800  0.586300  1.0
  H  H446  1  0.931200  0.623800  0.913700  1.0
  H  H447  1  0.068800  0.123800  0.586300  1.0
  H  H448  1  0.431200  0.876200  0.086300  1.0
  H  H449  1  0.543800  0.369400  0.471800  1.0
  H  H450  1  0.043800  0.369400  0.028200  1.0
  H  H451  1  0.956200  0.869400  0.471800  1.0
  H  H452  1  0.543800  0.130600  0.971800  1.0
  H  H453  1  0.456200  0.630600  0.528200  1.0
  H  H454  1  0.956200  0.630600  0.971800  1.0
  H  H455  1  0.043800  0.130600  0.528200  1.0
  H  H456  1  0.456200  0.869400  0.028200  1.0
  H  H457  1  0.289700  0.384000  0.482900  1.0
  H  H458  1  0.789700  0.384000  0.017100  1.0
  H  H459  1  0.210300  0.884000  0.482900  1.0
  H  H460  1  0.289700  0.116000  0.982900  1.0
  H  H461  1  0.710300  0.616000  0.517100  1.0
  H  H462  1  0.210300  0.616000  0.982900  1.0
  H  H463  1  0.789700  0.116000  0.517100  1.0
  H  H464  1  0.710300  0.884000  0.017100  1.0
  H  H465  1  0.369300  0.418300  0.470600  1.0
  H  H466  1  0.869300  0.418300  0.029400  1.0
  H  H467  1  0.130700  0.918300  0.470600  1.0
  H  H468  1  0.369300  0.081700  0.970600  1.0
  H  H469  1  0.630700  0.581700  0.529400  1.0
  H  H470  1  0.130700  0.581700  0.970600  1.0
  H  H471  1  0.869300  0.081700  0.529400  1.0
  H  H472  1  0.630700  0.918300  0.029400  1.0
  H  H473  1  0.347400  0.406000  0.383100  1.0
  H  H474  1  0.847400  0.406000  0.116900  1.0
  H  H475  1  0.152600  0.906000  0.383100  1.0
  H  H476  1  0.347400  0.094000  0.883100  1.0
  H  H477  1  0.652600  0.594000  0.616900  1.0
  H  H478  1  0.152600  0.594000  0.883100  1.0
  H  H479  1  0.847400  0.094000  0.616900  1.0
  H  H480  1  0.652600  0.906000  0.116900  1.0
  H  H481  1  0.275200  0.440600  0.408100  1.0
  H  H482  1  0.775200  0.440600  0.091900  1.0
  H  H483  1  0.224800  0.940600  0.408100  1.0
  H  H484  1  0.275200  0.059400  0.908100  1.0
  H  H485  1  0.724800  0.559400  0.591900  1.0
  H  H486  1  0.224800  0.559400  0.908100  1.0
  H  H487  1  0.775200  0.059400  0.591900  1.0
  H  H488  1  0.724800  0.940600  0.091900  1.0
  H  H489  1  0.269300  0.369100  0.394500  1.0
  H  H490  1  0.769300  0.369100  0.105500  1.0
  H  H491  1  0.230700  0.869100  0.394500  1.0
  H  H492  1  0.269300  0.130900  0.894500  1.0
  H  H493  1  0.730700  0.630900  0.605500  1.0
  H  H494  1  0.230700  0.630900  0.894500  1.0
  H  H495  1  0.769300  0.130900  0.605500  1.0
  H  H496  1  0.730700  0.869100  0.105500  1.0
  H  H497  1  0.234700  0.182400  0.317900  1.0
  H  H498  1  0.734700  0.182400  0.182100  1.0
  H  H499  1  0.265300  0.682400  0.317900  1.0
  H  H500  1  0.234700  0.317600  0.817900  1.0
  H  H501  1  0.765300  0.817600  0.682100  1.0
  H  H502  1  0.265300  0.817600  0.817900  1.0
  H  H503  1  0.734700  0.317600  0.682100  1.0
  H  H504  1  0.765300  0.682400  0.182100  1.0
  H  H505  1  0.157400  0.144900  0.330300  1.0
  H  H506  1  0.657400  0.144900  0.169700  1.0
  H  H507  1  0.342600  0.644900  0.330300  1.0
  H  H508  1  0.157400  0.355100  0.830300  1.0
  H  H509  1  0.842600  0.855100  0.669700  1.0
  H  H510  1  0.342600  0.855100  0.830300  1.0
  H  H511  1  0.657400  0.355100  0.669700  1.0
  H  H512  1  0.842600  0.644900  0.169700  1.0
  H  H513  1  0.105600  0.233600  0.370900  1.0
  H  H514  1  0.605600  0.233600  0.129100  1.0
  H  H515  1  0.394400  0.733600  0.370900  1.0
  H  H516  1  0.105600  0.266400  0.870900  1.0
  H  H517  1  0.894400  0.766400  0.629100  1.0
  H  H518  1  0.394400  0.766400  0.870900  1.0
  H  H519  1  0.605600  0.266400  0.629100  1.0
  H  H520  1  0.894400  0.733600  0.129100  1.0
  H  H521  1  0.125700  0.247900  0.312900  1.0
  H  H522  1  0.625700  0.247900  0.187100  1.0
  H  H523  1  0.374300  0.747900  0.312900  1.0
  H  H524  1  0.125700  0.252100  0.812900  1.0
  H  H525  1  0.874300  0.752100  0.687100  1.0
  H  H526  1  0.374300  0.752100  0.812900  1.0
  H  H527  1  0.625700  0.252100  0.687100  1.0
  H  H528  1  0.874300  0.747900  0.187100  1.0
  H  H529  1  0.182400  0.270900  0.356900  1.0
  H  H530  1  0.682400  0.270900  0.143100  1.0
  H  H531  1  0.317600  0.770900  0.356900  1.0
  H  H532  1  0.182400  0.229100  0.856900  1.0
  H  H533  1  0.817600  0.729100  0.643100  1.0
  H  H534  1  0.317600  0.729100  0.856900  1.0
  H  H535  1  0.682400  0.229100  0.643100  1.0
  H  H536  1  0.817600  0.770900  0.143100  1.0
  H  H537  1  0.251600  0.054200  0.372900  1.0
  H  H538  1  0.751600  0.054200  0.127100  1.0
  H  H539  1  0.248400  0.554200  0.372900  1.0
  H  H540  1  0.251600  0.445800  0.872900  1.0
  H  H541  1  0.748400  0.945800  0.627100  1.0
  H  H542  1  0.248400  0.945800  0.872900  1.0
  H  H543  1  0.751600  0.445800  0.627100  1.0
  H  H544  1  0.748400  0.554200  0.127100  1.0
  H  H545  1  0.329600  0.093000  0.367000  1.0
  H  H546  1  0.829600  0.093000  0.133000  1.0
  H  H547  1  0.170400  0.593000  0.367000  1.0
  H  H548  1  0.329600  0.407000  0.867000  1.0
  H  H549  1  0.670400  0.907000  0.633000  1.0
  H  H550  1  0.170400  0.907000  0.867000  1.0
  H  H551  1  0.829600  0.407000  0.633000  1.0
  H  H552  1  0.670400  0.593000  0.133000  1.0
  H  H553  1  0.353000  0.082600  0.455000  1.0
  H  H554  1  0.853000  0.082600  0.045000  1.0
  H  H555  1  0.147000  0.582600  0.455000  1.0
  H  H556  1  0.353000  0.417400  0.955000  1.0
  H  H557  1  0.647000  0.917400  0.545000  1.0
  H  H558  1  0.147000  0.917400  0.955000  1.0
  H  H559  1  0.853000  0.417400  0.545000  1.0
  H  H560  1  0.647000  0.582600  0.045000  1.0
  H  H561  1  0.346400  0.016400  0.428900  1.0
  H  H562  1  0.846400  0.016400  0.071100  1.0
  H  H563  1  0.153600  0.516400  0.428900  1.0
  H  H564  1  0.346400  0.483600  0.928900  1.0
  H  H565  1  0.653600  0.983600  0.571100  1.0
  H  H566  1  0.153600  0.983600  0.928900  1.0
  H  H567  1  0.846400  0.483600  0.571100  1.0
  H  H568  1  0.653600  0.516400  0.071100  1.0
  H  H569  1  0.275300  0.043400  0.460700  1.0
  H  H570  1  0.775300  0.043400  0.039300  1.0
  H  H571  1  0.224700  0.543400  0.460700  1.0
  H  H572  1  0.275300  0.456600  0.960700  1.0
  H  H573  1  0.724700  0.956600  0.539300  1.0
  H  H574  1  0.224700  0.956600  0.960700  1.0
  H  H575  1  0.775300  0.456600  0.539300  1.0
  H  H576  1  0.724700  0.543400  0.039300  1.0
  H  H577  1  0.170500  0.119400  0.476100  1.0
  H  H578  1  0.670500  0.119400  0.023900  1.0
  H  H579  1  0.329500  0.619400  0.476100  1.0
  H  H580  1  0.170500  0.380600  0.976100  1.0
  H  H581  1  0.829500  0.880600  0.523900  1.0
  H  H582  1  0.329500  0.880600  0.976100  1.0
  H  H583  1  0.670500  0.380600  0.523900  1.0
  H  H584  1  0.829500  0.619400  0.023900  1.0
  H  H585  1  0.115900  0.165600  0.445700  1.0
  H  H586  1  0.615900  0.165600  0.054300  1.0
  H  H587  1  0.384100  0.665600  0.445700  1.0
  H  H588  1  0.115900  0.334400  0.945700  1.0
  H  H589  1  0.884100  0.834400  0.554300  1.0
  H  H590  1  0.384100  0.834400  0.945700  1.0
  H  H591  1  0.615900  0.334400  0.554300  1.0
  H  H592  1  0.884100  0.665600  0.054300  1.0
  H  H593  1  0.089600  0.083300  0.386000  1.0
  H  H594  1  0.589600  0.083300  0.114000  1.0
  H  H595  1  0.410400  0.583300  0.386000  1.0
  H  H596  1  0.089600  0.416700  0.886000  1.0
  H  H597  1  0.910400  0.916700  0.614000  1.0
  H  H598  1  0.410400  0.916700  0.886000  1.0
  H  H599  1  0.589600  0.416700  0.614000  1.0
  H  H600  1  0.910400  0.583300  0.114000  1.0
  H  H601  1  0.057800  0.069500  0.441800  1.0
  H  H602  1  0.557800  0.069500  0.058200  1.0
  H  H603  1  0.442200  0.569500  0.441800  1.0
  H  H604  1  0.057800  0.430500  0.941800  1.0
  H  H605  1  0.942200  0.930500  0.558200  1.0
  H  H606  1  0.442200  0.930500  0.941800  1.0
  H  H607  1  0.557800  0.430500  0.558200  1.0
  H  H608  1  0.942200  0.569500  0.058200  1.0
  H  H609  1  0.136100  0.037900  0.422700  1.0
  H  H610  1  0.636100  0.037900  0.077300  1.0
  H  H611  1  0.363900  0.537900  0.422700  1.0
  H  H612  1  0.136100  0.462100  0.922700  1.0
  H  H613  1  0.863900  0.962100  0.577300  1.0
  H  H614  1  0.363900  0.962100  0.922700  1.0
  H  H615  1  0.636100  0.462100  0.577300  1.0
  H  H616  1  0.863900  0.537900  0.077300  1.0
  Pt  Pt617  1  0.626998  0.983815  0.321815  1.0
  Pt  Pt618  1  0.126998  0.983815  0.178185  1.0
  Pt  Pt619  1  0.873002  0.483815  0.321815  1.0
  Pt  Pt620  1  0.626998  0.516185  0.821815  1.0
  Pt  Pt621  1  0.373002  0.016185  0.678185  1.0
  Pt  Pt622  1  0.873002  0.016185  0.821815  1.0
  Pt  Pt623  1  0.126998  0.516185  0.678185  1.0
  Pt  Pt624  1  0.373002  0.483815  0.178185  1.0
  Pt  Pt625  1  0.310768  0.230533  0.435047  1.0
  Pt  Pt626  1  0.810768  0.230533  0.064953  1.0
  Pt  Pt627  1  0.189232  0.730533  0.435047  1.0
  Pt  Pt628  1  0.310768  0.269467  0.935047  1.0
  Pt  Pt629  1  0.689232  0.769467  0.564953  1.0
  Pt  Pt630  1  0.189232  0.769467  0.935047  1.0
  Pt  Pt631  1  0.810768  0.269467  0.564953  1.0
  Pt  Pt632  1  0.689232  0.730533  0.064953  1.0
  C  C633  1  0.559400  0.086250  0.264990  1.0
  C  C634  1  0.059400  0.086250  0.235010  1.0
  C  C635  1  0.940600  0.586250  0.264990  1.0
  C  C636  1  0.559400  0.413750  0.764990  1.0
  C  C637  1  0.440600  0.913750  0.735010  1.0
  C  C638  1  0.940600  0.913750  0.764990  1.0
  C  C639  1  0.059400  0.413750  0.735010  1.0
  C  C640  1  0.440600  0.586250  0.235010  1.0
  C  C641  1  0.503400  0.139280  0.255330  1.0
  C  C642  1  0.003400  0.139280  0.244670  1.0
  C  C643  1  0.996600  0.639280  0.255330  1.0
  C  C644  1  0.503400  0.360720  0.755330  1.0
  C  C645  1  0.496600  0.860720  0.744670  1.0
  C  C646  1  0.996600  0.860720  0.755330  1.0
  C  C647  1  0.003400  0.360720  0.744670  1.0
  C  C648  1  0.496600  0.639280  0.244670  1.0
  C  C649  1  0.488700  0.157240  0.205760  1.0
  C  C650  1  0.988700  0.157240  0.294240  1.0
  C  C651  1  0.011300  0.657240  0.205760  1.0
  C  C652  1  0.488700  0.342760  0.705760  1.0
  C  C653  1  0.511300  0.842760  0.794240  1.0
  C  C654  1  0.011300  0.842760  0.705760  1.0
  C  C655  1  0.988700  0.342760  0.794240  1.0
  C  C656  1  0.511300  0.657240  0.294240  1.0
  C  C657  1  0.436600  0.203560  0.196720  1.0
  C  C658  1  0.936600  0.203560  0.303280  1.0
  C  C659  1  0.063400  0.703560  0.196720  1.0
  C  C660  1  0.436600  0.296440  0.696720  1.0
  C  C661  1  0.563400  0.796440  0.803280  1.0
  C  C662  1  0.063400  0.796440  0.696720  1.0
  C  C663  1  0.936600  0.296440  0.803280  1.0
  C  C664  1  0.563400  0.703560  0.303280  1.0
  C  C665  1  0.401100  0.231280  0.237490  1.0
  C  C666  1  0.901100  0.231280  0.262510  1.0
  C  C667  1  0.098900  0.731280  0.237490  1.0
  C  C668  1  0.401100  0.268720  0.737490  1.0
  C  C669  1  0.598900  0.768720  0.762510  1.0
  C  C670  1  0.098900  0.768720  0.737490  1.0
  C  C671  1  0.901100  0.268720  0.762510  1.0
  C  C672  1  0.598900  0.731280  0.262510  1.0
  C  C673  1  0.418600  0.211340  0.285980  1.0
  C  C674  1  0.918600  0.211340  0.214020  1.0
  C  C675  1  0.081400  0.711340  0.285980  1.0
  C  C676  1  0.418600  0.288660  0.785980  1.0
  C  C677  1  0.581400  0.788660  0.714020  1.0
  C  C678  1  0.081400  0.788660  0.785980  1.0
  C  C679  1  0.918600  0.288660  0.714020  1.0
  C  C680  1  0.581400  0.711340  0.214020  1.0
  C  C681  1  0.377700  0.240240  0.330860  1.0
  C  C682  1  0.877700  0.240240  0.169140  1.0
  C  C683  1  0.122300  0.740240  0.330860  1.0
  C  C684  1  0.377700  0.259760  0.830860  1.0
  C  C685  1  0.622300  0.759760  0.669140  1.0
  C  C686  1  0.122300  0.759760  0.830860  1.0
  C  C687  1  0.877700  0.259760  0.669140  1.0
  C  C688  1  0.622300  0.740240  0.169140  1.0
  C  C689  1  0.245400  0.239750  0.497300  1.0
  C  C690  1  0.745400  0.239750  0.002700  1.0
  C  C691  1  0.254600  0.739750  0.497300  1.0
  C  C692  1  0.245400  0.260250  0.997300  1.0
  C  C693  1  0.754600  0.760250  0.502700  1.0
  C  C694  1  0.254600  0.760250  0.997300  1.0
  C  C695  1  0.745400  0.260250  0.502700  1.0
  C  C696  1  0.754600  0.739750  0.002700  1.0
  C  C697  1  0.182000  0.281190  0.500410  1.0
  C  C698  1  0.682000  0.281190  0.999590  1.0
  C  C699  1  0.318000  0.781190  0.500410  1.0
  C  C700  1  0.182000  0.218810  0.000410  1.0
  C  C701  1  0.818000  0.718810  0.499590  1.0
  C  C702  1  0.318000  0.718810  0.000410  1.0
  C  C703  1  0.682000  0.218810  0.499590  1.0
  C  C704  1  0.818000  0.781190  0.999590  1.0
  C  C705  1  0.141200  0.288880  0.544590  1.0
  C  C706  1  0.641200  0.288880  0.955410  1.0
  C  C707  1  0.358800  0.788880  0.544590  1.0
  C  C708  1  0.141200  0.211120  0.044590  1.0
  C  C709  1  0.858800  0.711120  0.455410  1.0
  C  C710  1  0.358800  0.711120  0.044590  1.0
  C  C711  1  0.641200  0.211120  0.455410  1.0
  C  C712  1  0.858800  0.788880  0.955410  1.0
  C  C713  1  0.160900  0.256380  0.588950  1.0
  C  C714  1  0.660900  0.256380  0.911050  1.0
  C  C715  1  0.339100  0.756380  0.588950  1.0
  C  C716  1  0.160900  0.243620  0.088950  1.0
  C  C717  1  0.839100  0.743620  0.411050  1.0
  C  C718  1  0.339100  0.743620  0.088950  1.0
  C  C719  1  0.660900  0.243620  0.411050  1.0
  C  C720  1  0.839100  0.756380  0.911050  1.0
  C  C721  1  0.122900  0.268170  0.636110  1.0
  C  C722  1  0.622900  0.268170  0.863890  1.0
  C  C723  1  0.377100  0.768170  0.636110  1.0
  C  C724  1  0.122900  0.231830  0.136110  1.0
  C  C725  1  0.877100  0.731830  0.363890  1.0
  C  C726  1  0.377100  0.731830  0.136110  1.0
  C  C727  1  0.622900  0.231830  0.363890  1.0
  C  C728  1  0.877100  0.768170  0.863890  1.0
  C  C729  1  0.145600  0.239570  0.678620  1.0
  C  C730  1  0.645600  0.239570  0.821380  1.0
  C  C731  1  0.354400  0.739570  0.678620  1.0
  C  C732  1  0.145600  0.260430  0.178620  1.0
  C  C733  1  0.854400  0.760430  0.321380  1.0
  C  C734  1  0.354400  0.760430  0.178620  1.0
  C  C735  1  0.645600  0.260430  0.321380  1.0
  C  C736  1  0.854400  0.739570  0.821380  1.0
  C  C737  1  0.205500  0.193990  0.677940  1.0
  C  C738  1  0.705500  0.193990  0.822060  1.0
  C  C739  1  0.294500  0.693990  0.677940  1.0
  C  C740  1  0.205500  0.306010  0.177940  1.0
  C  C741  1  0.794500  0.806010  0.322060  1.0
  C  C742  1  0.294500  0.806010  0.177940  1.0
  C  C743  1  0.705500  0.306010  0.322060  1.0
  C  C744  1  0.794500  0.693990  0.822060  1.0
  C  C745  1  0.227800  0.163000  0.722870  1.0
  C  C746  1  0.727800  0.163000  0.777130  1.0
  C  C747  1  0.272200  0.663000  0.722870  1.0
  C  C748  1  0.227800  0.337000  0.222870  1.0
  C  C749  1  0.772200  0.837000  0.277130  1.0
  C  C750  1  0.272200  0.837000  0.222870  1.0
  C  C751  1  0.727800  0.337000  0.277130  1.0
  C  C752  1  0.772200  0.663000  0.777130  1.0
  C  C753  1  0.279900  0.115170  0.721550  1.0
  C  C754  1  0.779900  0.115170  0.778450  1.0
  C  C755  1  0.220100  0.615170  0.721550  1.0
  C  C756  1  0.279900  0.384830  0.221550  1.0
  C  C757  1  0.720100  0.884830  0.278450  1.0
  C  C758  1  0.220100  0.884830  0.221550  1.0
  C  C759  1  0.779900  0.384830  0.278450  1.0
  C  C760  1  0.720100  0.615170  0.778450  1.0
  C  C761  1  0.688000  0.905090  0.324890  1.0
  C  C762  1  0.188000  0.905090  0.175110  1.0
  C  C763  1  0.812000  0.405090  0.324890  1.0
  C  C764  1  0.688000  0.594910  0.824890  1.0
  C  C765  1  0.312000  0.094910  0.675110  1.0
  C  C766  1  0.812000  0.094910  0.824890  1.0
  C  C767  1  0.188000  0.594910  0.675110  1.0
  C  C768  1  0.312000  0.405090  0.175110  1.0
  C  C769  1  0.706400  0.872190  0.368140  1.0
  C  C770  1  0.206400  0.872190  0.131860  1.0
  C  C771  1  0.793600  0.372190  0.368140  1.0
  C  C772  1  0.706400  0.627810  0.868140  1.0
  C  C773  1  0.293600  0.127810  0.631860  1.0
  C  C774  1  0.793600  0.127810  0.868140  1.0
  C  C775  1  0.206400  0.627810  0.631860  1.0
  C  C776  1  0.293600  0.372190  0.131860  1.0
  C  C777  1  0.241300  0.177990  0.632030  1.0
  C  C778  1  0.741300  0.177990  0.867970  1.0
  C  C779  1  0.258700  0.677990  0.632030  1.0
  C  C780  1  0.241300  0.322010  0.132030  1.0
  C  C781  1  0.758700  0.822010  0.367970  1.0
  C  C782  1  0.258700  0.822010  0.132030  1.0
  C  C783  1  0.741300  0.322010  0.367970  1.0
  C  C784  1  0.758700  0.677990  0.867970  1.0
  C  C785  1  0.221800  0.212280  0.586640  1.0
  C  C786  1  0.721800  0.212280  0.913360  1.0
  C  C787  1  0.278200  0.712280  0.586640  1.0
  C  C788  1  0.221800  0.287720  0.086640  1.0
  C  C789  1  0.778200  0.787720  0.413360  1.0
  C  C790  1  0.278200  0.787720  0.086640  1.0
  C  C791  1  0.721800  0.287720  0.413360  1.0
  C  C792  1  0.778200  0.712280  0.913360  1.0
  C  C793  1  0.262200  0.205880  0.540450  1.0
  C  C794  1  0.762200  0.205880  0.959550  1.0
  C  C795  1  0.237800  0.705880  0.540450  1.0
  C  C796  1  0.262200  0.294120  0.040450  1.0
  C  C797  1  0.737800  0.794120  0.459550  1.0
  C  C798  1  0.237800  0.794120  0.040450  1.0
  C  C799  1  0.762200  0.294120  0.459550  1.0
  C  C800  1  0.737800  0.705880  0.959550  1.0
  C  C801  1  0.760800  0.101770  0.305580  1.0
  C  C802  1  0.260800  0.101770  0.194420  1.0
  C  C803  1  0.739200  0.601770  0.305580  1.0
  C  C804  1  0.760800  0.398230  0.805580  1.0
  C  C805  1  0.239200  0.898230  0.694420  1.0
  C  C806  1  0.739200  0.898230  0.805580  1.0
  C  C807  1  0.260800  0.398230  0.694420  1.0
  C  C808  1  0.239200  0.601770  0.194420  1.0
  C  C809  1  0.792300  0.077300  0.255530  1.0
  C  C810  1  0.292300  0.077300  0.244470  1.0
  C  C811  1  0.707700  0.577300  0.255530  1.0
  C  C812  1  0.792300  0.422700  0.755530  1.0
  C  C813  1  0.207700  0.922700  0.744470  1.0
  C  C814  1  0.707700  0.922700  0.755530  1.0
  C  C815  1  0.292300  0.422700  0.744470  1.0
  C  C816  1  0.207700  0.577300  0.244470  1.0
  C  C817  1  0.819500  0.998000  0.363000  1.0
  C  C818  1  0.319500  0.998000  0.137000  1.0
  C  C819  1  0.680500  0.498000  0.363000  1.0
  C  C820  1  0.819500  0.502000  0.863000  1.0
  C  C821  1  0.180500  0.002000  0.637000  1.0
  C  C822  1  0.680500  0.002000  0.863000  1.0
  C  C823  1  0.319500  0.502000  0.637000  1.0
  C  C824  1  0.180500  0.498000  0.137000  1.0
  C  C825  1  0.887400  0.036700  0.381500  1.0
  C  C826  1  0.387400  0.036700  0.118500  1.0
  C  C827  1  0.612600  0.536700  0.381500  1.0
  C  C828  1  0.887400  0.463300  0.881500  1.0
  C  C829  1  0.112600  0.963300  0.618500  1.0
  C  C830  1  0.612600  0.963300  0.881500  1.0
  C  C831  1  0.387400  0.463300  0.618500  1.0
  C  C832  1  0.112600  0.536700  0.118500  1.0
  C  C833  1  0.705500  0.081600  0.405120  1.0
  C  C834  1  0.205500  0.081600  0.094880  1.0
  C  C835  1  0.794500  0.581600  0.405120  1.0
  C  C836  1  0.705500  0.418400  0.905120  1.0
  C  C837  1  0.294500  0.918400  0.594880  1.0
  C  C838  1  0.794500  0.918400  0.905120  1.0
  C  C839  1  0.205500  0.418400  0.594880  1.0
  C  C840  1  0.294500  0.581600  0.094880  1.0
  C  C841  1  0.684900  0.039700  0.449580  1.0
  C  C842  1  0.184900  0.039700  0.050420  1.0
  C  C843  1  0.815100  0.539700  0.449580  1.0
  C  C844  1  0.684900  0.460300  0.949580  1.0
  C  C845  1  0.315100  0.960300  0.550420  1.0
  C  C846  1  0.815100  0.960300  0.949580  1.0
  C  C847  1  0.184900  0.460300  0.550420  1.0
  C  C848  1  0.315100  0.539700  0.050420  1.0
  C  C849  1  0.501700  0.874700  0.366500  1.0
  C  C850  1  0.001700  0.874700  0.133500  1.0
  C  C851  1  0.998300  0.374700  0.366500  1.0
  C  C852  1  0.501700  0.625300  0.866500  1.0
  C  C853  1  0.498300  0.125300  0.633500  1.0
  C  C854  1  0.998300  0.125300  0.866500  1.0
  C  C855  1  0.001700  0.625300  0.633500  1.0
  C  C856  1  0.498300  0.374700  0.133500  1.0
  C  C857  1  0.497600  0.906400  0.418400  1.0
  C  C858  1  0.997600  0.906400  0.081600  1.0
  C  C859  1  0.002400  0.406400  0.418400  1.0
  C  C860  1  0.497600  0.593600  0.918400  1.0
  C  C861  1  0.502400  0.093600  0.581600  1.0
  C  C862  1  0.002400  0.093600  0.918400  1.0
  C  C863  1  0.997600  0.593600  0.581600  1.0
  C  C864  1  0.502400  0.406400  0.081600  1.0
  C  C865  1  0.429300  0.977260  0.317150  1.0
  C  C866  1  0.929300  0.977260  0.182850  1.0
  C  C867  1  0.070700  0.477260  0.317150  1.0
  C  C868  1  0.429300  0.522740  0.817150  1.0
  C  C869  1  0.570700  0.022740  0.682850  1.0
  C  C870  1  0.070700  0.022740  0.817150  1.0
  C  C871  1  0.929300  0.522740  0.682850  1.0
  C  C872  1  0.570700  0.477260  0.182850  1.0
  C  C873  1  0.353500  0.942700  0.318300  1.0
  C  C874  1  0.853500  0.942700  0.181700  1.0
  C  C875  1  0.146500  0.442700  0.318300  1.0
  C  C876  1  0.353500  0.557300  0.818300  1.0
  C  C877  1  0.646500  0.057300  0.681700  1.0
  C  C878  1  0.146500  0.057300  0.818300  1.0
  C  C879  1  0.853500  0.557300  0.681700  1.0
  C  C880  1  0.646500  0.442700  0.181700  1.0
  C  C881  1  0.505700  0.881300  0.258000  1.0
  C  C882  1  0.005700  0.881300  0.242000  1.0
  C  C883  1  0.994300  0.381300  0.258000  1.0
  C  C884  1  0.505700  0.618700  0.758000  1.0
  C  C885  1  0.494300  0.118700  0.742000  1.0
  C  C886  1  0.994300  0.118700  0.758000  1.0
  C  C887  1  0.005700  0.618700  0.742000  1.0
  C  C888  1  0.494300  0.381300  0.242000  1.0
  C  C889  1  0.502400  0.917700  0.209900  1.0
  C  C890  1  0.002400  0.917700  0.290100  1.0
  C  C891  1  0.997600  0.417700  0.209900  1.0
  C  C892  1  0.502400  0.582300  0.709900  1.0
  C  C893  1  0.497600  0.082300  0.790100  1.0
  C  C894  1  0.997600  0.082300  0.709900  1.0
  C  C895  1  0.002400  0.582300  0.790100  1.0
  C  C896  1  0.497600  0.417700  0.290100  1.0
  C  C897  1  0.416900  0.309200  0.527300  1.0
  C  C898  1  0.916900  0.309200  0.972700  1.0
  C  C899  1  0.083100  0.809200  0.527300  1.0
  C  C900  1  0.416900  0.190800  0.027300  1.0
  C  C901  1  0.583100  0.690800  0.472700  1.0
  C  C902  1  0.083100  0.690800  0.027300  1.0
  C  C903  1  0.916900  0.190800  0.472700  1.0
  C  C904  1  0.583100  0.809200  0.972700  1.0
  C  C905  1  0.466900  0.252600  0.537610  1.0
  C  C906  1  0.966900  0.252600  0.962390  1.0
  C  C907  1  0.033100  0.752600  0.537610  1.0
  C  C908  1  0.466900  0.247400  0.037610  1.0
  C  C909  1  0.533100  0.747400  0.462390  1.0
  C  C910  1  0.033100  0.747400  0.037610  1.0
  C  C911  1  0.966900  0.247400  0.462390  1.0
  C  C912  1  0.533100  0.752600  0.962390  1.0
  C  C913  1  0.471700  0.322310  0.423130  1.0
  C  C914  1  0.971700  0.322310  0.076870  1.0
  C  C915  1  0.028300  0.822310  0.423130  1.0
  C  C916  1  0.471700  0.177690  0.923130  1.0
  C  C917  1  0.528300  0.677690  0.576870  1.0
  C  C918  1  0.028300  0.677690  0.923130  1.0
  C  C919  1  0.971700  0.177690  0.576870  1.0
  C  C920  1  0.528300  0.822310  0.076870  1.0
  C  C921  1  0.524900  0.375200  0.437120  1.0
  C  C922  1  0.024900  0.375200  0.062880  1.0
  C  C923  1  0.975100  0.875200  0.437120  1.0
  C  C924  1  0.524900  0.124800  0.937120  1.0
  C  C925  1  0.475100  0.624800  0.562880  1.0
  C  C926  1  0.975100  0.624800  0.937120  1.0
  C  C927  1  0.024900  0.124800  0.562880  1.0
  C  C928  1  0.475100  0.875200  0.062880  1.0
  C  C929  1  0.333800  0.385450  0.459060  1.0
  C  C930  1  0.833800  0.385450  0.040940  1.0
  C  C931  1  0.166200  0.885450  0.459060  1.0
  C  C932  1  0.333800  0.114550  0.959060  1.0
  C  C933  1  0.666200  0.614550  0.540940  1.0
  C  C934  1  0.166200  0.614550  0.959060  1.0
  C  C935  1  0.833800  0.114550  0.540940  1.0
  C  C936  1  0.666200  0.885450  0.040940  1.0
  C  C937  1  0.303800  0.401700  0.406500  1.0
  C  C938  1  0.803800  0.401700  0.093500  1.0
  C  C939  1  0.196200  0.901700  0.406500  1.0
  C  C940  1  0.303800  0.098300  0.906500  1.0
  C  C941  1  0.696200  0.598300  0.593500  1.0
  C  C942  1  0.196200  0.598300  0.906500  1.0
  C  C943  1  0.803800  0.098300  0.593500  1.0
  C  C944  1  0.696200  0.901700  0.093500  1.0
  C  C945  1  0.192300  0.177640  0.342800  1.0
  C  C946  1  0.692300  0.177640  0.157200  1.0
  C  C947  1  0.307700  0.677640  0.342800  1.0
  C  C948  1  0.192300  0.322360  0.842800  1.0
  C  C949  1  0.807700  0.822360  0.657200  1.0
  C  C950  1  0.307700  0.822360  0.842800  1.0
  C  C951  1  0.692300  0.322360  0.657200  1.0
  C  C952  1  0.807700  0.677640  0.157200  1.0
  C  C953  1  0.147500  0.237900  0.346200  1.0
  C  C954  1  0.647500  0.237900  0.153800  1.0
  C  C955  1  0.352500  0.737900  0.346200  1.0
  C  C956  1  0.147500  0.262100  0.846200  1.0
  C  C957  1  0.852500  0.762100  0.653800  1.0
  C  C958  1  0.352500  0.762100  0.846200  1.0
  C  C959  1  0.647500  0.262100  0.653800  1.0
  C  C960  1  0.852500  0.737900  0.153800  1.0
  C  C961  1  0.286300  0.083600  0.390240  1.0
  C  C962  1  0.786300  0.083600  0.109760  1.0
  C  C963  1  0.213700  0.583600  0.390240  1.0
  C  C964  1  0.286300  0.416400  0.890240  1.0
  C  C965  1  0.713700  0.916400  0.609760  1.0
  C  C966  1  0.213700  0.916400  0.890240  1.0
  C  C967  1  0.786300  0.416400  0.609760  1.0
  C  C968  1  0.713700  0.583600  0.109760  1.0
  C  C969  1  0.318100  0.053900  0.437920  1.0
  C  C970  1  0.818100  0.053900  0.062080  1.0
  C  C971  1  0.181900  0.553900  0.437920  1.0
  C  C972  1  0.318100  0.446100  0.937920  1.0
  C  C973  1  0.681900  0.946100  0.562080  1.0
  C  C974  1  0.181900  0.946100  0.937920  1.0
  C  C975  1  0.818100  0.446100  0.562080  1.0
  C  C976  1  0.681900  0.553900  0.062080  1.0
  C  C977  1  0.151300  0.130140  0.441870  1.0
  C  C978  1  0.651300  0.130140  0.058130  1.0
  C  C979  1  0.348700  0.630140  0.441870  1.0
  C  C980  1  0.151300  0.369860  0.941870  1.0
  C  C981  1  0.848700  0.869860  0.558130  1.0
  C  C982  1  0.348700  0.869860  0.941870  1.0
  C  C983  1  0.651300  0.369860  0.558130  1.0
  C  C984  1  0.848700  0.630140  0.058130  1.0
  C  C985  1  0.104400  0.075200  0.421230  1.0
  C  C986  1  0.604400  0.075200  0.078770  1.0
  C  C987  1  0.395600  0.575200  0.421230  1.0
  C  C988  1  0.104400  0.424800  0.921230  1.0
  C  C989  1  0.895600  0.924800  0.578770  1.0
  C  C990  1  0.395600  0.924800  0.921230  1.0
  C  C991  1  0.604400  0.424800  0.578770  1.0
  C  C992  1  0.895600  0.575200  0.078770  1.0
  N  N993  1  0.468820  0.165550  0.295450  1.0
  N  N994  1  0.968820  0.165550  0.204550  1.0
  N  N995  1  0.031180  0.665550  0.295450  1.0
  N  N996  1  0.468820  0.334450  0.795450  1.0
  N  N997  1  0.531180  0.834450  0.704550  1.0
  N  N998  1  0.031180  0.834450  0.795450  1.0
  N  N999  1  0.968820  0.334450  0.704550  1.0
  N  N1000  1  0.531180  0.665550  0.204550  1.0
  O  O1001  1  0.491500  0.112050  0.403490  1
  O  O1002  1  0.991500  0.112050  0.096510  1
  O  O1003  1  0.008500  0.612050  0.403490  1
  O  O1004  1  0.491500  0.387950  0.903490  1
  O  O1005  1  0.508500  0.887950  0.596510  1
  O  O1006  1  0.008500  0.887950  0.903490  1
  O  O1007  1  0.991500  0.387950  0.596510  1
  O  O1008  1  0.508500  0.612050  0.096510  1
  O  O1009  1  0.565580  0.068840  0.311540  1.0
  O  O1010  1  0.065580  0.068840  0.188460  1.0
  O  O1011  1  0.934420  0.568840  0.311540  1.0
  O  O1012  1  0.565580  0.431160  0.811540  1.0
  O  O1013  1  0.434420  0.931160  0.688460  1.0
  O  O1014  1  0.934420  0.931160  0.811540  1.0
  O  O1015  1  0.065580  0.431160  0.688460  1.0
  O  O1016  1  0.434420  0.568840  0.188460  1.0
  O  O1017  1  0.592850  0.063630  0.228450  1.0
  O  O1018  1  0.092850  0.063630  0.271550  1.0
  O  O1019  1  0.907150  0.563630  0.228450  1.0
  O  O1020  1  0.592850  0.436370  0.728450  1.0
  O  O1021  1  0.407150  0.936370  0.771550  1.0
  O  O1022  1  0.907150  0.936370  0.728450  1.0
  O  O1023  1  0.092850  0.436370  0.771550  1.0
  O  O1024  1  0.407150  0.563630  0.271550  1.0
  O  O1025  1  0.383580  0.210010  0.372260  1.0
  O  O1026  1  0.883580  0.210010  0.127740  1.0
  O  O1027  1  0.116420  0.710010  0.372260  1.0
  O  O1028  1  0.383580  0.289990  0.872260  1.0
  O  O1029  1  0.616420  0.789990  0.627740  1.0
  O  O1030  1  0.116420  0.789990  0.872260  1.0
  O  O1031  1  0.883580  0.289990  0.627740  1.0
  O  O1032  1  0.616420  0.710010  0.127740  1.0
  O  O1033  1  0.341720  0.288440  0.324520  1.0
  O  O1034  1  0.841720  0.288440  0.175480  1.0
  O  O1035  1  0.158280  0.788440  0.324520  1.0
  O  O1036  1  0.341720  0.211560  0.824520  1.0
  O  O1037  1  0.658280  0.711560  0.675480  1.0
  O  O1038  1  0.158280  0.711560  0.824520  1.0
  O  O1039  1  0.841720  0.211560  0.675480  1.0
  O  O1040  1  0.658280  0.788440  0.175480  1.0
