
#######################################################################
#
#                 Cambridge Crystallographic Data Centre
#                                CCDC 
#
#######################################################################
#
# If this CIF has been generated from an entry in the Cambridge 
# Structural Database, then it will include bibliographic, chemical, 
# crystal, experimental, refinement or atomic coordinate data resulting 
# from the CCDC's data processing and validation procedures.
#
#######################################################################

data_AVANAM
_chemical_formula_moiety         'C90 H142 N2 O8 P8 Pt4,2(H2 O1)'
_chemical_name_systematic        
"bis((\m~2~-Pyridine-2,6-dicarboxylato-O,O')-(\m~2~-phenanthrene-2,9-diyl))-octakis(triethylphosphine)-tetra-platinum dihydrate"
_symmetry_cell_setting           orthorhombic
_symmetry_space_group_name_H-M   'P b c a'
_symmetry_Int_Tables_number      61
_space_group_name_Hall           '-P 2ac 2ab'
loop_
_symmetry_equiv_pos_site_id
_symmetry_equiv_pos_as_xyz
1 x,y,z
2 1/2+x,y,1/2-z
3 1/2-x,1/2+y,z
4 x,1/2-y,1/2+z
5 -x,-y,-z
6 1/2-x,-y,1/2+z
7 1/2+x,1/2-y,-z
8 -x,1/2+y,1/2-z
_cell_length_a                   17.2967(2)
_cell_length_b                   21.7453(2)
_cell_length_c                   26.3952(3)
_cell_angle_alpha                90
_cell_angle_beta                 90
_cell_angle_gamma                90
_cell_volume                     9927.81
_exptl_crystal_colour            colorless
_exptl_crystal_description       prism
_cell_formula_units_Z            4
_exptl_crystal_recrystallization_method acetone/chloroform/dichloromethane
loop_
_atom_site_label
_atom_site_type_symbol
_atom_site_fract_x
_atom_site_fract_y
_atom_site_fract_z
Pt1 Pt 0.626998(8) -0.016185(6) 0.321815(6)
Pt2 Pt 0.310768(8) 0.230533(6) 0.435047(5)
P1 P 0.73164(6) 0.04028(5) 0.34770(4)
P2 P 0.51587(6) -0.07160(5) 0.31430(5)
P3 P 0.38461(6) 0.31221(5) 0.46124(4)
P4 P 0.23316(6) 0.15406(5) 0.40350(4)
O1 O 0.56558(16) 0.06884(11) 0.31154(10)
O2 O 0.59285(18) 0.06363(14) 0.22845(11)
O3 O 0.38358(15) 0.21001(12) 0.37226(10)
O4 O 0.34172(19) 0.28844(14) 0.32452(11)
N1 N 0.46882(17) 0.16555(13) 0.29545(12)
C1 C 0.5594(2) 0.08625(17) 0.26499(15)
C2 C 0.5034(2) 0.13928(16) 0.25533(14)
C3 C 0.4887(2) 0.15724(17) 0.20576(15)
H3 H 0.5145 0.1377 0.1784
C4 C 0.4366(2) 0.20356(18) 0.19672(15)
H4 H 0.4253 0.2162 0.1631
C5 C 0.4011(2) 0.23128(17) 0.23749(15)
H5 H 0.3650 0.2637 0.2324
C6 C 0.4186(2) 0.21134(17) 0.28598(14)
C7 C 0.3777(2) 0.24024(18) 0.33086(15)
C8 C 0.2454(2) 0.23975(17) 0.49730(14)
C9 C 0.1820(2) 0.28119(17) 0.50041(15)
H6 H 0.1675 0.3041 0.4713
C10 C 0.1412(2) 0.28888(18) 0.54459(15)
H7 H 0.0988 0.3167 0.5453
C11 C 0.1609(2) 0.25638(17) 0.58895(15)
C12 C 0.1229(2) 0.26817(17) 0.63611(15)
H8 H 0.0811 0.2965 0.6373
C13 C 0.1456(2) 0.23957(18) 0.67862(15)
H9 H 0.1214 0.2497 0.7098
C14 C 0.2055(2) 0.19399(17) 0.67794(14)
C15 C 0.2278(2) 0.16300(17) 0.72287(14)
H10 H 0.2065 0.1755 0.7544
C16 C 0.2799(2) 0.11517(17) 0.72155(15)
H11 H 0.2945 0.0955 0.7522
C17 C 0.6880(2) -0.09491(16) 0.32489(14)
C18 C 0.7064(2) -0.12781(16) 0.36814(14)
H12 H 0.6829 -0.1163 0.3993
C19 C 0.2413(2) 0.17799(16) 0.63203(14)
C20 C 0.2218(2) 0.21228(16) 0.58664(14)
C21 C 0.2622(2) 0.20588(16) 0.54045(14)
H13 H 0.3032 0.1768 0.5388
C22 C 0.7608(3) 0.10177(19) 0.30558(17)
H14 H 0.7159 0.1287 0.2988
H15 H 0.8011 0.1269 0.3224
C23 C 0.7923(3) 0.0773(2) 0.25553(19)
H16 H 0.8370 0.0508 0.2621
H17 H 0.8081 0.1118 0.2340
H18 H 0.7520 0.0535 0.2383
C24 C 0.8195(2) -0.0020(2) 0.3630(2)
H19 H 0.8070 -0.0328 0.3894
H20 H 0.8361 -0.0248 0.3324
C25 C 0.8874(3) 0.0367(2) 0.3815(2)
H21 H 0.9051 0.0637 0.3541
H22 H 0.9298 0.0096 0.3919
H23 H 0.8710 0.0617 0.4105
C26 C 0.7055(3) 0.0816(2) 0.40512(17)
H24 H 0.7493 0.1083 0.4152
H25 H 0.6608 0.1086 0.3977
C27 C 0.6849(4) 0.0397(3) 0.44958(19)
H26 H 0.6419 0.0128 0.4399
H27 H 0.6697 0.0648 0.4787
H28 H 0.7299 0.0146 0.4586
C28 C 0.5017(3) -0.1253(2) 0.3665(2)
H29 H 0.4531 -0.1484 0.3609
H30 H 0.5447 -0.1553 0.3668
C29 C 0.4976(4) -0.0936(3) 0.4184(2)
H31 H 0.5436 -0.0679 0.4232
H32 H 0.4955 -0.1248 0.4452
H33 H 0.4512 -0.0679 0.4201
C30 C 0.4293(2) -0.02274(19) 0.31715(18)
H34 H 0.4326 0.0033 0.3478
H35 H 0.4294 0.0049 0.2874
C31 C 0.3535(3) -0.0573(2) 0.3183(2)
H36 H 0.3477 -0.0810 0.2869
H37 H 0.3107 -0.0280 0.3212
H38 H 0.3528 -0.0853 0.3474
C32 C 0.5057(3) -0.1187(2) 0.2580(2)
H39 H 0.5499 -0.1475 0.2562
H40 H 0.4579 -0.1435 0.2610
C33 C 0.5024(4) -0.0823(3) 0.2099(2)
H41 H 0.4565 -0.0559 0.2102
H42 H 0.4995 -0.1105 0.1809
H43 H 0.5489 -0.0569 0.2069
C34 C 0.4169(3) 0.3092(2) 0.52730(16)
H44 H 0.4469 0.3468 0.5352
H45 H 0.3712 0.3084 0.5499
C35 C 0.4669(3) 0.2526(2) 0.53761(18)
H46 H 0.4392 0.2156 0.5268
H47 H 0.4781 0.2499 0.5739
H48 H 0.5155 0.2561 0.5187
C36 C 0.4717(2) 0.32231(19) 0.42313(16)
H49 H 0.5020 0.2837 0.4249
H50 H 0.4557 0.3278 0.3874
C37 C 0.5249(3) 0.3752(2) 0.43712(19)
H51 H 0.4964 0.4140 0.4349
H52 H 0.5688 0.3762 0.4137
H53 H 0.5438 0.3694 0.4718
C38 C 0.3338(3) 0.38545(19) 0.45906(18)
H54 H 0.2897 0.3840 0.4829
H55 H 0.3693 0.4183 0.4706
C39 C 0.3038(4) 0.4017(2) 0.4065(2)
H56 H 0.3474 0.4060 0.3831
H57 H 0.2752 0.4406 0.4081
H58 H 0.2693 0.3691 0.3945
C40 C 0.1923(3) 0.17764(19) 0.34280(16)
H59 H 0.2347 0.1824 0.3179
H60 H 0.1574 0.1449 0.3303
C41 C 0.1475(3) 0.2379(2) 0.34620(19)
H61 H 0.1056 0.2336 0.3709
H62 H 0.1257 0.2479 0.3129
H63 H 0.1824 0.2709 0.3569
C42 C 0.2863(2) 0.08360(18) 0.39024(16)
H64 H 0.2516 0.0542 0.3729
H65 H 0.3296 0.0930 0.3670
C43 C 0.3181(3) 0.0539(2) 0.43792(18)
H66 H 0.3530 0.0826 0.4550
H67 H 0.3464 0.0164 0.4289
H68 H 0.2753 0.0434 0.4607
C44 C 0.1513(3) 0.13014(19) 0.44187(17)
H69 H 0.1705 0.1194 0.4761
H70 H 0.1159 0.1656 0.4457
C45 C 0.1044(3) 0.0752(2) 0.42123(19)
H71 H 0.0896 0.0833 0.3860
H72 H 0.0578 0.0695 0.4418
H73 H 0.1361 0.0379 0.4227
C17D C 0.3120(2) 0.09491(16) 0.67511(14)
Pt1D Pt 0.373002(8) 0.016185(6) 0.678185(6)
P1D P 0.26836(6) -0.04028(5) 0.65230(4)
C22D C 0.2392(3) -0.10177(19) 0.69442(17)
H14D H 0.2841 -0.1287 0.7012
H15D H 0.1989 -0.1269 0.6776
C23D C 0.2077(3) -0.0773(2) 0.74447(19)
H16D H 0.1630 -0.0508 0.7379
H17D H 0.1919 -0.1118 0.7660
H18D H 0.2480 -0.0535 0.7617
C24D C 0.1805(2) 0.0020(2) 0.6370(2)
H19D H 0.1930 0.0328 0.6106
H20D H 0.1639 0.0248 0.6676
C25D C 0.1126(3) -0.0367(2) 0.6185(2)
H21D H 0.0949 -0.0637 0.6459
H22D H 0.0702 -0.0096 0.6081
H23D H 0.1290 -0.0617 0.5895
C26D C 0.2945(3) -0.0816(2) 0.59488(17)
H24D H 0.2507 -0.1083 0.5848
H25D H 0.3392 -0.1086 0.6023
C27D C 0.3151(4) -0.0397(3) 0.55042(19)
H26D H 0.3581 -0.0128 0.5601
H27D H 0.3303 -0.0648 0.5213
H28D H 0.2701 -0.0146 0.5414
P2D P 0.48413(6) 0.07160(5) 0.68570(5)
C28D C 0.4983(3) 0.1253(2) 0.6335(2)
H29D H 0.5469 0.1484 0.6391
H30D H 0.4553 0.1553 0.6332
C29D C 0.5024(4) 0.0936(3) 0.5816(2)
H31D H 0.4564 0.0679 0.5768
H32D H 0.5045 0.1248 0.5548
H33D H 0.5488 0.0679 0.5799
C30D C 0.5707(2) 0.02274(19) 0.68285(18)
H34D H 0.5674 -0.0033 0.6522
H35D H 0.5706 -0.0049 0.7126
C31D C 0.6465(3) 0.0573(2) 0.6817(2)
H36D H 0.6523 0.0810 0.7131
H37D H 0.6893 0.0280 0.6788
H38D H 0.6472 0.0853 0.6526
C32D C 0.4943(3) 0.1187(2) 0.7420(2)
H39D H 0.4501 0.1475 0.7438
H40D H 0.5421 0.1435 0.7390
C33D C 0.4976(4) 0.0823(3) 0.7901(2)
H41D H 0.5435 0.0559 0.7898
H42D H 0.5005 0.1105 0.8191
H43D H 0.4511 0.0569 0.7931
O1D O 0.43442(16) -0.06884(11) 0.68846(10)
C1D C 0.4406(2) -0.08625(17) 0.73501(15)
O2D O 0.40715(18) -0.06363(14) 0.77155(11)
C2D C 0.4966(2) -0.13928(16) 0.74467(14)
N1D N 0.53118(17) -0.16555(13) 0.70455(12)
C6D C 0.5814(2) -0.21134(17) 0.71402(14)
C5D C 0.5989(2) -0.23128(17) 0.76251(15)
C4D C 0.5634(2) -0.20356(18) 0.80328(15)
C3D C 0.5113(2) -0.15724(17) 0.79424(15)
H3D H 0.4855 -0.1377 0.8216
H4D H 0.5747 -0.2162 0.8369
H5D H 0.6350 -0.2637 0.7676
C7D C 0.6223(2) -0.24024(18) 0.66914(15)
O3D O 0.61642(15) -0.21001(12) 0.62774(10)
Pt2D Pt 0.689232(8) -0.230533(6) 0.564953(5)
P3D P 0.61539(6) -0.31221(5) 0.53876(4)
C34D C 0.5831(3) -0.3092(2) 0.47270(16)
H44D H 0.5531 -0.3468 0.4648
H45D H 0.6288 -0.3084 0.4501
C35D C 0.5331(3) -0.2526(2) 0.46239(18)
H46D H 0.5608 -0.2156 0.4732
H47D H 0.5219 -0.2499 0.4261
H48D H 0.4845 -0.2561 0.4813
C36D C 0.5283(2) -0.32231(19) 0.57687(16)
H49D H 0.4980 -0.2837 0.5751
H50D H 0.5443 -0.3278 0.6126
C37D C 0.4751(3) -0.3752(2) 0.56288(19)
H51D H 0.5036 -0.4140 0.5651
H52D H 0.4312 -0.3762 0.5863
H53D H 0.4562 -0.3694 0.5282
C38D C 0.6662(3) -0.38545(19) 0.54094(18)
H54D H 0.7103 -0.3840 0.5171
H55D H 0.6307 -0.4183 0.5294
C39D C 0.6962(4) -0.4017(2) 0.5935(2)
H56D H 0.6526 -0.4060 0.6169
H57D H 0.7248 -0.4406 0.5919
H58D H 0.7307 -0.3691 0.6055
P4D P 0.76684(6) -0.15406(5) 0.59650(4)
C40D C 0.8077(3) -0.17764(19) 0.65720(16)
H59D H 0.7653 -0.1824 0.6821
H60D H 0.8426 -0.1449 0.6697
C41D C 0.8525(3) -0.2379(2) 0.65380(19)
H61D H 0.8944 -0.2336 0.6291
H62D H 0.8743 -0.2479 0.6871
H63D H 0.8176 -0.2709 0.6431
C42D C 0.7137(2) -0.08360(18) 0.60976(16)
H64D H 0.7484 -0.0542 0.6271
H65D H 0.6704 -0.0930 0.6330
C43D C 0.6819(3) -0.0539(2) 0.56208(18)
H66D H 0.6470 -0.0826 0.5450
H67D H 0.6536 -0.0164 0.5711
H68D H 0.7247 -0.0434 0.5393
C44D C 0.8487(3) -0.13014(19) 0.55813(17)
H69D H 0.8295 -0.1194 0.5239
H70D H 0.8841 -0.1656 0.5543
C45D C 0.8956(3) -0.0752(2) 0.57877(19)
H71D H 0.9104 -0.0833 0.6140
H72D H 0.9422 -0.0695 0.5582
H73D H 0.8639 -0.0379 0.5773
C8D C 0.7546(2) -0.23975(17) 0.50270(14)
C9D C 0.8180(2) -0.28119(17) 0.49959(15)
H6D H 0.8325 -0.3041 0.5287
C10D C 0.8588(2) -0.28888(18) 0.45541(15)
H7D H 0.9012 -0.3167 0.4547
C11D C 0.8391(2) -0.25638(17) 0.41105(15)
C12D C 0.8771(2) -0.26817(17) 0.36389(15)
H8D H 0.9189 -0.2965 0.3627
C13D C 0.8544(2) -0.23957(18) 0.32138(15)
H9D H 0.8786 -0.2497 0.2902
C14D C 0.7945(2) -0.19399(17) 0.32206(14)
C15D C 0.7722(2) -0.16300(17) 0.27713(14)
H10D H 0.7935 -0.1755 0.2456
C16D C 0.7201(2) -0.11517(17) 0.27845(15)
H11D H 0.7055 -0.0955 0.2478
C19D C 0.7587(2) -0.17799(16) 0.36797(14)
C20D C 0.7782(2) -0.21228(16) 0.41336(14)
C21D C 0.7378(2) -0.20588(16) 0.45955(14)
H13D H 0.6968 -0.1768 0.4612
O4D O 0.65828(19) -0.28844(14) 0.67548(11)
C18D C 0.2936(2) 0.12781(16) 0.63186(14)
H12D H 0.3171 0.1163 0.6007
O5 O 0.4915(2) 0.11205(16) 0.40349(13)
H1 H 0.514(3) 0.103(2) 0.3766(11)
H2 H 0.464(4) 0.140(2) 0.390(3)
loop_
_geom_bond_atom_site_label_1
_geom_bond_atom_site_label_2
_geom_bond_site_symmetry_1
_geom_bond_site_symmetry_2
Pt1 P1 1_555 1_555
Pt2 P3 1_555 1_555
P1 C22 1_555 1_555
P2 Pt1 1_555 1_555
P3 C34 1_555 1_555
P4 Pt2 1_555 1_555
O1 Pt1 1_555 1_555
O2 C1 1_555 1_555
O3 Pt2 1_555 1_555
O4 C7 1_555 1_555
O5 H1 1_555 1_555
H2 O5 1_555 1_555
N1 C2 1_555 1_555
C1 O1 1_555 1_555
C2 C1 1_555 1_555
C3 C2 1_555 1_555
H3 C3 1_555 1_555
C4 C3 1_555 1_555
H4 C4 1_555 1_555
C5 C4 1_555 1_555
H5 C5 1_555 1_555
C6 N1 1_555 1_555
C7 O3 1_555 1_555
C8 Pt2 1_555 1_555
C9 C8 1_555 1_555
H6 C9 1_555 1_555
C10 C9 1_555 1_555
H7 C10 1_555 1_555
C11 C10 1_555 1_555
C12 C11 1_555 1_555
H8 C12 1_555 1_555
C13 C12 1_555 1_555
H9 C13 1_555 1_555
C14 C13 1_555 1_555
C15 C14 1_555 1_555
H10 C15 1_555 1_555
C16 C15 1_555 1_555
H11 C16 1_555 1_555
C17 Pt1 1_555 1_555
C18 C17 1_555 1_555
H12 C18 1_555 1_555
C19 C14 1_555 1_555
C20 C11 1_555 1_555
C21 C8 1_555 1_555
H13 C21 1_555 1_555
C22 H14 1_555 1_555
H15 C22 1_555 1_555
C23 C22 1_555 1_555
H16 C23 1_555 1_555
H17 C23 1_555 1_555
H18 C23 1_555 1_555
C24 P1 1_555 1_555
H19 C24 1_555 1_555
H20 C24 1_555 1_555
C25 C24 1_555 1_555
H21 C25 1_555 1_555
H22 C25 1_555 1_555
H23 C25 1_555 1_555
C26 P1 1_555 1_555
H24 C26 1_555 1_555
H25 C26 1_555 1_555
C27 C26 1_555 1_555
H26 C27 1_555 1_555
H27 C27 1_555 1_555
H28 C27 1_555 1_555
C28 P2 1_555 1_555
H29 C28 1_555 1_555
H30 C28 1_555 1_555
C29 C28 1_555 1_555
H31 C29 1_555 1_555
H32 C29 1_555 1_555
H33 C29 1_555 1_555
C30 P2 1_555 1_555
H34 C30 1_555 1_555
H35 C30 1_555 1_555
C31 C30 1_555 1_555
H36 C31 1_555 1_555
H37 C31 1_555 1_555
H38 C31 1_555 1_555
C32 P2 1_555 1_555
H39 C32 1_555 1_555
H40 C32 1_555 1_555
C33 C32 1_555 1_555
H41 C33 1_555 1_555
H42 C33 1_555 1_555
H43 C33 1_555 1_555
C34 H44 1_555 1_555
H45 C34 1_555 1_555
C35 C34 1_555 1_555
H46 C35 1_555 1_555
H47 C35 1_555 1_555
H48 C35 1_555 1_555
C36 P3 1_555 1_555
H49 C36 1_555 1_555
H50 C36 1_555 1_555
C37 C36 1_555 1_555
H51 C37 1_555 1_555
H52 C37 1_555 1_555
H53 C37 1_555 1_555
C38 P3 1_555 1_555
H54 C38 1_555 1_555
H55 C38 1_555 1_555
C39 C38 1_555 1_555
H56 C39 1_555 1_555
H57 C39 1_555 1_555
H58 C39 1_555 1_555
C40 P4 1_555 1_555
H59 C40 1_555 1_555
H60 C40 1_555 1_555
C41 C40 1_555 1_555
H61 C41 1_555 1_555
H62 C41 1_555 1_555
H63 C41 1_555 1_555
C42 P4 1_555 1_555
H64 C42 1_555 1_555
H65 C42 1_555 1_555
C43 C42 1_555 1_555
H66 C43 1_555 1_555
H67 C43 1_555 1_555
H68 C43 1_555 1_555
C44 P4 1_555 1_555
H69 C44 1_555 1_555
H70 C44 1_555 1_555
C45 C44 1_555 1_555
H71 C45 1_555 1_555
H72 C45 1_555 1_555
H73 C45 1_555 1_555
C17D C16 1_555 1_555
Pt1D C17D 1_555 1_555
P1D Pt1D 1_555 1_555
C22D P1D 1_555 1_555
H14D C22D 1_555 1_555
H15D C22D 1_555 1_555
C23D C22D 1_555 1_555
H16D C23D 1_555 1_555
H17D C23D 1_555 1_555
H18D C23D 1_555 1_555
C24D P1D 1_555 1_555
H19D C24D 1_555 1_555
H20D C24D 1_555 1_555
C25D C24D 1_555 1_555
H21D C25D 1_555 1_555
H22D C25D 1_555 1_555
H23D C25D 1_555 1_555
C26D P1D 1_555 1_555
H24D C26D 1_555 1_555
H25D C26D 1_555 1_555
C27D C26D 1_555 1_555
H26D C27D 1_555 1_555
H27D C27D 1_555 1_555
H28D C27D 1_555 1_555
P2D Pt1D 1_555 1_555
C28D P2D 1_555 1_555
H29D C28D 1_555 1_555
H30D C28D 1_555 1_555
C29D C28D 1_555 1_555
H31D C29D 1_555 1_555
H32D C29D 1_555 1_555
H33D C29D 1_555 1_555
C30D P2D 1_555 1_555
H34D C30D 1_555 1_555
H35D C30D 1_555 1_555
C31D C30D 1_555 1_555
H36D C31D 1_555 1_555
H37D C31D 1_555 1_555
H38D C31D 1_555 1_555
C32D P2D 1_555 1_555
H39D C32D 1_555 1_555
H40D C32D 1_555 1_555
C33D C32D 1_555 1_555
H41D C33D 1_555 1_555
H42D C33D 1_555 1_555
H43D C33D 1_555 1_555
O1D Pt1D 1_555 1_555
C1D O1D 1_555 1_555
O2D C1D 1_555 1_555
C2D C1D 1_555 1_555
N1D C2D 1_555 1_555
C6D N1D 1_555 1_555
C5D C6D 1_555 1_555
C4D C5D 1_555 1_555
C3D C2D 1_555 1_555
H3D C3D 1_555 1_555
H4D C4D 1_555 1_555
H5D C5D 1_555 1_555
C7D C6D 1_555 1_555
O3D C7D 1_555 1_555
Pt2D O3D 1_555 1_555
P3D Pt2D 1_555 1_555
C34D P3D 1_555 1_555
H44D C34D 1_555 1_555
H45D C34D 1_555 1_555
C35D C34D 1_555 1_555
H46D C35D 1_555 1_555
H47D C35D 1_555 1_555
H48D C35D 1_555 1_555
C36D P3D 1_555 1_555
H49D C36D 1_555 1_555
H50D C36D 1_555 1_555
C37D C36D 1_555 1_555
H51D C37D 1_555 1_555
H52D C37D 1_555 1_555
H53D C37D 1_555 1_555
C38D P3D 1_555 1_555
H54D C38D 1_555 1_555
H55D C38D 1_555 1_555
C39D C38D 1_555 1_555
H56D C39D 1_555 1_555
H57D C39D 1_555 1_555
H58D C39D 1_555 1_555
P4D Pt2D 1_555 1_555
C40D P4D 1_555 1_555
H59D C40D 1_555 1_555
H60D C40D 1_555 1_555
C41D C40D 1_555 1_555
H61D C41D 1_555 1_555
H62D C41D 1_555 1_555
H63D C41D 1_555 1_555
C42D P4D 1_555 1_555
H64D C42D 1_555 1_555
H65D C42D 1_555 1_555
C43D C42D 1_555 1_555
H66D C43D 1_555 1_555
H67D C43D 1_555 1_555
H68D C43D 1_555 1_555
C44D P4D 1_555 1_555
H69D C44D 1_555 1_555
H70D C44D 1_555 1_555
C45D C44D 1_555 1_555
H71D C45D 1_555 1_555
H72D C45D 1_555 1_555
H73D C45D 1_555 1_555
C8D Pt2D 1_555 1_555
C9D C8D 1_555 1_555
H6D C9D 1_555 1_555
C10D C9D 1_555 1_555
H7D C10D 1_555 1_555
C11D C10D 1_555 1_555
C12D C11D 1_555 1_555
H8D C12D 1_555 1_555
C13D C12D 1_555 1_555
H9D C13D 1_555 1_555
C14D C13D 1_555 1_555
C15D C14D 1_555 1_555
H10D C15D 1_555 1_555
C16D C17 1_555 1_555
H11D C16D 1_555 1_555
C19D C18 1_555 1_555
C20D C11D 1_555 1_555
C21D C8D 1_555 1_555
H13D C21D 1_555 1_555
O4D C7D 1_555 1_555
C18D C19 1_555 1_555
H12D C18D 1_555 1_555
C5 C6 1_555 1_555
C6 C7 1_555 1_555
C19 C20 1_555 1_555
C20 C21 1_555 1_555
C17D C18D 1_555 1_555
C4D C3D 1_555 1_555
C14D C19D 1_555 1_555
C15D C16D 1_555 1_555
C19D C20D 1_555 1_555
C20D C21D 1_555 1_555

#END
