
#######################################################################
#
#                 Cambridge Crystallographic Data Centre
#                                CCDC 
#
#######################################################################
#
# If this CIF has been generated from an entry in the Cambridge 
# Structural Database, then it will include bibliographic, chemical, 
# crystal, experimental, refinement or atomic coordinate data resulting 
# from the CCDC's data processing and validation procedures.
#
#######################################################################

data_AVANIU
_chemical_formula_moiety         'C104 H152 O8 P8 Pt4,4(C1 H1 Cl3)'
_chemical_name_systematic        
"bis((\m~2~-Biphenyl-4,4'-dicarboxylato-O,O')-(\m~2~-anthracene-1,8-diyl))-octakis(triethylphosphine)-tetra-platinum chloroform solvate"
_symmetry_cell_setting           triclinic
_symmetry_space_group_name_H-M   'P -1'
_symmetry_Int_Tables_number      2
_space_group_name_Hall           '-P 1'
loop_
_symmetry_equiv_pos_site_id
_symmetry_equiv_pos_as_xyz
1 x,y,z
2 -x,-y,-z
_cell_length_a                   10.1898(1)
_cell_length_b                   17.4960(4)
_cell_length_c                   20.0771(4)
_cell_angle_alpha                65.8038(9)
_cell_angle_beta                 89.4500(12)
_cell_angle_gamma                88.8228(13)
_cell_volume                     3264.21
_exptl_crystal_colour            yellow
_exptl_crystal_description       plate
_cell_formula_units_Z            1
loop_
_atom_site_label
_atom_site_type_symbol
_atom_site_fract_x
_atom_site_fract_y
_atom_site_fract_z
Pt1 Pt 0.49588(4) 0.37124(3) 0.29185(3)
Pt2 Pt 1.60245(4) -0.14177(3) 0.81832(3)
P1 P 0.6446(3) 0.3890(3) 0.2003(2)
P2 P 0.3552(3) 0.3602(2) 0.3872(2)
P3 P 1.6964(6) -0.0955(3) 0.7055(3)
P4 P 1.5184(3) -0.1687(3) 0.93252(18)
O1 O 0.6396(7) 0.2992(5) 0.3691(5)
O2 O 0.7059(11) 0.4138(6) 0.3826(8)
O3 O 1.4338(8) -0.0689(5) 0.7666(5)
O4 O 1.4876(16) 0.0453(7) 0.7813(7)
C1 C 0.7096(12) 0.3381(8) 0.3959(9)
C2 C 0.8041(12) 0.2830(7) 0.4553(8)
C3 C 0.8320(13) 0.2018(7) 0.4683(6)
H1 H 0.7862 0.1766 0.4417
C4 C 0.9253(13) 0.1549(7) 0.5191(6)
H2 H 0.9417 0.0982 0.5268
C5 C 0.9944(13) 0.1884(7) 0.5587(7)
C6 C 0.9632(18) 0.2693(10) 0.5468(14)
H3 H 1.0061 0.2943 0.5745
C7 C 0.8695(19) 0.3164(11) 0.4949(14)
H4 H 0.8516 0.3728 0.4873
C8 C 1.0986(13) 0.1403(7) 0.6119(7)
C9 C 1.1406(19) 0.0630(11) 0.6186(14)
H5 H 1.1014 0.0384 0.5896
C10 C 1.2398(17) 0.0196(10) 0.6672(13)
H6 H 1.2623 -0.0357 0.6729
C11 C 1.3062(14) 0.0535(7) 0.7071(6)
C12 C 1.267(2) 0.1307(10) 0.6977(10)
H7 H 1.3087 0.1568 0.7247
C13 C 1.168(2) 0.1738(9) 0.6506(8)
H8 H 1.1467 0.2293 0.6448
C14 C 1.4184(14) 0.0073(8) 0.7557(6)
C15 C 1.7606(12) -0.2184(13) 0.8650(9)
C16 C 1.8510(16) -0.192(2) 0.8996(15)
H9 H 1.8422 -0.1372 0.8988
C17 C 1.961(3) -0.2456(18) 0.9377(15)
H10 H 2.0214 -0.2260 0.9629
C18 C 1.9799(18) -0.318(2) 0.9385(14)
H11 H 2.0537 -0.3508 0.9640
C19 C 1.8933(13) -0.3532(16) 0.9019(8)
C20 C 1.9104(15) -0.4312(13) 0.9005(9)
H12 H 1.9831 -0.4652 0.9259
C21 C 1.8292(13) -0.4612(10) 0.8650(9)
C22 C 1.8448(19) -0.5453(12) 0.8679(11)
H13 H 1.9150 -0.5800 0.8956
C23 C 1.7628(17) -0.5754(11) 0.8326(14)
H14 H 1.7722 -0.6313 0.8369
C24 C 1.6634(13) -0.5225(8) 0.7895(11)
H15 H 1.6059 -0.5448 0.7653
C25 C 0.3575(12) 0.4404(8) 0.2206(9)
C26 C 1.7205(11) -0.4086(8) 0.8230(7)
C27 C 1.7013(10) -0.3307(9) 0.8248(6)
H16 H 1.6290 -0.2974 0.7983
C28 C 1.7816(12) -0.2971(11) 0.8633(7)
C29 C 0.7040(17) 0.2913(14) 0.1950(9)
H17 H 0.6271 0.2580 0.1944
H18 H 0.7511 0.3061 0.1481
C30 C 0.793(2) 0.2378(14) 0.2556(10)
H19 H 0.8184 0.1871 0.2488
H20 H 0.7473 0.2220 0.3024
H21 H 0.8718 0.2691 0.2554
C31 C 0.5880(15) 0.4525(16) 0.1078(10)
H22 H 0.5152 0.4231 0.0964
H23 H 0.5521 0.5062 0.1061
C32 C 0.694(3) 0.472(2) 0.0479(18)
H24 H 0.6553 0.5067 0.0003
H25 H 0.7271 0.4190 0.0472
H26 H 0.7661 0.5013 0.0581
C33 C 0.7918(16) 0.4365(16) 0.2073(14)
H27 H 0.8291 0.4061 0.2567
H28 H 0.8561 0.4327 0.1715
C34 C 0.769(4) 0.527(2) 0.193(2)
H29 H 0.8513 0.5513 0.2000
H30 H 0.7030 0.5315 0.2275
H31 H 0.7377 0.5585 0.1431
C35 C 0.306(3) 0.4546(18) 0.3952(17)
H32 H 0.2529 0.4895 0.3518
H33 H 0.2485 0.4401 0.4387
C36 C 0.420(2) 0.5071(16) 0.4021(14)
H34 H 0.3854 0.5580 0.4055
H35 H 0.4771 0.5225 0.3591
H36 H 0.4711 0.4741 0.4461
C37 C 0.202(2) 0.3033(16) 0.3980(15)
H40 H 0.2209 0.2489 0.3954
H41 H 0.1642 0.2916 0.4468
C38 C 0.0985(13) 0.3535(12) 0.3382(10)
H42 H 0.0185 0.3207 0.3461
H43 H 0.1346 0.3643 0.2898
H44 H 0.0776 0.4068 0.3414
C39 C 0.425(2) 0.2956(16) 0.4854(14)
H48 H 0.5106 0.3195 0.4892
H49 H 0.3648 0.3036 0.5210
C43 C 0.4436(19) 0.2092(13) 0.5057(10)
H56 H 0.4782 0.1832 0.5556
H57 H 0.5060 0.2001 0.4721
H58 H 0.3595 0.1842 0.5036
C44 C 1.799(3) 0.0004(19) 0.7057(17)
H62 H 1.8415 0.0270 0.6574
H63 H 1.7344 0.0419 0.7091
C45 C 1.899(4) -0.012(2) 0.7606(19)
H64 H 1.9396 0.0412 0.7517
H65 H 1.9664 -0.0518 0.7577
H66 H 1.8590 -0.0353 0.8093
C46 C 1.846(3) -0.1612(16) 0.7021(14)
H67 H 1.9055 -0.1684 0.7432
H68 H 1.8176 -0.2174 0.7084
C47 C 1.926(3) -0.119(2) 0.6266(18)
H69 H 2.0013 -0.1554 0.6271
H70 H 1.9581 -0.0643 0.6210
H71 H 1.8685 -0.1120 0.5857
C48 C 1.617(5) -0.054(2) 0.6184(17)
H72 H 1.5655 -0.0021 0.6090
H73 H 1.6778 -0.0459 0.5774
C49 C 1.535(2) -0.1280(15) 0.6376(13)
H74 H 1.4814 -0.1221 0.5955
H75 H 1.4779 -0.1333 0.6787
H76 H 1.5915 -0.1783 0.6515
C54 C 1.343(2) -0.136(2) 0.9316(10)
H87 H 1.3377 -0.0738 0.9103
H88 H 1.2933 -0.1551 0.8996
C55 C 1.282(2) -0.169(2) 1.0055(15)
H89 H 1.1900 -0.1503 1.0014
H90 H 1.3291 -0.1485 1.0370
H91 H 1.2864 -0.2305 1.0267
C56 C 1.518(3) -0.2843(15) 1.0006(14)
H92 H 1.6100 -0.3059 1.0057
H93 H 1.4910 -0.2864 1.0487
C57 C 1.431(5) -0.345(4) 0.983(3)
H94 H 1.4408 -0.4018 1.0222
H95 H 1.4588 -0.3461 0.9366
H96 H 1.3394 -0.3267 0.9800
C58 C 1.604(2) -0.1234(15) 0.9837(11)
H97 H 1.5497 -0.1287 1.0266
H98 H 1.6865 -0.1555 1.0021
C59 C 1.636(2) -0.0306(12) 0.9401(10)
H99 H 1.6828 -0.0098 0.9715
H100 H 1.5543 0.0020 0.9229
H101 H 1.6911 -0.0248 0.8982
C25A C 1.6425(12) -0.4404(8) 0.7794(9)
Pt1A Pt 1.50412(4) -0.37124(3) 0.70815(3)
P1A P 1.3554(3) -0.3890(3) 0.7997(2)
C29A C 1.2960(17) -0.2913(14) 0.8050(9)
H17A H 1.3729 -0.2580 0.8056
H18A H 1.2489 -0.3061 0.8519
C30A C 1.207(2) -0.2378(14) 0.7444(10)
H19A H 1.1816 -0.1871 0.7512
H20A H 1.2527 -0.2220 0.6976
H21A H 1.1282 -0.2691 0.7446
C31A C 1.4120(15) -0.4525(16) 0.8922(10)
H22A H 1.4848 -0.4231 0.9036
H23A H 1.4479 -0.5062 0.8939
C32A C 1.306(3) -0.472(2) 0.9521(18)
H24A H 1.3447 -0.5067 0.9997
H25A H 1.2729 -0.4190 0.9528
H26A H 1.2339 -0.5013 0.9419
C33A C 1.2082(16) -0.4365(16) 0.7927(14)
H27A H 1.1709 -0.4061 0.7433
H28A H 1.1439 -0.4327 0.8285
C34A C 1.231(4) -0.527(2) 0.807(2)
H29A H 1.1487 -0.5513 0.8000
H30A H 1.2970 -0.5315 0.7725
H31A H 1.2623 -0.5585 0.8569
P2A P 1.6448(3) -0.3602(2) 0.6128(2)
C35A C 1.694(3) -0.4546(18) 0.6048(17)
H32A H 1.7471 -0.4895 0.6482
H33A H 1.7515 -0.4401 0.5613
C36A C 1.580(2) -0.5071(16) 0.5979(14)
H34A H 1.6146 -0.5580 0.5945
H35A H 1.5229 -0.5225 0.6409
H36A H 1.5289 -0.4741 0.5539
C37A C 1.798(2) -0.3033(16) 0.6020(15)
H40A H 1.7791 -0.2489 0.6046
H41A H 1.8358 -0.2916 0.5532
C38A C 1.9015(13) -0.3535(12) 0.6618(10)
H42A H 1.9815 -0.3207 0.6539
H43A H 1.8654 -0.3643 0.7102
H44A H 1.9224 -0.4068 0.6586
C39A C 1.575(2) -0.2956(16) 0.5146(14)
H48A H 1.4894 -0.3195 0.5108
H49A H 1.6352 -0.3036 0.4790
C43A C 1.5564(19) -0.2092(13) 0.4943(10)
H56A H 1.5218 -0.1832 0.4444
H57A H 1.4940 -0.2001 0.5279
H58A H 1.6405 -0.1842 0.4964
O1A O 1.3604(7) -0.2992(5) 0.6309(5)
C1A C 1.2904(12) -0.3381(8) 0.6041(9)
O2A O 1.2941(11) -0.4138(6) 0.6174(8)
C2A C 1.1959(12) -0.2830(7) 0.5447(8)
C3A C 1.1680(13) -0.2018(7) 0.5317(6)
H1A H 1.2138 -0.1766 0.5583
C4A C 1.0747(13) -0.1549(7) 0.4809(6)
H2A H 1.0583 -0.0982 0.4732
C5A C 1.0056(13) -0.1884(7) 0.4413(7)
C6A C 1.0368(18) -0.2693(10) 0.4532(14)
H3A H 0.9939 -0.2943 0.4255
C7A C 1.1305(19) -0.3164(11) 0.5051(14)
H4A H 1.1484 -0.3728 0.5127
C8A C 0.9014(13) -0.1403(7) 0.3881(7)
C9A C 0.8594(19) -0.0630(11) 0.3814(14)
H5A H 0.8986 -0.0384 0.4104
C10A C 0.7602(17) -0.0196(10) 0.3328(13)
H6A H 0.7377 0.0357 0.3271
C11A C 0.6938(14) -0.0535(7) 0.2929(6)
C12A C 0.733(2) -0.1307(10) 0.3023(10)
H7A H 0.6913 -0.1568 0.2753
C13A C 0.832(2) -0.1738(9) 0.3494(8)
H8A H 0.8533 -0.2293 0.3552
C14A C 0.5816(14) -0.0073(8) 0.2443(6)
O3A O 0.5662(8) 0.0689(5) 0.2334(5)
Pt2A Pt 0.39755(4) 0.14177(3) 0.18168(3)
P3A P 0.3036(6) 0.0955(3) 0.2945(3)
C44A C 0.201(3) -0.0004(19) 0.2943(17)
H62A H 0.1585 -0.0270 0.3426
H63A H 0.2656 -0.0419 0.2909
C45A C 0.101(4) 0.012(2) 0.2394(19)
H64A H 0.0604 -0.0412 0.2483
H65A H 0.0336 0.0518 0.2423
H66A H 0.1410 0.0353 0.1907
C46A C 0.154(3) 0.1612(16) 0.2979(14)
H67A H 0.0945 0.1684 0.2568
H68A H 0.1824 0.2174 0.2916
C47A C 0.074(3) 0.119(2) 0.3734(18)
H69A H -0.0013 0.1554 0.3729
H70A H 0.0419 0.0643 0.3790
H71A H 0.1315 0.1120 0.4143
C48A C 0.383(5) 0.054(2) 0.3816(17)
H72A H 0.4345 0.0021 0.3910
H73A H 0.3222 0.0459 0.4226
C49A C 0.465(2) 0.1280(15) 0.3624(13)
H74A H 0.5186 0.1221 0.4045
H75A H 0.5221 0.1333 0.3213
H76A H 0.4085 0.1783 0.3485
P4A P 0.4816(3) 0.1687(3) 0.06748(18)
C54A C 0.657(2) 0.136(2) 0.0684(10)
H87A H 0.6623 0.0738 0.0897
H88A H 0.7067 0.1551 0.1004
C55A C 0.718(2) 0.169(2) -0.0055(15)
H89A H 0.8100 0.1503 -0.0014
H90A H 0.6709 0.1485 -0.0370
H91A H 0.7136 0.2305 -0.0267
C56A C 0.482(3) 0.2843(15) -0.0006(14)
H92A H 0.3900 0.3059 -0.0057
H93A H 0.5090 0.2864 -0.0487
C57A C 0.569(5) 0.345(4) 0.017(3)
H94A H 0.5592 0.4018 -0.0222
H95A H 0.5412 0.3461 0.0634
H96A H 0.6606 0.3267 0.0200
C58A C 0.396(2) 0.1234(15) 0.0163(11)
H97A H 0.4503 0.1287 -0.0266
H98A H 0.3135 0.1555 -0.0021
C59A C 0.364(2) 0.0306(12) 0.0599(10)
H99A H 0.3172 0.0098 0.0285
H100A H 0.4457 -0.0020 0.0771
H101A H 0.3089 0.0248 0.1018
C15A C 0.2394(12) 0.2184(13) 0.1350(9)
C16A C 0.1490(16) 0.192(2) 0.1004(15)
H9A H 0.1578 0.1372 0.1012
C17A C 0.039(3) 0.2456(18) 0.0623(15)
H10A H -0.0214 0.2260 0.0371
C18A C 0.0201(18) 0.318(2) 0.0615(14)
H11A H -0.0537 0.3508 0.0360
C19A C 0.1067(13) 0.3532(16) 0.0981(8)
C20A C 0.0896(15) 0.4312(13) 0.0995(9)
H12A H 0.0169 0.4652 0.0741
C21A C 0.1708(13) 0.4612(10) 0.1350(9)
C22A C 0.1552(19) 0.5453(12) 0.1321(11)
H13A H 0.0850 0.5800 0.1044
C23A C 0.2372(17) 0.5754(11) 0.1674(14)
H14A H 0.2278 0.6313 0.1631
C24A C 0.3366(13) 0.5225(8) 0.2105(11)
H15A H 0.3941 0.5448 0.2347
C26A C 0.2795(11) 0.4086(8) 0.1770(7)
C27A C 0.2987(10) 0.3307(9) 0.1752(6)
H16A H 0.3710 0.2974 0.2017
C28A C 0.2184(12) 0.2971(11) 0.1367(7)
O4A O 0.5124(16) -0.0453(7) 0.2187(7)
Cl6 Cl 1.5686(14) 0.2622(9) 0.6599(8)
Cl7 Cl 1.4856(16) 0.2659(10) 0.7916(9)
Cl8 Cl 1.749(2) 0.2053(14) 0.7929(12)
C62 C 1.595(3) 0.219(4) 0.750(3)
H104 H 1.5627 0.1608 0.7662
Cl9 Cl 0.944(2) -0.1842(15) 1.1036(13)
Cl10 Cl 0.983(3) -0.046(2) 1.1578(18)
Cl11 Cl 0.7351(15) -0.1005(9) 1.1305(8)
C63 C 0.897(4) -0.078(3) 1.100(2)
H105 H 0.8994 -0.0349 1.0484
loop_
_geom_bond_atom_site_label_1
_geom_bond_atom_site_label_2
_geom_bond_site_symmetry_1
_geom_bond_site_symmetry_2
Pt1 P1 1_555 1_555
Pt2 P3 1_555 1_555
P1 C29 1_555 1_555
P2 Pt1 1_555 1_555
P3 C44 1_555 1_555
P4 Pt2 1_555 1_555
O1 Pt1 1_555 1_555
O2 C1 1_555 1_555
O3 Pt2 1_555 1_555
O4 C14 1_555 1_555
C1 O1 1_555 1_555
C2 C1 1_555 1_555
C3 C2 1_555 1_555
H1 C3 1_555 1_555
C4 C3 1_555 1_555
H2 C4 1_555 1_555
C5 C4 1_555 1_555
C6 C5 1_555 1_555
H3 C6 1_555 1_555
C7 C2 1_555 1_555
H4 C7 1_555 1_555
C8 C5 1_555 1_555
C9 C8 1_555 1_555
H5 C9 1_555 1_555
C10 C9 1_555 1_555
H6 C10 1_555 1_555
C11 C10 1_555 1_555
C12 C11 1_555 1_555
H7 C12 1_555 1_555
C13 C8 1_555 1_555
H8 C13 1_555 1_555
C14 O3 1_555 1_555
C15 Pt2 1_555 1_555
C16 C15 1_555 1_555
H9 C16 1_555 1_555
C17 C16 1_555 1_555
H10 C17 1_555 1_555
C18 C17 1_555 1_555
H11 C18 1_555 1_555
C19 C18 1_555 1_555
C20 C19 1_555 1_555
H12 C20 1_555 1_555
C21 C20 1_555 1_555
C22 C21 1_555 1_555
H13 C22 1_555 1_555
C23 C22 1_555 1_555
H14 C23 1_555 1_555
C24 C23 1_555 1_555
H15 C24 1_555 1_555
C25 Pt1 1_555 1_555
C26 C21 1_555 1_555
C27 C26 1_555 1_555
H16 C27 1_555 1_555
C28 C15 1_555 1_555
C29 H17 1_555 1_555
H18 C29 1_555 1_555
C30 C29 1_555 1_555
H19 C30 1_555 1_555
H20 C30 1_555 1_555
H21 C30 1_555 1_555
C31 P1 1_555 1_555
H22 C31 1_555 1_555
H23 C31 1_555 1_555
C32 C31 1_555 1_555
H24 C32 1_555 1_555
H25 C32 1_555 1_555
H26 C32 1_555 1_555
C33 P1 1_555 1_555
H27 C33 1_555 1_555
H28 C33 1_555 1_555
C34 C33 1_555 1_555
H29 C34 1_555 1_555
H30 C34 1_555 1_555
H31 C34 1_555 1_555
C35 P2 1_555 1_555
H32 C35 1_555 1_555
H33 C35 1_555 1_555
C36 C35 1_555 1_555
H34 C36 1_555 1_555
H35 C36 1_555 1_555
H36 C36 1_555 1_555
C37 P2 1_555 1_555
H40 C37 1_555 1_555
H41 C37 1_555 1_555
C38 C37 1_555 1_555
H42 C38 1_555 1_555
H43 C38 1_555 1_555
H44 C38 1_555 1_555
C39 P2 1_555 1_555
H48 C39 1_555 1_555
H49 C39 1_555 1_555
C43 C39 1_555 1_555
H56 C43 1_555 1_555
H57 C43 1_555 1_555
H58 C43 1_555 1_555
C44 H62 1_555 1_555
H63 C44 1_555 1_555
C45 C44 1_555 1_555
H64 C45 1_555 1_555
H65 C45 1_555 1_555
H66 C45 1_555 1_555
C46 P3 1_555 1_555
H67 C46 1_555 1_555
H68 C46 1_555 1_555
C47 C46 1_555 1_555
H69 C47 1_555 1_555
H70 C47 1_555 1_555
H71 C47 1_555 1_555
C48 P3 1_555 1_555
H72 C48 1_555 1_555
H73 C48 1_555 1_555
C49 C48 1_555 1_555
H74 C49 1_555 1_555
H75 C49 1_555 1_555
H76 C49 1_555 1_555
C54 P4 1_555 1_555
H87 C54 1_555 1_555
H88 C54 1_555 1_555
C55 C54 1_555 1_555
H89 C55 1_555 1_555
H90 C55 1_555 1_555
H91 C55 1_555 1_555
C56 P4 1_555 1_555
H92 C56 1_555 1_555
H93 C56 1_555 1_555
C57 C56 1_555 1_555
H94 C57 1_555 1_555
H95 C57 1_555 1_555
H96 C57 1_555 1_555
C58 P4 1_555 1_555
H97 C58 1_555 1_555
H98 C58 1_555 1_555
C59 C58 1_555 1_555
H99 C59 1_555 1_555
H100 C59 1_555 1_555
H101 C59 1_555 1_555
Cl6 C62 1_555 1_555
Cl7 C62 1_555 1_555
Cl8 C62 1_555 1_555
C62 H104 1_555 1_555
Cl9 C63 1_555 1_555
Cl10 C63 1_555 1_555
Cl11 C63 1_555 1_555
C63 H105 1_555 1_555
C25A C24 1_555 1_555
Pt1A C25A 1_555 1_555
P1A Pt1A 1_555 1_555
C29A P1A 1_555 1_555
H17A C29A 1_555 1_555
H18A C29A 1_555 1_555
C30A C29A 1_555 1_555
H19A C30A 1_555 1_555
H20A C30A 1_555 1_555
H21A C30A 1_555 1_555
C31A P1A 1_555 1_555
H22A C31A 1_555 1_555
H23A C31A 1_555 1_555
C32A C31A 1_555 1_555
H24A C32A 1_555 1_555
H25A C32A 1_555 1_555
H26A C32A 1_555 1_555
C33A P1A 1_555 1_555
H27A C33A 1_555 1_555
H28A C33A 1_555 1_555
C34A C33A 1_555 1_555
H29A C34A 1_555 1_555
H30A C34A 1_555 1_555
H31A C34A 1_555 1_555
P2A Pt1A 1_555 1_555
C35A P2A 1_555 1_555
H32A C35A 1_555 1_555
H33A C35A 1_555 1_555
C36A C35A 1_555 1_555
H34A C36A 1_555 1_555
H35A C36A 1_555 1_555
H36A C36A 1_555 1_555
C37A P2A 1_555 1_555
H40A C37A 1_555 1_555
H41A C37A 1_555 1_555
C38A C37A 1_555 1_555
H42A C38A 1_555 1_555
H43A C38A 1_555 1_555
H44A C38A 1_555 1_555
C39A P2A 1_555 1_555
H48A C39A 1_555 1_555
H49A C39A 1_555 1_555
C43A C39A 1_555 1_555
H56A C43A 1_555 1_555
H57A C43A 1_555 1_555
H58A C43A 1_555 1_555
O1A Pt1A 1_555 1_555
C1A O1A 1_555 1_555
O2A C1A 1_555 1_555
C2A C1A 1_555 1_555
C3A C2A 1_555 1_555
H1A C3A 1_555 1_555
C4A C3A 1_555 1_555
H2A C4A 1_555 1_555
C5A C4A 1_555 1_555
C6A C5A 1_555 1_555
H3A C6A 1_555 1_555
C7A C2A 1_555 1_555
H4A C7A 1_555 1_555
C8A C5A 1_555 1_555
C9A C8A 1_555 1_555
H5A C9A 1_555 1_555
C10A C9A 1_555 1_555
H6A C10A 1_555 1_555
C11A C10A 1_555 1_555
C12A C11A 1_555 1_555
H7A C12A 1_555 1_555
C13A C8A 1_555 1_555
H8A C13A 1_555 1_555
C14A C11A 1_555 1_555
O3A C14A 1_555 1_555
Pt2A O3A 1_555 1_555
P3A Pt2A 1_555 1_555
C44A P3A 1_555 1_555
H62A C44A 1_555 1_555
H63A C44A 1_555 1_555
C45A C44A 1_555 1_555
H64A C45A 1_555 1_555
H65A C45A 1_555 1_555
H66A C45A 1_555 1_555
C46A P3A 1_555 1_555
H67A C46A 1_555 1_555
H68A C46A 1_555 1_555
C47A C46A 1_555 1_555
H69A C47A 1_555 1_555
H70A C47A 1_555 1_555
H71A C47A 1_555 1_555
C48A P3A 1_555 1_555
H72A C48A 1_555 1_555
H73A C48A 1_555 1_555
C49A C48A 1_555 1_555
H74A C49A 1_555 1_555
H75A C49A 1_555 1_555
H76A C49A 1_555 1_555
P4A Pt2A 1_555 1_555
C54A P4A 1_555 1_555
H87A C54A 1_555 1_555
H88A C54A 1_555 1_555
C55A C54A 1_555 1_555
H89A C55A 1_555 1_555
H90A C55A 1_555 1_555
H91A C55A 1_555 1_555
C56A P4A 1_555 1_555
H92A C56A 1_555 1_555
H93A C56A 1_555 1_555
C57A C56A 1_555 1_555
H94A C57A 1_555 1_555
H95A C57A 1_555 1_555
H96A C57A 1_555 1_555
C58A P4A 1_555 1_555
H97A C58A 1_555 1_555
H98A C58A 1_555 1_555
C59A C58A 1_555 1_555
H99A C59A 1_555 1_555
H100A C59A 1_555 1_555
H101A C59A 1_555 1_555
C15A Pt2A 1_555 1_555
C16A C15A 1_555 1_555
H9A C16A 1_555 1_555
C17A C16A 1_555 1_555
H10A C17A 1_555 1_555
C18A C17A 1_555 1_555
H11A C18A 1_555 1_555
C19A C18A 1_555 1_555
C20A C19A 1_555 1_555
H12A C20A 1_555 1_555
C21A C20A 1_555 1_555
C22A C21A 1_555 1_555
H13A C22A 1_555 1_555
C23A C22A 1_555 1_555
H14A C23A 1_555 1_555
C24A C25 1_555 1_555
H15A C24A 1_555 1_555
C26A C25 1_555 1_555
C27A C26A 1_555 1_555
H16A C27A 1_555 1_555
C28A C15A 1_555 1_555
O4A C14A 1_555 1_555
C6 C7 1_555 1_555
C11 C14 1_555 1_555
C12 C13 1_555 1_555
C19 C28 1_555 1_555
C26 C25A 1_555 1_555
C27 C28 1_555 1_555
C6A C7A 1_555 1_555
C12A C13A 1_555 1_555
C19A C28A 1_555 1_555
C21A C26A 1_555 1_555
C23A C24A 1_555 1_555
C27A C28A 1_555 1_555

#END
