
#######################################################################
#
#                 Cambridge Crystallographic Data Centre
#                                CCDC 
#
#######################################################################
#
# If this CIF has been generated from an entry in the Cambridge 
# Structural Database, then it will include bibliographic, chemical, 
# crystal, experimental, refinement or atomic coordinate data resulting 
# from the CCDC's data processing and validation procedures.
#
#######################################################################

data_AVANOA
_chemical_formula_moiety         'C104 H152 N4 O8 P8 Pt4,3(C1 H1 Cl3)'
_chemical_name_systematic        
"bis((\m~2~-Azobenzene-4,4'-dicarboxylato-O,O')-(\m~2~-anthracene-1,8-diyl))-octakis(triethylphosphine)-tetra-platinum chloroform solvate"
_symmetry_cell_setting           triclinic
_symmetry_space_group_name_H-M   'P -1'
_symmetry_Int_Tables_number      2
_space_group_name_Hall           '-P 1'
loop_
_symmetry_equiv_pos_site_id
_symmetry_equiv_pos_as_xyz
1 x,y,z
2 -x,-y,-z
_cell_length_a                   10.2370(3)
_cell_length_b                   15.5079(4)
_cell_length_c                   21.7184(7)
_cell_angle_alpha                110.7639(15)
_cell_angle_beta                 92.4544(21)
_cell_angle_gamma                102.6123(18)
_cell_volume                     3118.72
_exptl_crystal_colour            orange
_exptl_crystal_description       plate
_cell_formula_units_Z            1
loop_
_atom_site_label
_atom_site_type_symbol
_atom_site_fract_x
_atom_site_fract_y
_atom_site_fract_z
Pt1 Pt -0.00752(3) 0.16882(2) 0.833680(16)
Pt2 Pt 1.22220(3) 0.20088(2) 0.302528(16)
P1 P -0.1165(2) 0.28048(17) 0.82402(14)
P2 P 0.1264(2) 0.08188(16) 0.85938(12)
P3 P 1.1739(2) 0.29763(16) 0.24876(11)
P4 P 1.2797(2) 0.12335(17) 0.36752(12)
O1 O 0.1210(5) 0.1803(4) 0.7608(3)
O2 O 0.2271(7) 0.3317(5) 0.8209(4)
O3 O 1.0528(5) 0.2113(4) 0.3557(3)
O4 O 1.1382(7) 0.3648(5) 0.4206(4)
N1 N 0.5837(9) 0.2188(7) 0.5748(5)
N2 N 0.6591(10) 0.2929(6) 0.5844(5)
C1 C 0.2133(8) 0.2573(7) 0.7727(5)
C2 C 0.3082(8) 0.2496(7) 0.7213(5)
C3 C 0.2860(9) 0.1720(7) 0.6632(5)
H1 H 0.2077 0.1214 0.6549
C4 C 0.3753(9) 0.1648(8) 0.6156(5)
H2 H 0.3563 0.1110 0.5751
C5 C 0.4908(10) 0.2363(8) 0.6281(5)
C6 C 0.5170(9) 0.3154(8) 0.6872(6)
H3 H 0.5969 0.3649 0.6961
C7 C 0.4247(9) 0.3216(7) 0.7338(5)
H4 H 0.4424 0.3756 0.7742
C8 C 0.7544(11) 0.2830(10) 0.5332(6)
C9 C 0.7777(11) 0.1960(10) 0.4938(6)
H5 H 0.7313 0.1383 0.4975
C10 C 0.8713(10) 0.1961(8) 0.4487(6)
H6 H 0.8854 0.1378 0.4193
C11 C 0.9433(9) 0.2820(7) 0.4473(4)
C12 C 0.9144(12) 0.3636(9) 0.4877(6)
H7 H 0.9612 0.4221 0.4852
C13 C 0.8210(14) 0.3664(10) 0.5321(7)
H8 H 0.8051 0.4248 0.5604
C14 C 1.0545(9) 0.2882(7) 0.4045(4)
C15 C 1.3791(8) 0.1798(6) 0.2520(4)
C16 C 1.5009(8) 0.2477(6) 0.2706(5)
H9 H 1.5122 0.3015 0.3107
C17 C 1.6111(8) 0.2406(6) 0.2320(5)
H10 H 1.6932 0.2889 0.2469
C18 C 1.5982(8) 0.1655(6) 0.1748(5)
H11 H 1.6698 0.1628 0.1483
C19 C 1.4774(7) 0.0892(6) 0.1534(4)
C20 C 1.4620(8) 0.0108(6) 0.0946(4)
H12 H 1.5314 0.0098 0.0669
C21 C 1.3488(8) -0.0668(6) 0.0745(4)
C22 C 1.3325(8) -0.1437(6) 0.0133(4)
H13 H 1.4018 -0.1455 -0.0145
C23 C 1.2174(8) -0.2157(6) -0.0061(4)
H14 H 1.2029 -0.2641 -0.0492
C24 C 1.1193(8) -0.2182(6) 0.0380(4)
H15 H 1.0403 -0.2693 0.0234
C25 C -0.1336(7) 0.1499(5) 0.8992(4)
C26 C 1.2461(7) -0.0679(5) 0.1183(4)
C27 C 1.2602(7) 0.0133(6) 0.1754(4)
H16 H 1.1914 0.0142 0.2035
C28 C 1.3704(7) 0.0946(6) 0.1943(4)
C29 C -0.0431(12) 0.3947(7) 0.8956(6)
H17 H -0.0634 0.3843 0.9369
H18 H 0.0563 0.4096 0.8967
C30 C -0.0893(15) 0.4809(8) 0.8966(7)
H19 H -0.0559 0.4996 0.8604
H20 H -0.0539 0.5335 0.9392
H21 H -0.1882 0.4657 0.8908
C31 C -0.2978(10) 0.2598(7) 0.8316(6)
H22 H -0.3108 0.2577 0.8760
H23 H -0.3294 0.3145 0.8289
C32 C -0.3839(10) 0.1698(7) 0.7798(6)
H24 H -0.3777 0.1732 0.7358
H25 H -0.4780 0.1622 0.7886
H26 H -0.3521 0.1152 0.7812
C33 C -0.0926(13) 0.3150(9) 0.7528(6)
H27 H -0.1534 0.3565 0.7524
H28 H 0.0012 0.3538 0.7593
C34 C -0.1172(13) 0.2361(9) 0.6860(6)
H29 H -0.0529 0.1970 0.6841
H30 H -0.1052 0.2631 0.6515
H31 H -0.2095 0.1965 0.6786
C35 C 0.1362(9) -0.0291(6) 0.7936(5)
H32 H 0.1760 -0.0664 0.8145
H33 H 0.0430 -0.0664 0.7736
C36 C 0.2149(11) -0.0203(8) 0.7392(5)
H34 H 0.1829 0.0216 0.7206
H35 H 0.2028 -0.0834 0.7043
H36 H 0.3108 0.0066 0.7568
C37 C 0.3007(8) 0.1508(7) 0.8824(5)
H37 H 0.3565 0.1123 0.8935
H38 H 0.3335 0.1646 0.8438
C38 C 0.3197(12) 0.2448(8) 0.9415(6)
H39 H 0.2582 0.2807 0.9326
H40 H 0.4132 0.2824 0.9482
H41 H 0.2999 0.2317 0.9815
C39 C 0.0812(9) 0.0459(8) 0.9279(5)
H42 H 0.0698 0.1024 0.9649
H43 H -0.0078 -0.0009 0.9136
C40 C 0.1783(11) 0.0024(9) 0.9551(6)
H44 H 0.1897 -0.0546 0.9196
H45 H 0.1418 -0.0149 0.9913
H46 H 0.2659 0.0489 0.9720
C41 C 0.9957(9) 0.2802(8) 0.2253(6)
H47 H 0.9594 0.2139 0.1935
H48 H 0.9498 0.2875 0.2654
C42 C 0.9582(10) 0.3476(8) 0.1937(6)
H49 H 0.9840 0.4131 0.2264
H50 H 0.8606 0.3289 0.1796
H51 H 1.0062 0.3437 0.1551
C43 C 1.2253(10) 0.4250(7) 0.3022(6)
H52 H 1.2184 0.4629 0.2744
H53 H 1.1612 0.4384 0.3352
C44 C 1.3646(11) 0.4572(7) 0.3382(6)
H54 H 1.3710 0.4234 0.3683
H55 H 1.3858 0.5259 0.3639
H56 H 1.4290 0.4435 0.3061
C45 C 1.2512(11) 0.2938(8) 0.1746(5)
H57 H 1.2393 0.3485 0.1634
H58 H 1.3494 0.3016 0.1843
C46 C 1.1945(14) 0.2026(9) 0.1141(5)
H59 H 1.1989 0.1475 0.1256
H60 H 1.2479 0.2030 0.0778
H61 H 1.1004 0.1985 0.1001
C47 C 1.1386(11) 0.0258(8) 0.3644(6)
H62 H 1.0540 0.0414 0.3536
H63 H 1.1447 -0.0321 0.3271
C48 C 1.1261(13) 0.0009(9) 0.4267(7)
H64 H 1.2079 -0.0166 0.4378
H65 H 1.0475 -0.0528 0.4182
H66 H 1.1150 0.0562 0.4639
C49 C 1.4278(11) 0.0766(8) 0.3515(6)
H67 H 1.4154 0.0348 0.3039
H68 H 1.5065 0.1308 0.3586
C50 C 1.4629(14) 0.0205(9) 0.3925(7)
H69 H 1.4766 0.0608 0.4398
H70 H 1.5457 0.0008 0.3800
H71 H 1.3887 -0.0360 0.3839
C51 C 1.3182(11) 0.2053(8) 0.4544(5)
H72 H 1.2340 0.2210 0.4705
H73 H 1.3521 0.1732 0.4815
C52 C 1.4238(10) 0.2981(7) 0.4644(5)
H74 H 1.5041 0.2828 0.4446
H75 H 1.4488 0.3359 0.5120
H76 H 1.3857 0.3347 0.4429
C25A C 1.1336(7) -0.1499(5) 0.1008(4)
Pt1A Pt 1.00752(3) -0.16882(2) 0.166320(16)
P1A P 1.1165(2) -0.28048(17) 0.17598(14)
C29A C 1.0431(12) -0.3947(7) 0.1044(6)
H17A H 1.0634 -0.3843 0.0631
H18A H 0.9437 -0.4096 0.1033
C30A C 1.0893(15) -0.4809(8) 0.1034(7)
H19A H 1.0559 -0.4996 0.1396
H20A H 1.0539 -0.5335 0.0608
H21A H 1.1882 -0.4657 0.1092
C31A C 1.2978(10) -0.2598(7) 0.1684(6)
H22A H 1.3108 -0.2577 0.1240
H23A H 1.3294 -0.3145 0.1711
C32A C 1.3839(10) -0.1698(7) 0.2202(6)
H24A H 1.3777 -0.1732 0.2642
H25A H 1.4780 -0.1622 0.2114
H26A H 1.3521 -0.1152 0.2188
C33A C 1.0926(13) -0.3150(9) 0.2472(6)
H27A H 1.1534 -0.3565 0.2476
H28A H 0.9988 -0.3538 0.2407
C34A C 1.1172(13) -0.2361(9) 0.3140(6)
H29A H 1.0529 -0.1970 0.3159
H30A H 1.1052 -0.2631 0.3485
H31A H 1.2095 -0.1965 0.3214
P2A P 0.8736(2) -0.08188(16) 0.14062(12)
C35A C 0.8638(9) 0.0291(6) 0.2064(5)
H32A H 0.8240 0.0664 0.1855
H33A H 0.9570 0.0664 0.2264
C36A C 0.7851(11) 0.0203(8) 0.2608(5)
H34A H 0.8171 -0.0216 0.2794
H35A H 0.7972 0.0834 0.2957
H36A H 0.6892 -0.0066 0.2432
C37A C 0.6993(8) -0.1508(7) 0.1176(5)
H37A H 0.6435 -0.1123 0.1065
H38A H 0.6665 -0.1646 0.1562
C38A C 0.6803(12) -0.2448(8) 0.0585(6)
H39A H 0.7418 -0.2807 0.0674
H40A H 0.5868 -0.2824 0.0518
H41A H 0.7001 -0.2317 0.0185
C39A C 0.9188(9) -0.0459(8) 0.0721(5)
H42A H 0.9302 -0.1024 0.0351
H43A H 1.0078 0.0009 0.0864
C40A C 0.8217(11) -0.0024(9) 0.0449(6)
H44A H 0.8103 0.0546 0.0804
H45A H 0.8582 0.0149 0.0087
H46A H 0.7341 -0.0489 0.0280
O1A O 0.8790(5) -0.1803(4) 0.2392(3)
C1A C 0.7867(8) -0.2573(7) 0.2273(5)
O2A O 0.7729(7) -0.3317(5) 0.1791(4)
C2A C 0.6918(8) -0.2496(7) 0.2787(5)
C3A C 0.7140(9) -0.1720(7) 0.3368(5)
H1A H 0.7923 -0.1214 0.3451
C4A C 0.6247(9) -0.1648(8) 0.3844(5)
H2A H 0.6437 -0.1110 0.4249
C5A C 0.5092(10) -0.2363(8) 0.3719(5)
N1A N 0.4163(9) -0.2188(7) 0.4252(5)
N2A N 0.3409(10) -0.2929(6) 0.4156(5)
C8A C 0.2456(11) -0.2830(10) 0.4668(6)
C9A C 0.2223(11) -0.1960(10) 0.5062(6)
H5A H 0.2687 -0.1383 0.5025
C10A C 0.1287(10) -0.1961(8) 0.5513(6)
H6A H 0.1146 -0.1378 0.5807
C11A C 0.0567(9) -0.2820(7) 0.5527(4)
C12A C 0.0856(12) -0.3636(9) 0.5123(6)
H7A H 0.0388 -0.4221 0.5148
C13A C 0.1790(14) -0.3664(10) 0.4679(7)
H8A H 0.1949 -0.4248 0.4396
C14A C -0.0545(9) -0.2882(7) 0.5955(4)
O3A O -0.0528(5) -0.2113(4) 0.6443(3)
Pt2A Pt -0.22220(3) -0.20088(2) 0.697472(16)
P3A P -0.1739(2) -0.29763(16) 0.75124(11)
C41A C 0.0043(9) -0.2802(8) 0.7747(6)
H47A H 0.0406 -0.2139 0.8065
H48A H 0.0502 -0.2875 0.7346
C42A C 0.0418(10) -0.3476(8) 0.8063(6)
H49A H 0.0160 -0.4131 0.7736
H50A H 0.1394 -0.3289 0.8204
H51A H -0.0062 -0.3437 0.8449
C43A C -0.2253(10) -0.4250(7) 0.6978(6)
H52A H -0.2184 -0.4629 0.7256
H53A H -0.1612 -0.4384 0.6648
C44A C -0.3646(11) -0.4572(7) 0.6618(6)
H54A H -0.3710 -0.4234 0.6317
H55A H -0.3858 -0.5259 0.6361
H56A H -0.4290 -0.4435 0.6939
C45A C -0.2512(11) -0.2938(8) 0.8254(5)
H57A H -0.2393 -0.3485 0.8366
H58A H -0.3494 -0.3016 0.8157
C46A C -0.1945(14) -0.2026(9) 0.8859(5)
H59A H -0.1989 -0.1475 0.8744
H60A H -0.2479 -0.2030 0.9222
H61A H -0.1004 -0.1985 0.8999
P4A P -0.2797(2) -0.12335(17) 0.63248(12)
C47A C -0.1386(11) -0.0258(8) 0.6356(6)
H62A H -0.0540 -0.0414 0.6464
H63A H -0.1447 0.0321 0.6729
C48A C -0.1261(13) -0.0009(9) 0.5733(7)
H64A H -0.2079 0.0166 0.5622
H65A H -0.0475 0.0528 0.5818
H66A H -0.1150 -0.0562 0.5361
C49A C -0.4278(11) -0.0766(8) 0.6485(6)
H67A H -0.4154 -0.0348 0.6961
H68A H -0.5065 -0.1308 0.6414
C50A C -0.4629(14) -0.0205(9) 0.6075(7)
H69A H -0.4766 -0.0608 0.5602
H70A H -0.5457 -0.0008 0.6200
H71A H -0.3887 0.0360 0.6161
C51A C -0.3182(11) -0.2053(8) 0.5456(5)
H72A H -0.2340 -0.2210 0.5295
H73A H -0.3521 -0.1732 0.5185
C52A C -0.4238(10) -0.2981(7) 0.5356(5)
H74A H -0.5041 -0.2828 0.5554
H75A H -0.4488 -0.3359 0.4880
H76A H -0.3857 -0.3347 0.5571
C15A C -0.3791(8) -0.1798(6) 0.7480(4)
C16A C -0.5009(8) -0.2477(6) 0.7294(5)
H9A H -0.5122 -0.3015 0.6893
C17A C -0.6111(8) -0.2406(6) 0.7680(5)
H10A H -0.6932 -0.2889 0.7531
C18A C -0.5982(8) -0.1655(6) 0.8252(5)
H11A H -0.6698 -0.1628 0.8517
C19A C -0.4774(7) -0.0892(6) 0.8466(4)
C20A C -0.4620(8) -0.0108(6) 0.9054(4)
H12A H -0.5314 -0.0098 0.9331
C21A C -0.3488(8) 0.0668(6) 0.9255(4)
C22A C -0.3325(8) 0.1437(6) 0.9867(4)
H13A H -0.4018 0.1455 1.0145
C23A C -0.2174(8) 0.2157(6) 1.0061(4)
H14A H -0.2029 0.2641 1.0492
C24A C -0.1193(8) 0.2182(6) 0.9620(4)
H15A H -0.0403 0.2693 0.9766
C26A C -0.2461(7) 0.0679(5) 0.8817(4)
C27A C -0.2602(7) -0.0133(6) 0.8246(4)
H16A H -0.1914 -0.0142 0.7965
C28A C -0.3704(7) -0.0946(6) 0.8057(4)
O4A O -0.1382(7) -0.3648(5) 0.5794(4)
C6A C 0.4830(9) -0.3154(8) 0.3128(6)
H3A H 0.4031 -0.3649 0.3039
C7A C 0.5753(9) -0.3216(7) 0.2662(5)
H4A H 0.5576 -0.3756 0.2258
Cl1 Cl 0.6850(4) 0.4315(3) 0.02815(19)
Cl2 Cl 0.6112(4) 0.3872(4) 0.1408(3)
Cl3 Cl 0.4464(4) 0.4742(3) 0.0874(2)
C53 C 0.6097(10) 0.4659(8) 0.0997(6)
H77 H 0.6647 0.5302 0.1298
Cl4 Cl 0.8861(10) 0.4735(7) 0.3593(5)
Cl5 Cl 0.6650(10) 0.4750(7) 0.4278(5)
Cl6 Cl 0.7750(12) 0.6291(8) 0.3864(6)
C54 C 0.788(3) 0.5324(16) 0.4024(15)
H78 H 0.8489 0.5654 0.4454
loop_
_geom_bond_atom_site_label_1
_geom_bond_atom_site_label_2
_geom_bond_site_symmetry_1
_geom_bond_site_symmetry_2
Pt1 P1 1_555 1_555
Pt2 P3 1_555 1_555
P1 C29 1_555 1_555
P2 Pt1 1_555 1_555
P3 C41 1_555 1_555
P4 Pt2 1_555 1_555
O1 Pt1 1_555 1_555
O2 C1 1_555 1_555
O3 Pt2 1_555 1_555
O4 C14 1_555 1_555
N1 N2 1_555 1_555
N2 C8 1_555 1_555
C1 O1 1_555 1_555
C2 C1 1_555 1_555
C3 C2 1_555 1_555
H1 C3 1_555 1_555
C4 C3 1_555 1_555
H2 C4 1_555 1_555
C5 N1 1_555 1_555
C6 C5 1_555 1_555
H3 C6 1_555 1_555
C7 C2 1_555 1_555
H4 C7 1_555 1_555
C8 C9 1_555 1_555
C9 H5 1_555 1_555
C10 C9 1_555 1_555
H6 C10 1_555 1_555
C11 C10 1_555 1_555
C12 C11 1_555 1_555
H7 C12 1_555 1_555
C13 C8 1_555 1_555
H8 C13 1_555 1_555
C14 O3 1_555 1_555
C15 Pt2 1_555 1_555
C16 C15 1_555 1_555
H9 C16 1_555 1_555
C17 C16 1_555 1_555
H10 C17 1_555 1_555
C18 C17 1_555 1_555
H11 C18 1_555 1_555
C19 C18 1_555 1_555
C20 C19 1_555 1_555
H12 C20 1_555 1_555
C21 C20 1_555 1_555
C22 C21 1_555 1_555
H13 C22 1_555 1_555
C23 C22 1_555 1_555
H14 C23 1_555 1_555
C24 C23 1_555 1_555
H15 C24 1_555 1_555
C25 Pt1 1_555 1_555
C26 C21 1_555 1_555
C27 C26 1_555 1_555
H16 C27 1_555 1_555
C28 C15 1_555 1_555
C29 H17 1_555 1_555
H18 C29 1_555 1_555
C30 C29 1_555 1_555
H19 C30 1_555 1_555
H20 C30 1_555 1_555
H21 C30 1_555 1_555
C31 P1 1_555 1_555
H22 C31 1_555 1_555
H23 C31 1_555 1_555
C32 C31 1_555 1_555
H24 C32 1_555 1_555
H25 C32 1_555 1_555
H26 C32 1_555 1_555
C33 P1 1_555 1_555
H27 C33 1_555 1_555
H28 C33 1_555 1_555
C34 C33 1_555 1_555
H29 C34 1_555 1_555
H30 C34 1_555 1_555
H31 C34 1_555 1_555
C35 P2 1_555 1_555
H32 C35 1_555 1_555
H33 C35 1_555 1_555
C36 C35 1_555 1_555
H34 C36 1_555 1_555
H35 C36 1_555 1_555
H36 C36 1_555 1_555
C37 P2 1_555 1_555
H37 C37 1_555 1_555
H38 C37 1_555 1_555
C38 C37 1_555 1_555
H39 C38 1_555 1_555
H40 C38 1_555 1_555
H41 C38 1_555 1_555
C39 P2 1_555 1_555
H42 C39 1_555 1_555
H43 C39 1_555 1_555
C40 C39 1_555 1_555
H44 C40 1_555 1_555
H45 C40 1_555 1_555
H46 C40 1_555 1_555
C41 H47 1_555 1_555
H48 C41 1_555 1_555
C42 C41 1_555 1_555
H49 C42 1_555 1_555
H50 C42 1_555 1_555
H51 C42 1_555 1_555
C43 P3 1_555 1_555
H52 C43 1_555 1_555
H53 C43 1_555 1_555
C44 C43 1_555 1_555
H54 C44 1_555 1_555
H55 C44 1_555 1_555
H56 C44 1_555 1_555
C45 P3 1_555 1_555
H57 C45 1_555 1_555
H58 C45 1_555 1_555
C46 C45 1_555 1_555
H59 C46 1_555 1_555
H60 C46 1_555 1_555
H61 C46 1_555 1_555
C47 P4 1_555 1_555
H62 C47 1_555 1_555
H63 C47 1_555 1_555
C48 C47 1_555 1_555
H64 C48 1_555 1_555
H65 C48 1_555 1_555
H66 C48 1_555 1_555
C49 P4 1_555 1_555
H67 C49 1_555 1_555
H68 C49 1_555 1_555
C50 C49 1_555 1_555
H69 C50 1_555 1_555
H70 C50 1_555 1_555
H71 C50 1_555 1_555
C51 P4 1_555 1_555
H72 C51 1_555 1_555
H73 C51 1_555 1_555
C52 C51 1_555 1_555
H74 C52 1_555 1_555
H75 C52 1_555 1_555
H76 C52 1_555 1_555
Cl1 C53 1_555 1_555
Cl2 C53 1_555 1_555
Cl3 C53 1_555 1_555
C53 H77 1_555 1_555
Cl4 C54 1_555 1_555
Cl5 C54 1_555 1_555
Cl6 C54 1_555 1_555
C54 H78 1_555 1_555
C25A C24 1_555 1_555
Pt1A C25A 1_555 1_555
P1A Pt1A 1_555 1_555
C29A P1A 1_555 1_555
H17A C29A 1_555 1_555
H18A C29A 1_555 1_555
C30A C29A 1_555 1_555
H19A C30A 1_555 1_555
H20A C30A 1_555 1_555
H21A C30A 1_555 1_555
C31A P1A 1_555 1_555
H22A C31A 1_555 1_555
H23A C31A 1_555 1_555
C32A C31A 1_555 1_555
H24A C32A 1_555 1_555
H25A C32A 1_555 1_555
H26A C32A 1_555 1_555
C33A P1A 1_555 1_555
H27A C33A 1_555 1_555
H28A C33A 1_555 1_555
C34A C33A 1_555 1_555
H29A C34A 1_555 1_555
H30A C34A 1_555 1_555
H31A C34A 1_555 1_555
P2A Pt1A 1_555 1_555
C35A P2A 1_555 1_555
H32A C35A 1_555 1_555
H33A C35A 1_555 1_555
C36A C35A 1_555 1_555
H34A C36A 1_555 1_555
H35A C36A 1_555 1_555
H36A C36A 1_555 1_555
C37A P2A 1_555 1_555
H37A C37A 1_555 1_555
H38A C37A 1_555 1_555
C38A C37A 1_555 1_555
H39A C38A 1_555 1_555
H40A C38A 1_555 1_555
H41A C38A 1_555 1_555
C39A P2A 1_555 1_555
H42A C39A 1_555 1_555
H43A C39A 1_555 1_555
C40A C39A 1_555 1_555
H44A C40A 1_555 1_555
H45A C40A 1_555 1_555
H46A C40A 1_555 1_555
O1A Pt1A 1_555 1_555
C1A O1A 1_555 1_555
O2A C1A 1_555 1_555
C2A C1A 1_555 1_555
C3A C2A 1_555 1_555
H1A C3A 1_555 1_555
C4A C3A 1_555 1_555
H2A C4A 1_555 1_555
C5A C4A 1_555 1_555
N1A C5A 1_555 1_555
N2A N1A 1_555 1_555
C8A N2A 1_555 1_555
C9A C8A 1_555 1_555
H5A C9A 1_555 1_555
C10A C9A 1_555 1_555
H6A C10A 1_555 1_555
C11A C10A 1_555 1_555
C12A C11A 1_555 1_555
H7A C12A 1_555 1_555
C13A C8A 1_555 1_555
H8A C13A 1_555 1_555
C14A C11A 1_555 1_555
O3A C14A 1_555 1_555
Pt2A O3A 1_555 1_555
P3A Pt2A 1_555 1_555
C41A P3A 1_555 1_555
H47A C41A 1_555 1_555
H48A C41A 1_555 1_555
C42A C41A 1_555 1_555
H49A C42A 1_555 1_555
H50A C42A 1_555 1_555
H51A C42A 1_555 1_555
C43A P3A 1_555 1_555
H52A C43A 1_555 1_555
H53A C43A 1_555 1_555
C44A C43A 1_555 1_555
H54A C44A 1_555 1_555
H55A C44A 1_555 1_555
H56A C44A 1_555 1_555
C45A P3A 1_555 1_555
H57A C45A 1_555 1_555
H58A C45A 1_555 1_555
C46A C45A 1_555 1_555
H59A C46A 1_555 1_555
H60A C46A 1_555 1_555
H61A C46A 1_555 1_555
P4A Pt2A 1_555 1_555
C47A P4A 1_555 1_555
H62A C47A 1_555 1_555
H63A C47A 1_555 1_555
C48A C47A 1_555 1_555
H64A C48A 1_555 1_555
H65A C48A 1_555 1_555
H66A C48A 1_555 1_555
C49A P4A 1_555 1_555
H67A C49A 1_555 1_555
H68A C49A 1_555 1_555
C50A C49A 1_555 1_555
H69A C50A 1_555 1_555
H70A C50A 1_555 1_555
H71A C50A 1_555 1_555
C51A P4A 1_555 1_555
H72A C51A 1_555 1_555
H73A C51A 1_555 1_555
C52A C51A 1_555 1_555
H74A C52A 1_555 1_555
H75A C52A 1_555 1_555
H76A C52A 1_555 1_555
C15A Pt2A 1_555 1_555
C16A C15A 1_555 1_555
H9A C16A 1_555 1_555
C17A C16A 1_555 1_555
H10A C17A 1_555 1_555
C18A C17A 1_555 1_555
H11A C18A 1_555 1_555
C19A C18A 1_555 1_555
C20A C19A 1_555 1_555
H12A C20A 1_555 1_555
C21A C20A 1_555 1_555
C22A C21A 1_555 1_555
H13A C22A 1_555 1_555
C23A C22A 1_555 1_555
H14A C23A 1_555 1_555
C24A C25 1_555 1_555
H15A C24A 1_555 1_555
C26A C25 1_555 1_555
C27A C26A 1_555 1_555
H16A C27A 1_555 1_555
C28A C15A 1_555 1_555
O4A C14A 1_555 1_555
C6A C5A 1_555 1_555
H3A C6A 1_555 1_555
C7A C2A 1_555 1_555
H4A C7A 1_555 1_555
C4 C5 1_555 1_555
C6 C7 1_555 1_555
C11 C14 1_555 1_555
C12 C13 1_555 1_555
C19 C28 1_555 1_555
C26 C25A 1_555 1_555
C27 C28 1_555 1_555
C12A C13A 1_555 1_555
C19A C28A 1_555 1_555
C21A C26A 1_555 1_555
C23A C24A 1_555 1_555
C27A C28A 1_555 1_555
C6A C7A 1_555 1_555

#END
