# generated using pymatgen
data_Fe3P2H75C96S3N18(OF2)6
_symmetry_space_group_name_H-M   'P 1'
_cell_length_a   14.08780000
_cell_length_b   34.44409693
_cell_length_c   34.44409693
_cell_angle_alpha   104.62731415
_cell_angle_beta   100.74902753
_cell_angle_gamma   100.74902753
_symmetry_Int_Tables_number   1
_chemical_formula_structural   Fe3P2H75C96S3N18(OF2)6
_chemical_formula_sum   'Fe12 P8 H300 C384 S12 N72 O24 F48'
_cell_volume   15401.02316672
_cell_formula_units_Z   4
loop_
 _symmetry_equiv_pos_site_id
 _symmetry_equiv_pos_as_xyz
  1  'x, y, z'
loop_
 _atom_site_type_symbol
 _atom_site_label
 _atom_site_symmetry_multiplicity
 _atom_site_fract_x
 _atom_site_fract_y
 _atom_site_fract_z
 _atom_site_occupancy
  C  C1  1  0.356200  0.148200  0.160200  1
  C  C2  1  0.856200  0.160200  0.148200  1
  C  C3  1  0.309700  0.175000  0.183000  1
  C  C4  1  0.809700  0.183000  0.175000  1
  C  C5  1  0.329900  0.181500  0.225300  1
  C  C6  1  0.829900  0.225300  0.181500  1
  C  C7  1  0.394800  0.161700  0.243900  1
  C  C8  1  0.894800  0.243900  0.161700  1
  C  C9  1  0.443000  0.137800  0.219400  1
  C  C10  1  0.943000  0.219400  0.137800  1
  C  C11  1  0.412400  0.164600  0.288400  1
  C  C12  1  0.912400  0.288400  0.164600  1
  C  C13  1  0.432200  0.130800  0.301000  1
  C  C14  1  0.932200  0.301000  0.130800  1
  C  C15  1  0.452200  0.164300  0.369900  1
  C  C16  1  0.952200  0.369900  0.164300  1
  C  C17  1  0.432400  0.199300  0.360900  1
  C  C18  1  0.932400  0.360900  0.199300  1
  C  C19  1  0.412100  0.199300  0.319700  1
  C  C20  1  0.912100  0.319700  0.199300  1
  C  C21  1  0.477500  0.159000  0.412200  1
  C  C22  1  0.977500  0.412200  0.159000  1
  C  C23  1  0.525900  0.114500  0.447700  1
  C  C24  1  0.025900  0.447700  0.114500  1
  C  C25  1  0.518300  0.139900  0.484900  1
  C  C26  1  0.018300  0.484900  0.139900  1
  C  C27  1  0.491000  0.176600  0.484400  1
  C  C28  1  0.991000  0.484400  0.176600  1
  C  C29  1  0.469200  0.186400  0.447400  1
  C  C30  1  0.969200  0.447400  0.186400  1
  C  C31  1  0.538500  0.126100  0.522300  1
  C  C32  1  0.038500  0.522300  0.126100  1
  C  C33  1  0.522200  0.084300  0.520700  1
  C  C34  1  0.022200  0.520700  0.084300  1
  C  C35  1  0.588300  0.098400  0.589600  1
  C  C36  1  0.088300  0.589600  0.098400  1
  C  C37  1  0.604100  0.140600  0.595600  1
  C  C38  1  0.104100  0.595600  0.140600  1
  C  C39  1  0.577900  0.154500  0.561500  1
  C  C40  1  0.077900  0.561500  0.154500  1
  C  C41  1  0.329400  0.133700  0.114900  1
  C  C42  1  0.829400  0.114900  0.133700  1
  C  C43  1  0.357700  0.096300  0.052500  1
  C  C44  1  0.857700  0.052500  0.096300  1
  C  C45  1  0.349800  0.055500  0.030500  1
  C  C46  1  0.849800  0.030500  0.055500  1
  C  C47  1  0.341600  0.043700  0.988300  1
  C  C48  1  0.841600  0.988300  0.043700  1
  C  C49  1  0.338400  0.073200  0.967600  1
  C  C50  1  0.838400  0.967600  0.073200  1
  C  C51  1  0.344700  0.113700  0.988900  1
  C  C52  1  0.844700  0.988900  0.113700  1
  C  C53  1  0.353200  0.125500  0.030900  1
  C  C54  1  0.853200  0.030900  0.125500  1
  C  C55  1  0.336000  0.021500  0.905900  1
  C  C56  1  0.836000  0.905900  0.021500  1
  C  C57  1  0.617100  0.081600  0.623800  1
  C  C58  1  0.117100  0.623800  0.081600  1
  C  C59  1  0.627400  0.029500  0.654100  1
  C  C60  1  0.127400  0.654100  0.029500  1
  C  C61  1  0.645600  0.054300  0.694900  1
  C  C62  1  0.145600  0.694900  0.054300  1
  C  C63  1  0.673300  0.039100  0.727700  1
  C  C64  1  0.173300  0.727700  0.039100  1
  C  C65  1  0.683500  0.999000  0.721000  1
  C  C66  1  0.183500  0.721000  0.999000  1
  C  C67  1  0.664800  0.974200  0.680600  1
  C  C68  1  0.164800  0.680600  0.974200  1
  C  C69  1  0.636200  0.988900  0.647300  1
  C  C70  1  0.136200  0.647300  0.988900  1
  C  C71  1  0.726000  0.944300  0.747100  1
  C  C72  1  0.226000  0.747100  0.944300  1
  C  C73  1  0.385100  0.940600  0.579800  1
  C  C74  1  0.885100  0.579800  0.940600  1
  C  C75  1  0.341000  0.902400  0.582800  1
  C  C76  1  0.841000  0.582800  0.902400  1
  C  C77  1  0.358500  0.867400  0.557400  1
  C  C78  1  0.858500  0.557400  0.867400  1
  C  C79  1  0.420700  0.872300  0.531100  1
  C  C80  1  0.920700  0.531100  0.872300  1
  C  C81  1  0.464100  0.912500  0.532300  1
  C  C82  1  0.964100  0.532300  0.912500  1
  C  C83  1  0.437200  0.837100  0.500900  1
  C  C84  1  0.937200  0.500900  0.837100  1
  C  C85  1  0.443900  0.839800  0.462000  1
  C  C86  1  0.943900  0.462000  0.839800  1
  C  C87  1  0.466100  0.774467  0.441133  1
  C  C88  1  0.966100  0.441133  0.774467  1
  C  C89  1  0.461600  0.768600  0.479000  1
  C  C90  1  0.961600  0.479000  0.768600  1
  C  C91  1  0.446100  0.800200  0.509400  1
  C  C92  1  0.946100  0.509400  0.800200  1
  C  C93  1  0.484500  0.742900  0.406700  1
  C  C94  1  0.984500  0.406700  0.742900  1
  C  C95  1  0.509600  0.732000  0.341800  1
  C  C96  1  0.009600  0.341800  0.732000  1
  C  C97  1  0.516300  0.691600  0.338200  1
  C  C98  1  0.016300  0.338200  0.691600  1
  C  C99  1  0.510000  0.677800  0.372400  1
  C  C100  1  0.010000  0.372400  0.677800  1
  C  C101  1  0.492000  0.703600  0.407000  1
  C  C102  1  0.992000  0.407000  0.703600  1
  C  C103  1  0.528400  0.666900  0.298300  1
  C  C104  1  0.028400  0.298300  0.666900  1
  C  C105  1  0.490600  0.672600  0.260200  1
  C  C106  1  0.990600  0.260200  0.672600  1
  C  C107  1  0.571700  0.628400  0.225400  1
  C  C108  1  0.071700  0.225400  0.628400  1
  C  C109  1  0.608200  0.619100  0.261500  1
  C  C110  1  0.108200  0.261500  0.619100  1
  C  C111  1  0.587100  0.638600  0.298000  1
  C  C112  1  0.087100  0.298000  0.638600  1
  C  C113  1  0.357900  0.978200  0.601000  1
  C  C114  1  0.857900  0.601000  0.978200  1
  C  C115  1  0.378000  0.050200  0.612200  1
  C  C116  1  0.878000  0.612200  0.050200  1
  C  C117  1  0.353700  0.077300  0.590500  1
  C  C118  1  0.853700  0.590500  0.077300  1
  C  C119  1  0.355700  0.117600  0.612000  1
  C  C120  1  0.855700  0.612000  0.117600  1
  C  C121  1  0.379300  0.129200  0.654800  1
  C  C122  1  0.879300  0.654800  0.129200  1
  C  C123  1  0.399700  0.101800  0.676600  1
  C  C124  1  0.899700  0.676600  0.101800  1
  C  C125  1  0.399800  0.062200  0.655200  1
  C  C126  1  0.899800  0.655200  0.062200  1
  C  C127  1  0.365000  0.197200  0.657000  1
  C  C128  1  0.865000  0.657000  0.197200  1
  C  C129  1  0.597500  0.613200  0.185600  1
  C  C130  1  0.097500  0.185600  0.613200  1
  C  C131  1  0.590800  0.618300  0.116300  1
  C  C132  1  0.090800  0.116300  0.618300  1
  C  C133  1  0.625100  0.650800  0.102000  1
  C  C134  1  0.125100  0.102000  0.650800  1
  C  C135  1  0.641600  0.643700  0.062500  1
  C  C136  1  0.141600  0.062500  0.643700  1
  C  C137  1  0.619200  0.603600  0.037600  1
  C  C138  1  0.119200  0.037600  0.603600  1
  C  C139  1  0.584500  0.570600  0.051200  1
  C  C140  1  0.084500  0.051200  0.570600  1
  C  C141  1  0.572300  0.577800  0.091200  1
  C  C142  1  0.072300  0.091200  0.577800  1
  C  C143  1  0.604000  0.556700  0.972500  1
  C  C144  1  0.104000  0.972500  0.556700  1
  C  C145  1  0.374400  0.634600  0.078600  1
  C  C146  1  0.874400  0.078600  0.634600  1
  C  C147  1  0.355000  0.630800  0.036800  1
  C  C148  1  0.855000  0.036800  0.630800  1
  C  C149  1  0.384500  0.666000  0.024800  1
  C  C150  1  0.884500  0.024800  0.666000  1
  C  C151  1  0.430100  0.703600  0.055200  1
  C  C152  1  0.930100  0.055200  0.703600  1
  C  C153  1  0.449200  0.703000  0.096000  1
  C  C154  1  0.949200  0.096000  0.703000  1
  C  C155  1  0.451700  0.744000  0.046800  1
  C  C156  1  0.951700  0.046800  0.744000  1
  C  C157  1  0.446500  0.778700  0.076300  1
  C  C158  1  0.946500  0.076300  0.778700  1
  C  C159  1  0.499200  0.822600  0.039200  1
  C  C160  1  0.999200  0.039200  0.822600  1
  C  C161  1  0.503400  0.789600  0.007600  1
  C  C162  1  0.003400  0.007600  0.789600  1
  C  C163  1  0.479100  0.749400  0.011400  1
  C  C164  1  0.979100  0.011400  0.749400  1
  C  C165  1  0.527400  0.867200  0.041000  1
  C  C166  1  0.027400  0.041000  0.867200  1
  C  C167  1  0.541800  0.933800  0.080800  1
  C  C168  1  0.041800  0.080800  0.933800  1
  C  C169  1  0.551600  0.949600  0.048000  1
  C  C170  1  0.051600  0.048000  0.949600  1
  C  C171  1  0.552600  0.922100  0.011100  1
  C  C172  1  0.052600  0.011100  0.922100  1
  C  C173  1  0.544600  0.880300  0.007700  1
  C  C174  1  0.044600  0.007700  0.880300  1
  C  C175  1  0.563000  0.994300  0.054300  1
  C  C176  1  0.063000  0.054300  0.994300  1
  C  C177  1  0.529000  0.017600  0.085200  1
  C  C178  1  0.029000  0.085200  0.017600  1
  C  C179  1  0.590100  0.078500  0.072300  1
  C  C180  1  0.090100  0.072300  0.078500  1
  C  C181  1  0.624700  0.057700  0.039700  1
  C  C182  1  0.124700  0.039700  0.057700  1
  C  C183  1  0.610400  0.015300  0.030900  1
  C  C184  1  0.110400  0.030900  0.015300  1
  C  C185  1  0.342100  0.600600  0.095000  1
  C  C186  1  0.842100  0.095000  0.600600  1
  C  C187  1  0.336200  0.572700  0.149500  1
  C  C188  1  0.836200  0.149500  0.572700  1
  C  C189  1  0.323500  0.581200  0.189600  1
  C  C190  1  0.823500  0.189600  0.581200  1
  C  C191  1  0.296300  0.550600  0.207200  1
  C  C192  1  0.796300  0.207200  0.550600  1
  C  C193  1  0.280100  0.509900  0.183500  1
  C  C194  1  0.780100  0.183500  0.509900  1
  C  C195  1  0.293100  0.500400  0.143800  1
  C  C196  1  0.793100  0.143800  0.500400  1
  C  C197  1  0.322200  0.531400  0.126400  1
  C  C198  1  0.822200  0.126400  0.531400  1
  C  C199  1  0.237000  0.489000  0.240600  1
  C  C200  1  0.737000  0.240600  0.489000  1
  C  C201  1  0.603400  0.123300  0.085500  1
  C  C202  1  0.103400  0.085500  0.123300  1
  C  C203  1  0.579800  0.183000  0.128600  1
  C  C204  1  0.079800  0.128600  0.183000  1
  C  C205  1  0.582200  0.204900  0.168500  1
  C  C206  1  0.082200  0.168500  0.204900  1
  C  C207  1  0.592600  0.247000  0.181000  1
  C  C208  1  0.092600  0.181000  0.247000  1
  C  C209  1  0.600000  0.268800  0.152600  1
  C  C210  1  0.100000  0.152600  0.268800  1
  C  C211  1  0.596800  0.247600  0.112200  1
  C  C212  1  0.096800  0.112200  0.247600  1
  C  C213  1  0.586100  0.205100  0.100100  1
  C  C214  1  0.086100  0.100100  0.205100  1
  C  C215  1  0.609000  0.331400  0.203200  1
  C  C216  1  0.109000  0.203200  0.331400  1
  C  C217  1  0.341700  0.031900  0.287700  1
  C  C218  1  0.841700  0.287700  0.031900  1
  C  C219  1  0.296500  0.004600  0.249000  1
  C  C220  1  0.796500  0.249000  0.004600  1
  C  C221  1  0.356100  0.987600  0.225000  1
  C  C222  1  0.856100  0.225000  0.987600  1
  C  C223  1  0.459300  0.999600  0.240200  1
  C  C224  1  0.959300  0.240200  0.999600  1
  C  C225  1  0.498100  0.028300  0.278900  1
  C  C226  1  0.998100  0.278900  0.028300  1
  C  C227  1  0.522900  0.979700  0.215500  1
  C  C228  1  0.022900  0.215500  0.979700  1
  C  C229  1  0.483400  0.942500  0.184300  1
  C  C230  1  0.983400  0.184300  0.942500  1
  C  C231  1  0.636300  0.936000  0.175800  1
  C  C232  1  0.136300  0.175800  0.936000  1
  C  C233  1  0.683400  0.974000  0.203800  1
  C  C234  1  0.183400  0.203800  0.974000  1
  C  C235  1  0.625500  0.996200  0.224800  1
  C  C236  1  0.125500  0.224800  0.996200  1
  C  C237  1  0.287000  0.047100  0.318100  1
  C  C238  1  0.787000  0.318100  0.047100  1
  C  C239  1  0.692100  0.906300  0.159300  1
  C  C240  1  0.192100  0.159300  0.906300  1
  C  C241  1  0.287200  0.083600  0.384200  1
  C  C242  1  0.787200  0.384200  0.083600  1
  C  C243  1  0.685500  0.840100  0.120300  1
  C  C244  1  0.185500  0.120300  0.840100  1
  C  C245  1  0.290900  0.070600  0.419600  1
  C  C246  1  0.790900  0.419600  0.070600  1
  C  C247  1  0.671600  0.804100  0.132100  1
  C  C248  1  0.171600  0.132100  0.804100  1
  C  C249  1  0.239500  0.087000  0.447800  1
  C  C250  1  0.739500  0.447800  0.087000  1
  C  C251  1  0.719200  0.774200  0.116200  1
  C  C252  1  0.219200  0.116200  0.774200  1
  C  C253  1  0.183000  0.113800  0.440000  1
  C  C254  1  0.683000  0.440000  0.113800  1
  C  C255  1  0.773900  0.780200  0.088000  1
  C  C256  1  0.273900  0.088000  0.780200  1
  C  C257  1  0.179800  0.128000  0.405400  1
  C  C258  1  0.679800  0.405400  0.128000  1
  C  C259  1  0.787700  0.816100  0.076100  1
  C  C260  1  0.287700  0.076100  0.816100  1
  C  C261  1  0.233800  0.112500  0.378100  1
  C  C262  1  0.733800  0.378100  0.112500  1
  C  C263  1  0.742700  0.846600  0.093000  1
  C  C264  1  0.242700  0.093000  0.846600  1
  C  C265  1  0.135000  0.116000  0.503400  1
  C  C266  1  0.635000  0.503400  0.116000  1
  C  C267  1  0.858000  0.751900  0.036700  1
  C  C268  1  0.358000  0.036700  0.751900  1
  C  C269  1  0.630100  0.049800  0.394600  1
  C  C270  1  0.130100  0.394600  0.049800  1
  C  C271  1  0.676600  0.024500  0.412500  1
  C  C272  1  0.176600  0.412500  0.024500  1
  C  C273  1  0.619300  0.988200  0.415200  1
  C  C274  1  0.119300  0.415200  0.988200  1
  C  C275  1  0.516200  0.978200  0.398600  1
  C  C276  1  0.016200  0.398600  0.978200  1
  C  C277  1  0.475500  0.006000  0.383000  1
  C  C278  1  0.975500  0.383000  0.006000  1
  C  C279  1  0.452300  0.937900  0.395300  1
  C  C280  1  0.952300  0.395300  0.937900  1
  C  C281  1  0.489300  0.903200  0.391000  1
  C  C282  1  0.989300  0.391000  0.903200  1
  C  C283  1  0.337800  0.860600  0.379400  1
  C  C284  1  0.837800  0.379400  0.860600  1
  C  C285  1  0.291700  0.893100  0.385300  1
  C  C286  1  0.791700  0.385300  0.893100  1
  C  C287  1  0.350200  0.933000  0.394000  1
  C  C288  1  0.850200  0.394000  0.933000  1
  C  C289  1  0.683100  0.086100  0.385100  1
  C  C290  1  0.183100  0.385100  0.086100  1
  C  C291  1  0.281000  0.817300  0.364900  1
  C  C292  1  0.781000  0.364900  0.817300  1
  C  C293  1  0.676400  0.137200  0.353000  1
  C  C294  1  0.176400  0.353000  0.137200  1
  C  C295  1  0.277300  0.748300  0.339100  1
  C  C296  1  0.777300  0.339100  0.748300  1
  C  C297  1  0.664400  0.134500  0.311100  1
  C  C298  1  0.164400  0.311100  0.134500  1
  C  C299  1  0.283700  0.725900  0.300300  1
  C  C300  1  0.783700  0.300300  0.725900  1
  C  C301  1  0.719900  0.166700  0.301100  1
  C  C302  1  0.219900  0.301100  0.166700  1
  C  C303  1  0.227000  0.685300  0.282900  1
  C  C304  1  0.727000  0.282900  0.685300  1
  C  C305  1  0.784200  0.200700  0.331900  1
  C  C306  1  0.284200  0.331900  0.200700  1
  C  C307  1  0.165500  0.668800  0.304400  1
  C  C308  1  0.665500  0.304400  0.668800  1
  C  C309  1  0.795500  0.202200  0.373000  1
  C  C310  1  0.295500  0.373000  0.202200  1
  C  C311  1  0.159000  0.690500  0.342700  1
  C  C312  1  0.659000  0.342700  0.690500  1
  C  C313  1  0.741400  0.170400  0.383600  1
  C  C314  1  0.241400  0.383600  0.170400  1
  C  C315  1  0.215000  0.731100  0.360100  1
  C  C316  1  0.715000  0.360100  0.731100  1
  C  C317  1  0.831000  0.239600  0.286200  1
  C  C318  1  0.331000  0.286200  0.239600  1
  C  C319  1  0.097000  0.608700  0.248300  1
  C  C320  1  0.597000  0.248300  0.608700  1
  C  C321  1  0.340100  0.830800  0.148400  1
  C  C322  1  0.840100  0.148400  0.830800  1
  C  C323  1  0.288000  0.810500  0.170900  1
  C  C324  1  0.788000  0.170900  0.810500  1
  C  C325  1  0.340200  0.803700  0.205700  1
  C  C326  1  0.840200  0.205700  0.803700  1
  C  C327  1  0.443700  0.817100  0.217100  1
  C  C328  1  0.943700  0.217100  0.817100  1
  C  C329  1  0.488200  0.835700  0.191500  1
  C  C330  1  0.988200  0.191500  0.835700  1
  C  C331  1  0.502200  0.815100  0.257100  1
  C  C332  1  0.002200  0.257100  0.815100  1
  C  C333  1  0.462800  0.815000  0.291000  1
  C  C334  1  0.962800  0.291000  0.815000  1
  C  C335  1  0.616500  0.819900  0.332100  1
  C  C336  1  0.116500  0.332100  0.819900  1
  C  C337  1  0.661200  0.818200  0.299600  1
  C  C338  1  0.161200  0.299600  0.818200  1
  C  C339  1  0.603300  0.816000  0.261600  1
  C  C340  1  0.103300  0.261600  0.816000  1
  C  C341  1  0.289100  0.844000  0.114400  1
  C  C342  1  0.789100  0.114400  0.844000  1
  C  C343  1  0.672300  0.829200  0.375000  1
  C  C344  1  0.172300  0.375000  0.829200  1
  C  C345  1  0.309400  0.883900  0.069500  1
  C  C346  1  0.809400  0.069500  0.883900  1
  C  C347  1  0.674800  0.844700  0.443900  1
  C  C348  1  0.174800  0.443900  0.844700  1
  C  C349  1  0.296200  0.924000  0.080800  1
  C  C350  1  0.796200  0.080800  0.924000  1
  C  C351  1  0.670600  0.881100  0.471300  1
  C  C352  1  0.170600  0.471300  0.881100  1
  C  C353  1  0.264700  0.942300  0.050900  1
  C  C354  1  0.764700  0.050900  0.942300  1
  C  C355  1  0.725700  0.893400  0.511800  1
  C  C356  1  0.225700  0.511800  0.893400  1
  C  C357  1  0.248500  0.921300  0.009500  1
  C  C358  1  0.748500  0.009500  0.921300  1
  C  C359  1  0.786900  0.870000  0.525000  1
  C  C360  1  0.286900  0.525000  0.870000  1
  C  C361  1  0.261100  0.881700  0.998500  1
  C  C362  1  0.761100  0.998500  0.881700  1
  C  C363  1  0.790800  0.833000  0.497800  1
  C  C364  1  0.290800  0.497800  0.833000  1
  C  C365  1  0.289500  0.862700  0.028100  1
  C  C366  1  0.789500  0.028100  0.862700  1
  C  C367  1  0.735900  0.821100  0.457300  1
  C  C368  1  0.235900  0.457300  0.821100  1
  C  C369  1  0.194000  0.921400  0.939000  1
  C  C370  1  0.694000  0.939000  0.921400  1
  C  C371  1  0.852000  0.925900  0.587500  1
  C  C372  1  0.352000  0.587500  0.925900  1
  C  C373  1  0.303700  0.984800  0.484800  1
  C  C374  1  0.803700  0.484800  0.984800  1
  C  C375  1  0.698900  0.999900  0.522500  1
  C  C376  1  0.198900  0.522500  0.999900  1
  C  C377  1  0.274000  0.698300  0.181900  1
  C  C378  1  0.774000  0.181900  0.698300  1
  C  C379  1  0.650600  0.734100  0.197900  1
  C  C380  1  0.150600  0.197900  0.734100  1
  C  C381  1  0.310200  0.028300  0.143700  1
  C  C382  1  0.810200  0.143700  0.028300  1
  C  C383  1  0.676600  0.094000  0.200600  1
  C  C384  1  0.176600  0.200600  0.094000  1
  F  F385  1  0.919600  0.019700  0.230100  1
  F  F386  1  0.419600  0.230100  0.019700  1
  F  F387  1  0.922700  0.953500  0.198900  1
  F  F388  1  0.422700  0.198900  0.953500  1
  F  F389  1  0.052300  0.959100  0.252500  1
  F  F390  1  0.552300  0.252500  0.959100  1
  F  F391  1  0.910400  0.974800  0.265000  1
  F  F392  1  0.410400  0.265000  0.974800  1
  F  F393  1  0.064200  0.006000  0.215000  1
  F  F394  1  0.564200  0.215000  0.006000  1
  F  F395  1  0.050300  0.025700  0.281700  1
  F  F396  1  0.550300  0.281700  0.025700  1
  F  F397  1  0.854000  0.351600  0.354400  1
  F  F398  1  0.354000  0.354400  0.351600  1
  F  F399  1  0.857000  0.412900  0.345300  1
  F  F400  1  0.357000  0.345300  0.412900  1
  F  F401  1  0.834000  0.389100  0.277300  1
  F  F402  1  0.334000  0.277300  0.389100  1
  F  F403  1  0.813000  0.321900  0.279700  1
  F  F404  1  0.313000  0.279700  0.321900  1
  F  F405  1  0.959000  0.374100  0.316900  1
  F  F406  1  0.459000  0.316900  0.374100  1
  F  F407  1  0.723000  0.360800  0.309400  1
  F  F408  1  0.223000  0.309400  0.360800  1
  F  F409  1  0.061100  0.877100  0.394100  1
  F  F410  1  0.561100  0.394100  0.877100  1
  F  F411  1  0.036800  0.807900  0.365700  1
  F  F412  1  0.536800  0.365700  0.807900  1
  F  F413  1  0.905400  0.808700  0.313300  1
  F  F414  1  0.405400  0.313300  0.808700  1
  F  F415  1  0.912600  0.873700  0.345300  1
  F  F416  1  0.412600  0.345300  0.873700  1
  F  F417  1  0.912600  0.829700  0.384700  1
  F  F418  1  0.412600  0.384700  0.829700  1
  F  F419  1  0.049500  0.854400  0.325400  1
  F  F420  1  0.549500  0.325400  0.854400  1
  F  F421  1  0.912000  0.566700  0.206900  1
  F  F422  1  0.412000  0.206900  0.566700  1
  F  F423  1  0.740000  0.564400  0.200800  1
  F  F424  1  0.240000  0.200800  0.564400  1
  F  F425  1  0.745000  0.546500  0.258300  1
  F  F426  1  0.245000  0.258300  0.546500  1
  F  F427  1  0.917000  0.549800  0.267200  1
  F  F428  1  0.417000  0.267200  0.549800  1
  F  F429  1  0.859000  0.605600  0.259600  1
  F  F430  1  0.359000  0.259600  0.605600  1
  F  F431  1  0.802000  0.508200  0.207600  1
  F  F432  1  0.302000  0.207600  0.508200  1
  Fe  Fe433  1  0.484810  0.083980  0.358320  1
  Fe  Fe434  1  0.984810  0.358320  0.083980  1
  Fe  Fe435  1  0.493320  0.868250  0.119350  1
  Fe  Fe436  1  0.993320  0.119350  0.868250  1
  Fe  Fe437  1  0.462100  0.664270  0.168410  1
  Fe  Fe438  1  0.962100  0.168410  0.664270  1
  Fe  Fe439  1  0.485700  0.094460  0.137220  1
  Fe  Fe440  1  0.985700  0.137220  0.094460  1
  Fe  Fe441  1  0.502700  0.006570  0.553170  1
  Fe  Fe442  1  0.002700  0.553170  0.006570  1
  Fe  Fe443  1  0.477900  0.812800  0.378500  1
  Fe  Fe444  1  0.977900  0.378500  0.812800  1
  H  H445  1  0.266000  0.188500  0.169900  1
  H  H446  1  0.766000  0.169900  0.188500  1
  H  H447  1  0.299300  0.199400  0.241800  1
  H  H448  1  0.799300  0.241800  0.199400  1
  H  H449  1  0.490100  0.125500  0.232100  1
  H  H450  1  0.990100  0.232100  0.125500  1
  H  H451  1  0.430800  0.106500  0.280100  1
  H  H452  1  0.930800  0.280100  0.106500  1
  H  H453  1  0.432600  0.222900  0.382300  1
  H  H454  1  0.932600  0.382300  0.222900  1
  H  H455  1  0.397900  0.223000  0.313000  1
  H  H456  1  0.897900  0.313000  0.223000  1
  H  H457  1  0.547400  0.090100  0.447900  1
  H  H458  1  0.047400  0.447900  0.090100  1
  H  H459  1  0.487200  0.195000  0.509400  1
  H  H460  1  0.987200  0.509400  0.195000  1
  H  H461  1  0.449400  0.211200  0.446600  1
  H  H462  1  0.949400  0.446600  0.211200  1
  H  H463  1  0.492500  0.064400  0.494400  1
  H  H464  1  0.992500  0.494400  0.064400  1
  H  H465  1  0.632400  0.159700  0.622300  1
  H  H466  1  0.132400  0.622300  0.159700  1
  H  H467  1  0.586700  0.183300  0.564900  1
  H  H468  1  0.086700  0.564900  0.183300  1
  H  H469  1  0.280700  0.143500  0.099500  1
  H  H470  1  0.780700  0.099500  0.143500  1
  H  H471  1  0.350000  0.035200  0.044800  1
  H  H472  1  0.850000  0.044800  0.035200  1
  H  H473  1  0.338300  0.015800  0.973800  1
  H  H474  1  0.838300  0.973800  0.015800  1
  H  H475  1  0.343200  0.133800  0.974400  1
  H  H476  1  0.843200  0.974400  0.133800  1
  H  H477  1  0.355900  0.153300  0.045300  1
  H  H478  1  0.855900  0.045300  0.153300  1
  H  H479  1  0.331100  0.017500  0.876300  1
  H  H480  1  0.831100  0.876300  0.017500  1
  H  H481  1  0.399600  0.016900  0.918700  1
  H  H482  1  0.899600  0.918700  0.016900  1
  H  H483  1  0.280900  0.001900  0.909500  1
  H  H484  1  0.780900  0.909500  0.001900  1
  H  H485  1  0.649500  0.100300  0.650500  1
  H  H486  1  0.149500  0.650500  0.100300  1
  H  H487  1  0.638900  0.081900  0.700300  1
  H  H488  1  0.138900  0.700300  0.081900  1
  H  H489  1  0.685500  0.056500  0.755300  1
  H  H490  1  0.185500  0.755300  0.056500  1
  H  H491  1  0.671600  0.946600  0.675600  1
  H  H492  1  0.171600  0.675600  0.946600  1
  H  H493  1  0.622800  0.971200  0.619800  1
  H  H494  1  0.122800  0.619800  0.971200  1
  H  H495  1  0.747400  0.939000  0.773600  1
  H  H496  1  0.247400  0.773600  0.939000  1
  H  H497  1  0.662000  0.924800  0.731600  1
  H  H498  1  0.162000  0.731600  0.924800  1
  H  H499  1  0.775900  0.940800  0.731200  1
  H  H500  1  0.275900  0.731200  0.940800  1
  H  H501  1  0.300300  0.900200  0.601600  1
  H  H502  1  0.800300  0.601600  0.900200  1
  H  H503  1  0.328300  0.840600  0.558000  1
  H  H504  1  0.828300  0.558000  0.840600  1
  H  H505  1  0.507800  0.915600  0.514800  1
  H  H506  1  0.007800  0.514800  0.915600  1
  H  H507  1  0.438000  0.864900  0.456300  1
  H  H508  1  0.938000  0.456300  0.864900  1
  H  H509  1  0.469100  0.743400  0.484200  1
  H  H510  1  0.969100  0.484200  0.743400  1
  H  H511  1  0.441600  0.796700  0.535500  1
  H  H512  1  0.941600  0.535500  0.796700  1
  H  H513  1  0.516100  0.741900  0.318900  1
  H  H514  1  0.016100  0.318900  0.741900  1
  H  H515  1  0.518200  0.651000  0.372200  1
  H  H516  1  0.018200  0.372200  0.651000  1
  H  H517  1  0.484000  0.694200  0.430200  1
  H  H518  1  0.984000  0.430200  0.694200  1
  H  H519  1  0.447300  0.690700  0.259500  1
  H  H520  1  0.947300  0.259500  0.690700  1
  H  H521  1  0.647500  0.599400  0.261000  1
  H  H522  1  0.147500  0.261000  0.599400  1
  H  H523  1  0.612500  0.632600  0.322800  1
  H  H524  1  0.112500  0.322800  0.632600  1
  H  H525  1  0.317100  0.978000  0.620000  1
  H  H526  1  0.817100  0.620000  0.978000  1
  H  H527  1  0.335700  0.068400  0.561200  1
  H  H528  1  0.835700  0.561200  0.068400  1
  H  H529  1  0.341000  0.136800  0.597600  1
  H  H530  1  0.841000  0.597600  0.136800  1
  H  H531  1  0.413500  0.110300  0.705900  1
  H  H532  1  0.913500  0.705900  0.110300  1
  H  H533  1  0.414700  0.043200  0.669800  1
  H  H534  1  0.914700  0.669800  0.043200  1
  H  H535  1  0.371600  0.224200  0.677000  1
  H  H536  1  0.871600  0.677000  0.224200  1
  H  H537  1  0.411400  0.200300  0.639500  1
  H  H538  1  0.911400  0.639500  0.200300  1
  H  H539  1  0.296300  0.187200  0.639600  1
  H  H540  1  0.796300  0.639600  0.187200  1
  H  H541  1  0.633500  0.592300  0.182300  1
  H  H542  1  0.133500  0.182300  0.592300  1
  H  H543  1  0.637500  0.678500  0.119300  1
  H  H544  1  0.137500  0.119300  0.678500  1
  H  H545  1  0.667700  0.666100  0.053100  1
  H  H546  1  0.167700  0.053100  0.666100  1
  H  H547  1  0.569100  0.543200  0.033200  1
  H  H548  1  0.069100  0.033200  0.543200  1
  H  H549  1  0.551300  0.555300  0.101300  1
  H  H550  1  0.051300  0.101300  0.555300  1
  H  H551  1  0.616600  0.556100  0.945300  1
  H  H552  1  0.116600  0.945300  0.556100  1
  H  H553  1  0.643000  0.540200  0.984800  1
  H  H554  1  0.143000  0.984800  0.540200  1
  H  H555  1  0.533000  0.545300  0.969300  1
  H  H556  1  0.033000  0.969300  0.545300  1
  H  H557  1  0.322400  0.604900  0.016700  1
  H  H558  1  0.822400  0.016700  0.604900  1
  H  H559  1  0.373600  0.664400  0.996400  1
  H  H560  1  0.873600  0.996400  0.664400  1
  H  H561  1  0.483500  0.728300  0.116500  1
  H  H562  1  0.983500  0.116500  0.728300  1
  H  H563  1  0.424200  0.775300  0.099900  1
  H  H564  1  0.924200  0.099900  0.775300  1
  H  H565  1  0.522500  0.793900  0.983700  1
  H  H566  1  0.022500  0.983700  0.793900  1
  H  H567  1  0.481300  0.726200  0.990000  1
  H  H568  1  0.981300  0.990000  0.726200  1
  H  H569  1  0.546500  0.952400  0.107000  1
  H  H570  1  0.046500  0.107000  0.952400  1
  H  H571  1  0.558900  0.931800  0.988000  1
  H  H572  1  0.058900  0.988000  0.931800  1
  H  H573  1  0.550700  0.861700  0.983300  1
  H  H574  1  0.050700  0.983300  0.861700  1
  H  H575  1  0.494900  0.003600  0.101000  1
  H  H576  1  0.994900  0.101000  0.003600  1
  H  H577  1  0.657300  0.072300  0.023900  1
  H  H578  1  0.157300  0.023900  0.072300  1
  H  H579  1  0.633200  0.000400  0.008800  1
  H  H580  1  0.133200  0.008800  0.000400  1
  H  H581  1  0.306600  0.574100  0.076700  1
  H  H582  1  0.806600  0.076700  0.574100  1
  H  H583  1  0.334000  0.609200  0.205400  1
  H  H584  1  0.834000  0.205400  0.609200  1
  H  H585  1  0.288900  0.557000  0.234800  1
  H  H586  1  0.788900  0.234800  0.557000  1
  H  H587  1  0.282100  0.472300  0.128100  1
  H  H588  1  0.782100  0.128100  0.472300  1
  H  H589  1  0.332400  0.524800  0.099200  1
  H  H590  1  0.832400  0.099200  0.524800  1
  H  H591  1  0.217600  0.463800  0.248400  1
  H  H592  1  0.717600  0.248400  0.463800  1
  H  H593  1  0.299700  0.506600  0.260000  1
  H  H594  1  0.799700  0.260000  0.506600  1
  H  H595  1  0.185100  0.504100  0.241500  1
  H  H596  1  0.685100  0.241500  0.504100  1
  H  H597  1  0.635700  0.140200  0.071400  1
  H  H598  1  0.135700  0.071400  0.140200  1
  H  H599  1  0.576400  0.190300  0.188300  1
  H  H600  1  0.076400  0.188300  0.190300  1
  H  H601  1  0.594600  0.261000  0.208800  1
  H  H602  1  0.094600  0.208800  0.261000  1
  H  H603  1  0.602000  0.262400  0.092600  1
  H  H604  1  0.102000  0.092600  0.262400  1
  H  H605  1  0.583000  0.191000  0.072200  1
  H  H606  1  0.083000  0.072200  0.191000  1
  H  H607  1  0.615500  0.360900  0.206900  1
  H  H608  1  0.115500  0.206900  0.360900  1
  H  H609  1  0.546100  0.319400  0.209000  1
  H  H610  1  0.046100  0.209000  0.319400  1
  H  H611  1  0.664800  0.327500  0.222300  1
  H  H612  1  0.164800  0.222300  0.327500  1
  H  H613  1  0.226100  0.997600  0.239000  1
  H  H614  1  0.726100  0.239000  0.997600  1
  H  H615  1  0.326900  0.968000  0.198400  1
  H  H616  1  0.826900  0.198400  0.968000  1
  H  H617  1  0.568400  0.036700  0.289300  1
  H  H618  1  0.068400  0.289300  0.036700  1
  H  H619  1  0.413100  0.932000  0.176800  1
  H  H620  1  0.913100  0.176800  0.932000  1
  H  H621  1  0.753200  0.984800  0.208800  1
  H  H622  1  0.253200  0.208800  0.984800  1
  H  H623  1  0.655500  0.022300  0.245100  1
  H  H624  1  0.155500  0.245100  0.022300  1
  H  H625  1  0.216300  0.041500  0.311300  1
  H  H626  1  0.716300  0.311300  0.041500  1
  H  H627  1  0.762800  0.912900  0.164700  1
  H  H628  1  0.262800  0.164700  0.912900  1
  H  H629  1  0.327600  0.051000  0.424200  1
  H  H630  1  0.827600  0.424200  0.051000  1
  H  H631  1  0.630700  0.800100  0.150500  1
  H  H632  1  0.130700  0.150500  0.800100  1
  H  H633  1  0.243700  0.079700  0.472700  1
  H  H634  1  0.743700  0.472700  0.079700  1
  H  H635  1  0.714200  0.749900  0.124700  1
  H  H636  1  0.214200  0.124700  0.749900  1
  H  H637  1  0.142500  0.147500  0.400900  1
  H  H638  1  0.642500  0.400900  0.147500  1
  H  H639  1  0.826700  0.819500  0.056900  1
  H  H640  1  0.326700  0.056900  0.819500  1
  H  H641  1  0.234100  0.121800  0.354400  1
  H  H642  1  0.734100  0.354400  0.121800  1
  H  H643  1  0.751300  0.871800  0.085800  1
  H  H644  1  0.251300  0.085800  0.871800  1
  H  H645  1  0.092600  0.128500  0.519700  1
  H  H646  1  0.592600  0.519700  0.128500  1
  H  H647  1  0.114000  0.085800  0.496200  1
  H  H648  1  0.614000  0.496200  0.085800  1
  H  H649  1  0.204700  0.125500  0.519900  1
  H  H650  1  0.704700  0.519900  0.125500  1
  H  H651  1  0.880000  0.726600  0.026800  1
  H  H652  1  0.380000  0.026800  0.726600  1
  H  H653  1  0.811200  0.755600  0.014000  1
  H  H654  1  0.311200  0.014000  0.755600  1
  H  H655  1  0.916100  0.775600  0.047200  1
  H  H656  1  0.416100  0.047200  0.775600  1
  H  H657  1  0.746900  0.031800  0.423000  1
  H  H658  1  0.246900  0.423000  0.031800  1
  H  H659  1  0.649500  0.970500  0.427900  1
  H  H660  1  0.149500  0.427900  0.970500  1
  H  H661  1  0.405100  0.999900  0.373300  1
  H  H662  1  0.905100  0.373300  0.999900  1
  H  H663  1  0.559100  0.907200  0.393800  1
  H  H664  1  0.059100  0.393800  0.907200  1
  H  H665  1  0.222100  0.888300  0.383300  1
  H  H666  1  0.722100  0.383300  0.888300  1
  H  H667  1  0.322000  0.956200  0.399200  1
  H  H668  1  0.822000  0.399200  0.956200  1
  H  H669  1  0.753600  0.096000  0.393800  1
  H  H670  1  0.253600  0.393800  0.096000  1
  H  H671  1  0.211200  0.809600  0.362400  1
  H  H672  1  0.711200  0.362400  0.809600  1
  H  H673  1  0.619800  0.111300  0.290100  1
  H  H674  1  0.119800  0.290100  0.111300  1
  H  H675  1  0.326300  0.738100  0.285900  1
  H  H676  1  0.826300  0.285900  0.738100  1
  H  H677  1  0.713900  0.165500  0.272900  1
  H  H678  1  0.213900  0.272900  0.165500  1
  H  H679  1  0.229800  0.669300  0.256500  1
  H  H680  1  0.729800  0.256500  0.669300  1
  H  H681  1  0.840600  0.225000  0.394000  1
  H  H682  1  0.340600  0.394000  0.225000  1
  H  H683  1  0.116200  0.678100  0.356900  1
  H  H684  1  0.616200  0.356900  0.678100  1
  H  H685  1  0.749100  0.171300  0.411900  1
  H  H686  1  0.249100  0.411900  0.171300  1
  H  H687  1  0.211000  0.747000  0.386400  1
  H  H688  1  0.711000  0.386400  0.747000  1
  H  H689  1  0.875200  0.266100  0.288500  1
  H  H690  1  0.375200  0.288500  0.266100  1
  H  H691  1  0.851900  0.217000  0.269000  1
  H  H692  1  0.351900  0.269000  0.217000  1
  H  H693  1  0.762500  0.239000  0.273600  1
  H  H694  1  0.262500  0.273600  0.239000  1
  H  H695  1  0.049700  0.581600  0.240200  1
  H  H696  1  0.549700  0.240200  0.581600  1
  H  H697  1  0.074500  0.624700  0.230100  1
  H  H698  1  0.574500  0.230100  0.624700  1
  H  H699  1  0.163100  0.605000  0.246000  1
  H  H700  1  0.663100  0.246000  0.605000  1
  H  H701  1  0.217400  0.801300  0.162500  1
  H  H702  1  0.717400  0.162500  0.801300  1
  H  H703  1  0.305800  0.790100  0.221700  1
  H  H704  1  0.805800  0.221700  0.790100  1
  H  H705  1  0.558900  0.844200  0.198800  1
  H  H706  1  0.058900  0.198800  0.844200  1
  H  H707  1  0.393500  0.813200  0.287800  1
  H  H708  1  0.893500  0.287800  0.813200  1
  H  H709  1  0.729900  0.818400  0.303200  1
  H  H710  1  0.229900  0.303200  0.818400  1
  H  H711  1  0.632200  0.815000  0.238600  1
  H  H712  1  0.132200  0.238600  0.815000  1
  H  H713  1  0.218800  0.836300  0.103700  1
  H  H714  1  0.718800  0.103700  0.836300  1
  H  H715  1  0.742100  0.831700  0.382700  1
  H  H716  1  0.242100  0.382700  0.831700  1
  H  H717  1  0.308900  0.938900  0.109300  1
  H  H718  1  0.808900  0.109300  0.938900  1
  H  H719  1  0.629700  0.897700  0.462100  1
  H  H720  1  0.129700  0.462100  0.897700  1
  H  H721  1  0.254300  0.969300  0.058900  1
  H  H722  1  0.754300  0.058900  0.969300  1
  H  H723  1  0.721300  0.918000  0.530600  1
  H  H724  1  0.221300  0.530600  0.918000  1
  H  H725  1  0.250200  0.867100  0.970100  1
  H  H726  1  0.750200  0.970100  0.867100  1
  H  H727  1  0.831000  0.816300  0.507100  1
  H  H728  1  0.331000  0.507100  0.816300  1
  H  H729  1  0.295200  0.834900  0.019900  1
  H  H730  1  0.795200  0.019900  0.834900  1
  H  H731  1  0.740000  0.796400  0.438400  1
  H  H732  1  0.240000  0.438400  0.796400  1
  H  H733  1  0.173100  0.940500  0.924300  1
  H  H734  1  0.673100  0.924300  0.940500  1
  H  H735  1  0.252600  0.913700  0.931100  1
  H  H736  1  0.752600  0.931100  0.913700  1
  H  H737  1  0.139400  0.896600  0.931800  1
  H  H738  1  0.639400  0.931800  0.896600  1
  H  H739  1  0.900100  0.933500  0.614300  1
  H  H740  1  0.400100  0.614300  0.933500  1
  H  H741  1  0.870800  0.945700  0.572500  1
  H  H742  1  0.370800  0.572500  0.945700  1
  H  H743  1  0.785300  0.926400  0.591800  1
  H  H744  1  0.285300  0.591800  0.926400  1
  N  N745  1  0.425500  0.131200  0.177800  1
  N  N746  1  0.925500  0.177800  0.131200  1
  N  N747  1  0.452900  0.130300  0.340300  1
  N  N748  1  0.952900  0.340300  0.130300  1
  N  N749  1  0.504100  0.122900  0.410900  1
  N  N750  1  0.004100  0.410900  0.122900  1
  N  N751  1  0.544800  0.070100  0.552900  1
  N  N752  1  0.044800  0.552900  0.070100  1
  N  N753  1  0.372000  0.108100  0.096500  1
  N  N754  1  0.872000  0.096500  0.108100  1
  N  N755  1  0.600100  0.043400  0.619000  1
  N  N756  1  0.100100  0.619000  0.043400  1
  N  N757  1  0.449800  0.946800  0.556000  1
  N  N758  1  0.949800  0.556000  0.946800  1
  N  N759  1  0.457900  0.809900  0.432100  1
  N  N760  1  0.957900  0.432100  0.809900  1
  N  N761  1  0.495000  0.758000  0.374600  1
  N  N762  1  0.995000  0.374600  0.758000  1
  N  N763  1  0.511400  0.654300  0.224900  1
  N  N764  1  0.011400  0.224900  0.654300  1
  N  N765  1  0.392800  0.011500  0.592300  1
  N  N766  1  0.892800  0.592300  0.011500  1
  N  N767  1  0.572700  0.627400  0.156200  1
  N  N768  1  0.072700  0.156200  0.627400  1
  N  N769  1  0.424000  0.670300  0.108700  1
  N  N770  1  0.924000  0.108700  0.670300  1
  N  N771  1  0.471300  0.816800  0.073000  1
  N  N772  1  0.971300  0.073000  0.816800  1
  N  N773  1  0.526100  0.893600  0.077000  1
  N  N774  1  0.026100  0.077000  0.893600  1
  N  N775  1  0.541000  0.059000  0.094600  1
  N  N776  1  0.041000  0.094600  0.059000  1
  N  N777  1  0.361600  0.606700  0.133900  1
  N  N778  1  0.861600  0.133900  0.606700  1
  N  N779  1  0.569800  0.139600  0.117000  1
  N  N780  1  0.069800  0.117000  0.139600  1
  N  N781  1  0.441200  0.044500  0.302300  1
  N  N782  1  0.941200  0.302300  0.044500  1
  N  N783  1  0.537600  0.920600  0.163800  1
  N  N784  1  0.037600  0.163800  0.920600  1
  N  N785  1  0.340400  0.068700  0.354900  1
  N  N786  1  0.840400  0.354900  0.068700  1
  N  N787  1  0.637300  0.870800  0.137000  1
  N  N788  1  0.137300  0.137000  0.870800  1
  N  N789  1  0.530600  0.041500  0.380900  1
  N  N790  1  0.030600  0.380900  0.041500  1
  N  N791  1  0.628000  0.103200  0.364600  1
  N  N792  1  0.128000  0.364600  0.103200  1
  N  N793  1  0.436400  0.864500  0.383100  1
  N  N794  1  0.936400  0.383100  0.864500  1
  N  N795  1  0.331300  0.789900  0.355700  1
  N  N796  1  0.831300  0.355700  0.789900  1
  N  N797  1  0.440900  0.842800  0.157200  1
  N  N798  1  0.940900  0.157200  0.842800  1
  N  N799  1  0.518000  0.817600  0.328400  1
  N  N800  1  0.018000  0.328400  0.817600  1
  N  N801  1  0.349200  0.867100  0.100300  1
  N  N802  1  0.849200  0.100300  0.867100  1
  N  N803  1  0.618200  0.833700  0.402100  1
  N  N804  1  0.118200  0.402100  0.833700  1
  N  N805  1  0.390200  0.993400  0.498400  1
  N  N806  1  0.890200  0.498400  0.993400  1
  N  N807  1  0.622600  0.993400  0.530600  1
  N  N808  1  0.122600  0.530600  0.993400  1
  N  N809  1  0.347900  0.687600  0.187600  1
  N  N810  1  0.847900  0.187600  0.687600  1
  N  N811  1  0.566500  0.717800  0.186400  1
  N  N812  1  0.066500  0.186400  0.717800  1
  N  N813  1  0.387300  0.043800  0.140000  1
  N  N814  1  0.887300  0.140000  0.043800  1
  N  N815  1  0.602200  0.097000  0.182800  1
  N  N816  1  0.102200  0.182800  0.097000  1
  O  O817  1  0.331900  0.063300  0.925500  1
  O  O818  1  0.831900  0.925500  0.063300  1
  O  O819  1  0.713800  0.985600  0.754600  1
  O  O820  1  0.213800  0.754600  0.985600  1
  O  O821  1  0.386000  0.168400  0.678600  1
  O  O822  1  0.886000  0.678600  0.168400  1
  O  O823  1  0.632600  0.598100  0.998500  1
  O  O824  1  0.132600  0.998500  0.598100  1
  O  O825  1  0.252000  0.478300  0.199700  1
  O  O826  1  0.752000  0.199700  0.478300  1
  O  O827  1  0.609000  0.310800  0.161400  1
  O  O828  1  0.109000  0.161400  0.310800  1
  O  O829  1  0.128300  0.128100  0.466900  1
  O  O830  1  0.628300  0.466900  0.128100  1
  O  O831  1  0.810400  0.748500  0.069300  1
  O  O832  1  0.310400  0.069300  0.748500  1
  O  O833  1  0.837400  0.234900  0.325300  1
  O  O834  1  0.337400  0.325300  0.234900  1
  O  O835  1  0.102000  0.630500  0.290100  1
  O  O836  1  0.602000  0.290100  0.630500  1
  O  O837  1  0.217300  0.940700  0.981500  1
  O  O838  1  0.717300  0.981500  0.940700  1
  O  O839  1  0.851000  0.885200  0.563600  1
  O  O840  1  0.351000  0.563600  0.885200  1
  P  P841  1  0.986900  0.988720  0.239280  1
  P  P842  1  0.486900  0.239280  0.988720  1
  P  P843  1  0.842000  0.367000  0.313400  1
  P  P844  1  0.342000  0.313400  0.367000  1
  P  P845  1  0.979300  0.842500  0.355100  1
  P  P846  1  0.479300  0.355100  0.842500  1
  P  P847  1  0.829400  0.557300  0.232700  1
  P  P848  1  0.329400  0.232700  0.557300  1
  S  S849  1  0.191600  0.977200  0.458200  1
  S  S850  1  0.691600  0.458200  0.977200  1
  S  S851  1  0.807400  0.003060  0.510300  1
  S  S852  1  0.307400  0.510300  0.003060  1
  S  S853  1  0.165900  0.710410  0.177550  1
  S  S854  1  0.665900  0.177550  0.710410  1
  S  S855  1  0.765800  0.757300  0.218900  1
  S  S856  1  0.265800  0.218900  0.757300  1
  S  S857  1  0.203700  0.003640  0.147220  1
  S  S858  1  0.703700  0.147220  0.003640  1
  S  S859  1  0.784100  0.091040  0.225400  1
  S  S860  1  0.284100  0.225400  0.091040  1
