# generated using pymatgen
data_Fe7H147C196Br10N41Cl19O36
_symmetry_space_group_name_H-M   'P 1'
_cell_length_a   16.00890000
_cell_length_b   25.86220000
_cell_length_c   29.87900000
_cell_angle_alpha   89.88000000
_cell_angle_beta   89.85200000
_cell_angle_gamma   72.39600000
_symmetry_Int_Tables_number   1
_chemical_formula_structural   Fe7H147C196Br10N41Cl19O36
_chemical_formula_sum   'Fe14 H294 C392 Br20 N82 Cl38 O72'
_cell_volume   11791.28991580
_cell_formula_units_Z   2
loop_
 _symmetry_equiv_pos_site_id
 _symmetry_equiv_pos_as_xyz
  1  'x, y, z'
loop_
 _atom_site_type_symbol
 _atom_site_label
 _atom_site_symmetry_multiplicity
 _atom_site_fract_x
 _atom_site_fract_y
 _atom_site_fract_z
 _atom_site_occupancy
  Fe  Fe1  1  0.271160  0.493310  0.266520  1
  Fe  Fe2  1  0.728840  0.506690  0.733480  1
  Fe  Fe3  1  0.925510  0.829040  0.398930  1
  Fe  Fe4  1  0.074490  0.170960  0.601070  1
  Fe  Fe5  1  0.011650  0.802440  0.081090  1
  Fe  Fe6  1  0.988350  0.197560  0.918910  1
  Fe  Fe7  1  0.161800  0.566570  0.510120  1
  Fe  Fe8  1  0.838200  0.433430  0.489880  1
  Fe  Fe9  1  0.736820  0.042050  0.218970  1
  Fe  Fe10  1  0.263180  0.957950  0.781030  1
  Fe  Fe11  1  0.272300  0.514600  0.007590  1
  Fe  Fe12  1  0.727700  0.485400  0.992410  1
  Fe  Fe13  1  0.233150  0.742010  0.253820  1
  Fe  Fe14  1  0.766850  0.257990  0.746180  1
  H  H15  1  0.519100  0.440300  0.289700  1
  H  H16  1  0.480900  0.559700  0.710300  1
  H  H17  1  0.595100  0.393400  0.352200  1
  H  H18  1  0.404900  0.606600  0.647800  1
  H  H19  1  0.427400  0.498600  0.435100  1
  H  H20  1  0.572600  0.501400  0.564900  1
  H  H21  1  0.346600  0.543300  0.372000  1
  H  H22  1  0.653400  0.456700  0.628000  1
  H  H23  1  0.445700  0.559600  0.265700  1
  H  H24  1  0.554300  0.440400  0.734300  1
  H  H25  1  0.401800  0.617300  0.191900  1
  H  H26  1  0.598200  0.382700  0.808100  1
  H  H27  1  0.288900  0.652000  0.137800  1
  H  H28  1  0.711100  0.348000  0.862200  1
  H  H29  1  0.149700  0.562500  0.194600  1
  H  H30  1  0.850300  0.437500  0.805400  1
  H  H31  1  0.160700  0.711900  0.126100  1
  H  H32  1  0.839300  0.288100  0.873900  1
  H  H33  1  0.064800  0.584200  0.138400  1
  H  H34  1  0.935200  0.415800  0.861600  1
  H  H35  1  0.928900  0.640800  0.110300  1
  H  H36  1  0.071100  0.359200  0.889700  1
  H  H37  1  0.837200  0.736500  0.083400  1
  H  H38  1  0.162800  0.263500  0.916600  1
  H  H39  1  0.824400  0.804800  0.000600  1
  H  H40  1  0.175600  0.195200  0.999400  1
  H  H41  1  0.700500  0.874700  0.974700  1
  H  H42  1  0.299500  0.125300  0.025300  1
  H  H43  1  0.659700  0.939100  0.098100  1
  H  H44  1  0.340300  0.060900  0.901900  1
  H  H45  1  0.791400  0.874900  0.121500  1
  H  H46  1  0.208600  0.125100  0.878500  1
  H  H47  1  0.196400  0.879700  0.039100  1
  H  H48  1  0.803600  0.120300  0.960900  1
  H  H49  1  0.299100  0.861800  0.981900  1
  H  H50  1  0.700900  0.138200  0.018100  1
  H  H51  1  0.312000  0.702300  0.986700  1
  H  H52  1  0.688000  0.297700  0.013300  1
  H  H53  1  0.210000  0.720700  0.045400  1
  H  H54  1  0.790000  0.279300  0.954600  1
  H  H55  1  0.191100  0.852800  0.118000  1
  H  H56  1  0.808900  0.147200  0.882000  1
  H  H57  1  0.132000  0.888900  0.196800  1
  H  H58  1  0.868000  0.111100  0.803200  1
  H  H59  1  0.030100  0.890900  0.253800  1
  H  H60  1  0.969900  0.109100  0.746200  1
  H  H61  1  0.910400  0.812000  0.171300  1
  H  H62  1  0.089600  0.188000  0.828700  1
  H  H63  1  0.990300  0.847000  0.305700  1
  H  H64  1  0.009700  0.153000  0.694300  1
  H  H65  1  0.799600  0.834000  0.220900  1
  H  H66  1  0.200400  0.166000  0.779100  1
  H  H67  1  0.728100  0.809800  0.281300  1
  H  H68  1  0.271900  0.190200  0.718700  1
  H  H69  1  0.730200  0.788800  0.368600  1
  H  H70  1  0.269800  0.211200  0.631400  1
  H  H71  1  0.686300  0.844700  0.447900  1
  H  H72  1  0.313700  0.155300  0.552100  1
  H  H73  1  0.650200  0.833100  0.521700  1
  H  H74  1  0.349800  0.166900  0.478300  1
  H  H75  1  0.864400  0.701400  0.531500  1
  H  H76  1  0.135600  0.298600  0.468500  1
  H  H77  1  0.901000  0.713100  0.457200  1
  H  H78  1  0.099000  0.286900  0.542800  1
  H  H79  1  0.072100  0.915000  0.456500  1
  H  H80  1  0.927900  0.085000  0.543500  1
  H  H81  1  0.037500  0.009600  0.468000  1
  H  H82  1  0.962500  0.990400  0.532000  1
  H  H83  1  0.900000  0.036600  0.352400  1
  H  H84  1  0.100000  0.963400  0.647600  1
  H  H85  1  0.938300  0.943900  0.340600  1
  H  H86  1  0.061700  0.056100  0.659400  1
  H  H87  1  0.147300  0.844400  0.398000  1
  H  H88  1  0.852700  0.155600  0.602000  1
  H  H89  1  0.238700  0.742300  0.388800  1
  H  H90  1  0.761300  0.257700  0.611200  1
  H  H91  1  0.237000  0.653700  0.371300  1
  H  H92  1  0.763000  0.346300  0.628700  1
  H  H93  1  0.972500  0.707100  0.372000  1
  H  H94  1  0.027500  0.292900  0.628000  1
  H  H95  1  0.227100  0.597000  0.324000  1
  H  H96  1  0.772900  0.403000  0.676000  1
  H  H97  1  0.974600  0.625200  0.361000  1
  H  H98  1  0.025400  0.374800  0.639000  1
  H  H99  1  0.967200  0.553800  0.315800  1
  H  H100  1  0.032800  0.446200  0.684200  1
  H  H101  1  0.051500  0.476300  0.258900  1
  H  H102  1  0.948500  0.523700  0.741100  1
  H  H103  1  0.136700  0.477700  0.159200  1
  H  H104  1  0.863300  0.522300  0.840800  1
  H  H105  1  0.154400  0.410600  0.104900  1
  H  H106  1  0.845600  0.589400  0.895100  1
  H  H107  1  0.254200  0.295500  0.197900  1
  H  H108  1  0.745800  0.704500  0.802100  1
  H  H109  1  0.228200  0.361800  0.253400  1
  H  H110  1  0.771800  0.638200  0.746600  1
  H  H111  1  0.336600  0.572200  0.919100  1
  H  H112  1  0.663400  0.427800  0.080900  1
  H  H113  1  0.334900  0.587000  0.840800  1
  H  H114  1  0.665100  0.413000  0.159200  1
  H  H115  1  0.440300  0.425600  0.821300  1
  H  H116  1  0.559700  0.574400  0.178700  1
  H  H117  1  0.444800  0.411500  0.898500  1
  H  H118  1  0.555200  0.588500  0.101500  1
  H  H119  1  0.500800  0.426500  0.961300  1
  H  H120  1  0.499200  0.573500  0.038700  1
  H  H121  1  0.566600  0.375000  0.030600  1
  H  H122  1  0.433400  0.625000  0.969400  1
  H  H123  1  0.554900  0.352200  0.105200  1
  H  H124  1  0.445100  0.647800  0.894800  1
  H  H125  1  0.310200  0.459600  0.106000  1
  H  H126  1  0.689800  0.540400  0.894000  1
  H  H127  1  0.348800  0.474100  0.173700  1
  H  H128  1  0.651200  0.525900  0.826300  1
  H  H129  1  0.491800  0.316900  0.169300  1
  H  H130  1  0.508200  0.683100  0.830700  1
  H  H131  1  0.468800  0.310900  0.246100  1
  H  H132  1  0.531200  0.689100  0.753900  1
  H  H133  1  0.434500  0.314400  0.322600  1
  H  H134  1  0.565500  0.685600  0.677400  1
  H  H135  1  0.386200  0.326700  0.395800  1
  H  H136  1  0.613800  0.673300  0.604200  1
  H  H137  1  0.220100  0.472500  0.360700  1
  H  H138  1  0.779900  0.527500  0.639300  1
  H  H139  1  0.248700  0.495500  0.428200  1
  H  H140  1  0.751300  0.504500  0.571800  1
  H  H141  1  0.268400  0.338500  0.454500  1
  H  H142  1  0.731600  0.661500  0.545500  1
  H  H143  1  0.202700  0.365700  0.523700  1
  H  H144  1  0.797300  0.634300  0.476300  1
  H  H145  1  0.124600  0.445500  0.577000  1
  H  H146  1  0.875400  0.554500  0.423000  1
  H  H147  1  0.138300  0.497500  0.642600  1
  H  H148  1  0.861700  0.502500  0.357400  1
  H  H149  1  0.077400  0.551900  0.705400  1
  H  H150  1  0.922600  0.448100  0.294600  1
  H  H151  1  0.896300  0.651400  0.624300  1
  H  H152  1  0.103700  0.348600  0.375700  1
  H  H153  1  0.961700  0.600500  0.561500  1
  H  H154  1  0.038300  0.399500  0.438500  1
  H  H155  1  0.361200  0.488000  0.516500  1
  H  H156  1  0.638800  0.512000  0.483500  1
  H  H157  1  0.479900  0.410400  0.529600  1
  H  H158  1  0.520100  0.589600  0.470400  1
  H  H159  1  0.415300  0.419400  0.661300  1
  H  H160  1  0.584700  0.580600  0.338700  1
  H  H161  1  0.302000  0.499800  0.648800  1
  H  H162  1  0.698000  0.500200  0.351200  1
  H  H163  1  0.262200  0.585900  0.627200  1
  H  H164  1  0.737800  0.414100  0.372800  1
  H  H165  1  0.181200  0.685400  0.641000  1
  H  H166  1  0.818800  0.314600  0.359000  1
  H  H167  1  0.083000  0.768600  0.614900  1
  H  H168  1  0.917000  0.231400  0.385100  1
  H  H169  1  0.046400  0.687100  0.505200  1
  H  H170  1  0.953600  0.312900  0.494800  1
  H  H171  1  0.039800  0.761300  0.471500  1
  H  H172  1  0.960200  0.238700  0.528500  1
  H  H173  1  0.941500  0.829300  0.588900  1
  H  H174  1  0.058500  0.170700  0.411100  1
  H  H175  1  0.847300  0.901000  0.548300  1
  H  H176  1  0.152700  0.099000  0.451700  1
  H  H177  1  0.757900  0.965400  0.502500  1
  H  H178  1  0.242100  0.034600  0.497500  1
  H  H179  1  0.673200  0.025100  0.452000  1
  H  H180  1  0.326800  0.974900  0.548000  1
  H  H181  1  0.789600  0.921600  0.353800  1
  H  H182  1  0.210400  0.078400  0.646200  1
  H  H183  1  0.774500  0.996800  0.318000  1
  H  H184  1  0.225500  0.003200  0.682000  1
  H  H185  1  0.552100  0.043700  0.391000  1
  H  H186  1  0.447900  0.956300  0.609000  1
  H  H187  1  0.482500  0.096200  0.327600  1
  H  H188  1  0.517500  0.903800  0.672400  1
  H  H189  1  0.490700  0.118700  0.244400  1
  H  H190  1  0.509300  0.881300  0.755600  1
  H  H191  1  0.608800  0.047100  0.132400  1
  H  H192  1  0.391200  0.952900  0.867600  1
  H  H193  1  0.547400  0.084100  0.063800  1
  H  H194  1  0.452600  0.915900  0.936200  1
  H  H195  1  0.425900  0.225600  0.127000  1
  H  H196  1  0.574100  0.774400  0.873000  1
  H  H197  1  0.491700  0.187300  0.194300  1
  H  H198  1  0.508300  0.812700  0.805700  1
  H  H199  1  0.653300  0.232100  0.218300  1
  H  H200  1  0.346700  0.767900  0.781700  1
  H  H201  1  0.616900  0.291300  0.279800  1
  H  H202  1  0.383100  0.708700  0.720200  1
  H  H203  1  0.749700  0.169700  0.361900  1
  H  H204  1  0.250300  0.830300  0.638100  1
  H  H205  1  0.785300  0.111000  0.300300  1
  H  H206  1  0.214700  0.889000  0.699700  1
  H  H207  1  0.764400  0.178800  0.173900  1
  H  H208  1  0.235600  0.821200  0.826100  1
  H  H209  1  0.828200  0.149000  0.096800  1
  H  H210  1  0.171800  0.851000  0.903200  1
  H  H211  1  0.888700  0.077200  0.046900  1
  H  H212  1  0.111300  0.922800  0.953100  1
  H  H213  1  0.812100  0.978800  0.130300  1
  H  H214  1  0.187900  0.021200  0.869700  1
  H  H215  1  0.939100  0.919800  0.108300  1
  H  H216  1  0.060900  0.080200  0.891700  1
  H  H217  1  0.878000  0.006400  0.993900  1
  H  H218  1  0.122000  0.993600  0.006100  1
  H  H219  1  0.935500  0.927000  0.954300  1
  H  H220  1  0.064500  0.073000  0.045700  1
  H  H221  1  0.987200  0.843100  0.920900  1
  H  H222  1  0.012800  0.156900  0.079100  1
  H  H223  1  0.034900  0.754800  0.894400  1
  H  H224  1  0.965100  0.245200  0.105600  1
  H  H225  1  0.065800  0.702400  0.022100  1
  H  H226  1  0.934200  0.297600  0.977900  1
  H  H227  1  0.177900  0.640500  0.992500  1
  H  H228  1  0.822100  0.359500  0.007500  1
  H  H229  1  0.012100  0.663100  0.888300  1
  H  H230  1  0.987900  0.336900  0.111700  1
  H  H231  1  0.057100  0.568000  0.876700  1
  H  H232  1  0.942900  0.432000  0.123300  1
  H  H233  1  0.154400  0.474600  0.902100  1
  H  H234  1  0.845600  0.525400  0.097900  1
  H  H235  1  0.280100  0.391200  0.015700  1
  H  H236  1  0.719900  0.608800  0.984300  1
  H  H237  1  0.332300  0.296700  0.009200  1
  H  H238  1  0.667700  0.703300  0.990800  1
  H  H239  1  0.304700  0.309800  0.874400  1
  H  H240  1  0.695300  0.690200  0.125600  1
  H  H241  1  0.249700  0.404000  0.881200  1
  H  H242  1  0.750300  0.596000  0.118800  1
  H  H243  1  0.294500  0.694800  0.509600  1
  H  H244  1  0.705500  0.305200  0.490400  1
  H  H245  1  0.349300  0.732800  0.528100  1
  H  H246  1  0.650700  0.267200  0.471900  1
  H  H247  1  0.350900  0.719200  0.475800  1
  H  H248  1  0.649100  0.280800  0.524200  1
  H  H249  1  0.433400  0.226500  0.560700  1
  H  H250  1  0.566600  0.773500  0.439300  1
  H  H251  1  0.373700  0.287800  0.568200  1
  H  H252  1  0.626300  0.712200  0.431800  1
  H  H253  1  0.477500  0.271900  0.575000  1
  H  H254  1  0.522500  0.728100  0.425000  1
  H  H255  1  0.436800  0.148900  0.390900  1
  H  H256  1  0.563200  0.851100  0.609100  1
  H  H257  1  0.485800  0.188900  0.369800  1
  H  H258  1  0.514200  0.811100  0.630200  1
  H  H259  1  0.420700  0.208200  0.411400  1
  H  H260  1  0.579300  0.791800  0.588600  1
  H  H261  1  0.894400  0.218800  0.272400  1
  H  H262  1  0.105600  0.781200  0.727600  1
  H  H263  1  0.838600  0.256500  0.233700  1
  H  H264  1  0.161400  0.743500  0.766300  1
  H  H265  1  0.934700  0.259200  0.245300  1
  H  H266  1  0.065300  0.740800  0.754700  1
  H  H267  1  0.952600  0.688000  0.246000  1
  H  H268  1  0.047400  0.312000  0.754000  1
  H  H269  1  0.914400  0.639000  0.235200  1
  H  H270  1  0.085600  0.361000  0.764800  1
  H  H271  1  0.865000  0.684900  0.270200  1
  H  H272  1  0.135000  0.315100  0.729800  1
  H  H273  1  0.007500  0.573300  0.990600  1
  H  H274  1  0.992500  0.426700  0.009400  1
  H  H275  1  0.910800  0.568300  0.984900  1
  H  H276  1  0.089200  0.431700  0.015100  1
  H  H277  1  0.948900  0.572000  0.033800  1
  H  H278  1  0.051100  0.428000  0.966200  1
  H  H279  1  0.676700  0.684100  0.243900  1
  H  H280  1  0.323300  0.315900  0.756100  1
  H  H281  1  0.686500  0.643000  0.202900  1
  H  H282  1  0.313500  0.357000  0.797100  1
  H  H283  1  0.726400  0.620800  0.250700  1
  H  H284  1  0.273600  0.379200  0.749300  1
  H  H285  1  0.199200  0.601300  0.801300  1
  H  H286  1  0.800800  0.398700  0.198700  1
  H  H287  1  0.167400  0.563500  0.767200  1
  H  H288  1  0.832600  0.436500  0.232800  1
  H  H289  1  0.108200  0.624700  0.775400  1
  H  H290  1  0.891800  0.375300  0.224600  1
  H  H291  1  0.017400  0.007900  0.180600  1
  H  H292  1  0.982600  0.992100  0.819400  1
  H  H293  1  0.044200  0.058500  0.161500  1
  H  H294  1  0.955800  0.941500  0.838500  1
  H  H295  1  0.115200  0.010500  0.187000  1
  H  H296  1  0.884800  0.989500  0.813000  1
  H  H297  1  0.126000  0.063400  0.279100  1
  H  H298  1  0.874000  0.936600  0.720900  1
  H  H299  1  0.035600  0.049300  0.275200  1
  H  H300  1  0.964400  0.950700  0.724800  1
  H  H301  1  0.094800  0.032200  0.319000  1
  H  H302  1  0.905200  0.967800  0.681000  1
  H  H303  1  0.530600  0.198000  0.366600  1
  H  H304  1  0.469400  0.802000  0.633400  1
  H  H305  1  0.481000  0.223000  0.411800  1
  H  H306  1  0.519000  0.777000  0.588200  1
  H  H307  1  0.470900  0.167700  0.392100  1
  H  H308  1  0.529100  0.832300  0.607900  1
  C  C309  1  0.424400  0.494900  0.326000  1
  C  C310  1  0.575600  0.505100  0.674000  1
  C  C311  1  0.499100  0.451200  0.319150  1
  C  C312  1  0.500900  0.548800  0.680850  1
  C  C313  1  0.544400  0.423600  0.356300  1
  C  C314  1  0.455600  0.576400  0.643700  1
  C  C315  1  0.515900  0.440100  0.397910  1
  C  C316  1  0.484100  0.559900  0.602090  1
  C  C317  1  0.444000  0.486000  0.405560  1
  C  C318  1  0.556000  0.514000  0.594440  1
  C  C319  1  0.397100  0.512800  0.368030  1
  C  C320  1  0.602900  0.487200  0.631970  1
  C  C321  1  0.393700  0.550000  0.260930  1
  C  C322  1  0.606300  0.450000  0.739070  1
  C  C323  1  0.336500  0.570200  0.223140  1
  C  C324  1  0.663500  0.429800  0.776860  1
  C  C325  1  0.349700  0.607000  0.192150  1
  C  C326  1  0.650300  0.393000  0.807850  1
  C  C327  1  0.281400  0.628300  0.160780  1
  C  C328  1  0.718600  0.371700  0.839220  1
  C  C329  1  0.204200  0.614880  0.163450  1
  C  C330  1  0.795800  0.385120  0.836550  1
  C  C331  1  0.200500  0.574230  0.194090  1
  C  C332  1  0.799500  0.425770  0.805910  1
  C  C333  1  0.113800  0.696930  0.122820  1
  C  C334  1  0.886200  0.303070  0.877180  1
  C  C335  1  0.125100  0.643360  0.137800  1
  C  C336  1  0.874900  0.356640  0.862200  1
  C  C337  1  0.057400  0.621200  0.131220  1
  C  C338  1  0.942600  0.378800  0.868780  1
  C  C339  1  0.977600  0.654200  0.113750  1
  C  C340  1  0.022400  0.345800  0.886250  1
  C  C341  1  0.971700  0.706200  0.101860  1
  C  C342  1  0.028300  0.293800  0.898140  1
  C  C343  1  0.889700  0.745840  0.087220  1
  C  C344  1  0.110300  0.254160  0.912780  1
  C  C345  1  0.816300  0.834200  0.063900  1
  C  C346  1  0.183700  0.165800  0.936100  1
  C  C347  1  0.792200  0.832700  0.020100  1
  C  C348  1  0.207800  0.167300  0.979900  1
  C  C349  1  0.718400  0.873700  0.005000  1
  C  C350  1  0.281600  0.126300  0.995000  1
  C  C351  1  0.672900  0.911900  0.034300  1
  C  C352  1  0.327100  0.088100  0.965700  1
  C  C353  1  0.694600  0.913000  0.078000  1
  C  C354  1  0.305400  0.087000  0.922000  1
  C  C355  1  0.771000  0.873700  0.091800  1
  C  C356  1  0.229000  0.126300  0.908200  1
  C  C357  1  0.192700  0.801500  0.047150  1
  C  C358  1  0.807300  0.198500  0.952850  1
  C  C359  1  0.220100  0.843700  0.028300  1
  C  C360  1  0.779900  0.156300  0.971700  1
  C  C361  1  0.280600  0.833200  0.994400  1
  C  C362  1  0.719400  0.166800  0.005600  1
  C  C363  1  0.314900  0.780500  0.978400  1
  C  C364  1  0.685100  0.219500  0.021600  1
  C  C365  1  0.288300  0.738300  0.997500  1
  C  C366  1  0.711700  0.261700  0.002500  1
  C  C367  1  0.227500  0.749300  0.032100  1
  C  C368  1  0.772500  0.250700  0.967900  1
  C  C369  1  0.141800  0.839600  0.116500  1
  C  C370  1  0.858200  0.160400  0.883500  1
  C  C371  1  0.077500  0.849900  0.152220  1
  C  C372  1  0.922500  0.150100  0.847780  1
  C  C373  1  0.086100  0.873300  0.192280  1
  C  C374  1  0.913900  0.126700  0.807720  1
  C  C375  1  0.026800  0.873800  0.226020  1
  C  C376  1  0.973200  0.126200  0.773980  1
  C  C377  1  0.961800  0.848740  0.218850  1
  C  C378  1  0.038200  0.151260  0.781150  1
  C  C379  1  0.955700  0.827970  0.176670  1
  C  C380  1  0.044300  0.172030  0.823330  1
  C  C381  1  0.936300  0.839850  0.300670  1
  C  C382  1  0.063700  0.160150  0.699330  1
  C  C383  1  0.905300  0.840940  0.256200  1
  C  C384  1  0.094700  0.159060  0.743800  1
  C  C385  1  0.824500  0.831200  0.249970  1
  C  C386  1  0.175500  0.168800  0.750030  1
  C  C387  1  0.781700  0.817800  0.285520  1
  C  C388  1  0.218300  0.182200  0.714480  1
  C  C389  1  0.817600  0.815940  0.328410  1
  C  C390  1  0.182400  0.184060  0.671590  1
  C  C391  1  0.783400  0.798000  0.368530  1
  C  C392  1  0.216600  0.202000  0.631470  1
  C  C393  1  0.798800  0.782200  0.446530  1
  C  C394  1  0.201200  0.217800  0.553470  1
  C  C395  1  0.723400  0.816100  0.465300  1
  C  C396  1  0.276600  0.183900  0.534700  1
  C  C397  1  0.701400  0.809100  0.508600  1
  C  C398  1  0.298600  0.190900  0.491400  1
  C  C399  1  0.754900  0.766500  0.532970  1
  C  C400  1  0.245100  0.233500  0.467030  1
  C  C401  1  0.828900  0.730800  0.514290  1
  C  C402  1  0.171100  0.269200  0.485710  1
  C  C403  1  0.851000  0.737900  0.470690  1
  C  C404  1  0.149000  0.262100  0.529310  1
  C  C405  1  0.004000  0.922100  0.399200  1
  C  C406  1  0.996000  0.077900  0.600800  1
  C  C407  1  0.035800  0.939900  0.436000  1
  C  C408  1  0.964200  0.060100  0.564000  1
  C  C409  1  0.013800  0.995900  0.443200  1
  C  C410  1  0.986200  0.004100  0.556800  1
  C  C411  1  0.956900  0.031600  0.413600  1
  C  C412  1  0.043100  0.968400  0.586400  1
  C  C413  1  0.932500  0.012100  0.374300  1
  C  C414  1  0.067500  0.987900  0.625700  1
  C  C415  1  0.955500  0.957600  0.367400  1
  C  C416  1  0.044500  0.042400  0.632600  1
  C  C417  1  0.097700  0.831900  0.394450  1
  C  C418  1  0.902300  0.168100  0.605550  1
  C  C419  1  0.104900  0.774400  0.389600  1
  C  C420  1  0.895100  0.225600  0.610400  1
  C  C421  1  0.185000  0.734500  0.384700  1
  C  C422  1  0.815000  0.265500  0.615300  1
  C  C423  1  0.183500  0.682300  0.373600  1
  C  C424  1  0.816500  0.317700  0.626400  1
  C  C425  1  0.105300  0.672100  0.365890  1
  C  C426  1  0.894700  0.327900  0.634110  1
  C  C427  1  0.027100  0.714150  0.374870  1
  C  C428  1  0.972900  0.285850  0.625130  1
  C  C429  1  0.174100  0.587700  0.322840  1
  C  C430  1  0.825900  0.412300  0.677160  1
  C  C431  1  0.101200  0.620720  0.345410  1
  C  C432  1  0.898800  0.379280  0.654590  1
  C  C433  1  0.024300  0.605600  0.344030  1
  C  C434  1  0.975700  0.394400  0.655970  1
  C  C435  1  0.020300  0.562800  0.318330  1
  C  C436  1  0.979700  0.437200  0.681670  1
  C  C437  1  0.095500  0.532370  0.295860  1
  C  C438  1  0.904500  0.467630  0.704140  1
  C  C439  1  0.100400  0.488900  0.264400  1
  C  C440  1  0.899600  0.511100  0.735600  1
  C  C441  1  0.180500  0.426400  0.211200  1
  C  C442  1  0.819500  0.573600  0.788800  1
  C  C443  1  0.159100  0.440600  0.167300  1
  C  C444  1  0.840900  0.559400  0.832700  1
  C  C445  1  0.170000  0.400900  0.135120  1
  C  C446  1  0.830000  0.599100  0.864880  1
  C  C447  1  0.203900  0.347000  0.147200  1
  C  C448  1  0.796100  0.653000  0.852800  1
  C  C449  1  0.228100  0.332600  0.190400  1
  C  C450  1  0.771900  0.667400  0.809600  1
  C  C451  1  0.214500  0.371800  0.223070  1
  C  C452  1  0.785500  0.628200  0.776930  1
  C  C453  1  0.390700  0.490800  0.915850  1
  C  C454  1  0.609300  0.509200  0.084150  1
  C  C455  1  0.358400  0.542500  0.899300  1
  C  C456  1  0.641600  0.457500  0.100700  1
  C  C457  1  0.357600  0.551600  0.852900  1
  C  C458  1  0.642400  0.448400  0.147100  1
  C  C459  1  0.390400  0.507700  0.826000  1
  C  C460  1  0.609600  0.492300  0.174000  1
  C  C461  1  0.420800  0.455300  0.841400  1
  C  C462  1  0.579200  0.544700  0.158600  1
  C  C463  1  0.422200  0.447200  0.886810  1
  C  C464  1  0.577800  0.552800  0.113190  1
  C  C465  1  0.451700  0.444700  0.979250  1
  C  C466  1  0.548300  0.555300  0.020750  1
  C  C467  1  0.446300  0.429700  0.026520  1
  C  C468  1  0.553700  0.570300  0.973480  1
  C  C469  1  0.514600  0.392000  0.047000  1
  C  C470  1  0.485400  0.608000  0.953000  1
  C  C471  1  0.508400  0.378800  0.090980  1
  C  C472  1  0.491600  0.621200  0.909020  1
  C  C473  1  0.430700  0.405900  0.114740  1
  C  C474  1  0.569300  0.594100  0.885260  1
  C  C475  1  0.363500  0.442300  0.090800  1
  C  C476  1  0.636500  0.557700  0.909200  1
  C  C477  1  0.371900  0.440000  0.188070  1
  C  C478  1  0.628100  0.560000  0.811930  1
  C  C479  1  0.420000  0.397300  0.163140  1
  C  C480  1  0.580000  0.602700  0.836860  1
  C  C481  1  0.456900  0.347600  0.185330  1
  C  C482  1  0.543100  0.652400  0.814670  1
  C  C483  1  0.442000  0.343800  0.230550  1
  C  C484  1  0.558000  0.656200  0.769450  1
  C  C485  1  0.388300  0.387700  0.253020  1
  C  C486  1  0.611700  0.612300  0.746980  1
  C  C487  1  0.360000  0.388310  0.299620  1
  C  C488  1  0.640000  0.611690  0.700380  1
  C  C489  1  0.392100  0.347300  0.331210  1
  C  C490  1  0.607900  0.652700  0.668790  1
  C  C491  1  0.362800  0.354300  0.374230  1
  C  C492  1  0.637200  0.645700  0.625770  1
  C  C493  1  0.297200  0.402700  0.386870  1
  C  C494  1  0.702800  0.597300  0.613130  1
  C  C495  1  0.266400  0.440700  0.353520  1
  C  C496  1  0.733600  0.559300  0.646480  1
  C  C497  1  0.237500  0.468800  0.447250  1
  C  C498  1  0.762500  0.531200  0.552750  1
  C  C499  1  0.261400  0.414600  0.432020  1
  C  C500  1  0.738600  0.585400  0.567980  1
  C  C501  1  0.249500  0.375900  0.462260  1
  C  C502  1  0.750500  0.624100  0.537740  1
  C  C503  1  0.210400  0.391900  0.503040  1
  C  C504  1  0.789600  0.608100  0.496960  1
  C  C505  1  0.182200  0.446800  0.513960  1
  C  C506  1  0.817800  0.553200  0.486040  1
  C  C507  1  0.133600  0.468800  0.554070  1
  C  C508  1  0.866400  0.531200  0.445930  1
  C  C509  1  0.057600  0.545500  0.596120  1
  C  C510  1  0.942400  0.454500  0.403880  1
  C  C511  1  0.090800  0.529700  0.638810  1
  C  C512  1  0.909200  0.470300  0.361190  1
  C  C513  1  0.054200  0.561400  0.676300  1
  C  C514  1  0.945800  0.438600  0.323700  1
  C  C515  1  0.983600  0.606400  0.669300  1
  C  C516  1  0.016400  0.393600  0.330700  1
  C  C517  1  0.947000  0.620900  0.627600  1
  C  C518  1  0.053000  0.379100  0.372400  1
  C  C519  1  0.985200  0.590500  0.590500  1
  C  C520  1  0.014800  0.409500  0.409500  1
  C  C521  1  0.322300  0.501800  0.580480  1
  C  C522  1  0.677700  0.498200  0.419520  1
  C  C523  1  0.373500  0.474700  0.546200  1
  C  C524  1  0.626500  0.525300  0.453800  1
  C  C525  1  0.443100  0.428200  0.553500  1
  C  C526  1  0.556900  0.571800  0.446500  1
  C  C527  1  0.457200  0.408700  0.597400  1
  C  C528  1  0.542800  0.591300  0.402600  1
  C  C529  1  0.405000  0.434200  0.632000  1
  C  C530  1  0.595000  0.565800  0.368000  1
  C  C531  1  0.337400  0.481400  0.624700  1
  C  C532  1  0.662600  0.518600  0.375300  1
  C  C533  1  0.234500  0.590100  0.598780  1
  C  C534  1  0.765500  0.409900  0.401220  1
  C  C535  1  0.168100  0.641100  0.587240  1
  C  C536  1  0.831900  0.358900  0.412760  1
  C  C537  1  0.152900  0.687000  0.612870  1
  C  C538  1  0.847100  0.313000  0.387130  1
  C  C539  1  0.095300  0.736600  0.597360  1
  C  C540  1  0.904700  0.263400  0.402640  1
  C  C541  1  0.057000  0.736800  0.555370  1
  C  C542  1  0.943000  0.263200  0.444630  1
  C  C543  1  0.074600  0.687300  0.533130  1
  C  C544  1  0.925400  0.312700  0.466870  1
  C  C545  1  0.998100  0.789100  0.487590  1
  C  C546  1  0.001900  0.210900  0.512410  1
  C  C547  1  0.998500  0.786200  0.534160  1
  C  C548  1  0.001500  0.213800  0.465840  1
  C  C549  1  0.942100  0.828800  0.557060  1
  C  C550  1  0.057900  0.171200  0.442940  1
  C  C551  1  0.886000  0.871100  0.532860  1
  C  C552  1  0.114000  0.128900  0.467140  1
  C  C553  1  0.885900  0.870300  0.486910  1
  C  C554  1  0.114100  0.129700  0.513090  1
  C  C555  1  0.826300  0.910700  0.458140  1
  C  C556  1  0.173700  0.089300  0.541860  1
  C  C557  1  0.765000  0.957400  0.471500  1
  C  C558  1  0.235000  0.042600  0.528500  1
  C  C559  1  0.714200  0.992400  0.441900  1
  C  C560  1  0.285800  0.007600  0.558100  1
  C  C561  1  0.722800  0.979800  0.396300  1
  C  C562  1  0.277200  0.020200  0.603700  1
  C  C563  1  0.783800  0.931200  0.384530  1
  C  C564  1  0.216200  0.068800  0.615470  1
  C  C565  1  0.714200  0.016900  0.320130  1
  C  C566  1  0.285800  0.983100  0.679870  1
  C  C567  1  0.672500  0.014800  0.360450  1
  C  C568  1  0.327500  0.985200  0.639550  1
  C  C569  1  0.583700  0.044100  0.364100  1
  C  C570  1  0.416300  0.955900  0.635900  1
  C  C571  1  0.542100  0.074600  0.326100  1
  C  C572  1  0.457900  0.925400  0.673900  1
  C  C573  1  0.589300  0.072200  0.287500  1
  C  C574  1  0.410700  0.927800  0.712500  1
  C  C575  1  0.550200  0.096900  0.245100  1
  C  C576  1  0.449800  0.903100  0.754900  1
  C  C577  1  0.555000  0.113900  0.168800  1
  C  C578  1  0.445000  0.886100  0.831200  1
  C  C579  1  0.571600  0.083400  0.131100  1
  C  C580  1  0.428400  0.916600  0.868900  1
  C  C581  1  0.534800  0.104900  0.090500  1
  C  C582  1  0.465200  0.895100  0.909500  1
  C  C583  1  0.478800  0.157900  0.090300  1
  C  C584  1  0.521200  0.842100  0.909700  1
  C  C585  1  0.462800  0.189100  0.128000  1
  C  C586  1  0.537200  0.810900  0.872000  1
  C  C587  1  0.501900  0.166300  0.167700  1
  C  C588  1  0.498100  0.833700  0.832300  1
  C  C589  1  0.723000  0.165800  0.253650  1
  C  C590  1  0.277000  0.834200  0.746350  1
  C  C591  1  0.672600  0.219400  0.247400  1
  C  C592  1  0.327400  0.780600  0.752600  1
  C  C593  1  0.650400  0.254300  0.283700  1
  C  C594  1  0.349600  0.745700  0.716300  1
  C  C595  1  0.678100  0.234100  0.325500  1
  C  C596  1  0.321900  0.765900  0.674500  1
  C  C597  1  0.729400  0.182000  0.332800  1
  C  C598  1  0.270600  0.818000  0.667200  1
  C  C599  1  0.750800  0.147700  0.296100  1
  C  C600  1  0.249200  0.852300  0.703900  1
  C  C601  1  0.767200  0.142100  0.179270  1
  C  C602  1  0.232800  0.857900  0.820730  1
  C  C603  1  0.795100  0.102700  0.144630  1
  C  C604  1  0.204900  0.897300  0.855370  1
  C  C605  1  0.828700  0.113200  0.104200  1
  C  C606  1  0.171300  0.886800  0.895800  1
  C  C607  1  0.863100  0.070900  0.074310  1
  C  C608  1  0.136900  0.929100  0.925690  1
  C  C609  1  0.859700  0.020200  0.084820  1
  C  C610  1  0.140300  0.979800  0.915180  1
  C  C611  1  0.817900  0.013500  0.123990  1
  C  C612  1  0.182100  0.986500  0.876010  1
  C  C613  1  0.936800  0.921100  0.076540  1
  C  C614  1  0.063200  0.078900  0.923460  1
  C  C615  1  0.899900  0.971800  0.055620  1
  C  C616  1  0.100100  0.028200  0.944380  1
  C  C617  1  0.900800  0.973000  0.009320  1
  C  C618  1  0.099200  0.027000  0.990680  1
  C  C619  1  0.934400  0.926200  0.986060  1
  C  C620  1  0.065600  0.073800  0.013940  1
  C  C621  1  0.967100  0.877500  0.008380  1
  C  C622  1  0.032900  0.122500  0.991620  1
  C  C623  1  0.999200  0.823300  0.987170  1
  C  C624  1  0.000800  0.176700  0.012830  1
  C  C625  1  0.003800  0.813600  0.941360  1
  C  C626  1  0.996200  0.186400  0.058640  1
  C  C627  1  0.032000  0.761700  0.925650  1
  C  C628  1  0.968000  0.238300  0.074350  1
  C  C629  1  0.056500  0.718900  0.956350  1
  C  C630  1  0.943500  0.281100  0.043650  1
  C  C631  1  0.049800  0.731500  0.001260  1
  C  C632  1  0.950200  0.268500  0.998740  1
  C  C633  1  0.152600  0.625400  0.969130  1
  C  C634  1  0.847400  0.374600  0.030870  1
  C  C635  1  0.087600  0.660500  0.943360  1
  C  C636  1  0.912400  0.339500  0.056640  1
  C  C637  1  0.053600  0.639600  0.907700  1
  C  C638  1  0.946400  0.360400  0.092300  1
  C  C639  1  0.080800  0.583600  0.900400  1
  C  C640  1  0.919200  0.416400  0.099600  1
  C  C641  1  0.145300  0.550700  0.929790  1
  C  C642  1  0.854700  0.449300  0.070210  1
  C  C643  1  0.174600  0.491900  0.926000  1
  C  C644  1  0.825400  0.508100  0.074000  1
  C  C645  1  0.258900  0.406600  0.949200  1
  C  C646  1  0.741100  0.593400  0.050800  1
  C  C647  1  0.284400  0.374700  0.987050  1
  C  C648  1  0.715600  0.625300  0.012950  1
  C  C649  1  0.316300  0.318600  0.983260  1
  C  C650  1  0.683700  0.681400  0.016740  1
  C  C651  1  0.324400  0.295200  0.941400  1
  C  C652  1  0.675600  0.704800  0.058600  1
  C  C653  1  0.299400  0.326400  0.903000  1
  C  C654  1  0.700600  0.673600  0.097000  1
  C  C655  1  0.266800  0.382200  0.907200  1
  C  C656  1  0.733200  0.617800  0.092800  1
  C  C657  1  0.240000  0.773300  0.496100  1
  C  C658  1  0.760000  0.226700  0.503900  1
  C  C659  1  0.314600  0.726300  0.502900  1
  C  C660  1  0.685400  0.273700  0.497100  1
  C  C661  1  0.441300  0.276700  0.509800  1
  C  C662  1  0.558700  0.723300  0.490200  1
  C  C663  1  0.430600  0.264700  0.557400  1
  C  C664  1  0.569400  0.735300  0.442600  1
  C  C665  1  0.538000  0.155500  0.428800  1
  C  C666  1  0.462000  0.844500  0.571200  1
  C  C667  1  0.464000  0.177000  0.397600  1
  C  C668  1  0.536000  0.823000  0.602400  1
  C  C669  1  0.937000  0.190400  0.208500  1
  C  C670  1  0.063000  0.809600  0.791500  1
  C  C671  1  0.897600  0.235300  0.243100  1
  C  C672  1  0.102400  0.764700  0.756900  1
  C  C673  1  0.847900  0.708700  0.206800  1
  C  C674  1  0.152100  0.291300  0.793200  1
  C  C675  1  0.899000  0.677700  0.242300  1
  C  C676  1  0.101000  0.322300  0.757700  1
  C  C677  1  0.912700  0.642800  0.001300  1
  C  C678  1  0.087300  0.357200  0.998700  1
  C  C679  1  0.947800  0.584400  0.002800  1
  C  C680  1  0.052200  0.415600  0.997200  1
  C  C681  1  0.588100  0.637500  0.248900  1
  C  C682  1  0.411900  0.362500  0.751100  1
  C  C683  1  0.678000  0.647300  0.235300  1
  C  C684  1  0.322000  0.352700  0.764700  1
  C  C685  1  0.214100  0.618900  0.736200  1
  C  C686  1  0.785900  0.381100  0.263800  1
  C  C687  1  0.168400  0.600600  0.773100  1
  C  C688  1  0.831600  0.399400  0.226900  1
  C  C689  1  0.091200  0.989600  0.122600  1
  C  C690  1  0.908800  0.010400  0.877400  1
  C  C691  1  0.064600  0.019300  0.166900  1
  C  C692  1  0.935400  0.980700  0.833100  1
  C  C693  1  0.025800  0.115300  0.317700  1
  C  C694  1  0.974200  0.884700  0.682300  1
  C  C695  1  0.075100  0.059900  0.295700  1
  C  C696  1  0.924900  0.940100  0.704300  1
  C  C697  1  0.583200  0.160000  0.420700  1
  C  C698  1  0.416800  0.840000  0.579300  1
  C  C699  1  0.511100  0.189300  0.396000  1
  C  C700  1  0.488900  0.810700  0.604000  1
  Br  Br701  1  0.270480  0.594730  0.461060  1
  Br  Br702  1  0.729520  0.405270  0.538940  1
  Br  Br703  1  0.024190  0.597310  0.461740  1
  Br  Br704  1  0.975810  0.402690  0.538260  1
  Br  Br705  1  0.149660  0.512450  0.060140  1
  Br  Br706  1  0.850340  0.487550  0.939860  1
  Br  Br707  1  0.320370  0.591400  0.044900  1
  Br  Br708  1  0.679630  0.408600  0.955100  1
  Br  Br709  1  0.891650  0.004510  0.249940  1
  Br  Br710  1  0.108350  0.995490  0.750060  1
  Br  Br711  1  0.706850  0.953450  0.197880  1
  Br  Br712  1  0.293150  0.046550  0.802120  1
  Br  Br713  1  0.203900  0.824900  0.293940  1
  Br  Br714  1  0.796100  0.175100  0.706060  1
  Br  Br715  1  0.105640  0.716000  0.247360  1
  Br  Br716  1  0.894360  0.284000  0.752640  1
  Br  Br717  1  0.340910  0.673600  0.292600  1
  Br  Br718  1  0.659090  0.326400  0.707400  1
  Br  Br719  1  0.284130  0.755690  0.183270  1
  Br  Br720  1  0.715870  0.244310  0.816730  1
  N  N721  1  0.369000  0.517710  0.288030  1
  N  N722  1  0.631000  0.482290  0.711970  1
  N  N723  1  0.265700  0.551380  0.222640  1
  N  N724  1  0.734300  0.448620  0.777360  1
  N  N725  1  0.039300  0.727040  0.104180  1
  N  N726  1  0.960700  0.272960  0.895820  1
  N  N727  1  0.893700  0.793810  0.079900  1
  N  N728  1  0.106300  0.206190  0.920100  1
  N  N729  1  0.129600  0.812190  0.082780  1
  N  N730  1  0.870400  0.187810  0.917220  1
  N  N731  1  0.010800  0.829260  0.142940  1
  N  N732  1  0.989200  0.170740  0.857060  1
  N  N733  1  0.892500  0.829120  0.335590  1
  N  N734  1  0.107500  0.170880  0.664410  1
  N  N735  1  0.829700  0.795360  0.404000  1
  N  N736  1  0.170300  0.204640  0.596000  1
  N  N737  1  0.018400  0.864240  0.393490  1
  N  N738  1  0.981600  0.135760  0.606510  1
  N  N739  1  0.028200  0.763840  0.387320  1
  N  N740  1  0.971800  0.236160  0.612680  1
  N  N741  1  0.173700  0.543530  0.299540  1
  N  N742  1  0.826300  0.456470  0.700460  1
  N  N743  1  0.173600  0.468350  0.244370  1
  N  N744  1  0.826400  0.531650  0.755630  1
  N  N745  1  0.388100  0.483000  0.963110  1
  N  N746  1  0.611900  0.517000  0.036890  1
  N  N747  1  0.369800  0.454280  0.047650  1
  N  N748  1  0.630200  0.545720  0.952350  1
  N  N749  1  0.355300  0.436570  0.231890  1
  N  N750  1  0.644700  0.563430  0.768110  1
  N  N751  1  0.297500  0.435370  0.311850  1
  N  N752  1  0.702500  0.564630  0.688150  1
  N  N753  1  0.200400  0.484390  0.486380  1
  N  N754  1  0.799600  0.515610  0.513620  1
  N  N755  1  0.103000  0.520190  0.557730  1
  N  N756  1  0.897000  0.479810  0.442270  1
  N  N757  1  0.255000  0.551530  0.570970  1
  N  N758  1  0.745000  0.448470  0.429030  1
  N  N759  1  0.127300  0.641130  0.547790  1
  N  N760  1  0.872700  0.358870  0.452210  1
  N  N761  1  0.942200  0.828680  0.464580  1
  N  N762  1  0.057800  0.171320  0.535420  1
  N  N763  1  0.835200  0.896900  0.414050  1
  N  N764  1  0.164800  0.103100  0.585950  1
  N  N765  1  0.676800  0.044530  0.284290  1
  N  N766  1  0.323200  0.955470  0.715710  1
  N  N767  1  0.595100  0.089460  0.209930  1
  N  N768  1  0.404900  0.910540  0.790070  1
  N  N769  1  0.745700  0.127440  0.218160  1
  N  N770  1  0.254300  0.872560  0.781840  1
  N  N771  1  0.786100  0.052590  0.152740  1
  N  N772  1  0.213900  0.947410  0.847260  1
  N  N773  1  0.968400  0.875380  0.054060  1
  N  N774  1  0.031600  0.124620  0.945940  1
  N  N775  1  0.022400  0.782050  0.017530  1
  N  N776  1  0.977600  0.217950  0.982470  1
  N  N777  1  0.181600  0.572110  0.963250  1
  N  N778  1  0.818400  0.427890  0.036750  1
  N  N779  1  0.227800  0.463540  0.954950  1
  N  N780  1  0.772200  0.536460  0.045050  1
  N  N781  1  0.183000  0.809900  0.490200  1
  N  N782  1  0.817000  0.190100  0.509800  1
  N  N783  1  0.452300  0.285500  0.475100  1
  N  N784  1  0.547700  0.714500  0.524900  1
  N  N785  1  0.576000  0.125300  0.457800  1
  N  N786  1  0.424000  0.874700  0.542200  1
  N  N787  1  0.980600  0.155800  0.183200  1
  N  N788  1  0.019400  0.844200  0.816800  1
  N  N789  1  0.809000  0.733600  0.178100  1
  N  N790  1  0.191000  0.266400  0.821900  1
  N  N791  1  0.887400  0.687000  0.000700  1
  N  N792  1  0.112600  0.313000  0.999300  1
  N  N793  1  0.513500  0.638500  0.259400  1
  N  N794  1  0.486500  0.361500  0.740600  1
  N  N795  1  0.252600  0.631500  0.708700  1
  N  N796  1  0.747400  0.368500  0.291300  1
  N  N797  1  0.106000  0.968700  0.093930  1
  N  N798  1  0.894000  0.031300  0.906070  1
  N  N799  1  0.018300  0.164800  0.325100  1
  N  N800  1  0.981700  0.835200  0.674900  1
  N  N801  1  0.651200  0.133800  0.436400  1
  N  N802  1  0.348800  0.866200  0.563600  1
  Cl  Cl803  1  0.222240  0.297690  0.105530  1
  Cl  Cl804  1  0.777760  0.702310  0.894470  1
  Cl  Cl805  1  0.569350  0.403370  0.443840  1
  Cl  Cl806  1  0.430650  0.596630  0.556160  1
  Cl  Cl807  1  0.920300  0.100620  0.425440  1
  Cl  Cl808  1  0.079700  0.899380  0.574560  1
  Cl  Cl809  1  0.731700  0.758420  0.589680  1
  Cl  Cl810  1  0.268300  0.241580  0.410320  1
  Cl  Cl811  1  0.578800  0.958990  0.014100  1
  Cl  Cl812  1  0.421200  0.041010  0.985900  1
  Cl  Cl813  1  0.390060  0.767440  0.935810  1
  Cl  Cl814  1  0.609940  0.232560  0.064190  1
  Cl  Cl815  1  0.942630  0.647630  0.715510  1
  Cl  Cl816  1  0.057370  0.352370  0.284490  1
  Cl  Cl817  1  0.544800  0.350990  0.607760  1
  Cl  Cl818  1  0.455200  0.649010  0.392240  1
  Cl  Cl819  1  0.647630  0.277880  0.371730  1
  Cl  Cl820  1  0.352370  0.722120  0.628270  1
  Cl  Cl821  1  0.430220  0.184350  0.039870  1
  Cl  Cl822  1  0.569780  0.815650  0.960130  1
  Cl  Cl823  1  0.384000  0.516730  0.767060  1
  Cl  Cl824  1  0.616000  0.483270  0.232940  1
  Cl  Cl825  1  0.365120  0.225200  0.935470  1
  Cl  Cl826  1  0.634880  0.774800  0.064530  1
  Cl  Cl827  1  0.364490  0.219900  0.282720  1
  Cl  Cl828  1  0.635510  0.780100  0.717280  1
  Cl  Cl829  1  0.748400  0.296080  0.130790  1
  Cl  Cl830  1  0.251600  0.703920  0.869210  1
  Cl  Cl831  1  0.769760  0.656920  0.357660  1
  Cl  Cl832  1  0.230240  0.343080  0.642340  1
  Cl  Cl833  1  0.890900  0.524300  0.196360  1
  Cl  Cl834  1  0.109100  0.475700  0.803640  1
  Cl  Cl835  1  0.927600  0.538910  0.186050  1
  Cl  Cl836  1  0.072400  0.461090  0.813950  1
  Cl  Cl837  1  0.550600  0.900700  0.372800  1
  Cl  Cl838  1  0.449400  0.099300  0.627200  1
  Cl  Cl839  1  0.147800  0.724700  0.253500  1
  Cl  Cl840  1  0.852200  0.275300  0.746500  1
  O  O841  1  0.450800  0.223970  0.281060  1
  O  O842  1  0.549200  0.776030  0.718940  1
  O  O843  1  0.342200  0.206600  0.239030  1
  O  O844  1  0.657800  0.793400  0.760970  1
  O  O845  1  0.303000  0.269650  0.295300  1
  O  O846  1  0.697000  0.730350  0.704700  1
  O  O847  1  0.360700  0.177500  0.312000  1
  O  O848  1  0.639300  0.822500  0.688000  1
  O  O849  1  0.790600  0.240970  0.120300  1
  O  O850  1  0.209400  0.759030  0.879700  1
  O  O851  1  0.721200  0.327150  0.091060  1
  O  O852  1  0.278800  0.672850  0.908940  1
  O  O853  1  0.674800  0.300700  0.158950  1
  O  O854  1  0.325200  0.699300  0.841050  1
  O  O855  1  0.810800  0.315200  0.154100  1
  O  O856  1  0.189200  0.684800  0.845900  1
  O  O857  1  0.718300  0.645000  0.393800  1
  O  O858  1  0.281700  0.355000  0.606200  1
  O  O859  1  0.715600  0.698300  0.332100  1
  O  O860  1  0.284400  0.301700  0.667900  1
  O  O861  1  0.827400  0.670000  0.387000  1
  O  O862  1  0.172600  0.330000  0.613000  1
  O  O863  1  0.805200  0.605340  0.338350  1
  O  O864  1  0.194800  0.394660  0.661650  1
  O  O865  1  0.881400  0.540400  0.242000  1
  O  O866  1  0.118600  0.459600  0.758000  1
  O  O867  1  0.808900  0.523600  0.180000  1
  O  O868  1  0.191100  0.476400  0.820000  1
  O  O869  1  0.949300  0.470600  0.197300  1
  O  O870  1  0.050700  0.529400  0.802700  1
  O  O871  1  0.923400  0.558700  0.170300  1
  O  O872  1  0.076600  0.441300  0.829700  1
  O  O873  1  0.612800  0.896300  0.373600  1
  O  O874  1  0.387200  0.103700  0.626400  1
  O  O875  1  0.561000  0.922300  0.316100  1
  O  O876  1  0.439000  0.077700  0.683900  1
  O  O877  1  0.814500  0.688500  0.330600  1
  O  O878  1  0.185500  0.311500  0.669400  1
  O  O879  1  0.680700  0.679000  0.347200  1
  O  O880  1  0.319300  0.321000  0.652800  1
  O  O881  1  0.798400  0.659900  0.400500  1
  O  O882  1  0.201600  0.340100  0.599500  1
  O  O883  1  0.842100  0.574800  0.185600  1
  O  O884  1  0.157900  0.425200  0.814400  1
  O  O885  1  0.932500  0.487600  0.204100  1
  O  O886  1  0.067500  0.512400  0.795900  1
  O  O887  1  0.959500  0.530100  0.140900  1
  O  O888  1  0.040500  0.469900  0.859100  1
  O  O889  1  0.983000  0.563400  0.209000  1
  O  O890  1  0.017000  0.436600  0.791000  1
  O  O891  1  0.611700  0.904600  0.340700  1
  O  O892  1  0.388300  0.095400  0.659300  1
  O  O893  1  0.567100  0.928700  0.411600  1
  O  O894  1  0.432900  0.071300  0.588400  1
  O  O895  1  0.464400  0.931300  0.358500  1
  O  O896  1  0.535600  0.068700  0.641500  1
  O  O897  1  0.556300  0.847100  0.383800  1
  O  O898  1  0.443700  0.152900  0.616200  1
  O  O899  1  0.258800  0.852600  0.304100  1
  O  O900  1  0.741200  0.147400  0.695900  1
  O  O901  1  0.372700  0.757800  0.168300  1
  O  O902  1  0.627300  0.242200  0.831700  1
  O  O903  1  0.171400  0.887000  0.308600  1
  O  O904  1  0.828600  0.113000  0.691400  1
  O  O905  1  0.059900  0.701400  0.245300  1
  O  O906  1  0.940100  0.298600  0.754700  1
  O  O907  1  0.211600  0.677400  0.269100  1
  O  O908  1  0.788400  0.322600  0.730900  1
  O  O909  1  0.115600  0.766100  0.283300  1
  O  O910  1  0.884400  0.233900  0.716700  1
  O  O911  1  0.160800  0.739600  0.209700  1
  O  O912  1  0.839200  0.260400  0.790300  1
