
#######################################################################
#
#                 Cambridge Crystallographic Data Centre
#                                CCDC 
#
#######################################################################
#
# If this CIF has been generated from an entry in the Cambridge 
# Structural Database, then it will include bibliographic, chemical, 
# crystal, experimental, refinement or atomic coordinate data resulting 
# from the CCDC's data processing and validation procedures.
#
#######################################################################

data_AVELAQ
_chemical_formula_moiety         
'C174 H114 Br6 Cl12 Fe6 N30 6+,10(C2 H3 N1),5(Cl1 O4 1-),0.5(Br4 Fe1 2-),H2 O1'
_chemical_name_systematic        
"tris(\m-3,3'-bipyridine-6,6'-diylbis(N-(4-chlorophenyl)methanimine))-tris(\m-3,3':6',2'':5'',3'''-quaterpyridine-6,6'''-diylbis(N-(4-chlorophenyl)methanimine))-hexabromo-hexa-iron pentaperchlorate hemikis(tetrabromo-iron) acetonitrile solvate monohydrate"
_symmetry_cell_setting           triclinic
_symmetry_space_group_name_H-M   'P -1'
_symmetry_Int_Tables_number      2
_space_group_name_Hall           '-P 1'
loop_
_symmetry_equiv_pos_site_id
_symmetry_equiv_pos_as_xyz
1 x,y,z
2 -x,-y,-z
_cell_length_a                   16.0089(7)
_cell_length_b                   25.8622(10)
_cell_length_c                   29.8790(11)
_cell_angle_alpha                89.880(2)
_cell_angle_beta                 89.852(2)
_cell_angle_gamma                72.396(2)
_cell_volume                     11791.3
_exptl_crystal_colour            blue
_exptl_crystal_description       block
_cell_formula_units_Z            2
loop_
_atom_site_label
_atom_site_type_symbol
_atom_site_fract_x
_atom_site_fract_y
_atom_site_fract_z
Fe1 Fe 0.27116(5) 0.49331(3) 0.26652(2)
Fe2 Fe -0.07449(5) 0.82904(3) 0.39893(2)
Fe3 Fe 0.01165(5) 0.80244(3) 0.08109(2)
Fe4 Fe 0.16180(5) 0.56657(3) 0.51012(2)
Fe5 Fe -0.26318(6) 1.04205(3) 0.21897(3)
Fe6 Fe 0.27230(5) 0.51460(3) 0.00759(2)
N1 N 0.3690(3) 0.51771(16) 0.28803(14)
N2 N 0.2657(3) 0.55138(15) 0.22264(13)
N3 N 0.0393(3) 0.72704(15) 0.10418(12)
N4 N -0.1063(3) 0.79381(16) 0.07990(13)
N5 N 0.1296(3) 0.81219(16) 0.08278(14)
N6 N 0.0108(3) 0.82926(15) 0.14294(12)
N7 N -0.1075(3) 0.82912(15) 0.33559(13)
N8 N -0.1703(3) 0.79536(17) 0.40400(13)
N9 N 0.0184(3) 0.86424(17) 0.39349(13)
N10 N 0.0282(3) 0.76384(16) 0.38732(12)
N11 N 0.1737(3) 0.54353(15) 0.29954(13)
N12 N 0.1736(3) 0.46835(16) 0.24437(13)
N13 N 0.3881(3) 0.4830(2) -0.03689(14)
N14 N 0.3698(3) 0.45428(17) 0.04765(14)
N15 N 0.3553(3) 0.43657(16) 0.23189(14)
N16 N 0.2975(3) 0.43537(16) 0.31185(13)
N17 N 0.2004(3) 0.48439(16) 0.48638(13)
N18 N 0.1030(3) 0.52019(18) 0.55773(13)
N19 N 0.2550(3) 0.55153(19) 0.57097(14)
N20 N 0.1273(3) 0.64113(17) 0.54779(13)
N21 N -0.0578(3) 0.82868(17) 0.46458(13)
N22 N -0.1648(3) 0.89690(17) 0.41405(14)
N23 N -0.3232(3) 1.04453(18) 0.28429(16)
N24 N -0.4049(3) 1.08946(18) 0.20993(16)
N25 N -0.2543(3) 1.12744(18) 0.21816(16)
N26 N -0.2139(3) 1.05259(17) 0.15274(15)
N27 N -0.0316(3) 0.87538(16) 0.05406(13)
N28 N 0.0224(3) 0.78205(16) 0.01753(13)
N29 N 0.1816(3) 0.57211(17) -0.03675(13)
N30 N 0.2278(3) 0.46354(18) -0.04505(14)
C1 C 0.4244(3) 0.4949(2) 0.32600(17)
C2 C 0.4991(3) 0.4512(2) 0.31915(19)
H1 H 0.5191 0.4403 0.2897
C3 C 0.5444(4) 0.4236(2) 0.3563(2)
H2 H 0.5951 0.3934 0.3522
C4 C 0.5159(4) 0.4401(2) 0.39791(19)
C5 C 0.4440(4) 0.4860(2) 0.40556(19)
H3 H 0.4274 0.4986 0.4351
C6 C 0.3971(4) 0.5128(2) 0.36803(19)
H4 H 0.3466 0.5433 0.3720
C7 C 0.3937(3) 0.5500(2) 0.26093(17)
H5 H 0.4457 0.5596 0.2657
C8 C 0.3365(3) 0.5702(2) 0.22314(18)
C9 C 0.3497(4) 0.6070(2) 0.19215(19)
H6 H 0.4018 0.6173 0.1919
C10 C 0.2814(4) 0.6283(2) 0.16078(18)
H7 H 0.2889 0.6520 0.1378
C11 C 0.2042(3) 0.61488(19) 0.16345(15)
C12 C 0.2005(3) 0.57423(18) 0.19409(15)
H8 H 0.1497 0.5625 0.1946
C13 C 0.1138(3) 0.69693(19) 0.12282(15)
H9 H 0.1607 0.7119 0.1261
C14 C 0.1251(3) 0.64336(19) 0.13780(14)
C15 C 0.0574(4) 0.6212(2) 0.13122(16)
H10 H 0.0648 0.5842 0.1384
C16 C -0.0224(4) 0.6542(2) 0.11375(16)
H11 H -0.0711 0.6408 0.1103
C17 C -0.0283(3) 0.7062(2) 0.10186(16)
C18 C -0.1103(3) 0.74584(19) 0.08722(15)
H12 H -0.1628 0.7365 0.0834
C19 C -0.1837(3) 0.8342(2) 0.0639(2)
C20 C -0.2078(4) 0.8327(3) 0.0201(2)
H13 H -0.1756 0.8048 0.0006
C21 C -0.2816(5) 0.8737(4) 0.0050(3)
H14 H -0.2995 0.8747 -0.0253
C22 C -0.3271(6) 0.9119(4) 0.0343(4)
C23 C -0.3054(5) 0.9130(3) 0.0780(4)
H15 H -0.3403 0.9391 0.0981
C24 C -0.2290(4) 0.8737(3) 0.0918(3)
H16 H -0.2086 0.8749 0.1215
C25 C 0.1927(4) 0.8015(2) 0.04715(18)
C26 C 0.2201(4) 0.8437(2) 0.0283(2)
H17 H 0.1964 0.8797 0.0391
C27 C 0.2806(5) 0.8332(3) -0.0056(2)
H18 H 0.2991 0.8618 -0.0181
C28 C 0.3149(5) 0.7805(3) -0.0216(2)
C29 C 0.2883(4) 0.7383(3) -0.0025(2)
H19 H 0.3120 0.7023 -0.0133
C30 C 0.2275(4) 0.7493(2) 0.0321(2)
H20 H 0.2100 0.7207 0.0454
C31 C 0.1418(4) 0.8396(2) 0.11650(18)
H21 H 0.1911 0.8528 0.1180
C32 C 0.0775(4) 0.8499(2) 0.15222(16)
C33 C 0.0861(4) 0.8733(2) 0.19228(17)
H22 H 0.1320 0.8889 0.1968
C34 C 0.0268(4) 0.8738(2) 0.22602(17)
H23 H 0.0301 0.8909 0.2538
C35 C -0.0382(3) 0.84874(19) 0.21885(16)
C36 C -0.0443(3) 0.82797(19) 0.17667(16)
H24 H -0.0896 0.8120 0.1713
C37 C -0.0637(4) 0.83985(19) 0.30067(16)
H25 H -0.0097 0.8470 0.3057
C38 C -0.0947(4) 0.84094(19) 0.25620(16)
C39 C -0.1755(3) 0.8312(2) 0.24997(17)
H26 H -0.2004 0.8340 0.2209
C40 C -0.2183(4) 0.8178(2) 0.28552(17)
H27 H -0.2719 0.8098 0.2813
C41 C -0.1824(4) 0.81594(19) 0.32841(17)
C42 C -0.2166(4) 0.7980(2) 0.36853(17)
H28 H -0.2698 0.7888 0.3686
C43 C -0.2012(4) 0.7822(2) 0.44653(17)
C44 C -0.2766(4) 0.8161(2) 0.46530(19)
H29 H -0.3137 0.8447 0.4479
C45 C -0.2986(4) 0.8091(2) 0.5086(2)
H30 H -0.3498 0.8331 0.5217
C46 C -0.2451(4) 0.7665(2) 0.53297(18)
C47 C -0.1711(4) 0.7308(2) 0.51429(18)
H31 H -0.1356 0.7014 0.5315
C48 C -0.1490(4) 0.7379(2) 0.47069(18)
H32 H -0.0990 0.7131 0.4572
C49 C 0.0040(4) 0.9221(2) 0.3992(2)
C50 C 0.0358(6) 0.9399(3) 0.4360(3)
H33 H 0.0721 0.9150 0.4565
C51 C 0.0138(7) 0.9959(3) 0.4432(3)
H34 H 0.0375 1.0096 0.4680
C52 C -0.0431(7) 1.0316(3) 0.4136(4)
C53 C -0.0675(6) 1.0121(3) 0.3743(3)
H35 H -0.1000 1.0366 0.3524
C54 C -0.0445(5) 0.9576(2) 0.3674(2)
H36 H -0.0617 0.9439 0.3406
C55 C 0.0977(4) 0.8319(2) 0.39445(17)
H37 H 0.1473 0.8444 0.3980
C56 C 0.1049(4) 0.7744(2) 0.38960(16)
C57 C 0.1850(4) 0.7345(2) 0.38470(17)
H38 H 0.2387 0.7423 0.3888
C58 C 0.1835(4) 0.6823(2) 0.37360(16)
H39 H 0.2370 0.6537 0.3713
C59 C 0.1053(4) 0.6721(2) 0.36589(15)
C60 C 0.0271(3) 0.71415(19) 0.37487(15)
H40 H -0.0275 0.7071 0.3720
C61 C 0.1741(3) 0.58770(19) 0.32284(15)
H41 H 0.2271 0.5970 0.3240
C62 C 0.1012(3) 0.62072(19) 0.34541(15)
C63 C 0.0243(4) 0.6056(2) 0.34403(17)
H42 H -0.0254 0.6252 0.3610
C64 C 0.0203(4) 0.5628(2) 0.31833(17)
H43 H -0.0328 0.5538 0.3158
C65 C 0.0955(4) 0.53237(19) 0.29586(16)
C66 C 0.1004(4) 0.4889(2) 0.26440(16)
H44 H 0.0515 0.4763 0.2589
C67 C 0.1805(3) 0.4264(2) 0.21120(17)
C68 C 0.1591(4) 0.4406(2) 0.16730(18)
H45 H 0.1367 0.4777 0.1592
C69 C 0.1700(4) 0.4009(2) 0.13512(19)
H46 H 0.1544 0.4106 0.1049
C70 C 0.2039(4) 0.3470(2) 0.1472(2)
C71 C 0.2281(4) 0.3326(2) 0.1904(2)
H47 H 0.2542 0.2955 0.1979
C72 C 0.2145(4) 0.3718(2) 0.22307(18)
H48 H 0.2282 0.3618 0.2534
C73 C 0.3907(4) 0.4908(3) -0.08415(19)
C74 C 0.3584(5) 0.5425(3) -0.1007(2)
H49 H 0.3366 0.5722 -0.0809
C75 C 0.3576(6) 0.5516(3) -0.1471(3)
H50 H 0.3349 0.5870 -0.1592
C76 C 0.3904(6) 0.5077(3) -0.1740(2)
C77 C 0.4208(5) 0.4553(3) -0.1586(2)
H51 H 0.4403 0.4256 -0.1787
C78 C 0.4222(4) 0.4472(3) -0.11319(19)
H52 H 0.4448 0.4115 -0.1015
C79 C 0.4517(4) 0.4447(3) -0.02075(18)
H53 H 0.5008 0.4265 -0.0387
C80 C 0.4463(4) 0.4297(2) 0.02652(17)
C81 C 0.5146(4) 0.3920(3) 0.0470(2)
H54 H 0.5666 0.3750 0.0306
C82 C 0.5084(4) 0.3788(3) 0.09098(19)
H55 H 0.5549 0.3522 0.1052
C83 C 0.4307(4) 0.4059(2) 0.11474(18)
C84 C 0.3635(4) 0.4423(2) 0.09080(17)
H56 H 0.3102 0.4596 0.1060
C85 C 0.3719(3) 0.4400(2) 0.18807(16)
H57 H 0.3488 0.4741 0.1737
C86 C 0.4200(3) 0.3973(2) 0.16314(17)
C87 C 0.4569(4) 0.3476(2) 0.18533(18)
H58 H 0.4918 0.3169 0.1693
C88 C 0.4420(4) 0.3438(2) 0.23055(17)
H59 H 0.4688 0.3109 0.2461
C89 C 0.3883(3) 0.3877(2) 0.25302(17)
C90 C 0.3600(3) 0.38831(19) 0.29962(16)
C91 C 0.3921(4) 0.3473(2) 0.33121(18)
H60 H 0.4345 0.3144 0.3226
C92 C 0.3628(4) 0.3543(2) 0.37423(17)
H61 H 0.3862 0.3267 0.3958
C93 C 0.2972(3) 0.40270(19) 0.38687(17)
C94 C 0.2664(4) 0.4407(2) 0.35352(16)
H62 H 0.2201 0.4725 0.3607
C95 C 0.2375(3) 0.4688(2) 0.44725(16)
H63 H 0.2487 0.4955 0.4282
C96 C 0.2614(3) 0.4146(2) 0.43202(16)
C97 C 0.2495(4) 0.3759(2) 0.46226(17)
H64 H 0.2684 0.3385 0.4545
C98 C 0.2104(4) 0.3919(2) 0.50304(17)
H65 H 0.2027 0.3657 0.5237
C99 C 0.1822(3) 0.4468(2) 0.51396(16)
C100 C 0.1336(4) 0.4688(2) 0.55407(17)
H66 H 0.1246 0.4455 0.5770
C101 C 0.0576(4) 0.5455(2) 0.59612(18)
C102 C 0.0908(4) 0.5297(2) 0.63881(18)
H67 H 0.1383 0.4975 0.6426
C103 C 0.0542(5) 0.5614(3) 0.6763(2)
H68 H 0.0774 0.5519 0.7054
C104 C -0.0164(5) 0.6064(3) 0.6693(2)
C105 C -0.0530(5) 0.6209(3) 0.6276(3)
H69 H -0.1037 0.6514 0.6243
C106 C -0.0148(4) 0.5905(3) 0.5905(2)
H70 H -0.0383 0.6005 0.5615
C107 C 0.3223(4) 0.5018(2) 0.58048(19)
C108 C 0.3735(4) 0.4747(2) 0.5462(2)
H71 H 0.3612 0.4880 0.5165
C109 C 0.4431(5) 0.4282(3) 0.5535(2)
H72 H 0.4799 0.4104 0.5296
C110 C 0.4572(4) 0.4087(3) 0.5974(2)
C111 C 0.4050(4) 0.4342(3) 0.6320(2)
H73 H 0.4153 0.4194 0.6613
C112 C 0.3374(4) 0.4814(3) 0.6247(2)
H74 H 0.3020 0.4998 0.6488
C113 C 0.2345(4) 0.5901(2) 0.59878(18)
H75 H 0.2622 0.5859 0.6272
C114 C 0.1681(4) 0.6411(2) 0.58724(17)
C115 C 0.1529(4) 0.6870(2) 0.61287(18)
H76 H 0.1812 0.6854 0.6410
C116 C 0.0953(4) 0.7366(3) 0.59736(18)
H77 H 0.0830 0.7686 0.6149
C117 C 0.0570(4) 0.7368(2) 0.55537(17)
C118 C 0.0746(4) 0.6873(2) 0.53313(17)
H78 H 0.0464 0.6871 0.5052
C119 C -0.0019(4) 0.7891(2) 0.48759(17)
H79 H 0.0398 0.7613 0.4715
C120 C -0.0015(4) 0.7862(2) 0.53416(16)
C121 C -0.0579(4) 0.8288(2) 0.55706(19)
H80 H -0.0585 0.8293 0.5889
C122 C -0.1140(5) 0.8711(3) 0.53286(19)
H81 H -0.1527 0.9010 0.5483
C123 C -0.1141(4) 0.8703(2) 0.48691(18)
C124 C -0.1737(4) 0.9107(2) 0.45814(18)
C125 C -0.2350(5) 0.9574(3) 0.4715(2)
H82 H -0.2421 0.9654 0.5025
C126 C -0.2858(5) 0.9924(3) 0.4419(2)
H83 H -0.3268 1.0251 0.4520
C127 C -0.2772(5) 0.9798(2) 0.3963(2)
C128 C -0.2162(4) 0.9312(2) 0.38453(18)
H84 H -0.2104 0.9216 0.3538
C129 C -0.2858(4) 1.0169(2) 0.32013(18)
H85 H -0.2255 0.9968 0.3180
C130 C -0.3275(4) 1.0148(2) 0.36045(19)
C131 C -0.4163(5) 1.0441(3) 0.3641(2)
H86 H -0.4479 1.0437 0.3910
C132 C -0.4579(5) 1.0746(3) 0.3261(2)
H87 H -0.5175 1.0962 0.3276
C133 C -0.4107(4) 1.0722(2) 0.2875(2)
C134 C -0.4498(5) 1.0969(2) 0.2451(2)
H88 H -0.5093 1.1187 0.2444
C135 C -0.4450(4) 1.1139(2) 0.1688(2)
C136 C -0.4284(5) 1.0834(3) 0.1311(2)
H89 H -0.3912 1.0471 0.1324
C137 C -0.4652(5) 1.1049(3) 0.0905(3)
H90 H -0.4526 1.0841 0.0638
C138 C -0.5212(5) 1.1579(3) 0.0903(3)
C139 C -0.5372(5) 1.1891(3) 0.1280(2)
H91 H -0.5741 1.2256 0.1270
C140 C -0.4981(4) 1.1663(3) 0.1677(2)
H92 H -0.5083 1.1873 0.1943
C141 C -0.2770(4) 1.1658(2) 0.25365(19)
C142 C -0.3274(4) 1.2194(2) 0.2474(2)
H93 H -0.3467 1.2321 0.2183
C143 C -0.3496(4) 1.2543(2) 0.2837(2)
H94 H -0.3831 1.2913 0.2798
C144 C -0.3219(4) 1.2341(2) 0.3255(2)
C145 C -0.2706(5) 1.1820(2) 0.3328(2)
H95 H -0.2503 1.1697 0.3619
C146 C -0.2492(4) 1.1477(2) 0.2961(2)
H96 H -0.2147 1.1110 0.3003
C147 C -0.2328(4) 1.1421(2) 0.17927(19)
H97 H -0.2356 1.1788 0.1739
C148 C -0.2049(4) 1.1027(2) 0.14463(19)
C149 C -0.1713(5) 1.1132(2) 0.1042(2)
H98 H -0.1718 1.1490 0.0968
C150 C -0.1369(5) 1.0709(2) 0.07431(19)
H99 H -0.1113 1.0772 0.0469
C151 C -0.1403(4) 1.0202(2) 0.08482(18)
C152 C -0.1821(4) 1.0135(2) 0.12399(18)
H100 H -0.1879 0.9788 0.1303
C153 C -0.0632(3) 0.9211(2) 0.07654(17)
H101 H -0.0609 0.9198 0.1083
C154 C -0.1001(4) 0.9718(2) 0.05562(17)
C155 C -0.0992(4) 0.9730(2) 0.00932(18)
H102 H -0.1220 1.0064 -0.0061
C156 C -0.0656(4) 0.9262(2) -0.01394(18)
H103 H -0.0645 0.9270 -0.0457
C157 C -0.0329(3) 0.8775(2) 0.00838(16)
C158 C -0.0008(4) 0.8233(2) -0.01283(17)
C159 C 0.0038(4) 0.8136(2) -0.05864(17)
H104 H -0.0128 0.8431 -0.0791
C160 C 0.0320(4) 0.7617(2) -0.07435(17)
H105 H 0.0349 0.7548 -0.1056
C161 C 0.0565(4) 0.7189(2) -0.04365(17)
C162 C 0.0498(3) 0.73150(19) 0.00126(16)
H106 H 0.0658 0.7024 0.0221
C163 C 0.1526(4) 0.6254(2) -0.03087(16)
H107 H 0.1779 0.6405 -0.0075
C164 C 0.0876(4) 0.6605(2) -0.05664(17)
C165 C 0.0536(5) 0.6396(2) -0.0923(2)
H108 H 0.0121 0.6631 -0.1117
C166 C 0.0808(5) 0.5836(2) -0.0996(2)
H109 H 0.0571 0.5680 -0.1233
C167 C 0.1453(4) 0.5507(2) -0.07021(19)
C168 C 0.1746(4) 0.4919(2) -0.07400(19)
H110 H 0.1544 0.4746 -0.0979
C169 C 0.2589(4) 0.4066(2) -0.05080(18)
C170 C 0.2844(4) 0.3747(2) -0.01295(19)
H111 H 0.2801 0.3912 0.0157
C171 C 0.3163(4) 0.3186(2) -0.01674(19)
H112 H 0.3323 0.2967 0.0092
C172 C 0.3244(4) 0.2952(2) -0.0586(2)
C173 C 0.2994(4) 0.3264(2) -0.0970(2)
H113 H 0.3047 0.3098 -0.1256
C174 C 0.2668(4) 0.3822(2) -0.0928(2)
H114 H 0.2497 0.4040 -0.1188
Cl1 Cl 0.22224(15) 0.29769(8) 0.10553(6)
Cl2 Cl 0.56935(10) 0.40337(7) 0.44384(5)
Cl3 Cl -0.0797(2) 1.10062(10) 0.42544(14)
Cl4 Cl -0.26830(13) 0.75842(7) 0.58968(5)
Cl5 Cl -0.4212(3) 0.95899(16) 0.01410(19)
Cl6 Cl 0.39006(17) 0.76744(11) -0.06419(8)
Cl7 Cl -0.05737(18) 0.64763(10) 0.71551(7)
Cl8 Cl 0.54480(13) 0.35099(8) 0.60776(8)
Cl9 Cl -0.35237(13) 1.27788(7) 0.37173(6)
Cl10 Cl -0.56978(19) 1.18435(10) 0.03987(8)
Cl11 Cl 0.3840(2) 0.51673(13) -0.23294(7)
Cl12 Cl 0.36512(13) 0.22520(6) -0.06453(6)
Br1 Br 0.27048(4) 0.59473(2) 0.46106(2)
Br2 Br 0.02419(4) 0.59731(2) 0.46174(2)
Br3 Br 0.14966(4) 0.51245(2) 0.06014(2)
Br4 Br 0.32037(4) 0.59140(2) 0.04490(2)
Br5 Br -0.10835(4) 1.00451(2) 0.24994(2)
Br6 Br -0.29315(5) 0.95345(2) 0.19788(2)
Cl13 Cl 0.36449(11) 0.21990(6) 0.28272(5)
O1 O 0.4508(3) 0.22397(18) 0.28106(17)
O2 O 0.3422(4) 0.2066(3) 0.23903(17)
O3 O 0.3030(3) 0.26965(19) 0.2953(2)
O4 O 0.3607(4) 0.1775(2) 0.3120(2)
Cl14 Cl 0.74840(12) 0.29608(6) 0.13079(6)
O5 O 0.7906(3) 0.24097(16) 0.1203(2)
O6 O 0.7212(3) 0.32715(18) 0.09106(15)
O7 O 0.6748(4) 0.3007(2) 0.15895(17)
O8 O 0.8108(4) 0.3152(3) 0.1541(2)
Cl15 Cl 0.76976(11) 0.65692(6) 0.35766(5)
O9 O 0.7183(10) 0.6450(6) 0.3938(5)
O10 O 0.7156(8) 0.6983(5) 0.3321(4)
O11 O 0.8274(6) 0.6700(4) 0.3870(3)
O12 O 0.8052(3) 0.60534(17) 0.33835(19)
Cl16 Cl 0.8909(3) 0.5243(2) 0.19636(14)
O13 O 0.8814(6) 0.5404(4) 0.2420(2)
O14 O 0.8089(5) 0.5236(4) 0.1800(3)
O15 O 0.9493(7) 0.4706(4) 0.1973(4)
O16 O 0.9234(12) 0.5587(6) 0.1703(5)
O17 O 0.6128(15) 0.8963(8) 0.3736(7)
O18 O 0.561(2) 0.9223(15) 0.3161(12)
N31 N 0.1830(5) 0.8099(3) 0.4902(2)
C175 C 0.2400(5) 0.7733(3) 0.4961(2)
C176 C 0.3146(6) 0.7263(3) 0.5029(3)
H115 H 0.2945 0.6948 0.5096
H116 H 0.3493 0.7328 0.5281
H117 H 0.3509 0.7192 0.4758
N32 N 0.4523(5) 0.2855(3) 0.4751(3)
C177 C 0.4413(6) 0.2767(4) 0.5098(3)
C178 C 0.4306(11) 0.2647(7) 0.5574(5)
H118 H 0.4334 0.2265 0.5607
H119 H 0.3737 0.2878 0.5682
H120 H 0.4775 0.2719 0.5750
N33 N 0.576(2) 0.1253(14) 0.4578(11)
C179 C 0.538(2) 0.1555(13) 0.4288(11)
C180 C 0.464(3) 0.177(2) 0.3976(17)
H121 H 0.4368 0.1489 0.3909
H122 H 0.4858 0.1889 0.3698
H123 H 0.4207 0.2082 0.4114
N34 N 0.9806(7) 0.1558(5) 0.1832(4)
C181 C 0.9370(10) 0.1904(7) 0.2085(5)
C182 C 0.8976(9) 0.2353(6) 0.2431(5)
H124 H 0.8944 0.2188 0.2724
H125 H 0.8386 0.2565 0.2337
H126 H 0.9347 0.2592 0.2453
N35 N 0.8090(4) 0.7336(3) 0.1781(2)
C183 C 0.8479(6) 0.7087(4) 0.2068(3)
C184 C 0.8990(8) 0.6777(5) 0.2423(4)
H127 H 0.9526 0.6880 0.2460
H128 H 0.9144 0.6390 0.2352
H129 H 0.8650 0.6849 0.2702
N36 N 0.8874(4) 0.6870(3) 0.0007(2)
C185 C 0.9127(5) 0.6428(3) 0.0013(2)
C186 C 0.9478(5) 0.5844(3) 0.0028(3)
H130 H 1.0075 0.5733 -0.0094
H131 H 0.9108 0.5683 -0.0151
H132 H 0.9489 0.5720 0.0338
N37 N 0.5135(9) 0.6385(5) 0.2594(4)
C187 C 0.5881(10) 0.6375(6) 0.2489(5)
C188 C 0.6780(9) 0.6473(6) 0.2353(5)
H133 H 0.6767 0.6841 0.2439
H134 H 0.6865 0.6430 0.2029
H135 H 0.7264 0.6208 0.2507
N38 N 0.2526(5) 0.6315(3) 0.7087(3)
C189 C 0.2141(6) 0.6189(4) 0.7362(3)
C190 C 0.1684(7) 0.6006(5) 0.7731(4)
H136 H 0.1992 0.6013 0.8013
H137 H 0.1674 0.5635 0.7672
H138 H 0.1082 0.6247 0.7754
N39 N 0.1060(3) 0.9687(2) 0.09393(18)
C191 C 0.0912(5) 0.9896(3) 0.1226(3)
C192 C 0.0646(8) 1.0193(5) 0.1669(4)
H139 H 0.0174 1.0079 0.1806
H140 H 0.0442 1.0585 0.1615
H141 H 0.1152 1.0105 0.1870
N40 N 0.0183(12) 0.1648(9) 0.3251(6)
C193 C 0.0258(12) 0.1153(9) 0.3177(6)
C194 C 0.0751(13) 0.0599(8) 0.2957(7)
H142 H 0.1260 0.0634 0.2791
H143 H 0.0356 0.0493 0.2752
H144 H 0.0948 0.0322 0.3190
Fe7 Fe 0.23315(18) 0.74201(10) 0.25382(8)
Br7 Br 0.2039(3) 0.8249(2) 0.29394(13)
Br8 Br 0.10564(15) 0.71600(7) 0.24736(6)
Br9 Br 0.34091(12) 0.67360(8) 0.29260(6)
Br10 Br 0.28413(15) 0.75569(9) 0.18327(8)
loop_
_geom_bond_atom_site_label_1
_geom_bond_atom_site_label_2
_geom_bond_site_symmetry_1
_geom_bond_site_symmetry_2
Fe1 N1 1_555 1_555
Fe2 N7 1_555 1_555
Fe3 N3 1_555 1_555
Fe4 N17 1_555 1_555
Fe5 N23 1_555 1_555
Fe6 N13 1_555 1_555
N1 C1 1_555 1_555
N2 Fe1 1_555 1_555
N3 C13 1_555 1_555
N4 Fe3 1_555 1_555
N5 Fe3 1_555 1_555
N6 Fe3 1_555 1_555
N7 C37 1_555 1_555
N8 Fe2 1_555 1_555
N9 Fe2 1_555 1_555
N10 Fe2 1_555 1_555
N11 Fe1 1_555 1_555
N12 Fe1 1_555 1_555
N13 C73 1_555 1_555
N14 Fe6 1_555 1_555
N15 Fe1 1_555 1_555
N16 Fe1 1_555 1_555
N17 C95 1_555 1_555
N18 Fe4 1_555 1_555
N19 Fe4 1_555 1_555
N20 Fe4 1_555 1_555
N21 Fe2 1_555 1_555
N22 Fe2 1_555 1_555
N23 C129 1_555 1_555
N24 Fe5 1_555 1_555
N25 Fe5 1_555 1_555
N26 Fe5 1_555 1_555
N27 Fe3 1_555 1_555
N28 Fe3 1_555 1_555
N29 Fe6 1_555 1_555
N30 Fe6 1_555 1_555
C1 C2 1_555 1_555
C2 H1 1_555 1_555
C3 C2 1_555 1_555
H2 C3 1_555 1_555
C4 C3 1_555 1_555
C5 C4 1_555 1_555
H3 C5 1_555 1_555
C6 C1 1_555 1_555
H4 C6 1_555 1_555
C7 N1 1_555 1_555
H5 C7 1_555 1_555
C8 N2 1_555 1_555
C9 C8 1_555 1_555
H6 C9 1_555 1_555
C10 C9 1_555 1_555
H7 C10 1_555 1_555
C11 C10 1_555 1_555
C12 N2 1_555 1_555
H8 C12 1_555 1_555
C13 H9 1_555 1_555
C14 C11 1_555 1_555
C15 C14 1_555 1_555
H10 C15 1_555 1_555
C16 C15 1_555 1_555
H11 C16 1_555 1_555
C17 N3 1_555 1_555
C18 N4 1_555 1_555
H12 C18 1_555 1_555
C19 N4 1_555 1_555
C20 C19 1_555 1_555
H13 C20 1_555 1_555
C21 C20 1_555 1_555
H14 C21 1_555 1_555
C22 C21 1_555 1_555
C23 C22 1_555 1_555
H15 C23 1_555 1_555
C24 C19 1_555 1_555
H16 C24 1_555 1_555
C25 N5 1_555 1_555
C26 C25 1_555 1_555
H17 C26 1_555 1_555
C27 C26 1_555 1_555
H18 C27 1_555 1_555
C28 C27 1_555 1_555
C29 C28 1_555 1_555
H19 C29 1_555 1_555
C30 C25 1_555 1_555
H20 C30 1_555 1_555
C31 N5 1_555 1_555
H21 C31 1_555 1_555
C32 N6 1_555 1_555
C33 C32 1_555 1_555
H22 C33 1_555 1_555
C34 C33 1_555 1_555
H23 C34 1_555 1_555
C35 C34 1_555 1_555
C36 N6 1_555 1_555
H24 C36 1_555 1_555
C37 H25 1_555 1_555
C38 C35 1_555 1_555
C39 C38 1_555 1_555
H26 C39 1_555 1_555
C40 C39 1_555 1_555
H27 C40 1_555 1_555
C41 N7 1_555 1_555
C42 N8 1_555 1_555
H28 C42 1_555 1_555
C43 N8 1_555 1_555
C44 C43 1_555 1_555
H29 C44 1_555 1_555
C45 C44 1_555 1_555
H30 C45 1_555 1_555
C46 C45 1_555 1_555
C47 C46 1_555 1_555
H31 C47 1_555 1_555
C48 C43 1_555 1_555
H32 C48 1_555 1_555
C49 N9 1_555 1_555
C50 C49 1_555 1_555
H33 C50 1_555 1_555
C51 C50 1_555 1_555
H34 C51 1_555 1_555
C52 C51 1_555 1_555
C53 C52 1_555 1_555
H35 C53 1_555 1_555
C54 C49 1_555 1_555
H36 C54 1_555 1_555
C55 N9 1_555 1_555
H37 C55 1_555 1_555
C56 N10 1_555 1_555
C57 C56 1_555 1_555
H38 C57 1_555 1_555
C58 C57 1_555 1_555
H39 C58 1_555 1_555
C59 C58 1_555 1_555
C60 N10 1_555 1_555
H40 C60 1_555 1_555
C61 N11 1_555 1_555
H41 C61 1_555 1_555
C62 C59 1_555 1_555
C63 C62 1_555 1_555
H42 C63 1_555 1_555
C64 C63 1_555 1_555
H43 C64 1_555 1_555
C65 N11 1_555 1_555
C66 N12 1_555 1_555
H44 C66 1_555 1_555
C67 N12 1_555 1_555
C68 C67 1_555 1_555
H45 C68 1_555 1_555
C69 C68 1_555 1_555
H46 C69 1_555 1_555
C70 C69 1_555 1_555
C71 C70 1_555 1_555
H47 C71 1_555 1_555
C72 C67 1_555 1_555
H48 C72 1_555 1_555
C73 C74 1_555 1_555
C74 H49 1_555 1_555
C75 C74 1_555 1_555
H50 C75 1_555 1_555
C76 C75 1_555 1_555
C77 C76 1_555 1_555
H51 C77 1_555 1_555
C78 C73 1_555 1_555
H52 C78 1_555 1_555
C79 N13 1_555 1_555
H53 C79 1_555 1_555
C80 N14 1_555 1_555
C81 C80 1_555 1_555
H54 C81 1_555 1_555
C82 C81 1_555 1_555
H55 C82 1_555 1_555
C83 C82 1_555 1_555
C84 N14 1_555 1_555
H56 C84 1_555 1_555
C85 N15 1_555 1_555
H57 C85 1_555 1_555
C86 C83 1_555 1_555
C87 C86 1_555 1_555
H58 C87 1_555 1_555
C88 C87 1_555 1_555
H59 C88 1_555 1_555
C89 N15 1_555 1_555
C90 N16 1_555 1_555
C91 C90 1_555 1_555
H60 C91 1_555 1_555
C92 C91 1_555 1_555
H61 C92 1_555 1_555
C93 C92 1_555 1_555
C94 N16 1_555 1_555
H62 C94 1_555 1_555
C95 H63 1_555 1_555
C96 C93 1_555 1_555
C97 C96 1_555 1_555
H64 C97 1_555 1_555
C98 C97 1_555 1_555
H65 C98 1_555 1_555
C99 N17 1_555 1_555
C100 N18 1_555 1_555
H66 C100 1_555 1_555
C101 N18 1_555 1_555
C102 C101 1_555 1_555
H67 C102 1_555 1_555
C103 C102 1_555 1_555
H68 C103 1_555 1_555
C104 C103 1_555 1_555
C105 C104 1_555 1_555
H69 C105 1_555 1_555
C106 C101 1_555 1_555
H70 C106 1_555 1_555
C107 N19 1_555 1_555
C108 C107 1_555 1_555
H71 C108 1_555 1_555
C109 C108 1_555 1_555
H72 C109 1_555 1_555
C110 C109 1_555 1_555
C111 C110 1_555 1_555
H73 C111 1_555 1_555
C112 C107 1_555 1_555
H74 C112 1_555 1_555
C113 N19 1_555 1_555
H75 C113 1_555 1_555
C114 N20 1_555 1_555
C115 C114 1_555 1_555
H76 C115 1_555 1_555
C116 C115 1_555 1_555
H77 C116 1_555 1_555
C117 C116 1_555 1_555
C118 N20 1_555 1_555
H78 C118 1_555 1_555
C119 N21 1_555 1_555
H79 C119 1_555 1_555
C120 C117 1_555 1_555
C121 C120 1_555 1_555
H80 C121 1_555 1_555
C122 C121 1_555 1_555
H81 C122 1_555 1_555
C123 N21 1_555 1_555
C124 N22 1_555 1_555
C125 C124 1_555 1_555
H82 C125 1_555 1_555
C126 C125 1_555 1_555
H83 C126 1_555 1_555
C127 C126 1_555 1_555
C128 N22 1_555 1_555
H84 C128 1_555 1_555
C129 H85 1_555 1_555
C130 C127 1_555 1_555
C131 C130 1_555 1_555
H86 C131 1_555 1_555
C132 C131 1_555 1_555
H87 C132 1_555 1_555
C133 N23 1_555 1_555
C134 N24 1_555 1_555
H88 C134 1_555 1_555
C135 N24 1_555 1_555
C136 C135 1_555 1_555
H89 C136 1_555 1_555
C137 C136 1_555 1_555
H90 C137 1_555 1_555
C138 C137 1_555 1_555
C139 C138 1_555 1_555
H91 C139 1_555 1_555
C140 C135 1_555 1_555
H92 C140 1_555 1_555
C141 N25 1_555 1_555
C142 C141 1_555 1_555
H93 C142 1_555 1_555
C143 C142 1_555 1_555
H94 C143 1_555 1_555
C144 C143 1_555 1_555
C145 C144 1_555 1_555
H95 C145 1_555 1_555
C146 C141 1_555 1_555
H96 C146 1_555 1_555
C147 N25 1_555 1_555
H97 C147 1_555 1_555
C148 N26 1_555 1_555
C149 C148 1_555 1_555
H98 C149 1_555 1_555
C150 C149 1_555 1_555
H99 C150 1_555 1_555
C151 C150 1_555 1_555
C152 N26 1_555 1_555
H100 C152 1_555 1_555
C153 N27 1_555 1_555
H101 C153 1_555 1_555
C154 C151 1_555 1_555
C155 C154 1_555 1_555
H102 C155 1_555 1_555
C156 C155 1_555 1_555
H103 C156 1_555 1_555
C157 N27 1_555 1_555
C158 N28 1_555 1_555
C159 C158 1_555 1_555
H104 C159 1_555 1_555
C160 C159 1_555 1_555
H105 C160 1_555 1_555
C161 C160 1_555 1_555
C162 N28 1_555 1_555
H106 C162 1_555 1_555
C163 N29 1_555 1_555
H107 C163 1_555 1_555
C164 C161 1_555 1_555
C165 C164 1_555 1_555
H108 C165 1_555 1_555
C166 C165 1_555 1_555
H109 C166 1_555 1_555
C167 N29 1_555 1_555
C168 N30 1_555 1_555
H110 C168 1_555 1_555
C169 N30 1_555 1_555
C170 C169 1_555 1_555
H111 C170 1_555 1_555
C171 C170 1_555 1_555
H112 C171 1_555 1_555
C172 C171 1_555 1_555
C173 C172 1_555 1_555
H113 C173 1_555 1_555
C174 C169 1_555 1_555
H114 C174 1_555 1_555
Cl1 C70 1_555 1_555
Cl2 C4 1_555 1_555
Cl3 C52 1_555 1_555
Cl4 C46 1_555 1_555
Cl5 C22 1_555 1_555
Cl6 C28 1_555 1_555
Cl7 C104 1_555 1_555
Cl8 C110 1_555 1_555
Cl9 C144 1_555 1_555
Cl10 C138 1_555 1_555
Cl11 C76 1_555 1_555
Cl12 C172 1_555 1_555
Br1 Fe4 1_555 1_555
Br2 Fe4 1_555 1_555
Br3 Fe6 1_555 1_555
Br4 Fe6 1_555 1_555
Br5 Fe5 1_555 1_555
Br6 Fe5 1_555 1_555
Cl13 O1 1_555 1_555
O2 Cl13 1_555 1_555
O3 Cl13 1_555 1_555
O4 Cl13 1_555 1_555
Cl14 O5 1_555 1_555
O6 Cl14 1_555 1_555
O7 Cl14 1_555 1_555
O8 Cl14 1_555 1_555
Cl15 O9 1_555 1_555
O10 Cl15 1_555 1_555
O11 Cl15 1_555 1_555
O12 Cl15 1_555 1_555
Cl16 O13 1_555 1_555
O14 Cl16 1_555 1_555
O15 Cl16 1_555 1_555
O16 Cl16 1_555 1_555
N31 C175 1_555 1_555
C175 C176 1_555 1_555
C176 H115 1_555 1_555
H116 C176 1_555 1_555
H117 C176 1_555 1_555
N32 C177 1_555 1_555
C177 C178 1_555 1_555
C178 H118 1_555 1_555
H119 C178 1_555 1_555
H120 C178 1_555 1_555
N33 C179 1_555 1_555
C179 C180 1_555 1_555
C180 H121 1_555 1_555
H122 C180 1_555 1_555
H123 C180 1_555 1_555
N34 C181 1_555 1_555
C181 C182 1_555 1_555
C182 H124 1_555 1_555
H125 C182 1_555 1_555
H126 C182 1_555 1_555
N35 C183 1_555 1_555
C183 C184 1_555 1_555
C184 H127 1_555 1_555
H128 C184 1_555 1_555
H129 C184 1_555 1_555
N36 C185 1_555 1_555
C185 C186 1_555 1_555
C186 H130 1_555 1_555
H131 C186 1_555 1_555
H132 C186 1_555 1_555
N37 C187 1_555 1_555
C187 C188 1_555 1_555
C188 H133 1_555 1_555
H134 C188 1_555 1_555
H135 C188 1_555 1_555
N38 C189 1_555 1_555
C189 C190 1_555 1_555
C190 H136 1_555 1_555
H137 C190 1_555 1_555
H138 C190 1_555 1_555
N39 C191 1_555 1_555
C191 C192 1_555 1_555
C192 H139 1_555 1_555
H140 C192 1_555 1_555
H141 C192 1_555 1_555
N40 C193 1_555 1_555
C193 C194 1_555 1_555
C194 H142 1_555 1_555
H143 C194 1_555 1_555
H144 C194 1_555 1_555
Fe7 Br7 1_555 1_555
Br8 Fe7 1_555 1_555
Br9 Fe7 1_555 1_555
Br10 Fe7 1_555 1_555
C5 C6 1_555 1_555
C7 C8 1_555 1_555
C11 C12 1_555 1_555
C13 C14 1_555 1_555
C16 C17 1_555 1_555
C17 C18 1_555 1_555
C23 C24 1_555 1_555
C29 C30 1_555 1_555
C31 C32 1_555 1_555
C35 C36 1_555 1_555
C37 C38 1_555 1_555
C40 C41 1_555 1_555
C41 C42 1_555 1_555
C47 C48 1_555 1_555
C53 C54 1_555 1_555
C55 C56 1_555 1_555
C59 C60 1_555 1_555
C61 C62 1_555 1_555
C64 C65 1_555 1_555
C65 C66 1_555 1_555
C71 C72 1_555 1_555
C77 C78 1_555 1_555
C79 C80 1_555 1_555
C83 C84 1_555 1_555
C85 C86 1_555 1_555
C88 C89 1_555 1_555
C89 C90 1_555 1_555
C93 C94 1_555 1_555
C95 C96 1_555 1_555
C98 C99 1_555 1_555
C99 C100 1_555 1_555
C105 C106 1_555 1_555
C111 C112 1_555 1_555
C113 C114 1_555 1_555
C117 C118 1_555 1_555
C119 C120 1_555 1_555
C122 C123 1_555 1_555
C123 C124 1_555 1_555
C127 C128 1_555 1_555
C129 C130 1_555 1_555
C132 C133 1_555 1_555
C133 C134 1_555 1_555
C139 C140 1_555 1_555
C145 C146 1_555 1_555
C147 C148 1_555 1_555
C151 C152 1_555 1_555
C153 C154 1_555 1_555
C156 C157 1_555 1_555
C157 C158 1_555 1_555
C161 C162 1_555 1_555
C163 C164 1_555 1_555
C166 C167 1_555 1_555
C167 C168 1_555 1_555
C173 C174 1_555 1_555

#END
