# generated using pymatgen
data_KFe6H274C254Br24(N15O29)2
_symmetry_space_group_name_H-M   'P 1'
_cell_length_a   16.89560000
_cell_length_b   59.46500000
_cell_length_c   62.43600000
_cell_angle_alpha   116.18900000
_cell_angle_beta   90.00000000
_cell_angle_gamma   90.00000000
_symmetry_Int_Tables_number   1
_chemical_formula_structural   KFe6H274C254Br24(N15O29)2
_chemical_formula_sum   'K8 Fe48 H2192 C2032 Br192 N240 O464'
_cell_volume   56289.66316176
_cell_formula_units_Z   8
loop_
 _symmetry_equiv_pos_site_id
 _symmetry_equiv_pos_as_xyz
  1  'x, y, z'
loop_
 _atom_site_type_symbol
 _atom_site_label
 _atom_site_symmetry_multiplicity
 _atom_site_fract_x
 _atom_site_fract_y
 _atom_site_fract_z
 _atom_site_occupancy
  K  K1  1  0.656400  0.405500  0.917200  1
  K  K2  1  0.656400  0.594500  0.582800  1
  K  K3  1  0.156400  0.905500  0.917200  1
  K  K4  1  0.156400  0.094500  0.582800  1
  K  K5  1  0.343600  0.594500  0.082800  1
  K  K6  1  0.343600  0.405500  0.417200  1
  K  K7  1  0.843600  0.094500  0.082800  1
  K  K8  1  0.843600  0.905500  0.417200  1
  Fe  Fe9  1  0.812680  0.784350  0.244020  1
  Fe  Fe10  1  0.812680  0.215650  0.255980  1
  Fe  Fe11  1  0.312680  0.284350  0.244020  1
  Fe  Fe12  1  0.312680  0.715650  0.255980  1
  Fe  Fe13  1  0.187320  0.215650  0.755980  1
  Fe  Fe14  1  0.187320  0.784350  0.744020  1
  Fe  Fe15  1  0.687320  0.715650  0.755980  1
  Fe  Fe16  1  0.687320  0.284350  0.744020  1
  Fe  Fe17  1  0.519700  0.725170  0.995100  1
  Fe  Fe18  1  0.519700  0.274830  0.504900  1
  Fe  Fe19  1  0.019700  0.225170  0.995100  1
  Fe  Fe20  1  0.019700  0.774830  0.504900  1
  Fe  Fe21  1  0.480300  0.274830  0.004900  1
  Fe  Fe22  1  0.480300  0.725170  0.495100  1
  Fe  Fe23  1  0.980300  0.774830  0.004900  1
  Fe  Fe24  1  0.980300  0.225170  0.495100  1
  Fe  Fe25  1  0.832000  0.518910  0.052090  1
  Fe  Fe26  1  0.832000  0.481090  0.447910  1
  Fe  Fe27  1  0.332000  0.018910  0.052090  1
  Fe  Fe28  1  0.332000  0.981090  0.447910  1
  Fe  Fe29  1  0.168000  0.481090  0.947910  1
  Fe  Fe30  1  0.168000  0.518910  0.552090  1
  Fe  Fe31  1  0.668000  0.981090  0.947910  1
  Fe  Fe32  1  0.668000  0.018910  0.552090  1
  Fe  Fe33  1  0.636480  0.775000  0.126940  1
  Fe  Fe34  1  0.636480  0.225000  0.373060  1
  Fe  Fe35  1  0.136480  0.275000  0.126940  1
  Fe  Fe36  1  0.136480  0.725000  0.373060  1
  Fe  Fe37  1  0.363520  0.225000  0.873060  1
  Fe  Fe38  1  0.363520  0.775000  0.626940  1
  Fe  Fe39  1  0.863520  0.725000  0.873060  1
  Fe  Fe40  1  0.863520  0.275000  0.626940  1
  Fe  Fe41  1  0.675800  0.607630  0.002910  1
  Fe  Fe42  1  0.675800  0.392370  0.497090  1
  Fe  Fe43  1  0.175800  0.107630  0.002910  1
  Fe  Fe44  1  0.175800  0.892370  0.497090  1
  Fe  Fe45  1  0.324200  0.392370  0.997090  1
  Fe  Fe46  1  0.324200  0.607630  0.502910  1
  Fe  Fe47  1  0.824200  0.892370  0.997090  1
  Fe  Fe48  1  0.824200  0.107630  0.502910  1
  Fe  Fe49  1  0.826000  0.643900  0.163510  1
  Fe  Fe50  1  0.826000  0.356100  0.336490  1
  Fe  Fe51  1  0.326000  0.143900  0.163510  1
  Fe  Fe52  1  0.326000  0.856100  0.336490  1
  Fe  Fe53  1  0.174000  0.356100  0.836490  1
  Fe  Fe54  1  0.174000  0.643900  0.663510  1
  Fe  Fe55  1  0.674000  0.856100  0.836490  1
  Fe  Fe56  1  0.674000  0.143900  0.663510  1
  H  H57  1  0.960700  0.843600  0.306100  1
  H  H58  1  0.960700  0.156400  0.193900  1
  H  H59  1  0.460700  0.343600  0.306100  1
  H  H60  1  0.460700  0.656400  0.193900  1
  H  H61  1  0.039300  0.156400  0.693900  1
  H  H62  1  0.039300  0.843600  0.806100  1
  H  H63  1  0.539300  0.656400  0.693900  1
  H  H64  1  0.539300  0.343600  0.806100  1
  H  H65  1  0.975500  0.886300  0.316400  1
  H  H66  1  0.975500  0.113700  0.183600  1
  H  H67  1  0.475500  0.386300  0.316400  1
  H  H68  1  0.475500  0.613700  0.183600  1
  H  H69  1  0.024500  0.113700  0.683600  1
  H  H70  1  0.024500  0.886300  0.816400  1
  H  H71  1  0.524500  0.613700  0.683600  1
  H  H72  1  0.524500  0.386300  0.816400  1
  H  H73  1  0.912800  0.873300  0.249200  1
  H  H74  1  0.912800  0.126700  0.250800  1
  H  H75  1  0.412800  0.373300  0.249200  1
  H  H76  1  0.412800  0.626700  0.250800  1
  H  H77  1  0.087200  0.126700  0.750800  1
  H  H78  1  0.087200  0.873300  0.749200  1
  H  H79  1  0.587200  0.626700  0.750800  1
  H  H80  1  0.587200  0.373300  0.749200  1
  H  H81  1  0.898000  0.830600  0.239000  1
  H  H82  1  0.898000  0.169400  0.261000  1
  H  H83  1  0.398000  0.330600  0.239000  1
  H  H84  1  0.398000  0.669400  0.261000  1
  H  H85  1  0.102000  0.169400  0.761000  1
  H  H86  1  0.102000  0.830600  0.739000  1
  H  H87  1  0.602000  0.669400  0.761000  1
  H  H88  1  0.602000  0.330600  0.739000  1
  H  H89  1  0.999600  0.804400  0.285000  1
  H  H90  1  0.999600  0.195600  0.215000  1
  H  H91  1  0.499600  0.304400  0.285000  1
  H  H92  1  0.499600  0.695600  0.215000  1
  H  H93  1  0.000400  0.195600  0.715000  1
  H  H94  1  0.000400  0.804400  0.785000  1
  H  H95  1  0.500400  0.695600  0.715000  1
  H  H96  1  0.500400  0.304400  0.785000  1
  H  H97  1  0.037200  0.762100  0.284300  1
  H  H98  1  0.037200  0.237900  0.215700  1
  H  H99  1  0.537200  0.262100  0.284300  1
  H  H100  1  0.537200  0.737900  0.215700  1
  H  H101  1  0.962800  0.237900  0.715700  1
  H  H102  1  0.962800  0.762100  0.784300  1
  H  H103  1  0.462800  0.737900  0.715700  1
  H  H104  1  0.462800  0.262100  0.784300  1
  H  H105  1  0.018000  0.719700  0.267700  1
  H  H106  1  0.018000  0.280300  0.232300  1
  H  H107  1  0.518000  0.219700  0.267700  1
  H  H108  1  0.518000  0.780300  0.232300  1
  H  H109  1  0.982000  0.280300  0.732300  1
  H  H110  1  0.982000  0.719700  0.767700  1
  H  H111  1  0.482000  0.780300  0.732300  1
  H  H112  1  0.482000  0.219700  0.767700  1
  H  H113  1  0.830800  0.728300  0.232500  1
  H  H114  1  0.830800  0.271700  0.267500  1
  H  H115  1  0.330800  0.228300  0.232500  1
  H  H116  1  0.330800  0.771700  0.267500  1
  H  H117  1  0.169200  0.271700  0.767500  1
  H  H118  1  0.169200  0.728300  0.732500  1
  H  H119  1  0.669200  0.771700  0.767500  1
  H  H120  1  0.669200  0.228300  0.732500  1
  H  H121  1  0.882600  0.692800  0.202400  1
  H  H122  1  0.882600  0.307200  0.297600  1
  H  H123  1  0.382600  0.192800  0.202400  1
  H  H124  1  0.382600  0.807200  0.297600  1
  H  H125  1  0.117400  0.307200  0.797600  1
  H  H126  1  0.117400  0.692800  0.702400  1
  H  H127  1  0.617400  0.807200  0.797600  1
  H  H128  1  0.617400  0.192800  0.702400  1
  H  H129  1  0.944100  0.678700  0.257300  1
  H  H130  1  0.944100  0.321300  0.242700  1
  H  H131  1  0.444100  0.178700  0.257300  1
  H  H132  1  0.444100  0.821300  0.242700  1
  H  H133  1  0.055900  0.321300  0.742700  1
  H  H134  1  0.055900  0.678700  0.757300  1
  H  H135  1  0.555900  0.821300  0.742700  1
  H  H136  1  0.555900  0.178700  0.757300  1
  H  H137  1  0.920500  0.636700  0.233700  1
  H  H138  1  0.920500  0.363300  0.266300  1
  H  H139  1  0.420500  0.136700  0.233700  1
  H  H140  1  0.420500  0.863300  0.266300  1
  H  H141  1  0.079500  0.363300  0.766300  1
  H  H142  1  0.079500  0.636700  0.733700  1
  H  H143  1  0.579500  0.863300  0.766300  1
  H  H144  1  0.579500  0.136700  0.733700  1
  H  H145  1  0.891700  0.596300  0.207400  1
  H  H146  1  0.891700  0.403700  0.292600  1
  H  H147  1  0.391700  0.096300  0.207400  1
  H  H148  1  0.391700  0.903700  0.292600  1
  H  H149  1  0.108300  0.403700  0.792600  1
  H  H150  1  0.108300  0.596300  0.707400  1
  H  H151  1  0.608300  0.903700  0.792600  1
  H  H152  1  0.608300  0.096300  0.707400  1
  H  H153  1  0.859400  0.557400  0.177900  1
  H  H154  1  0.859400  0.442600  0.322100  1
  H  H155  1  0.359400  0.057400  0.177900  1
  H  H156  1  0.359400  0.942600  0.322100  1
  H  H157  1  0.140600  0.442600  0.822100  1
  H  H158  1  0.140600  0.557400  0.677900  1
  H  H159  1  0.640600  0.942600  0.822100  1
  H  H160  1  0.640600  0.057400  0.677900  1
  H  H161  1  0.796400  0.587200  0.135100  1
  H  H162  1  0.796400  0.412800  0.364900  1
  H  H163  1  0.296400  0.087200  0.135100  1
  H  H164  1  0.296400  0.912800  0.364900  1
  H  H165  1  0.203600  0.412800  0.864900  1
  H  H166  1  0.203600  0.587200  0.635100  1
  H  H167  1  0.703600  0.912800  0.864900  1
  H  H168  1  0.703600  0.087200  0.635100  1
  H  H169  1  0.865100  0.555300  0.106200  1
  H  H170  1  0.865100  0.444700  0.393800  1
  H  H171  1  0.365100  0.055300  0.106200  1
  H  H172  1  0.365100  0.944700  0.393800  1
  H  H173  1  0.134900  0.444700  0.893800  1
  H  H174  1  0.134900  0.555300  0.606200  1
  H  H175  1  0.634900  0.944700  0.893800  1
  H  H176  1  0.634900  0.055300  0.606200  1
  H  H177  1  0.781500  0.522900  0.146900  1
  H  H178  1  0.781500  0.477100  0.353100  1
  H  H179  1  0.281500  0.022900  0.146900  1
  H  H180  1  0.281500  0.977100  0.353100  1
  H  H181  1  0.218500  0.477100  0.853100  1
  H  H182  1  0.218500  0.522900  0.646900  1
  H  H183  1  0.718500  0.977100  0.853100  1
  H  H184  1  0.718500  0.022900  0.646900  1
  H  H185  1  0.753200  0.487800  0.111900  1
  H  H186  1  0.753200  0.512200  0.388100  1
  H  H187  1  0.253200  0.987800  0.111900  1
  H  H188  1  0.253200  0.012200  0.388100  1
  H  H189  1  0.246800  0.512200  0.888100  1
  H  H190  1  0.246800  0.487800  0.611900  1
  H  H191  1  0.746800  0.012200  0.888100  1
  H  H192  1  0.746800  0.987800  0.611900  1
  H  H193  1  0.751800  0.465600  0.066200  1
  H  H194  1  0.751800  0.534400  0.433800  1
  H  H195  1  0.251800  0.965600  0.066200  1
  H  H196  1  0.251800  0.034400  0.433800  1
  H  H197  1  0.248200  0.534400  0.933800  1
  H  H198  1  0.248200  0.465600  0.566200  1
  H  H199  1  0.748200  0.034400  0.933800  1
  H  H200  1  0.748200  0.965600  0.566200  1
  H  H201  1  0.819400  0.438200  0.031500  1
  H  H202  1  0.819400  0.561800  0.468500  1
  H  H203  1  0.319400  0.938200  0.031500  1
  H  H204  1  0.319400  0.061800  0.468500  1
  H  H205  1  0.180600  0.561800  0.968500  1
  H  H206  1  0.180600  0.438200  0.531500  1
  H  H207  1  0.680600  0.061800  0.968500  1
  H  H208  1  0.680600  0.938200  0.531500  1
  H  H209  1  0.785200  0.403700  0.995600  1
  H  H210  1  0.785200  0.596300  0.504400  1
  H  H211  1  0.285200  0.903700  0.995600  1
  H  H212  1  0.285200  0.096300  0.504400  1
  H  H213  1  0.214800  0.596300  0.004400  1
  H  H214  1  0.214800  0.403700  0.495600  1
  H  H215  1  0.714800  0.096300  0.004400  1
  H  H216  1  0.714800  0.903700  0.495600  1
  H  H217  1  0.644800  0.448700  0.978500  1
  H  H218  1  0.644800  0.551300  0.521500  1
  H  H219  1  0.144800  0.948700  0.978500  1
  H  H220  1  0.144800  0.051300  0.521500  1
  H  H221  1  0.355200  0.551300  0.021500  1
  H  H222  1  0.355200  0.448700  0.478500  1
  H  H223  1  0.855200  0.051300  0.021500  1
  H  H224  1  0.855200  0.948700  0.478500  1
  H  H225  1  0.688400  0.483500  0.012700  1
  H  H226  1  0.688400  0.516500  0.487300  1
  H  H227  1  0.188400  0.983500  0.012700  1
  H  H228  1  0.188400  0.016500  0.487300  1
  H  H229  1  0.311600  0.516500  0.987300  1
  H  H230  1  0.311600  0.483500  0.512700  1
  H  H231  1  0.811600  0.016500  0.987300  1
  H  H232  1  0.811600  0.983500  0.512700  1
  H  H233  1  0.771300  0.763400  0.286000  1
  H  H234  1  0.771300  0.236600  0.214000  1
  H  H235  1  0.271300  0.263400  0.286000  1
  H  H236  1  0.271300  0.736600  0.214000  1
  H  H237  1  0.228700  0.236600  0.714000  1
  H  H238  1  0.228700  0.763400  0.786000  1
  H  H239  1  0.728700  0.736600  0.714000  1
  H  H240  1  0.728700  0.263400  0.786000  1
  H  H241  1  0.820400  0.757600  0.318000  1
  H  H242  1  0.820400  0.242400  0.182000  1
  H  H243  1  0.320400  0.257600  0.318000  1
  H  H244  1  0.320400  0.742400  0.182000  1
  H  H245  1  0.179600  0.242400  0.682000  1
  H  H246  1  0.179600  0.757600  0.818000  1
  H  H247  1  0.679600  0.742400  0.682000  1
  H  H248  1  0.679600  0.257600  0.818000  1
  H  H249  1  0.863000  0.831700  0.353700  1
  H  H250  1  0.863000  0.168300  0.146300  1
  H  H251  1  0.363000  0.331700  0.353700  1
  H  H252  1  0.363000  0.668300  0.146300  1
  H  H253  1  0.137000  0.168300  0.646300  1
  H  H254  1  0.137000  0.831700  0.853700  1
  H  H255  1  0.637000  0.668300  0.646300  1
  H  H256  1  0.637000  0.331700  0.853700  1
  H  H257  1  0.804200  0.838100  0.322700  1
  H  H258  1  0.804200  0.161900  0.177300  1
  H  H259  1  0.304200  0.338100  0.322700  1
  H  H260  1  0.304200  0.661900  0.177300  1
  H  H261  1  0.195800  0.161900  0.677300  1
  H  H262  1  0.195800  0.838100  0.822700  1
  H  H263  1  0.695800  0.661900  0.677300  1
  H  H264  1  0.695800  0.338100  0.822700  1
  H  H265  1  0.697600  0.833600  0.299300  1
  H  H266  1  0.697600  0.166400  0.200700  1
  H  H267  1  0.197600  0.333600  0.299300  1
  H  H268  1  0.197600  0.666400  0.200700  1
  H  H269  1  0.302400  0.166400  0.700700  1
  H  H270  1  0.302400  0.833600  0.799300  1
  H  H271  1  0.802400  0.666400  0.700700  1
  H  H272  1  0.802400  0.333600  0.799300  1
  H  H273  1  0.612400  0.853600  0.278600  1
  H  H274  1  0.612400  0.146400  0.221400  1
  H  H275  1  0.112400  0.353600  0.278600  1
  H  H276  1  0.112400  0.646400  0.221400  1
  H  H277  1  0.387600  0.146400  0.721400  1
  H  H278  1  0.387600  0.853600  0.778600  1
  H  H279  1  0.887600  0.646400  0.721400  1
  H  H280  1  0.887600  0.353600  0.778600  1
  H  H281  1  0.573000  0.856400  0.244900  1
  H  H282  1  0.573000  0.143600  0.255100  1
  H  H283  1  0.073000  0.356400  0.244900  1
  H  H284  1  0.073000  0.643600  0.255100  1
  H  H285  1  0.427000  0.143600  0.755100  1
  H  H286  1  0.427000  0.856400  0.744900  1
  H  H287  1  0.927000  0.643600  0.755100  1
  H  H288  1  0.927000  0.356400  0.744900  1
  H  H289  1  0.738800  0.804600  0.208800  1
  H  H290  1  0.738800  0.195400  0.291200  1
  H  H291  1  0.238800  0.304600  0.208800  1
  H  H292  1  0.238800  0.695400  0.291200  1
  H  H293  1  0.261200  0.195400  0.791200  1
  H  H294  1  0.261200  0.804600  0.708800  1
  H  H295  1  0.761200  0.695400  0.791200  1
  H  H296  1  0.761200  0.304600  0.708800  1
  H  H297  1  0.646800  0.793000  0.180600  1
  H  H298  1  0.646800  0.207000  0.319400  1
  H  H299  1  0.146800  0.293000  0.180600  1
  H  H300  1  0.146800  0.707000  0.319400  1
  H  H301  1  0.353200  0.207000  0.819400  1
  H  H302  1  0.353200  0.793000  0.680600  1
  H  H303  1  0.853200  0.707000  0.819400  1
  H  H304  1  0.853200  0.293000  0.680600  1
  H  H305  1  0.586300  0.865700  0.210700  1
  H  H306  1  0.586300  0.134300  0.289300  1
  H  H307  1  0.086300  0.365700  0.210700  1
  H  H308  1  0.086300  0.634300  0.289300  1
  H  H309  1  0.413700  0.134300  0.789300  1
  H  H310  1  0.413700  0.865700  0.710700  1
  H  H311  1  0.913700  0.634300  0.789300  1
  H  H312  1  0.913700  0.365700  0.710700  1
  H  H313  1  0.553600  0.861100  0.172900  1
  H  H314  1  0.553600  0.138900  0.327100  1
  H  H315  1  0.053600  0.361100  0.172900  1
  H  H316  1  0.053600  0.638900  0.327100  1
  H  H317  1  0.446400  0.138900  0.827100  1
  H  H318  1  0.446400  0.861100  0.672900  1
  H  H319  1  0.946400  0.638900  0.827100  1
  H  H320  1  0.946400  0.361100  0.672900  1
  H  H321  1  0.532400  0.854600  0.134700  1
  H  H322  1  0.532400  0.145400  0.365300  1
  H  H323  1  0.032400  0.354600  0.134700  1
  H  H324  1  0.032400  0.645400  0.365300  1
  H  H325  1  0.467600  0.145400  0.865300  1
  H  H326  1  0.467600  0.854600  0.634700  1
  H  H327  1  0.967600  0.645400  0.865300  1
  H  H328  1  0.967600  0.354600  0.634700  1
  H  H329  1  0.529100  0.844100  0.094400  1
  H  H330  1  0.529100  0.155900  0.405600  1
  H  H331  1  0.029100  0.344100  0.094400  1
  H  H332  1  0.029100  0.655900  0.405600  1
  H  H333  1  0.470900  0.155900  0.905600  1
  H  H334  1  0.470900  0.844100  0.594400  1
  H  H335  1  0.970900  0.655900  0.905600  1
  H  H336  1  0.970900  0.344100  0.594400  1
  H  H337  1  0.633100  0.779200  0.079600  1
  H  H338  1  0.633100  0.220800  0.420400  1
  H  H339  1  0.133100  0.279200  0.079600  1
  H  H340  1  0.133100  0.720800  0.420400  1
  H  H341  1  0.366900  0.220800  0.920400  1
  H  H342  1  0.366900  0.779200  0.579600  1
  H  H343  1  0.866900  0.720800  0.920400  1
  H  H344  1  0.866900  0.279200  0.579600  1
  H  H345  1  0.540300  0.764200  0.049300  1
  H  H346  1  0.540300  0.235800  0.450700  1
  H  H347  1  0.040300  0.264200  0.049300  1
  H  H348  1  0.040300  0.735800  0.450700  1
  H  H349  1  0.459700  0.235800  0.950700  1
  H  H350  1  0.459700  0.764200  0.549300  1
  H  H351  1  0.959700  0.735800  0.950700  1
  H  H352  1  0.959700  0.264200  0.549300  1
  H  H353  1  0.587800  0.832500  0.052700  1
  H  H354  1  0.587800  0.167500  0.447300  1
  H  H355  1  0.087800  0.332500  0.052700  1
  H  H356  1  0.087800  0.667500  0.447300  1
  H  H357  1  0.412200  0.167500  0.947300  1
  H  H358  1  0.412200  0.832500  0.552700  1
  H  H359  1  0.912200  0.667500  0.947300  1
  H  H360  1  0.912200  0.332500  0.552700  1
  H  H361  1  0.588500  0.813100  0.011500  1
  H  H362  1  0.588500  0.186900  0.488500  1
  H  H363  1  0.088500  0.313100  0.011500  1
  H  H364  1  0.088500  0.686900  0.488500  1
  H  H365  1  0.411500  0.186900  0.988500  1
  H  H366  1  0.411500  0.813100  0.511500  1
  H  H367  1  0.911500  0.686900  0.988500  1
  H  H368  1  0.911500  0.313100  0.511500  1
  H  H369  1  0.564900  0.775400  0.972300  1
  H  H370  1  0.564900  0.224600  0.527700  1
  H  H371  1  0.064900  0.275400  0.972300  1
  H  H372  1  0.064900  0.724600  0.527700  1
  H  H373  1  0.435100  0.224600  0.027700  1
  H  H374  1  0.435100  0.775400  0.472300  1
  H  H375  1  0.935100  0.724600  0.027700  1
  H  H376  1  0.935100  0.275400  0.472300  1
  H  H377  1  0.589800  0.698500  0.939800  1
  H  H378  1  0.589800  0.301500  0.560200  1
  H  H379  1  0.089800  0.198500  0.939800  1
  H  H380  1  0.089800  0.801500  0.560200  1
  H  H381  1  0.410200  0.301500  0.060200  1
  H  H382  1  0.410200  0.698500  0.439800  1
  H  H383  1  0.910200  0.801500  0.060200  1
  H  H384  1  0.910200  0.198500  0.439800  1
  H  H385  1  0.562300  0.677700  0.898900  1
  H  H386  1  0.562300  0.322300  0.601100  1
  H  H387  1  0.062300  0.177700  0.898900  1
  H  H388  1  0.062300  0.822300  0.601100  1
  H  H389  1  0.437700  0.322300  0.101100  1
  H  H390  1  0.437700  0.677700  0.398900  1
  H  H391  1  0.937700  0.822300  0.101100  1
  H  H392  1  0.937700  0.177700  0.398900  1
  H  H393  1  0.451300  0.739700  0.902600  1
  H  H394  1  0.451300  0.260300  0.597400  1
  H  H395  1  0.951300  0.239700  0.902600  1
  H  H396  1  0.951300  0.760300  0.597400  1
  H  H397  1  0.548700  0.260300  0.097400  1
  H  H398  1  0.548700  0.739700  0.402600  1
  H  H399  1  0.048700  0.760300  0.097400  1
  H  H400  1  0.048700  0.239700  0.402600  1
  H  H401  1  0.478700  0.760500  0.943500  1
  H  H402  1  0.478700  0.239500  0.556500  1
  H  H403  1  0.978700  0.260500  0.943500  1
  H  H404  1  0.978700  0.739500  0.556500  1
  H  H405  1  0.521300  0.239500  0.056500  1
  H  H406  1  0.521300  0.760500  0.443500  1
  H  H407  1  0.021300  0.739500  0.056500  1
  H  H408  1  0.021300  0.260500  0.443500  1
  H  H409  1  0.381300  0.763600  0.022900  1
  H  H410  1  0.381300  0.236400  0.477100  1
  H  H411  1  0.881300  0.263600  0.022900  1
  H  H412  1  0.881300  0.736400  0.477100  1
  H  H413  1  0.618700  0.236400  0.977100  1
  H  H414  1  0.618700  0.763600  0.522900  1
  H  H415  1  0.118700  0.736400  0.977100  1
  H  H416  1  0.118700  0.263600  0.522900  1
  H  H417  1  0.316900  0.802000  0.035800  1
  H  H418  1  0.316900  0.198000  0.464200  1
  H  H419  1  0.816900  0.302000  0.035800  1
  H  H420  1  0.816900  0.698000  0.464200  1
  H  H421  1  0.683100  0.198000  0.964200  1
  H  H422  1  0.683100  0.802000  0.535800  1
  H  H423  1  0.183100  0.698000  0.964200  1
  H  H424  1  0.183100  0.302000  0.535800  1
  H  H425  1  0.259900  0.784100  0.967300  1
  H  H426  1  0.259900  0.215900  0.532700  1
  H  H427  1  0.759900  0.284100  0.967300  1
  H  H428  1  0.759900  0.715900  0.532700  1
  H  H429  1  0.740100  0.215900  0.032700  1
  H  H430  1  0.740100  0.784100  0.467300  1
  H  H431  1  0.240100  0.715900  0.032700  1
  H  H432  1  0.240100  0.284100  0.467300  1
  H  H433  1  0.316300  0.744400  0.954900  1
  H  H434  1  0.316300  0.255600  0.545100  1
  H  H435  1  0.816300  0.244400  0.954900  1
  H  H436  1  0.816300  0.755600  0.545100  1
  H  H437  1  0.683700  0.255600  0.045100  1
  H  H438  1  0.683700  0.744400  0.454900  1
  H  H439  1  0.183700  0.755600  0.045100  1
  H  H440  1  0.183700  0.244400  0.454900  1
  H  H441  1  0.330000  0.707700  0.954800  1
  H  H442  1  0.330000  0.292300  0.545200  1
  H  H443  1  0.830000  0.207700  0.954800  1
  H  H444  1  0.830000  0.792300  0.545200  1
  H  H445  1  0.670000  0.292300  0.045200  1
  H  H446  1  0.670000  0.707700  0.454800  1
  H  H447  1  0.170000  0.792300  0.045200  1
  H  H448  1  0.170000  0.207700  0.454800  1
  H  H449  1  0.346200  0.660000  0.933100  1
  H  H450  1  0.346200  0.340000  0.566900  1
  H  H451  1  0.846200  0.160000  0.933100  1
  H  H452  1  0.846200  0.840000  0.566900  1
  H  H453  1  0.653800  0.340000  0.066900  1
  H  H454  1  0.653800  0.660000  0.433100  1
  H  H455  1  0.153800  0.840000  0.066900  1
  H  H456  1  0.153800  0.160000  0.433100  1
  H  H457  1  0.416200  0.625100  0.927200  1
  H  H458  1  0.416200  0.374900  0.572800  1
  H  H459  1  0.916200  0.125100  0.927200  1
  H  H460  1  0.916200  0.874900  0.572800  1
  H  H461  1  0.583800  0.374900  0.072800  1
  H  H462  1  0.583800  0.625100  0.427200  1
  H  H463  1  0.083800  0.874900  0.072800  1
  H  H464  1  0.083800  0.125100  0.427200  1
  H  H465  1  0.575600  0.669300  0.974800  1
  H  H466  1  0.575600  0.330700  0.525200  1
  H  H467  1  0.075600  0.169300  0.974800  1
  H  H468  1  0.075600  0.830700  0.525200  1
  H  H469  1  0.424400  0.330700  0.025200  1
  H  H470  1  0.424400  0.669300  0.474800  1
  H  H471  1  0.924400  0.830700  0.025200  1
  H  H472  1  0.924400  0.169300  0.474800  1
  H  H473  1  0.573400  0.638000  0.985600  1
  H  H474  1  0.573400  0.362000  0.514400  1
  H  H475  1  0.073400  0.138000  0.985600  1
  H  H476  1  0.073400  0.862000  0.514400  1
  H  H477  1  0.426600  0.362000  0.014400  1
  H  H478  1  0.426600  0.638000  0.485600  1
  H  H479  1  0.926600  0.862000  0.014400  1
  H  H480  1  0.926600  0.138000  0.485600  1
  H  H481  1  0.526900  0.594000  0.916600  1
  H  H482  1  0.526900  0.406000  0.583400  1
  H  H483  1  0.026900  0.094000  0.916600  1
  H  H484  1  0.026900  0.906000  0.583400  1
  H  H485  1  0.473100  0.406000  0.083400  1
  H  H486  1  0.473100  0.594000  0.416600  1
  H  H487  1  0.973100  0.906000  0.083400  1
  H  H488  1  0.973100  0.094000  0.416600  1
  H  H489  1  0.593800  0.562300  0.920800  1
  H  H490  1  0.593800  0.437700  0.579200  1
  H  H491  1  0.093800  0.062300  0.920800  1
  H  H492  1  0.093800  0.937700  0.579200  1
  H  H493  1  0.406200  0.437700  0.079200  1
  H  H494  1  0.406200  0.562300  0.420800  1
  H  H495  1  0.906200  0.937700  0.079200  1
  H  H496  1  0.906200  0.062300  0.420800  1
  H  H497  1  0.673500  0.533700  0.925300  1
  H  H498  1  0.673500  0.466300  0.574700  1
  H  H499  1  0.173500  0.033700  0.925300  1
  H  H500  1  0.173500  0.966300  0.574700  1
  H  H501  1  0.326500  0.466300  0.074700  1
  H  H502  1  0.326500  0.533700  0.425300  1
  H  H503  1  0.826500  0.966300  0.074700  1
  H  H504  1  0.826500  0.033700  0.425300  1
  H  H505  1  0.741900  0.507800  0.937200  1
  H  H506  1  0.741900  0.492200  0.562800  1
  H  H507  1  0.241900  0.007800  0.937200  1
  H  H508  1  0.241900  0.992200  0.562800  1
  H  H509  1  0.258100  0.492200  0.062800  1
  H  H510  1  0.258100  0.507800  0.437200  1
  H  H511  1  0.758100  0.992200  0.062800  1
  H  H512  1  0.758100  0.007800  0.437200  1
  H  H513  1  0.781900  0.564400  0.000700  1
  H  H514  1  0.781900  0.435600  0.499300  1
  H  H515  1  0.281900  0.064400  0.000700  1
  H  H516  1  0.281900  0.935600  0.499300  1
  H  H517  1  0.218100  0.435600  0.999300  1
  H  H518  1  0.218100  0.564400  0.500700  1
  H  H519  1  0.718100  0.935600  0.999300  1
  H  H520  1  0.718100  0.064400  0.500700  1
  H  H521  1  0.764200  0.536000  0.014100  1
  H  H522  1  0.764200  0.464000  0.485900  1
  H  H523  1  0.264200  0.036000  0.014100  1
  H  H524  1  0.264200  0.964000  0.485900  1
  H  H525  1  0.235800  0.464000  0.985900  1
  H  H526  1  0.235800  0.536000  0.514100  1
  H  H527  1  0.735800  0.964000  0.985900  1
  H  H528  1  0.735800  0.036000  0.514100  1
  H  H529  1  0.867800  0.492900  0.950400  1
  H  H530  1  0.867800  0.507100  0.549600  1
  H  H531  1  0.367800  0.992900  0.950400  1
  H  H532  1  0.367800  0.007100  0.549600  1
  H  H533  1  0.132200  0.507100  0.049600  1
  H  H534  1  0.132200  0.492900  0.450400  1
  H  H535  1  0.632200  0.007100  0.049600  1
  H  H536  1  0.632200  0.992900  0.450400  1
  H  H537  1  0.928200  0.471300  0.968600  1
  H  H538  1  0.928200  0.528700  0.531400  1
  H  H539  1  0.428200  0.971300  0.968600  1
  H  H540  1  0.428200  0.028700  0.531400  1
  H  H541  1  0.071800  0.528700  0.031400  1
  H  H542  1  0.071800  0.471300  0.468600  1
  H  H543  1  0.571800  0.028700  0.031400  1
  H  H544  1  0.571800  0.971300  0.468600  1
  H  H545  1  0.968400  0.468600  0.007100  1
  H  H546  1  0.968400  0.531400  0.492900  1
  H  H547  1  0.468400  0.968600  0.007100  1
  H  H548  1  0.468400  0.031400  0.492900  1
  H  H549  1  0.031600  0.531400  0.992900  1
  H  H550  1  0.031600  0.468600  0.507100  1
  H  H551  1  0.531600  0.031400  0.992900  1
  H  H552  1  0.531600  0.968600  0.507100  1
  H  H553  1  0.994900  0.515300  0.078800  1
  H  H554  1  0.994900  0.484700  0.421200  1
  H  H555  1  0.494900  0.015300  0.078800  1
  H  H556  1  0.494900  0.984700  0.421200  1
  H  H557  1  0.005100  0.484700  0.921200  1
  H  H558  1  0.005100  0.515300  0.578800  1
  H  H559  1  0.505100  0.984700  0.921200  1
  H  H560  1  0.505100  0.015300  0.578800  1
  H  H561  1  0.075900  0.500000  0.099900  1
  H  H562  1  0.075900  0.500000  0.400100  1
  H  H563  1  0.575900  1.000000  0.099900  1
  H  H564  1  0.575900  1.000000  0.400100  1
  H  H565  1  0.924100  0.500000  0.900100  1
  H  H566  1  0.924100  0.500000  0.599900  1
  H  H567  1  0.424100  1.000000  0.900100  1
  H  H568  1  0.424100  1.000000  0.599900  1
  H  H569  1  0.053200  0.430600  0.045900  1
  H  H570  1  0.053200  0.569400  0.454100  1
  H  H571  1  0.553200  0.930600  0.045900  1
  H  H572  1  0.553200  0.069400  0.454100  1
  H  H573  1  0.946800  0.569400  0.954100  1
  H  H574  1  0.946800  0.430600  0.545900  1
  H  H575  1  0.446800  0.069400  0.954100  1
  H  H576  1  0.446800  0.930600  0.545900  1
  H  H577  1  0.972400  0.445600  0.024800  1
  H  H578  1  0.972400  0.554400  0.475200  1
  H  H579  1  0.472400  0.945600  0.024800  1
  H  H580  1  0.472400  0.054400  0.475200  1
  H  H581  1  0.027600  0.554400  0.975200  1
  H  H582  1  0.027600  0.445600  0.524800  1
  H  H583  1  0.527600  0.054400  0.975200  1
  H  H584  1  0.527600  0.945600  0.524800  1
  H  H585  1  0.834800  0.592100  0.952800  1
  H  H586  1  0.834800  0.407900  0.547200  1
  H  H587  1  0.334800  0.092100  0.952800  1
  H  H588  1  0.334800  0.907900  0.547200  1
  H  H589  1  0.165200  0.407900  0.047200  1
  H  H590  1  0.165200  0.592100  0.452800  1
  H  H591  1  0.665200  0.907900  0.047200  1
  H  H592  1  0.665200  0.092100  0.452800  1
  H  H593  1  0.836200  0.598900  0.918600  1
  H  H594  1  0.836200  0.401100  0.581400  1
  H  H595  1  0.336200  0.098900  0.918600  1
  H  H596  1  0.336200  0.901100  0.581400  1
  H  H597  1  0.163800  0.401100  0.081400  1
  H  H598  1  0.163800  0.598900  0.418600  1
  H  H599  1  0.663800  0.901100  0.081400  1
  H  H600  1  0.663800  0.098900  0.418600  1
  H  H601  1  0.735500  0.667100  0.956200  1
  H  H602  1  0.735500  0.332900  0.543800  1
  H  H603  1  0.235500  0.167100  0.956200  1
  H  H604  1  0.235500  0.832900  0.543800  1
  H  H605  1  0.264500  0.332900  0.043800  1
  H  H606  1  0.264500  0.667100  0.456200  1
  H  H607  1  0.764500  0.832900  0.043800  1
  H  H608  1  0.764500  0.167100  0.456200  1
  H  H609  1  0.734100  0.660200  0.990300  1
  H  H610  1  0.734100  0.339800  0.509700  1
  H  H611  1  0.234100  0.160200  0.990300  1
  H  H612  1  0.234100  0.839800  0.509700  1
  H  H613  1  0.265900  0.339800  0.009700  1
  H  H614  1  0.265900  0.660200  0.490300  1
  H  H615  1  0.765900  0.839800  0.009700  1
  H  H616  1  0.765900  0.160200  0.490300  1
  H  H617  1  0.885800  0.622600  0.001600  1
  H  H618  1  0.885800  0.377400  0.498400  1
  H  H619  1  0.385800  0.122600  0.001600  1
  H  H620  1  0.385800  0.877400  0.498400  1
  H  H621  1  0.114200  0.377400  0.998400  1
  H  H622  1  0.114200  0.622600  0.501600  1
  H  H623  1  0.614200  0.877400  0.998400  1
  H  H624  1  0.614200  0.122600  0.501600  1
  H  H625  1  0.931600  0.619100  0.041200  1
  H  H626  1  0.931600  0.380900  0.458800  1
  H  H627  1  0.431600  0.119100  0.041200  1
  H  H628  1  0.431600  0.880900  0.458800  1
  H  H629  1  0.068400  0.380900  0.958800  1
  H  H630  1  0.068400  0.619100  0.541200  1
  H  H631  1  0.568400  0.880900  0.958800  1
  H  H632  1  0.568400  0.119100  0.541200  1
  H  H633  1  0.894000  0.614700  0.074900  1
  H  H634  1  0.894000  0.385300  0.425100  1
  H  H635  1  0.394000  0.114700  0.074900  1
  H  H636  1  0.394000  0.885300  0.425100  1
  H  H637  1  0.106000  0.385300  0.925100  1
  H  H638  1  0.106000  0.614700  0.574900  1
  H  H639  1  0.606000  0.885300  0.925100  1
  H  H640  1  0.606000  0.114700  0.574900  1
  H  H641  1  0.667100  0.608400  0.052000  1
  H  H642  1  0.667100  0.391600  0.448000  1
  H  H643  1  0.167100  0.108400  0.052000  1
  H  H644  1  0.167100  0.891600  0.448000  1
  H  H645  1  0.332900  0.391600  0.948000  1
  H  H646  1  0.332900  0.608400  0.552000  1
  H  H647  1  0.832900  0.891600  0.948000  1
  H  H648  1  0.832900  0.108400  0.552000  1
  H  H649  1  0.846200  0.627800  0.109300  1
  H  H650  1  0.846200  0.372200  0.390700  1
  H  H651  1  0.346200  0.127800  0.109300  1
  H  H652  1  0.346200  0.872200  0.390700  1
  H  H653  1  0.153800  0.372200  0.890700  1
  H  H654  1  0.153800  0.627800  0.609300  1
  H  H655  1  0.653800  0.872200  0.890700  1
  H  H656  1  0.653800  0.127800  0.609300  1
  H  H657  1  0.639900  0.595800  0.079300  1
  H  H658  1  0.639900  0.404200  0.420700  1
  H  H659  1  0.139900  0.095800  0.079300  1
  H  H660  1  0.139900  0.904200  0.420700  1
  H  H661  1  0.360100  0.404200  0.920700  1
  H  H662  1  0.360100  0.595800  0.579300  1
  H  H663  1  0.860100  0.904200  0.920700  1
  H  H664  1  0.860100  0.095800  0.579300  1
  H  H665  1  0.592700  0.604000  0.117400  1
  H  H666  1  0.592700  0.396000  0.382600  1
  H  H667  1  0.092700  0.104000  0.117400  1
  H  H668  1  0.092700  0.896000  0.382600  1
  H  H669  1  0.407300  0.396000  0.882600  1
  H  H670  1  0.407300  0.604000  0.617400  1
  H  H671  1  0.907300  0.896000  0.882600  1
  H  H672  1  0.907300  0.104000  0.617400  1
  H  H673  1  0.613700  0.628500  0.163700  1
  H  H674  1  0.613700  0.371500  0.336300  1
  H  H675  1  0.113700  0.128500  0.163700  1
  H  H676  1  0.113700  0.871500  0.336300  1
  H  H677  1  0.386300  0.371500  0.836300  1
  H  H678  1  0.386300  0.628500  0.663700  1
  H  H679  1  0.886300  0.871500  0.836300  1
  H  H680  1  0.886300  0.128500  0.663700  1
  H  H681  1  0.667000  0.623900  0.202100  1
  H  H682  1  0.667000  0.376100  0.297900  1
  H  H683  1  0.167000  0.123900  0.202100  1
  H  H684  1  0.167000  0.876100  0.297900  1
  H  H685  1  0.333000  0.376100  0.797900  1
  H  H686  1  0.333000  0.623900  0.702100  1
  H  H687  1  0.833000  0.876100  0.797900  1
  H  H688  1  0.833000  0.123900  0.702100  1
  H  H689  1  0.634800  0.642800  0.242700  1
  H  H690  1  0.634800  0.357200  0.257300  1
  H  H691  1  0.134800  0.142800  0.242700  1
  H  H692  1  0.134800  0.857200  0.257300  1
  H  H693  1  0.365200  0.357200  0.757300  1
  H  H694  1  0.365200  0.642800  0.742700  1
  H  H695  1  0.865200  0.857200  0.757300  1
  H  H696  1  0.865200  0.142800  0.742700  1
  H  H697  1  0.679900  0.711100  0.245900  1
  H  H698  1  0.679900  0.288900  0.254100  1
  H  H699  1  0.179900  0.211100  0.245900  1
  H  H700  1  0.179900  0.788900  0.254100  1
  H  H701  1  0.320100  0.288900  0.754100  1
  H  H702  1  0.320100  0.711100  0.745900  1
  H  H703  1  0.820100  0.788900  0.754100  1
  H  H704  1  0.820100  0.211100  0.745900  1
  H  H705  1  0.712200  0.692200  0.205300  1
  H  H706  1  0.712200  0.307800  0.294700  1
  H  H707  1  0.212200  0.192200  0.205300  1
  H  H708  1  0.212200  0.807800  0.294700  1
  H  H709  1  0.287800  0.307800  0.794700  1
  H  H710  1  0.287800  0.692200  0.705300  1
  H  H711  1  0.787800  0.807800  0.794700  1
  H  H712  1  0.787800  0.192200  0.705300  1
  H  H713  1  0.819200  0.789600  0.166600  1
  H  H714  1  0.819200  0.210400  0.333400  1
  H  H715  1  0.319200  0.289600  0.166600  1
  H  H716  1  0.319200  0.710400  0.333400  1
  H  H717  1  0.180800  0.210400  0.833400  1
  H  H718  1  0.180800  0.789600  0.666600  1
  H  H719  1  0.680800  0.710400  0.833400  1
  H  H720  1  0.680800  0.289600  0.666600  1
  H  H721  1  0.868700  0.826300  0.197600  1
  H  H722  1  0.868700  0.173700  0.302400  1
  H  H723  1  0.368700  0.326300  0.197600  1
  H  H724  1  0.368700  0.673700  0.302400  1
  H  H725  1  0.131300  0.173700  0.802400  1
  H  H726  1  0.131300  0.826300  0.697600  1
  H  H727  1  0.631300  0.673700  0.802400  1
  H  H728  1  0.631300  0.326300  0.697600  1
  H  H729  1  0.815400  0.864900  0.159800  1
  H  H730  1  0.815400  0.135100  0.340200  1
  H  H731  1  0.315400  0.364900  0.159800  1
  H  H732  1  0.315400  0.635100  0.340200  1
  H  H733  1  0.184600  0.135100  0.840200  1
  H  H734  1  0.184600  0.864900  0.659800  1
  H  H735  1  0.684600  0.635100  0.840200  1
  H  H736  1  0.684600  0.364900  0.659800  1
  H  H737  1  0.765900  0.828200  0.128800  1
  H  H738  1  0.765900  0.171800  0.371200  1
  H  H739  1  0.265900  0.328200  0.128800  1
  H  H740  1  0.265900  0.671800  0.371200  1
  H  H741  1  0.234100  0.171800  0.871200  1
  H  H742  1  0.234100  0.828200  0.628800  1
  H  H743  1  0.734100  0.671800  0.871200  1
  H  H744  1  0.734100  0.328200  0.628800  1
  H  H745  1  0.835700  0.777200  0.103700  1
  H  H746  1  0.835700  0.222800  0.396300  1
  H  H747  1  0.335700  0.277200  0.103700  1
  H  H748  1  0.335700  0.722800  0.396300  1
  H  H749  1  0.164300  0.222800  0.896300  1
  H  H750  1  0.164300  0.777200  0.603700  1
  H  H751  1  0.664300  0.722800  0.896300  1
  H  H752  1  0.664300  0.277200  0.603700  1
  H  H753  1  0.826900  0.736200  0.063100  1
  H  H754  1  0.826900  0.263800  0.436900  1
  H  H755  1  0.326900  0.236200  0.063100  1
  H  H756  1  0.326900  0.763800  0.436900  1
  H  H757  1  0.173100  0.263800  0.936900  1
  H  H758  1  0.173100  0.736200  0.563100  1
  H  H759  1  0.673100  0.763800  0.936900  1
  H  H760  1  0.673100  0.236200  0.563100  1
  H  H761  1  0.755500  0.700600  0.038900  1
  H  H762  1  0.755500  0.299400  0.461100  1
  H  H763  1  0.255500  0.200600  0.038900  1
  H  H764  1  0.255500  0.799400  0.461100  1
  H  H765  1  0.244500  0.299400  0.961100  1
  H  H766  1  0.244500  0.700600  0.538900  1
  H  H767  1  0.744500  0.799400  0.961100  1
  H  H768  1  0.744500  0.200600  0.538900  1
  H  H769  1  0.580800  0.724000  0.088800  1
  H  H770  1  0.580800  0.276000  0.411200  1
  H  H771  1  0.080800  0.224000  0.088800  1
  H  H772  1  0.080800  0.776000  0.411200  1
  H  H773  1  0.419200  0.276000  0.911200  1
  H  H774  1  0.419200  0.724000  0.588800  1
  H  H775  1  0.919200  0.776000  0.911200  1
  H  H776  1  0.919200  0.224000  0.588800  1
  H  H777  1  0.714300  0.663500  0.031100  1
  H  H778  1  0.714300  0.336500  0.468900  1
  H  H779  1  0.214300  0.163500  0.031100  1
  H  H780  1  0.214300  0.836500  0.468900  1
  H  H781  1  0.285700  0.336500  0.968900  1
  H  H782  1  0.285700  0.663500  0.531100  1
  H  H783  1  0.785700  0.836500  0.968900  1
  H  H784  1  0.785700  0.163500  0.531100  1
  H  H785  1  0.508400  0.696600  0.060500  1
  H  H786  1  0.508400  0.303400  0.439500  1
  H  H787  1  0.008400  0.196600  0.060500  1
  H  H788  1  0.008400  0.803400  0.439500  1
  H  H789  1  0.491600  0.303400  0.939500  1
  H  H790  1  0.491600  0.696600  0.560500  1
  H  H791  1  0.991600  0.803400  0.939500  1
  H  H792  1  0.991600  0.196600  0.560500  1
  H  H793  1  0.448500  0.656700  0.046700  1
  H  H794  1  0.448500  0.343300  0.453300  1
  H  H795  1  0.948500  0.156700  0.046700  1
  H  H796  1  0.948500  0.843300  0.453300  1
  H  H797  1  0.551500  0.343300  0.953300  1
  H  H798  1  0.551500  0.656700  0.546700  1
  H  H799  1  0.051500  0.843300  0.953300  1
  H  H800  1  0.051500  0.156700  0.546700  1
  H  H801  1  0.471600  0.607600  0.024800  1
  H  H802  1  0.471600  0.392400  0.475200  1
  H  H803  1  0.971600  0.107600  0.024800  1
  H  H804  1  0.971600  0.892400  0.475200  1
  H  H805  1  0.528400  0.392400  0.975200  1
  H  H806  1  0.528400  0.607600  0.524800  1
  H  H807  1  0.028400  0.892400  0.975200  1
  H  H808  1  0.028400  0.107600  0.524800  1
  H  H809  1  0.620400  0.561500  0.024300  1
  H  H810  1  0.620400  0.438500  0.475700  1
  H  H811  1  0.120400  0.061500  0.024300  1
  H  H812  1  0.120400  0.938500  0.475700  1
  H  H813  1  0.379600  0.438500  0.975700  1
  H  H814  1  0.379600  0.561500  0.524300  1
  H  H815  1  0.879600  0.938500  0.975700  1
  H  H816  1  0.879600  0.061500  0.524300  1
  H  H817  1  0.604100  0.518300  0.005700  1
  H  H818  1  0.604100  0.481700  0.494300  1
  H  H819  1  0.104100  0.018300  0.005700  1
  H  H820  1  0.104100  0.981700  0.494300  1
  H  H821  1  0.395900  0.481700  0.994300  1
  H  H822  1  0.395900  0.518300  0.505700  1
  H  H823  1  0.895900  0.981700  0.994300  1
  H  H824  1  0.895900  0.018300  0.505700  1
  H  H825  1  0.462200  0.526200  0.957400  1
  H  H826  1  0.462200  0.473800  0.542600  1
  H  H827  1  0.962200  0.026200  0.957400  1
  H  H828  1  0.962200  0.973800  0.542600  1
  H  H829  1  0.537800  0.473800  0.042600  1
  H  H830  1  0.537800  0.526200  0.457400  1
  H  H831  1  0.037800  0.973800  0.042600  1
  H  H832  1  0.037800  0.026200  0.457400  1
  H  H833  1  0.478400  0.569600  0.976300  1
  H  H834  1  0.478400  0.430400  0.523700  1
  H  H835  1  0.978400  0.069600  0.976300  1
  H  H836  1  0.978400  0.930400  0.523700  1
  H  H837  1  0.521600  0.430400  0.023700  1
  H  H838  1  0.521600  0.569600  0.476300  1
  H  H839  1  0.021600  0.930400  0.023700  1
  H  H840  1  0.021600  0.069600  0.476300  1
  H  H841  1  0.035900  0.635600  0.180600  1
  H  H842  1  0.035900  0.364400  0.319400  1
  H  H843  1  0.535900  0.135600  0.180600  1
  H  H844  1  0.535900  0.864400  0.319400  1
  H  H845  1  0.964100  0.364400  0.819400  1
  H  H846  1  0.964100  0.635600  0.680600  1
  H  H847  1  0.464100  0.864400  0.819400  1
  H  H848  1  0.464100  0.135600  0.680600  1
  H  H849  1  0.107500  0.600000  0.174900  1
  H  H850  1  0.107500  0.400000  0.325100  1
  H  H851  1  0.607500  0.100000  0.174900  1
  H  H852  1  0.607500  0.900000  0.325100  1
  H  H853  1  0.892500  0.400000  0.825100  1
  H  H854  1  0.892500  0.600000  0.674900  1
  H  H855  1  0.392500  0.900000  0.825100  1
  H  H856  1  0.392500  0.100000  0.674900  1
  H  H857  1  0.029200  0.564800  0.107300  1
  H  H858  1  0.029200  0.435200  0.392700  1
  H  H859  1  0.529200  0.064800  0.107300  1
  H  H860  1  0.529200  0.935200  0.392700  1
  H  H861  1  0.970800  0.435200  0.892700  1
  H  H862  1  0.970800  0.564800  0.607300  1
  H  H863  1  0.470800  0.935200  0.892700  1
  H  H864  1  0.470800  0.064800  0.607300  1
  H  H865  1  0.949600  0.598900  0.114100  1
  H  H866  1  0.949600  0.401100  0.385900  1
  H  H867  1  0.449600  0.098900  0.114100  1
  H  H868  1  0.449600  0.901100  0.385900  1
  H  H869  1  0.050400  0.401100  0.885900  1
  H  H870  1  0.050400  0.598900  0.614100  1
  H  H871  1  0.550400  0.901100  0.885900  1
  H  H872  1  0.550400  0.098900  0.614100  1
  H  H873  1  0.016600  0.663300  0.147600  1
  H  H874  1  0.016600  0.336700  0.352400  1
  H  H875  1  0.516600  0.163300  0.147600  1
  H  H876  1  0.516600  0.836700  0.352400  1
  H  H877  1  0.983400  0.336700  0.852400  1
  H  H878  1  0.983400  0.663300  0.647600  1
  H  H879  1  0.483400  0.836700  0.852400  1
  H  H880  1  0.483400  0.163300  0.647600  1
  H  H881  1  0.969700  0.706600  0.149700  1
  H  H882  1  0.969700  0.293400  0.350300  1
  H  H883  1  0.469700  0.206600  0.149700  1
  H  H884  1  0.469700  0.793400  0.350300  1
  H  H885  1  0.030300  0.293400  0.850300  1
  H  H886  1  0.030300  0.706600  0.649700  1
  H  H887  1  0.530300  0.793400  0.850300  1
  H  H888  1  0.530300  0.206600  0.649700  1
  H  H889  1  0.866400  0.734100  0.153600  1
  H  H890  1  0.866400  0.265900  0.346400  1
  H  H891  1  0.366400  0.234100  0.153600  1
  H  H892  1  0.366400  0.765900  0.346400  1
  H  H893  1  0.133600  0.265900  0.846400  1
  H  H894  1  0.133600  0.734100  0.653600  1
  H  H895  1  0.633600  0.765900  0.846400  1
  H  H896  1  0.633600  0.234100  0.653600  1
  H  H897  1  0.718000  0.685900  0.164500  1
  H  H898  1  0.718000  0.314100  0.335500  1
  H  H899  1  0.218000  0.185900  0.164500  1
  H  H900  1  0.218000  0.814100  0.335500  1
  H  H901  1  0.282000  0.314100  0.835500  1
  H  H902  1  0.282000  0.685900  0.664500  1
  H  H903  1  0.782000  0.814100  0.835500  1
  H  H904  1  0.782000  0.185900  0.664500  1
  H  H905  1  0.760800  0.743500  0.139800  1
  H  H906  1  0.760800  0.256500  0.360200  1
  H  H907  1  0.260800  0.243500  0.139800  1
  H  H908  1  0.260800  0.756500  0.360200  1
  H  H909  1  0.239200  0.256500  0.860200  1
  H  H910  1  0.239200  0.743500  0.639800  1
  H  H911  1  0.739200  0.756500  0.860200  1
  H  H912  1  0.739200  0.243500  0.639800  1
  H  H913  1  0.637000  0.716600  0.178600  1
  H  H914  1  0.637000  0.283400  0.321400  1
  H  H915  1  0.137000  0.216600  0.178600  1
  H  H916  1  0.137000  0.783400  0.321400  1
  H  H917  1  0.363000  0.283400  0.821400  1
  H  H918  1  0.363000  0.716600  0.678600  1
  H  H919  1  0.863000  0.783400  0.821400  1
  H  H920  1  0.863000  0.216600  0.678600  1
  H  H921  1  0.522300  0.734400  0.171100  1
  H  H922  1  0.522300  0.265600  0.328900  1
  H  H923  1  0.022300  0.234400  0.171100  1
  H  H924  1  0.022300  0.765600  0.328900  1
  H  H925  1  0.477700  0.265600  0.828900  1
  H  H926  1  0.477700  0.734400  0.671100  1
  H  H927  1  0.977700  0.765600  0.828900  1
  H  H928  1  0.977700  0.234400  0.671100  1
  H  H929  1  0.456300  0.755900  0.147300  1
  H  H930  1  0.456300  0.244100  0.352700  1
  H  H931  1  0.956300  0.255900  0.147300  1
  H  H932  1  0.956300  0.744100  0.352700  1
  H  H933  1  0.543700  0.244100  0.852700  1
  H  H934  1  0.543700  0.755900  0.647300  1
  H  H935  1  0.043700  0.744100  0.852700  1
  H  H936  1  0.043700  0.255900  0.647300  1
  H  H937  1  0.404300  0.796000  0.150200  1
  H  H938  1  0.404300  0.204000  0.349800  1
  H  H939  1  0.904300  0.296000  0.150200  1
  H  H940  1  0.904300  0.704000  0.349800  1
  H  H941  1  0.595700  0.204000  0.849800  1
  H  H942  1  0.595700  0.796000  0.650200  1
  H  H943  1  0.095700  0.704000  0.849800  1
  H  H944  1  0.095700  0.296000  0.650200  1
  H  H945  1  0.292900  0.806500  0.134200  1
  H  H946  1  0.292900  0.193500  0.365800  1
  H  H947  1  0.792900  0.306500  0.134200  1
  H  H948  1  0.792900  0.693500  0.365800  1
  H  H949  1  0.707100  0.193500  0.865800  1
  H  H950  1  0.707100  0.806500  0.634200  1
  H  H951  1  0.207100  0.693500  0.865800  1
  H  H952  1  0.207100  0.306500  0.634200  1
  H  H953  1  0.376500  0.764500  0.067400  1
  H  H954  1  0.376500  0.235500  0.432600  1
  H  H955  1  0.876500  0.264500  0.067400  1
  H  H956  1  0.876500  0.735500  0.432600  1
  H  H957  1  0.623500  0.235500  0.932600  1
  H  H958  1  0.623500  0.764500  0.567400  1
  H  H959  1  0.123500  0.735500  0.932600  1
  H  H960  1  0.123500  0.264500  0.567400  1
  H  H961  1  0.488000  0.754000  0.083400  1
  H  H962  1  0.488000  0.246000  0.416600  1
  H  H963  1  0.988000  0.254000  0.083400  1
  H  H964  1  0.988000  0.746000  0.416600  1
  H  H965  1  0.512000  0.246000  0.916600  1
  H  H966  1  0.512000  0.754000  0.583400  1
  H  H967  1  0.012000  0.746000  0.916600  1
  H  H968  1  0.012000  0.254000  0.583400  1
  H  H969  1  0.704300  0.373000  0.969700  1
  H  H970  1  0.704300  0.627000  0.530300  1
  H  H971  1  0.204300  0.873000  0.969700  1
  H  H972  1  0.204300  0.127000  0.530300  1
  H  H973  1  0.295700  0.627000  0.030300  1
  H  H974  1  0.295700  0.373000  0.469700  1
  H  H975  1  0.795700  0.127000  0.030300  1
  H  H976  1  0.795700  0.873000  0.469700  1
  H  H977  1  0.781300  0.379300  0.958400  1
  H  H978  1  0.781300  0.620700  0.541600  1
  H  H979  1  0.281300  0.879300  0.958400  1
  H  H980  1  0.281300  0.120700  0.541600  1
  H  H981  1  0.218700  0.620700  0.041600  1
  H  H982  1  0.218700  0.379300  0.458400  1
  H  H983  1  0.718700  0.120700  0.041600  1
  H  H984  1  0.718700  0.879300  0.458400  1
  H  H985  1  0.642200  0.357700  0.931100  1
  H  H986  1  0.642200  0.642300  0.568900  1
  H  H987  1  0.142200  0.857700  0.931100  1
  H  H988  1  0.142200  0.142300  0.568900  1
  H  H989  1  0.357800  0.642300  0.068900  1
  H  H990  1  0.357800  0.357700  0.431100  1
  H  H991  1  0.857800  0.142300  0.068900  1
  H  H992  1  0.857800  0.857700  0.431100  1
  H  H993  1  0.719700  0.341600  0.930900  1
  H  H994  1  0.719700  0.658400  0.569100  1
  H  H995  1  0.219700  0.841600  0.930900  1
  H  H996  1  0.219700  0.158400  0.569100  1
  H  H997  1  0.280300  0.658400  0.069100  1
  H  H998  1  0.280300  0.341600  0.430900  1
  H  H999  1  0.780300  0.158400  0.069100  1
  H  H1000  1  0.780300  0.841600  0.430900  1
  H  H1001  1  0.841700  0.349200  0.901500  1
  H  H1002  1  0.841700  0.650800  0.598500  1
  H  H1003  1  0.341700  0.849200  0.901500  1
  H  H1004  1  0.341700  0.150800  0.598500  1
  H  H1005  1  0.158300  0.650800  0.098500  1
  H  H1006  1  0.158300  0.349200  0.401500  1
  H  H1007  1  0.658300  0.150800  0.098500  1
  H  H1008  1  0.658300  0.849200  0.401500  1
  H  H1009  1  0.763500  0.338600  0.886300  1
  H  H1010  1  0.763500  0.661400  0.613700  1
  H  H1011  1  0.263500  0.838600  0.886300  1
  H  H1012  1  0.263500  0.161400  0.613700  1
  H  H1013  1  0.236500  0.661400  0.113700  1
  H  H1014  1  0.236500  0.338600  0.386300  1
  H  H1015  1  0.736500  0.161400  0.113700  1
  H  H1016  1  0.736500  0.838600  0.386300  1
  H  H1017  1  0.864700  0.375300  0.886000  1
  H  H1018  1  0.864700  0.624700  0.614000  1
  H  H1019  1  0.364700  0.875300  0.886000  1
  H  H1020  1  0.364700  0.124700  0.614000  1
  H  H1021  1  0.135300  0.624700  0.114000  1
  H  H1022  1  0.135300  0.375300  0.386000  1
  H  H1023  1  0.635300  0.124700  0.114000  1
  H  H1024  1  0.635300  0.875300  0.386000  1
  H  H1025  1  0.831200  0.350700  0.863800  1
  H  H1026  1  0.831200  0.649300  0.636200  1
  H  H1027  1  0.331200  0.850700  0.863800  1
  H  H1028  1  0.331200  0.149300  0.636200  1
  H  H1029  1  0.168800  0.649300  0.136200  1
  H  H1030  1  0.168800  0.350700  0.363800  1
  H  H1031  1  0.668800  0.149300  0.136200  1
  H  H1032  1  0.668800  0.850700  0.363800  1
  H  H1033  1  0.799600  0.382400  0.850600  1
  H  H1034  1  0.799600  0.617600  0.649400  1
  H  H1035  1  0.299600  0.882400  0.850600  1
  H  H1036  1  0.299600  0.117600  0.649400  1
  H  H1037  1  0.200400  0.617600  0.149400  1
  H  H1038  1  0.200400  0.382400  0.350600  1
  H  H1039  1  0.700400  0.117600  0.149400  1
  H  H1040  1  0.700400  0.882400  0.350600  1
  H  H1041  1  0.800100  0.407400  0.875200  1
  H  H1042  1  0.800100  0.592600  0.624800  1
  H  H1043  1  0.300100  0.907400  0.875200  1
  H  H1044  1  0.300100  0.092600  0.624800  1
  H  H1045  1  0.199900  0.592600  0.124800  1
  H  H1046  1  0.199900  0.407400  0.375200  1
  H  H1047  1  0.699900  0.092600  0.124800  1
  H  H1048  1  0.699900  0.907400  0.375200  1
  H  H1049  1  0.653900  0.388600  0.851900  1
  H  H1050  1  0.653900  0.611400  0.648100  1
  H  H1051  1  0.153900  0.888600  0.851900  1
  H  H1052  1  0.153900  0.111400  0.648100  1
  H  H1053  1  0.346100  0.611400  0.148100  1
  H  H1054  1  0.346100  0.388600  0.351900  1
  H  H1055  1  0.846100  0.111400  0.148100  1
  H  H1056  1  0.846100  0.888600  0.351900  1
  H  H1057  1  0.708000  0.406300  0.844400  1
  H  H1058  1  0.708000  0.593700  0.655600  1
  H  H1059  1  0.208000  0.906300  0.844400  1
  H  H1060  1  0.208000  0.093700  0.655600  1
  H  H1061  1  0.292000  0.593700  0.155600  1
  H  H1062  1  0.292000  0.406300  0.344400  1
  H  H1063  1  0.792000  0.093700  0.155600  1
  H  H1064  1  0.792000  0.906300  0.344400  1
  H  H1065  1  0.706200  0.462100  0.890000  1
  H  H1066  1  0.706200  0.537900  0.610000  1
  H  H1067  1  0.206200  0.962100  0.890000  1
  H  H1068  1  0.206200  0.037900  0.610000  1
  H  H1069  1  0.293800  0.537900  0.110000  1
  H  H1070  1  0.293800  0.462100  0.390000  1
  H  H1071  1  0.793800  0.037900  0.110000  1
  H  H1072  1  0.793800  0.962100  0.390000  1
  H  H1073  1  0.738000  0.452400  0.908800  1
  H  H1074  1  0.738000  0.547600  0.591200  1
  H  H1075  1  0.238000  0.952400  0.908800  1
  H  H1076  1  0.238000  0.047600  0.591200  1
  H  H1077  1  0.262000  0.547600  0.091200  1
  H  H1078  1  0.262000  0.452400  0.408800  1
  H  H1079  1  0.762000  0.047600  0.091200  1
  H  H1080  1  0.762000  0.952400  0.408800  1
  H  H1081  1  0.617800  0.478600  0.923000  1
  H  H1082  1  0.617800  0.521400  0.577000  1
  H  H1083  1  0.117800  0.978600  0.923000  1
  H  H1084  1  0.117800  0.021400  0.577000  1
  H  H1085  1  0.382200  0.521400  0.077000  1
  H  H1086  1  0.382200  0.478600  0.423000  1
  H  H1087  1  0.882200  0.021400  0.077000  1
  H  H1088  1  0.882200  0.978600  0.423000  1
  H  H1089  1  0.571100  0.457500  0.901100  1
  H  H1090  1  0.571100  0.542500  0.598900  1
  H  H1091  1  0.071100  0.957500  0.901100  1
  H  H1092  1  0.071100  0.042500  0.598900  1
  H  H1093  1  0.428900  0.542500  0.098900  1
  H  H1094  1  0.428900  0.457500  0.401100  1
  H  H1095  1  0.928900  0.042500  0.098900  1
  H  H1096  1  0.928900  0.957500  0.401100  1
  H  H1097  1  0.495800  0.447000  0.945900  1
  H  H1098  1  0.495800  0.553000  0.554100  1
  H  H1099  1  0.995800  0.947000  0.945900  1
  H  H1100  1  0.995800  0.053000  0.554100  1
  H  H1101  1  0.504200  0.553000  0.054100  1
  H  H1102  1  0.504200  0.447000  0.445900  1
  H  H1103  1  0.004200  0.053000  0.054100  1
  H  H1104  1  0.004200  0.947000  0.445900  1
  H  H1105  1  0.478600  0.444700  0.920000  1
  H  H1106  1  0.478600  0.555300  0.580000  1
  H  H1107  1  0.978600  0.944700  0.920000  1
  H  H1108  1  0.978600  0.055300  0.580000  1
  H  H1109  1  0.521400  0.555300  0.080000  1
  H  H1110  1  0.521400  0.444700  0.420000  1
  H  H1111  1  0.021400  0.055300  0.080000  1
  H  H1112  1  0.021400  0.944700  0.420000  1
  H  H1113  1  0.503700  0.490200  0.935800  1
  H  H1114  1  0.503700  0.509800  0.564200  1
  H  H1115  1  0.003700  0.990200  0.935800  1
  H  H1116  1  0.003700  0.009800  0.564200  1
  H  H1117  1  0.496300  0.509800  0.064200  1
  H  H1118  1  0.496300  0.490200  0.435800  1
  H  H1119  1  0.996300  0.009800  0.064200  1
  H  H1120  1  0.996300  0.990200  0.435800  1
  H  H1121  1  0.427500  0.483900  0.947700  1
  H  H1122  1  0.427500  0.516100  0.552300  1
  H  H1123  1  0.927500  0.983900  0.947700  1
  H  H1124  1  0.927500  0.016100  0.552300  1
  H  H1125  1  0.572500  0.516100  0.052300  1
  H  H1126  1  0.572500  0.483900  0.447700  1
  H  H1127  1  0.072500  0.016100  0.052300  1
  H  H1128  1  0.072500  0.983900  0.447700  1
  H  H1129  1  0.865800  0.825000  0.384500  1
  H  H1130  1  0.865800  0.175000  0.115500  1
  H  H1131  1  0.365800  0.325000  0.384500  1
  H  H1132  1  0.365800  0.675000  0.115500  1
  H  H1133  1  0.134200  0.175000  0.615500  1
  H  H1134  1  0.134200  0.825000  0.884500  1
  H  H1135  1  0.634200  0.675000  0.615500  1
  H  H1136  1  0.634200  0.325000  0.884500  1
  H  H1137  1  0.951500  0.819400  0.372100  1
  H  H1138  1  0.951500  0.180600  0.127900  1
  H  H1139  1  0.451500  0.319400  0.372100  1
  H  H1140  1  0.451500  0.680600  0.127900  1
  H  H1141  1  0.048500  0.180600  0.627900  1
  H  H1142  1  0.048500  0.819400  0.872100  1
  H  H1143  1  0.548500  0.680600  0.627900  1
  H  H1144  1  0.548500  0.319400  0.872100  1
  H  H1145  1  0.969300  0.788500  0.387000  1
  H  H1146  1  0.969300  0.211500  0.113000  1
  H  H1147  1  0.469300  0.288500  0.387000  1
  H  H1148  1  0.469300  0.711500  0.113000  1
  H  H1149  1  0.030700  0.211500  0.613000  1
  H  H1150  1  0.030700  0.788500  0.887000  1
  H  H1151  1  0.530700  0.711500  0.613000  1
  H  H1152  1  0.530700  0.288500  0.887000  1
  H  H1153  1  0.972200  0.816900  0.406700  1
  H  H1154  1  0.972200  0.183100  0.093300  1
  H  H1155  1  0.472200  0.316900  0.406700  1
  H  H1156  1  0.472200  0.683100  0.093300  1
  H  H1157  1  0.027800  0.183100  0.593300  1
  H  H1158  1  0.027800  0.816900  0.906700  1
  H  H1159  1  0.527800  0.683100  0.593300  1
  H  H1160  1  0.527800  0.316900  0.906700  1
  H  H1161  1  0.829700  0.765800  0.387000  1
  H  H1162  1  0.829700  0.234200  0.113000  1
  H  H1163  1  0.329700  0.265800  0.387000  1
  H  H1164  1  0.329700  0.734200  0.113000  1
  H  H1165  1  0.170300  0.234200  0.613000  1
  H  H1166  1  0.170300  0.765800  0.887000  1
  H  H1167  1  0.670300  0.734200  0.613000  1
  H  H1168  1  0.670300  0.265800  0.887000  1
  H  H1169  1  0.780600  0.790400  0.390000  1
  H  H1170  1  0.780600  0.209600  0.110000  1
  H  H1171  1  0.280600  0.290400  0.390000  1
  H  H1172  1  0.280600  0.709600  0.110000  1
  H  H1173  1  0.219400  0.209600  0.610000  1
  H  H1174  1  0.219400  0.790400  0.890000  1
  H  H1175  1  0.719400  0.709600  0.610000  1
  H  H1176  1  0.719400  0.290400  0.890000  1
  H  H1177  1  0.745000  0.767100  0.414900  1
  H  H1178  1  0.745000  0.232900  0.085100  1
  H  H1179  1  0.245000  0.267100  0.414900  1
  H  H1180  1  0.245000  0.732900  0.085100  1
  H  H1181  1  0.255000  0.232900  0.585100  1
  H  H1182  1  0.255000  0.767100  0.914900  1
  H  H1183  1  0.755000  0.732900  0.585100  1
  H  H1184  1  0.755000  0.267100  0.914900  1
  H  H1185  1  0.812900  0.784700  0.431700  1
  H  H1186  1  0.812900  0.215300  0.068300  1
  H  H1187  1  0.312900  0.284700  0.431700  1
  H  H1188  1  0.312900  0.715300  0.068300  1
  H  H1189  1  0.187100  0.215300  0.568300  1
  H  H1190  1  0.187100  0.784700  0.931700  1
  H  H1191  1  0.687100  0.715300  0.568300  1
  H  H1192  1  0.687100  0.284700  0.931700  1
  H  H1193  1  0.595900  0.807000  0.436000  1
  H  H1194  1  0.595900  0.193000  0.064000  1
  H  H1195  1  0.095900  0.307000  0.436000  1
  H  H1196  1  0.095900  0.693000  0.064000  1
  H  H1197  1  0.404100  0.193000  0.564000  1
  H  H1198  1  0.404100  0.807000  0.936000  1
  H  H1199  1  0.904100  0.693000  0.564000  1
  H  H1200  1  0.904100  0.307000  0.936000  1
  H  H1201  1  0.626000  0.778900  0.424600  1
  H  H1202  1  0.626000  0.221100  0.075400  1
  H  H1203  1  0.126000  0.278900  0.424600  1
  H  H1204  1  0.126000  0.721100  0.075400  1
  H  H1205  1  0.374000  0.221100  0.575400  1
  H  H1206  1  0.374000  0.778900  0.924600  1
  H  H1207  1  0.874000  0.721100  0.575400  1
  H  H1208  1  0.874000  0.278900  0.924600  1
  H  H1209  1  0.540200  0.785600  0.398400  1
  H  H1210  1  0.540200  0.214400  0.101600  1
  H  H1211  1  0.040200  0.285600  0.398400  1
  H  H1212  1  0.040200  0.714400  0.101600  1
  H  H1213  1  0.459800  0.214400  0.601600  1
  H  H1214  1  0.459800  0.785600  0.898400  1
  H  H1215  1  0.959800  0.714400  0.601600  1
  H  H1216  1  0.959800  0.285600  0.898400  1
  H  H1217  1  0.603400  0.805300  0.396500  1
  H  H1218  1  0.603400  0.194700  0.103500  1
  H  H1219  1  0.103400  0.305300  0.396500  1
  H  H1220  1  0.103400  0.694700  0.103500  1
  H  H1221  1  0.396600  0.194700  0.603500  1
  H  H1222  1  0.396600  0.805300  0.896500  1
  H  H1223  1  0.896600  0.694700  0.603500  1
  H  H1224  1  0.896600  0.305300  0.896500  1
  H  H1225  1  0.679500  0.755900  0.352700  1
  H  H1226  1  0.679500  0.244100  0.147300  1
  H  H1227  1  0.179500  0.255900  0.352700  1
  H  H1228  1  0.179500  0.744100  0.147300  1
  H  H1229  1  0.320500  0.244100  0.647300  1
  H  H1230  1  0.320500  0.755900  0.852700  1
  H  H1231  1  0.820500  0.744100  0.647300  1
  H  H1232  1  0.820500  0.255900  0.852700  1
  H  H1233  1  0.590500  0.764700  0.357700  1
  H  H1234  1  0.590500  0.235300  0.142300  1
  H  H1235  1  0.090500  0.264700  0.357700  1
  H  H1236  1  0.090500  0.735300  0.142300  1
  H  H1237  1  0.409500  0.235300  0.642300  1
  H  H1238  1  0.409500  0.764700  0.857700  1
  H  H1239  1  0.909500  0.735300  0.642300  1
  H  H1240  1  0.909500  0.264700  0.857700  1
  H  H1241  1  0.545700  0.727600  0.348700  1
  H  H1242  1  0.545700  0.272400  0.151300  1
  H  H1243  1  0.045700  0.227600  0.348700  1
  H  H1244  1  0.045700  0.772400  0.151300  1
  H  H1245  1  0.454300  0.272400  0.651300  1
  H  H1246  1  0.454300  0.727600  0.848700  1
  H  H1247  1  0.954300  0.772400  0.651300  1
  H  H1248  1  0.954300  0.227600  0.848700  1
  H  H1249  1  0.624900  0.718400  0.356200  1
  H  H1250  1  0.624900  0.281600  0.143800  1
  H  H1251  1  0.124900  0.218400  0.356200  1
  H  H1252  1  0.124900  0.781600  0.143800  1
  H  H1253  1  0.375100  0.281600  0.643800  1
  H  H1254  1  0.375100  0.718400  0.856200  1
  H  H1255  1  0.875100  0.781600  0.643800  1
  H  H1256  1  0.875100  0.218400  0.856200  1
  H  H1257  1  0.522700  0.712400  0.306800  1
  H  H1258  1  0.522700  0.287600  0.193200  1
  H  H1259  1  0.022700  0.212400  0.306800  1
  H  H1260  1  0.022700  0.787600  0.193200  1
  H  H1261  1  0.477300  0.287600  0.693200  1
  H  H1262  1  0.477300  0.712400  0.806800  1
  H  H1263  1  0.977300  0.787600  0.693200  1
  H  H1264  1  0.977300  0.212400  0.806800  1
  H  H1265  1  0.532100  0.693300  0.318500  1
  H  H1266  1  0.532100  0.306700  0.181500  1
  H  H1267  1  0.032100  0.193300  0.318500  1
  H  H1268  1  0.032100  0.806700  0.181500  1
  H  H1269  1  0.467900  0.306700  0.681500  1
  H  H1270  1  0.467900  0.693300  0.818500  1
  H  H1271  1  0.967900  0.806700  0.681500  1
  H  H1272  1  0.967900  0.193300  0.818500  1
  H  H1273  1  0.616300  0.667500  0.286600  1
  H  H1274  1  0.616300  0.332500  0.213400  1
  H  H1275  1  0.116300  0.167500  0.286600  1
  H  H1276  1  0.116300  0.832500  0.213400  1
  H  H1277  1  0.383700  0.332500  0.713400  1
  H  H1278  1  0.383700  0.667500  0.786600  1
  H  H1279  1  0.883700  0.832500  0.713400  1
  H  H1280  1  0.883700  0.167500  0.786600  1
  H  H1281  1  0.532900  0.671000  0.276200  1
  H  H1282  1  0.532900  0.329000  0.223800  1
  H  H1283  1  0.032900  0.171000  0.276200  1
  H  H1284  1  0.032900  0.829000  0.223800  1
  H  H1285  1  0.467100  0.329000  0.723800  1
  H  H1286  1  0.467100  0.671000  0.776200  1
  H  H1287  1  0.967100  0.829000  0.723800  1
  H  H1288  1  0.967100  0.171000  0.776200  1
  H  H1289  1  0.186700  0.815400  0.980700  1
  H  H1290  1  0.186700  0.184600  0.519300  1
  H  H1291  1  0.686700  0.315400  0.980700  1
  H  H1292  1  0.686700  0.684600  0.519300  1
  H  H1293  1  0.813300  0.184600  0.019300  1
  H  H1294  1  0.813300  0.815400  0.480700  1
  H  H1295  1  0.313300  0.684600  0.019300  1
  H  H1296  1  0.313300  0.315400  0.480700  1
  H  H1297  1  0.264700  0.832300  0.986300  1
  H  H1298  1  0.264700  0.167700  0.513700  1
  H  H1299  1  0.764700  0.332300  0.986300  1
  H  H1300  1  0.764700  0.667700  0.513700  1
  H  H1301  1  0.735300  0.167700  0.013700  1
  H  H1302  1  0.735300  0.832300  0.486300  1
  H  H1303  1  0.235300  0.667700  0.013700  1
  H  H1304  1  0.235300  0.332300  0.486300  1
  H  H1305  1  0.148500  0.855900  0.992100  1
  H  H1306  1  0.148500  0.144100  0.507900  1
  H  H1307  1  0.648500  0.355900  0.992100  1
  H  H1308  1  0.648500  0.644100  0.507900  1
  H  H1309  1  0.851500  0.144100  0.007900  1
  H  H1310  1  0.851500  0.855900  0.492100  1
  H  H1311  1  0.351500  0.644100  0.007900  1
  H  H1312  1  0.351500  0.355900  0.492100  1
  H  H1313  1  0.120800  0.847700  0.012000  1
  H  H1314  1  0.120800  0.152300  0.488000  1
  H  H1315  1  0.620800  0.347700  0.012000  1
  H  H1316  1  0.620800  0.652300  0.488000  1
  H  H1317  1  0.879200  0.152300  0.988000  1
  H  H1318  1  0.879200  0.847700  0.512000  1
  H  H1319  1  0.379200  0.652300  0.988000  1
  H  H1320  1  0.379200  0.347700  0.512000  1
  H  H1321  1  0.095400  0.890800  0.032100  1
  H  H1322  1  0.095400  0.109200  0.467900  1
  H  H1323  1  0.595400  0.390800  0.032100  1
  H  H1324  1  0.595400  0.609200  0.467900  1
  H  H1325  1  0.904600  0.109200  0.967900  1
  H  H1326  1  0.904600  0.890800  0.532100  1
  H  H1327  1  0.404600  0.609200  0.967900  1
  H  H1328  1  0.404600  0.390800  0.532100  1
  H  H1329  1  0.155100  0.904600  0.021600  1
  H  H1330  1  0.155100  0.095400  0.478400  1
  H  H1331  1  0.655100  0.404600  0.021600  1
  H  H1332  1  0.655100  0.595400  0.478400  1
  H  H1333  1  0.844900  0.095400  0.978400  1
  H  H1334  1  0.844900  0.904600  0.521600  1
  H  H1335  1  0.344900  0.595400  0.978400  1
  H  H1336  1  0.344900  0.404600  0.521600  1
  H  H1337  1  0.233900  0.918400  0.054500  1
  H  H1338  1  0.233900  0.081600  0.445500  1
  H  H1339  1  0.733900  0.418400  0.054500  1
  H  H1340  1  0.733900  0.581600  0.445500  1
  H  H1341  1  0.766100  0.081600  0.945500  1
  H  H1342  1  0.766100  0.918400  0.554500  1
  H  H1343  1  0.266100  0.581600  0.945500  1
  H  H1344  1  0.266100  0.418400  0.554500  1
  H  H1345  1  0.194000  0.899900  0.063600  1
  H  H1346  1  0.194000  0.100100  0.436400  1
  H  H1347  1  0.694000  0.399900  0.063600  1
  H  H1348  1  0.694000  0.600100  0.436400  1
  H  H1349  1  0.806000  0.100100  0.936400  1
  H  H1350  1  0.806000  0.899900  0.563600  1
  H  H1351  1  0.306000  0.600100  0.936400  1
  H  H1352  1  0.306000  0.399900  0.563600  1
  H  H1353  1  0.207500  0.944200  0.101300  1
  H  H1354  1  0.207500  0.055800  0.398700  1
  H  H1355  1  0.707500  0.444200  0.101300  1
  H  H1356  1  0.707500  0.555800  0.398700  1
  H  H1357  1  0.792500  0.055800  0.898700  1
  H  H1358  1  0.792500  0.944200  0.601300  1
  H  H1359  1  0.292500  0.555800  0.898700  1
  H  H1360  1  0.292500  0.444200  0.601300  1
  H  H1361  1  0.119100  0.952900  0.108700  1
  H  H1362  1  0.119100  0.047100  0.391300  1
  H  H1363  1  0.619100  0.452900  0.108700  1
  H  H1364  1  0.619100  0.547100  0.391300  1
  H  H1365  1  0.880900  0.047100  0.891300  1
  H  H1366  1  0.880900  0.952900  0.608700  1
  H  H1367  1  0.380900  0.547100  0.891300  1
  H  H1368  1  0.380900  0.452900  0.608700  1
  H  H1369  1  0.148700  0.930300  0.128200  1
  H  H1370  1  0.148700  0.069700  0.371800  1
  H  H1371  1  0.648700  0.430300  0.128200  1
  H  H1372  1  0.648700  0.569700  0.371800  1
  H  H1373  1  0.851300  0.069700  0.871800  1
  H  H1374  1  0.851300  0.930300  0.628200  1
  H  H1375  1  0.351300  0.569700  0.871800  1
  H  H1376  1  0.351300  0.430300  0.628200  1
  H  H1377  1  0.099800  0.910100  0.105400  1
  H  H1378  1  0.099800  0.089900  0.394600  1
  H  H1379  1  0.599800  0.410100  0.105400  1
  H  H1380  1  0.599800  0.589900  0.394600  1
  H  H1381  1  0.900200  0.089900  0.894600  1
  H  H1382  1  0.900200  0.910100  0.605400  1
  H  H1383  1  0.400200  0.589900  0.894600  1
  H  H1384  1  0.400200  0.410100  0.605400  1
  H  H1385  1  0.196900  0.878100  0.102400  1
  H  H1386  1  0.196900  0.121900  0.397600  1
  H  H1387  1  0.696900  0.378100  0.102400  1
  H  H1388  1  0.696900  0.621900  0.397600  1
  H  H1389  1  0.803100  0.121900  0.897600  1
  H  H1390  1  0.803100  0.878100  0.602400  1
  H  H1391  1  0.303100  0.621900  0.897600  1
  H  H1392  1  0.303100  0.378100  0.602400  1
  H  H1393  1  0.259100  0.895300  0.121000  1
  H  H1394  1  0.259100  0.104700  0.379000  1
  H  H1395  1  0.759100  0.395300  0.121000  1
  H  H1396  1  0.759100  0.604700  0.379000  1
  H  H1397  1  0.740900  0.104700  0.879000  1
  H  H1398  1  0.740900  0.895300  0.621000  1
  H  H1399  1  0.240900  0.604700  0.879000  1
  H  H1400  1  0.240900  0.395300  0.621000  1
  H  H1401  1  0.333200  0.865200  0.080200  1
  H  H1402  1  0.333200  0.134800  0.419800  1
  H  H1403  1  0.833200  0.365200  0.080200  1
  H  H1404  1  0.833200  0.634800  0.419800  1
  H  H1405  1  0.666800  0.134800  0.919800  1
  H  H1406  1  0.666800  0.865200  0.580200  1
  H  H1407  1  0.166800  0.634800  0.919800  1
  H  H1408  1  0.166800  0.365200  0.580200  1
  H  H1409  1  0.348400  0.869200  0.106900  1
  H  H1410  1  0.348400  0.130800  0.393100  1
  H  H1411  1  0.848400  0.369200  0.106900  1
  H  H1412  1  0.848400  0.630800  0.393100  1
  H  H1413  1  0.651600  0.130800  0.893100  1
  H  H1414  1  0.651600  0.869200  0.606900  1
  H  H1415  1  0.151600  0.630800  0.893100  1
  H  H1416  1  0.151600  0.369200  0.606900  1
  H  H1417  1  0.213500  0.851400  0.118300  1
  H  H1418  1  0.213500  0.148600  0.381700  1
  H  H1419  1  0.713500  0.351400  0.118300  1
  H  H1420  1  0.713500  0.648600  0.381700  1
  H  H1421  1  0.786500  0.148600  0.881700  1
  H  H1422  1  0.786500  0.851400  0.618300  1
  H  H1423  1  0.286500  0.648600  0.881700  1
  H  H1424  1  0.286500  0.351400  0.618300  1
  H  H1425  1  0.296400  0.838700  0.119000  1
  H  H1426  1  0.296400  0.161300  0.381000  1
  H  H1427  1  0.796400  0.338700  0.119000  1
  H  H1428  1  0.796400  0.661300  0.381000  1
  H  H1429  1  0.703600  0.161300  0.881000  1
  H  H1430  1  0.703600  0.838700  0.619000  1
  H  H1431  1  0.203600  0.661300  0.881000  1
  H  H1432  1  0.203600  0.338700  0.619000  1
  H  H1433  1  0.191600  0.811900  0.117500  1
  H  H1434  1  0.191600  0.188100  0.382500  1
  H  H1435  1  0.691600  0.311900  0.117500  1
  H  H1436  1  0.691600  0.688100  0.382500  1
  H  H1437  1  0.808400  0.188100  0.882500  1
  H  H1438  1  0.808400  0.811900  0.617500  1
  H  H1439  1  0.308400  0.688100  0.882500  1
  H  H1440  1  0.308400  0.311900  0.617500  1
  H  H1441  1  0.159600  0.811800  0.093300  1
  H  H1442  1  0.159600  0.188200  0.406700  1
  H  H1443  1  0.659600  0.311800  0.093300  1
  H  H1444  1  0.659600  0.688200  0.406700  1
  H  H1445  1  0.840400  0.188200  0.906700  1
  H  H1446  1  0.840400  0.811800  0.593300  1
  H  H1447  1  0.340400  0.688200  0.906700  1
  H  H1448  1  0.340400  0.311800  0.593300  1
  H  H1449  1  0.789300  0.602700  0.889400  1
  H  H1450  1  0.789300  0.397300  0.610600  1
  H  H1451  1  0.289300  0.102700  0.889400  1
  H  H1452  1  0.289300  0.897300  0.610600  1
  H  H1453  1  0.210700  0.397300  0.110600  1
  H  H1454  1  0.210700  0.602700  0.389400  1
  H  H1455  1  0.710700  0.897300  0.110600  1
  H  H1456  1  0.710700  0.102700  0.389400  1
  H  H1457  1  0.851700  0.620200  0.884600  1
  H  H1458  1  0.851700  0.379800  0.615400  1
  H  H1459  1  0.351700  0.120200  0.884600  1
  H  H1460  1  0.351700  0.879800  0.615400  1
  H  H1461  1  0.148300  0.379800  0.115400  1
  H  H1462  1  0.148300  0.620200  0.384600  1
  H  H1463  1  0.648300  0.879800  0.115400  1
  H  H1464  1  0.648300  0.120200  0.384600  1
  H  H1465  1  0.758800  0.636900  0.870400  1
  H  H1466  1  0.758800  0.363100  0.629600  1
  H  H1467  1  0.258800  0.136900  0.870400  1
  H  H1468  1  0.258800  0.863100  0.629600  1
  H  H1469  1  0.241200  0.363100  0.129600  1
  H  H1470  1  0.241200  0.636900  0.370400  1
  H  H1471  1  0.741200  0.863100  0.129600  1
  H  H1472  1  0.741200  0.136900  0.370400  1
  H  H1473  1  0.745200  0.607400  0.857500  1
  H  H1474  1  0.745200  0.392600  0.642500  1
  H  H1475  1  0.245200  0.107400  0.857500  1
  H  H1476  1  0.245200  0.892600  0.642500  1
  H  H1477  1  0.254800  0.392600  0.142500  1
  H  H1478  1  0.254800  0.607400  0.357500  1
  H  H1479  1  0.754800  0.892600  0.142500  1
  H  H1480  1  0.754800  0.107400  0.357500  1
  H  H1481  1  0.639700  0.601800  0.891900  1
  H  H1482  1  0.639700  0.398200  0.608100  1
  H  H1483  1  0.139700  0.101800  0.891900  1
  H  H1484  1  0.139700  0.898200  0.608100  1
  H  H1485  1  0.360300  0.398200  0.108100  1
  H  H1486  1  0.360300  0.601800  0.391900  1
  H  H1487  1  0.860300  0.898200  0.108100  1
  H  H1488  1  0.860300  0.101800  0.391900  1
  H  H1489  1  0.632500  0.589300  0.863100  1
  H  H1490  1  0.632500  0.410700  0.636900  1
  H  H1491  1  0.132500  0.089300  0.863100  1
  H  H1492  1  0.132500  0.910700  0.636900  1
  H  H1493  1  0.367500  0.410700  0.136900  1
  H  H1494  1  0.367500  0.589300  0.363100  1
  H  H1495  1  0.867500  0.910700  0.136900  1
  H  H1496  1  0.867500  0.089300  0.363100  1
  H  H1497  1  0.505600  0.599400  0.882600  1
  H  H1498  1  0.505600  0.400600  0.617400  1
  H  H1499  1  0.005600  0.099400  0.882600  1
  H  H1500  1  0.005600  0.900600  0.617400  1
  H  H1501  1  0.494400  0.400600  0.117400  1
  H  H1502  1  0.494400  0.599400  0.382600  1
  H  H1503  1  0.994400  0.900600  0.117400  1
  H  H1504  1  0.994400  0.099400  0.382600  1
  H  H1505  1  0.531400  0.628100  0.894900  1
  H  H1506  1  0.531400  0.371900  0.605100  1
  H  H1507  1  0.031400  0.128100  0.894900  1
  H  H1508  1  0.031400  0.871900  0.605100  1
  H  H1509  1  0.468600  0.371900  0.105100  1
  H  H1510  1  0.468600  0.628100  0.394900  1
  H  H1511  1  0.968600  0.871900  0.105100  1
  H  H1512  1  0.968600  0.128100  0.394900  1
  H  H1513  1  0.389500  0.629600  0.864800  1
  H  H1514  1  0.389500  0.370400  0.635200  1
  H  H1515  1  0.889500  0.129600  0.864800  1
  H  H1516  1  0.889500  0.870400  0.635200  1
  H  H1517  1  0.610500  0.370400  0.135200  1
  H  H1518  1  0.610500  0.629600  0.364800  1
  H  H1519  1  0.110500  0.870400  0.135200  1
  H  H1520  1  0.110500  0.129600  0.364800  1
  H  H1521  1  0.398300  0.606900  0.871600  1
  H  H1522  1  0.398300  0.393100  0.628400  1
  H  H1523  1  0.898300  0.106900  0.871600  1
  H  H1524  1  0.898300  0.893100  0.628400  1
  H  H1525  1  0.601700  0.393100  0.128400  1
  H  H1526  1  0.601700  0.606900  0.371600  1
  H  H1527  1  0.101700  0.893100  0.128400  1
  H  H1528  1  0.101700  0.106900  0.371600  1
  H  H1529  1  0.388400  0.577900  0.830100  1
  H  H1530  1  0.388400  0.422100  0.669900  1
  H  H1531  1  0.888400  0.077900  0.830100  1
  H  H1532  1  0.888400  0.922100  0.669900  1
  H  H1533  1  0.611600  0.422100  0.169900  1
  H  H1534  1  0.611600  0.577900  0.330100  1
  H  H1535  1  0.111600  0.922100  0.169900  1
  H  H1536  1  0.111600  0.077900  0.330100  1
  H  H1537  1  0.312800  0.597000  0.837600  1
  H  H1538  1  0.312800  0.403000  0.662400  1
  H  H1539  1  0.812800  0.097000  0.837600  1
  H  H1540  1  0.812800  0.903000  0.662400  1
  H  H1541  1  0.687200  0.403000  0.162400  1
  H  H1542  1  0.687200  0.597000  0.337600  1
  H  H1543  1  0.187200  0.903000  0.162400  1
  H  H1544  1  0.187200  0.097000  0.337600  1
  H  H1545  1  0.302500  0.612600  0.813500  1
  H  H1546  1  0.302500  0.387400  0.686500  1
  H  H1547  1  0.802500  0.112600  0.813500  1
  H  H1548  1  0.802500  0.887400  0.686500  1
  H  H1549  1  0.697500  0.387400  0.186500  1
  H  H1550  1  0.697500  0.612600  0.313500  1
  H  H1551  1  0.197500  0.887400  0.186500  1
  H  H1552  1  0.197500  0.112600  0.313500  1
  H  H1553  1  0.372100  0.616200  0.798400  1
  H  H1554  1  0.372100  0.383800  0.701600  1
  H  H1555  1  0.872100  0.116200  0.798400  1
  H  H1556  1  0.872100  0.883800  0.701600  1
  H  H1557  1  0.627900  0.383800  0.201600  1
  H  H1558  1  0.627900  0.616200  0.298400  1
  H  H1559  1  0.127900  0.883800  0.201600  1
  H  H1560  1  0.127900  0.116200  0.298400  1
  H  H1561  1  0.292100  0.653100  0.836800  1
  H  H1562  1  0.292100  0.346900  0.663200  1
  H  H1563  1  0.792100  0.153100  0.836800  1
  H  H1564  1  0.792100  0.846900  0.663200  1
  H  H1565  1  0.707900  0.346900  0.163200  1
  H  H1566  1  0.707900  0.653100  0.336800  1
  H  H1567  1  0.207900  0.846900  0.163200  1
  H  H1568  1  0.207900  0.153100  0.336800  1
  H  H1569  1  0.299800  0.649800  0.810100  1
  H  H1570  1  0.299800  0.350200  0.689900  1
  H  H1571  1  0.799800  0.149800  0.810100  1
  H  H1572  1  0.799800  0.850200  0.689900  1
  H  H1573  1  0.700200  0.350200  0.189900  1
  H  H1574  1  0.700200  0.649800  0.310100  1
  H  H1575  1  0.200200  0.850200  0.189900  1
  H  H1576  1  0.200200  0.149800  0.310100  1
  H  H1577  1  0.509400  0.660000  0.825600  1
  H  H1578  1  0.509400  0.340000  0.674400  1
  H  H1579  1  0.009400  0.160000  0.825600  1
  H  H1580  1  0.009400  0.840000  0.674400  1
  H  H1581  1  0.490600  0.340000  0.174400  1
  H  H1582  1  0.490600  0.660000  0.325600  1
  H  H1583  1  0.990600  0.840000  0.174400  1
  H  H1584  1  0.990600  0.160000  0.325600  1
  H  H1585  1  0.458800  0.638600  0.828300  1
  H  H1586  1  0.458800  0.361400  0.671700  1
  H  H1587  1  0.958800  0.138600  0.828300  1
  H  H1588  1  0.958800  0.861400  0.671700  1
  H  H1589  1  0.541200  0.361400  0.171700  1
  H  H1590  1  0.541200  0.638600  0.328300  1
  H  H1591  1  0.041200  0.861400  0.171700  1
  H  H1592  1  0.041200  0.138600  0.328300  1
  H  H1593  1  0.448500  0.662200  0.869200  1
  H  H1594  1  0.448500  0.337800  0.630800  1
  H  H1595  1  0.948500  0.162200  0.869200  1
  H  H1596  1  0.948500  0.837800  0.630800  1
  H  H1597  1  0.551500  0.337800  0.130800  1
  H  H1598  1  0.551500  0.662200  0.369200  1
  H  H1599  1  0.051500  0.837800  0.130800  1
  H  H1600  1  0.051500  0.162200  0.369200  1
  H  H1601  1  0.540100  0.661700  0.862500  1
  H  H1602  1  0.540100  0.338300  0.637500  1
  H  H1603  1  0.040100  0.161700  0.862500  1
  H  H1604  1  0.040100  0.838300  0.637500  1
  H  H1605  1  0.459900  0.338300  0.137500  1
  H  H1606  1  0.459900  0.661700  0.362500  1
  H  H1607  1  0.959900  0.838300  0.137500  1
  H  H1608  1  0.959900  0.161700  0.362500  1
  H  H1609  1  0.170100  0.566900  0.168600  1
  H  H1610  1  0.170100  0.433100  0.331400  1
  H  H1611  1  0.670100  0.066900  0.168600  1
  H  H1612  1  0.670100  0.933100  0.331400  1
  H  H1613  1  0.829900  0.433100  0.831400  1
  H  H1614  1  0.829900  0.566900  0.668600  1
  H  H1615  1  0.329900  0.933100  0.831400  1
  H  H1616  1  0.329900  0.066900  0.668600  1
  H  H1617  1  0.191200  0.539100  0.149400  1
  H  H1618  1  0.191200  0.460900  0.350600  1
  H  H1619  1  0.691200  0.039100  0.149400  1
  H  H1620  1  0.691200  0.960900  0.350600  1
  H  H1621  1  0.808800  0.460900  0.850600  1
  H  H1622  1  0.808800  0.539100  0.649400  1
  H  H1623  1  0.308800  0.960900  0.850600  1
  H  H1624  1  0.308800  0.039100  0.649400  1
  H  H1625  1  0.113200  0.542400  0.182500  1
  H  H1626  1  0.113200  0.457600  0.317500  1
  H  H1627  1  0.613200  0.042400  0.182500  1
  H  H1628  1  0.613200  0.957600  0.317500  1
  H  H1629  1  0.886800  0.457600  0.817500  1
  H  H1630  1  0.886800  0.542400  0.682500  1
  H  H1631  1  0.386800  0.957600  0.817500  1
  H  H1632  1  0.386800  0.042400  0.682500  1
  H  H1633  1  0.042600  0.552300  0.172200  1
  H  H1634  1  0.042600  0.447700  0.327800  1
  H  H1635  1  0.542600  0.052300  0.172200  1
  H  H1636  1  0.542600  0.947700  0.327800  1
  H  H1637  1  0.957400  0.447700  0.827800  1
  H  H1638  1  0.957400  0.552300  0.672200  1
  H  H1639  1  0.457400  0.947700  0.827800  1
  H  H1640  1  0.457400  0.052300  0.672200  1
  H  H1641  1  0.946600  0.521800  0.148800  1
  H  H1642  1  0.946600  0.478200  0.351200  1
  H  H1643  1  0.446600  0.021800  0.148800  1
  H  H1644  1  0.446600  0.978200  0.351200  1
  H  H1645  1  0.053400  0.478200  0.851200  1
  H  H1646  1  0.053400  0.521800  0.648800  1
  H  H1647  1  0.553400  0.978200  0.851200  1
  H  H1648  1  0.553400  0.021800  0.648800  1
  H  H1649  1  0.959800  0.521000  0.174000  1
  H  H1650  1  0.959800  0.479000  0.326000  1
  H  H1651  1  0.459800  0.021000  0.174000  1
  H  H1652  1  0.459800  0.979000  0.326000  1
  H  H1653  1  0.040200  0.479000  0.826000  1
  H  H1654  1  0.040200  0.521000  0.674000  1
  H  H1655  1  0.540200  0.979000  0.826000  1
  H  H1656  1  0.540200  0.021000  0.674000  1
  H  H1657  1  0.906100  0.482800  0.142500  1
  H  H1658  1  0.906100  0.517200  0.357500  1
  H  H1659  1  0.406100  0.982800  0.142500  1
  H  H1660  1  0.406100  0.017200  0.357500  1
  H  H1661  1  0.093900  0.517200  0.857500  1
  H  H1662  1  0.093900  0.482800  0.642500  1
  H  H1663  1  0.593900  0.017200  0.857500  1
  H  H1664  1  0.593900  0.982800  0.642500  1
  H  H1665  1  0.989500  0.479000  0.129500  1
  H  H1666  1  0.989500  0.521000  0.370500  1
  H  H1667  1  0.489500  0.979000  0.129500  1
  H  H1668  1  0.489500  0.021000  0.370500  1
  H  H1669  1  0.010500  0.521000  0.870500  1
  H  H1670  1  0.010500  0.479000  0.629500  1
  H  H1671  1  0.510500  0.021000  0.870500  1
  H  H1672  1  0.510500  0.979000  0.629500  1
  H  H1673  1  0.928800  0.443900  0.131800  1
  H  H1674  1  0.928800  0.556100  0.368200  1
  H  H1675  1  0.428800  0.943900  0.131800  1
  H  H1676  1  0.428800  0.056100  0.368200  1
  H  H1677  1  0.071200  0.556100  0.868200  1
  H  H1678  1  0.071200  0.443900  0.631800  1
  H  H1679  1  0.571200  0.056100  0.868200  1
  H  H1680  1  0.571200  0.943900  0.631800  1
  H  H1681  1  0.930100  0.441200  0.155900  1
  H  H1682  1  0.930100  0.558800  0.344100  1
  H  H1683  1  0.430100  0.941200  0.155900  1
  H  H1684  1  0.430100  0.058800  0.344100  1
  H  H1685  1  0.069900  0.558800  0.844100  1
  H  H1686  1  0.069900  0.441200  0.655900  1
  H  H1687  1  0.569900  0.058800  0.844100  1
  H  H1688  1  0.569900  0.941200  0.655900  1
  H  H1689  1  0.995700  0.406200  0.128500  1
  H  H1690  1  0.995700  0.593800  0.371500  1
  H  H1691  1  0.495700  0.906200  0.128500  1
  H  H1692  1  0.495700  0.093800  0.371500  1
  H  H1693  1  0.004300  0.593800  0.871500  1
  H  H1694  1  0.004300  0.406200  0.628500  1
  H  H1695  1  0.504300  0.093800  0.871500  1
  H  H1696  1  0.504300  0.906200  0.628500  1
  H  H1697  1  0.053600  0.423200  0.120700  1
  H  H1698  1  0.053600  0.576800  0.379300  1
  H  H1699  1  0.553600  0.923200  0.120700  1
  H  H1700  1  0.553600  0.076800  0.379300  1
  H  H1701  1  0.946400  0.576800  0.879300  1
  H  H1702  1  0.946400  0.423200  0.620700  1
  H  H1703  1  0.446400  0.076800  0.879300  1
  H  H1704  1  0.446400  0.923200  0.620700  1
  H  H1705  1  0.169500  0.420800  0.157400  1
  H  H1706  1  0.169500  0.579200  0.342600  1
  H  H1707  1  0.669500  0.920800  0.157400  1
  H  H1708  1  0.669500  0.079200  0.342600  1
  H  H1709  1  0.830500  0.579200  0.842600  1
  H  H1710  1  0.830500  0.420800  0.657400  1
  H  H1711  1  0.330500  0.079200  0.842600  1
  H  H1712  1  0.330500  0.920800  0.657400  1
  H  H1713  1  0.151500  0.448300  0.177000  1
  H  H1714  1  0.151500  0.551700  0.323000  1
  H  H1715  1  0.651500  0.948300  0.177000  1
  H  H1716  1  0.651500  0.051700  0.323000  1
  H  H1717  1  0.848500  0.551700  0.823000  1
  H  H1718  1  0.848500  0.448300  0.677000  1
  H  H1719  1  0.348500  0.051700  0.823000  1
  H  H1720  1  0.348500  0.948300  0.677000  1
  H  H1721  1  0.209000  0.465400  0.157400  1
  H  H1722  1  0.209000  0.534600  0.342600  1
  H  H1723  1  0.709000  0.965400  0.157400  1
  H  H1724  1  0.709000  0.034600  0.342600  1
  H  H1725  1  0.791000  0.534600  0.842600  1
  H  H1726  1  0.791000  0.465400  0.657400  1
  H  H1727  1  0.291000  0.034600  0.842600  1
  H  H1728  1  0.291000  0.965400  0.657400  1
  H  H1729  1  0.251900  0.438800  0.144400  1
  H  H1730  1  0.251900  0.561200  0.355600  1
  H  H1731  1  0.751900  0.938800  0.144400  1
  H  H1732  1  0.751900  0.061200  0.355600  1
  H  H1733  1  0.748100  0.561200  0.855600  1
  H  H1734  1  0.748100  0.438800  0.644400  1
  H  H1735  1  0.248100  0.061200  0.855600  1
  H  H1736  1  0.248100  0.938800  0.644400  1
  H  H1737  1  0.256200  0.444100  0.101800  1
  H  H1738  1  0.256200  0.555900  0.398200  1
  H  H1739  1  0.756200  0.944100  0.101800  1
  H  H1740  1  0.756200  0.055900  0.398200  1
  H  H1741  1  0.743800  0.555900  0.898200  1
  H  H1742  1  0.743800  0.444100  0.601800  1
  H  H1743  1  0.243800  0.055900  0.898200  1
  H  H1744  1  0.243800  0.944100  0.601800  1
  H  H1745  1  0.257300  0.467900  0.127700  1
  H  H1746  1  0.257300  0.532100  0.372300  1
  H  H1747  1  0.757300  0.967900  0.127700  1
  H  H1748  1  0.757300  0.032100  0.372300  1
  H  H1749  1  0.742700  0.532100  0.872300  1
  H  H1750  1  0.742700  0.467900  0.627700  1
  H  H1751  1  0.242700  0.032100  0.872300  1
  H  H1752  1  0.242700  0.967900  0.627700  1
  H  H1753  1  0.137700  0.483000  0.117800  1
  H  H1754  1  0.137700  0.517000  0.382200  1
  H  H1755  1  0.637700  0.983000  0.117800  1
  H  H1756  1  0.637700  0.017000  0.382200  1
  H  H1757  1  0.862300  0.517000  0.882200  1
  H  H1758  1  0.862300  0.483000  0.617800  1
  H  H1759  1  0.362300  0.017000  0.882200  1
  H  H1760  1  0.362300  0.983000  0.617800  1
  H  H1761  1  0.206400  0.480700  0.099100  1
  H  H1762  1  0.206400  0.519300  0.400900  1
  H  H1763  1  0.706400  0.980700  0.099100  1
  H  H1764  1  0.706400  0.019300  0.400900  1
  H  H1765  1  0.793600  0.519300  0.900900  1
  H  H1766  1  0.793600  0.480700  0.599100  1
  H  H1767  1  0.293600  0.019300  0.900900  1
  H  H1768  1  0.293600  0.980700  0.599100  1
  H  H1769  1  0.827600  0.895600  0.193000  1
  H  H1770  1  0.827600  0.104400  0.307000  1
  H  H1771  1  0.327600  0.395600  0.193000  1
  H  H1772  1  0.327600  0.604400  0.307000  1
  H  H1773  1  0.172400  0.104400  0.807000  1
  H  H1774  1  0.172400  0.895600  0.693000  1
  H  H1775  1  0.672400  0.604400  0.807000  1
  H  H1776  1  0.672400  0.395600  0.693000  1
  H  H1777  1  0.892200  0.907300  0.213900  1
  H  H1778  1  0.892200  0.092700  0.286100  1
  H  H1779  1  0.392200  0.407300  0.213900  1
  H  H1780  1  0.392200  0.592700  0.286100  1
  H  H1781  1  0.107800  0.092700  0.786100  1
  H  H1782  1  0.107800  0.907300  0.713900  1
  H  H1783  1  0.607800  0.592700  0.786100  1
  H  H1784  1  0.607800  0.407300  0.713900  1
  H  H1785  1  0.755000  0.882000  0.218100  1
  H  H1786  1  0.755000  0.118000  0.281900  1
  H  H1787  1  0.255000  0.382000  0.218100  1
  H  H1788  1  0.255000  0.618000  0.281900  1
  H  H1789  1  0.245000  0.118000  0.781900  1
  H  H1790  1  0.245000  0.882000  0.718100  1
  H  H1791  1  0.745000  0.618000  0.781900  1
  H  H1792  1  0.745000  0.382000  0.718100  1
  H  H1793  1  0.816100  0.897000  0.239000  1
  H  H1794  1  0.816100  0.103000  0.261000  1
  H  H1795  1  0.316100  0.397000  0.239000  1
  H  H1796  1  0.316100  0.603000  0.261000  1
  H  H1797  1  0.183900  0.103000  0.761000  1
  H  H1798  1  0.183900  0.897000  0.739000  1
  H  H1799  1  0.683900  0.603000  0.761000  1
  H  H1800  1  0.683900  0.397000  0.739000  1
  H  H1801  1  0.651700  0.906200  0.208700  1
  H  H1802  1  0.651700  0.093800  0.291300  1
  H  H1803  1  0.151700  0.406200  0.208700  1
  H  H1804  1  0.151700  0.593800  0.291300  1
  H  H1805  1  0.348300  0.093800  0.791300  1
  H  H1806  1  0.348300  0.906200  0.708700  1
  H  H1807  1  0.848300  0.593800  0.791300  1
  H  H1808  1  0.848300  0.406200  0.708700  1
  H  H1809  1  0.725700  0.917800  0.200600  1
  H  H1810  1  0.725700  0.082200  0.299400  1
  H  H1811  1  0.225700  0.417800  0.200600  1
  H  H1812  1  0.225700  0.582200  0.299400  1
  H  H1813  1  0.274300  0.082200  0.799400  1
  H  H1814  1  0.274300  0.917800  0.700600  1
  H  H1815  1  0.774300  0.582200  0.799400  1
  H  H1816  1  0.774300  0.417800  0.700600  1
  H  H1817  1  0.654200  0.951700  0.214400  1
  H  H1818  1  0.654200  0.048300  0.285600  1
  H  H1819  1  0.154200  0.451700  0.214400  1
  H  H1820  1  0.154200  0.548300  0.285600  1
  H  H1821  1  0.345800  0.048300  0.785600  1
  H  H1822  1  0.345800  0.951700  0.714400  1
  H  H1823  1  0.845800  0.548300  0.785600  1
  H  H1824  1  0.845800  0.451700  0.714400  1
  H  H1825  1  0.600200  0.942600  0.229900  1
  H  H1826  1  0.600200  0.057400  0.270100  1
  H  H1827  1  0.100200  0.442600  0.229900  1
  H  H1828  1  0.100200  0.557400  0.270100  1
  H  H1829  1  0.399800  0.057400  0.770100  1
  H  H1830  1  0.399800  0.942600  0.729900  1
  H  H1831  1  0.899800  0.557400  0.770100  1
  H  H1832  1  0.899800  0.442600  0.729900  1
  H  H1833  1  0.630800  0.946000  0.263700  1
  H  H1834  1  0.630800  0.054000  0.236300  1
  H  H1835  1  0.130800  0.446000  0.263700  1
  H  H1836  1  0.130800  0.554000  0.236300  1
  H  H1837  1  0.369200  0.054000  0.736300  1
  H  H1838  1  0.369200  0.946000  0.763700  1
  H  H1839  1  0.869200  0.554000  0.736300  1
  H  H1840  1  0.869200  0.446000  0.763700  1
  H  H1841  1  0.638600  0.975200  0.280500  1
  H  H1842  1  0.638600  0.024800  0.219500  1
  H  H1843  1  0.138600  0.475200  0.280500  1
  H  H1844  1  0.138600  0.524800  0.219500  1
  H  H1845  1  0.361400  0.024800  0.719500  1
  H  H1846  1  0.361400  0.975200  0.780500  1
  H  H1847  1  0.861400  0.524800  0.719500  1
  H  H1848  1  0.861400  0.475200  0.780500  1
  H  H1849  1  0.709700  0.946800  0.293700  1
  H  H1850  1  0.709700  0.053200  0.206300  1
  H  H1851  1  0.209700  0.446800  0.293700  1
  H  H1852  1  0.209700  0.553200  0.206300  1
  H  H1853  1  0.290300  0.053200  0.706300  1
  H  H1854  1  0.290300  0.946800  0.793700  1
  H  H1855  1  0.790300  0.553200  0.706300  1
  H  H1856  1  0.790300  0.446800  0.793700  1
  H  H1857  1  0.777800  0.946200  0.274900  1
  H  H1858  1  0.777800  0.053800  0.225100  1
  H  H1859  1  0.277800  0.446200  0.274900  1
  H  H1860  1  0.277800  0.553800  0.225100  1
  H  H1861  1  0.222200  0.053800  0.725100  1
  H  H1862  1  0.222200  0.946200  0.774900  1
  H  H1863  1  0.722200  0.553800  0.725100  1
  H  H1864  1  0.722200  0.446200  0.774900  1
  H  H1865  1  0.730900  0.992400  0.332500  1
  H  H1866  1  0.730900  0.007600  0.167500  1
  H  H1867  1  0.230900  0.492400  0.332500  1
  H  H1868  1  0.230900  0.507600  0.167500  1
  H  H1869  1  0.269100  0.007600  0.667500  1
  H  H1870  1  0.269100  0.992400  0.832500  1
  H  H1871  1  0.769100  0.507600  0.667500  1
  H  H1872  1  0.769100  0.492400  0.832500  1
  H  H1873  1  0.799900  0.006500  0.326100  1
  H  H1874  1  0.799900  0.993500  0.173900  1
  H  H1875  1  0.299900  0.506500  0.326100  1
  H  H1876  1  0.299900  0.493500  0.173900  1
  H  H1877  1  0.200100  0.993500  0.673900  1
  H  H1878  1  0.200100  0.006500  0.826100  1
  H  H1879  1  0.700100  0.493500  0.673900  1
  H  H1880  1  0.700100  0.506500  0.826100  1
  H  H1881  1  0.866900  0.985400  0.341500  1
  H  H1882  1  0.866900  0.014600  0.158500  1
  H  H1883  1  0.366900  0.485400  0.341500  1
  H  H1884  1  0.366900  0.514600  0.158500  1
  H  H1885  1  0.133100  0.014600  0.658500  1
  H  H1886  1  0.133100  0.985400  0.841500  1
  H  H1887  1  0.633100  0.514600  0.658500  1
  H  H1888  1  0.633100  0.485400  0.841500  1
  H  H1889  1  0.809200  0.961600  0.330600  1
  H  H1890  1  0.809200  0.038400  0.169400  1
  H  H1891  1  0.309200  0.461600  0.330600  1
  H  H1892  1  0.309200  0.538400  0.169400  1
  H  H1893  1  0.190800  0.038400  0.669400  1
  H  H1894  1  0.190800  0.961600  0.830600  1
  H  H1895  1  0.690800  0.538400  0.669400  1
  H  H1896  1  0.690800  0.461600  0.830600  1
  H  H1897  1  0.975200  0.966200  0.332000  1
  H  H1898  1  0.975200  0.033800  0.168000  1
  H  H1899  1  0.475200  0.466200  0.332000  1
  H  H1900  1  0.475200  0.533800  0.168000  1
  H  H1901  1  0.024800  0.033800  0.668000  1
  H  H1902  1  0.024800  0.966200  0.832000  1
  H  H1903  1  0.524800  0.533800  0.668000  1
  H  H1904  1  0.524800  0.466200  0.832000  1
  H  H1905  1  0.009000  0.951900  0.305200  1
  H  H1906  1  0.009000  0.048100  0.194800  1
  H  H1907  1  0.509000  0.451900  0.305200  1
  H  H1908  1  0.509000  0.548100  0.194800  1
  H  H1909  1  0.991000  0.048100  0.694800  1
  H  H1910  1  0.991000  0.951900  0.805200  1
  H  H1911  1  0.491000  0.548100  0.694800  1
  H  H1912  1  0.491000  0.451900  0.805200  1
  H  H1913  1  0.984800  0.924000  0.323900  1
  H  H1914  1  0.984800  0.076000  0.176100  1
  H  H1915  1  0.484800  0.424000  0.323900  1
  H  H1916  1  0.484800  0.576000  0.176100  1
  H  H1917  1  0.015200  0.076000  0.676100  1
  H  H1918  1  0.015200  0.924000  0.823900  1
  H  H1919  1  0.515200  0.576000  0.676100  1
  H  H1920  1  0.515200  0.424000  0.823900  1
  H  H1921  1  0.892100  0.929500  0.323200  1
  H  H1922  1  0.892100  0.070500  0.176800  1
  H  H1923  1  0.392100  0.429500  0.323200  1
  H  H1924  1  0.392100  0.570500  0.176800  1
  H  H1925  1  0.107900  0.070500  0.676800  1
  H  H1926  1  0.107900  0.929500  0.823200  1
  H  H1927  1  0.607900  0.570500  0.676800  1
  H  H1928  1  0.607900  0.429500  0.823200  1
  H  H1929  1  0.915100  0.824700  0.380400  1
  H  H1930  1  0.915100  0.175300  0.119600  1
  H  H1931  1  0.415100  0.324700  0.380400  1
  H  H1932  1  0.415100  0.675300  0.119600  1
  H  H1933  1  0.084900  0.175300  0.619600  1
  H  H1934  1  0.084900  0.824700  0.880400  1
  H  H1935  1  0.584900  0.675300  0.619600  1
  H  H1936  1  0.584900  0.324700  0.880400  1
  H  H1937  1  0.983600  0.804000  0.370900  1
  H  H1938  1  0.983600  0.196000  0.129100  1
  H  H1939  1  0.483600  0.304000  0.370900  1
  H  H1940  1  0.483600  0.696000  0.129100  1
  H  H1941  1  0.016400  0.196000  0.629100  1
  H  H1942  1  0.016400  0.804000  0.870900  1
  H  H1943  1  0.516400  0.696000  0.629100  1
  H  H1944  1  0.516400  0.304000  0.870900  1
  H  H1945  1  0.938800  0.785800  0.394300  1
  H  H1946  1  0.938800  0.214200  0.105700  1
  H  H1947  1  0.438800  0.285800  0.394300  1
  H  H1948  1  0.438800  0.714200  0.105700  1
  H  H1949  1  0.061200  0.214200  0.605700  1
  H  H1950  1  0.061200  0.785800  0.894300  1
  H  H1951  1  0.561200  0.714200  0.605700  1
  H  H1952  1  0.561200  0.285800  0.894300  1
  H  H1953  1  0.954400  0.814800  0.410700  1
  H  H1954  1  0.954400  0.185200  0.089300  1
  H  H1955  1  0.454400  0.314800  0.410700  1
  H  H1956  1  0.454400  0.685200  0.089300  1
  H  H1957  1  0.045600  0.185200  0.589300  1
  H  H1958  1  0.045600  0.814800  0.910700  1
  H  H1959  1  0.545600  0.685200  0.589300  1
  H  H1960  1  0.545600  0.314800  0.910700  1
  H  H1961  1  0.856800  0.791700  0.432900  1
  H  H1962  1  0.856800  0.208300  0.067100  1
  H  H1963  1  0.356800  0.291700  0.432900  1
  H  H1964  1  0.356800  0.708300  0.067100  1
  H  H1965  1  0.143200  0.208300  0.567100  1
  H  H1966  1  0.143200  0.791700  0.932900  1
  H  H1967  1  0.643200  0.708300  0.567100  1
  H  H1968  1  0.643200  0.291700  0.932900  1
  H  H1969  1  0.839800  0.770200  0.406200  1
  H  H1970  1  0.839800  0.229800  0.093800  1
  H  H1971  1  0.339800  0.270200  0.406200  1
  H  H1972  1  0.339800  0.729800  0.093800  1
  H  H1973  1  0.160200  0.229800  0.593800  1
  H  H1974  1  0.160200  0.770200  0.906200  1
  H  H1975  1  0.660200  0.729800  0.593800  1
  H  H1976  1  0.660200  0.270200  0.906200  1
  H  H1977  1  0.731500  0.793500  0.438900  1
  H  H1978  1  0.731500  0.206500  0.061100  1
  H  H1979  1  0.231500  0.293500  0.438900  1
  H  H1980  1  0.231500  0.706500  0.061100  1
  H  H1981  1  0.268500  0.206500  0.561100  1
  H  H1982  1  0.268500  0.793500  0.938900  1
  H  H1983  1  0.768500  0.706500  0.561100  1
  H  H1984  1  0.768500  0.293500  0.938900  1
  H  H1985  1  0.726600  0.807200  0.422100  1
  H  H1986  1  0.726600  0.192800  0.077900  1
  H  H1987  1  0.226600  0.307200  0.422100  1
  H  H1988  1  0.226600  0.692800  0.077900  1
  H  H1989  1  0.273400  0.192800  0.577900  1
  H  H1990  1  0.273400  0.807200  0.922100  1
  H  H1991  1  0.773400  0.692800  0.577900  1
  H  H1992  1  0.773400  0.307200  0.922100  1
  H  H1993  1  0.606400  0.801100  0.414900  1
  H  H1994  1  0.606400  0.198900  0.085100  1
  H  H1995  1  0.106400  0.301100  0.414900  1
  H  H1996  1  0.106400  0.698900  0.085100  1
  H  H1997  1  0.393600  0.198900  0.585100  1
  H  H1998  1  0.393600  0.801100  0.914900  1
  H  H1999  1  0.893600  0.698900  0.585100  1
  H  H2000  1  0.893600  0.301100  0.914900  1
  H  H2001  1  0.565200  0.774500  0.402300  1
  H  H2002  1  0.565200  0.225500  0.097700  1
  H  H2003  1  0.065200  0.274500  0.402300  1
  H  H2004  1  0.065200  0.725500  0.097700  1
  H  H2005  1  0.434800  0.225500  0.597700  1
  H  H2006  1  0.434800  0.774500  0.902300  1
  H  H2007  1  0.934800  0.725500  0.597700  1
  H  H2008  1  0.934800  0.274500  0.902300  1
  H  H2009  1  0.576700  0.772800  0.366000  1
  H  H2010  1  0.576700  0.227200  0.134000  1
  H  H2011  1  0.076700  0.272800  0.366000  1
  H  H2012  1  0.076700  0.727200  0.134000  1
  H  H2013  1  0.423300  0.227200  0.634000  1
  H  H2014  1  0.423300  0.772800  0.866000  1
  H  H2015  1  0.923300  0.727200  0.634000  1
  H  H2016  1  0.923300  0.272800  0.866000  1
  H  H2017  1  0.570100  0.802900  0.382100  1
  H  H2018  1  0.570100  0.197100  0.117900  1
  H  H2019  1  0.070100  0.302900  0.382100  1
  H  H2020  1  0.070100  0.697100  0.117900  1
  H  H2021  1  0.429900  0.197100  0.617900  1
  H  H2022  1  0.429900  0.802900  0.882100  1
  H  H2023  1  0.929900  0.697100  0.617900  1
  H  H2024  1  0.929900  0.302900  0.882100  1
  H  H2025  1  0.770400  0.766400  0.372900  1
  H  H2026  1  0.770400  0.233600  0.127100  1
  H  H2027  1  0.270400  0.266400  0.372900  1
  H  H2028  1  0.270400  0.733600  0.127100  1
  H  H2029  1  0.229600  0.233600  0.627100  1
  H  H2030  1  0.229600  0.766400  0.872900  1
  H  H2031  1  0.729600  0.733600  0.627100  1
  H  H2032  1  0.729600  0.266400  0.872900  1
  H  H2033  1  0.754400  0.769700  0.349500  1
  H  H2034  1  0.754400  0.230300  0.150500  1
  H  H2035  1  0.254400  0.269700  0.349500  1
  H  H2036  1  0.254400  0.730300  0.150500  1
  H  H2037  1  0.245600  0.230300  0.650500  1
  H  H2038  1  0.245600  0.769700  0.849500  1
  H  H2039  1  0.745600  0.730300  0.650500  1
  H  H2040  1  0.745600  0.269700  0.849500  1
  H  H2041  1  0.740300  0.728900  0.351000  1
  H  H2042  1  0.740300  0.271100  0.149000  1
  H  H2043  1  0.240300  0.228900  0.351000  1
  H  H2044  1  0.240300  0.771100  0.149000  1
  H  H2045  1  0.259700  0.271100  0.649000  1
  H  H2046  1  0.259700  0.728900  0.851000  1
  H  H2047  1  0.759700  0.771100  0.649000  1
  H  H2048  1  0.759700  0.228900  0.851000  1
  H  H2049  1  0.651500  0.738400  0.358400  1
  H  H2050  1  0.651500  0.261600  0.141600  1
  H  H2051  1  0.151500  0.238400  0.358400  1
  H  H2052  1  0.151500  0.761600  0.141600  1
  H  H2053  1  0.348500  0.261600  0.641600  1
  H  H2054  1  0.348500  0.738400  0.858400  1
  H  H2055  1  0.848500  0.761600  0.641600  1
  H  H2056  1  0.848500  0.238400  0.858400  1
  H  H2057  1  0.687300  0.693800  0.311600  1
  H  H2058  1  0.687300  0.306200  0.188400  1
  H  H2059  1  0.187300  0.193800  0.311600  1
  H  H2060  1  0.187300  0.806200  0.188400  1
  H  H2061  1  0.312700  0.306200  0.688400  1
  H  H2062  1  0.312700  0.693800  0.811600  1
  H  H2063  1  0.812700  0.806200  0.688400  1
  H  H2064  1  0.812700  0.193800  0.811600  1
  H  H2065  1  0.770500  0.708000  0.315300  1
  H  H2066  1  0.770500  0.292000  0.184700  1
  H  H2067  1  0.270500  0.208000  0.315300  1
  H  H2068  1  0.270500  0.792000  0.184700  1
  H  H2069  1  0.229500  0.292000  0.684700  1
  H  H2070  1  0.229500  0.708000  0.815300  1
  H  H2071  1  0.729500  0.792000  0.684700  1
  H  H2072  1  0.729500  0.208000  0.815300  1
  H  H2073  1  0.716200  0.719200  0.283000  1
  H  H2074  1  0.716200  0.280800  0.217000  1
  H  H2075  1  0.216200  0.219200  0.283000  1
  H  H2076  1  0.216200  0.780800  0.217000  1
  H  H2077  1  0.283800  0.280800  0.717000  1
  H  H2078  1  0.283800  0.719200  0.783000  1
  H  H2079  1  0.783800  0.780800  0.717000  1
  H  H2080  1  0.783800  0.219200  0.783000  1
  H  H2081  1  0.760500  0.692900  0.275400  1
  H  H2082  1  0.760500  0.307100  0.224600  1
  H  H2083  1  0.260500  0.192900  0.275400  1
  H  H2084  1  0.260500  0.807100  0.224600  1
  H  H2085  1  0.239500  0.307100  0.724600  1
  H  H2086  1  0.239500  0.692900  0.775400  1
  H  H2087  1  0.739500  0.807100  0.724600  1
  H  H2088  1  0.739500  0.192900  0.775400  1
  H  H2089  1  0.834000  0.906700  0.211800  1
  H  H2090  1  0.834000  0.093300  0.288200  1
  H  H2091  1  0.334000  0.406700  0.211800  1
  H  H2092  1  0.334000  0.593300  0.288200  1
  H  H2093  1  0.166000  0.093300  0.788200  1
  H  H2094  1  0.166000  0.906700  0.711800  1
  H  H2095  1  0.666000  0.593300  0.788200  1
  H  H2096  1  0.666000  0.406700  0.711800  1
  H  H2097  1  0.874900  0.895500  0.186100  1
  H  H2098  1  0.874900  0.104500  0.313900  1
  H  H2099  1  0.374900  0.395500  0.186100  1
  H  H2100  1  0.374900  0.604500  0.313900  1
  H  H2101  1  0.125100  0.104500  0.813900  1
  H  H2102  1  0.125100  0.895500  0.686100  1
  H  H2103  1  0.625100  0.604500  0.813900  1
  H  H2104  1  0.625100  0.395500  0.686100  1
  H  H2105  1  0.983400  0.898900  0.218700  1
  H  H2106  1  0.983400  0.101100  0.281300  1
  H  H2107  1  0.483400  0.398900  0.218700  1
  H  H2108  1  0.483400  0.601100  0.281300  1
  H  H2109  1  0.016600  0.101100  0.781300  1
  H  H2110  1  0.016600  0.898900  0.718700  1
  H  H2111  1  0.516600  0.601100  0.781300  1
  H  H2112  1  0.516600  0.398900  0.718700  1
  H  H2113  1  0.985600  0.910700  0.200400  1
  H  H2114  1  0.985600  0.089300  0.299600  1
  H  H2115  1  0.485600  0.410700  0.200400  1
  H  H2116  1  0.485600  0.589300  0.299600  1
  H  H2117  1  0.014400  0.089300  0.799600  1
  H  H2118  1  0.014400  0.910700  0.700400  1
  H  H2119  1  0.514400  0.589300  0.799600  1
  H  H2120  1  0.514400  0.410700  0.700400  1
  H  H2121  1  0.910300  0.947700  0.211100  1
  H  H2122  1  0.910300  0.052300  0.288900  1
  H  H2123  1  0.410300  0.447700  0.211100  1
  H  H2124  1  0.410300  0.552300  0.288900  1
  H  H2125  1  0.089700  0.052300  0.788900  1
  H  H2126  1  0.089700  0.947700  0.711100  1
  H  H2127  1  0.589700  0.552300  0.788900  1
  H  H2128  1  0.589700  0.447700  0.711100  1
  H  H2129  1  0.972400  0.966900  0.230000  1
  H  H2130  1  0.972400  0.033100  0.270000  1
  H  H2131  1  0.472400  0.466900  0.230000  1
  H  H2132  1  0.472400  0.533100  0.270000  1
  H  H2133  1  0.027600  0.033100  0.770000  1
  H  H2134  1  0.027600  0.966900  0.730000  1
  H  H2135  1  0.527600  0.533100  0.770000  1
  H  H2136  1  0.527600  0.466900  0.730000  1
  H  H2137  1  0.872100  0.983800  0.252600  1
  H  H2138  1  0.872100  0.016200  0.247400  1
  H  H2139  1  0.372100  0.483800  0.252600  1
  H  H2140  1  0.372100  0.516200  0.247400  1
  H  H2141  1  0.127900  0.016200  0.747400  1
  H  H2142  1  0.127900  0.983800  0.752600  1
  H  H2143  1  0.627900  0.516200  0.747400  1
  H  H2144  1  0.627900  0.483800  0.752600  1
  H  H2145  1  0.815200  0.961700  0.236100  1
  H  H2146  1  0.815200  0.038300  0.263900  1
  H  H2147  1  0.315200  0.461700  0.236100  1
  H  H2148  1  0.315200  0.538300  0.263900  1
  H  H2149  1  0.184800  0.038300  0.763900  1
  H  H2150  1  0.184800  0.961700  0.736100  1
  H  H2151  1  0.684800  0.538300  0.763900  1
  H  H2152  1  0.684800  0.461700  0.736100  1
  H  H2153  1  0.796600  0.975200  0.296500  1
  H  H2154  1  0.796600  0.024800  0.203500  1
  H  H2155  1  0.296600  0.475200  0.296500  1
  H  H2156  1  0.296600  0.524800  0.203500  1
  H  H2157  1  0.203400  0.024800  0.703500  1
  H  H2158  1  0.203400  0.975200  0.796500  1
  H  H2159  1  0.703400  0.524800  0.703500  1
  H  H2160  1  0.703400  0.475200  0.796500  1
  H  H2161  1  0.818600  0.993800  0.285500  1
  H  H2162  1  0.818600  0.006200  0.214500  1
  H  H2163  1  0.318600  0.493800  0.285500  1
  H  H2164  1  0.318600  0.506200  0.214500  1
  H  H2165  1  0.181400  0.006200  0.714500  1
  H  H2166  1  0.181400  0.993800  0.785500  1
  H  H2167  1  0.681400  0.506200  0.714500  1
  H  H2168  1  0.681400  0.493800  0.785500  1
  H  H2169  1  0.892100  0.010500  0.317600  1
  H  H2170  1  0.892100  0.989500  0.182400  1
  H  H2171  1  0.392100  0.510500  0.317600  1
  H  H2172  1  0.392100  0.489500  0.182400  1
  H  H2173  1  0.107900  0.989500  0.682400  1
  H  H2174  1  0.107900  0.010500  0.817600  1
  H  H2175  1  0.607900  0.489500  0.682400  1
  H  H2176  1  0.607900  0.510500  0.817600  1
  H  H2177  1  0.907200  0.983900  0.318400  1
  H  H2178  1  0.907200  0.016100  0.181600  1
  H  H2179  1  0.407200  0.483900  0.318400  1
  H  H2180  1  0.407200  0.516100  0.181600  1
  H  H2181  1  0.092800  0.016100  0.681600  1
  H  H2182  1  0.092800  0.983900  0.818400  1
  H  H2183  1  0.592800  0.516100  0.681600  1
  H  H2184  1  0.592800  0.483900  0.818400  1
  H  H2185  1  0.063500  0.006700  0.301100  1
  H  H2186  1  0.063500  0.993300  0.198900  1
  H  H2187  1  0.563500  0.506700  0.301100  1
  H  H2188  1  0.563500  0.493300  0.198900  1
  H  H2189  1  0.936500  0.993300  0.698900  1
  H  H2190  1  0.936500  0.006700  0.801100  1
  H  H2191  1  0.436500  0.493300  0.698900  1
  H  H2192  1  0.436500  0.506700  0.801100  1
  H  H2193  1  0.078100  0.977400  0.288000  1
  H  H2194  1  0.078100  0.022600  0.212000  1
  H  H2195  1  0.578100  0.477400  0.288000  1
  H  H2196  1  0.578100  0.522600  0.212000  1
  H  H2197  1  0.921900  0.022600  0.712000  1
  H  H2198  1  0.921900  0.977400  0.788000  1
  H  H2199  1  0.421900  0.522600  0.712000  1
  H  H2200  1  0.421900  0.477400  0.788000  1
  H  H2201  1  0.131200  0.996700  0.326000  1
  H  H2202  1  0.131200  0.003300  0.174000  1
  H  H2203  1  0.631200  0.496700  0.326000  1
  H  H2204  1  0.631200  0.503300  0.174000  1
  H  H2205  1  0.868800  0.003300  0.674000  1
  H  H2206  1  0.868800  0.996700  0.826000  1
  H  H2207  1  0.368800  0.503300  0.674000  1
  H  H2208  1  0.368800  0.496700  0.826000  1
  H  H2209  1  0.044500  0.003900  0.337000  1
  H  H2210  1  0.044500  0.996100  0.163000  1
  H  H2211  1  0.544500  0.503900  0.337000  1
  H  H2212  1  0.544500  0.496100  0.163000  1
  H  H2213  1  0.955500  0.996100  0.663000  1
  H  H2214  1  0.955500  0.003900  0.837000  1
  H  H2215  1  0.455500  0.496100  0.663000  1
  H  H2216  1  0.455500  0.503900  0.837000  1
  H  H2217  1  0.074500  0.943500  0.290900  1
  H  H2218  1  0.074500  0.056500  0.209100  1
  H  H2219  1  0.574500  0.443500  0.290900  1
  H  H2220  1  0.574500  0.556500  0.209100  1
  H  H2221  1  0.925500  0.056500  0.709100  1
  H  H2222  1  0.925500  0.943500  0.790900  1
  H  H2223  1  0.425500  0.556500  0.709100  1
  H  H2224  1  0.425500  0.443500  0.790900  1
  H  H2225  1  0.988200  0.954900  0.300100  1
  H  H2226  1  0.988200  0.045100  0.199900  1
  H  H2227  1  0.488200  0.454900  0.300100  1
  H  H2228  1  0.488200  0.545100  0.199900  1
  H  H2229  1  0.011800  0.045100  0.699900  1
  H  H2230  1  0.011800  0.954900  0.800100  1
  H  H2231  1  0.511800  0.545100  0.699900  1
  H  H2232  1  0.511800  0.454900  0.800100  1
  H  H2233  1  0.064600  0.917800  0.310700  1
  H  H2234  1  0.064600  0.082200  0.189300  1
  H  H2235  1  0.564600  0.417800  0.310700  1
  H  H2236  1  0.564600  0.582200  0.189300  1
  H  H2237  1  0.935400  0.082200  0.689300  1
  H  H2238  1  0.935400  0.917800  0.810700  1
  H  H2239  1  0.435400  0.582200  0.689300  1
  H  H2240  1  0.435400  0.417800  0.810700  1
  H  H2241  1  0.982000  0.930500  0.322500  1
  H  H2242  1  0.982000  0.069500  0.177500  1
  H  H2243  1  0.482000  0.430500  0.322500  1
  H  H2244  1  0.482000  0.569500  0.177500  1
  H  H2245  1  0.018000  0.069500  0.677500  1
  H  H2246  1  0.018000  0.930500  0.822500  1
  H  H2247  1  0.518000  0.569500  0.677500  1
  H  H2248  1  0.518000  0.430500  0.822500  1
  C  C2249  1  0.927900  0.833100  0.271600  1
  C  C2250  1  0.927900  0.166900  0.228400  1
  C  C2251  1  0.427900  0.333100  0.271600  1
  C  C2252  1  0.427900  0.666900  0.228400  1
  C  C2253  1  0.072100  0.166900  0.728400  1
  C  C2254  1  0.072100  0.833100  0.771600  1
  C  C2255  1  0.572100  0.666900  0.728400  1
  C  C2256  1  0.572100  0.333100  0.771600  1
  C  C2257  1  0.951000  0.849600  0.294600  1
  C  C2258  1  0.951000  0.150400  0.205400  1
  C  C2259  1  0.451000  0.349600  0.294600  1
  C  C2260  1  0.451000  0.650400  0.205400  1
  C  C2261  1  0.049000  0.150400  0.705400  1
  C  C2262  1  0.049000  0.849600  0.794600  1
  C  C2263  1  0.549000  0.650400  0.705400  1
  C  C2264  1  0.549000  0.349600  0.794600  1
  C  C2265  1  0.959800  0.875000  0.300600  1
  C  C2266  1  0.959800  0.125000  0.199400  1
  C  C2267  1  0.459800  0.375000  0.300600  1
  C  C2268  1  0.459800  0.625000  0.199400  1
  C  C2269  1  0.040200  0.125000  0.699400  1
  C  C2270  1  0.040200  0.875000  0.800600  1
  C  C2271  1  0.540200  0.625000  0.699400  1
  C  C2272  1  0.540200  0.375000  0.800600  1
  C  C2273  1  0.945500  0.883800  0.283800  1
  C  C2274  1  0.945500  0.116200  0.216200  1
  C  C2275  1  0.445500  0.383800  0.283800  1
  C  C2276  1  0.445500  0.616200  0.216200  1
  C  C2277  1  0.054500  0.116200  0.716200  1
  C  C2278  1  0.054500  0.883800  0.783800  1
  C  C2279  1  0.554500  0.616200  0.716200  1
  C  C2280  1  0.554500  0.383800  0.783800  1
  C  C2281  1  0.922500  0.867300  0.260800  1
  C  C2282  1  0.922500  0.132700  0.239200  1
  C  C2283  1  0.422500  0.367300  0.260800  1
  C  C2284  1  0.422500  0.632700  0.239200  1
  C  C2285  1  0.077500  0.132700  0.739200  1
  C  C2286  1  0.077500  0.867300  0.760800  1
  C  C2287  1  0.577500  0.632700  0.739200  1
  C  C2288  1  0.577500  0.367300  0.760800  1
  C  C2289  1  0.913700  0.841900  0.254700  1
  C  C2290  1  0.913700  0.158100  0.245300  1
  C  C2291  1  0.413700  0.341900  0.254700  1
  C  C2292  1  0.413700  0.658100  0.245300  1
  C  C2293  1  0.086300  0.158100  0.745300  1
  C  C2294  1  0.086300  0.841900  0.754700  1
  C  C2295  1  0.586300  0.658100  0.745300  1
  C  C2296  1  0.586300  0.341900  0.754700  1
  C  C2297  1  0.959900  0.795600  0.273600  1
  C  C2298  1  0.959900  0.204400  0.226400  1
  C  C2299  1  0.459900  0.295600  0.273600  1
  C  C2300  1  0.459900  0.704400  0.226400  1
  C  C2301  1  0.040100  0.204400  0.726400  1
  C  C2302  1  0.040100  0.795600  0.773600  1
  C  C2303  1  0.540100  0.704400  0.726400  1
  C  C2304  1  0.540100  0.295600  0.773600  1
  C  C2305  1  0.950400  0.769000  0.266600  1
  C  C2306  1  0.950400  0.231000  0.233400  1
  C  C2307  1  0.450400  0.269000  0.266600  1
  C  C2308  1  0.450400  0.731000  0.233400  1
  C  C2309  1  0.049600  0.231000  0.733400  1
  C  C2310  1  0.049600  0.769000  0.766600  1
  C  C2311  1  0.549600  0.731000  0.733400  1
  C  C2312  1  0.549600  0.269000  0.766600  1
  C  C2313  1  0.996400  0.754700  0.272900  1
  C  C2314  1  0.996400  0.245300  0.227100  1
  C  C2315  1  0.496400  0.254700  0.272900  1
  C  C2316  1  0.496400  0.745300  0.227100  1
  C  C2317  1  0.003600  0.245300  0.727100  1
  C  C2318  1  0.003600  0.754700  0.772900  1
  C  C2319  1  0.503600  0.745300  0.727100  1
  C  C2320  1  0.503600  0.254700  0.772900  1
  C  C2321  1  0.985100  0.729700  0.263000  1
  C  C2322  1  0.985100  0.270300  0.237000  1
  C  C2323  1  0.485100  0.229700  0.263000  1
  C  C2324  1  0.485100  0.770300  0.237000  1
  C  C2325  1  0.014900  0.270300  0.737000  1
  C  C2326  1  0.014900  0.729700  0.763000  1
  C  C2327  1  0.514900  0.770300  0.737000  1
  C  C2328  1  0.514900  0.229700  0.763000  1
  C  C2329  1  0.926800  0.718600  0.246400  1
  C  C2330  1  0.926800  0.281400  0.253600  1
  C  C2331  1  0.426800  0.218600  0.246400  1
  C  C2332  1  0.426800  0.781400  0.253600  1
  C  C2333  1  0.073200  0.281400  0.753600  1
  C  C2334  1  0.073200  0.718600  0.746400  1
  C  C2335  1  0.573200  0.781400  0.753600  1
  C  C2336  1  0.573200  0.218600  0.746400  1
  C  C2337  1  0.875900  0.735100  0.242400  1
  C  C2338  1  0.875900  0.264900  0.257600  1
  C  C2339  1  0.375900  0.235100  0.242400  1
  C  C2340  1  0.375900  0.764900  0.257600  1
  C  C2341  1  0.124100  0.264900  0.757600  1
  C  C2342  1  0.124100  0.735100  0.742400  1
  C  C2343  1  0.624100  0.764900  0.757600  1
  C  C2344  1  0.624100  0.235100  0.742400  1
  C  C2345  1  0.888100  0.681500  0.209400  1
  C  C2346  1  0.888100  0.318500  0.290600  1
  C  C2347  1  0.388100  0.181500  0.209400  1
  C  C2348  1  0.388100  0.818500  0.290600  1
  C  C2349  1  0.111900  0.318500  0.790600  1
  C  C2350  1  0.111900  0.681500  0.709400  1
  C  C2351  1  0.611900  0.818500  0.790600  1
  C  C2352  1  0.611900  0.181500  0.709400  1
  C  C2353  1  0.914400  0.691500  0.232800  1
  C  C2354  1  0.914400  0.308500  0.267200  1
  C  C2355  1  0.414400  0.191500  0.232800  1
  C  C2356  1  0.414400  0.808500  0.267200  1
  C  C2357  1  0.085600  0.308500  0.767200  1
  C  C2358  1  0.085600  0.691500  0.732800  1
  C  C2359  1  0.585600  0.808500  0.767200  1
  C  C2360  1  0.585600  0.191500  0.732800  1
  C  C2361  1  0.925500  0.673400  0.241500  1
  C  C2362  1  0.925500  0.326600  0.258500  1
  C  C2363  1  0.425500  0.173400  0.241500  1
  C  C2364  1  0.425500  0.826600  0.258500  1
  C  C2365  1  0.074500  0.326600  0.758500  1
  C  C2366  1  0.074500  0.673400  0.741500  1
  C  C2367  1  0.574500  0.826600  0.758500  1
  C  C2368  1  0.574500  0.173400  0.741500  1
  C  C2369  1  0.910100  0.648600  0.227700  1
  C  C2370  1  0.910100  0.351400  0.272300  1
  C  C2371  1  0.410100  0.148600  0.227700  1
  C  C2372  1  0.410100  0.851400  0.272300  1
  C  C2373  1  0.089900  0.351400  0.772300  1
  C  C2374  1  0.089900  0.648600  0.727700  1
  C  C2375  1  0.589900  0.851400  0.772300  1
  C  C2376  1  0.589900  0.148600  0.727700  1
  C  C2377  1  0.879400  0.640900  0.205000  1
  C  C2378  1  0.879400  0.359100  0.295000  1
  C  C2379  1  0.379400  0.140900  0.205000  1
  C  C2380  1  0.379400  0.859100  0.295000  1
  C  C2381  1  0.120600  0.359100  0.795000  1
  C  C2382  1  0.120600  0.640900  0.705000  1
  C  C2383  1  0.620600  0.859100  0.795000  1
  C  C2384  1  0.620600  0.140900  0.705000  1
  C  C2385  1  0.859000  0.614900  0.187900  1
  C  C2386  1  0.859000  0.385100  0.312100  1
  C  C2387  1  0.359000  0.114900  0.187900  1
  C  C2388  1  0.359000  0.885100  0.312100  1
  C  C2389  1  0.141000  0.385100  0.812100  1
  C  C2390  1  0.141000  0.614900  0.687900  1
  C  C2391  1  0.641000  0.885100  0.812100  1
  C  C2392  1  0.641000  0.114900  0.687900  1
  C  C2393  1  0.872700  0.594300  0.192300  1
  C  C2394  1  0.872700  0.405700  0.307700  1
  C  C2395  1  0.372700  0.094300  0.192300  1
  C  C2396  1  0.372700  0.905700  0.307700  1
  C  C2397  1  0.127300  0.405700  0.807700  1
  C  C2398  1  0.127300  0.594300  0.692300  1
  C  C2399  1  0.627300  0.905700  0.807700  1
  C  C2400  1  0.627300  0.094300  0.692300  1
  C  C2401  1  0.857700  0.571400  0.174400  1
  C  C2402  1  0.857700  0.428600  0.325600  1
  C  C2403  1  0.357700  0.071400  0.174400  1
  C  C2404  1  0.357700  0.928600  0.325600  1
  C  C2405  1  0.142300  0.428600  0.825600  1
  C  C2406  1  0.142300  0.571400  0.674400  1
  C  C2407  1  0.642300  0.928600  0.825600  1
  C  C2408  1  0.642300  0.071400  0.674400  1
  C  C2409  1  0.839900  0.567100  0.150900  1
  C  C2410  1  0.839900  0.432900  0.349100  1
  C  C2411  1  0.339900  0.067100  0.150900  1
  C  C2412  1  0.339900  0.932900  0.349100  1
  C  C2413  1  0.160100  0.432900  0.849100  1
  C  C2414  1  0.160100  0.567100  0.650900  1
  C  C2415  1  0.660100  0.932900  0.849100  1
  C  C2416  1  0.660100  0.067100  0.650900  1
  C  C2417  1  0.821600  0.588900  0.149300  1
  C  C2418  1  0.821600  0.411100  0.350700  1
  C  C2419  1  0.321600  0.088900  0.149300  1
  C  C2420  1  0.321600  0.911100  0.350700  1
  C  C2421  1  0.178400  0.411100  0.850700  1
  C  C2422  1  0.178400  0.588900  0.649300  1
  C  C2423  1  0.678400  0.911100  0.850700  1
  C  C2424  1  0.678400  0.088900  0.649300  1
  C  C2425  1  0.841600  0.541600  0.107700  1
  C  C2426  1  0.841600  0.458400  0.392300  1
  C  C2427  1  0.341600  0.041600  0.107700  1
  C  C2428  1  0.341600  0.958400  0.392300  1
  C  C2429  1  0.158400  0.458400  0.892300  1
  C  C2430  1  0.158400  0.541600  0.607700  1
  C  C2431  1  0.658400  0.958400  0.892300  1
  C  C2432  1  0.658400  0.041600  0.607700  1
  C  C2433  1  0.828500  0.543700  0.130800  1
  C  C2434  1  0.828500  0.456300  0.369200  1
  C  C2435  1  0.328500  0.043700  0.130800  1
  C  C2436  1  0.328500  0.956300  0.369200  1
  C  C2437  1  0.171500  0.456300  0.869200  1
  C  C2438  1  0.171500  0.543700  0.630800  1
  C  C2439  1  0.671500  0.956300  0.869200  1
  C  C2440  1  0.671500  0.043700  0.630800  1
  C  C2441  1  0.793000  0.522600  0.131900  1
  C  C2442  1  0.793000  0.477400  0.368100  1
  C  C2443  1  0.293000  0.022600  0.131900  1
  C  C2444  1  0.293000  0.977400  0.368100  1
  C  C2445  1  0.207000  0.477400  0.868100  1
  C  C2446  1  0.207000  0.522600  0.631900  1
  C  C2447  1  0.707000  0.977400  0.868100  1
  C  C2448  1  0.707000  0.022600  0.631900  1
  C  C2449  1  0.777000  0.501800  0.111000  1
  C  C2450  1  0.777000  0.498200  0.389000  1
  C  C2451  1  0.277000  0.001800  0.111000  1
  C  C2452  1  0.277000  0.998200  0.389000  1
  C  C2453  1  0.223000  0.498200  0.889000  1
  C  C2454  1  0.223000  0.501800  0.611000  1
  C  C2455  1  0.723000  0.998200  0.889000  1
  C  C2456  1  0.723000  0.001800  0.611000  1
  C  C2457  1  0.793000  0.500300  0.089200  1
  C  C2458  1  0.793000  0.499700  0.410800  1
  C  C2459  1  0.293000  0.000300  0.089200  1
  C  C2460  1  0.293000  0.999700  0.410800  1
  C  C2461  1  0.207000  0.499700  0.910800  1
  C  C2462  1  0.207000  0.500300  0.589200  1
  C  C2463  1  0.707000  0.999700  0.910800  1
  C  C2464  1  0.707000  0.000300  0.589200  1
  C  C2465  1  0.770000  0.481000  0.066900  1
  C  C2466  1  0.770000  0.519000  0.433100  1
  C  C2467  1  0.270000  0.981000  0.066900  1
  C  C2468  1  0.270000  0.019000  0.433100  1
  C  C2469  1  0.230000  0.519000  0.933100  1
  C  C2470  1  0.230000  0.481000  0.566900  1
  C  C2471  1  0.730000  0.019000  0.933100  1
  C  C2472  1  0.730000  0.981000  0.566900  1
  C  C2473  1  0.754100  0.463700  0.025900  1
  C  C2474  1  0.754100  0.536300  0.474100  1
  C  C2475  1  0.254100  0.963700  0.025900  1
  C  C2476  1  0.254100  0.036300  0.474100  1
  C  C2477  1  0.245900  0.536300  0.974100  1
  C  C2478  1  0.245900  0.463700  0.525900  1
  C  C2479  1  0.745900  0.036300  0.974100  1
  C  C2480  1  0.745900  0.963700  0.525900  1
  C  C2481  1  0.784200  0.440300  0.020600  1
  C  C2482  1  0.784200  0.559700  0.479400  1
  C  C2483  1  0.284200  0.940300  0.020600  1
  C  C2484  1  0.284200  0.059700  0.479400  1
  C  C2485  1  0.215800  0.559700  0.979400  1
  C  C2486  1  0.215800  0.440300  0.520600  1
  C  C2487  1  0.715800  0.059700  0.979400  1
  C  C2488  1  0.715800  0.940300  0.520600  1
  C  C2489  1  0.763300  0.419800  0.999500  1
  C  C2490  1  0.763300  0.580200  0.500500  1
  C  C2491  1  0.263300  0.919800  0.999500  1
  C  C2492  1  0.263300  0.080200  0.500500  1
  C  C2493  1  0.236700  0.580200  0.000500  1
  C  C2494  1  0.236700  0.419800  0.499500  1
  C  C2495  1  0.736700  0.080200  0.000500  1
  C  C2496  1  0.736700  0.919800  0.499500  1
  C  C2497  1  0.710500  0.423000  0.984200  1
  C  C2498  1  0.710500  0.577000  0.515800  1
  C  C2499  1  0.210500  0.923000  0.984200  1
  C  C2500  1  0.210500  0.077000  0.515800  1
  C  C2501  1  0.289500  0.577000  0.015800  1
  C  C2502  1  0.289500  0.423000  0.484200  1
  C  C2503  1  0.789500  0.077000  0.015800  1
  C  C2504  1  0.789500  0.923000  0.484200  1
  C  C2505  1  0.681100  0.446600  0.989200  1
  C  C2506  1  0.681100  0.553400  0.510800  1
  C  C2507  1  0.181100  0.946600  0.989200  1
  C  C2508  1  0.181100  0.053400  0.510800  1
  C  C2509  1  0.318900  0.553400  0.010800  1
  C  C2510  1  0.318900  0.446600  0.489200  1
  C  C2511  1  0.818900  0.053400  0.010800  1
  C  C2512  1  0.818900  0.946600  0.489200  1
  C  C2513  1  0.705200  0.467100  0.009700  1
  C  C2514  1  0.705200  0.532900  0.490300  1
  C  C2515  1  0.205200  0.967100  0.009700  1
  C  C2516  1  0.205200  0.032900  0.490300  1
  C  C2517  1  0.294800  0.532900  0.990300  1
  C  C2518  1  0.294800  0.467100  0.509700  1
  C  C2519  1  0.794800  0.032900  0.990300  1
  C  C2520  1  0.794800  0.967100  0.509700  1
  C  C2521  1  0.786700  0.800900  0.300900  1
  C  C2522  1  0.786700  0.199100  0.199100  1
  C  C2523  1  0.286700  0.300900  0.300900  1
  C  C2524  1  0.286700  0.699100  0.199100  1
  C  C2525  1  0.213300  0.199100  0.699100  1
  C  C2526  1  0.213300  0.800900  0.800900  1
  C  C2527  1  0.713300  0.699100  0.699100  1
  C  C2528  1  0.713300  0.300900  0.800900  1
  C  C2529  1  0.789500  0.777400  0.299900  1
  C  C2530  1  0.789500  0.222600  0.200100  1
  C  C2531  1  0.289500  0.277400  0.299900  1
  C  C2532  1  0.289500  0.722600  0.200100  1
  C  C2533  1  0.210500  0.222600  0.700100  1
  C  C2534  1  0.210500  0.777400  0.799900  1
  C  C2535  1  0.710500  0.722600  0.700100  1
  C  C2536  1  0.710500  0.277400  0.799900  1
  C  C2537  1  0.818500  0.773900  0.318800  1
  C  C2538  1  0.818500  0.226100  0.181200  1
  C  C2539  1  0.318500  0.273900  0.318800  1
  C  C2540  1  0.318500  0.726100  0.181200  1
  C  C2541  1  0.181500  0.226100  0.681200  1
  C  C2542  1  0.181500  0.773900  0.818800  1
  C  C2543  1  0.681500  0.726100  0.681200  1
  C  C2544  1  0.681500  0.273900  0.818800  1
  C  C2545  1  0.844700  0.794400  0.338800  1
  C  C2546  1  0.844700  0.205600  0.161200  1
  C  C2547  1  0.344700  0.294400  0.338800  1
  C  C2548  1  0.344700  0.705600  0.161200  1
  C  C2549  1  0.155300  0.205600  0.661200  1
  C  C2550  1  0.155300  0.794400  0.838800  1
  C  C2551  1  0.655300  0.705600  0.661200  1
  C  C2552  1  0.655300  0.294400  0.838800  1
  C  C2553  1  0.842400  0.817900  0.340100  1
  C  C2554  1  0.842400  0.182100  0.159900  1
  C  C2555  1  0.342400  0.317900  0.340100  1
  C  C2556  1  0.342400  0.682100  0.159900  1
  C  C2557  1  0.157600  0.182100  0.659900  1
  C  C2558  1  0.157600  0.817900  0.840100  1
  C  C2559  1  0.657600  0.682100  0.659900  1
  C  C2560  1  0.657600  0.317900  0.840100  1
  C  C2561  1  0.810100  0.821700  0.321400  1
  C  C2562  1  0.810100  0.178300  0.178600  1
  C  C2563  1  0.310100  0.321700  0.321400  1
  C  C2564  1  0.310100  0.678300  0.178600  1
  C  C2565  1  0.189900  0.178300  0.678600  1
  C  C2566  1  0.189900  0.821700  0.821400  1
  C  C2567  1  0.689900  0.678300  0.678600  1
  C  C2568  1  0.689900  0.321700  0.821400  1
  C  C2569  1  0.716500  0.822800  0.283800  1
  C  C2570  1  0.716500  0.177200  0.216200  1
  C  C2571  1  0.216500  0.322800  0.283800  1
  C  C2572  1  0.216500  0.677200  0.216200  1
  C  C2573  1  0.283500  0.177200  0.716200  1
  C  C2574  1  0.283500  0.822800  0.783800  1
  C  C2575  1  0.783500  0.677200  0.716200  1
  C  C2576  1  0.783500  0.322800  0.783800  1
  C  C2577  1  0.695500  0.828100  0.263900  1
  C  C2578  1  0.695500  0.171900  0.236100  1
  C  C2579  1  0.195500  0.328100  0.263900  1
  C  C2580  1  0.195500  0.671900  0.236100  1
  C  C2581  1  0.304500  0.171900  0.736100  1
  C  C2582  1  0.304500  0.828100  0.763900  1
  C  C2583  1  0.804500  0.671900  0.736100  1
  C  C2584  1  0.804500  0.328100  0.763900  1
  C  C2585  1  0.637800  0.843400  0.263900  1
  C  C2586  1  0.637800  0.156600  0.236100  1
  C  C2587  1  0.137800  0.343400  0.263900  1
  C  C2588  1  0.137800  0.656600  0.236100  1
  C  C2589  1  0.362200  0.156600  0.736100  1
  C  C2590  1  0.362200  0.843400  0.763900  1
  C  C2591  1  0.862200  0.656600  0.736100  1
  C  C2592  1  0.862200  0.343400  0.763900  1
  C  C2593  1  0.613800  0.845000  0.244000  1
  C  C2594  1  0.613800  0.155000  0.256000  1
  C  C2595  1  0.113800  0.345000  0.244000  1
  C  C2596  1  0.113800  0.655000  0.256000  1
  C  C2597  1  0.386200  0.155000  0.756000  1
  C  C2598  1  0.386200  0.845000  0.744000  1
  C  C2599  1  0.886200  0.655000  0.756000  1
  C  C2600  1  0.886200  0.345000  0.744000  1
  C  C2601  1  0.648800  0.830200  0.222700  1
  C  C2602  1  0.648800  0.169800  0.277300  1
  C  C2603  1  0.148800  0.330200  0.222700  1
  C  C2604  1  0.148800  0.669800  0.277300  1
  C  C2605  1  0.351200  0.169800  0.777300  1
  C  C2606  1  0.351200  0.830200  0.722700  1
  C  C2607  1  0.851200  0.669800  0.777300  1
  C  C2608  1  0.851200  0.330200  0.722700  1
  C  C2609  1  0.710900  0.814300  0.223200  1
  C  C2610  1  0.710900  0.185700  0.276800  1
  C  C2611  1  0.210900  0.314300  0.223200  1
  C  C2612  1  0.210900  0.685700  0.276800  1
  C  C2613  1  0.289100  0.185700  0.776800  1
  C  C2614  1  0.289100  0.814300  0.723200  1
  C  C2615  1  0.789100  0.685700  0.776800  1
  C  C2616  1  0.789100  0.314300  0.723200  1
  C  C2617  1  0.631300  0.807600  0.179100  1
  C  C2618  1  0.631300  0.192400  0.320900  1
  C  C2619  1  0.131300  0.307600  0.179100  1
  C  C2620  1  0.131300  0.692400  0.320900  1
  C  C2621  1  0.368700  0.192400  0.820900  1
  C  C2622  1  0.368700  0.807600  0.679100  1
  C  C2623  1  0.868700  0.692400  0.820900  1
  C  C2624  1  0.868700  0.307600  0.679100  1
  C  C2625  1  0.625300  0.829300  0.199700  1
  C  C2626  1  0.625300  0.170700  0.300300  1
  C  C2627  1  0.125300  0.329300  0.199700  1
  C  C2628  1  0.125300  0.670700  0.300300  1
  C  C2629  1  0.374700  0.170700  0.800300  1
  C  C2630  1  0.374700  0.829300  0.699700  1
  C  C2631  1  0.874700  0.670700  0.800300  1
  C  C2632  1  0.874700  0.329300  0.699700  1
  C  C2633  1  0.594500  0.850200  0.197100  1
  C  C2634  1  0.594500  0.149800  0.302900  1
  C  C2635  1  0.094500  0.350200  0.197100  1
  C  C2636  1  0.094500  0.649800  0.302900  1
  C  C2637  1  0.405500  0.149800  0.802900  1
  C  C2638  1  0.405500  0.850200  0.697100  1
  C  C2639  1  0.905500  0.649800  0.802900  1
  C  C2640  1  0.905500  0.350200  0.697100  1
  C  C2641  1  0.576800  0.847500  0.174800  1
  C  C2642  1  0.576800  0.152500  0.325200  1
  C  C2643  1  0.076800  0.347500  0.174800  1
  C  C2644  1  0.076800  0.652500  0.325200  1
  C  C2645  1  0.423200  0.152500  0.825200  1
  C  C2646  1  0.423200  0.847500  0.674800  1
  C  C2647  1  0.923200  0.652500  0.825200  1
  C  C2648  1  0.923200  0.347500  0.674800  1
  C  C2649  1  0.592000  0.825400  0.154800  1
  C  C2650  1  0.592000  0.174600  0.345200  1
  C  C2651  1  0.092000  0.325400  0.154800  1
  C  C2652  1  0.092000  0.674600  0.345200  1
  C  C2653  1  0.408000  0.174600  0.845200  1
  C  C2654  1  0.408000  0.825400  0.654800  1
  C  C2655  1  0.908000  0.674600  0.845200  1
  C  C2656  1  0.908000  0.325400  0.654800  1
  C  C2657  1  0.583500  0.821400  0.129800  1
  C  C2658  1  0.583500  0.178600  0.370200  1
  C  C2659  1  0.083500  0.321400  0.129800  1
  C  C2660  1  0.083500  0.678600  0.370200  1
  C  C2661  1  0.416500  0.178600  0.870200  1
  C  C2662  1  0.416500  0.821400  0.629800  1
  C  C2663  1  0.916500  0.678600  0.870200  1
  C  C2664  1  0.916500  0.321400  0.629800  1
  C  C2665  1  0.551400  0.838900  0.123200  1
  C  C2666  1  0.551400  0.161100  0.376800  1
  C  C2667  1  0.051400  0.338900  0.123200  1
  C  C2668  1  0.051400  0.661100  0.376800  1
  C  C2669  1  0.448600  0.161100  0.876800  1
  C  C2670  1  0.448600  0.838900  0.623200  1
  C  C2671  1  0.948600  0.661100  0.876800  1
  C  C2672  1  0.948600  0.338900  0.623200  1
  C  C2673  1  0.548600  0.832200  0.099300  1
  C  C2674  1  0.548600  0.167800  0.400700  1
  C  C2675  1  0.048600  0.332200  0.099300  1
  C  C2676  1  0.048600  0.667800  0.400700  1
  C  C2677  1  0.451400  0.167800  0.900700  1
  C  C2678  1  0.451400  0.832200  0.599300  1
  C  C2679  1  0.951400  0.667800  0.900700  1
  C  C2680  1  0.951400  0.332200  0.599300  1
  C  C2681  1  0.572600  0.808900  0.081600  1
  C  C2682  1  0.572600  0.191100  0.418400  1
  C  C2683  1  0.072600  0.308900  0.081600  1
  C  C2684  1  0.072600  0.691100  0.418400  1
  C  C2685  1  0.427400  0.191100  0.918400  1
  C  C2686  1  0.427400  0.808900  0.581600  1
  C  C2687  1  0.927400  0.691100  0.918400  1
  C  C2688  1  0.927400  0.308900  0.581600  1
  C  C2689  1  0.607300  0.793900  0.090600  1
  C  C2690  1  0.607300  0.206100  0.409400  1
  C  C2691  1  0.107300  0.293900  0.090600  1
  C  C2692  1  0.107300  0.706100  0.409400  1
  C  C2693  1  0.392700  0.206100  0.909400  1
  C  C2694  1  0.392700  0.793900  0.590600  1
  C  C2695  1  0.892700  0.706100  0.909400  1
  C  C2696  1  0.892700  0.293900  0.590600  1
  C  C2697  1  0.549600  0.774700  0.041700  1
  C  C2698  1  0.549600  0.225300  0.458300  1
  C  C2699  1  0.049600  0.274700  0.041700  1
  C  C2700  1  0.049600  0.725300  0.458300  1
  C  C2701  1  0.450400  0.225300  0.958300  1
  C  C2702  1  0.450400  0.774700  0.541700  1
  C  C2703  1  0.950400  0.725300  0.958300  1
  C  C2704  1  0.950400  0.274700  0.541700  1
  C  C2705  1  0.566600  0.799800  0.056400  1
  C  C2706  1  0.566600  0.200200  0.443600  1
  C  C2707  1  0.066600  0.299800  0.056400  1
  C  C2708  1  0.066600  0.700200  0.443600  1
  C  C2709  1  0.433400  0.200200  0.943600  1
  C  C2710  1  0.433400  0.799800  0.556400  1
  C  C2711  1  0.933400  0.700200  0.943600  1
  C  C2712  1  0.933400  0.299800  0.556400  1
  C  C2713  1  0.579000  0.814900  0.044200  1
  C  C2714  1  0.579000  0.185100  0.455800  1
  C  C2715  1  0.079000  0.314900  0.044200  1
  C  C2716  1  0.079000  0.685100  0.455800  1
  C  C2717  1  0.421000  0.185100  0.955800  1
  C  C2718  1  0.421000  0.814900  0.544200  1
  C  C2719  1  0.921000  0.685100  0.955800  1
  C  C2720  1  0.921000  0.314900  0.544200  1
  C  C2721  1  0.577800  0.803200  0.019700  1
  C  C2722  1  0.577800  0.196800  0.480300  1
  C  C2723  1  0.077800  0.303200  0.019700  1
  C  C2724  1  0.077800  0.696800  0.480300  1
  C  C2725  1  0.422200  0.196800  0.980300  1
  C  C2726  1  0.422200  0.803200  0.519700  1
  C  C2727  1  0.922200  0.696800  0.980300  1
  C  C2728  1  0.922200  0.303200  0.519700  1
  C  C2729  1  0.562200  0.778500  0.006400  1
  C  C2730  1  0.562200  0.221500  0.493600  1
  C  C2731  1  0.062200  0.278500  0.006400  1
  C  C2732  1  0.062200  0.721500  0.493600  1
  C  C2733  1  0.437800  0.221500  0.993600  1
  C  C2734  1  0.437800  0.778500  0.506400  1
  C  C2735  1  0.937800  0.721500  0.993600  1
  C  C2736  1  0.937800  0.278500  0.506400  1
  C  C2737  1  0.558200  0.766100  0.981200  1
  C  C2738  1  0.558200  0.233900  0.518800  1
  C  C2739  1  0.058200  0.266100  0.981200  1
  C  C2740  1  0.058200  0.733900  0.518800  1
  C  C2741  1  0.441800  0.233900  0.018800  1
  C  C2742  1  0.441800  0.766100  0.481200  1
  C  C2743  1  0.941800  0.733900  0.018800  1
  C  C2744  1  0.941800  0.266100  0.481200  1
  C  C2745  1  0.536800  0.731500  0.945490  1
  C  C2746  1  0.536800  0.268500  0.554510  1
  C  C2747  1  0.036800  0.231500  0.945490  1
  C  C2748  1  0.036800  0.768500  0.554510  1
  C  C2749  1  0.463200  0.268500  0.054510  1
  C  C2750  1  0.463200  0.731500  0.445490  1
  C  C2751  1  0.963200  0.768500  0.054510  1
  C  C2752  1  0.963200  0.231500  0.445490  1
  C  C2753  1  0.561700  0.706900  0.932300  1
  C  C2754  1  0.561700  0.293100  0.567700  1
  C  C2755  1  0.061700  0.206900  0.932300  1
  C  C2756  1  0.061700  0.793100  0.567700  1
  C  C2757  1  0.438300  0.293100  0.067700  1
  C  C2758  1  0.438300  0.706900  0.432300  1
  C  C2759  1  0.938300  0.793100  0.067700  1
  C  C2760  1  0.938300  0.206900  0.432300  1
  C  C2761  1  0.545400  0.694500  0.908000  1
  C  C2762  1  0.545400  0.305500  0.592000  1
  C  C2763  1  0.045400  0.194500  0.908000  1
  C  C2764  1  0.045400  0.805500  0.592000  1
  C  C2765  1  0.454600  0.305500  0.092000  1
  C  C2766  1  0.454600  0.694500  0.408000  1
  C  C2767  1  0.954600  0.805500  0.092000  1
  C  C2768  1  0.954600  0.194500  0.408000  1
  C  C2769  1  0.504200  0.706800  0.896900  1
  C  C2770  1  0.504200  0.293200  0.603100  1
  C  C2771  1  0.004200  0.206800  0.896900  1
  C  C2772  1  0.004200  0.793200  0.603100  1
  C  C2773  1  0.495800  0.293200  0.103100  1
  C  C2774  1  0.495800  0.706800  0.396900  1
  C  C2775  1  0.995800  0.793200  0.103100  1
  C  C2776  1  0.995800  0.206800  0.396900  1
  C  C2777  1  0.479400  0.731400  0.910100  1
  C  C2778  1  0.479400  0.268600  0.589900  1
  C  C2779  1  0.979400  0.231400  0.910100  1
  C  C2780  1  0.979400  0.768600  0.589900  1
  C  C2781  1  0.520600  0.268600  0.089900  1
  C  C2782  1  0.520600  0.731400  0.410100  1
  C  C2783  1  0.020600  0.768600  0.089900  1
  C  C2784  1  0.020600  0.231400  0.410100  1
  C  C2785  1  0.495700  0.743700  0.934400  1
  C  C2786  1  0.495700  0.256300  0.565600  1
  C  C2787  1  0.995700  0.243700  0.934400  1
  C  C2788  1  0.995700  0.756300  0.565600  1
  C  C2789  1  0.504300  0.256300  0.065600  1
  C  C2790  1  0.504300  0.743700  0.434400  1
  C  C2791  1  0.004300  0.756300  0.065600  1
  C  C2792  1  0.004300  0.243700  0.434400  1
  C  C2793  1  0.357700  0.750800  0.987700  1
  C  C2794  1  0.357700  0.249200  0.512300  1
  C  C2795  1  0.857700  0.250800  0.987700  1
  C  C2796  1  0.857700  0.749200  0.512300  1
  C  C2797  1  0.642300  0.249200  0.012300  1
  C  C2798  1  0.642300  0.750800  0.487700  1
  C  C2799  1  0.142300  0.749200  0.012300  1
  C  C2800  1  0.142300  0.250800  0.487700  1
  C  C2801  1  0.355700  0.767800  0.011500  1
  C  C2802  1  0.355700  0.232200  0.488500  1
  C  C2803  1  0.855700  0.267800  0.011500  1
  C  C2804  1  0.855700  0.732200  0.488500  1
  C  C2805  1  0.644300  0.232200  0.988500  1
  C  C2806  1  0.644300  0.767800  0.511500  1
  C  C2807  1  0.144300  0.732200  0.988500  1
  C  C2808  1  0.144300  0.267800  0.511500  1
  C  C2809  1  0.317600  0.790500  0.019300  1
  C  C2810  1  0.317600  0.209500  0.480700  1
  C  C2811  1  0.817600  0.290500  0.019300  1
  C  C2812  1  0.817600  0.709500  0.480700  1
  C  C2813  1  0.682400  0.209500  0.980700  1
  C  C2814  1  0.682400  0.790500  0.519300  1
  C  C2815  1  0.182400  0.709500  0.980700  1
  C  C2816  1  0.182400  0.290500  0.519300  1
  C  C2817  1  0.280300  0.796200  0.002500  1
  C  C2818  1  0.280300  0.203800  0.497500  1
  C  C2819  1  0.780300  0.296200  0.002500  1
  C  C2820  1  0.780300  0.703800  0.497500  1
  C  C2821  1  0.719700  0.203800  0.997500  1
  C  C2822  1  0.719700  0.796200  0.502500  1
  C  C2823  1  0.219700  0.703800  0.997500  1
  C  C2824  1  0.219700  0.296200  0.502500  1
  C  C2825  1  0.282900  0.779600  0.978800  1
  C  C2826  1  0.282900  0.220400  0.521200  1
  C  C2827  1  0.782900  0.279600  0.978800  1
  C  C2828  1  0.782900  0.720400  0.521200  1
  C  C2829  1  0.717100  0.220400  0.021200  1
  C  C2830  1  0.717100  0.779600  0.478800  1
  C  C2831  1  0.217100  0.720400  0.021200  1
  C  C2832  1  0.217100  0.279600  0.478800  1
  C  C2833  1  0.318700  0.756400  0.971200  1
  C  C2834  1  0.318700  0.243600  0.528800  1
  C  C2835  1  0.818700  0.256400  0.971200  1
  C  C2836  1  0.818700  0.743600  0.528800  1
  C  C2837  1  0.681300  0.243600  0.028800  1
  C  C2838  1  0.681300  0.756400  0.471200  1
  C  C2839  1  0.181300  0.743600  0.028800  1
  C  C2840  1  0.181300  0.256400  0.471200  1
  C  C2841  1  0.376300  0.707600  0.963400  1
  C  C2842  1  0.376300  0.292400  0.536600  1
  C  C2843  1  0.876300  0.207600  0.963400  1
  C  C2844  1  0.876300  0.792400  0.536600  1
  C  C2845  1  0.623700  0.292400  0.036600  1
  C  C2846  1  0.623700  0.707600  0.463400  1
  C  C2847  1  0.123700  0.792400  0.036600  1
  C  C2848  1  0.123700  0.207600  0.463400  1
  C  C2849  1  0.419800  0.684500  0.956300  1
  C  C2850  1  0.419800  0.315500  0.543700  1
  C  C2851  1  0.919800  0.184500  0.956300  1
  C  C2852  1  0.919800  0.815500  0.543700  1
  C  C2853  1  0.580200  0.315500  0.043700  1
  C  C2854  1  0.580200  0.684500  0.456300  1
  C  C2855  1  0.080200  0.815500  0.043700  1
  C  C2856  1  0.080200  0.184500  0.456300  1
  C  C2857  1  0.394400  0.661700  0.941600  1
  C  C2858  1  0.394400  0.338300  0.558400  1
  C  C2859  1  0.894400  0.161700  0.941600  1
  C  C2860  1  0.894400  0.838300  0.558400  1
  C  C2861  1  0.605600  0.338300  0.058400  1
  C  C2862  1  0.605600  0.661700  0.441600  1
  C  C2863  1  0.105600  0.838300  0.058400  1
  C  C2864  1  0.105600  0.161700  0.441600  1
  C  C2865  1  0.434700  0.641100  0.938400  1
  C  C2866  1  0.434700  0.358900  0.561600  1
  C  C2867  1  0.934700  0.141100  0.938400  1
  C  C2868  1  0.934700  0.858900  0.561600  1
  C  C2869  1  0.565300  0.358900  0.061600  1
  C  C2870  1  0.565300  0.641100  0.438400  1
  C  C2871  1  0.065300  0.858900  0.061600  1
  C  C2872  1  0.065300  0.141100  0.438400  1
  C  C2873  1  0.502000  0.642700  0.951000  1
  C  C2874  1  0.502000  0.357300  0.549000  1
  C  C2875  1  0.002000  0.142700  0.951000  1
  C  C2876  1  0.002000  0.857300  0.549000  1
  C  C2877  1  0.498000  0.357300  0.049000  1
  C  C2878  1  0.498000  0.642700  0.451000  1
  C  C2879  1  0.998000  0.857300  0.049000  1
  C  C2880  1  0.998000  0.142700  0.451000  1
  C  C2881  1  0.527600  0.667300  0.966200  1
  C  C2882  1  0.527600  0.332700  0.533800  1
  C  C2883  1  0.027600  0.167300  0.966200  1
  C  C2884  1  0.027600  0.832700  0.533800  1
  C  C2885  1  0.472400  0.332700  0.033800  1
  C  C2886  1  0.472400  0.667300  0.466200  1
  C  C2887  1  0.972400  0.832700  0.033800  1
  C  C2888  1  0.972400  0.167300  0.466200  1
  C  C2889  1  0.579900  0.622700  0.971700  1
  C  C2890  1  0.579900  0.377300  0.528300  1
  C  C2891  1  0.079900  0.122700  0.971700  1
  C  C2892  1  0.079900  0.877300  0.528300  1
  C  C2893  1  0.420100  0.377300  0.028300  1
  C  C2894  1  0.420100  0.622700  0.471700  1
  C  C2895  1  0.920100  0.877300  0.028300  1
  C  C2896  1  0.920100  0.122700  0.471700  1
  C  C2897  1  0.545300  0.621200  0.951000  1
  C  C2898  1  0.545300  0.378800  0.549000  1
  C  C2899  1  0.045300  0.121200  0.951000  1
  C  C2900  1  0.045300  0.878800  0.549000  1
  C  C2901  1  0.454700  0.378800  0.049000  1
  C  C2902  1  0.454700  0.621200  0.451000  1
  C  C2903  1  0.954700  0.878800  0.049000  1
  C  C2904  1  0.954700  0.121200  0.451000  1
  C  C2905  1  0.550900  0.597100  0.931400  1
  C  C2906  1  0.550900  0.402900  0.568600  1
  C  C2907  1  0.050900  0.097100  0.931400  1
  C  C2908  1  0.050900  0.902900  0.568600  1
  C  C2909  1  0.449100  0.402900  0.068600  1
  C  C2910  1  0.449100  0.597100  0.431400  1
  C  C2911  1  0.949100  0.902900  0.068600  1
  C  C2912  1  0.949100  0.097100  0.431400  1
  C  C2913  1  0.591300  0.578400  0.934000  1
  C  C2914  1  0.591300  0.421600  0.566000  1
  C  C2915  1  0.091300  0.078400  0.934000  1
  C  C2916  1  0.091300  0.921600  0.566000  1
  C  C2917  1  0.408700  0.421600  0.066000  1
  C  C2918  1  0.408700  0.578400  0.434000  1
  C  C2919  1  0.908700  0.921600  0.066000  1
  C  C2920  1  0.908700  0.078400  0.434000  1
  C  C2921  1  0.628200  0.582200  0.954800  1
  C  C2922  1  0.628200  0.417800  0.545200  1
  C  C2923  1  0.128200  0.082200  0.954800  1
  C  C2924  1  0.128200  0.917800  0.545200  1
  C  C2925  1  0.371800  0.417800  0.045200  1
  C  C2926  1  0.371800  0.582200  0.454800  1
  C  C2927  1  0.871800  0.917800  0.045200  1
  C  C2928  1  0.871800  0.082200  0.454800  1
  C  C2929  1  0.680100  0.564300  0.958400  1
  C  C2930  1  0.680100  0.435700  0.541600  1
  C  C2931  1  0.180100  0.064300  0.958400  1
  C  C2932  1  0.180100  0.935700  0.541600  1
  C  C2933  1  0.319900  0.435700  0.041600  1
  C  C2934  1  0.319900  0.564300  0.458400  1
  C  C2935  1  0.819900  0.935700  0.041600  1
  C  C2936  1  0.819900  0.064300  0.458400  1
  C  C2937  1  0.692800  0.539700  0.941100  1
  C  C2938  1  0.692800  0.460300  0.558900  1
  C  C2939  1  0.192800  0.039700  0.941100  1
  C  C2940  1  0.192800  0.960300  0.558900  1
  C  C2941  1  0.307200  0.460300  0.058900  1
  C  C2942  1  0.307200  0.539700  0.441100  1
  C  C2943  1  0.807200  0.960300  0.058900  1
  C  C2944  1  0.807200  0.039700  0.441100  1
  C  C2945  1  0.734200  0.524700  0.948400  1
  C  C2946  1  0.734200  0.475300  0.551600  1
  C  C2947  1  0.234200  0.024700  0.948400  1
  C  C2948  1  0.234200  0.975300  0.551600  1
  C  C2949  1  0.265800  0.475300  0.051600  1
  C  C2950  1  0.265800  0.524700  0.448400  1
  C  C2951  1  0.765800  0.975300  0.051600  1
  C  C2952  1  0.765800  0.024700  0.448400  1
  C  C2953  1  0.766700  0.532400  0.971300  1
  C  C2954  1  0.766700  0.467600  0.528700  1
  C  C2955  1  0.266700  0.032400  0.971300  1
  C  C2956  1  0.266700  0.967600  0.528700  1
  C  C2957  1  0.233300  0.467600  0.028700  1
  C  C2958  1  0.233300  0.532400  0.471300  1
  C  C2959  1  0.733300  0.967600  0.028700  1
  C  C2960  1  0.733300  0.032400  0.471300  1
  C  C2961  1  0.755500  0.557500  0.985800  1
  C  C2962  1  0.755500  0.442500  0.514200  1
  C  C2963  1  0.255500  0.057500  0.985800  1
  C  C2964  1  0.255500  0.942500  0.514200  1
  C  C2965  1  0.244500  0.442500  0.014200  1
  C  C2966  1  0.244500  0.557500  0.485800  1
  C  C2967  1  0.744500  0.942500  0.014200  1
  C  C2968  1  0.744500  0.057500  0.485800  1
  C  C2969  1  0.799100  0.522900  0.004400  1
  C  C2970  1  0.799100  0.477100  0.495600  1
  C  C2971  1  0.299100  0.022900  0.004400  1
  C  C2972  1  0.299100  0.977100  0.495600  1
  C  C2973  1  0.200900  0.477100  0.995600  1
  C  C2974  1  0.200900  0.522900  0.504400  1
  C  C2975  1  0.700900  0.977100  0.995600  1
  C  C2976  1  0.700900  0.022900  0.504400  1
  C  C2977  1  0.806400  0.517500  0.980400  1
  C  C2978  1  0.806400  0.482500  0.519600  1
  C  C2979  1  0.306400  0.017500  0.980400  1
  C  C2980  1  0.306400  0.982500  0.519600  1
  C  C2981  1  0.193600  0.482500  0.019600  1
  C  C2982  1  0.193600  0.517500  0.480400  1
  C  C2983  1  0.693600  0.982500  0.019600  1
  C  C2984  1  0.693600  0.017500  0.480400  1
  C  C2985  1  0.858500  0.497500  0.966900  1
  C  C2986  1  0.858500  0.502500  0.533100  1
  C  C2987  1  0.358500  0.997500  0.966900  1
  C  C2988  1  0.358500  0.002500  0.533100  1
  C  C2989  1  0.141500  0.502500  0.033100  1
  C  C2990  1  0.141500  0.497500  0.466900  1
  C  C2991  1  0.641500  0.002500  0.033100  1
  C  C2992  1  0.641500  0.997500  0.466900  1
  C  C2993  1  0.895000  0.485000  0.978000  1
  C  C2994  1  0.895000  0.515000  0.522000  1
  C  C2995  1  0.395000  0.985000  0.978000  1
  C  C2996  1  0.395000  0.015000  0.522000  1
  C  C2997  1  0.105000  0.515000  0.022000  1
  C  C2998  1  0.105000  0.485000  0.478000  1
  C  C2999  1  0.605000  0.015000  0.022000  1
  C  C3000  1  0.605000  0.985000  0.478000  1
  C  C3001  1  0.887000  0.490900  0.001400  1
  C  C3002  1  0.887000  0.509100  0.498600  1
  C  C3003  1  0.387000  0.990900  0.001400  1
  C  C3004  1  0.387000  0.009100  0.498600  1
  C  C3005  1  0.113000  0.509100  0.998600  1
  C  C3006  1  0.113000  0.490900  0.501400  1
  C  C3007  1  0.613000  0.009100  0.998600  1
  C  C3008  1  0.613000  0.990900  0.501400  1
  C  C3009  1  0.932900  0.482200  0.015100  1
  C  C3010  1  0.932900  0.517800  0.484900  1
  C  C3011  1  0.432900  0.982200  0.015100  1
  C  C3012  1  0.432900  0.017800  0.484900  1
  C  C3013  1  0.067100  0.517800  0.984900  1
  C  C3014  1  0.067100  0.482200  0.515100  1
  C  C3015  1  0.567100  0.017800  0.984900  1
  C  C3016  1  0.567100  0.982200  0.515100  1
  C  C3017  1  0.977600  0.482300  0.050000  1
  C  C3018  1  0.977600  0.517700  0.450000  1
  C  C3019  1  0.477600  0.982300  0.050000  1
  C  C3020  1  0.477600  0.017700  0.450000  1
  C  C3021  1  0.022400  0.517700  0.950000  1
  C  C3022  1  0.022400  0.482300  0.550000  1
  C  C3023  1  0.522400  0.017700  0.950000  1
  C  C3024  1  0.522400  0.982300  0.550000  1
  C  C3025  1  0.007700  0.497900  0.071900  1
  C  C3026  1  0.007700  0.502100  0.428100  1
  C  C3027  1  0.507700  0.997900  0.071900  1
  C  C3028  1  0.507700  0.002100  0.428100  1
  C  C3029  1  0.992300  0.502100  0.928100  1
  C  C3030  1  0.992300  0.497900  0.571900  1
  C  C3031  1  0.492300  0.002100  0.928100  1
  C  C3032  1  0.492300  0.997900  0.571900  1
  C  C3033  1  0.056600  0.489100  0.084500  1
  C  C3034  1  0.056600  0.510900  0.415500  1
  C  C3035  1  0.556600  0.989100  0.084500  1
  C  C3036  1  0.556600  0.010900  0.415500  1
  C  C3037  1  0.943400  0.510900  0.915500  1
  C  C3038  1  0.943400  0.489100  0.584500  1
  C  C3039  1  0.443400  0.010900  0.915500  1
  C  C3040  1  0.443400  0.989100  0.584500  1
  C  C3041  1  0.076200  0.463900  0.073800  1
  C  C3042  1  0.076200  0.536100  0.426200  1
  C  C3043  1  0.576200  0.963900  0.073800  1
  C  C3044  1  0.576200  0.036100  0.426200  1
  C  C3045  1  0.923800  0.536100  0.926200  1
  C  C3046  1  0.923800  0.463900  0.573800  1
  C  C3047  1  0.423800  0.036100  0.926200  1
  C  C3048  1  0.423800  0.963900  0.573800  1
  C  C3049  1  0.042500  0.448000  0.052300  1
  C  C3050  1  0.042500  0.552000  0.447700  1
  C  C3051  1  0.542500  0.948000  0.052300  1
  C  C3052  1  0.542500  0.052000  0.447700  1
  C  C3053  1  0.957500  0.552000  0.947700  1
  C  C3054  1  0.957500  0.448000  0.552300  1
  C  C3055  1  0.457500  0.052000  0.947700  1
  C  C3056  1  0.457500  0.948000  0.552300  1
  C  C3057  1  0.994000  0.456700  0.039800  1
  C  C3058  1  0.994000  0.543300  0.460200  1
  C  C3059  1  0.494000  0.956700  0.039800  1
  C  C3060  1  0.494000  0.043300  0.460200  1
  C  C3061  1  0.006000  0.543300  0.960200  1
  C  C3062  1  0.006000  0.456700  0.539800  1
  C  C3063  1  0.506000  0.043300  0.960200  1
  C  C3064  1  0.506000  0.956700  0.539800  1
  C  C3065  1  0.784300  0.625500  0.974800  1
  C  C3066  1  0.784300  0.374500  0.525200  1
  C  C3067  1  0.284300  0.125500  0.974800  1
  C  C3068  1  0.284300  0.874500  0.525200  1
  C  C3069  1  0.215700  0.374500  0.025200  1
  C  C3070  1  0.215700  0.625500  0.474800  1
  C  C3071  1  0.715700  0.874500  0.025200  1
  C  C3072  1  0.715700  0.125500  0.474800  1
  C  C3073  1  0.814600  0.607300  0.953500  1
  C  C3074  1  0.814600  0.392700  0.546500  1
  C  C3075  1  0.314600  0.107300  0.953500  1
  C  C3076  1  0.314600  0.892700  0.546500  1
  C  C3077  1  0.185400  0.392700  0.046500  1
  C  C3078  1  0.185400  0.607300  0.453500  1
  C  C3079  1  0.685400  0.892700  0.046500  1
  C  C3080  1  0.685400  0.107300  0.453500  1
  C  C3081  1  0.815500  0.611400  0.933200  1
  C  C3082  1  0.815500  0.388600  0.566800  1
  C  C3083  1  0.315500  0.111400  0.933200  1
  C  C3084  1  0.315500  0.888600  0.566800  1
  C  C3085  1  0.184500  0.388600  0.066800  1
  C  C3086  1  0.184500  0.611400  0.433200  1
  C  C3087  1  0.684500  0.888600  0.066800  1
  C  C3088  1  0.684500  0.111400  0.433200  1
  C  C3089  1  0.786000  0.633700  0.934200  1
  C  C3090  1  0.786000  0.366300  0.565800  1
  C  C3091  1  0.286000  0.133700  0.934200  1
  C  C3092  1  0.286000  0.866300  0.565800  1
  C  C3093  1  0.214000  0.366300  0.065800  1
  C  C3094  1  0.214000  0.633700  0.434200  1
  C  C3095  1  0.714000  0.866300  0.065800  1
  C  C3096  1  0.714000  0.133700  0.434200  1
  C  C3097  1  0.755700  0.651900  0.955500  1
  C  C3098  1  0.755700  0.348100  0.544500  1
  C  C3099  1  0.255700  0.151900  0.955500  1
  C  C3100  1  0.255700  0.848100  0.544500  1
  C  C3101  1  0.244300  0.348100  0.044500  1
  C  C3102  1  0.244300  0.651900  0.455500  1
  C  C3103  1  0.744300  0.848100  0.044500  1
  C  C3104  1  0.744300  0.151900  0.455500  1
  C  C3105  1  0.754800  0.647800  0.975800  1
  C  C3106  1  0.754800  0.352200  0.524200  1
  C  C3107  1  0.254800  0.147800  0.975800  1
  C  C3108  1  0.254800  0.852200  0.524200  1
  C  C3109  1  0.245200  0.352200  0.024200  1
  C  C3110  1  0.245200  0.647800  0.475800  1
  C  C3111  1  0.745200  0.852200  0.024200  1
  C  C3112  1  0.745200  0.147800  0.475800  1
  C  C3113  1  0.834600  0.619900  0.006300  1
  C  C3114  1  0.834600  0.380100  0.493700  1
  C  C3115  1  0.334600  0.119900  0.006300  1
  C  C3116  1  0.334600  0.880100  0.493700  1
  C  C3117  1  0.165400  0.380100  0.993700  1
  C  C3118  1  0.165400  0.619900  0.506300  1
  C  C3119  1  0.665400  0.880100  0.993700  1
  C  C3120  1  0.665400  0.119900  0.506300  1
  C  C3121  1  0.821700  0.615600  0.027300  1
  C  C3122  1  0.821700  0.384400  0.472700  1
  C  C3123  1  0.321700  0.115600  0.027300  1
  C  C3124  1  0.321700  0.884400  0.472700  1
  C  C3125  1  0.178300  0.384400  0.972700  1
  C  C3126  1  0.178300  0.615600  0.527300  1
  C  C3127  1  0.678300  0.884400  0.972700  1
  C  C3128  1  0.678300  0.115600  0.527300  1
  C  C3129  1  0.877400  0.616600  0.043700  1
  C  C3130  1  0.877400  0.383400  0.456300  1
  C  C3131  1  0.377400  0.116600  0.043700  1
  C  C3132  1  0.377400  0.883400  0.456300  1
  C  C3133  1  0.122600  0.383400  0.956300  1
  C  C3134  1  0.122600  0.616600  0.543700  1
  C  C3135  1  0.622600  0.883400  0.956300  1
  C  C3136  1  0.622600  0.116600  0.543700  1
  C  C3137  1  0.855200  0.614100  0.063600  1
  C  C3138  1  0.855200  0.385900  0.436400  1
  C  C3139  1  0.355200  0.114100  0.063600  1
  C  C3140  1  0.355200  0.885900  0.436400  1
  C  C3141  1  0.144800  0.385900  0.936400  1
  C  C3142  1  0.144800  0.614100  0.563600  1
  C  C3143  1  0.644800  0.885900  0.936400  1
  C  C3144  1  0.644800  0.114100  0.563600  1
  C  C3145  1  0.777000  0.610700  0.067400  1
  C  C3146  1  0.777000  0.389300  0.432600  1
  C  C3147  1  0.277000  0.110700  0.067400  1
  C  C3148  1  0.277000  0.889300  0.432600  1
  C  C3149  1  0.223000  0.389300  0.932600  1
  C  C3150  1  0.223000  0.610700  0.567400  1
  C  C3151  1  0.723000  0.889300  0.932600  1
  C  C3152  1  0.723000  0.110700  0.567400  1
  C  C3153  1  0.722000  0.609600  0.049400  1
  C  C3154  1  0.722000  0.390400  0.450600  1
  C  C3155  1  0.222000  0.109600  0.049400  1
  C  C3156  1  0.222000  0.890400  0.450600  1
  C  C3157  1  0.278000  0.390400  0.950600  1
  C  C3158  1  0.278000  0.609600  0.549400  1
  C  C3159  1  0.778000  0.890400  0.950600  1
  C  C3160  1  0.778000  0.109600  0.549400  1
  C  C3161  1  0.793300  0.623400  0.111000  1
  C  C3162  1  0.793300  0.376600  0.389000  1
  C  C3163  1  0.293300  0.123400  0.111000  1
  C  C3164  1  0.293300  0.876600  0.389000  1
  C  C3165  1  0.206700  0.376600  0.889000  1
  C  C3166  1  0.206700  0.623400  0.611000  1
  C  C3167  1  0.706700  0.876600  0.889000  1
  C  C3168  1  0.706700  0.123400  0.611000  1
  C  C3169  1  0.747200  0.612200  0.090400  1
  C  C3170  1  0.747200  0.387800  0.409600  1
  C  C3171  1  0.247200  0.112200  0.090400  1
  C  C3172  1  0.247200  0.887800  0.409600  1
  C  C3173  1  0.252800  0.387800  0.909600  1
  C  C3174  1  0.252800  0.612200  0.590400  1
  C  C3175  1  0.752800  0.887800  0.909600  1
  C  C3176  1  0.752800  0.112200  0.590400  1
  C  C3177  1  0.672300  0.604500  0.093000  1
  C  C3178  1  0.672300  0.395500  0.407000  1
  C  C3179  1  0.172300  0.104500  0.093000  1
  C  C3180  1  0.172300  0.895500  0.407000  1
  C  C3181  1  0.327700  0.395500  0.907000  1
  C  C3182  1  0.327700  0.604500  0.593000  1
  C  C3183  1  0.827700  0.895500  0.907000  1
  C  C3184  1  0.827700  0.104500  0.593000  1
  C  C3185  1  0.644300  0.609300  0.115500  1
  C  C3186  1  0.644300  0.390700  0.384500  1
  C  C3187  1  0.144300  0.109300  0.115500  1
  C  C3188  1  0.144300  0.890700  0.384500  1
  C  C3189  1  0.355700  0.390700  0.884500  1
  C  C3190  1  0.355700  0.609300  0.615500  1
  C  C3191  1  0.855700  0.890700  0.884500  1
  C  C3192  1  0.855700  0.109300  0.615500  1
  C  C3193  1  0.691900  0.621700  0.135000  1
  C  C3194  1  0.691900  0.378300  0.365000  1
  C  C3195  1  0.191900  0.121700  0.135000  1
  C  C3196  1  0.191900  0.878300  0.365000  1
  C  C3197  1  0.308100  0.378300  0.865000  1
  C  C3198  1  0.308100  0.621700  0.635000  1
  C  C3199  1  0.808100  0.878300  0.865000  1
  C  C3200  1  0.808100  0.121700  0.635000  1
  C  C3201  1  0.665200  0.631700  0.159600  1
  C  C3202  1  0.665200  0.368300  0.340400  1
  C  C3203  1  0.165200  0.131700  0.159600  1
  C  C3204  1  0.165200  0.868300  0.340400  1
  C  C3205  1  0.334800  0.368300  0.840400  1
  C  C3206  1  0.334800  0.631700  0.659600  1
  C  C3207  1  0.834800  0.868300  0.840400  1
  C  C3208  1  0.834800  0.131700  0.659600  1
  C  C3209  1  0.692600  0.656300  0.199880  1
  C  C3210  1  0.692600  0.343700  0.300120  1
  C  C3211  1  0.192600  0.156300  0.199880  1
  C  C3212  1  0.192600  0.843700  0.300120  1
  C  C3213  1  0.307400  0.343700  0.800120  1
  C  C3214  1  0.307400  0.656300  0.699880  1
  C  C3215  1  0.807400  0.843700  0.800120  1
  C  C3216  1  0.807400  0.156300  0.699880  1
  C  C3217  1  0.669600  0.641600  0.211000  1
  C  C3218  1  0.669600  0.358400  0.289000  1
  C  C3219  1  0.169600  0.141600  0.211000  1
  C  C3220  1  0.169600  0.858400  0.289000  1
  C  C3221  1  0.330400  0.358400  0.789000  1
  C  C3222  1  0.330400  0.641600  0.711000  1
  C  C3223  1  0.830400  0.858400  0.789000  1
  C  C3224  1  0.830400  0.141600  0.711000  1
  C  C3225  1  0.650500  0.652800  0.235100  1
  C  C3226  1  0.650500  0.347200  0.264900  1
  C  C3227  1  0.150500  0.152800  0.235100  1
  C  C3228  1  0.150500  0.847200  0.264900  1
  C  C3229  1  0.349500  0.347200  0.764900  1
  C  C3230  1  0.349500  0.652800  0.735100  1
  C  C3231  1  0.849500  0.847200  0.764900  1
  C  C3232  1  0.849500  0.152800  0.735100  1
  C  C3233  1  0.654300  0.678800  0.248100  1
  C  C3234  1  0.654300  0.321200  0.251900  1
  C  C3235  1  0.154300  0.178800  0.248100  1
  C  C3236  1  0.154300  0.821200  0.251900  1
  C  C3237  1  0.345700  0.321200  0.751900  1
  C  C3238  1  0.345700  0.678800  0.748100  1
  C  C3239  1  0.845700  0.821200  0.751900  1
  C  C3240  1  0.845700  0.178800  0.748100  1
  C  C3241  1  0.677300  0.693400  0.237000  1
  C  C3242  1  0.677300  0.306600  0.263000  1
  C  C3243  1  0.177300  0.193400  0.237000  1
  C  C3244  1  0.177300  0.806600  0.263000  1
  C  C3245  1  0.322700  0.306600  0.763000  1
  C  C3246  1  0.322700  0.693400  0.737000  1
  C  C3247  1  0.822700  0.806600  0.763000  1
  C  C3248  1  0.822700  0.193400  0.737000  1
  C  C3249  1  0.696500  0.682200  0.212900  1
  C  C3250  1  0.696500  0.317800  0.287100  1
  C  C3251  1  0.196500  0.182200  0.212900  1
  C  C3252  1  0.196500  0.817800  0.287100  1
  C  C3253  1  0.303500  0.317800  0.787100  1
  C  C3254  1  0.303500  0.682200  0.712900  1
  C  C3255  1  0.803500  0.817800  0.787100  1
  C  C3256  1  0.803500  0.182200  0.712900  1
  C  C3257  1  0.787900  0.805500  0.144800  1
  C  C3258  1  0.787900  0.194500  0.355200  1
  C  C3259  1  0.287900  0.305500  0.144800  1
  C  C3260  1  0.287900  0.694500  0.355200  1
  C  C3261  1  0.212100  0.194500  0.855200  1
  C  C3262  1  0.212100  0.805500  0.644800  1
  C  C3263  1  0.712100  0.694500  0.855200  1
  C  C3264  1  0.712100  0.305500  0.644800  1
  C  C3265  1  0.818400  0.804900  0.165200  1
  C  C3266  1  0.818400  0.195100  0.334800  1
  C  C3267  1  0.318400  0.304900  0.165200  1
  C  C3268  1  0.318400  0.695100  0.334800  1
  C  C3269  1  0.181600  0.195100  0.834800  1
  C  C3270  1  0.181600  0.804900  0.665200  1
  C  C3271  1  0.681600  0.695100  0.834800  1
  C  C3272  1  0.681600  0.304900  0.665200  1
  C  C3273  1  0.847800  0.826700  0.183600  1
  C  C3274  1  0.847800  0.173300  0.316400  1
  C  C3275  1  0.347800  0.326700  0.183600  1
  C  C3276  1  0.347800  0.673300  0.316400  1
  C  C3277  1  0.152200  0.173300  0.816400  1
  C  C3278  1  0.152200  0.826700  0.683600  1
  C  C3279  1  0.652200  0.673300  0.816400  1
  C  C3280  1  0.652200  0.326700  0.683600  1
  C  C3281  1  0.846700  0.849000  0.181600  1
  C  C3282  1  0.846700  0.151000  0.318400  1
  C  C3283  1  0.346700  0.349000  0.181600  1
  C  C3284  1  0.346700  0.651000  0.318400  1
  C  C3285  1  0.153300  0.151000  0.818400  1
  C  C3286  1  0.153300  0.849000  0.681600  1
  C  C3287  1  0.653300  0.651000  0.818400  1
  C  C3288  1  0.653300  0.349000  0.681600  1
  C  C3289  1  0.816200  0.849600  0.161200  1
  C  C3290  1  0.816200  0.150400  0.338800  1
  C  C3291  1  0.316200  0.349600  0.161200  1
  C  C3292  1  0.316200  0.650400  0.338800  1
  C  C3293  1  0.183800  0.150400  0.838800  1
  C  C3294  1  0.183800  0.849600  0.661200  1
  C  C3295  1  0.683800  0.650400  0.838800  1
  C  C3296  1  0.683800  0.349600  0.661200  1
  C  C3297  1  0.786700  0.827800  0.142800  1
  C  C3298  1  0.786700  0.172200  0.357200  1
  C  C3299  1  0.286700  0.327800  0.142800  1
  C  C3300  1  0.286700  0.672200  0.357200  1
  C  C3301  1  0.213300  0.172200  0.857200  1
  C  C3302  1  0.213300  0.827800  0.642800  1
  C  C3303  1  0.713300  0.672200  0.857200  1
  C  C3304  1  0.713300  0.327800  0.642800  1
  C  C3305  1  0.784900  0.772200  0.106600  1
  C  C3306  1  0.784900  0.227800  0.393400  1
  C  C3307  1  0.284900  0.272200  0.106600  1
  C  C3308  1  0.284900  0.727800  0.393400  1
  C  C3309  1  0.215100  0.227800  0.893400  1
  C  C3310  1  0.215100  0.772200  0.606600  1
  C  C3311  1  0.715100  0.727800  0.893400  1
  C  C3312  1  0.715100  0.272200  0.606600  1
  C  C3313  1  0.742900  0.750600  0.088700  1
  C  C3314  1  0.742900  0.249400  0.411300  1
  C  C3315  1  0.242900  0.250600  0.088700  1
  C  C3316  1  0.242900  0.749400  0.411300  1
  C  C3317  1  0.257100  0.249400  0.911300  1
  C  C3318  1  0.257100  0.750600  0.588700  1
  C  C3319  1  0.757100  0.749400  0.911300  1
  C  C3320  1  0.757100  0.250600  0.588700  1
  C  C3321  1  0.775800  0.733400  0.067800  1
  C  C3322  1  0.775800  0.266600  0.432200  1
  C  C3323  1  0.275800  0.233400  0.067800  1
  C  C3324  1  0.275800  0.766600  0.432200  1
  C  C3325  1  0.224200  0.266600  0.932200  1
  C  C3326  1  0.224200  0.733400  0.567800  1
  C  C3327  1  0.724200  0.766600  0.932200  1
  C  C3328  1  0.724200  0.233400  0.567800  1
  C  C3329  1  0.734500  0.712300  0.053800  1
  C  C3330  1  0.734500  0.287700  0.446200  1
  C  C3331  1  0.234500  0.212300  0.053800  1
  C  C3332  1  0.234500  0.787700  0.446200  1
  C  C3333  1  0.265500  0.287700  0.946200  1
  C  C3334  1  0.265500  0.712300  0.553800  1
  C  C3335  1  0.765500  0.787700  0.946200  1
  C  C3336  1  0.765500  0.212300  0.553800  1
  C  C3337  1  0.662600  0.707800  0.061400  1
  C  C3338  1  0.662600  0.292200  0.438600  1
  C  C3339  1  0.162600  0.207800  0.061400  1
  C  C3340  1  0.162600  0.792200  0.438600  1
  C  C3341  1  0.337400  0.292200  0.938600  1
  C  C3342  1  0.337400  0.707800  0.561400  1
  C  C3343  1  0.837400  0.792200  0.938600  1
  C  C3344  1  0.837400  0.207800  0.561400  1
  C  C3345  1  0.630800  0.726800  0.083400  1
  C  C3346  1  0.630800  0.273200  0.416600  1
  C  C3347  1  0.130800  0.226800  0.083400  1
  C  C3348  1  0.130800  0.773200  0.416600  1
  C  C3349  1  0.369200  0.273200  0.916600  1
  C  C3350  1  0.369200  0.726800  0.583400  1
  C  C3351  1  0.869200  0.773200  0.916600  1
  C  C3352  1  0.869200  0.226800  0.583400  1
  C  C3353  1  0.660000  0.662100  0.034200  1
  C  C3354  1  0.660000  0.337900  0.465800  1
  C  C3355  1  0.160000  0.162100  0.034200  1
  C  C3356  1  0.160000  0.837900  0.465800  1
  C  C3357  1  0.340000  0.337900  0.965800  1
  C  C3358  1  0.340000  0.662100  0.534200  1
  C  C3359  1  0.840000  0.837900  0.965800  1
  C  C3360  1  0.840000  0.162100  0.534200  1
  C  C3361  1  0.619400  0.683900  0.049300  1
  C  C3362  1  0.619400  0.316100  0.450700  1
  C  C3363  1  0.119400  0.183900  0.049300  1
  C  C3364  1  0.119400  0.816100  0.450700  1
  C  C3365  1  0.380600  0.316100  0.950700  1
  C  C3366  1  0.380600  0.683900  0.549300  1
  C  C3367  1  0.880600  0.816100  0.950700  1
  C  C3368  1  0.880600  0.183900  0.549300  1
  C  C3369  1  0.539100  0.681900  0.052300  1
  C  C3370  1  0.539100  0.318100  0.447700  1
  C  C3371  1  0.039100  0.181900  0.052300  1
  C  C3372  1  0.039100  0.818100  0.447700  1
  C  C3373  1  0.460900  0.318100  0.947700  1
  C  C3374  1  0.460900  0.681900  0.552300  1
  C  C3375  1  0.960900  0.818100  0.947700  1
  C  C3376  1  0.960900  0.181900  0.552300  1
  C  C3377  1  0.502600  0.658400  0.043400  1
  C  C3378  1  0.502600  0.341600  0.456600  1
  C  C3379  1  0.002600  0.158400  0.043400  1
  C  C3380  1  0.002600  0.841600  0.456600  1
  C  C3381  1  0.497400  0.341600  0.956600  1
  C  C3382  1  0.497400  0.658400  0.543400  1
  C  C3383  1  0.997400  0.841600  0.956600  1
  C  C3384  1  0.997400  0.158400  0.543400  1
  C  C3385  1  0.547800  0.637700  0.029700  1
  C  C3386  1  0.547800  0.362300  0.470300  1
  C  C3387  1  0.047800  0.137700  0.029700  1
  C  C3388  1  0.047800  0.862300  0.470300  1
  C  C3389  1  0.452200  0.362300  0.970300  1
  C  C3390  1  0.452200  0.637700  0.529700  1
  C  C3391  1  0.952200  0.862300  0.970300  1
  C  C3392  1  0.952200  0.137700  0.529700  1
  C  C3393  1  0.523100  0.611900  0.021900  1
  C  C3394  1  0.523100  0.388100  0.478100  1
  C  C3395  1  0.023100  0.111900  0.021900  1
  C  C3396  1  0.023100  0.888100  0.478100  1
  C  C3397  1  0.476900  0.388100  0.978100  1
  C  C3398  1  0.476900  0.611900  0.521900  1
  C  C3399  1  0.976900  0.888100  0.978100  1
  C  C3400  1  0.976900  0.111900  0.521900  1
  C  C3401  1  0.552200  0.569700  0.002300  1
  C  C3402  1  0.552200  0.430300  0.497700  1
  C  C3403  1  0.052200  0.069700  0.002300  1
  C  C3404  1  0.052200  0.930300  0.497700  1
  C  C3405  1  0.447800  0.430300  0.997700  1
  C  C3406  1  0.447800  0.569700  0.502300  1
  C  C3407  1  0.947800  0.930300  0.997700  1
  C  C3408  1  0.947800  0.069700  0.502300  1
  C  C3409  1  0.588100  0.554200  0.010500  1
  C  C3410  1  0.588100  0.445800  0.489500  1
  C  C3411  1  0.088100  0.054200  0.010500  1
  C  C3412  1  0.088100  0.945800  0.489500  1
  C  C3413  1  0.411900  0.445800  0.989500  1
  C  C3414  1  0.411900  0.554200  0.510500  1
  C  C3415  1  0.911900  0.945800  0.989500  1
  C  C3416  1  0.911900  0.054200  0.510500  1
  C  C3417  1  0.579300  0.528500  0.999500  1
  C  C3418  1  0.579300  0.471500  0.500500  1
  C  C3419  1  0.079300  0.028500  0.999500  1
  C  C3420  1  0.079300  0.971500  0.500500  1
  C  C3421  1  0.420700  0.471500  0.000500  1
  C  C3422  1  0.420700  0.528500  0.499500  1
  C  C3423  1  0.920700  0.971500  0.000500  1
  C  C3424  1  0.920700  0.028500  0.499500  1
  C  C3425  1  0.532900  0.518000  0.978900  1
  C  C3426  1  0.532900  0.482000  0.521100  1
  C  C3427  1  0.032900  0.018000  0.978900  1
  C  C3428  1  0.032900  0.982000  0.521100  1
  C  C3429  1  0.467100  0.482000  0.021100  1
  C  C3430  1  0.467100  0.518000  0.478900  1
  C  C3431  1  0.967100  0.982000  0.021100  1
  C  C3432  1  0.967100  0.018000  0.478900  1
  C  C3433  1  0.495400  0.533500  0.971000  1
  C  C3434  1  0.495400  0.466500  0.529000  1
  C  C3435  1  0.995400  0.033500  0.971000  1
  C  C3436  1  0.995400  0.966500  0.529000  1
  C  C3437  1  0.504600  0.466500  0.029000  1
  C  C3438  1  0.504600  0.533500  0.471000  1
  C  C3439  1  0.004600  0.966500  0.029000  1
  C  C3440  1  0.004600  0.033500  0.471000  1
  C  C3441  1  0.504300  0.559300  0.982200  1
  C  C3442  1  0.504300  0.440700  0.517800  1
  C  C3443  1  0.004300  0.059300  0.982200  1
  C  C3444  1  0.004300  0.940700  0.517800  1
  C  C3445  1  0.495700  0.440700  0.017800  1
  C  C3446  1  0.495700  0.559300  0.482200  1
  C  C3447  1  0.995700  0.940700  0.017800  1
  C  C3448  1  0.995700  0.059300  0.482200  1
  C  C3449  1  0.986100  0.621200  0.147700  1
  C  C3450  1  0.986100  0.378800  0.352300  1
  C  C3451  1  0.486100  0.121200  0.147700  1
  C  C3452  1  0.486100  0.878800  0.352300  1
  C  C3453  1  0.013900  0.378800  0.852300  1
  C  C3454  1  0.013900  0.621200  0.647700  1
  C  C3455  1  0.513900  0.878800  0.852300  1
  C  C3456  1  0.513900  0.121200  0.647700  1
  C  C3457  1  0.032800  0.621000  0.165800  1
  C  C3458  1  0.032800  0.379000  0.334200  1
  C  C3459  1  0.532800  0.121000  0.165800  1
  C  C3460  1  0.532800  0.879000  0.334200  1
  C  C3461  1  0.967200  0.379000  0.834200  1
  C  C3462  1  0.967200  0.621000  0.665800  1
  C  C3463  1  0.467200  0.879000  0.834200  1
  C  C3464  1  0.467200  0.121000  0.665800  1
  C  C3465  1  0.075200  0.599800  0.162400  1
  C  C3466  1  0.075200  0.400200  0.337600  1
  C  C3467  1  0.575200  0.099800  0.162400  1
  C  C3468  1  0.575200  0.900200  0.337600  1
  C  C3469  1  0.924800  0.400200  0.837600  1
  C  C3470  1  0.924800  0.599800  0.662400  1
  C  C3471  1  0.424800  0.900200  0.837600  1
  C  C3472  1  0.424800  0.099800  0.662400  1
  C  C3473  1  0.071300  0.578400  0.141200  1
  C  C3474  1  0.071300  0.421600  0.358800  1
  C  C3475  1  0.571300  0.078400  0.141200  1
  C  C3476  1  0.571300  0.921600  0.358800  1
  C  C3477  1  0.928700  0.421600  0.858800  1
  C  C3478  1  0.928700  0.578400  0.641200  1
  C  C3479  1  0.428700  0.921600  0.858800  1
  C  C3480  1  0.428700  0.078400  0.641200  1
  C  C3481  1  0.028100  0.578800  0.122600  1
  C  C3482  1  0.028100  0.421200  0.377400  1
  C  C3483  1  0.528100  0.078800  0.122600  1
  C  C3484  1  0.528100  0.921200  0.377400  1
  C  C3485  1  0.971900  0.421200  0.877400  1
  C  C3486  1  0.971900  0.578800  0.622600  1
  C  C3487  1  0.471900  0.921200  0.877400  1
  C  C3488  1  0.471900  0.078800  0.622600  1
  C  C3489  1  0.983500  0.599500  0.126500  1
  C  C3490  1  0.983500  0.400500  0.373500  1
  C  C3491  1  0.483500  0.099500  0.126500  1
  C  C3492  1  0.483500  0.900500  0.373500  1
  C  C3493  1  0.016500  0.400500  0.873500  1
  C  C3494  1  0.016500  0.599500  0.626500  1
  C  C3495  1  0.516500  0.900500  0.873500  1
  C  C3496  1  0.516500  0.099500  0.626500  1
  C  C3497  1  0.962400  0.661600  0.150600  1
  C  C3498  1  0.962400  0.338400  0.349400  1
  C  C3499  1  0.462400  0.161600  0.150600  1
  C  C3500  1  0.462400  0.838400  0.349400  1
  C  C3501  1  0.037600  0.338400  0.849400  1
  C  C3502  1  0.037600  0.661600  0.650600  1
  C  C3503  1  0.537600  0.838400  0.849400  1
  C  C3504  1  0.537600  0.161600  0.650600  1
  C  C3505  1  0.903400  0.681100  0.154800  1
  C  C3506  1  0.903400  0.318900  0.345200  1
  C  C3507  1  0.403400  0.181100  0.154800  1
  C  C3508  1  0.403400  0.818900  0.345200  1
  C  C3509  1  0.096600  0.318900  0.845200  1
  C  C3510  1  0.096600  0.681100  0.654800  1
  C  C3511  1  0.596600  0.818900  0.845200  1
  C  C3512  1  0.596600  0.181100  0.654800  1
  C  C3513  1  0.917400  0.702800  0.152700  1
  C  C3514  1  0.917400  0.297200  0.347300  1
  C  C3515  1  0.417400  0.202800  0.152700  1
  C  C3516  1  0.417400  0.797200  0.347300  1
  C  C3517  1  0.082600  0.297200  0.847300  1
  C  C3518  1  0.082600  0.702800  0.652700  1
  C  C3519  1  0.582600  0.797200  0.847300  1
  C  C3520  1  0.582600  0.202800  0.652700  1
  C  C3521  1  0.856700  0.719000  0.154900  1
  C  C3522  1  0.856700  0.281000  0.345100  1
  C  C3523  1  0.356700  0.219000  0.154900  1
  C  C3524  1  0.356700  0.781000  0.345100  1
  C  C3525  1  0.143300  0.281000  0.845100  1
  C  C3526  1  0.143300  0.719000  0.654900  1
  C  C3527  1  0.643300  0.781000  0.845100  1
  C  C3528  1  0.643300  0.219000  0.654900  1
  C  C3529  1  0.781100  0.712700  0.158900  1
  C  C3530  1  0.781100  0.287300  0.341100  1
  C  C3531  1  0.281100  0.212700  0.158900  1
  C  C3532  1  0.281100  0.787300  0.341100  1
  C  C3533  1  0.218900  0.287300  0.841100  1
  C  C3534  1  0.218900  0.712700  0.658900  1
  C  C3535  1  0.718900  0.787300  0.841100  1
  C  C3536  1  0.718900  0.212700  0.658900  1
  C  C3537  1  0.769900  0.690200  0.161800  1
  C  C3538  1  0.769900  0.309800  0.338200  1
  C  C3539  1  0.269900  0.190200  0.161800  1
  C  C3540  1  0.269900  0.809800  0.338200  1
  C  C3541  1  0.230100  0.309800  0.838200  1
  C  C3542  1  0.230100  0.690200  0.661800  1
  C  C3543  1  0.730100  0.809800  0.838200  1
  C  C3544  1  0.730100  0.190200  0.661800  1
  C  C3545  1  0.711400  0.741300  0.145800  1
  C  C3546  1  0.711400  0.258700  0.354200  1
  C  C3547  1  0.211400  0.241300  0.145800  1
  C  C3548  1  0.211400  0.758700  0.354200  1
  C  C3549  1  0.288600  0.258700  0.854200  1
  C  C3550  1  0.288600  0.741300  0.645800  1
  C  C3551  1  0.788600  0.758700  0.854200  1
  C  C3552  1  0.788600  0.241300  0.645800  1
  C  C3553  1  0.709200  0.726500  0.158000  1
  C  C3554  1  0.709200  0.273500  0.342000  1
  C  C3555  1  0.209200  0.226500  0.158000  1
  C  C3556  1  0.209200  0.773500  0.342000  1
  C  C3557  1  0.290800  0.273500  0.842000  1
  C  C3558  1  0.290800  0.726500  0.658000  1
  C  C3559  1  0.790800  0.773500  0.842000  1
  C  C3560  1  0.790800  0.226500  0.658000  1
  C  C3561  1  0.639000  0.724900  0.168600  1
  C  C3562  1  0.639000  0.275100  0.331400  1
  C  C3563  1  0.139000  0.224900  0.168600  1
  C  C3564  1  0.139000  0.775100  0.331400  1
  C  C3565  1  0.361000  0.275100  0.831400  1
  C  C3566  1  0.361000  0.724900  0.668600  1
  C  C3567  1  0.861000  0.775100  0.831400  1
  C  C3568  1  0.861000  0.224900  0.668600  1
  C  C3569  1  0.571600  0.735800  0.164500  1
  C  C3570  1  0.571600  0.264200  0.335500  1
  C  C3571  1  0.071600  0.235800  0.164500  1
  C  C3572  1  0.071600  0.764200  0.335500  1
  C  C3573  1  0.428400  0.264200  0.835500  1
  C  C3574  1  0.428400  0.735800  0.664500  1
  C  C3575  1  0.928400  0.764200  0.835500  1
  C  C3576  1  0.928400  0.235800  0.664500  1
  C  C3577  1  0.576400  0.748700  0.150800  1
  C  C3578  1  0.576400  0.251300  0.349200  1
  C  C3579  1  0.076400  0.248700  0.150800  1
  C  C3580  1  0.076400  0.751300  0.349200  1
  C  C3581  1  0.423600  0.251300  0.849200  1
  C  C3582  1  0.423600  0.748700  0.650800  1
  C  C3583  1  0.923600  0.751300  0.849200  1
  C  C3584  1  0.923600  0.248700  0.650800  1
  C  C3585  1  0.508500  0.757000  0.142200  1
  C  C3586  1  0.508500  0.243000  0.357800  1
  C  C3587  1  0.008500  0.257000  0.142200  1
  C  C3588  1  0.008500  0.743000  0.357800  1
  C  C3589  1  0.491500  0.243000  0.857800  1
  C  C3590  1  0.491500  0.757000  0.642200  1
  C  C3591  1  0.991500  0.743000  0.857800  1
  C  C3592  1  0.991500  0.257000  0.642200  1
  C  C3593  1  0.456600  0.774000  0.118300  1
  C  C3594  1  0.456600  0.226000  0.381700  1
  C  C3595  1  0.956600  0.274000  0.118300  1
  C  C3596  1  0.956600  0.726000  0.381700  1
  C  C3597  1  0.543400  0.226000  0.881700  1
  C  C3598  1  0.543400  0.774000  0.618300  1
  C  C3599  1  0.043400  0.726000  0.881700  1
  C  C3600  1  0.043400  0.274000  0.618300  1
  C  C3601  1  0.398700  0.789600  0.133390  1
  C  C3602  1  0.398700  0.210400  0.366610  1
  C  C3603  1  0.898700  0.289600  0.133390  1
  C  C3604  1  0.898700  0.710400  0.366610  1
  C  C3605  1  0.601300  0.210400  0.866610  1
  C  C3606  1  0.601300  0.789600  0.633390  1
  C  C3607  1  0.101300  0.710400  0.866610  1
  C  C3608  1  0.101300  0.289600  0.633390  1
  C  C3609  1  0.332500  0.795800  0.123900  1
  C  C3610  1  0.332500  0.204200  0.376100  1
  C  C3611  1  0.832500  0.295800  0.123900  1
  C  C3612  1  0.832500  0.704200  0.376100  1
  C  C3613  1  0.667500  0.204200  0.876100  1
  C  C3614  1  0.667500  0.795800  0.623900  1
  C  C3615  1  0.167500  0.704200  0.876100  1
  C  C3616  1  0.167500  0.295800  0.623900  1
  C  C3617  1  0.324300  0.786400  0.099300  1
  C  C3618  1  0.324300  0.213600  0.400700  1
  C  C3619  1  0.824300  0.286400  0.099300  1
  C  C3620  1  0.824300  0.713600  0.400700  1
  C  C3621  1  0.675700  0.213600  0.900700  1
  C  C3622  1  0.675700  0.786400  0.599300  1
  C  C3623  1  0.175700  0.713600  0.900700  1
  C  C3624  1  0.175700  0.286400  0.599300  1
  C  C3625  1  0.382200  0.770900  0.084210  1
  C  C3626  1  0.382200  0.229100  0.415790  1
  C  C3627  1  0.882200  0.270900  0.084210  1
  C  C3628  1  0.882200  0.729100  0.415790  1
  C  C3629  1  0.617800  0.229100  0.915790  1
  C  C3630  1  0.617800  0.770900  0.584210  1
  C  C3631  1  0.117800  0.729100  0.915790  1
  C  C3632  1  0.117800  0.270900  0.584210  1
  C  C3633  1  0.448400  0.764700  0.093700  1
  C  C3634  1  0.448400  0.235300  0.406300  1
  C  C3635  1  0.948400  0.264700  0.093700  1
  C  C3636  1  0.948400  0.735300  0.406300  1
  C  C3637  1  0.551600  0.235300  0.906300  1
  C  C3638  1  0.551600  0.764700  0.593700  1
  C  C3639  1  0.051600  0.735300  0.906300  1
  C  C3640  1  0.051600  0.264700  0.593700  1
  C  C3641  1  0.723000  0.378000  0.957400  1
  C  C3642  1  0.723000  0.622000  0.542600  1
  C  C3643  1  0.223000  0.878000  0.957400  1
  C  C3644  1  0.223000  0.122000  0.542600  1
  C  C3645  1  0.277000  0.622000  0.042600  1
  C  C3646  1  0.277000  0.378000  0.457400  1
  C  C3647  1  0.777000  0.122000  0.042600  1
  C  C3648  1  0.777000  0.878000  0.457400  1
  C  C3649  1  0.700000  0.358400  0.933600  1
  C  C3650  1  0.700000  0.641600  0.566400  1
  C  C3651  1  0.200000  0.858400  0.933600  1
  C  C3652  1  0.200000  0.141600  0.566400  1
  C  C3653  1  0.300000  0.641600  0.066400  1
  C  C3654  1  0.300000  0.358400  0.433600  1
  C  C3655  1  0.800000  0.141600  0.066400  1
  C  C3656  1  0.800000  0.858400  0.433600  1
  C  C3657  1  0.793000  0.354300  0.896100  1
  C  C3658  1  0.793000  0.645700  0.603900  1
  C  C3659  1  0.293000  0.854300  0.896100  1
  C  C3660  1  0.293000  0.145700  0.603900  1
  C  C3661  1  0.207000  0.645700  0.103900  1
  C  C3662  1  0.207000  0.354300  0.396100  1
  C  C3663  1  0.707000  0.145700  0.103900  1
  C  C3664  1  0.707000  0.854300  0.396100  1
  C  C3665  1  0.818000  0.364500  0.879600  1
  C  C3666  1  0.818000  0.635500  0.620400  1
  C  C3667  1  0.318000  0.864500  0.879600  1
  C  C3668  1  0.318000  0.135500  0.620400  1
  C  C3669  1  0.182000  0.635500  0.120400  1
  C  C3670  1  0.182000  0.364500  0.379600  1
  C  C3671  1  0.682000  0.135500  0.120400  1
  C  C3672  1  0.682000  0.864500  0.379600  1
  C  C3673  1  0.768000  0.392600  0.865000  1
  C  C3674  1  0.768000  0.607400  0.635000  1
  C  C3675  1  0.268000  0.892600  0.865000  1
  C  C3676  1  0.268000  0.107400  0.635000  1
  C  C3677  1  0.232000  0.607400  0.135000  1
  C  C3678  1  0.232000  0.392600  0.365000  1
  C  C3679  1  0.732000  0.107400  0.135000  1
  C  C3680  1  0.732000  0.892600  0.365000  1
  C  C3681  1  0.696000  0.401500  0.857400  1
  C  C3682  1  0.696000  0.598500  0.642600  1
  C  C3683  1  0.196000  0.901500  0.857400  1
  C  C3684  1  0.196000  0.098500  0.642600  1
  C  C3685  1  0.304000  0.598500  0.142600  1
  C  C3686  1  0.304000  0.401500  0.357400  1
  C  C3687  1  0.804000  0.098500  0.142600  1
  C  C3688  1  0.804000  0.901500  0.357400  1
  C  C3689  1  0.693000  0.451900  0.898400  1
  C  C3690  1  0.693000  0.548100  0.601600  1
  C  C3691  1  0.193000  0.951900  0.898400  1
  C  C3692  1  0.193000  0.048100  0.601600  1
  C  C3693  1  0.307000  0.548100  0.101600  1
  C  C3694  1  0.307000  0.451900  0.398400  1
  C  C3695  1  0.807000  0.048100  0.101600  1
  C  C3696  1  0.807000  0.951900  0.398400  1
  C  C3697  1  0.615000  0.460400  0.912600  1
  C  C3698  1  0.615000  0.539600  0.587400  1
  C  C3699  1  0.115000  0.960400  0.912600  1
  C  C3700  1  0.115000  0.039600  0.587400  1
  C  C3701  1  0.385000  0.539600  0.087400  1
  C  C3702  1  0.385000  0.460400  0.412600  1
  C  C3703  1  0.885000  0.039600  0.087400  1
  C  C3704  1  0.885000  0.960400  0.412600  1
  C  C3705  1  0.511000  0.453700  0.934500  1
  C  C3706  1  0.511000  0.546300  0.565500  1
  C  C3707  1  0.011000  0.953700  0.934500  1
  C  C3708  1  0.011000  0.046300  0.565500  1
  C  C3709  1  0.489000  0.546300  0.065500  1
  C  C3710  1  0.489000  0.453700  0.434500  1
  C  C3711  1  0.989000  0.046300  0.065500  1
  C  C3712  1  0.989000  0.953700  0.434500  1
  C  C3713  1  0.486000  0.482100  0.945800  1
  C  C3714  1  0.486000  0.517900  0.554200  1
  C  C3715  1  0.986000  0.982100  0.945800  1
  C  C3716  1  0.986000  0.017900  0.554200  1
  C  C3717  1  0.514000  0.517900  0.054200  1
  C  C3718  1  0.514000  0.482100  0.445800  1
  C  C3719  1  0.014000  0.017900  0.054200  1
  C  C3720  1  0.014000  0.982100  0.445800  1
  C  C3721  1  0.907000  0.812100  0.377400  1
  C  C3722  1  0.907000  0.187900  0.122600  1
  C  C3723  1  0.407000  0.312100  0.377400  1
  C  C3724  1  0.407000  0.687900  0.122600  1
  C  C3725  1  0.093000  0.187900  0.622600  1
  C  C3726  1  0.093000  0.812100  0.877400  1
  C  C3727  1  0.593000  0.687900  0.622600  1
  C  C3728  1  0.593000  0.312100  0.877400  1
  C  C3729  1  0.937000  0.803700  0.395500  1
  C  C3730  1  0.937000  0.196300  0.104500  1
  C  C3731  1  0.437000  0.303700  0.395500  1
  C  C3732  1  0.437000  0.696300  0.104500  1
  C  C3733  1  0.063000  0.196300  0.604500  1
  C  C3734  1  0.063000  0.803700  0.895500  1
  C  C3735  1  0.563000  0.696300  0.604500  1
  C  C3736  1  0.563000  0.303700  0.895500  1
  C  C3737  1  0.814000  0.783000  0.398300  1
  C  C3738  1  0.814000  0.217000  0.101700  1
  C  C3739  1  0.314000  0.283000  0.398300  1
  C  C3740  1  0.314000  0.717000  0.101700  1
  C  C3741  1  0.186000  0.217000  0.601700  1
  C  C3742  1  0.186000  0.783000  0.898300  1
  C  C3743  1  0.686000  0.717000  0.601700  1
  C  C3744  1  0.686000  0.283000  0.898300  1
  C  C3745  1  0.772300  0.783400  0.419800  1
  C  C3746  1  0.772300  0.216600  0.080200  1
  C  C3747  1  0.272300  0.283400  0.419800  1
  C  C3748  1  0.272300  0.716600  0.080200  1
  C  C3749  1  0.227700  0.216600  0.580200  1
  C  C3750  1  0.227700  0.783400  0.919800  1
  C  C3751  1  0.727700  0.716600  0.580200  1
  C  C3752  1  0.727700  0.283400  0.919800  1
  C  C3753  1  0.631000  0.795000  0.423700  1
  C  C3754  1  0.631000  0.205000  0.076300  1
  C  C3755  1  0.131000  0.295000  0.423700  1
  C  C3756  1  0.131000  0.705000  0.076300  1
  C  C3757  1  0.369000  0.205000  0.576300  1
  C  C3758  1  0.369000  0.795000  0.923700  1
  C  C3759  1  0.869000  0.705000  0.576300  1
  C  C3760  1  0.869000  0.295000  0.923700  1
  C  C3761  1  0.596000  0.790800  0.400100  1
  C  C3762  1  0.596000  0.209200  0.099900  1
  C  C3763  1  0.096000  0.290800  0.400100  1
  C  C3764  1  0.096000  0.709200  0.099900  1
  C  C3765  1  0.404000  0.209200  0.599900  1
  C  C3766  1  0.404000  0.790800  0.900100  1
  C  C3767  1  0.904000  0.709200  0.599900  1
  C  C3768  1  0.904000  0.290800  0.900100  1
  C  C3769  1  0.631000  0.754900  0.361300  1
  C  C3770  1  0.631000  0.245100  0.138700  1
  C  C3771  1  0.131000  0.254900  0.361300  1
  C  C3772  1  0.131000  0.745100  0.138700  1
  C  C3773  1  0.369000  0.245100  0.638700  1
  C  C3774  1  0.369000  0.754900  0.861300  1
  C  C3775  1  0.869000  0.745100  0.638700  1
  C  C3776  1  0.869000  0.254900  0.861300  1
  C  C3777  1  0.604000  0.727900  0.347800  1
  C  C3778  1  0.604000  0.272100  0.152200  1
  C  C3779  1  0.104000  0.227900  0.347800  1
  C  C3780  1  0.104000  0.772100  0.152200  1
  C  C3781  1  0.396000  0.272100  0.652200  1
  C  C3782  1  0.396000  0.727900  0.847800  1
  C  C3783  1  0.896000  0.772100  0.652200  1
  C  C3784  1  0.896000  0.227900  0.847800  1
  C  C3785  1  0.560000  0.700600  0.309000  1
  C  C3786  1  0.560000  0.299400  0.191000  1
  C  C3787  1  0.060000  0.200600  0.309000  1
  C  C3788  1  0.060000  0.799400  0.191000  1
  C  C3789  1  0.440000  0.299400  0.691000  1
  C  C3790  1  0.440000  0.700600  0.809000  1
  C  C3791  1  0.940000  0.799400  0.691000  1
  C  C3792  1  0.940000  0.200600  0.809000  1
  C  C3793  1  0.581000  0.679800  0.284700  1
  C  C3794  1  0.581000  0.320200  0.215300  1
  C  C3795  1  0.081000  0.179800  0.284700  1
  C  C3796  1  0.081000  0.820200  0.215300  1
  C  C3797  1  0.419000  0.320200  0.715300  1
  C  C3798  1  0.419000  0.679800  0.784700  1
  C  C3799  1  0.919000  0.820200  0.715300  1
  C  C3800  1  0.919000  0.179800  0.784700  1
  C  C3801  1  0.217000  0.828600  0.993600  1
  C  C3802  1  0.217000  0.171400  0.506400  1
  C  C3803  1  0.717000  0.328600  0.993600  1
  C  C3804  1  0.717000  0.671400  0.506400  1
  C  C3805  1  0.783000  0.171400  0.006400  1
  C  C3806  1  0.783000  0.828600  0.493600  1
  C  C3807  1  0.283000  0.671400  0.006400  1
  C  C3808  1  0.283000  0.328600  0.493600  1
  C  C3809  1  0.167800  0.851800  0.005000  1
  C  C3810  1  0.167800  0.148200  0.495000  1
  C  C3811  1  0.667800  0.351800  0.005000  1
  C  C3812  1  0.667800  0.648200  0.495000  1
  C  C3813  1  0.832200  0.148200  0.995000  1
  C  C3814  1  0.832200  0.851800  0.505000  1
  C  C3815  1  0.332200  0.648200  0.995000  1
  C  C3816  1  0.332200  0.351800  0.505000  1
  C  C3817  1  0.151000  0.895700  0.031600  1
  C  C3818  1  0.151000  0.104300  0.468400  1
  C  C3819  1  0.651000  0.395700  0.031600  1
  C  C3820  1  0.651000  0.604300  0.468400  1
  C  C3821  1  0.849000  0.104300  0.968400  1
  C  C3822  1  0.849000  0.895700  0.531600  1
  C  C3823  1  0.349000  0.604300  0.968400  1
  C  C3824  1  0.349000  0.395700  0.531600  1
  C  C3825  1  0.183000  0.911300  0.056300  1
  C  C3826  1  0.183000  0.088700  0.443700  1
  C  C3827  1  0.683000  0.411300  0.056300  1
  C  C3828  1  0.683000  0.588700  0.443700  1
  C  C3829  1  0.817000  0.088700  0.943700  1
  C  C3830  1  0.817000  0.911300  0.556300  1
  C  C3831  1  0.317000  0.588700  0.943700  1
  C  C3832  1  0.317000  0.411300  0.556300  1
  C  C3833  1  0.152000  0.938100  0.098900  1
  C  C3834  1  0.152000  0.061900  0.401100  1
  C  C3835  1  0.652000  0.438100  0.098900  1
  C  C3836  1  0.652000  0.561900  0.401100  1
  C  C3837  1  0.848000  0.061900  0.901100  1
  C  C3838  1  0.848000  0.938100  0.598900  1
  C  C3839  1  0.348000  0.561900  0.901100  1
  C  C3840  1  0.348000  0.438100  0.598900  1
  C  C3841  1  0.147000  0.921300  0.110600  1
  C  C3842  1  0.147000  0.078700  0.389400  1
  C  C3843  1  0.647000  0.421300  0.110600  1
  C  C3844  1  0.647000  0.578700  0.389400  1
  C  C3845  1  0.853000  0.078700  0.889400  1
  C  C3846  1  0.853000  0.921300  0.610600  1
  C  C3847  1  0.353000  0.578700  0.889400  1
  C  C3848  1  0.353000  0.421300  0.610600  1
  C  C3849  1  0.247000  0.887200  0.103700  1
  C  C3850  1  0.247000  0.112800  0.396300  1
  C  C3851  1  0.747000  0.387200  0.103700  1
  C  C3852  1  0.747000  0.612800  0.396300  1
  C  C3853  1  0.753000  0.112800  0.896300  1
  C  C3854  1  0.753000  0.887200  0.603700  1
  C  C3855  1  0.253000  0.612800  0.896300  1
  C  C3856  1  0.253000  0.387200  0.603700  1
  C  C3857  1  0.307000  0.865500  0.094500  1
  C  C3858  1  0.307000  0.134500  0.405500  1
  C  C3859  1  0.807000  0.365500  0.094500  1
  C  C3860  1  0.807000  0.634500  0.405500  1
  C  C3861  1  0.693000  0.134500  0.905500  1
  C  C3862  1  0.693000  0.865500  0.594500  1
  C  C3863  1  0.193000  0.634500  0.905500  1
  C  C3864  1  0.193000  0.365500  0.594500  1
  C  C3865  1  0.249700  0.837400  0.108900  1
  C  C3866  1  0.249700  0.162600  0.391100  1
  C  C3867  1  0.749700  0.337400  0.108900  1
  C  C3868  1  0.749700  0.662600  0.391100  1
  C  C3869  1  0.750300  0.162600  0.891100  1
  C  C3870  1  0.750300  0.837400  0.608900  1
  C  C3871  1  0.250300  0.662600  0.891100  1
  C  C3872  1  0.250300  0.337400  0.608900  1
  C  C3873  1  0.207900  0.812800  0.102700  1
  C  C3874  1  0.207900  0.187200  0.397300  1
  C  C3875  1  0.707900  0.312800  0.102700  1
  C  C3876  1  0.707900  0.687200  0.397300  1
  C  C3877  1  0.792100  0.187200  0.897300  1
  C  C3878  1  0.792100  0.812800  0.602700  1
  C  C3879  1  0.292100  0.687200  0.897300  1
  C  C3880  1  0.292100  0.312800  0.602700  1
  C  C3881  1  0.797000  0.619400  0.889900  1
  C  C3882  1  0.797000  0.380600  0.610100  1
  C  C3883  1  0.297000  0.119400  0.889900  1
  C  C3884  1  0.297000  0.880600  0.610100  1
  C  C3885  1  0.203000  0.380600  0.110100  1
  C  C3886  1  0.203000  0.619400  0.389900  1
  C  C3887  1  0.703000  0.880600  0.110100  1
  C  C3888  1  0.703000  0.119400  0.389900  1
  C  C3889  1  0.739900  0.622500  0.873000  1
  C  C3890  1  0.739900  0.377500  0.627000  1
  C  C3891  1  0.239900  0.122500  0.873000  1
  C  C3892  1  0.239900  0.877500  0.627000  1
  C  C3893  1  0.260100  0.377500  0.127000  1
  C  C3894  1  0.260100  0.622500  0.373000  1
  C  C3895  1  0.760100  0.877500  0.127000  1
  C  C3896  1  0.760100  0.122500  0.373000  1
  C  C3897  1  0.622000  0.604500  0.878100  1
  C  C3898  1  0.622000  0.395500  0.621900  1
  C  C3899  1  0.122000  0.104500  0.878100  1
  C  C3900  1  0.122000  0.895500  0.621900  1
  C  C3901  1  0.378000  0.395500  0.121900  1
  C  C3902  1  0.378000  0.604500  0.378100  1
  C  C3903  1  0.878000  0.895500  0.121900  1
  C  C3904  1  0.878000  0.104500  0.378100  1
  C  C3905  1  0.537100  0.612200  0.880300  1
  C  C3906  1  0.537100  0.387800  0.619700  1
  C  C3907  1  0.037100  0.112200  0.880300  1
  C  C3908  1  0.037100  0.887800  0.619700  1
  C  C3909  1  0.462900  0.387800  0.119700  1
  C  C3910  1  0.462900  0.612200  0.380300  1
  C  C3911  1  0.962900  0.887800  0.119700  1
  C  C3912  1  0.962900  0.112200  0.380300  1
  C  C3913  1  0.412600  0.612700  0.859500  1
  C  C3914  1  0.412600  0.387300  0.640500  1
  C  C3915  1  0.912600  0.112700  0.859500  1
  C  C3916  1  0.912600  0.887300  0.640500  1
  C  C3917  1  0.587400  0.387300  0.140500  1
  C  C3918  1  0.587400  0.612700  0.359500  1
  C  C3919  1  0.087400  0.887300  0.140500  1
  C  C3920  1  0.087400  0.112700  0.359500  1
  C  C3921  1  0.371000  0.595600  0.836700  1
  C  C3922  1  0.371000  0.404400  0.663300  1
  C  C3923  1  0.871000  0.095600  0.836700  1
  C  C3924  1  0.871000  0.904400  0.663300  1
  C  C3925  1  0.629000  0.404400  0.163300  1
  C  C3926  1  0.629000  0.595600  0.336700  1
  C  C3927  1  0.129000  0.904400  0.163300  1
  C  C3928  1  0.129000  0.095600  0.336700  1
  C  C3929  1  0.353000  0.621600  0.814900  1
  C  C3930  1  0.353000  0.378400  0.685100  1
  C  C3931  1  0.853000  0.121600  0.814900  1
  C  C3932  1  0.853000  0.878400  0.685100  1
  C  C3933  1  0.647000  0.378400  0.185100  1
  C  C3934  1  0.647000  0.621600  0.314900  1
  C  C3935  1  0.147000  0.878400  0.185100  1
  C  C3936  1  0.147000  0.121600  0.314900  1
  C  C3937  1  0.329000  0.648500  0.823200  1
  C  C3938  1  0.329000  0.351500  0.676800  1
  C  C3939  1  0.829000  0.148500  0.823200  1
  C  C3940  1  0.829000  0.851500  0.676800  1
  C  C3941  1  0.671000  0.351500  0.176800  1
  C  C3942  1  0.671000  0.648500  0.323200  1
  C  C3943  1  0.171000  0.851500  0.176800  1
  C  C3944  1  0.171000  0.148500  0.323200  1
  C  C3945  1  0.465700  0.657000  0.834600  1
  C  C3946  1  0.465700  0.343000  0.665400  1
  C  C3947  1  0.965700  0.157000  0.834600  1
  C  C3948  1  0.965700  0.843000  0.665400  1
  C  C3949  1  0.534300  0.343000  0.165400  1
  C  C3950  1  0.534300  0.657000  0.334600  1
  C  C3951  1  0.034300  0.843000  0.165400  1
  C  C3952  1  0.034300  0.157000  0.334600  1
  C  C3953  1  0.487000  0.668000  0.860900  1
  C  C3954  1  0.487000  0.332000  0.639100  1
  C  C3955  1  0.987000  0.168000  0.860900  1
  C  C3956  1  0.987000  0.832000  0.639100  1
  C  C3957  1  0.513000  0.332000  0.139100  1
  C  C3958  1  0.513000  0.668000  0.360900  1
  C  C3959  1  0.013000  0.832000  0.139100  1
  C  C3960  1  0.013000  0.168000  0.360900  1
  C  C3961  1  0.147000  0.551300  0.156200  1
  C  C3962  1  0.147000  0.448700  0.343800  1
  C  C3963  1  0.647000  0.051300  0.156200  1
  C  C3964  1  0.647000  0.948700  0.343800  1
  C  C3965  1  0.853000  0.448700  0.843800  1
  C  C3966  1  0.853000  0.551300  0.656200  1
  C  C3967  1  0.353000  0.948700  0.843800  1
  C  C3968  1  0.353000  0.051300  0.656200  1
  C  C3969  1  0.089000  0.541000  0.167500  1
  C  C3970  1  0.089000  0.459000  0.332500  1
  C  C3971  1  0.589000  0.041000  0.167500  1
  C  C3972  1  0.589000  0.959000  0.332500  1
  C  C3973  1  0.911000  0.459000  0.832500  1
  C  C3974  1  0.911000  0.541000  0.667500  1
  C  C3975  1  0.411000  0.959000  0.832500  1
  C  C3976  1  0.411000  0.041000  0.667500  1
  C  C3977  1  0.976000  0.513600  0.157100  1
  C  C3978  1  0.976000  0.486400  0.342900  1
  C  C3979  1  0.476000  0.013600  0.157100  1
  C  C3980  1  0.476000  0.986400  0.342900  1
  C  C3981  1  0.024000  0.486400  0.842900  1
  C  C3982  1  0.024000  0.513600  0.657100  1
  C  C3983  1  0.524000  0.986400  0.842900  1
  C  C3984  1  0.524000  0.013600  0.657100  1
  C  C3985  1  0.964000  0.485800  0.145300  1
  C  C3986  1  0.964000  0.514200  0.354700  1
  C  C3987  1  0.464000  0.985800  0.145300  1
  C  C3988  1  0.464000  0.014200  0.354700  1
  C  C3989  1  0.036000  0.514200  0.854700  1
  C  C3990  1  0.036000  0.485800  0.645300  1
  C  C3991  1  0.536000  0.014200  0.854700  1
  C  C3992  1  0.536000  0.985800  0.645300  1
  C  C3993  1  0.964000  0.444600  0.144700  1
  C  C3994  1  0.964000  0.555400  0.355300  1
  C  C3995  1  0.464000  0.944600  0.144700  1
  C  C3996  1  0.464000  0.055400  0.355300  1
  C  C3997  1  0.036000  0.555400  0.855300  1
  C  C3998  1  0.036000  0.444600  0.644700  1
  C  C3999  1  0.536000  0.055400  0.855300  1
  C  C4000  1  0.536000  0.944600  0.644700  1
  C  C4001  1  0.021000  0.422800  0.133600  1
  C  C4002  1  0.021000  0.577200  0.366400  1
  C  C4003  1  0.521000  0.922800  0.133600  1
  C  C4004  1  0.521000  0.077200  0.366400  1
  C  C4005  1  0.979000  0.577200  0.866400  1
  C  C4006  1  0.979000  0.422800  0.633600  1
  C  C4007  1  0.479000  0.077200  0.866400  1
  C  C4008  1  0.479000  0.922800  0.633600  1
  C  C4009  1  0.145000  0.436900  0.159800  1
  C  C4010  1  0.145000  0.563100  0.340200  1
  C  C4011  1  0.645000  0.936900  0.159800  1
  C  C4012  1  0.645000  0.063100  0.340200  1
  C  C4013  1  0.855000  0.563100  0.840200  1
  C  C4014  1  0.855000  0.436900  0.659800  1
  C  C4015  1  0.355000  0.063100  0.840200  1
  C  C4016  1  0.355000  0.936900  0.659800  1
  C  C4017  1  0.200000  0.447400  0.147100  1
  C  C4018  1  0.200000  0.552600  0.352900  1
  C  C4019  1  0.700000  0.947400  0.147100  1
  C  C4020  1  0.700000  0.052600  0.352900  1
  C  C4021  1  0.800000  0.552600  0.852900  1
  C  C4022  1  0.800000  0.447400  0.647100  1
  C  C4023  1  0.300000  0.052600  0.852900  1
  C  C4024  1  0.300000  0.947400  0.647100  1
  C  C4025  1  0.222700  0.456500  0.114600  1
  C  C4026  1  0.222700  0.543500  0.385400  1
  C  C4027  1  0.722700  0.956500  0.114600  1
  C  C4028  1  0.722700  0.043500  0.385400  1
  C  C4029  1  0.777300  0.543500  0.885400  1
  C  C4030  1  0.777300  0.456500  0.614600  1
  C  C4031  1  0.277300  0.043500  0.885400  1
  C  C4032  1  0.277300  0.956500  0.614600  1
  C  C4033  1  0.172000  0.471100  0.105000  1
  C  C4034  1  0.172000  0.528900  0.395000  1
  C  C4035  1  0.672000  0.971100  0.105000  1
  C  C4036  1  0.672000  0.028900  0.395000  1
  C  C4037  1  0.828000  0.528900  0.895000  1
  C  C4038  1  0.828000  0.471100  0.605000  1
  C  C4039  1  0.328000  0.028900  0.895000  1
  C  C4040  1  0.328000  0.971100  0.605000  1
  C  C4041  1  0.852000  0.894000  0.206700  1
  C  C4042  1  0.852000  0.106000  0.293300  1
  C  C4043  1  0.352000  0.394000  0.206700  1
  C  C4044  1  0.352000  0.606000  0.293300  1
  C  C4045  1  0.148000  0.106000  0.793300  1
  C  C4046  1  0.148000  0.894000  0.706700  1
  C  C4047  1  0.648000  0.606000  0.793300  1
  C  C4048  1  0.648000  0.394000  0.706700  1
  C  C4049  1  0.789000  0.897000  0.224900  1
  C  C4050  1  0.789000  0.103000  0.275100  1
  C  C4051  1  0.289000  0.397000  0.224900  1
  C  C4052  1  0.289000  0.603000  0.275100  1
  C  C4053  1  0.211000  0.103000  0.775100  1
  C  C4054  1  0.211000  0.897000  0.724900  1
  C  C4055  1  0.711000  0.603000  0.775100  1
  C  C4056  1  0.711000  0.397000  0.724900  1
  C  C4057  1  0.692000  0.919500  0.214300  1
  C  C4058  1  0.692000  0.080500  0.285700  1
  C  C4059  1  0.192000  0.419500  0.214300  1
  C  C4060  1  0.192000  0.580500  0.285700  1
  C  C4061  1  0.308000  0.080500  0.785700  1
  C  C4062  1  0.308000  0.919500  0.714300  1
  C  C4063  1  0.808000  0.580500  0.785700  1
  C  C4064  1  0.808000  0.419500  0.714300  1
  C  C4065  1  0.656000  0.944900  0.226200  1
  C  C4066  1  0.656000  0.055100  0.273800  1
  C  C4067  1  0.156000  0.444900  0.226200  1
  C  C4068  1  0.156000  0.555100  0.273800  1
  C  C4069  1  0.344000  0.055100  0.773800  1
  C  C4070  1  0.344000  0.944900  0.726200  1
  C  C4071  1  0.844000  0.555100  0.773800  1
  C  C4072  1  0.844000  0.444900  0.726200  1
  C  C4073  1  0.668000  0.960200  0.269500  1
  C  C4074  1  0.668000  0.039800  0.230500  1
  C  C4075  1  0.168000  0.460200  0.269500  1
  C  C4076  1  0.168000  0.539800  0.230500  1
  C  C4077  1  0.332000  0.039800  0.730500  1
  C  C4078  1  0.332000  0.960200  0.769500  1
  C  C4079  1  0.832000  0.539800  0.730500  1
  C  C4080  1  0.832000  0.460200  0.769500  1
  C  C4081  1  0.730000  0.955000  0.284100  1
  C  C4082  1  0.730000  0.045000  0.215900  1
  C  C4083  1  0.230000  0.455000  0.284100  1
  C  C4084  1  0.230000  0.545000  0.215900  1
  C  C4085  1  0.270000  0.045000  0.715900  1
  C  C4086  1  0.270000  0.955000  0.784100  1
  C  C4087  1  0.770000  0.545000  0.715900  1
  C  C4088  1  0.770000  0.455000  0.784100  1
  C  C4089  1  0.776000  0.989800  0.321400  1
  C  C4090  1  0.776000  0.010200  0.178600  1
  C  C4091  1  0.276000  0.489800  0.321400  1
  C  C4092  1  0.276000  0.510200  0.178600  1
  C  C4093  1  0.224000  0.010200  0.678600  1
  C  C4094  1  0.224000  0.989800  0.821400  1
  C  C4095  1  0.724000  0.510200  0.678600  1
  C  C4096  1  0.724000  0.489800  0.821400  1
  C  C4097  1  0.837000  0.974200  0.327100  1
  C  C4098  1  0.837000  0.025800  0.172900  1
  C  C4099  1  0.337000  0.474200  0.327100  1
  C  C4100  1  0.337000  0.525800  0.172900  1
  C  C4101  1  0.163000  0.025800  0.672900  1
  C  C4102  1  0.163000  0.974200  0.827100  1
  C  C4103  1  0.663000  0.525800  0.672900  1
  C  C4104  1  0.663000  0.474200  0.827100  1
  C  C4105  1  0.963000  0.953600  0.315500  1
  C  C4106  1  0.963000  0.046400  0.184500  1
  C  C4107  1  0.463000  0.453600  0.315500  1
  C  C4108  1  0.463000  0.546400  0.184500  1
  C  C4109  1  0.037000  0.046400  0.684500  1
  C  C4110  1  0.037000  0.953600  0.815500  1
  C  C4111  1  0.537000  0.546400  0.684500  1
  C  C4112  1  0.537000  0.453600  0.815500  1
  C  C4113  1  0.943000  0.928500  0.315200  1
  C  C4114  1  0.943000  0.071500  0.184800  1
  C  C4115  1  0.443000  0.428500  0.315200  1
  C  C4116  1  0.443000  0.571500  0.184800  1
  C  C4117  1  0.057000  0.071500  0.684800  1
  C  C4118  1  0.057000  0.928500  0.815200  1
  C  C4119  1  0.557000  0.571500  0.684800  1
  C  C4120  1  0.557000  0.428500  0.815200  1
  C  C4121  1  0.928000  0.807100  0.376500  1
  C  C4122  1  0.928000  0.192900  0.123500  1
  C  C4123  1  0.428000  0.307100  0.376500  1
  C  C4124  1  0.428000  0.692900  0.123500  1
  C  C4125  1  0.072000  0.192900  0.623500  1
  C  C4126  1  0.072000  0.807100  0.876500  1
  C  C4127  1  0.572000  0.692900  0.623500  1
  C  C4128  1  0.572000  0.307100  0.876500  1
  C  C4129  1  0.919000  0.802900  0.398300  1
  C  C4130  1  0.919000  0.197100  0.101700  1
  C  C4131  1  0.419000  0.302900  0.398300  1
  C  C4132  1  0.419000  0.697100  0.101700  1
  C  C4133  1  0.081000  0.197100  0.601700  1
  C  C4134  1  0.081000  0.802900  0.898300  1
  C  C4135  1  0.581000  0.697100  0.601700  1
  C  C4136  1  0.581000  0.302900  0.898300  1
  C  C4137  1  0.827000  0.787500  0.417900  1
  C  C4138  1  0.827000  0.212500  0.082100  1
  C  C4139  1  0.327000  0.287500  0.417900  1
  C  C4140  1  0.327000  0.712500  0.082100  1
  C  C4141  1  0.173000  0.212500  0.582100  1
  C  C4142  1  0.173000  0.787500  0.917900  1
  C  C4143  1  0.673000  0.712500  0.582100  1
  C  C4144  1  0.673000  0.287500  0.917900  1
  C  C4145  1  0.740000  0.791100  0.422400  1
  C  C4146  1  0.740000  0.208900  0.077600  1
  C  C4147  1  0.240000  0.291100  0.422400  1
  C  C4148  1  0.240000  0.708900  0.077600  1
  C  C4149  1  0.260000  0.208900  0.577600  1
  C  C4150  1  0.260000  0.791100  0.922400  1
  C  C4151  1  0.760000  0.708900  0.577600  1
  C  C4152  1  0.760000  0.291100  0.922400  1
  C  C4153  1  0.612000  0.784200  0.401400  1
  C  C4154  1  0.612000  0.215800  0.098600  1
  C  C4155  1  0.112000  0.284200  0.401400  1
  C  C4156  1  0.112000  0.715800  0.098600  1
  C  C4157  1  0.388000  0.215800  0.598600  1
  C  C4158  1  0.388000  0.784200  0.901400  1
  C  C4159  1  0.888000  0.715800  0.598600  1
  C  C4160  1  0.888000  0.284200  0.901400  1
  C  C4161  1  0.600000  0.787600  0.379300  1
  C  C4162  1  0.600000  0.212400  0.120700  1
  C  C4163  1  0.100000  0.287600  0.379300  1
  C  C4164  1  0.100000  0.712400  0.120700  1
  C  C4165  1  0.400000  0.212400  0.620700  1
  C  C4166  1  0.400000  0.787600  0.879300  1
  C  C4167  1  0.900000  0.712400  0.620700  1
  C  C4168  1  0.900000  0.287600  0.879300  1
  C  C4169  1  0.728000  0.766800  0.362200  1
  C  C4170  1  0.728000  0.233200  0.137800  1
  C  C4171  1  0.228000  0.266800  0.362200  1
  C  C4172  1  0.228000  0.733200  0.137800  1
  C  C4173  1  0.272000  0.233200  0.637800  1
  C  C4174  1  0.272000  0.766800  0.862200  1
  C  C4175  1  0.772000  0.733200  0.637800  1
  C  C4176  1  0.772000  0.266800  0.862200  1
  C  C4177  1  0.699000  0.740000  0.349800  1
  C  C4178  1  0.699000  0.260000  0.150200  1
  C  C4179  1  0.199000  0.240000  0.349800  1
  C  C4180  1  0.199000  0.760000  0.150200  1
  C  C4181  1  0.301000  0.260000  0.650200  1
  C  C4182  1  0.301000  0.740000  0.849800  1
  C  C4183  1  0.801000  0.760000  0.650200  1
  C  C4184  1  0.801000  0.240000  0.849800  1
  C  C4185  1  0.715000  0.707500  0.309800  1
  C  C4186  1  0.715000  0.292500  0.190200  1
  C  C4187  1  0.215000  0.207500  0.309800  1
  C  C4188  1  0.215000  0.792500  0.190200  1
  C  C4189  1  0.285000  0.292500  0.690200  1
  C  C4190  1  0.285000  0.707500  0.809800  1
  C  C4191  1  0.785000  0.792500  0.690200  1
  C  C4192  1  0.785000  0.207500  0.809800  1
  C  C4193  1  0.714000  0.703000  0.283900  1
  C  C4194  1  0.714000  0.297000  0.216100  1
  C  C4195  1  0.214000  0.203000  0.283900  1
  C  C4196  1  0.214000  0.797000  0.216100  1
  C  C4197  1  0.286000  0.297000  0.716100  1
  C  C4198  1  0.286000  0.703000  0.783900  1
  C  C4199  1  0.786000  0.797000  0.716100  1
  C  C4200  1  0.786000  0.203000  0.783900  1
  C  C4201  1  0.879000  0.896600  0.202400  1
  C  C4202  1  0.879000  0.103400  0.297600  1
  C  C4203  1  0.379000  0.396600  0.202400  1
  C  C4204  1  0.379000  0.603400  0.297600  1
  C  C4205  1  0.121000  0.103400  0.797600  1
  C  C4206  1  0.121000  0.896600  0.702400  1
  C  C4207  1  0.621000  0.603400  0.797600  1
  C  C4208  1  0.621000  0.396600  0.702400  1
  C  C4209  1  0.954000  0.910000  0.213500  1
  C  C4210  1  0.954000  0.090000  0.286500  1
  C  C4211  1  0.454000  0.410000  0.213500  1
  C  C4212  1  0.454000  0.590000  0.286500  1
  C  C4213  1  0.046000  0.090000  0.786500  1
  C  C4214  1  0.046000  0.910000  0.713500  1
  C  C4215  1  0.546000  0.590000  0.786500  1
  C  C4216  1  0.546000  0.410000  0.713500  1
  C  C4217  1  0.930000  0.954400  0.227600  1
  C  C4218  1  0.930000  0.045600  0.272400  1
  C  C4219  1  0.430000  0.454400  0.227600  1
  C  C4220  1  0.430000  0.545600  0.272400  1
  C  C4221  1  0.070000  0.045600  0.772400  1
  C  C4222  1  0.070000  0.954400  0.727600  1
  C  C4223  1  0.570000  0.545600  0.772400  1
  C  C4224  1  0.570000  0.454400  0.727600  1
  C  C4225  1  0.865000  0.965400  0.245300  1
  C  C4226  1  0.865000  0.034600  0.254700  1
  C  C4227  1  0.365000  0.465400  0.245300  1
  C  C4228  1  0.365000  0.534600  0.254700  1
  C  C4229  1  0.135000  0.034600  0.754700  1
  C  C4230  1  0.135000  0.965400  0.745300  1
  C  C4231  1  0.635000  0.534600  0.754700  1
  C  C4232  1  0.635000  0.465400  0.745300  1
  C  C4233  1  0.840000  0.980200  0.288800  1
  C  C4234  1  0.840000  0.019800  0.211200  1
  C  C4235  1  0.340000  0.480200  0.288800  1
  C  C4236  1  0.340000  0.519800  0.211200  1
  C  C4237  1  0.160000  0.019800  0.711200  1
  C  C4238  1  0.160000  0.980200  0.788800  1
  C  C4239  1  0.660000  0.519800  0.711200  1
  C  C4240  1  0.660000  0.480200  0.788800  1
  C  C4241  1  0.901000  0.992300  0.307900  1
  C  C4242  1  0.901000  0.007700  0.192100  1
  C  C4243  1  0.401000  0.492300  0.307900  1
  C  C4244  1  0.401000  0.507700  0.192100  1
  C  C4245  1  0.099000  0.007700  0.692100  1
  C  C4246  1  0.099000  0.992300  0.807900  1
  C  C4247  1  0.599000  0.507700  0.692100  1
  C  C4248  1  0.599000  0.492300  0.807900  1
  C  C4249  1  0.046000  0.990500  0.300600  1
  C  C4250  1  0.046000  0.009500  0.199400  1
  C  C4251  1  0.546000  0.490500  0.300600  1
  C  C4252  1  0.546000  0.509500  0.199400  1
  C  C4253  1  0.954000  0.009500  0.699400  1
  C  C4254  1  0.954000  0.990500  0.800600  1
  C  C4255  1  0.454000  0.509500  0.699400  1
  C  C4256  1  0.454000  0.490500  0.800600  1
  C  C4257  1  0.075000  0.991100  0.323700  1
  C  C4258  1  0.075000  0.008900  0.176300  1
  C  C4259  1  0.575000  0.491100  0.323700  1
  C  C4260  1  0.575000  0.508900  0.176300  1
  C  C4261  1  0.925000  0.008900  0.676300  1
  C  C4262  1  0.925000  0.991100  0.823700  1
  C  C4263  1  0.425000  0.508900  0.676300  1
  C  C4264  1  0.425000  0.491100  0.823700  1
  C  C4265  1  0.036000  0.948200  0.304300  1
  C  C4266  1  0.036000  0.051800  0.195700  1
  C  C4267  1  0.536000  0.448200  0.304300  1
  C  C4268  1  0.536000  0.551800  0.195700  1
  C  C4269  1  0.964000  0.051800  0.695700  1
  C  C4270  1  0.964000  0.948200  0.804300  1
  C  C4271  1  0.464000  0.551800  0.695700  1
  C  C4272  1  0.464000  0.448200  0.804300  1
  C  C4273  1  0.016000  0.925400  0.308100  1
  C  C4274  1  0.016000  0.074600  0.191900  1
  C  C4275  1  0.516000  0.425400  0.308100  1
  C  C4276  1  0.516000  0.574600  0.191900  1
  C  C4277  1  0.984000  0.074600  0.691900  1
  C  C4278  1  0.984000  0.925400  0.808100  1
  C  C4279  1  0.484000  0.574600  0.691900  1
  C  C4280  1  0.484000  0.425400  0.808100  1
  Br  Br4281  1  0.877870  0.775480  0.204530  1
  Br  Br4282  1  0.877870  0.224520  0.295470  1
  Br  Br4283  1  0.377870  0.275480  0.204530  1
  Br  Br4284  1  0.377870  0.724520  0.295470  1
  Br  Br4285  1  0.122130  0.224520  0.795470  1
  Br  Br4286  1  0.122130  0.775480  0.704530  1
  Br  Br4287  1  0.622130  0.724520  0.795470  1
  Br  Br4288  1  0.622130  0.275480  0.704530  1
  Br  Br4289  1  0.698790  0.752480  0.230060  1
  Br  Br4290  1  0.698790  0.247520  0.269940  1
  Br  Br4291  1  0.198790  0.252480  0.230060  1
  Br  Br4292  1  0.198790  0.747520  0.269940  1
  Br  Br4293  1  0.301210  0.247520  0.769940  1
  Br  Br4294  1  0.301210  0.752480  0.730060  1
  Br  Br4295  1  0.801210  0.747520  0.769940  1
  Br  Br4296  1  0.801210  0.252480  0.730060  1
  Br  Br4297  1  0.460080  0.718270  0.029190  1
  Br  Br4298  1  0.460080  0.281730  0.470810  1
  Br  Br4299  1  0.960080  0.218270  0.029190  1
  Br  Br4300  1  0.960080  0.781730  0.470810  1
  Br  Br4301  1  0.539920  0.281730  0.970810  1
  Br  Br4302  1  0.539920  0.718270  0.529190  1
  Br  Br4303  1  0.039920  0.781730  0.970810  1
  Br  Br4304  1  0.039920  0.218270  0.529190  1
  Br  Br4305  1  0.665880  0.713040  0.997600  1
  Br  Br4306  1  0.665880  0.286960  0.502400  1
  Br  Br4307  1  0.165880  0.213040  0.997600  1
  Br  Br4308  1  0.165880  0.786960  0.502400  1
  Br  Br4309  1  0.334120  0.286960  0.002400  1
  Br  Br4310  1  0.334120  0.713040  0.497600  1
  Br  Br4311  1  0.834120  0.786960  0.002400  1
  Br  Br4312  1  0.834120  0.213040  0.497600  1
  Br  Br4313  1  0.703600  0.542750  0.057880  1
  Br  Br4314  1  0.703600  0.457250  0.442120  1
  Br  Br4315  1  0.203600  0.042750  0.057880  1
  Br  Br4316  1  0.203600  0.957250  0.442120  1
  Br  Br4317  1  0.296400  0.457250  0.942120  1
  Br  Br4318  1  0.296400  0.542750  0.557880  1
  Br  Br4319  1  0.796400  0.957250  0.942120  1
  Br  Br4320  1  0.796400  0.042750  0.557880  1
  Br  Br4321  1  0.927100  0.556480  0.064510  1
  Br  Br4322  1  0.927100  0.443520  0.435490  1
  Br  Br4323  1  0.427100  0.056480  0.064510  1
  Br  Br4324  1  0.427100  0.943520  0.435490  1
  Br  Br4325  1  0.072900  0.443520  0.935490  1
  Br  Br4326  1  0.072900  0.556480  0.564510  1
  Br  Br4327  1  0.572900  0.943520  0.935490  1
  Br  Br4328  1  0.572900  0.056480  0.564510  1
  Br  Br4329  1  0.500400  0.378180  0.922950  1
  Br  Br4330  1  0.500400  0.621820  0.577050  1
  Br  Br4331  1  0.000400  0.878180  0.922950  1
  Br  Br4332  1  0.000400  0.121820  0.577050  1
  Br  Br4333  1  0.499600  0.621820  0.077050  1
  Br  Br4334  1  0.499600  0.378180  0.422950  1
  Br  Br4335  1  0.999600  0.121820  0.077050  1
  Br  Br4336  1  0.999600  0.878180  0.422950  1
  Br  Br4337  1  0.919700  0.678140  0.032020  1
  Br  Br4338  1  0.919700  0.321860  0.467980  1
  Br  Br4339  1  0.419700  0.178140  0.032020  1
  Br  Br4340  1  0.419700  0.821860  0.467980  1
  Br  Br4341  1  0.080300  0.321860  0.967980  1
  Br  Br4342  1  0.080300  0.678140  0.532020  1
  Br  Br4343  1  0.580300  0.821860  0.967980  1
  Br  Br4344  1  0.580300  0.178140  0.532020  1
  Br  Br4345  1  0.007800  0.653130  0.097560  1
  Br  Br4346  1  0.007800  0.346870  0.402440  1
  Br  Br4347  1  0.507800  0.153130  0.097560  1
  Br  Br4348  1  0.507800  0.846870  0.402440  1
  Br  Br4349  1  0.992200  0.346870  0.902440  1
  Br  Br4350  1  0.992200  0.653130  0.597560  1
  Br  Br4351  1  0.492200  0.846870  0.902440  1
  Br  Br4352  1  0.492200  0.153130  0.597560  1
  Br  Br4353  1  0.520500  0.907100  0.263600  1
  Br  Br4354  1  0.520500  0.092900  0.236400  1
  Br  Br4355  1  0.020500  0.407100  0.263600  1
  Br  Br4356  1  0.020500  0.592900  0.236400  1
  Br  Br4357  1  0.479500  0.092900  0.736400  1
  Br  Br4358  1  0.479500  0.907100  0.763600  1
  Br  Br4359  1  0.979500  0.592900  0.736400  1
  Br  Br4360  1  0.979500  0.407100  0.763600  1
  Br  Br4361  1  0.437700  0.795060  0.194180  1
  Br  Br4362  1  0.437700  0.204940  0.305820  1
  Br  Br4363  1  0.937700  0.295060  0.194180  1
  Br  Br4364  1  0.937700  0.704940  0.305820  1
  Br  Br4365  1  0.562300  0.204940  0.805820  1
  Br  Br4366  1  0.562300  0.795060  0.694180  1
  Br  Br4367  1  0.062300  0.704940  0.805820  1
  Br  Br4368  1  0.062300  0.295060  0.694180  1
  Br  Br4369  1  0.067600  0.700900  0.197500  1
  Br  Br4370  1  0.067600  0.299100  0.302500  1
  Br  Br4371  1  0.567600  0.200900  0.197500  1
  Br  Br4372  1  0.567600  0.799100  0.302500  1
  Br  Br4373  1  0.932400  0.299100  0.802500  1
  Br  Br4374  1  0.932400  0.700900  0.697500  1
  Br  Br4375  1  0.432400  0.799100  0.802500  1
  Br  Br4376  1  0.432400  0.200900  0.697500  1
  Br  Br4377  1  0.454700  0.326410  0.837300  1
  Br  Br4378  1  0.454700  0.673590  0.662700  1
  Br  Br4379  1  0.954700  0.826410  0.837300  1
  Br  Br4380  1  0.954700  0.173590  0.662700  1
  Br  Br4381  1  0.545300  0.673590  0.162700  1
  Br  Br4382  1  0.545300  0.326410  0.337300  1
  Br  Br4383  1  0.045300  0.173590  0.162700  1
  Br  Br4384  1  0.045300  0.826410  0.337300  1
  Br  Br4385  1  0.554500  0.378600  0.865500  1
  Br  Br4386  1  0.554500  0.621400  0.634500  1
  Br  Br4387  1  0.054500  0.878600  0.865500  1
  Br  Br4388  1  0.054500  0.121400  0.634500  1
  Br  Br4389  1  0.445500  0.621400  0.134500  1
  Br  Br4390  1  0.445500  0.378600  0.365500  1
  Br  Br4391  1  0.945500  0.121400  0.134500  1
  Br  Br4392  1  0.945500  0.878600  0.365500  1
  Br  Br4393  1  0.479000  0.898900  0.251100  1
  Br  Br4394  1  0.479000  0.101100  0.248900  1
  Br  Br4395  1  0.979000  0.398900  0.251100  1
  Br  Br4396  1  0.979000  0.601100  0.248900  1
  Br  Br4397  1  0.521000  0.101100  0.748900  1
  Br  Br4398  1  0.521000  0.898900  0.751100  1
  Br  Br4399  1  0.021000  0.601100  0.748900  1
  Br  Br4400  1  0.021000  0.398900  0.751100  1
  Br  Br4401  1  0.578400  0.509000  0.885700  1
  Br  Br4402  1  0.578400  0.491000  0.614300  1
  Br  Br4403  1  0.078400  0.009000  0.885700  1
  Br  Br4404  1  0.078400  0.991000  0.614300  1
  Br  Br4405  1  0.421600  0.491000  0.114300  1
  Br  Br4406  1  0.421600  0.509000  0.385700  1
  Br  Br4407  1  0.921600  0.991000  0.114300  1
  Br  Br4408  1  0.921600  0.009000  0.385700  1
  Br  Br4409  1  0.642500  0.495700  0.881200  1
  Br  Br4410  1  0.642500  0.504300  0.618800  1
  Br  Br4411  1  0.142500  0.995700  0.881200  1
  Br  Br4412  1  0.142500  0.004300  0.618800  1
  Br  Br4413  1  0.357500  0.504300  0.118800  1
  Br  Br4414  1  0.357500  0.495700  0.381200  1
  Br  Br4415  1  0.857500  0.004300  0.118800  1
  Br  Br4416  1  0.857500  0.995700  0.381200  1
  Br  Br4417  1  0.418600  0.521300  0.910000  1
  Br  Br4418  1  0.418600  0.478700  0.590000  1
  Br  Br4419  1  0.918600  0.021300  0.910000  1
  Br  Br4420  1  0.918600  0.978700  0.590000  1
  Br  Br4421  1  0.581400  0.478700  0.090000  1
  Br  Br4422  1  0.581400  0.521300  0.410000  1
  Br  Br4423  1  0.081400  0.978700  0.090000  1
  Br  Br4424  1  0.081400  0.021300  0.410000  1
  Br  Br4425  1  0.631600  0.572800  0.155100  1
  Br  Br4426  1  0.631600  0.427200  0.344900  1
  Br  Br4427  1  0.131600  0.072800  0.155100  1
  Br  Br4428  1  0.131600  0.927200  0.344900  1
  Br  Br4429  1  0.368400  0.427200  0.844900  1
  Br  Br4430  1  0.368400  0.572800  0.655100  1
  Br  Br4431  1  0.868400  0.927200  0.844900  1
  Br  Br4432  1  0.868400  0.072800  0.655100  1
  Br  Br4433  1  0.383700  0.877800  0.166000  1
  Br  Br4434  1  0.383700  0.122200  0.334000  1
  Br  Br4435  1  0.883700  0.377800  0.166000  1
  Br  Br4436  1  0.883700  0.622200  0.334000  1
  Br  Br4437  1  0.616300  0.122200  0.834000  1
  Br  Br4438  1  0.616300  0.877800  0.666000  1
  Br  Br4439  1  0.116300  0.622200  0.834000  1
  Br  Br4440  1  0.116300  0.377800  0.666000  1
  Br  Br4441  1  0.071500  0.738300  0.209500  1
  Br  Br4442  1  0.071500  0.261700  0.290500  1
  Br  Br4443  1  0.571500  0.238300  0.209500  1
  Br  Br4444  1  0.571500  0.761700  0.290500  1
  Br  Br4445  1  0.928500  0.261700  0.790500  1
  Br  Br4446  1  0.928500  0.738300  0.709500  1
  Br  Br4447  1  0.428500  0.761700  0.790500  1
  Br  Br4448  1  0.428500  0.238300  0.709500  1
  Br  Br4449  1  0.958800  0.396500  0.996600  1
  Br  Br4450  1  0.958800  0.603500  0.503400  1
  Br  Br4451  1  0.458800  0.896500  0.996600  1
  Br  Br4452  1  0.458800  0.103500  0.503400  1
  Br  Br4453  1  0.041200  0.603500  0.003400  1
  Br  Br4454  1  0.041200  0.396500  0.496600  1
  Br  Br4455  1  0.541200  0.103500  0.003400  1
  Br  Br4456  1  0.541200  0.896500  0.496600  1
  Br  Br4457  1  0.631400  0.674300  0.105060  1
  Br  Br4458  1  0.631400  0.325700  0.394940  1
  Br  Br4459  1  0.131400  0.174300  0.105060  1
  Br  Br4460  1  0.131400  0.825700  0.394940  1
  Br  Br4461  1  0.368600  0.325700  0.894940  1
  Br  Br4462  1  0.368600  0.674300  0.605060  1
  Br  Br4463  1  0.868600  0.825700  0.894940  1
  Br  Br4464  1  0.868600  0.174300  0.605060  1
  Br  Br4465  1  0.774800  0.680000  0.092700  1
  Br  Br4466  1  0.774800  0.320000  0.407300  1
  Br  Br4467  1  0.274800  0.180000  0.092700  1
  Br  Br4468  1  0.274800  0.820000  0.407300  1
  Br  Br4469  1  0.225200  0.320000  0.907300  1
  Br  Br4470  1  0.225200  0.680000  0.592700  1
  Br  Br4471  1  0.725200  0.820000  0.907300  1
  Br  Br4472  1  0.725200  0.180000  0.592700  1
  N  N4473  1  0.917400  0.807800  0.265200  1
  N  N4474  1  0.917400  0.192200  0.234800  1
  N  N4475  1  0.417400  0.307800  0.265200  1
  N  N4476  1  0.417400  0.692200  0.234800  1
  N  N4477  1  0.082600  0.192200  0.734800  1
  N  N4478  1  0.082600  0.807800  0.765200  1
  N  N4479  1  0.582600  0.692200  0.734800  1
  N  N4480  1  0.582600  0.307800  0.765200  1
  N  N4481  1  0.887200  0.759200  0.251400  1
  N  N4482  1  0.887200  0.240800  0.248600  1
  N  N4483  1  0.387200  0.259200  0.251400  1
  N  N4484  1  0.387200  0.740800  0.248600  1
  N  N4485  1  0.112800  0.240800  0.748600  1
  N  N4486  1  0.112800  0.759200  0.751400  1
  N  N4487  1  0.612800  0.740800  0.748600  1
  N  N4488  1  0.612800  0.259200  0.751400  1
  N  N4489  1  0.869900  0.657800  0.195900  1
  N  N4490  1  0.869900  0.342200  0.304100  1
  N  N4491  1  0.369900  0.157800  0.195900  1
  N  N4492  1  0.369900  0.842200  0.304100  1
  N  N4493  1  0.130100  0.342200  0.804100  1
  N  N4494  1  0.130100  0.657800  0.695900  1
  N  N4495  1  0.630100  0.842200  0.804100  1
  N  N4496  1  0.630100  0.157800  0.695900  1
  N  N4497  1  0.836300  0.612600  0.166400  1
  N  N4498  1  0.836300  0.387400  0.333600  1
  N  N4499  1  0.336300  0.112600  0.166400  1
  N  N4500  1  0.336300  0.887400  0.333600  1
  N  N4501  1  0.163700  0.387400  0.833600  1
  N  N4502  1  0.163700  0.612600  0.666400  1
  N  N4503  1  0.663700  0.887400  0.833600  1
  N  N4504  1  0.663700  0.112600  0.666400  1
  N  N4505  1  0.822500  0.521200  0.087900  1
  N  N4506  1  0.822500  0.478800  0.412100  1
  N  N4507  1  0.322500  0.021200  0.087900  1
  N  N4508  1  0.322500  0.978800  0.412100  1
  N  N4509  1  0.177500  0.478800  0.912100  1
  N  N4510  1  0.177500  0.521200  0.587900  1
  N  N4511  1  0.677500  0.978800  0.912100  1
  N  N4512  1  0.677500  0.021200  0.587900  1
  N  N4513  1  0.771400  0.483700  0.047900  1
  N  N4514  1  0.771400  0.516300  0.452100  1
  N  N4515  1  0.271400  0.983700  0.047900  1
  N  N4516  1  0.271400  0.016300  0.452100  1
  N  N4517  1  0.228600  0.516300  0.952100  1
  N  N4518  1  0.228600  0.483700  0.547900  1
  N  N4519  1  0.728600  0.016300  0.952100  1
  N  N4520  1  0.728600  0.983700  0.547900  1
  N  N4521  1  0.759700  0.803900  0.281100  1
  N  N4522  1  0.759700  0.196100  0.218900  1
  N  N4523  1  0.259700  0.303900  0.281100  1
  N  N4524  1  0.259700  0.696100  0.218900  1
  N  N4525  1  0.240300  0.196100  0.718900  1
  N  N4526  1  0.240300  0.803900  0.781100  1
  N  N4527  1  0.740300  0.696100  0.718900  1
  N  N4528  1  0.740300  0.303900  0.781100  1
  N  N4529  1  0.731700  0.812500  0.242800  1
  N  N4530  1  0.731700  0.187500  0.257200  1
  N  N4531  1  0.231700  0.312500  0.242800  1
  N  N4532  1  0.231700  0.687500  0.257200  1
  N  N4533  1  0.268300  0.187500  0.757200  1
  N  N4534  1  0.268300  0.812500  0.742800  1
  N  N4535  1  0.768300  0.687500  0.757200  1
  N  N4536  1  0.768300  0.312500  0.742800  1
  N  N4537  1  0.617600  0.805000  0.157100  1
  N  N4538  1  0.617600  0.195000  0.342900  1
  N  N4539  1  0.117600  0.305000  0.157100  1
  N  N4540  1  0.117600  0.695000  0.342900  1
  N  N4541  1  0.382400  0.195000  0.842900  1
  N  N4542  1  0.382400  0.805000  0.657100  1
  N  N4543  1  0.882400  0.695000  0.842900  1
  N  N4544  1  0.882400  0.305000  0.657100  1
  N  N4545  1  0.608000  0.798400  0.114300  1
  N  N4546  1  0.608000  0.201600  0.385700  1
  N  N4547  1  0.108000  0.298400  0.114300  1
  N  N4548  1  0.108000  0.701600  0.385700  1
  N  N4549  1  0.392000  0.201600  0.885700  1
  N  N4550  1  0.392000  0.798400  0.614300  1
  N  N4551  1  0.892000  0.701600  0.885700  1
  N  N4552  1  0.892000  0.298400  0.614300  1
  N  N4553  1  0.545100  0.764100  0.017900  1
  N  N4554  1  0.545100  0.235900  0.482100  1
  N  N4555  1  0.045100  0.264100  0.017900  1
  N  N4556  1  0.045100  0.735900  0.482100  1
  N  N4557  1  0.454900  0.235900  0.982100  1
  N  N4558  1  0.454900  0.764100  0.517900  1
  N  N4559  1  0.954900  0.735900  0.982100  1
  N  N4560  1  0.954900  0.264100  0.517900  1
  N  N4561  1  0.546000  0.742800  0.970400  1
  N  N4562  1  0.546000  0.257200  0.529600  1
  N  N4563  1  0.046000  0.242800  0.970400  1
  N  N4564  1  0.046000  0.757200  0.529600  1
  N  N4565  1  0.454000  0.257200  0.029600  1
  N  N4566  1  0.454000  0.742800  0.470400  1
  N  N4567  1  0.954000  0.757200  0.029600  1
  N  N4568  1  0.954000  0.242800  0.470400  1
  N  N4569  1  0.398700  0.728300  0.981200  1
  N  N4570  1  0.398700  0.271700  0.518800  1
  N  N4571  1  0.898700  0.228300  0.981200  1
  N  N4572  1  0.898700  0.771700  0.518800  1
  N  N4573  1  0.601300  0.271700  0.018800  1
  N  N4574  1  0.601300  0.728300  0.481200  1
  N  N4575  1  0.101300  0.771700  0.018800  1
  N  N4576  1  0.101300  0.228300  0.481200  1
  N  N4577  1  0.488300  0.687200  0.969100  1
  N  N4578  1  0.488300  0.312800  0.530900  1
  N  N4579  1  0.988300  0.187200  0.969100  1
  N  N4580  1  0.988300  0.812800  0.530900  1
  N  N4581  1  0.511700  0.312800  0.030900  1
  N  N4582  1  0.511700  0.687200  0.469100  1
  N  N4583  1  0.011700  0.812800  0.030900  1
  N  N4584  1  0.011700  0.187200  0.469100  1
  N  N4585  1  0.621200  0.605000  0.974100  1
  N  N4586  1  0.621200  0.395000  0.525900  1
  N  N4587  1  0.121200  0.105000  0.974100  1
  N  N4588  1  0.121200  0.895000  0.525900  1
  N  N4589  1  0.378800  0.395000  0.025900  1
  N  N4590  1  0.378800  0.605000  0.474100  1
  N  N4591  1  0.878800  0.895000  0.025900  1
  N  N4592  1  0.878800  0.105000  0.474100  1
  N  N4593  1  0.709900  0.573700  0.980700  1
  N  N4594  1  0.709900  0.426300  0.519300  1
  N  N4595  1  0.209900  0.073700  0.980700  1
  N  N4596  1  0.209900  0.926300  0.519300  1
  N  N4597  1  0.290100  0.426300  0.019300  1
  N  N4598  1  0.290100  0.573700  0.480700  1
  N  N4599  1  0.790100  0.926300  0.019300  1
  N  N4600  1  0.790100  0.073700  0.480700  1
  N  N4601  1  0.838800  0.510600  0.014600  1
  N  N4602  1  0.838800  0.489400  0.485400  1
  N  N4603  1  0.338800  0.010600  0.014600  1
  N  N4604  1  0.338800  0.989400  0.485400  1
  N  N4605  1  0.161200  0.489400  0.985400  1
  N  N4606  1  0.161200  0.510600  0.514600  1
  N  N4607  1  0.661200  0.989400  0.985400  1
  N  N4608  1  0.661200  0.010600  0.514600  1
  N  N4609  1  0.928500  0.491600  0.037600  1
  N  N4610  1  0.928500  0.508400  0.462400  1
  N  N4611  1  0.428500  0.991600  0.037600  1
  N  N4612  1  0.428500  0.008400  0.462400  1
  N  N4613  1  0.071500  0.508400  0.962400  1
  N  N4614  1  0.071500  0.491600  0.537600  1
  N  N4615  1  0.571500  0.008400  0.962400  1
  N  N4616  1  0.571500  0.991600  0.537600  1
  N  N4617  1  0.771000  0.619700  0.994500  1
  N  N4618  1  0.771000  0.380300  0.505500  1
  N  N4619  1  0.271000  0.119700  0.994500  1
  N  N4620  1  0.271000  0.880300  0.505500  1
  N  N4621  1  0.229000  0.380300  0.005500  1
  N  N4622  1  0.229000  0.619700  0.494500  1
  N  N4623  1  0.729000  0.880300  0.005500  1
  N  N4624  1  0.729000  0.119700  0.494500  1
  N  N4625  1  0.744600  0.610100  0.029400  1
  N  N4626  1  0.744600  0.389900  0.470600  1
  N  N4627  1  0.244600  0.110100  0.029400  1
  N  N4628  1  0.244600  0.889900  0.470600  1
  N  N4629  1  0.255400  0.389900  0.970600  1
  N  N4630  1  0.255400  0.610100  0.529400  1
  N  N4631  1  0.755400  0.889900  0.970600  1
  N  N4632  1  0.755400  0.110100  0.529400  1
  N  N4633  1  0.768300  0.628300  0.132500  1
  N  N4634  1  0.768300  0.371700  0.367500  1
  N  N4635  1  0.268300  0.128300  0.132500  1
  N  N4636  1  0.268300  0.871700  0.367500  1
  N  N4637  1  0.231700  0.371700  0.867500  1
  N  N4638  1  0.231700  0.628300  0.632500  1
  N  N4639  1  0.731700  0.871700  0.867500  1
  N  N4640  1  0.731700  0.128300  0.632500  1
  N  N4641  1  0.716000  0.645100  0.175300  1
  N  N4642  1  0.716000  0.354900  0.324700  1
  N  N4643  1  0.216000  0.145100  0.175300  1
  N  N4644  1  0.216000  0.854900  0.324700  1
  N  N4645  1  0.284000  0.354900  0.824700  1
  N  N4646  1  0.284000  0.645100  0.675300  1
  N  N4647  1  0.784000  0.854900  0.824700  1
  N  N4648  1  0.784000  0.145100  0.675300  1
  N  N4649  1  0.747900  0.784300  0.126900  1
  N  N4650  1  0.747900  0.215700  0.373100  1
  N  N4651  1  0.247900  0.284300  0.126900  1
  N  N4652  1  0.247900  0.715700  0.373100  1
  N  N4653  1  0.252100  0.215700  0.873100  1
  N  N4654  1  0.252100  0.784300  0.626900  1
  N  N4655  1  0.752100  0.715700  0.873100  1
  N  N4656  1  0.752100  0.284300  0.626900  1
  N  N4657  1  0.669200  0.747900  0.096300  1
  N  N4658  1  0.669200  0.252100  0.403700  1
  N  N4659  1  0.169200  0.247900  0.096300  1
  N  N4660  1  0.169200  0.752100  0.403700  1
  N  N4661  1  0.330800  0.252100  0.903700  1
  N  N4662  1  0.330800  0.747900  0.596300  1
  N  N4663  1  0.830800  0.752100  0.903700  1
  N  N4664  1  0.830800  0.247900  0.596300  1
  N  N4665  1  0.626700  0.639700  0.024200  1
  N  N4666  1  0.626700  0.360300  0.475800  1
  N  N4667  1  0.126700  0.139700  0.024200  1
  N  N4668  1  0.126700  0.860300  0.475800  1
  N  N4669  1  0.373300  0.360300  0.975800  1
  N  N4670  1  0.373300  0.639700  0.524200  1
  N  N4671  1  0.873300  0.860300  0.975800  1
  N  N4672  1  0.873300  0.139700  0.524200  1
  N  N4673  1  0.577200  0.595300  0.010500  1
  N  N4674  1  0.577200  0.404700  0.489500  1
  N  N4675  1  0.077200  0.095300  0.010500  1
  N  N4676  1  0.077200  0.904700  0.489500  1
  N  N4677  1  0.422800  0.404700  0.989500  1
  N  N4678  1  0.422800  0.595300  0.510500  1
  N  N4679  1  0.922800  0.904700  0.989500  1
  N  N4680  1  0.922800  0.095300  0.510500  1
  N  N4681  1  0.934100  0.641600  0.151400  1
  N  N4682  1  0.934100  0.358400  0.348600  1
  N  N4683  1  0.434100  0.141600  0.151400  1
  N  N4684  1  0.434100  0.858400  0.348600  1
  N  N4685  1  0.065900  0.358400  0.848600  1
  N  N4686  1  0.065900  0.641600  0.651400  1
  N  N4687  1  0.565900  0.858400  0.848600  1
  N  N4688  1  0.565900  0.141600  0.651400  1
  N  N4689  1  0.830200  0.675200  0.160700  1
  N  N4690  1  0.830200  0.324800  0.339300  1
  N  N4691  1  0.330200  0.175200  0.160700  1
  N  N4692  1  0.330200  0.824800  0.339300  1
  N  N4693  1  0.169800  0.324800  0.839300  1
  N  N4694  1  0.169800  0.675200  0.660700  1
  N  N4695  1  0.669800  0.824800  0.839300  1
  N  N4696  1  0.669800  0.175200  0.660700  1
  N  N4697  1  0.648200  0.752400  0.142200  1
  N  N4698  1  0.648200  0.247600  0.357800  1
  N  N4699  1  0.148200  0.252400  0.142200  1
  N  N4700  1  0.148200  0.747600  0.357800  1
  N  N4701  1  0.351800  0.247600  0.857800  1
  N  N4702  1  0.351800  0.752400  0.642200  1
  N  N4703  1  0.851800  0.747600  0.857800  1
  N  N4704  1  0.851800  0.252400  0.642200  1
  N  N4705  1  0.522600  0.765800  0.127300  1
  N  N4706  1  0.522600  0.234200  0.372700  1
  N  N4707  1  0.022600  0.265800  0.127300  1
  N  N4708  1  0.022600  0.734200  0.372700  1
  N  N4709  1  0.477400  0.234200  0.872700  1
  N  N4710  1  0.477400  0.765800  0.627300  1
  N  N4711  1  0.977400  0.734200  0.872700  1
  N  N4712  1  0.977400  0.265800  0.627300  1
  O  O4713  1  0.689800  0.402600  0.962400  1
  O  O4714  1  0.689800  0.597400  0.537600  1
  O  O4715  1  0.189800  0.902600  0.962400  1
  O  O4716  1  0.189800  0.097400  0.537600  1
  O  O4717  1  0.310200  0.597400  0.037600  1
  O  O4718  1  0.310200  0.402600  0.462400  1
  O  O4719  1  0.810200  0.097400  0.037600  1
  O  O4720  1  0.810200  0.902600  0.462400  1
  O  O4721  1  0.744000  0.368400  0.917800  1
  O  O4722  1  0.744000  0.631600  0.582200  1
  O  O4723  1  0.244000  0.868400  0.917800  1
  O  O4724  1  0.244000  0.131600  0.582200  1
  O  O4725  1  0.256000  0.631600  0.082200  1
  O  O4726  1  0.256000  0.368400  0.417800  1
  O  O4727  1  0.756000  0.131600  0.082200  1
  O  O4728  1  0.756000  0.868400  0.417800  1
  O  O4729  1  0.754000  0.378300  0.877600  1
  O  O4730  1  0.754000  0.621700  0.622400  1
  O  O4731  1  0.254000  0.878300  0.877600  1
  O  O4732  1  0.254000  0.121700  0.622400  1
  O  O4733  1  0.246000  0.621700  0.122400  1
  O  O4734  1  0.246000  0.378300  0.377600  1
  O  O4735  1  0.746000  0.121700  0.122400  1
  O  O4736  1  0.746000  0.878300  0.377600  1
  O  O4737  1  0.671000  0.425300  0.881300  1
  O  O4738  1  0.671000  0.574700  0.618700  1
  O  O4739  1  0.171000  0.925300  0.881300  1
  O  O4740  1  0.171000  0.074700  0.618700  1
  O  O4741  1  0.329000  0.574700  0.118700  1
  O  O4742  1  0.329000  0.425300  0.381300  1
  O  O4743  1  0.829000  0.074700  0.118700  1
  O  O4744  1  0.829000  0.925300  0.381300  1
  O  O4745  1  0.595000  0.447200  0.928000  1
  O  O4746  1  0.595000  0.552800  0.572000  1
  O  O4747  1  0.095000  0.947200  0.928000  1
  O  O4748  1  0.095000  0.052800  0.572000  1
  O  O4749  1  0.405000  0.552800  0.072000  1
  O  O4750  1  0.405000  0.447200  0.428000  1
  O  O4751  1  0.905000  0.052800  0.072000  1
  O  O4752  1  0.905000  0.947200  0.428000  1
  O  O4753  1  0.523300  0.492100  0.967600  1
  O  O4754  1  0.523300  0.507900  0.532400  1
  O  O4755  1  0.023300  0.992100  0.967600  1
  O  O4756  1  0.023300  0.007900  0.532400  1
  O  O4757  1  0.476700  0.507900  0.032400  1
  O  O4758  1  0.476700  0.492100  0.467600  1
  O  O4759  1  0.976700  0.007900  0.032400  1
  O  O4760  1  0.976700  0.992100  0.467600  1
  O  O4761  1  0.876000  0.790600  0.357600  1
  O  O4762  1  0.876000  0.209400  0.142400  1
  O  O4763  1  0.376000  0.290600  0.357600  1
  O  O4764  1  0.376000  0.709400  0.142400  1
  O  O4765  1  0.124000  0.209400  0.642400  1
  O  O4766  1  0.124000  0.790600  0.857600  1
  O  O4767  1  0.624000  0.709400  0.642400  1
  O  O4768  1  0.624000  0.290600  0.857600  1
  O  O4769  1  0.880000  0.798200  0.409500  1
  O  O4770  1  0.880000  0.201800  0.090500  1
  O  O4771  1  0.380000  0.298200  0.409500  1
  O  O4772  1  0.380000  0.701800  0.090500  1
  O  O4773  1  0.120000  0.201800  0.590500  1
  O  O4774  1  0.120000  0.798200  0.909500  1
  O  O4775  1  0.620000  0.701800  0.590500  1
  O  O4776  1  0.620000  0.298200  0.909500  1
  O  O4777  1  0.713000  0.803800  0.431600  1
  O  O4778  1  0.713000  0.196200  0.068400  1
  O  O4779  1  0.213000  0.303800  0.431600  1
  O  O4780  1  0.213000  0.696200  0.068400  1
  O  O4781  1  0.287000  0.196200  0.568400  1
  O  O4782  1  0.287000  0.803800  0.931600  1
  O  O4783  1  0.787000  0.696200  0.568400  1
  O  O4784  1  0.787000  0.303800  0.931600  1
  O  O4785  1  0.650000  0.770000  0.386400  1
  O  O4786  1  0.650000  0.230000  0.113600  1
  O  O4787  1  0.150000  0.270000  0.386400  1
  O  O4788  1  0.150000  0.730000  0.113600  1
  O  O4789  1  0.350000  0.230000  0.613600  1
  O  O4790  1  0.350000  0.770000  0.886400  1
  O  O4791  1  0.850000  0.730000  0.613600  1
  O  O4792  1  0.850000  0.270000  0.886400  1
  O  O4793  1  0.628000  0.713900  0.321600  1
  O  O4794  1  0.628000  0.286100  0.178400  1
  O  O4795  1  0.128000  0.213900  0.321600  1
  O  O4796  1  0.128000  0.786100  0.178400  1
  O  O4797  1  0.372000  0.286100  0.678400  1
  O  O4798  1  0.372000  0.713900  0.821600  1
  O  O4799  1  0.872000  0.786100  0.678400  1
  O  O4800  1  0.872000  0.213900  0.821600  1
  O  O4801  1  0.621000  0.690500  0.271200  1
  O  O4802  1  0.621000  0.309500  0.228800  1
  O  O4803  1  0.121000  0.190500  0.271200  1
  O  O4804  1  0.121000  0.809500  0.228800  1
  O  O4805  1  0.379000  0.309500  0.728800  1
  O  O4806  1  0.379000  0.690500  0.771200  1
  O  O4807  1  0.879000  0.809500  0.728800  1
  O  O4808  1  0.879000  0.190500  0.771200  1
  O  O4809  1  0.243000  0.819300  0.010400  1
  O  O4810  1  0.243000  0.180700  0.489600  1
  O  O4811  1  0.743000  0.319300  0.010400  1
  O  O4812  1  0.743000  0.680700  0.489600  1
  O  O4813  1  0.757000  0.180700  0.989600  1
  O  O4814  1  0.757000  0.819300  0.510400  1
  O  O4815  1  0.257000  0.680700  0.989600  1
  O  O4816  1  0.257000  0.319300  0.510400  1
  O  O4817  1  0.202600  0.874200  0.023200  1
  O  O4818  1  0.202600  0.125800  0.476800  1
  O  O4819  1  0.702600  0.374200  0.023200  1
  O  O4820  1  0.702600  0.625800  0.476800  1
  O  O4821  1  0.797400  0.125800  0.976800  1
  O  O4822  1  0.797400  0.874200  0.523200  1
  O  O4823  1  0.297400  0.625800  0.976800  1
  O  O4824  1  0.297400  0.374200  0.523200  1
  O  O4825  1  0.133000  0.932500  0.073700  1
  O  O4826  1  0.133000  0.067500  0.426300  1
  O  O4827  1  0.633000  0.432500  0.073700  1
  O  O4828  1  0.633000  0.567500  0.426300  1
  O  O4829  1  0.867000  0.067500  0.926300  1
  O  O4830  1  0.867000  0.932500  0.573700  1
  O  O4831  1  0.367000  0.567500  0.926300  1
  O  O4832  1  0.367000  0.432500  0.573700  1
  O  O4833  1  0.220000  0.908500  0.100000  1
  O  O4834  1  0.220000  0.091500  0.400000  1
  O  O4835  1  0.720000  0.408500  0.100000  1
  O  O4836  1  0.720000  0.591500  0.400000  1
  O  O4837  1  0.780000  0.091500  0.900000  1
  O  O4838  1  0.780000  0.908500  0.600000  1
  O  O4839  1  0.280000  0.591500  0.900000  1
  O  O4840  1  0.280000  0.408500  0.600000  1
  O  O4841  1  0.274400  0.839500  0.088100  1
  O  O4842  1  0.274400  0.160500  0.411900  1
  O  O4843  1  0.774400  0.339500  0.088100  1
  O  O4844  1  0.774400  0.660500  0.411900  1
  O  O4845  1  0.725600  0.160500  0.911900  1
  O  O4846  1  0.725600  0.839500  0.588100  1
  O  O4847  1  0.225600  0.660500  0.911900  1
  O  O4848  1  0.225600  0.339500  0.588100  1
  O  O4849  1  0.258400  0.792300  0.089200  1
  O  O4850  1  0.258400  0.207700  0.410800  1
  O  O4851  1  0.758400  0.292300  0.089200  1
  O  O4852  1  0.758400  0.707700  0.410800  1
  O  O4853  1  0.741600  0.207700  0.910800  1
  O  O4854  1  0.741600  0.792300  0.589200  1
  O  O4855  1  0.241600  0.707700  0.910800  1
  O  O4856  1  0.241600  0.292300  0.589200  1
  O  O4857  1  0.787500  0.638200  0.914000  1
  O  O4858  1  0.787500  0.361800  0.586000  1
  O  O4859  1  0.287500  0.138200  0.914000  1
  O  O4860  1  0.287500  0.861800  0.586000  1
  O  O4861  1  0.212500  0.361800  0.086000  1
  O  O4862  1  0.212500  0.638200  0.414000  1
  O  O4863  1  0.712500  0.861800  0.086000  1
  O  O4864  1  0.712500  0.138200  0.414000  1
  O  O4865  1  0.656600  0.626300  0.878000  1
  O  O4866  1  0.656600  0.373700  0.622000  1
  O  O4867  1  0.156600  0.126300  0.878000  1
  O  O4868  1  0.156600  0.873700  0.622000  1
  O  O4869  1  0.343400  0.373700  0.122000  1
  O  O4870  1  0.343400  0.626300  0.378000  1
  O  O4871  1  0.843400  0.873700  0.122000  1
  O  O4872  1  0.843400  0.126300  0.378000  1
  O  O4873  1  0.501100  0.615700  0.860200  1
  O  O4874  1  0.501100  0.384300  0.639800  1
  O  O4875  1  0.001100  0.115700  0.860200  1
  O  O4876  1  0.001100  0.884300  0.639800  1
  O  O4877  1  0.498900  0.384300  0.139800  1
  O  O4878  1  0.498900  0.615700  0.360200  1
  O  O4879  1  0.998900  0.884300  0.139800  1
  O  O4880  1  0.998900  0.115700  0.360200  1
  O  O4881  1  0.408200  0.609700  0.825000  1
  O  O4882  1  0.408200  0.390300  0.675000  1
  O  O4883  1  0.908200  0.109700  0.825000  1
  O  O4884  1  0.908200  0.890300  0.675000  1
  O  O4885  1  0.591800  0.390300  0.175000  1
  O  O4886  1  0.591800  0.609700  0.325000  1
  O  O4887  1  0.091800  0.890300  0.175000  1
  O  O4888  1  0.091800  0.109700  0.325000  1
  O  O4889  1  0.395000  0.667600  0.830900  1
  O  O4890  1  0.395000  0.332400  0.669100  1
  O  O4891  1  0.895000  0.167600  0.830900  1
  O  O4892  1  0.895000  0.832400  0.669100  1
  O  O4893  1  0.605000  0.332400  0.169100  1
  O  O4894  1  0.605000  0.667600  0.330900  1
  O  O4895  1  0.105000  0.832400  0.169100  1
  O  O4896  1  0.105000  0.167600  0.330900  1
  O  O4897  1  0.488000  0.694700  0.871900  1
  O  O4898  1  0.488000  0.305300  0.628100  1
  O  O4899  1  0.988000  0.194700  0.871900  1
  O  O4900  1  0.988000  0.805300  0.628100  1
  O  O4901  1  0.512000  0.305300  0.128100  1
  O  O4902  1  0.512000  0.694700  0.371900  1
  O  O4903  1  0.012000  0.805300  0.128100  1
  O  O4904  1  0.012000  0.194700  0.371900  1
  O  O4905  1  0.113000  0.556400  0.137600  1
  O  O4906  1  0.113000  0.443600  0.362400  1
  O  O4907  1  0.613000  0.056400  0.137600  1
  O  O4908  1  0.613000  0.943600  0.362400  1
  O  O4909  1  0.887000  0.443600  0.862400  1
  O  O4910  1  0.887000  0.556400  0.637600  1
  O  O4911  1  0.387000  0.943600  0.862400  1
  O  O4912  1  0.387000  0.056400  0.637600  1
  O  O4913  1  0.059000  0.515900  0.154900  1
  O  O4914  1  0.059000  0.484100  0.345100  1
  O  O4915  1  0.559000  0.015900  0.154900  1
  O  O4916  1  0.559000  0.984100  0.345100  1
  O  O4917  1  0.941000  0.484100  0.845100  1
  O  O4918  1  0.941000  0.515900  0.654900  1
  O  O4919  1  0.441000  0.984100  0.845100  1
  O  O4920  1  0.441000  0.015900  0.654900  1
  O  O4921  1  0.992000  0.471100  0.157900  1
  O  O4922  1  0.992000  0.528900  0.342100  1
  O  O4923  1  0.492000  0.971100  0.157900  1
  O  O4924  1  0.492000  0.028900  0.342100  1
  O  O4925  1  0.008000  0.528900  0.842100  1
  O  O4926  1  0.008000  0.471100  0.657900  1
  O  O4927  1  0.508000  0.028900  0.842100  1
  O  O4928  1  0.508000  0.971100  0.657900  1
  O  O4929  1  0.062000  0.431900  0.156500  1
  O  O4930  1  0.062000  0.568100  0.343500  1
  O  O4931  1  0.562000  0.931900  0.156500  1
  O  O4932  1  0.562000  0.068100  0.343500  1
  O  O4933  1  0.938000  0.568100  0.843500  1
  O  O4934  1  0.938000  0.431900  0.656500  1
  O  O4935  1  0.438000  0.068100  0.843500  1
  O  O4936  1  0.438000  0.931900  0.656500  1
  O  O4937  1  0.167000  0.444200  0.123200  1
  O  O4938  1  0.167000  0.555800  0.376800  1
  O  O4939  1  0.667000  0.944200  0.123200  1
  O  O4940  1  0.667000  0.055800  0.376800  1
  O  O4941  1  0.833000  0.555800  0.876800  1
  O  O4942  1  0.833000  0.444200  0.623200  1
  O  O4943  1  0.333000  0.055800  0.876800  1
  O  O4944  1  0.333000  0.944200  0.623200  1
  O  O4945  1  0.124900  0.453800  0.085900  1
  O  O4946  1  0.124900  0.546200  0.414100  1
  O  O4947  1  0.624900  0.953800  0.085900  1
  O  O4948  1  0.624900  0.046200  0.414100  1
  O  O4949  1  0.875100  0.546200  0.914100  1
  O  O4950  1  0.875100  0.453800  0.585900  1
  O  O4951  1  0.375100  0.046200  0.914100  1
  O  O4952  1  0.375100  0.953800  0.585900  1
  O  O4953  1  0.889000  0.869800  0.198600  1
  O  O4954  1  0.889000  0.130200  0.301400  1
  O  O4955  1  0.389000  0.369800  0.198600  1
  O  O4956  1  0.389000  0.630200  0.301400  1
  O  O4957  1  0.111000  0.130200  0.801400  1
  O  O4958  1  0.111000  0.869800  0.698600  1
  O  O4959  1  0.611000  0.630200  0.801400  1
  O  O4960  1  0.611000  0.369800  0.698600  1
  O  O4961  1  0.740000  0.918600  0.233000  1
  O  O4962  1  0.740000  0.081400  0.267000  1
  O  O4963  1  0.240000  0.418600  0.233000  1
  O  O4964  1  0.240000  0.581400  0.267000  1
  O  O4965  1  0.260000  0.081400  0.767000  1
  O  O4966  1  0.260000  0.918600  0.733000  1
  O  O4967  1  0.760000  0.581400  0.767000  1
  O  O4968  1  0.760000  0.418600  0.733000  1
  O  O4969  1  0.692000  0.964300  0.248400  1
  O  O4970  1  0.692000  0.035700  0.251600  1
  O  O4971  1  0.192000  0.464300  0.248400  1
  O  O4972  1  0.192000  0.535700  0.251600  1
  O  O4973  1  0.308000  0.035700  0.751600  1
  O  O4974  1  0.308000  0.964300  0.748400  1
  O  O4975  1  0.808000  0.535700  0.751600  1
  O  O4976  1  0.808000  0.464300  0.748400  1
  O  O4977  1  0.741000  0.982300  0.297700  1
  O  O4978  1  0.741000  0.017700  0.202300  1
  O  O4979  1  0.241000  0.482300  0.297700  1
  O  O4980  1  0.241000  0.517700  0.202300  1
  O  O4981  1  0.259000  0.017700  0.702300  1
  O  O4982  1  0.259000  0.982300  0.797700  1
  O  O4983  1  0.759000  0.517700  0.702300  1
  O  O4984  1  0.759000  0.482300  0.797700  1
  O  O4985  1  0.895000  0.961000  0.306800  1
  O  O4986  1  0.895000  0.039000  0.193200  1
  O  O4987  1  0.395000  0.461000  0.306800  1
  O  O4988  1  0.395000  0.539000  0.193200  1
  O  O4989  1  0.105000  0.039000  0.693200  1
  O  O4990  1  0.105000  0.961000  0.806800  1
  O  O4991  1  0.605000  0.539000  0.693200  1
  O  O4992  1  0.605000  0.461000  0.806800  1
  O  O4993  1  0.940000  0.909800  0.291000  1
  O  O4994  1  0.940000  0.090200  0.209000  1
  O  O4995  1  0.440000  0.409800  0.291000  1
  O  O4996  1  0.440000  0.590200  0.209000  1
  O  O4997  1  0.060000  0.090200  0.709000  1
  O  O4998  1  0.060000  0.909800  0.791000  1
  O  O4999  1  0.560000  0.590200  0.709000  1
  O  O5000  1  0.560000  0.409800  0.791000  1
  O  O5001  1  0.938000  0.353900  0.953000  1
  O  O5002  1  0.938000  0.646100  0.547000  1
  O  O5003  1  0.438000  0.853900  0.953000  1
  O  O5004  1  0.438000  0.146100  0.547000  1
  O  O5005  1  0.062000  0.646100  0.047000  1
  O  O5006  1  0.062000  0.353900  0.453000  1
  O  O5007  1  0.562000  0.146100  0.047000  1
  O  O5008  1  0.562000  0.853900  0.453000  1
  O  O5009  1  0.906800  0.738600  0.116700  1
  O  O5010  1  0.906800  0.261400  0.383300  1
  O  O5011  1  0.406800  0.238600  0.116700  1
  O  O5012  1  0.406800  0.761400  0.383300  1
  O  O5013  1  0.093200  0.261400  0.883300  1
  O  O5014  1  0.093200  0.738600  0.616700  1
  O  O5015  1  0.593200  0.761400  0.883300  1
  O  O5016  1  0.593200  0.238600  0.616700  1
  O  O5017  1  0.882000  0.692800  0.089600  1
  O  O5018  1  0.882000  0.307200  0.410400  1
  O  O5019  1  0.382000  0.192800  0.089600  1
  O  O5020  1  0.382000  0.807200  0.410400  1
  O  O5021  1  0.118000  0.307200  0.910400  1
  O  O5022  1  0.118000  0.692800  0.589600  1
  O  O5023  1  0.618000  0.807200  0.910400  1
  O  O5024  1  0.618000  0.192800  0.589600  1
  O  O5025  1  0.757000  0.732300  0.959600  1
  O  O5026  1  0.757000  0.267700  0.540400  1
  O  O5027  1  0.257000  0.232300  0.959600  1
  O  O5028  1  0.257000  0.767700  0.540400  1
  O  O5029  1  0.243000  0.267700  0.040400  1
  O  O5030  1  0.243000  0.732300  0.459600  1
  O  O5031  1  0.743000  0.767700  0.040400  1
  O  O5032  1  0.743000  0.232300  0.459600  1
  O  O5033  1  0.927100  0.561800  0.013700  1
  O  O5034  1  0.927100  0.438200  0.486300  1
  O  O5035  1  0.427100  0.061800  0.013700  1
  O  O5036  1  0.427100  0.938200  0.486300  1
  O  O5037  1  0.072900  0.438200  0.986300  1
  O  O5038  1  0.072900  0.561800  0.513700  1
  O  O5039  1  0.572900  0.938200  0.986300  1
  O  O5040  1  0.572900  0.061800  0.513700  1
  O  O5041  1  0.737000  0.687800  0.917800  1
  O  O5042  1  0.737000  0.312200  0.582200  1
  O  O5043  1  0.237000  0.187800  0.917800  1
  O  O5044  1  0.237000  0.812200  0.582200  1
  O  O5045  1  0.263000  0.312200  0.082200  1
  O  O5046  1  0.263000  0.687800  0.417800  1
  O  O5047  1  0.763000  0.812200  0.082200  1
  O  O5048  1  0.763000  0.187800  0.417800  1
  O  O5049  1  0.012000  0.400800  0.164700  1
  O  O5050  1  0.012000  0.599200  0.335300  1
  O  O5051  1  0.512000  0.900800  0.164700  1
  O  O5052  1  0.512000  0.099200  0.335300  1
  O  O5053  1  0.988000  0.599200  0.835300  1
  O  O5054  1  0.988000  0.400800  0.664700  1
  O  O5055  1  0.488000  0.099200  0.835300  1
  O  O5056  1  0.488000  0.900800  0.664700  1
  O  O5057  1  0.842000  0.805200  0.408700  1
  O  O5058  1  0.842000  0.194800  0.091300  1
  O  O5059  1  0.342000  0.305200  0.408700  1
  O  O5060  1  0.342000  0.694800  0.091300  1
  O  O5061  1  0.158000  0.194800  0.591300  1
  O  O5062  1  0.158000  0.805200  0.908700  1
  O  O5063  1  0.658000  0.694800  0.591300  1
  O  O5064  1  0.658000  0.305200  0.908700  1
  O  O5065  1  0.681000  0.772600  0.407400  1
  O  O5066  1  0.681000  0.227400  0.092600  1
  O  O5067  1  0.181000  0.272600  0.407400  1
  O  O5068  1  0.181000  0.727400  0.092600  1
  O  O5069  1  0.319000  0.227400  0.592600  1
  O  O5070  1  0.319000  0.772600  0.907400  1
  O  O5071  1  0.819000  0.727400  0.592600  1
  O  O5072  1  0.819000  0.272600  0.907400  1
  O  O5073  1  0.685000  0.790200  0.376300  1
  O  O5074  1  0.685000  0.209800  0.123700  1
  O  O5075  1  0.185000  0.290200  0.376300  1
  O  O5076  1  0.185000  0.709800  0.123700  1
  O  O5077  1  0.315000  0.209800  0.623700  1
  O  O5078  1  0.315000  0.790200  0.876300  1
  O  O5079  1  0.815000  0.709800  0.623700  1
  O  O5080  1  0.815000  0.290200  0.876300  1
  O  O5081  1  0.677000  0.730700  0.323800  1
  O  O5082  1  0.677000  0.269300  0.176200  1
  O  O5083  1  0.177000  0.230700  0.323800  1
  O  O5084  1  0.177000  0.769300  0.176200  1
  O  O5085  1  0.323000  0.269300  0.676200  1
  O  O5086  1  0.323000  0.730700  0.823800  1
  O  O5087  1  0.823000  0.769300  0.676200  1
  O  O5088  1  0.823000  0.230700  0.823800  1
  O  O5089  1  0.643000  0.690000  0.273000  1
  O  O5090  1  0.643000  0.310000  0.227000  1
  O  O5091  1  0.143000  0.190000  0.273000  1
  O  O5092  1  0.143000  0.810000  0.227000  1
  O  O5093  1  0.357000  0.310000  0.727000  1
  O  O5094  1  0.357000  0.690000  0.773000  1
  O  O5095  1  0.857000  0.810000  0.727000  1
  O  O5096  1  0.857000  0.190000  0.773000  1
  O  O5097  1  0.873000  0.871500  0.200700  1
  O  O5098  1  0.873000  0.128500  0.299300  1
  O  O5099  1  0.373000  0.371500  0.200700  1
  O  O5100  1  0.373000  0.628500  0.299300  1
  O  O5101  1  0.127000  0.128500  0.799300  1
  O  O5102  1  0.127000  0.871500  0.700700  1
  O  O5103  1  0.627000  0.628500  0.799300  1
  O  O5104  1  0.627000  0.371500  0.700700  1
  O  O5105  1  0.958000  0.934700  0.233000  1
  O  O5106  1  0.958000  0.065300  0.267000  1
  O  O5107  1  0.458000  0.434700  0.233000  1
  O  O5108  1  0.458000  0.565300  0.267000  1
  O  O5109  1  0.042000  0.065300  0.767000  1
  O  O5110  1  0.042000  0.934700  0.733000  1
  O  O5111  1  0.542000  0.565300  0.767000  1
  O  O5112  1  0.542000  0.434700  0.733000  1
  O  O5113  1  0.852000  0.958500  0.265100  1
  O  O5114  1  0.852000  0.041500  0.234900  1
  O  O5115  1  0.352000  0.458500  0.265100  1
  O  O5116  1  0.352000  0.541500  0.234900  1
  O  O5117  1  0.148000  0.041500  0.734900  1
  O  O5118  1  0.148000  0.958500  0.765100  1
  O  O5119  1  0.648000  0.541500  0.734900  1
  O  O5120  1  0.648000  0.458500  0.765100  1
  O  O5121  1  0.966000  0.986900  0.290900  1
  O  O5122  1  0.966000  0.013100  0.209100  1
  O  O5123  1  0.466000  0.486900  0.290900  1
  O  O5124  1  0.466000  0.513100  0.209100  1
  O  O5125  1  0.034000  0.013100  0.709100  1
  O  O5126  1  0.034000  0.986900  0.790900  1
  O  O5127  1  0.534000  0.513100  0.709100  1
  O  O5128  1  0.534000  0.486900  0.790900  1
  O  O5129  1  0.070000  0.966800  0.325600  1
  O  O5130  1  0.070000  0.033200  0.174400  1
  O  O5131  1  0.570000  0.466800  0.325600  1
  O  O5132  1  0.570000  0.533200  0.174400  1
  O  O5133  1  0.930000  0.033200  0.674400  1
  O  O5134  1  0.930000  0.966800  0.825600  1
  O  O5135  1  0.430000  0.533200  0.674400  1
  O  O5136  1  0.430000  0.466800  0.825600  1
  O  O5137  1  0.974000  0.907600  0.287800  1
  O  O5138  1  0.974000  0.092400  0.212200  1
  O  O5139  1  0.474000  0.407600  0.287800  1
  O  O5140  1  0.474000  0.592400  0.212200  1
  O  O5141  1  0.026000  0.092400  0.712200  1
  O  O5142  1  0.026000  0.907600  0.787800  1
  O  O5143  1  0.526000  0.592400  0.712200  1
  O  O5144  1  0.526000  0.407600  0.787800  1
  O  O5145  1  0.814000  0.436900  0.929700  1
  O  O5146  1  0.814000  0.563100  0.570300  1
  O  O5147  1  0.314000  0.936900  0.929700  1
  O  O5148  1  0.314000  0.063100  0.570300  1
  O  O5149  1  0.186000  0.563100  0.070300  1
  O  O5150  1  0.186000  0.436900  0.429700  1
  O  O5151  1  0.686000  0.063100  0.070300  1
  O  O5152  1  0.686000  0.936900  0.429700  1
  O  O5153  1  0.661000  0.909700  0.188400  1
  O  O5154  1  0.661000  0.090300  0.311600  1
  O  O5155  1  0.161000  0.409700  0.188400  1
  O  O5156  1  0.161000  0.590300  0.311600  1
  O  O5157  1  0.339000  0.090300  0.811600  1
  O  O5158  1  0.339000  0.909700  0.688400  1
  O  O5159  1  0.839000  0.590300  0.811600  1
  O  O5160  1  0.839000  0.409700  0.688400  1
  O  O5161  1  0.164000  0.938000  0.305400  1
  O  O5162  1  0.164000  0.062000  0.194600  1
  O  O5163  1  0.664000  0.438000  0.305400  1
  O  O5164  1  0.664000  0.562000  0.194600  1
  O  O5165  1  0.836000  0.062000  0.694600  1
  O  O5166  1  0.836000  0.938000  0.805400  1
  O  O5167  1  0.336000  0.562000  0.694600  1
  O  O5168  1  0.336000  0.438000  0.805400  1
  O  O5169  1  0.017000  0.932900  0.262400  1
  O  O5170  1  0.017000  0.067100  0.237600  1
  O  O5171  1  0.517000  0.432900  0.262400  1
  O  O5172  1  0.517000  0.567100  0.237600  1
  O  O5173  1  0.983000  0.067100  0.737600  1
  O  O5174  1  0.983000  0.932900  0.762400  1
  O  O5175  1  0.483000  0.567100  0.737600  1
  O  O5176  1  0.483000  0.432900  0.762400  1
