
#######################################################################
#
#                 Cambridge Crystallographic Data Centre
#                                CCDC 
#
#######################################################################
#
# If this CIF has been generated from an entry in the Cambridge 
# Structural Database, then it will include bibliographic, chemical, 
# crystal, experimental, refinement or atomic coordinate data resulting 
# from the CCDC's data processing and validation procedures.
#
#######################################################################

data_AVELIY
_chemical_formula_moiety         'C192 H150 Fe6 N36 O12 S6 6+,6(F6 P1 1-)'
_chemical_name_systematic        
"tris(\m-3,3'-bipyridine-6,6'-diylbis(N-(4-methoxyphenyl)methanimine))-tris(\m-3,3':6',2'':5'',3'''-quaterpyridine-6,6'''-diylbis(N-(4-methoxyphenyl)methanimine))-hexakis(isothiocyanato)-hexa-iron hexakis(hexafluorophosphate) unknown solvate"
_symmetry_cell_setting           monoclinic
_symmetry_space_group_name_H-M   'C c'
_symmetry_Int_Tables_number      9
_space_group_name_Hall           'C -2yc'
loop_
_symmetry_equiv_pos_site_id
_symmetry_equiv_pos_as_xyz
1 x,y,z
2 x,-y,1/2+z
3 1/2+x,1/2+y,z
4 1/2+x,1/2-y,1/2+z
_cell_length_a                   42.114(3)
_cell_length_b                   54.516(3)
_cell_length_c                   14.0878(9)
_cell_angle_alpha                90
_cell_angle_beta                 107.763(4)
_cell_angle_gamma                90
_cell_volume                     30802
_exptl_crystal_colour            purple
_exptl_crystal_description       block
_cell_formula_units_Z            4
loop_
_atom_site_label
_atom_site_type_symbol
_atom_site_fract_x
_atom_site_fract_y
_atom_site_fract_z
Fe1 Fe 0.77885(8) 0.13717(5) 0.51519(19)
Fe2 Fe 1.00620(8) 0.12555(5) 0.50668(19)
Fe3 Fe 1.08366(9) 0.25207(7) 0.5379(2)
Fe4 Fe 0.88416(8) 0.02138(5) 0.5143(2)
Fe5 Fe 0.72013(10) 0.27330(7) 0.4973(3)
Fe6 Fe 0.90435(10) 0.28285(5) 0.5221(2)
N1 N 0.8455(3) 0.0233(2) 0.5745(8)
C1 C 0.8458(3) 0.0060(2) 0.6438(9)
C2 C 0.8210(4) 0.0040(2) 0.6903(11)
H1 H 0.8208 -0.0093 0.7340
C3 C 0.7966(4) 0.0219(2) 0.6701(10)
H2 H 0.7794 0.0212 0.7007
C4 C 0.7972(4) 0.0411(2) 0.6052(10)
C5 C 0.8214(4) 0.0408(3) 0.5570(11)
H3 H 0.8212 0.0533 0.5099
C6 C 0.7735(4) 0.0619(2) 0.5876(11)
C7 C 0.7841(4) 0.0851(2) 0.5678(12)
H4 H 0.8067 0.0868 0.5692
N2 N 0.7647(3) 0.1050(2) 0.5471(10)
C8 C 0.7329(4) 0.1028(2) 0.5478(11)
C9 C 0.7199(4) 0.0808(2) 0.5676(14)
H5 H 0.6974 0.0797 0.5674
C10 C 0.7405(4) 0.0602(3) 0.5879(14)
H6 H 0.7320 0.0450 0.6021
C11 C 0.7144(4) 0.1266(2) 0.5225(12)
N3 N 0.7331(4) 0.1440(2) 0.4959(11)
C12 C 0.7189(4) 0.1666(3) 0.4741(12)
H7 H 0.7310 0.1789 0.4526
C13 C 0.6876(4) 0.1725(2) 0.4817(12)
C14 C 0.6695(4) 0.1539(3) 0.5090(14)
H8 H 0.6478 0.1572 0.5128
C15 C 0.6831(4) 0.1305(3) 0.5308(15)
H9 H 0.6711 0.1177 0.5506
C16 C 0.6758(4) 0.1981(2) 0.4615(11)
C17 C 0.6975(4) 0.2182(3) 0.4778(12)
H10 H 0.7206 0.2150 0.5075
N4 N 0.6885(4) 0.2414(2) 0.4552(10)
C18 C 0.6560(4) 0.2456(2) 0.4117(11)
C19 C 0.6319(4) 0.2275(3) 0.3959(14)
H11 H 0.6090 0.2313 0.3676
C20 C 0.6420(4) 0.2035(3) 0.4221(14)
H12 H 0.6259 0.1908 0.4133
C21 C 0.8757(4) -0.0094(3) 0.6706(11)
H13 H 0.8785 -0.0220 0.7193
N5 N 0.8977(3) -0.0058(3) 0.6280(10)
C22 C 0.9256(3) -0.0219(2) 0.6423(10)
C23 C 0.9570(4) -0.0125(3) 0.6502(12)
H14 H 0.9600 0.0048 0.6500
C24 C 0.9840(4) -0.0277(3) 0.6584(14)
H15 H 1.0052 -0.0210 0.6617
C25 C 0.9796(4) -0.0528(3) 0.6616(13)
C26 C 0.9487(4) -0.0624(3) 0.6553(14)
H16 H 0.9459 -0.0797 0.6568
C27 C 0.9218(4) -0.0473(3) 0.6468(12)
H17 H 0.9007 -0.0540 0.6441
O1 O 1.0056(4) -0.0689(3) 0.6681(14)
C28 C 1.0363(6) -0.0578(5) 0.664(3)
H18 H 1.0531 -0.0706 0.6689
H19 H 1.0322 -0.0491 0.6004
H20 H 1.0443 -0.0462 0.7191
C29 C 0.6473(5) 0.2711(3) 0.3829(14)
H21 H 0.6246 0.2751 0.3505
N6 N 0.6688(5) 0.2878(3) 0.3999(12)
C30 C 0.6582(5) 0.3123(3) 0.3726(14)
C31 C 0.6254(5) 0.3203(3) 0.3544(16)
H22 H 0.6089 0.3092 0.3611
C32 C 0.6166(5) 0.3443(3) 0.3267(17)
H23 H 0.5941 0.3494 0.3145
C33 C 0.6400(5) 0.3610(3) 0.3165(16)
C34 C 0.6726(5) 0.3532(3) 0.3352(19)
H24 H 0.6889 0.3645 0.3284
C35 C 0.6819(5) 0.3292(3) 0.3638(17)
H25 H 0.7045 0.3243 0.3772
O2 O 0.6299(5) 0.3845(3) 0.2862(17)
C36 C 0.6543(9) 0.4014(5) 0.274(3)
H26 H 0.6437 0.4173 0.2526
H27 H 0.6718 0.4034 0.3380
H28 H 0.6640 0.3952 0.2241
N7 N 0.7486(4) 0.3046(3) 0.5502(13)
C37 C 0.7398(4) 0.3196(3) 0.6149(13)
C38 C 0.7574(5) 0.3402(4) 0.6590(16)
H29 H 0.7491 0.3507 0.6997
C39 C 0.7876(5) 0.3450(3) 0.6415(16)
H30 H 0.8007 0.3587 0.6717
C40 C 0.7983(4) 0.3294(3) 0.5793(14)
C41 C 0.7776(5) 0.3099(3) 0.5359(15)
H31 H 0.7848 0.2996 0.4922
C42 C 0.8310(4) 0.3319(3) 0.5628(14)
C43 C 0.8491(4) 0.3111(3) 0.5561(16)
H32 H 0.8394 0.2957 0.5620
N8 N 0.8790(4) 0.3111(2) 0.5421(14)
C44 C 0.8922(4) 0.3333(3) 0.5339(15)
C45 C 0.8762(5) 0.3552(3) 0.5384(18)
H33 H 0.8862 0.3704 0.5309
C46 C 0.8452(5) 0.3546(3) 0.5539(18)
H34 H 0.8339 0.3694 0.5584
C47 C 0.9252(4) 0.3319(3) 0.5155(16)
N9 N 0.9337(4) 0.3083(2) 0.5050(15)
C48 C 0.9631(5) 0.3049(3) 0.4904(17)
H35 H 0.9696 0.2885 0.4839
C49 C 0.9851(4) 0.3233(3) 0.4837(16)
C50 C 0.9749(5) 0.3473(3) 0.490(2)
H36 H 0.9884 0.3606 0.4818
C51 C 0.9447(5) 0.3517(3) 0.508(2)
H37 H 0.9378 0.3680 0.5160
C52 C 1.0174(4) 0.3157(3) 0.4716(15)
C53 C 1.0336(5) 0.2938(3) 0.5094(16)
H38 H 1.0249 0.2844 0.5527
N10 N 1.0604(5) 0.2853(3) 0.4886(13)
C54 C 1.0731(5) 0.2985(3) 0.4283(14)
C55 C 1.0597(5) 0.3212(4) 0.3918(18)
H39 H 1.0698 0.3308 0.3525
C56 C 1.0317(5) 0.3297(4) 0.4129(18)
H40 H 1.0223 0.3451 0.3875
C57 C 0.7104(5) 0.3114(4) 0.6421(16)
H41 H 0.7010 0.3210 0.6829
N11 N 0.6981(5) 0.2904(4) 0.6072(14)
C58 C 0.6688(5) 0.2810(4) 0.6220(15)
C59 C 0.6661(5) 0.2566(4) 0.6463(17)
H42 H 0.6852 0.2464 0.6643
C60 C 0.6352(6) 0.2472(4) 0.6443(17)
H43 H 0.6328 0.2304 0.6590
C61 C 0.6080(5) 0.2628(5) 0.6207(15)
C62 C 0.6108(5) 0.2874(5) 0.6003(17)
H44 H 0.5919 0.2978 0.5865
C63 C 0.6413(6) 0.2965(4) 0.6002(16)
H45 H 0.6435 0.3133 0.5853
O3 O 0.5765(5) 0.2551(5) 0.6140(17)
C64 C 0.5729(9) 0.2299(5) 0.635(3)
H46 H 0.5494 0.2264 0.6284
H47 H 0.5801 0.2196 0.5886
H48 H 0.5866 0.2262 0.7037
C65 C 1.1006(5) 0.2862(4) 0.4025(17)
H49 H 1.1127 0.2950 0.3665
N12 N 1.1082(5) 0.2644(4) 0.4273(15)
C66 C 1.1327(5) 0.2490(4) 0.4092(15)
C67 C 1.1236(5) 0.2256(4) 0.3749(16)
H50 H 1.1011 0.2204 0.3625
C68 C 1.1469(5) 0.2094(4) 0.3584(17)
H51 H 1.1404 0.1935 0.3323
C69 C 1.1794(5) 0.2170(4) 0.3808(15)
C70 C 1.1891(5) 0.2403(4) 0.4155(18)
H52 H 1.2118 0.2450 0.4309
C71 C 1.1655(5) 0.2567(4) 0.4277(18)
H53 H 1.1717 0.2730 0.4487
O4 O 1.2017(5) 0.2002(4) 0.3674(15)
C72 C 1.2354(6) 0.2079(7) 0.396(3)
H54 H 1.2493 0.1946 0.3834
H55 H 1.2375 0.2223 0.3570
H56 H 1.2427 0.2120 0.4670
N13 N 1.1105(3) 0.2192(2) 0.5760(10)
C73 C 1.1434(3) 0.2220(2) 0.6256(11)
C74 C 1.1662(4) 0.2030(3) 0.6450(13)
H57 H 1.1892 0.2059 0.6776
C75 C 1.1546(4) 0.1794(3) 0.6155(13)
H58 H 1.1696 0.1660 0.6264
C76 C 1.1206(4) 0.1758(2) 0.5699(11)
C77 C 1.1005(4) 0.1965(2) 0.5508(11)
H59 H 1.0776 0.1941 0.5165
C78 C 1.1046(4) 0.1514(2) 0.5483(12)
C79 C 1.0725(4) 0.1488(3) 0.5535(13)
H60 H 1.0624 0.1623 0.5758
N14 N 1.0551(3) 0.1281(2) 0.5287(11)
C80 C 1.0691(3) 0.1083(2) 0.5008(13)
C81 C 1.1014(4) 0.1090(3) 0.4966(16)
H61 H 1.1112 0.0949 0.4775
C82 C 1.1196(4) 0.1310(3) 0.5209(15)
H62 H 1.1419 0.1319 0.5187
C83 C 1.0459(3) 0.0869(2) 0.4726(12)
N15 N 1.0147(3) 0.0917(2) 0.4739(11)
C84 C 0.9927(4) 0.0735(2) 0.4582(11)
H63 H 0.9703 0.0773 0.4535
C85 C 1.0012(3) 0.0492(2) 0.4484(12)
C86 C 1.0334(4) 0.0445(3) 0.4474(14)
H64 H 1.0401 0.0281 0.4411
C87 C 1.0560(4) 0.0637(2) 0.4554(15)
H65 H 1.0775 0.0608 0.4493
C88 C 0.9757(3) 0.0300(2) 0.4370(11)
C89 C 0.9486(4) 0.0338(3) 0.4710(13)
H66 H 0.9477 0.0487 0.5051
N16 N 0.9232(3) 0.0178(2) 0.4590(10)
C90 C 0.9246(3) -0.0031(2) 0.4099(10)
C91 C 0.9513(3) -0.0090(3) 0.3753(11)
H67 H 0.9519 -0.0242 0.3427
C92 C 0.9769(4) 0.0078(2) 0.3896(12)
H68 H 0.9954 0.0042 0.3668
C93 C 1.1522(5) 0.2472(2) 0.6579(12)
H69 H 1.1746 0.2513 0.6934
N17 N 1.1297(4) 0.2636(2) 0.6384(10)
C94 C 1.1389(5) 0.2884(2) 0.6638(12)
C95 C 1.1146(5) 0.3042(3) 0.6765(14)
H70 H 1.0927 0.2981 0.6660
C96 C 1.1211(5) 0.3283(3) 0.7037(16)
H71 H 1.1041 0.3389 0.7111
C97 C 1.1533(6) 0.3368(3) 0.7199(15)
C98 C 1.1779(5) 0.3217(3) 0.7069(17)
H72 H 1.1998 0.3279 0.7179
C99 C 1.1711(5) 0.2975(3) 0.6778(16)
H73 H 1.1880 0.2872 0.6676
O5 O 1.1610(6) 0.3607(3) 0.7480(16)
C100 C 1.1352(8) 0.3758(5) 0.763(3)
H74 H 1.1439 0.3923 0.7824
H75 H 1.1167 0.3767 0.7003
H76 H 1.1272 0.3687 0.8149
C101 C 0.8956(3) -0.0189(3) 0.3966(12)
H77 H 0.8942 -0.0344 0.3643
N18 N 0.8717(3) -0.0113(3) 0.4302(11)
C102 C 0.8442(3) -0.0272(3) 0.4202(12)
C103 C 0.8133(4) -0.0182(3) 0.4178(14)
H78 H 0.8107 -0.0010 0.4236
C104 C 0.7860(4) -0.0330(3) 0.4074(14)
H79 H 0.7651 -0.0261 0.4054
C105 C 0.7893(4) -0.0581(3) 0.4000(13)
C106 C 0.8201(4) -0.0677(3) 0.4032(16)
H80 H 0.8225 -0.0849 0.3980
C107 C 0.8474(4) -0.0525(3) 0.4139(14)
H81 H 0.8684 -0.0594 0.4170
O6 O 0.7639(4) -0.0747(3) 0.3910(12)
C108 C 0.7327(5) -0.0641(6) 0.391(2)
H82 H 0.7161 -0.0770 0.3845
H83 H 0.7358 -0.0552 0.4539
H84 H 0.7251 -0.0526 0.3352
N19 N 0.8266(3) 0.1289(2) 0.5588(8)
C109 C 0.8402(3) 0.1279(3) 0.6583(8)
C110 C 0.8732(3) 0.1222(3) 0.7035(9)
H85 H 0.8817 0.1207 0.7739
C111 C 0.8937(4) 0.1187(3) 0.6439(9)
H86 H 0.9168 0.1152 0.6731
C112 C 0.8801(3) 0.1203(3) 0.5407(9)
C113 C 0.8464(3) 0.1253(3) 0.5019(11)
H87 H 0.8370 0.1263 0.4316
C114 C 0.9024(3) 0.1179(3) 0.4771(8)
C115 C 0.9366(3) 0.1209(3) 0.5166(10)
H88 H 0.9456 0.1224 0.5869
N20 N 0.9578(3) 0.1216(2) 0.4624(7)
C116 C 0.9441(3) 0.1199(3) 0.3637(8)
C117 C 0.9111(3) 0.1149(3) 0.3166(9)
H89 H 0.9032 0.1120 0.2468
C118 C 0.8895(3) 0.1143(3) 0.3745(8)
H90 H 0.8663 0.1114 0.3445
C119 C 0.8174(4) 0.1355(3) 0.7130(11)
H91 H 0.8236 0.1349 0.7837
C120 C 0.9672(4) 0.1265(3) 0.3079(11)
H92 H 0.9612 0.1259 0.2372
N21 N 0.7882(4) 0.1431(3) 0.6596(10)
N22 N 0.9961(4) 0.1331(3) 0.3627(12)
C121 C 0.7661(4) 0.1503(3) 0.7128(11)
C122 C 1.0198(4) 0.1401(3) 0.3145(13)
C123 C 0.7549(5) 0.1745(3) 0.7091(13)
H93 H 0.7624 0.1866 0.6724
C124 C 1.0319(5) 0.1640(3) 0.3284(15)
H94 H 1.0247 0.1752 0.3693
C125 C 0.7326(5) 0.1804(3) 0.7605(14)
H95 H 0.7238 0.1965 0.7563
C126 C 1.0548(6) 0.1710(4) 0.2808(16)
H96 H 1.0627 0.1874 0.2858
C127 C 0.7231(5) 0.1631(3) 0.8170(13)
C128 C 1.0659(5) 0.1539(4) 0.2261(16)
C129 C 0.7333(6) 0.1387(4) 0.8202(16)
H97 H 0.7258 0.1267 0.8575
C130 C 1.0539(6) 0.1300(4) 0.2123(18)
H98 H 1.0618 0.1187 0.1733
C131 C 0.7547(5) 0.1328(3) 0.7662(14)
H99 H 0.7619 0.1163 0.7659
C132 C 1.0302(6) 0.1232(4) 0.2573(17)
H100 H 1.0212 0.1070 0.2487
O7 O 0.7025(5) 0.1694(4) 0.8717(14)
O8 O 1.0911(6) 0.1604(4) 0.1896(18)
C133 C 0.6903(10) 0.1937(5) 0.865(3)
H101 H 0.6759 0.1956 0.9074
H102 H 0.7090 0.2052 0.8860
H103 H 0.6773 0.1972 0.7953
C134 C 1.1057(10) 0.1424(6) 0.142(3)
H104 H 1.1233 0.1501 0.1200
H105 H 1.1152 0.1292 0.1888
H106 H 1.0886 0.1358 0.0839
N23 N 0.7888(4) 0.1697(2) 0.4694(7)
N24 N 0.7661(4) 0.1307(2) 0.3720(11)
C135 C 0.7778(4) 0.1724(2) 0.3699(8)
C136 C 0.7815(4) 0.1940(2) 0.3234(9)
H107 H 0.7726 0.1956 0.2531
C137 C 0.7983(4) 0.2135(3) 0.3807(9)
H108 H 0.8008 0.2287 0.3505
C138 C 0.8116(4) 0.2102(2) 0.4838(8)
C139 C 0.8055(4) 0.1885(2) 0.5245(10)
H109 H 0.8134 0.1867 0.5949
C140 C 0.8334(4) 0.2287(2) 0.5477(9)
C141 C 0.8529(4) 0.2439(3) 0.5107(11)
H110 H 0.8495 0.2433 0.4409
N25 N 0.8762(4) 0.2593(3) 0.5636(8)
C142 C 0.8800(4) 0.2594(3) 0.6622(9)
C143 C 0.8608(4) 0.2461(3) 0.7083(10)
H111 H 0.8642 0.2475 0.7779
C144 C 0.8365(4) 0.2305(3) 0.6498(9)
H112 H 0.8223 0.2215 0.6780
C145 C 0.7644(5) 0.1495(2) 0.3169(12)
H113 H 0.7551 0.1489 0.2464
C146 C 0.9089(5) 0.2738(4) 0.7190(13)
H114 H 0.9140 0.2764 0.7888
N26 N 0.9272(4) 0.2829(3) 0.6687(13)
C147 C 0.7549(4) 0.1079(2) 0.3236(12)
C148 C 0.9563(5) 0.2954(4) 0.7227(15)
C149 C 0.7772(4) 0.0883(3) 0.3356(14)
H115 H 0.7993 0.0894 0.3802
C150 C 0.9869(5) 0.2872(4) 0.7163(18)
H116 H 0.9880 0.2739 0.6737
C151 C 0.7661(5) 0.0672(3) 0.2801(15)
H117 H 0.7808 0.0537 0.2861
C152 C 1.0159(5) 0.2988(5) 0.773(2)
H118 H 1.0371 0.2936 0.7702
C153 C 0.7337(5) 0.0656(3) 0.2158(15)
C154 C 1.0134(5) 0.3178(5) 0.8345(18)
C155 C 0.7124(5) 0.0854(3) 0.2045(18)
H119 H 0.6905 0.0845 0.1594
C156 C 0.9834(6) 0.3261(5) 0.841(2)
H120 H 0.9825 0.3394 0.8838
C157 C 0.7230(5) 0.1066(3) 0.2586(16)
H121 H 0.7084 0.1203 0.2509
C158 C 0.9544(5) 0.3145(5) 0.785(2)
H122 H 0.9333 0.3197 0.7890
O9 O 0.7199(5) 0.0452(3) 0.1626(16)
O10 O 1.0397(6) 0.3298(5) 0.898(2)
C159 C 0.7371(9) 0.0233(4) 0.169(3)
H123 H 0.7227 0.0112 0.1248
H124 H 0.7570 0.0260 0.1481
H125 H 0.7437 0.0173 0.2375
C160 C 1.0715(7) 0.3198(9) 0.903(4)
H126 H 1.0891 0.3293 0.9503
H127 H 1.0726 0.3027 0.9255
H128 H 1.0745 0.3205 0.8369
N27 N 1.0000(4) 0.1572(2) 0.5591(8)
C161 C 1.0104(4) 0.1588(2) 0.6599(8)
C162 C 1.0093(4) 0.1802(2) 0.7120(9)
H129 H 1.0181 0.1806 0.7826
C163 C 0.9953(4) 0.2010(2) 0.6598(9)
H130 H 0.9941 0.2158 0.6942
C164 C 0.9829(4) 0.2000(2) 0.5563(8)
C165 C 0.9864(4) 0.1779(2) 0.5118(10)
H131 H 0.9785 0.1773 0.4411
C166 C 0.9639(4) 0.2210(2) 0.4978(8)
C167 C 0.9470(4) 0.2380(3) 0.5372(10)
H132 H 0.9495 0.2373 0.6065
N28 N 0.9270(4) 0.2554(2) 0.4820(8)
C168 C 0.9240(4) 0.2561(3) 0.3835(9)
C169 C 0.9411(5) 0.2407(3) 0.3388(10)
H133 H 0.9392 0.2424 0.2701
C170 C 0.9612(4) 0.2228(3) 0.3967(9)
H134 H 0.9732 0.2118 0.3678
C171 C 1.0208(5) 0.1352(2) 0.7109(10)
H135 H 1.0300 0.1337 0.7812
C172 C 0.8979(4) 0.2729(3) 0.3277(12)
H136 H 0.8928 0.2755 0.2579
N29 N 1.0163(4) 0.1166(2) 0.6508(10)
N30 N 0.8821(4) 0.2842(3) 0.3818(12)
C173 C 1.0233(4) 0.0928(2) 0.6906(12)
C174 C 0.8557(4) 0.2996(3) 0.3252(13)
C175 C 0.9976(4) 0.0784(3) 0.7038(14)
H137 H 0.9759 0.0852 0.6911
C176 C 0.8238(5) 0.2951(4) 0.3294(14)
H138 H 0.8201 0.2822 0.3703
C177 C 1.0034(4) 0.0543(3) 0.7353(14)
H139 H 0.9859 0.0448 0.7457
C178 C 0.7974(5) 0.3092(4) 0.2743(16)
H140 H 0.7757 0.3063 0.2787
C179 C 1.0346(4) 0.0441(2) 0.7515(14)
C180 C 0.8025(5) 0.3275(4) 0.2131(15)
C181 C 1.0599(4) 0.0584(3) 0.7389(15)
H141 H 1.0814 0.0515 0.7498
C182 C 0.8346(5) 0.3324(4) 0.2092(18)
H142 H 0.8383 0.3454 0.1690
C183 C 1.0546(4) 0.0827(3) 0.7105(15)
H143 H 1.0726 0.0925 0.7048
C184 C 0.8608(5) 0.3181(4) 0.2641(17)
H144 H 0.8826 0.3210 0.2600
O11 O 1.0389(5) 0.0204(2) 0.7827(14)
O12 O 0.7756(6) 0.3392(4) 0.1490(16)
C185 C 1.0698(6) 0.0088(5) 0.806(3)
H145 H 1.0676 -0.0081 0.8269
H146 H 1.0776 0.0087 0.7474
H147 H 1.0858 0.0176 0.8606
C186 C 0.7433(6) 0.3308(7) 0.148(3)
H148 H 0.7261 0.3404 0.0999
H149 H 0.7409 0.3134 0.1292
H150 H 0.7409 0.3327 0.2147
S1 S 0.7823(3) 0.2405(2) 0.8084(6)
C187 C 0.7652(10) 0.2500(7) 0.6963(13)
N31 N 0.7541(7) 0.2525(5) 0.6098(13)
S2 S 0.74332(18) 0.25362(16) 0.1926(5)
C188 C 0.7388(6) 0.2613(5) 0.3011(13)
N32 N 0.7380(5) 0.2686(4) 0.3774(13)
S3 S 1.05602(17) 0.23357(14) 0.8341(5)
C189 C 1.0599(6) 0.2418(5) 0.7260(13)
N33 N 1.0624(5) 0.2500(4) 0.6521(12)
S4 S 1.0119(2) 0.2308(3) 0.2342(5)
C190 C 1.0340(7) 0.2319(7) 0.3494(12)
N34 N 1.0479(5) 0.2343(5) 0.4335(11)
S5 S 0.92457(18) 0.07179(9) 0.7963(4)
C191 C 0.9140(6) 0.0577(4) 0.6898(12)
N35 N 0.9081(5) 0.0481(3) 0.6127(11)
S6 S 0.84178(19) 0.06718(10) 0.2159(4)
C192 C 0.8527(6) 0.0533(3) 0.3234(12)
N36 N 0.8601(5) 0.0429(3) 0.3978(11)
P1 P 0.8860(2) 0.12528(10) 0.0131(4)
F1 F 0.8751(4) 0.1052(2) 0.0804(8)
F2 F 0.9238(4) 0.1227(3) 0.0773(8)
F3 F 0.8942(4) 0.1467(2) -0.0523(8)
F4 F 0.8801(4) 0.1451(2) 0.0896(8)
F5 F 0.8895(5) 0.1045(2) -0.0642(9)
F6 F 0.8463(4) 0.1280(3) -0.0503(9)
P2 P 0.6598(8) -0.0268(5) 0.158(2)
F7 F 0.6470(11) 0.0014(5) 0.146(3)
F8 F 0.6209(8) -0.0338(8) 0.143(3)
F9 F 0.6668(11) -0.0559(5) 0.166(3)
F10 F 0.6992(8) -0.0211(8) 0.187(3)
F11 F 0.6545(12) -0.0286(8) 0.041(2)
F12 F 0.6649(11) -0.0257(8) 0.277(2)
P3 P 0.9012(3) 0.2563(3) 1.0207(6)
F13 F 0.8644(5) 0.2585(7) 0.9389(14)
F14 F 0.9132(6) 0.2789(5) 0.9632(14)
F15 F 0.9390(4) 0.2523(7) 1.0946(13)
F16 F 0.8905(6) 0.2358(6) 1.0874(16)
F17 F 0.8928(6) 0.2775(6) 1.0874(14)
F18 F 0.9101(6) 0.2355(6) 0.9505(15)
P4 P 1.1050(6) 0.3377(5) 1.1706(18)
F19 F 1.1132(10) 0.3201(6) 1.088(3)
F20 F 1.1174(9) 0.3182(7) 1.260(3)
F21 F 1.0976(11) 0.3559(7) 1.255(3)
F22 F 1.0915(9) 0.3587(6) 1.083(3)
F23 F 1.0674(7) 0.3270(7) 1.141(3)
F24 F 1.1421(8) 0.3497(7) 1.198(3)
loop_
_geom_bond_atom_site_label_1
_geom_bond_atom_site_label_2
_geom_bond_site_symmetry_1
_geom_bond_site_symmetry_2
Fe1 N2 1_555 1_555
Fe2 N14 1_555 1_555
Fe3 N10 1_555 1_555
Fe4 N1 1_555 1_555
Fe5 N4 1_555 1_555
Fe6 N8 1_555 1_555
N1 C1 1_555 1_555
C1 C2 1_555 1_555
C2 H1 1_555 1_555
C3 C2 1_555 1_555
H2 C3 1_555 1_555
C4 C3 1_555 1_555
C5 N1 1_555 1_555
H3 C5 1_555 1_555
C6 C4 1_555 1_555
C7 C6 1_555 1_555
H4 C7 1_555 1_555
N2 C7 1_555 1_555
C8 N2 1_555 1_555
C9 C8 1_555 1_555
H5 C9 1_555 1_555
C10 C6 1_555 1_555
H6 C10 1_555 1_555
C11 C8 1_555 1_555
N3 Fe1 1_555 1_555
C12 N3 1_555 1_555
H7 C12 1_555 1_555
C13 C12 1_555 1_555
C14 C13 1_555 1_555
H8 C14 1_555 1_555
C15 C11 1_555 1_555
H9 C15 1_555 1_555
C16 C13 1_555 1_555
C17 C16 1_555 1_555
H10 C17 1_555 1_555
N4 C17 1_555 1_555
C18 N4 1_555 1_555
C19 C18 1_555 1_555
H11 C19 1_555 1_555
C20 C16 1_555 1_555
H12 C20 1_555 1_555
C21 C1 1_555 1_555
H13 C21 1_555 1_555
N5 Fe4 1_555 1_555
C22 N5 1_555 1_555
C23 C22 1_555 1_555
H14 C23 1_555 1_555
C24 C23 1_555 1_555
H15 C24 1_555 1_555
C25 C24 1_555 1_555
C26 C25 1_555 1_555
H16 C26 1_555 1_555
C27 C22 1_555 1_555
H17 C27 1_555 1_555
O1 C25 1_555 1_555
C28 O1 1_555 1_555
H18 C28 1_555 1_555
H19 C28 1_555 1_555
H20 C28 1_555 1_555
C29 C18 1_555 1_555
H21 C29 1_555 1_555
N6 Fe5 1_555 1_555
C30 N6 1_555 1_555
C31 C30 1_555 1_555
H22 C31 1_555 1_555
C32 C31 1_555 1_555
H23 C32 1_555 1_555
C33 C32 1_555 1_555
C34 C33 1_555 1_555
H24 C34 1_555 1_555
C35 C30 1_555 1_555
H25 C35 1_555 1_555
O2 C33 1_555 1_555
C36 O2 1_555 1_555
H26 C36 1_555 1_555
H27 C36 1_555 1_555
H28 C36 1_555 1_555
N7 Fe5 1_555 1_555
C37 N7 1_555 1_555
C38 C37 1_555 1_555
H29 C38 1_555 1_555
C39 C38 1_555 1_555
H30 C39 1_555 1_555
C40 C39 1_555 1_555
C41 N7 1_555 1_555
H31 C41 1_555 1_555
C42 C40 1_555 1_555
C43 C42 1_555 1_555
H32 C43 1_555 1_555
N8 C43 1_555 1_555
C44 N8 1_555 1_555
C45 C44 1_555 1_555
H33 C45 1_555 1_555
C46 C42 1_555 1_555
H34 C46 1_555 1_555
C47 C44 1_555 1_555
N9 Fe6 1_555 1_555
C48 N9 1_555 1_555
H35 C48 1_555 1_555
C49 C48 1_555 1_555
C50 C49 1_555 1_555
H36 C50 1_555 1_555
C51 C47 1_555 1_555
H37 C51 1_555 1_555
C52 C49 1_555 1_555
C53 C52 1_555 1_555
H38 C53 1_555 1_555
N10 C53 1_555 1_555
C54 N10 1_555 1_555
C55 C54 1_555 1_555
H39 C55 1_555 1_555
C56 C52 1_555 1_555
H40 C56 1_555 1_555
C57 C37 1_555 1_555
H41 C57 1_555 1_555
N11 Fe5 1_555 1_555
C58 N11 1_555 1_555
C59 C58 1_555 1_555
H42 C59 1_555 1_555
C60 C59 1_555 1_555
H43 C60 1_555 1_555
C61 C60 1_555 1_555
C62 C61 1_555 1_555
H44 C62 1_555 1_555
C63 C58 1_555 1_555
H45 C63 1_555 1_555
O3 C61 1_555 1_555
C64 O3 1_555 1_555
H46 C64 1_555 1_555
H47 C64 1_555 1_555
H48 C64 1_555 1_555
C65 C54 1_555 1_555
H49 C65 1_555 1_555
N12 Fe3 1_555 1_555
C66 N12 1_555 1_555
C67 C66 1_555 1_555
H50 C67 1_555 1_555
C68 C67 1_555 1_555
H51 C68 1_555 1_555
C69 C68 1_555 1_555
C70 C69 1_555 1_555
H52 C70 1_555 1_555
C71 C66 1_555 1_555
H53 C71 1_555 1_555
O4 C69 1_555 1_555
C72 O4 1_555 1_555
H54 C72 1_555 1_555
H55 C72 1_555 1_555
H56 C72 1_555 1_555
N13 Fe3 1_555 1_555
C73 N13 1_555 1_555
C74 C73 1_555 1_555
H57 C74 1_555 1_555
C75 C74 1_555 1_555
H58 C75 1_555 1_555
C76 C75 1_555 1_555
C77 N13 1_555 1_555
H59 C77 1_555 1_555
C78 C76 1_555 1_555
C79 C78 1_555 1_555
H60 C79 1_555 1_555
N14 C79 1_555 1_555
C80 N14 1_555 1_555
C81 C80 1_555 1_555
H61 C81 1_555 1_555
C82 C78 1_555 1_555
H62 C82 1_555 1_555
C83 C80 1_555 1_555
N15 Fe2 1_555 1_555
C84 N15 1_555 1_555
H63 C84 1_555 1_555
C85 C84 1_555 1_555
C86 C85 1_555 1_555
H64 C86 1_555 1_555
C87 C83 1_555 1_555
H65 C87 1_555 1_555
C88 C85 1_555 1_555
C89 C88 1_555 1_555
H66 C89 1_555 1_555
N16 Fe4 1_555 1_555
C90 N16 1_555 1_555
C91 C90 1_555 1_555
H67 C91 1_555 1_555
C92 C88 1_555 1_555
H68 C92 1_555 1_555
C93 C73 1_555 1_555
H69 C93 1_555 1_555
N17 Fe3 1_555 1_555
C94 N17 1_555 1_555
C95 C94 1_555 1_555
H70 C95 1_555 1_555
C96 C95 1_555 1_555
H71 C96 1_555 1_555
C97 C96 1_555 1_555
C98 C97 1_555 1_555
H72 C98 1_555 1_555
C99 C94 1_555 1_555
H73 C99 1_555 1_555
O5 C97 1_555 1_555
C100 O5 1_555 1_555
H74 C100 1_555 1_555
H75 C100 1_555 1_555
H76 C100 1_555 1_555
C101 C90 1_555 1_555
H77 C101 1_555 1_555
N18 Fe4 1_555 1_555
C102 N18 1_555 1_555
C103 C102 1_555 1_555
H78 C103 1_555 1_555
C104 C103 1_555 1_555
H79 C104 1_555 1_555
C105 C104 1_555 1_555
C106 C105 1_555 1_555
H80 C106 1_555 1_555
C107 C102 1_555 1_555
H81 C107 1_555 1_555
O6 C105 1_555 1_555
C108 O6 1_555 1_555
H82 C108 1_555 1_555
H83 C108 1_555 1_555
H84 C108 1_555 1_555
N19 Fe1 1_555 1_555
C109 N19 1_555 1_555
C110 C109 1_555 1_555
H85 C110 1_555 1_555
C111 C110 1_555 1_555
H86 C111 1_555 1_555
C112 C111 1_555 1_555
C113 N19 1_555 1_555
H87 C113 1_555 1_555
C114 C112 1_555 1_555
C115 C114 1_555 1_555
H88 C115 1_555 1_555
N20 Fe2 1_555 1_555
C116 N20 1_555 1_555
C117 C116 1_555 1_555
H89 C117 1_555 1_555
C118 C114 1_555 1_555
H90 C118 1_555 1_555
C119 C109 1_555 1_555
H91 C119 1_555 1_555
C120 C116 1_555 1_555
H92 C120 1_555 1_555
N21 Fe1 1_555 1_555
N22 Fe2 1_555 1_555
C121 N21 1_555 1_555
C122 N22 1_555 1_555
C123 C121 1_555 1_555
H93 C123 1_555 1_555
C124 C122 1_555 1_555
H94 C124 1_555 1_555
C125 C123 1_555 1_555
H95 C125 1_555 1_555
C126 C124 1_555 1_555
H96 C126 1_555 1_555
C127 C125 1_555 1_555
C128 C126 1_555 1_555
C129 C127 1_555 1_555
H97 C129 1_555 1_555
C130 C128 1_555 1_555
H98 C130 1_555 1_555
C131 C121 1_555 1_555
H99 C131 1_555 1_555
C132 C122 1_555 1_555
H100 C132 1_555 1_555
O7 C127 1_555 1_555
O8 C128 1_555 1_555
C133 O7 1_555 1_555
H101 C133 1_555 1_555
H102 C133 1_555 1_555
H103 C133 1_555 1_555
C134 O8 1_555 1_555
H104 C134 1_555 1_555
H105 C134 1_555 1_555
H106 C134 1_555 1_555
N23 Fe1 1_555 1_555
N24 Fe1 1_555 1_555
C135 N23 1_555 1_555
C136 C135 1_555 1_555
H107 C136 1_555 1_555
C137 C136 1_555 1_555
H108 C137 1_555 1_555
C138 C137 1_555 1_555
C139 N23 1_555 1_555
H109 C139 1_555 1_555
C140 C138 1_555 1_555
C141 C140 1_555 1_555
H110 C141 1_555 1_555
N25 Fe6 1_555 1_555
C142 N25 1_555 1_555
C143 C142 1_555 1_555
H111 C143 1_555 1_555
C144 C140 1_555 1_555
H112 C144 1_555 1_555
C145 N24 1_555 1_555
H113 C145 1_555 1_555
C146 C142 1_555 1_555
H114 C146 1_555 1_555
N26 Fe6 1_555 1_555
C147 N24 1_555 1_555
C148 N26 1_555 1_555
C149 C147 1_555 1_555
H115 C149 1_555 1_555
C150 C148 1_555 1_555
H116 C150 1_555 1_555
C151 C149 1_555 1_555
H117 C151 1_555 1_555
C152 C150 1_555 1_555
H118 C152 1_555 1_555
C153 C151 1_555 1_555
C154 C152 1_555 1_555
C155 C153 1_555 1_555
H119 C155 1_555 1_555
C156 C154 1_555 1_555
H120 C156 1_555 1_555
C157 C147 1_555 1_555
H121 C157 1_555 1_555
C158 C148 1_555 1_555
H122 C158 1_555 1_555
O9 C153 1_555 1_555
O10 C154 1_555 1_555
C159 O9 1_555 1_555
H123 C159 1_555 1_555
H124 C159 1_555 1_555
H125 C159 1_555 1_555
C160 O10 1_555 1_555
H126 C160 1_555 1_555
H127 C160 1_555 1_555
H128 C160 1_555 1_555
N27 Fe2 1_555 1_555
C161 N27 1_555 1_555
C162 C161 1_555 1_555
H129 C162 1_555 1_555
C163 C162 1_555 1_555
H130 C163 1_555 1_555
C164 C163 1_555 1_555
C165 N27 1_555 1_555
H131 C165 1_555 1_555
C166 C164 1_555 1_555
C167 C166 1_555 1_555
H132 C167 1_555 1_555
N28 Fe6 1_555 1_555
C168 N28 1_555 1_555
C169 C168 1_555 1_555
H133 C169 1_555 1_555
C170 C166 1_555 1_555
H134 C170 1_555 1_555
C171 C161 1_555 1_555
H135 C171 1_555 1_555
C172 C168 1_555 1_555
H136 C172 1_555 1_555
N29 Fe2 1_555 1_555
N30 Fe6 1_555 1_555
C173 N29 1_555 1_555
C174 N30 1_555 1_555
C175 C173 1_555 1_555
H137 C175 1_555 1_555
C176 C174 1_555 1_555
H138 C176 1_555 1_555
C177 C175 1_555 1_555
H139 C177 1_555 1_555
C178 C176 1_555 1_555
H140 C178 1_555 1_555
C179 C177 1_555 1_555
C180 C178 1_555 1_555
C181 C179 1_555 1_555
H141 C181 1_555 1_555
C182 C180 1_555 1_555
H142 C182 1_555 1_555
C183 C173 1_555 1_555
H143 C183 1_555 1_555
C184 C174 1_555 1_555
H144 C184 1_555 1_555
O11 C179 1_555 1_555
O12 C180 1_555 1_555
C185 O11 1_555 1_555
H145 C185 1_555 1_555
H146 C185 1_555 1_555
H147 C185 1_555 1_555
C186 O12 1_555 1_555
H148 C186 1_555 1_555
H149 C186 1_555 1_555
H150 C186 1_555 1_555
S1 C187 1_555 1_555
C187 N31 1_555 1_555
N31 Fe5 1_555 1_555
S2 C188 1_555 1_555
C188 N32 1_555 1_555
N32 Fe5 1_555 1_555
S3 C189 1_555 1_555
C189 N33 1_555 1_555
N33 Fe3 1_555 1_555
S4 C190 1_555 1_555
C190 N34 1_555 1_555
N34 Fe3 1_555 1_555
S5 C191 1_555 1_555
C191 N35 1_555 1_555
N35 Fe4 1_555 1_555
S6 C192 1_555 1_555
C192 N36 1_555 1_555
N36 Fe4 1_555 1_555
P1 F1 1_555 1_555
F2 P1 1_555 1_555
F3 P1 1_555 1_555
F4 P1 1_555 1_555
F5 P1 1_555 1_555
F6 P1 1_555 1_555
P2 F7 1_555 1_555
F8 P2 1_555 1_555
F9 P2 1_555 1_555
F10 P2 1_555 1_555
F11 P2 1_555 1_555
F12 P2 1_555 1_555
P3 F13 1_555 1_555
F14 P3 1_555 1_555
F15 P3 1_555 1_555
F16 P3 1_555 1_555
F17 P3 1_555 1_555
F18 P3 1_555 1_555
P4 F19 1_555 1_555
F20 P4 1_555 1_555
F21 P4 1_555 1_555
F22 P4 1_555 1_555
F23 P4 1_555 1_555
F24 P4 1_555 1_555
C4 C5 1_555 1_555
C9 C10 1_555 1_555
C11 N3 1_555 1_555
C14 C15 1_555 1_555
C19 C20 1_555 1_555
C21 N5 1_555 1_555
C26 C27 1_555 1_555
C29 N6 1_555 1_555
C34 C35 1_555 1_555
C40 C41 1_555 1_555
C45 C46 1_555 1_555
C47 N9 1_555 1_555
C50 C51 1_555 1_555
C55 C56 1_555 1_555
C57 N11 1_555 1_555
C62 C63 1_555 1_555
C65 N12 1_555 1_555
C70 C71 1_555 1_555
C76 C77 1_555 1_555
C81 C82 1_555 1_555
C83 N15 1_555 1_555
C86 C87 1_555 1_555
C89 N16 1_555 1_555
C91 C92 1_555 1_555
C93 N17 1_555 1_555
C98 C99 1_555 1_555
C101 N18 1_555 1_555
C106 C107 1_555 1_555
C112 C113 1_555 1_555
C115 N20 1_555 1_555
C117 C118 1_555 1_555
C119 N21 1_555 1_555
C120 N22 1_555 1_555
C129 C131 1_555 1_555
C130 C132 1_555 1_555
C135 C145 1_555 1_555
C138 C139 1_555 1_555
C141 N25 1_555 1_555
C143 C144 1_555 1_555
C146 N26 1_555 1_555
C155 C157 1_555 1_555
C156 C158 1_555 1_555
C164 C165 1_555 1_555
C167 N28 1_555 1_555
C169 C170 1_555 1_555
C171 N29 1_555 1_555
C172 N30 1_555 1_555
C181 C183 1_555 1_555
C182 C184 1_555 1_555

#END
