# generated using pymatgen
data_Fe6H168C197N36Cl13O40
_symmetry_space_group_name_H-M   'P 1'
_cell_length_a   19.18400000
_cell_length_b   33.04430000
_cell_length_c   41.84000000
_cell_angle_alpha   111.33900000
_cell_angle_beta   90.00000000
_cell_angle_gamma   90.00000000
_symmetry_Int_Tables_number   1
_chemical_formula_structural   Fe6H168C197N36Cl13O40
_chemical_formula_sum   'Fe24 H672 C788 N144 Cl52 O160'
_cell_volume   24704.95305603
_cell_formula_units_Z   4
loop_
 _symmetry_equiv_pos_site_id
 _symmetry_equiv_pos_as_xyz
  1  'x, y, z'
loop_
 _atom_site_type_symbol
 _atom_site_label
 _atom_site_symmetry_multiplicity
 _atom_site_fract_x
 _atom_site_fract_y
 _atom_site_fract_z
 _atom_site_occupancy
  Fe  Fe1  1  0.754840  0.468170  0.830410  1
  Fe  Fe2  1  0.254840  0.031830  0.669590  1
  Fe  Fe3  1  0.245160  0.531830  0.169590  1
  Fe  Fe4  1  0.745160  0.968170  0.330410  1
  Fe  Fe5  1  0.116740  0.234800  0.499020  1
  Fe  Fe6  1  0.616740  0.265200  0.000980  1
  Fe  Fe7  1  0.883260  0.765200  0.500980  1
  Fe  Fe8  1  0.383260  0.734800  0.999020  1
  Fe  Fe9  1  0.383020  0.383540  0.499530  1
  Fe  Fe10  1  0.883020  0.116460  0.000470  1
  Fe  Fe11  1  0.616980  0.616460  0.500470  1
  Fe  Fe12  1  0.116980  0.883540  0.999530  1
  Fe  Fe13  1  0.752160  0.296760  0.467070  1
  Fe  Fe14  1  0.252160  0.203240  0.032930  1
  Fe  Fe15  1  0.247840  0.703240  0.532930  1
  Fe  Fe16  1  0.747840  0.796760  0.967070  1
  Fe  Fe17  1  0.508950  0.433350  0.680360  1
  Fe  Fe18  1  0.008950  0.066650  0.819640  1
  Fe  Fe19  1  0.491050  0.566650  0.319640  1
  Fe  Fe20  1  0.991050  0.933350  0.180360  1
  Fe  Fe21  1  0.989790  0.351080  0.680420  1
  Fe  Fe22  1  0.489790  0.148920  0.819580  1
  Fe  Fe23  1  0.010210  0.648920  0.319580  1
  Fe  Fe24  1  0.510210  0.851080  0.180420  1
  H  H25  1  0.790300  0.582700  0.940500  1
  H  H26  1  0.290300  0.917300  0.559500  1
  H  H27  1  0.209700  0.417300  0.059500  1
  H  H28  1  0.709700  0.082700  0.440500  1
  H  H29  1  0.894700  0.615300  0.966000  1
  H  H30  1  0.394700  0.884700  0.534000  1
  H  H31  1  0.105300  0.384700  0.034000  1
  H  H32  1  0.605300  0.115300  0.466000  1
  H  H33  1  0.993500  0.562000  0.874500  1
  H  H34  1  0.493500  0.938000  0.625500  1
  H  H35  1  0.006500  0.438000  0.125500  1
  H  H36  1  0.506500  0.062000  0.374500  1
  H  H37  1  0.889200  0.529300  0.849000  1
  H  H38  1  0.389200  0.970700  0.651000  1
  H  H39  1  0.110800  0.470700  0.151000  1
  H  H40  1  0.610800  0.029300  0.349000  1
  H  H41  1  0.043100  0.602000  0.952900  1
  H  H42  1  0.543100  0.898000  0.547100  1
  H  H43  1  0.956900  0.398000  0.047100  1
  H  H44  1  0.456900  0.102000  0.452900  1
  H  H45  1  0.010000  0.646300  0.952600  1
  H  H46  1  0.510000  0.853700  0.547400  1
  H  H47  1  0.990000  0.353700  0.047400  1
  H  H48  1  0.490000  0.146300  0.452600  1
  H  H49  1  0.053400  0.615600  0.920200  1
  H  H50  1  0.553400  0.884400  0.579800  1
  H  H51  1  0.946600  0.384400  0.079800  1
  H  H52  1  0.446600  0.115600  0.420200  1
  H  H53  1  0.712200  0.577700  0.903800  1
  H  H54  1  0.212200  0.922300  0.596200  1
  H  H55  1  0.287800  0.422300  0.096200  1
  H  H56  1  0.787800  0.077700  0.403800  1
  H  H57  1  0.581600  0.585200  0.890600  1
  H  H58  1  0.081600  0.914800  0.609400  1
  H  H59  1  0.418400  0.414800  0.109400  1
  H  H60  1  0.918400  0.085200  0.390600  1
  H  H61  1  0.488700  0.560800  0.851800  1
  H  H62  1  0.988700  0.939200  0.648200  1
  H  H63  1  0.511300  0.439200  0.148200  1
  H  H64  1  0.011300  0.060800  0.351800  1
  H  H65  1  0.609800  0.463400  0.793000  1
  H  H66  1  0.109800  0.036600  0.707000  1
  H  H67  1  0.390200  0.536600  0.207000  1
  H  H68  1  0.890200  0.963400  0.293000  1
  H  H69  1  0.570800  0.475700  0.752100  1
  H  H70  1  0.070800  0.024300  0.747900  1
  H  H71  1  0.429200  0.524300  0.247900  1
  H  H72  1  0.929200  0.975700  0.252100  1
  H  H73  1  0.403700  0.518800  0.814600  1
  H  H74  1  0.903700  0.981200  0.685400  1
  H  H75  1  0.596300  0.481200  0.185400  1
  H  H76  1  0.096300  0.018800  0.314600  1
  H  H77  1  0.330000  0.497000  0.766700  1
  H  H78  1  0.830000  0.003000  0.733300  1
  H  H79  1  0.670000  0.503000  0.233300  1
  H  H80  1  0.170000  0.997000  0.266700  1
  H  H81  1  0.271200  0.481400  0.715300  1
  H  H82  1  0.771200  0.018600  0.784700  1
  H  H83  1  0.728800  0.518600  0.284700  1
  H  H84  1  0.228800  0.981400  0.215300  1
  H  H85  1  0.218300  0.454800  0.661600  1
  H  H86  1  0.718300  0.045200  0.838400  1
  H  H87  1  0.781700  0.545200  0.338400  1
  H  H88  1  0.281700  0.954800  0.161600  1
  H  H89  1  0.403400  0.402700  0.621000  1
  H  H90  1  0.903400  0.097300  0.879000  1
  H  H91  1  0.596600  0.597300  0.379000  1
  H  H92  1  0.096600  0.902700  0.121000  1
  H  H93  1  0.373400  0.416900  0.579400  1
  H  H94  1  0.873400  0.083100  0.920600  1
  H  H95  1  0.626600  0.583100  0.420600  1
  H  H96  1  0.126600  0.916900  0.079400  1
  H  H97  1  0.177200  0.403200  0.608500  1
  H  H98  1  0.677200  0.096800  0.891500  1
  H  H99  1  0.822800  0.596800  0.391500  1
  H  H100  1  0.322800  0.903200  0.108500  1
  H  H101  1  0.148600  0.370800  0.549100  1
  H  H102  1  0.648600  0.129200  0.950900  1
  H  H103  1  0.851400  0.629200  0.450900  1
  H  H104  1  0.351400  0.870800  0.049100  1
  H  H105  1  0.186400  0.348800  0.486700  1
  H  H106  1  0.686400  0.151200  0.013300  1
  H  H107  1  0.813600  0.651200  0.513300  1
  H  H108  1  0.313600  0.848800  0.986700  1
  H  H109  1  0.183900  0.370600  0.437600  1
  H  H110  1  0.683900  0.129400  0.062400  1
  H  H111  1  0.816100  0.629400  0.562400  1
  H  H112  1  0.316100  0.870600  0.937600  1
  H  H113  1  0.176200  0.349400  0.377900  1
  H  H114  1  0.676200  0.150600  0.122100  1
  H  H115  1  0.823800  0.650600  0.622100  1
  H  H116  1  0.323800  0.849400  0.877900  1
  H  H117  1  0.353600  0.279000  0.367500  1
  H  H118  1  0.853600  0.221000  0.132500  1
  H  H119  1  0.646400  0.721000  0.632500  1
  H  H120  1  0.146400  0.779000  0.867500  1
  H  H121  1  0.361200  0.300300  0.427200  1
  H  H122  1  0.861200  0.199700  0.072800  1
  H  H123  1  0.638800  0.699700  0.572800  1
  H  H124  1  0.138800  0.800300  0.927200  1
  H  H125  1  0.303000  0.302600  0.318400  1
  H  H126  1  0.803000  0.197400  0.181600  1
  H  H127  1  0.697000  0.697400  0.681600  1
  H  H128  1  0.197000  0.802600  0.818400  1
  H  H129  1  0.224300  0.319800  0.323400  1
  H  H130  1  0.724300  0.180200  0.176600  1
  H  H131  1  0.775700  0.680200  0.676600  1
  H  H132  1  0.275700  0.819800  0.823400  1
  H  H133  1  0.240500  0.270200  0.317600  1
  H  H134  1  0.740500  0.229800  0.182400  1
  H  H135  1  0.759500  0.729800  0.682400  1
  H  H136  1  0.259500  0.770200  0.817600  1
  H  H137  1  0.226000  0.458000  0.451400  1
  H  H138  1  0.726000  0.042000  0.048600  1
  H  H139  1  0.774000  0.542000  0.548600  1
  H  H140  1  0.274000  0.958000  0.951400  1
  H  H141  1  0.129500  0.497500  0.478500  1
  H  H142  1  0.629500  0.002500  0.021500  1
  H  H143  1  0.870500  0.502500  0.521500  1
  H  H144  1  0.370500  0.997500  0.978500  1
  H  H145  1  0.207100  0.510900  0.570500  1
  H  H146  1  0.707100  0.989100  0.929500  1
  H  H147  1  0.792900  0.489100  0.429500  1
  H  H148  1  0.292900  0.010900  0.070500  1
  H  H149  1  0.306100  0.473600  0.544200  1
  H  H150  1  0.806100  0.026400  0.955800  1
  H  H151  1  0.693900  0.526400  0.455800  1
  H  H152  1  0.193900  0.973600  0.044200  1
  H  H153  1  0.087500  0.529800  0.566900  1
  H  H154  1  0.587500  0.970200  0.933100  1
  H  H155  1  0.912500  0.470200  0.433100  1
  H  H156  1  0.412500  0.029800  0.066900  1
  H  H157  1  0.051900  0.519100  0.530200  1
  H  H158  1  0.551900  0.980900  0.969800  1
  H  H159  1  0.948100  0.480900  0.469800  1
  H  H160  1  0.448100  0.019100  0.030200  1
  H  H161  1  0.096500  0.562600  0.547000  1
  H  H162  1  0.596500  0.937400  0.953000  1
  H  H163  1  0.903500  0.437400  0.453000  1
  H  H164  1  0.403500  0.062600  0.047000  1
  H  H165  1  0.335100  0.448100  0.440000  1
  H  H166  1  0.835100  0.051900  0.060000  1
  H  H167  1  0.664900  0.551900  0.560000  1
  H  H168  1  0.164900  0.948100  0.940000  1
  H  H169  1  0.436100  0.420700  0.394400  1
  H  H170  1  0.936100  0.079300  0.105600  1
  H  H171  1  0.563900  0.579300  0.605600  1
  H  H172  1  0.063900  0.920700  0.894400  1
  H  H173  1  0.535500  0.376200  0.375200  1
  H  H174  1  0.035500  0.123800  0.124800  1
  H  H175  1  0.464500  0.623800  0.624800  1
  H  H176  1  0.964500  0.876200  0.875200  1
  H  H177  1  0.507000  0.333800  0.453300  1
  H  H178  1  0.007000  0.166200  0.046700  1
  H  H179  1  0.493000  0.666200  0.546700  1
  H  H180  1  0.993000  0.833800  0.953300  1
  H  H181  1  0.619600  0.338100  0.455300  1
  H  H182  1  0.119600  0.161900  0.044700  1
  H  H183  1  0.380400  0.661900  0.544700  1
  H  H184  1  0.880400  0.838100  0.955300  1
  H  H185  1  0.597500  0.302300  0.351800  1
  H  H186  1  0.097500  0.197700  0.148200  1
  H  H187  1  0.402500  0.697700  0.648200  1
  H  H188  1  0.902500  0.802300  0.851800  1
  H  H189  1  0.702000  0.265000  0.346500  1
  H  H190  1  0.202000  0.235000  0.153500  1
  H  H191  1  0.298000  0.735000  0.653500  1
  H  H192  1  0.798000  0.765000  0.846500  1
  H  H193  1  0.804000  0.227000  0.346200  1
  H  H194  1  0.304000  0.273000  0.153800  1
  H  H195  1  0.196000  0.773000  0.653800  1
  H  H196  1  0.696000  0.727000  0.846200  1
  H  H197  1  0.909700  0.195500  0.350900  1
  H  H198  1  0.409700  0.304500  0.149100  1
  H  H199  1  0.090300  0.804500  0.649100  1
  H  H200  1  0.590300  0.695500  0.850900  1
  H  H201  1  0.877200  0.237400  0.452600  1
  H  H202  1  0.377200  0.262600  0.047400  1
  H  H203  1  0.122800  0.762600  0.547400  1
  H  H204  1  0.622800  0.737400  0.952600  1
  H  H205  1  0.989200  0.245200  0.455600  1
  H  H206  1  0.489200  0.254800  0.044400  1
  H  H207  1  0.010800  0.754800  0.544400  1
  H  H208  1  0.510800  0.745200  0.955600  1
  H  H209  1  0.985800  0.144600  0.365000  1
  H  H210  1  0.485800  0.355400  0.135000  1
  H  H211  1  0.014200  0.855400  0.635000  1
  H  H212  1  0.514200  0.644600  0.865000  1
  H  H213  1  0.083600  0.117700  0.382800  1
  H  H214  1  0.583600  0.382300  0.117200  1
  H  H215  1  0.916400  0.882300  0.617200  1
  H  H216  1  0.416400  0.617700  0.882800  1
  H  H217  1  0.168000  0.121000  0.431700  1
  H  H218  1  0.668000  0.379000  0.068300  1
  H  H219  1  0.832000  0.879000  0.568300  1
  H  H220  1  0.332000  0.621000  0.931700  1
  H  H221  1  0.273500  0.115900  0.446100  1
  H  H222  1  0.773500  0.384100  0.053900  1
  H  H223  1  0.726500  0.884100  0.553900  1
  H  H224  1  0.226500  0.615900  0.946100  1
  H  H225  1  0.362100  0.094400  0.472700  1
  H  H226  1  0.862100  0.405600  0.027300  1
  H  H227  1  0.637900  0.905600  0.527300  1
  H  H228  1  0.137900  0.594400  0.972700  1
  H  H229  1  0.279100  0.158100  0.565100  1
  H  H230  1  0.779100  0.341900  0.934900  1
  H  H231  1  0.720900  0.841900  0.434900  1
  H  H232  1  0.220900  0.658100  0.065100  1
  H  H233  1  0.188800  0.182000  0.538200  1
  H  H234  1  0.688800  0.318000  0.961800  1
  H  H235  1  0.811200  0.818000  0.461800  1
  H  H236  1  0.311200  0.682000  0.038200  1
  H  H237  1  0.400600  0.130100  0.561700  1
  H  H238  1  0.900600  0.369900  0.938300  1
  H  H239  1  0.599400  0.869900  0.438300  1
  H  H240  1  0.099400  0.630100  0.061700  1
  H  H241  1  0.433200  0.106000  0.524300  1
  H  H242  1  0.933200  0.394000  0.975700  1
  H  H243  1  0.566800  0.894000  0.475700  1
  H  H244  1  0.066800  0.606000  0.024300  1
  H  H245  1  0.378900  0.081000  0.539600  1
  H  H246  1  0.878900  0.419000  0.960400  1
  H  H247  1  0.621100  0.919000  0.460400  1
  H  H248  1  0.121100  0.581000  0.039600  1
  H  H249  1  0.145700  0.260200  0.427400  1
  H  H250  1  0.645700  0.239800  0.072600  1
  H  H251  1  0.854300  0.739800  0.572600  1
  H  H252  1  0.354300  0.760200  0.927400  1
  H  H253  1  0.162600  0.232500  0.367900  1
  H  H254  1  0.662600  0.267500  0.132100  1
  H  H255  1  0.837400  0.767500  0.632100  1
  H  H256  1  0.337400  0.732500  0.867900  1
  H  H257  1  0.333200  0.167100  0.379900  1
  H  H258  1  0.833200  0.332900  0.120100  1
  H  H259  1  0.666800  0.832900  0.620100  1
  H  H260  1  0.166800  0.667100  0.879900  1
  H  H261  1  0.316300  0.194800  0.439400  1
  H  H262  1  0.816300  0.305200  0.060600  1
  H  H263  1  0.683700  0.805200  0.560600  1
  H  H264  1  0.183700  0.694800  0.939400  1
  H  H265  1  0.309100  0.191000  0.325100  1
  H  H266  1  0.809100  0.309000  0.174900  1
  H  H267  1  0.690900  0.809000  0.674900  1
  H  H268  1  0.190900  0.691000  0.825100  1
  H  H269  1  0.227200  0.192700  0.318400  1
  H  H270  1  0.727200  0.307300  0.181600  1
  H  H271  1  0.772800  0.807300  0.681600  1
  H  H272  1  0.272800  0.692700  0.818400  1
  H  H273  1  0.261600  0.149300  0.319800  1
  H  H274  1  0.761600  0.350700  0.180200  1
  H  H275  1  0.738400  0.850700  0.680200  1
  H  H276  1  0.238400  0.649300  0.819800  1
  H  H277  1  0.315100  0.263200  0.489000  1
  H  H278  1  0.815100  0.236800  0.011000  1
  H  H279  1  0.684900  0.736800  0.511000  1
  H  H280  1  0.184900  0.763200  0.989000  1
  H  H281  1  0.351200  0.295600  0.552400  1
  H  H282  1  0.851200  0.204400  0.947600  1
  H  H283  1  0.648800  0.704400  0.447600  1
  H  H284  1  0.148800  0.795600  0.052400  1
  H  H285  1  0.320000  0.315200  0.609900  1
  H  H286  1  0.820000  0.184800  0.890100  1
  H  H287  1  0.680000  0.684800  0.390100  1
  H  H288  1  0.180000  0.815200  0.109900  1
  H  H289  1  0.123500  0.273100  0.578900  1
  H  H290  1  0.623500  0.226900  0.921100  1
  H  H291  1  0.876500  0.726900  0.421100  1
  H  H292  1  0.376500  0.773100  0.078900  1
  H  H293  1  0.098600  0.331900  0.624000  1
  H  H294  1  0.598600  0.168100  0.876000  1
  H  H295  1  0.901400  0.668100  0.376000  1
  H  H296  1  0.401400  0.831900  0.124000  1
  H  H297  1  0.276000  0.299100  0.661100  1
  H  H298  1  0.776000  0.200900  0.838900  1
  H  H299  1  0.724000  0.700900  0.338900  1
  H  H300  1  0.224000  0.799100  0.161100  1
  H  H301  1  0.220400  0.322000  0.715500  1
  H  H302  1  0.720400  0.178000  0.784500  1
  H  H303  1  0.779600  0.678000  0.284500  1
  H  H304  1  0.279600  0.822000  0.215500  1
  H  H305  1  0.159600  0.345400  0.766300  1
  H  H306  1  0.659600  0.154600  0.733700  1
  H  H307  1  0.840400  0.654600  0.233700  1
  H  H308  1  0.340400  0.845400  0.266300  1
  H  H309  1  0.083900  0.366400  0.813000  1
  H  H310  1  0.583900  0.133600  0.687000  1
  H  H311  1  0.916100  0.633600  0.187000  1
  H  H312  1  0.416100  0.866400  0.313000  1
  H  H313  1  0.928200  0.377100  0.752400  1
  H  H314  1  0.428200  0.122900  0.747600  1
  H  H315  1  0.071800  0.622900  0.247600  1
  H  H316  1  0.571800  0.877100  0.252400  1
  H  H317  1  0.898500  0.433500  0.798300  1
  H  H318  1  0.398500  0.066500  0.701700  1
  H  H319  1  0.101500  0.566500  0.201700  1
  H  H320  1  0.601500  0.933500  0.298300  1
  H  H321  1  0.982300  0.358500  0.846400  1
  H  H322  1  0.482300  0.141500  0.653600  1
  H  H323  1  0.017700  0.641500  0.153600  1
  H  H324  1  0.517700  0.858500  0.346400  1
  H  H325  1  0.890000  0.382500  0.886400  1
  H  H326  1  0.390000  0.117500  0.613600  1
  H  H327  1  0.110000  0.617500  0.113600  1
  H  H328  1  0.610000  0.882500  0.386400  1
  H  H329  1  0.774500  0.424600  0.905000  1
  H  H330  1  0.274500  0.075400  0.595000  1
  H  H331  1  0.225500  0.575400  0.095000  1
  H  H332  1  0.725500  0.924600  0.405000  1
  H  H333  1  0.606200  0.433700  0.857300  1
  H  H334  1  0.106200  0.066300  0.642700  1
  H  H335  1  0.393800  0.566300  0.142700  1
  H  H336  1  0.893800  0.933700  0.357300  1
  H  H337  1  0.501600  0.454200  0.887700  1
  H  H338  1  0.001600  0.045800  0.612300  1
  H  H339  1  0.498400  0.545800  0.112300  1
  H  H340  1  0.998400  0.954200  0.387700  1
  H  H341  1  0.609900  0.523400  0.973400  1
  H  H342  1  0.109900  0.976600  0.526600  1
  H  H343  1  0.390100  0.476600  0.026600  1
  H  H344  1  0.890100  0.023400  0.473400  1
  H  H345  1  0.714500  0.503000  0.943000  1
  H  H346  1  0.214500  0.997000  0.557000  1
  H  H347  1  0.285500  0.497000  0.057000  1
  H  H348  1  0.785500  0.003000  0.443000  1
  H  H349  1  0.465300  0.535100  0.954200  1
  H  H350  1  0.965300  0.964900  0.545800  1
  H  H351  1  0.534700  0.464900  0.045800  1
  H  H352  1  0.034700  0.035100  0.454200  1
  H  H353  1  0.481600  0.505800  0.976500  1
  H  H354  1  0.981600  0.994200  0.523500  1
  H  H355  1  0.518400  0.494200  0.023500  1
  H  H356  1  0.018400  0.005800  0.476500  1
  H  H357  1  0.439200  0.485700  0.941300  1
  H  H358  1  0.939200  0.014300  0.558700  1
  H  H359  1  0.560800  0.514300  0.058700  1
  H  H360  1  0.060800  0.985700  0.441300  1
  H  H361  1  0.936500  0.322000  0.457600  1
  H  H362  1  0.436500  0.178000  0.042400  1
  H  H363  1  0.063500  0.678000  0.542400  1
  H  H364  1  0.563500  0.822000  0.957600  1
  H  H365  1  0.012200  0.319100  0.414500  1
  H  H366  1  0.512200  0.180900  0.085500  1
  H  H367  1  0.987800  0.680900  0.585500  1
  H  H368  1  0.487800  0.819100  0.914500  1
  H  H369  1  0.864700  0.369200  0.371200  1
  H  H370  1  0.364700  0.130800  0.128800  1
  H  H371  1  0.135300  0.630800  0.628800  1
  H  H372  1  0.635300  0.869200  0.871200  1
  H  H373  1  0.788700  0.373800  0.414800  1
  H  H374  1  0.288700  0.126200  0.085200  1
  H  H375  1  0.211300  0.626200  0.585200  1
  H  H376  1  0.711300  0.873800  0.914800  1
  H  H377  1  0.977800  0.319600  0.336500  1
  H  H378  1  0.477800  0.180400  0.163500  1
  H  H379  1  0.022200  0.680400  0.663500  1
  H  H380  1  0.522200  0.819600  0.836500  1
  H  H381  1  0.041900  0.333100  0.362800  1
  H  H382  1  0.541900  0.166900  0.137200  1
  H  H383  1  0.958100  0.666900  0.637200  1
  H  H384  1  0.458100  0.833100  0.862800  1
  H  H385  1  0.996400  0.369800  0.356000  1
  H  H386  1  0.496400  0.130200  0.144000  1
  H  H387  1  0.003600  0.630200  0.644000  1
  H  H388  1  0.503600  0.869800  0.856000  1
  H  H389  1  0.797700  0.412100  0.484300  1
  H  H390  1  0.297700  0.087900  0.015700  1
  H  H391  1  0.202300  0.587900  0.515700  1
  H  H392  1  0.702300  0.912100  0.984300  1
  H  H393  1  0.705600  0.449100  0.532700  1
  H  H394  1  0.205600  0.050900  0.967300  1
  H  H395  1  0.294400  0.550900  0.467300  1
  H  H396  1  0.794400  0.949100  0.032700  1
  H  H397  1  0.620200  0.440200  0.569500  1
  H  H398  1  0.120200  0.059800  0.930500  1
  H  H399  1  0.379800  0.559800  0.430500  1
  H  H400  1  0.879800  0.940200  0.069500  1
  H  H401  1  0.639200  0.309400  0.524600  1
  H  H402  1  0.139200  0.190600  0.975400  1
  H  H403  1  0.360800  0.690600  0.475400  1
  H  H404  1  0.860800  0.809400  0.024600  1
  H  H405  1  0.585000  0.426300  0.612900  1
  H  H406  1  0.085000  0.073700  0.887100  1
  H  H407  1  0.415000  0.573700  0.387100  1
  H  H408  1  0.915000  0.926300  0.112900  1
  H  H409  1  0.545000  0.304300  0.547900  1
  H  H410  1  0.045000  0.195700  0.952100  1
  H  H411  1  0.455000  0.695700  0.452100  1
  H  H412  1  0.955000  0.804300  0.047900  1
  H  H413  1  0.491600  0.291500  0.593100  1
  H  H414  1  0.991600  0.208500  0.906900  1
  H  H415  1  0.508400  0.708500  0.406900  1
  H  H416  1  0.008400  0.791500  0.093100  1
  H  H417  1  0.465500  0.318300  0.658700  1
  H  H418  1  0.965500  0.181700  0.841300  1
  H  H419  1  0.534500  0.681700  0.341300  1
  H  H420  1  0.034500  0.818300  0.158700  1
  H  H421  1  0.573300  0.391900  0.740700  1
  H  H422  1  0.073300  0.108100  0.759300  1
  H  H423  1  0.426700  0.608100  0.259300  1
  H  H424  1  0.926700  0.891900  0.240700  1
  H  H425  1  0.549800  0.380900  0.791900  1
  H  H426  1  0.049800  0.119100  0.708100  1
  H  H427  1  0.450200  0.619100  0.208100  1
  H  H428  1  0.950200  0.880900  0.291900  1
  H  H429  1  0.353900  0.342500  0.759400  1
  H  H430  1  0.853900  0.157500  0.740600  1
  H  H431  1  0.646100  0.657500  0.240600  1
  H  H432  1  0.146100  0.842500  0.259400  1
  H  H433  1  0.377400  0.350500  0.707000  1
  H  H434  1  0.877400  0.149500  0.793000  1
  H  H435  1  0.622600  0.649500  0.293000  1
  H  H436  1  0.122600  0.850500  0.207000  1
  H  H437  1  0.413700  0.383100  0.831200  1
  H  H438  1  0.913700  0.116900  0.668800  1
  H  H439  1  0.586300  0.616900  0.168800  1
  H  H440  1  0.086300  0.883100  0.331200  1
  H  H441  1  0.475100  0.348100  0.824100  1
  H  H442  1  0.975100  0.151900  0.675900  1
  H  H443  1  0.524900  0.651900  0.175900  1
  H  H444  1  0.024900  0.848100  0.324100  1
  H  H445  1  0.397900  0.332700  0.810800  1
  H  H446  1  0.897900  0.167300  0.689200  1
  H  H447  1  0.602100  0.667300  0.189200  1
  H  H448  1  0.102100  0.832700  0.310800  1
  H  H449  1  0.468600  0.478300  0.614200  1
  H  H450  1  0.968600  0.021700  0.885800  1
  H  H451  1  0.531400  0.521700  0.385800  1
  H  H452  1  0.031400  0.978300  0.114200  1
  H  H453  1  0.382100  0.518800  0.600700  1
  H  H454  1  0.882100  0.981200  0.899300  1
  H  H455  1  0.617900  0.481200  0.399300  1
  H  H456  1  0.117900  0.018800  0.100700  1
  H  H457  1  0.375200  0.600700  0.698800  1
  H  H458  1  0.875200  0.899300  0.801200  1
  H  H459  1  0.624800  0.399300  0.301200  1
  H  H460  1  0.124800  0.100700  0.198800  1
  H  H461  1  0.461500  0.560700  0.712900  1
  H  H462  1  0.961500  0.939300  0.787100  1
  H  H463  1  0.538500  0.439300  0.287100  1
  H  H464  1  0.038500  0.060700  0.212900  1
  H  H465  1  0.324500  0.593000  0.617200  1
  H  H466  1  0.824500  0.907000  0.882800  1
  H  H467  1  0.675500  0.407000  0.382800  1
  H  H468  1  0.175500  0.093000  0.117200  1
  H  H469  1  0.309400  0.618500  0.657100  1
  H  H470  1  0.809400  0.881500  0.842900  1
  H  H471  1  0.690600  0.381500  0.342900  1
  H  H472  1  0.190600  0.118500  0.157100  1
  H  H473  1  0.269400  0.574000  0.636800  1
  H  H474  1  0.769400  0.926000  0.863200  1
  H  H475  1  0.730600  0.426000  0.363200  1
  H  H476  1  0.230600  0.074000  0.136800  1
  H  H477  1  0.590400  0.537900  0.690800  1
  H  H478  1  0.090400  0.962100  0.809200  1
  H  H479  1  0.409600  0.462100  0.309200  1
  H  H480  1  0.909600  0.037900  0.190800  1
  H  H481  1  0.716900  0.522900  0.709000  1
  H  H482  1  0.216900  0.977100  0.791000  1
  H  H483  1  0.283100  0.477100  0.291000  1
  H  H484  1  0.783100  0.022900  0.209000  1
  H  H485  1  0.795000  0.471000  0.713800  1
  H  H486  1  0.295000  0.029000  0.786200  1
  H  H487  1  0.205000  0.529000  0.286200  1
  H  H488  1  0.705000  0.971000  0.213800  1
  H  H489  1  0.640600  0.381100  0.688500  1
  H  H490  1  0.140600  0.118900  0.811500  1
  H  H491  1  0.359400  0.618900  0.311500  1
  H  H492  1  0.859400  0.881100  0.188500  1
  H  H493  1  0.860200  0.413700  0.690000  1
  H  H494  1  0.360200  0.086300  0.810000  1
  H  H495  1  0.139800  0.586300  0.310000  1
  H  H496  1  0.639800  0.913700  0.190000  1
  H  H497  1  0.701900  0.348000  0.713200  1
  H  H498  1  0.201900  0.152000  0.786800  1
  H  H499  1  0.298100  0.652000  0.286800  1
  H  H500  1  0.798100  0.848000  0.213200  1
  H  H501  1  0.777100  0.289800  0.706900  1
  H  H502  1  0.277100  0.210200  0.793100  1
  H  H503  1  0.222900  0.710200  0.293100  1
  H  H504  1  0.722900  0.789800  0.206900  1
  H  H505  1  0.897900  0.255200  0.685900  1
  H  H506  1  0.397900  0.244800  0.814100  1
  H  H507  1  0.102100  0.744800  0.314100  1
  H  H508  1  0.602100  0.755200  0.185900  1
  H  H509  1  0.028300  0.247100  0.709500  1
  H  H510  1  0.528300  0.252900  0.790500  1
  H  H511  1  0.971700  0.752900  0.290500  1
  H  H512  1  0.471700  0.747100  0.209500  1
  H  H513  1  0.115000  0.195400  0.695600  1
  H  H514  1  0.615000  0.304600  0.804400  1
  H  H515  1  0.885000  0.804600  0.304400  1
  H  H516  1  0.385000  0.695400  0.195600  1
  H  H517  1  0.114400  0.196900  0.598800  1
  H  H518  1  0.614400  0.303100  0.901200  1
  H  H519  1  0.885600  0.803100  0.401200  1
  H  H520  1  0.385600  0.696900  0.098800  1
  H  H521  1  0.031500  0.249200  0.613900  1
  H  H522  1  0.531500  0.250800  0.886100  1
  H  H523  1  0.968500  0.750800  0.386100  1
  H  H524  1  0.468500  0.749200  0.113900  1
  H  H525  1  0.172200  0.133100  0.610700  1
  H  H526  1  0.672200  0.366900  0.889300  1
  H  H527  1  0.827800  0.866900  0.389300  1
  H  H528  1  0.327800  0.633100  0.110700  1
  H  H529  1  0.183500  0.138700  0.649900  1
  H  H530  1  0.683500  0.361300  0.850100  1
  H  H531  1  0.816500  0.861300  0.350100  1
  H  H532  1  0.316500  0.638700  0.149900  1
  H  H533  1  0.228000  0.167400  0.633700  1
  H  H534  1  0.728000  0.332600  0.866300  1
  H  H535  1  0.772000  0.832600  0.366300  1
  H  H536  1  0.272000  0.667400  0.133700  1
  H  H537  1  0.933300  0.454900  0.741600  1
  H  H538  1  0.433300  0.045100  0.758400  1
  H  H539  1  0.066700  0.545100  0.258400  1
  H  H540  1  0.566700  0.954900  0.241600  1
  H  H541  1  0.960400  0.511600  0.791900  1
  H  H542  1  0.460400  0.988400  0.708100  1
  H  H543  1  0.039600  0.488400  0.208100  1
  H  H544  1  0.539600  0.011600  0.291900  1
  H  H545  1  0.162200  0.500000  0.761900  1
  H  H546  1  0.662200  0.000000  0.738100  1
  H  H547  1  0.837800  0.500000  0.238100  1
  H  H548  1  0.337800  0.000000  0.261900  1
  H  H549  1  0.132600  0.445000  0.711600  1
  H  H550  1  0.632600  0.055000  0.788400  1
  H  H551  1  0.867400  0.555000  0.288400  1
  H  H552  1  0.367400  0.945000  0.211600  1
  H  H553  1  0.136300  0.556600  0.813700  1
  H  H554  1  0.636300  0.943400  0.686300  1
  H  H555  1  0.863700  0.443400  0.186300  1
  H  H556  1  0.363700  0.056600  0.313700  1
  H  H557  1  0.071500  0.546100  0.833500  1
  H  H558  1  0.571500  0.953900  0.666500  1
  H  H559  1  0.928500  0.453900  0.166500  1
  H  H560  1  0.428500  0.046100  0.333500  1
  H  H561  1  0.062300  0.579000  0.813700  1
  H  H562  1  0.562300  0.921000  0.686300  1
  H  H563  1  0.937700  0.421000  0.186300  1
  H  H564  1  0.437700  0.079000  0.313700  1
  H  H565  1  0.034300  0.448700  0.661900  1
  H  H566  1  0.534300  0.051300  0.838100  1
  H  H567  1  0.965700  0.551300  0.338100  1
  H  H568  1  0.465700  0.948700  0.161900  1
  H  H569  1  0.013000  0.417500  0.595500  1
  H  H570  1  0.513000  0.082500  0.904500  1
  H  H571  1  0.987000  0.582500  0.404500  1
  H  H572  1  0.487000  0.917500  0.095500  1
  H  H573  1  0.964800  0.360700  0.548500  1
  H  H574  1  0.464800  0.139300  0.951500  1
  H  H575  1  0.035200  0.639300  0.451500  1
  H  H576  1  0.535200  0.860700  0.048500  1
  H  H577  1  0.920000  0.295700  0.611100  1
  H  H578  1  0.420000  0.204300  0.888900  1
  H  H579  1  0.080000  0.704300  0.388900  1
  H  H580  1  0.580000  0.795700  0.111100  1
  H  H581  1  0.866900  0.336000  0.524700  1
  H  H582  1  0.366900  0.164000  0.975300  1
  H  H583  1  0.133100  0.664000  0.475300  1
  H  H584  1  0.633100  0.836000  0.024700  1
  H  H585  1  0.890100  0.243400  0.566100  1
  H  H586  1  0.390100  0.256600  0.933900  1
  H  H587  1  0.109900  0.756600  0.433900  1
  H  H588  1  0.609900  0.743400  0.066100  1
  H  H589  1  0.805100  0.200900  0.528700  1
  H  H590  1  0.305100  0.299100  0.971300  1
  H  H591  1  0.194900  0.799100  0.471300  1
  H  H592  1  0.694900  0.700900  0.028700  1
  H  H593  1  0.711100  0.195400  0.482000  1
  H  H594  1  0.211100  0.304600  0.018000  1
  H  H595  1  0.288900  0.804600  0.518000  1
  H  H596  1  0.788900  0.695400  0.982000  1
  H  H597  1  0.702800  0.176400  0.411400  1
  H  H598  1  0.202800  0.323600  0.088600  1
  H  H599  1  0.297200  0.823600  0.588600  1
  H  H600  1  0.797200  0.676400  0.911400  1
  H  H601  1  0.614800  0.145800  0.371100  1
  H  H602  1  0.114800  0.354200  0.128900  1
  H  H603  1  0.385200  0.854200  0.628900  1
  H  H604  1  0.885200  0.645800  0.871100  1
  H  H605  1  0.479800  0.238100  0.428400  1
  H  H606  1  0.979800  0.261900  0.071600  1
  H  H607  1  0.520200  0.761900  0.571600  1
  H  H608  1  0.020200  0.738100  0.928400  1
  H  H609  1  0.567800  0.268700  0.468700  1
  H  H610  1  0.067800  0.231300  0.031300  1
  H  H611  1  0.432200  0.731300  0.531300  1
  H  H612  1  0.932200  0.768700  0.968700  1
  H  H613  1  0.449500  0.152600  0.375400  1
  H  H614  1  0.949500  0.347400  0.124600  1
  H  H615  1  0.550500  0.847400  0.624600  1
  H  H616  1  0.050500  0.652600  0.875400  1
  H  H617  1  0.507200  0.148700  0.346800  1
  H  H618  1  0.007200  0.351300  0.153200  1
  H  H619  1  0.492800  0.851300  0.653200  1
  H  H620  1  0.992800  0.648700  0.846800  1
  H  H621  1  0.460600  0.191700  0.361900  1
  H  H622  1  0.960600  0.308300  0.138100  1
  H  H623  1  0.539400  0.808300  0.638100  1
  H  H624  1  0.039400  0.691700  0.861900  1
  H  H625  1  0.026500  0.896500  0.538900  1
  H  H626  1  0.526500  0.603500  0.961100  1
  H  H627  1  0.973500  0.103500  0.461100  1
  H  H628  1  0.473500  0.396500  0.038900  1
  H  H629  1  0.024000  0.848500  0.510300  1
  H  H630  1  0.524000  0.651500  0.989700  1
  H  H631  1  0.976000  0.151500  0.489700  1
  H  H632  1  0.476000  0.348500  0.010300  1
  H  H633  1  0.072800  0.884800  0.504900  1
  H  H634  1  0.572800  0.615200  0.995100  1
  H  H635  1  0.927200  0.115200  0.495100  1
  H  H636  1  0.427200  0.384800  0.004900  1
  H  H637  1  0.453200  0.518400  0.535000  1
  H  H638  1  0.953200  0.981600  0.965000  1
  H  H639  1  0.546800  0.481600  0.465000  1
  H  H640  1  0.046800  0.018400  0.035000  1
  H  H641  1  0.467600  0.551500  0.515700  1
  H  H642  1  0.967600  0.948500  0.984300  1
  H  H643  1  0.532400  0.448500  0.484300  1
  H  H644  1  0.032400  0.051500  0.015700  1
  H  H645  1  0.416400  0.511000  0.499000  1
  H  H646  1  0.916400  0.989000  0.001000  1
  H  H647  1  0.583600  0.489000  0.501000  1
  H  H648  1  0.083600  0.011000  0.999000  1
  H  H649  1  0.813300  0.298300  0.815800  1
  H  H650  1  0.313300  0.201700  0.684200  1
  H  H651  1  0.186700  0.701700  0.184200  1
  H  H652  1  0.686700  0.798300  0.315800  1
  H  H653  1  0.769600  0.269200  0.782900  1
  H  H654  1  0.269600  0.230800  0.717100  1
  H  H655  1  0.230400  0.730800  0.217100  1
  H  H656  1  0.730400  0.769200  0.282900  1
  H  H657  1  0.780200  0.319900  0.790700  1
  H  H658  1  0.280200  0.180100  0.709300  1
  H  H659  1  0.219800  0.680100  0.209300  1
  H  H660  1  0.719800  0.819900  0.290700  1
  H  H661  1  0.572900  0.254600  0.726800  1
  H  H662  1  0.072900  0.245400  0.773200  1
  H  H663  1  0.427100  0.745400  0.273200  1
  H  H664  1  0.927100  0.754600  0.226800  1
  H  H665  1  0.523400  0.230200  0.694700  1
  H  H666  1  0.023400  0.269800  0.805300  1
  H  H667  1  0.476600  0.769800  0.305300  1
  H  H668  1  0.976600  0.730200  0.194700  1
  H  H669  1  0.502900  0.277500  0.721100  1
  H  H670  1  0.002900  0.222500  0.778900  1
  H  H671  1  0.497100  0.722500  0.278900  1
  H  H672  1  0.997100  0.777500  0.221100  1
  H  H673  1  0.725100  0.339400  0.585900  1
  H  H674  1  0.225100  0.160600  0.914100  1
  H  H675  1  0.274900  0.660600  0.414100  1
  H  H676  1  0.774900  0.839400  0.085900  1
  H  H677  1  0.721200  0.356900  0.626100  1
  H  H678  1  0.221200  0.143100  0.873900  1
  H  H679  1  0.278800  0.643100  0.373900  1
  H  H680  1  0.778800  0.856900  0.126100  1
  H  H681  1  0.789300  0.334200  0.607300  1
  H  H682  1  0.289300  0.165800  0.892700  1
  H  H683  1  0.210700  0.665800  0.392700  1
  H  H684  1  0.710700  0.834200  0.107300  1
  H  H685  1  0.799500  0.352200  0.604900  1
  H  H686  1  0.299500  0.147800  0.895100  1
  H  H687  1  0.200500  0.647800  0.395100  1
  H  H688  1  0.700500  0.852200  0.104900  1
  H  H689  1  0.730100  0.371200  0.624400  1
  H  H690  1  0.230100  0.128800  0.875600  1
  H  H691  1  0.269900  0.628800  0.375600  1
  H  H692  1  0.769900  0.871200  0.124400  1
  H  H693  1  0.730300  0.349300  0.584200  1
  H  H694  1  0.230300  0.150700  0.915800  1
  H  H695  1  0.269700  0.650700  0.415800  1
  H  H696  1  0.769700  0.849300  0.084200  1
  C  C697  1  0.829900  0.552900  0.892300  1
  C  C698  1  0.329900  0.947100  0.607700  1
  C  C699  1  0.170100  0.447100  0.107700  1
  C  C700  1  0.670100  0.052900  0.392300  1
  C  C701  1  0.831600  0.578500  0.927100  1
  C  C702  1  0.331600  0.921500  0.572900  1
  C  C703  1  0.168400  0.421500  0.072900  1
  C  C704  1  0.668400  0.078500  0.427100  1
  C  C705  1  0.893600  0.597900  0.942200  1
  C  C706  1  0.393600  0.902100  0.557800  1
  C  C707  1  0.106400  0.402100  0.057800  1
  C  C708  1  0.606400  0.097900  0.442200  1
  C  C709  1  0.953900  0.591700  0.922600  1
  C  C710  1  0.453900  0.908300  0.577400  1
  C  C711  1  0.046100  0.408300  0.077400  1
  C  C712  1  0.546100  0.091700  0.422600  1
  C  C713  1  0.952300  0.566200  0.887900  1
  C  C714  1  0.452300  0.933800  0.612100  1
  C  C715  1  0.047700  0.433800  0.112100  1
  C  C716  1  0.547700  0.066200  0.387900  1
  C  C717  1  0.890300  0.546800  0.872770  1
  C  C718  1  0.390300  0.953200  0.627230  1
  C  C719  1  0.109700  0.453200  0.127230  1
  C  C720  1  0.609700  0.046800  0.372770  1
  C  C721  1  0.021200  0.616100  0.938500  1
  C  C722  1  0.521200  0.883900  0.561500  1
  C  C723  1  0.978800  0.383900  0.061500  1
  C  C724  1  0.478800  0.116100  0.438500  1
  C  C725  1  0.713300  0.553200  0.883000  1
  C  C726  1  0.213300  0.946800  0.617000  1
  C  C727  1  0.286700  0.446800  0.117000  1
  C  C728  1  0.786700  0.053200  0.383000  1
  C  C729  1  0.650100  0.539700  0.863300  1
  C  C730  1  0.150100  0.960300  0.636700  1
  C  C731  1  0.349900  0.460300  0.136700  1
  C  C732  1  0.849900  0.039700  0.363300  1
  C  C733  1  0.587700  0.560700  0.870000  1
  C  C734  1  0.087700  0.939300  0.630000  1
  C  C735  1  0.412300  0.439300  0.130000  1
  C  C736  1  0.912300  0.060700  0.370000  1
  C  C737  1  0.532800  0.546800  0.846800  1
  C  C738  1  0.032800  0.953200  0.653200  1
  C  C739  1  0.467200  0.453200  0.153200  1
  C  C740  1  0.967200  0.046800  0.346800  1
  C  C741  1  0.543500  0.512400  0.816700  1
  C  C742  1  0.043500  0.987600  0.683300  1
  C  C743  1  0.456500  0.487600  0.183300  1
  C  C744  1  0.956500  0.012400  0.316700  1
  C  C745  1  0.605400  0.489200  0.812700  1
  C  C746  1  0.105400  0.010800  0.687300  1
  C  C747  1  0.394600  0.510800  0.187300  1
  C  C748  1  0.894600  0.989200  0.312700  1
  C  C749  1  0.521900  0.480000  0.755060  1
  C  C750  1  0.021900  0.020000  0.744940  1
  C  C751  1  0.478100  0.520000  0.244940  1
  C  C752  1  0.978100  0.980000  0.255060  1
  C  C753  1  0.494200  0.499300  0.787830  1
  C  C754  1  0.994200  0.000700  0.712170  1
  C  C755  1  0.505800  0.500700  0.212170  1
  C  C756  1  0.005800  0.999300  0.287830  1
  C  C757  1  0.422700  0.505600  0.792170  1
  C  C758  1  0.922700  0.994400  0.707830  1
  C  C759  1  0.577300  0.494400  0.207830  1
  C  C760  1  0.077300  0.005600  0.292170  1
  C  C761  1  0.378900  0.492700  0.763760  1
  C  C762  1  0.878900  0.007300  0.736240  1
  C  C763  1  0.621100  0.507300  0.236240  1
  C  C764  1  0.121100  0.992700  0.263760  1
  C  C765  1  0.406600  0.473400  0.731000  1
  C  C766  1  0.906600  0.026600  0.769000  1
  C  C767  1  0.593400  0.526600  0.269000  1
  C  C768  1  0.093400  0.973400  0.231000  1
  C  C769  1  0.369000  0.457000  0.699500  1
  C  C770  1  0.869000  0.043000  0.800500  1
  C  C771  1  0.631000  0.543000  0.300500  1
  C  C772  1  0.131000  0.957000  0.199500  1
  C  C773  1  0.297800  0.465100  0.695700  1
  C  C774  1  0.797800  0.034900  0.804300  1
  C  C775  1  0.702200  0.534900  0.304300  1
  C  C776  1  0.202200  0.965100  0.195700  1
  C  C777  1  0.266500  0.449800  0.664000  1
  C  C778  1  0.766500  0.050200  0.836000  1
  C  C779  1  0.733500  0.550200  0.336000  1
  C  C780  1  0.233500  0.949800  0.164000  1
  C  C781  1  0.306800  0.426800  0.635600  1
  C  C782  1  0.806800  0.073200  0.864400  1
  C  C783  1  0.693200  0.573200  0.364400  1
  C  C784  1  0.193200  0.926800  0.135600  1
  C  C785  1  0.376600  0.419500  0.640300  1
  C  C786  1  0.876600  0.080500  0.859700  1
  C  C787  1  0.623400  0.580500  0.359700  1
  C  C788  1  0.123400  0.919500  0.140300  1
  C  C789  1  0.327000  0.406900  0.573400  1
  C  C790  1  0.827000  0.093100  0.926600  1
  C  C791  1  0.673000  0.593100  0.426600  1
  C  C792  1  0.173000  0.906900  0.073400  1
  C  C793  1  0.280700  0.410400  0.600000  1
  C  C794  1  0.780700  0.089600  0.900000  1
  C  C795  1  0.719300  0.589600  0.400000  1
  C  C796  1  0.219300  0.910400  0.100000  1
  C  C797  1  0.211900  0.399000  0.591300  1
  C  C798  1  0.711900  0.101000  0.908700  1
  C  C799  1  0.788100  0.601000  0.408700  1
  C  C800  1  0.288100  0.899000  0.091300  1
  C  C801  1  0.194800  0.380600  0.555800  1
  C  C802  1  0.694800  0.119400  0.944200  1
  C  C803  1  0.805200  0.619400  0.444200  1
  C  C804  1  0.305200  0.880600  0.055800  1
  C  C805  1  0.244600  0.376900  0.531200  1
  C  C806  1  0.744600  0.123100  0.968800  1
  C  C807  1  0.755400  0.623100  0.468800  1
  C  C808  1  0.255400  0.876900  0.031200  1
  C  C809  1  0.232100  0.357600  0.495100  1
  C  C810  1  0.732100  0.142400  0.004900  1
  C  C811  1  0.767900  0.642400  0.504900  1
  C  C812  1  0.267900  0.857600  0.995100  1
  C  C813  1  0.273300  0.337400  0.437990  1
  C  C814  1  0.773300  0.162600  0.062010  1
  C  C815  1  0.726700  0.662600  0.562010  1
  C  C816  1  0.226700  0.837400  0.937990  1
  C  C817  1  0.218300  0.352000  0.423400  1
  C  C818  1  0.718300  0.148000  0.076600  1
  C  C819  1  0.781700  0.648000  0.576600  1
  C  C820  1  0.281700  0.852000  0.923400  1
  C  C821  1  0.213800  0.339400  0.387900  1
  C  C822  1  0.713800  0.160600  0.112100  1
  C  C823  1  0.786200  0.660600  0.612100  1
  C  C824  1  0.286200  0.839400  0.887900  1
  C  C825  1  0.264200  0.312200  0.367080  1
  C  C826  1  0.764200  0.187800  0.132920  1
  C  C827  1  0.735800  0.687800  0.632920  1
  C  C828  1  0.235800  0.812200  0.867080  1
  C  C829  1  0.319100  0.297600  0.381700  1
  C  C830  1  0.819100  0.202400  0.118300  1
  C  C831  1  0.680900  0.702400  0.618300  1
  C  C832  1  0.180900  0.797600  0.881700  1
  C  C833  1  0.323700  0.310200  0.417200  1
  C  C834  1  0.823700  0.189800  0.082800  1
  C  C835  1  0.676300  0.689800  0.582800  1
  C  C836  1  0.176300  0.810200  0.917200  1
  C  C837  1  0.257300  0.300100  0.328100  1
  C  C838  1  0.757300  0.199900  0.171900  1
  C  C839  1  0.742700  0.699900  0.671900  1
  C  C840  1  0.242700  0.800100  0.828100  1
  C  C841  1  0.275400  0.460200  0.494800  1
  C  C842  1  0.775400  0.039800  0.005200  1
  C  C843  1  0.724600  0.539800  0.505200  1
  C  C844  1  0.224600  0.960200  0.994800  1
  C  C845  1  0.222800  0.468500  0.475700  1
  C  C846  1  0.722800  0.031500  0.024300  1
  C  C847  1  0.777200  0.531500  0.524300  1
  C  C848  1  0.277200  0.968500  0.975700  1
  C  C849  1  0.165300  0.492100  0.492100  1
  C  C850  1  0.665300  0.007900  0.007900  1
  C  C851  1  0.834700  0.507900  0.507900  1
  C  C852  1  0.334700  0.992100  0.992100  1
  C  C853  1  0.157500  0.508100  0.527100  1
  C  C854  1  0.657500  0.991900  0.972900  1
  C  C855  1  0.842500  0.491900  0.472900  1
  C  C856  1  0.342500  0.008100  0.027100  1
  C  C857  1  0.210700  0.500400  0.546200  1
  C  C858  1  0.710700  0.999600  0.953800  1
  C  C859  1  0.789300  0.499600  0.453800  1
  C  C860  1  0.289300  0.000400  0.046200  1
  C  C861  1  0.269200  0.477600  0.530500  1
  C  C862  1  0.769200  0.022400  0.969500  1
  C  C863  1  0.730800  0.522400  0.469500  1
  C  C864  1  0.230800  0.977600  0.030500  1
  C  C865  1  0.092700  0.532000  0.544300  1
  C  C866  1  0.592700  0.968000  0.955700  1
  C  C867  1  0.907300  0.468000  0.455700  1
  C  C868  1  0.407300  0.032000  0.044300  1
  C  C869  1  0.357500  0.432100  0.451900  1
  C  C870  1  0.857500  0.067900  0.048100  1
  C  C871  1  0.642500  0.567900  0.548100  1
  C  C872  1  0.142500  0.932100  0.951900  1
  C  C873  1  0.417600  0.403900  0.435700  1
  C  C874  1  0.917600  0.096100  0.064300  1
  C  C875  1  0.582400  0.596100  0.564300  1
  C  C876  1  0.082400  0.903900  0.935700  1
  C  C877  1  0.452200  0.403300  0.406600  1
  C  C878  1  0.952200  0.096700  0.093400  1
  C  C879  1  0.547800  0.596700  0.593400  1
  C  C880  1  0.047800  0.903300  0.906600  1
  C  C881  1  0.511200  0.376800  0.395100  1
  C  C882  1  0.011200  0.123200  0.104900  1
  C  C883  1  0.488800  0.623200  0.604900  1
  C  C884  1  0.988800  0.876800  0.895100  1
  C  C885  1  0.533500  0.351300  0.413800  1
  C  C886  1  0.033500  0.148700  0.086200  1
  C  C887  1  0.466500  0.648700  0.586200  1
  C  C888  1  0.966500  0.851300  0.913800  1
  C  C889  1  0.494100  0.352300  0.441400  1
  C  C890  1  0.994100  0.147700  0.058600  1
  C  C891  1  0.505900  0.647700  0.558600  1
  C  C892  1  0.005900  0.852300  0.941400  1
  C  C893  1  0.636900  0.323400  0.432700  1
  C  C894  1  0.136900  0.176600  0.067300  1
  C  C895  1  0.363100  0.676600  0.567300  1
  C  C896  1  0.863100  0.823400  0.932700  1
  C  C897  1  0.598300  0.325800  0.405200  1
  C  C898  1  0.098300  0.174200  0.094800  1
  C  C899  1  0.401700  0.674200  0.594800  1
  C  C900  1  0.901700  0.825800  0.905200  1
  C  C901  1  0.622400  0.302500  0.371500  1
  C  C902  1  0.122400  0.197500  0.128500  1
  C  C903  1  0.377600  0.697500  0.628500  1
  C  C904  1  0.877600  0.802500  0.871500  1
  C  C905  1  0.683600  0.280100  0.368800  1
  C  C906  1  0.183600  0.219900  0.131200  1
  C  C907  1  0.316400  0.719900  0.631200  1
  C  C908  1  0.816400  0.780100  0.868800  1
  C  C909  1  0.719800  0.278500  0.396500  1
  C  C910  1  0.219800  0.221500  0.103500  1
  C  C911  1  0.280200  0.721500  0.603500  1
  C  C912  1  0.780200  0.778500  0.896500  1
  C  C913  1  0.784300  0.254700  0.396800  1
  C  C914  1  0.284300  0.245300  0.103200  1
  C  C915  1  0.215700  0.745300  0.603200  1
  C  C916  1  0.715700  0.754700  0.896800  1
  C  C917  1  0.821600  0.230500  0.368300  1
  C  C918  1  0.321600  0.269500  0.131700  1
  C  C919  1  0.178400  0.769500  0.631700  1
  C  C920  1  0.678400  0.730500  0.868300  1
  C  C921  1  0.883700  0.211300  0.370900  1
  C  C922  1  0.383700  0.288700  0.129100  1
  C  C923  1  0.116300  0.788700  0.629100  1
  C  C924  1  0.616300  0.711300  0.870900  1
  C  C925  1  0.908000  0.215300  0.403200  1
  C  C926  1  0.408000  0.284700  0.096800  1
  C  C927  1  0.092000  0.784700  0.596800  1
  C  C928  1  0.592000  0.715300  0.903200  1
  C  C929  1  0.864700  0.237200  0.430600  1
  C  C930  1  0.364700  0.262800  0.069400  1
  C  C931  1  0.135300  0.762800  0.569400  1
  C  C932  1  0.635300  0.737200  0.930600  1
  C  C933  1  0.006500  0.217700  0.441000  1
  C  C934  1  0.506500  0.282300  0.059000  1
  C  C935  1  0.993500  0.782300  0.559000  1
  C  C936  1  0.493500  0.717700  0.941000  1
  C  C937  1  0.972000  0.196100  0.410000  1
  C  C938  1  0.472000  0.303900  0.090000  1
  C  C939  1  0.028000  0.803900  0.590000  1
  C  C940  1  0.528000  0.696100  0.910000  1
  C  C941  1  0.003900  0.158900  0.387400  1
  C  C942  1  0.503900  0.341100  0.112600  1
  C  C943  1  0.996100  0.841100  0.612600  1
  C  C944  1  0.496100  0.658900  0.887400  1
  C  C945  1  0.061600  0.143200  0.397900  1
  C  C946  1  0.561600  0.356800  0.102100  1
  C  C947  1  0.938400  0.856800  0.602100  1
  C  C948  1  0.438400  0.643200  0.897900  1
  C  C949  1  0.088500  0.163900  0.430300  1
  C  C950  1  0.588500  0.336100  0.069700  1
  C  C951  1  0.911500  0.836100  0.569700  1
  C  C952  1  0.411500  0.663900  0.930300  1
  C  C953  1  0.145400  0.147200  0.445200  1
  C  C954  1  0.645400  0.352800  0.054800  1
  C  C955  1  0.854600  0.852800  0.554800  1
  C  C956  1  0.354600  0.647200  0.945200  1
  C  C957  1  0.221700  0.151500  0.490400  1
  C  C958  1  0.721700  0.348500  0.009600  1
  C  C959  1  0.778300  0.848500  0.509600  1
  C  C960  1  0.278300  0.651500  0.990400  1
  C  C961  1  0.274600  0.125000  0.470400  1
  C  C962  1  0.774600  0.375000  0.029600  1
  C  C963  1  0.725400  0.875000  0.529600  1
  C  C964  1  0.225400  0.625000  0.970400  1
  C  C965  1  0.326600  0.112700  0.486200  1
  C  C966  1  0.826600  0.387300  0.013800  1
  C  C967  1  0.673400  0.887300  0.513800  1
  C  C968  1  0.173400  0.612700  0.986200  1
  C  C969  1  0.330700  0.125900  0.522500  1
  C  C970  1  0.830700  0.374100  0.977500  1
  C  C971  1  0.669300  0.874100  0.477500  1
  C  C972  1  0.169300  0.625900  0.022500  1
  C  C973  1  0.279100  0.150000  0.540800  1
  C  C974  1  0.779100  0.350000  0.959200  1
  C  C975  1  0.720900  0.850000  0.459200  1
  C  C976  1  0.220900  0.650000  0.040800  1
  C  C977  1  0.224400  0.163700  0.524600  1
  C  C978  1  0.724400  0.336300  0.975400  1
  C  C979  1  0.775600  0.836300  0.475400  1
  C  C980  1  0.275600  0.663700  0.024600  1
  C  C981  1  0.391400  0.109200  0.538500  1
  C  C982  1  0.891400  0.390800  0.961500  1
  C  C983  1  0.608600  0.890800  0.461500  1
  C  C984  1  0.108600  0.609200  0.038500  1
  C  C985  1  0.229400  0.230100  0.438960  1
  C  C986  1  0.729400  0.269900  0.061040  1
  C  C987  1  0.770600  0.769900  0.561040  1
  C  C988  1  0.270600  0.730100  0.938960  1
  C  C989  1  0.183800  0.241300  0.417700  1
  C  C990  1  0.683800  0.258700  0.082300  1
  C  C991  1  0.816200  0.758700  0.582300  1
  C  C992  1  0.316200  0.741300  0.917700  1
  C  C993  1  0.193800  0.224800  0.382400  1
  C  C994  1  0.693800  0.275200  0.117600  1
  C  C995  1  0.806200  0.775200  0.617600  1
  C  C996  1  0.306200  0.724800  0.882400  1
  C  C997  1  0.249500  0.197200  0.368310  1
  C  C998  1  0.749500  0.302800  0.131690  1
  C  C999  1  0.750500  0.802800  0.631690  1
  C  C1000  1  0.250500  0.697200  0.868310  1
  C  C1001  1  0.295200  0.186000  0.389500  1
  C  C1002  1  0.795200  0.314000  0.110500  1
  C  C1003  1  0.704800  0.814000  0.610500  1
  C  C1004  1  0.204800  0.686000  0.889500  1
  C  C1005  1  0.285100  0.202500  0.424900  1
  C  C1006  1  0.785100  0.297500  0.075100  1
  C  C1007  1  0.714900  0.797500  0.575100  1
  C  C1008  1  0.214900  0.702500  0.924900  1
  C  C1009  1  0.263100  0.181100  0.329300  1
  C  C1010  1  0.763100  0.318900  0.170700  1
  C  C1011  1  0.736900  0.818900  0.670700  1
  C  C1012  1  0.236900  0.681100  0.829300  1
  C  C1013  1  0.269600  0.260300  0.496800  1
  C  C1014  1  0.769600  0.239700  0.003200  1
  C  C1015  1  0.730400  0.739700  0.503200  1
  C  C1016  1  0.230400  0.760300  0.996800  1
  C  C1017  1  0.254800  0.271900  0.532500  1
  C  C1018  1  0.754800  0.228100  0.967500  1
  C  C1019  1  0.745200  0.728100  0.467500  1
  C  C1020  1  0.245200  0.771900  0.032500  1
  C  C1021  1  0.304800  0.291100  0.558400  1
  C  C1022  1  0.804800  0.208900  0.941600  1
  C  C1023  1  0.695200  0.708900  0.441600  1
  C  C1024  1  0.195200  0.791100  0.058400  1
  C  C1025  1  0.286200  0.303300  0.592300  1
  C  C1026  1  0.786200  0.196700  0.907700  1
  C  C1027  1  0.713800  0.696700  0.407700  1
  C  C1028  1  0.213800  0.803300  0.092300  1
  C  C1029  1  0.217300  0.298000  0.600800  1
  C  C1030  1  0.717300  0.202000  0.899200  1
  C  C1031  1  0.782700  0.702000  0.399200  1
  C  C1032  1  0.282700  0.798000  0.100800  1
  C  C1033  1  0.170200  0.277800  0.573600  1
  C  C1034  1  0.670200  0.222200  0.926400  1
  C  C1035  1  0.829800  0.722200  0.426400  1
  C  C1036  1  0.329800  0.777800  0.073600  1
  C  C1037  1  0.122900  0.328400  0.642500  1
  C  C1038  1  0.622900  0.171600  0.857500  1
  C  C1039  1  0.877100  0.671600  0.357500  1
  C  C1040  1  0.377100  0.828400  0.142500  1
  C  C1041  1  0.191000  0.312500  0.636600  1
  C  C1042  1  0.691000  0.187500  0.863400  1
  C  C1043  1  0.809000  0.687500  0.363400  1
  C  C1044  1  0.309000  0.812500  0.136600  1
  C  C1045  1  0.229400  0.309400  0.663900  1
  C  C1046  1  0.729400  0.190600  0.836100  1
  C  C1047  1  0.770600  0.690600  0.336100  1
  C  C1048  1  0.270600  0.809400  0.163900  1
  C  C1049  1  0.195600  0.322400  0.696000  1
  C  C1050  1  0.695600  0.177600  0.804000  1
  C  C1051  1  0.804400  0.677600  0.304000  1
  C  C1052  1  0.304400  0.822400  0.196000  1
  C  C1053  1  0.126000  0.335700  0.699300  1
  C  C1054  1  0.626000  0.164300  0.800700  1
  C  C1055  1  0.874000  0.664300  0.300700  1
  C  C1056  1  0.374000  0.835700  0.199300  1
  C  C1057  1  0.085500  0.347900  0.731100  1
  C  C1058  1  0.585500  0.152100  0.768900  1
  C  C1059  1  0.914500  0.652100  0.268900  1
  C  C1060  1  0.414500  0.847900  0.231100  1
  C  C1061  1  0.112100  0.351700  0.763600  1
  C  C1062  1  0.612100  0.148300  0.736400  1
  C  C1063  1  0.887900  0.648300  0.236400  1
  C  C1064  1  0.387900  0.851700  0.263600  1
  C  C1065  1  0.067300  0.364900  0.791200  1
  C  C1066  1  0.567300  0.135100  0.708800  1
  C  C1067  1  0.932700  0.635100  0.208800  1
  C  C1068  1  0.432700  0.864900  0.291200  1
  C  C1069  1  0.000600  0.375800  0.788100  1
  C  C1070  1  0.500600  0.124200  0.711900  1
  C  C1071  1  0.999400  0.624200  0.211900  1
  C  C1072  1  0.499400  0.875800  0.288100  1
  C  C1073  1  0.975600  0.370800  0.755000  1
  C  C1074  1  0.475600  0.129200  0.745000  1
  C  C1075  1  0.024400  0.629200  0.245000  1
  C  C1076  1  0.524400  0.870800  0.255000  1
  C  C1077  1  0.896900  0.422200  0.816200  1
  C  C1078  1  0.396900  0.077800  0.683800  1
  C  C1079  1  0.103100  0.577800  0.183800  1
  C  C1080  1  0.603100  0.922200  0.316200  1
  C  C1081  1  0.948500  0.392100  0.816100  1
  C  C1082  1  0.448500  0.107900  0.683900  1
  C  C1083  1  0.051500  0.607900  0.183900  1
  C  C1084  1  0.551500  0.892100  0.316100  1
  C  C1085  1  0.947400  0.377500  0.843900  1
  C  C1086  1  0.447400  0.122500  0.656100  1
  C  C1087  1  0.052600  0.622500  0.156100  1
  C  C1088  1  0.552600  0.877500  0.343900  1
  C  C1089  1  0.892700  0.392300  0.867700  1
  C  C1090  1  0.392700  0.107700  0.632300  1
  C  C1091  1  0.107300  0.607700  0.132300  1
  C  C1092  1  0.607300  0.892300  0.367700  1
  C  C1093  1  0.844100  0.419800  0.864500  1
  C  C1094  1  0.344100  0.080200  0.635500  1
  C  C1095  1  0.155900  0.580200  0.135500  1
  C  C1096  1  0.655900  0.919800  0.364500  1
  C  C1097  1  0.779700  0.432200  0.885300  1
  C  C1098  1  0.279700  0.067800  0.614700  1
  C  C1099  1  0.220300  0.567800  0.114700  1
  C  C1100  1  0.720300  0.932200  0.385300  1
  C  C1101  1  0.670200  0.466400  0.897300  1
  C  C1102  1  0.170200  0.033600  0.602700  1
  C  C1103  1  0.329800  0.533600  0.102700  1
  C  C1104  1  0.829800  0.966400  0.397300  1
  C  C1105  1  0.606900  0.451900  0.880860  1
  C  C1106  1  0.106900  0.048100  0.619140  1
  C  C1107  1  0.393100  0.548100  0.119140  1
  C  C1108  1  0.893100  0.951900  0.380860  1
  C  C1109  1  0.544800  0.464100  0.898900  1
  C  C1110  1  0.044800  0.035900  0.601100  1
  C  C1111  1  0.455200  0.535900  0.101100  1
  C  C1112  1  0.955200  0.964100  0.398900  1
  C  C1113  1  0.545900  0.490700  0.933400  1
  C  C1114  1  0.045900  0.009300  0.566600  1
  C  C1115  1  0.454100  0.509300  0.066600  1
  C  C1116  1  0.954100  0.990700  0.433400  1
  C  C1117  1  0.609100  0.505200  0.949800  1
  C  C1118  1  0.109100  0.994800  0.550200  1
  C  C1119  1  0.390900  0.494800  0.050200  1
  C  C1120  1  0.890900  0.005200  0.449800  1
  C  C1121  1  0.671300  0.493100  0.931700  1
  C  C1122  1  0.171300  0.006900  0.568300  1
  C  C1123  1  0.328700  0.506900  0.068300  1
  C  C1124  1  0.828700  0.993100  0.431700  1
  C  C1125  1  0.476600  0.505700  0.953200  1
  C  C1126  1  0.976600  0.994300  0.546800  1
  C  C1127  1  0.523400  0.494300  0.046800  1
  C  C1128  1  0.023400  0.005700  0.453200  1
  C  C1129  1  0.856100  0.347400  0.440600  1
  C  C1130  1  0.356100  0.152600  0.059400  1
  C  C1131  1  0.143900  0.652600  0.559400  1
  C  C1132  1  0.643900  0.847400  0.940600  1
  C  C1133  1  0.921700  0.331700  0.439900  1
  C  C1134  1  0.421700  0.168300  0.060100  1
  C  C1135  1  0.078300  0.668300  0.560100  1
  C  C1136  1  0.578300  0.831700  0.939900  1
  C  C1137  1  0.966200  0.329700  0.414200  1
  C  C1138  1  0.466200  0.170300  0.085800  1
  C  C1139  1  0.033800  0.670300  0.585800  1
  C  C1140  1  0.533800  0.829700  0.914200  1
  C  C1141  1  0.946100  0.342800  0.387400  1
  C  C1142  1  0.446100  0.157200  0.112600  1
  C  C1143  1  0.053900  0.657200  0.612600  1
  C  C1144  1  0.553900  0.842800  0.887400  1
  C  C1145  1  0.879400  0.359400  0.388800  1
  C  C1146  1  0.379400  0.140600  0.111200  1
  C  C1147  1  0.120600  0.640600  0.611200  1
  C  C1148  1  0.620600  0.859400  0.888800  1
  C  C1149  1  0.834100  0.362200  0.414400  1
  C  C1150  1  0.334100  0.137800  0.085600  1
  C  C1151  1  0.165900  0.637800  0.585600  1
  C  C1152  1  0.665900  0.862200  0.914400  1
  C  C1153  1  0.995000  0.341200  0.358000  1
  C  C1154  1  0.495000  0.158800  0.142000  1
  C  C1155  1  0.005000  0.658800  0.642000  1
  C  C1156  1  0.505000  0.841200  0.858000  1
  C  C1157  1  0.779500  0.385800  0.485100  1
  C  C1158  1  0.279500  0.114200  0.014900  1
  C  C1159  1  0.220500  0.614200  0.514900  1
  C  C1160  1  0.720500  0.885800  0.985100  1
  C  C1161  1  0.723200  0.384530  0.506750  1
  C  C1162  1  0.223200  0.115470  0.993250  1
  C  C1163  1  0.276800  0.615470  0.493250  1
  C  C1164  1  0.776800  0.884530  0.006750  1
  C  C1165  1  0.692200  0.420730  0.531020  1
  C  C1166  1  0.192200  0.079270  0.968980  1
  C  C1167  1  0.307800  0.579270  0.468980  1
  C  C1168  1  0.807800  0.920730  0.031020  1
  C  C1169  1  0.641400  0.415440  0.552890  1
  C  C1170  1  0.141400  0.084560  0.947110  1
  C  C1171  1  0.358600  0.584560  0.447110  1
  C  C1172  1  0.858600  0.915440  0.052890  1
  C  C1173  1  0.621700  0.374000  0.550500  1
  C  C1174  1  0.121700  0.126000  0.949500  1
  C  C1175  1  0.378300  0.626000  0.449500  1
  C  C1176  1  0.878300  0.874000  0.050500  1
  C  C1177  1  0.652700  0.337760  0.526230  1
  C  C1178  1  0.152700  0.162240  0.973770  1
  C  C1179  1  0.347300  0.662240  0.473770  1
  C  C1180  1  0.847300  0.837760  0.026230  1
  C  C1181  1  0.564600  0.398600  0.608700  1
  C  C1182  1  0.064600  0.101400  0.891300  1
  C  C1183  1  0.435400  0.601400  0.391300  1
  C  C1184  1  0.935400  0.898600  0.108700  1
  C  C1185  1  0.574300  0.366600  0.576600  1
  C  C1186  1  0.074300  0.133400  0.923400  1
  C  C1187  1  0.425700  0.633400  0.423400  1
  C  C1188  1  0.925700  0.866600  0.076600  1
  C  C1189  1  0.543600  0.326300  0.570100  1
  C  C1190  1  0.043600  0.173700  0.929900  1
  C  C1191  1  0.456400  0.673700  0.429900  1
  C  C1192  1  0.956400  0.826300  0.070100  1
  C  C1193  1  0.511300  0.319200  0.596600  1
  C  C1194  1  0.011300  0.180800  0.903400  1
  C  C1195  1  0.488700  0.680800  0.403400  1
  C  C1196  1  0.988700  0.819200  0.096600  1
  C  C1197  1  0.506800  0.351600  0.628500  1
  C  C1198  1  0.006800  0.148400  0.871500  1
  C  C1199  1  0.493200  0.648400  0.371500  1
  C  C1200  1  0.993200  0.851600  0.128500  1
  C  C1201  1  0.484600  0.345000  0.659100  1
  C  C1202  1  0.984600  0.155000  0.840900  1
  C  C1203  1  0.515400  0.655000  0.340900  1
  C  C1204  1  0.015400  0.845000  0.159100  1
  C  C1205  1  0.475600  0.372200  0.719300  1
  C  C1206  1  0.975600  0.127800  0.780700  1
  C  C1207  1  0.524400  0.627800  0.280700  1
  C  C1208  1  0.024400  0.872200  0.219300  1
  C  C1209  1  0.528900  0.381700  0.744500  1
  C  C1210  1  0.028900  0.118300  0.755500  1
  C  C1211  1  0.471100  0.618300  0.255500  1
  C  C1212  1  0.971100  0.881700  0.244500  1
  C  C1213  1  0.514400  0.375500  0.775000  1
  C  C1214  1  0.014400  0.124500  0.725000  1
  C  C1215  1  0.485600  0.624500  0.225000  1
  C  C1216  1  0.985600  0.875500  0.275000  1
  C  C1217  1  0.448800  0.361600  0.781400  1
  C  C1218  1  0.948800  0.138400  0.718600  1
  C  C1219  1  0.551200  0.638400  0.218600  1
  C  C1220  1  0.051200  0.861600  0.281400  1
  C  C1221  1  0.398600  0.352400  0.755700  1
  C  C1222  1  0.898600  0.147600  0.744300  1
  C  C1223  1  0.601400  0.647600  0.244300  1
  C  C1224  1  0.101400  0.852400  0.255700  1
  C  C1225  1  0.412100  0.357400  0.724400  1
  C  C1226  1  0.912100  0.142600  0.775600  1
  C  C1227  1  0.587900  0.642600  0.275600  1
  C  C1228  1  0.087900  0.857400  0.224400  1
  C  C1229  1  0.432400  0.355900  0.814800  1
  C  C1230  1  0.932400  0.144100  0.685200  1
  C  C1231  1  0.567600  0.644100  0.185200  1
  C  C1232  1  0.067600  0.855900  0.314800  1
  C  C1233  1  0.472600  0.515000  0.665100  1
  C  C1234  1  0.972600  0.985000  0.834900  1
  C  C1235  1  0.527400  0.485000  0.334900  1
  C  C1236  1  0.027400  0.015000  0.165100  1
  C  C1237  1  0.449600  0.503100  0.631600  1
  C  C1238  1  0.949600  0.996900  0.868400  1
  C  C1239  1  0.550400  0.496900  0.368400  1
  C  C1240  1  0.050400  0.003100  0.131600  1
  C  C1241  1  0.398600  0.527700  0.623600  1
  C  C1242  1  0.898600  0.972300  0.876400  1
  C  C1243  1  0.601400  0.472300  0.376400  1
  C  C1244  1  0.101400  0.027700  0.123600  1
  C  C1245  1  0.371000  0.564600  0.648000  1
  C  C1246  1  0.871000  0.935400  0.852000  1
  C  C1247  1  0.629000  0.435400  0.352000  1
  C  C1248  1  0.129000  0.064600  0.148000  1
  C  C1249  1  0.394400  0.575900  0.681300  1
  C  C1250  1  0.894400  0.924100  0.818700  1
  C  C1251  1  0.605600  0.424100  0.318700  1
  C  C1252  1  0.105600  0.075900  0.181300  1
  C  C1253  1  0.445300  0.551900  0.689900  1
  C  C1254  1  0.945300  0.948100  0.810100  1
  C  C1255  1  0.554700  0.448100  0.310100  1
  C  C1256  1  0.054700  0.051900  0.189900  1
  C  C1257  1  0.313500  0.589700  0.639000  1
  C  C1258  1  0.813500  0.910300  0.861000  1
  C  C1259  1  0.686500  0.410300  0.361000  1
  C  C1260  1  0.186500  0.089700  0.139000  1
  C  C1261  1  0.581700  0.508200  0.687200  1
  C  C1262  1  0.081700  0.991800  0.812800  1
  C  C1263  1  0.418300  0.491800  0.312800  1
  C  C1264  1  0.918300  0.008200  0.187200  1
  C  C1265  1  0.632400  0.482810  0.695850  1
  C  C1266  1  0.132400  0.017190  0.804150  1
  C  C1267  1  0.367600  0.517190  0.304150  1
  C  C1268  1  0.867600  0.982810  0.195850  1
  C  C1269  1  0.701400  0.494100  0.704820  1
  C  C1270  1  0.201400  0.005900  0.795180  1
  C  C1271  1  0.298600  0.505900  0.295180  1
  C  C1272  1  0.798600  0.994100  0.204820  1
  C  C1273  1  0.747800  0.463300  0.707690  1
  C  C1274  1  0.247800  0.036700  0.792310  1
  C  C1275  1  0.252200  0.536700  0.292310  1
  C  C1276  1  0.752200  0.963300  0.207690  1
  C  C1277  1  0.725100  0.421170  0.701590  1
  C  C1278  1  0.225100  0.078830  0.798410  1
  C  C1279  1  0.274900  0.578830  0.298410  1
  C  C1280  1  0.774900  0.921170  0.201590  1
  C  C1281  1  0.656100  0.409880  0.692620  1
  C  C1282  1  0.156100  0.090120  0.807380  1
  C  C1283  1  0.343900  0.590120  0.307380  1
  C  C1284  1  0.843900  0.909880  0.192620  1
  C  C1285  1  0.843400  0.388560  0.693400  1
  C  C1286  1  0.343400  0.111440  0.806600  1
  C  C1287  1  0.156600  0.611440  0.306600  1
  C  C1288  1  0.656600  0.888560  0.193400  1
  C  C1289  1  0.774000  0.386300  0.702170  1
  C  C1290  1  0.274000  0.113700  0.797830  1
  C  C1291  1  0.226000  0.613700  0.297830  1
  C  C1292  1  0.726000  0.886300  0.202170  1
  C  C1293  1  0.749300  0.349500  0.707180  1
  C  C1294  1  0.249300  0.150500  0.792820  1
  C  C1295  1  0.250700  0.650500  0.292820  1
  C  C1296  1  0.750700  0.849500  0.207180  1
  C  C1297  1  0.794000  0.314970  0.703430  1
  C  C1298  1  0.294000  0.185030  0.796570  1
  C  C1299  1  0.206000  0.685030  0.296570  1
  C  C1300  1  0.706000  0.814970  0.203430  1
  C  C1301  1  0.863400  0.317230  0.694660  1
  C  C1302  1  0.363400  0.182770  0.805340  1
  C  C1303  1  0.136600  0.682770  0.305340  1
  C  C1304  1  0.636600  0.817230  0.194660  1
  C  C1305  1  0.909800  0.282400  0.684500  1
  C  C1306  1  0.409800  0.217600  0.815500  1
  C  C1307  1  0.090200  0.717600  0.315500  1
  C  C1308  1  0.590200  0.782400  0.184500  1
  C  C1309  1  0.022400  0.254700  0.663000  1
  C  C1310  1  0.522400  0.245300  0.837000  1
  C  C1311  1  0.977600  0.745300  0.337000  1
  C  C1312  1  0.477600  0.754700  0.163000  1
  C  C1313  1  0.047400  0.237000  0.687000  1
  C  C1314  1  0.547400  0.263000  0.813000  1
  C  C1315  1  0.952600  0.763000  0.313000  1
  C  C1316  1  0.452600  0.737000  0.187000  1
  C  C1317  1  0.097800  0.206200  0.678900  1
  C  C1318  1  0.597800  0.293800  0.821100  1
  C  C1319  1  0.902200  0.793800  0.321100  1
  C  C1320  1  0.402200  0.706200  0.178900  1
  C  C1321  1  0.124200  0.190300  0.645000  1
  C  C1322  1  0.624200  0.309700  0.855000  1
  C  C1323  1  0.875800  0.809700  0.355000  1
  C  C1324  1  0.375800  0.690300  0.145000  1
  C  C1325  1  0.097400  0.207400  0.621700  1
  C  C1326  1  0.597400  0.292600  0.878300  1
  C  C1327  1  0.902600  0.792600  0.378300  1
  C  C1328  1  0.402600  0.707400  0.121700  1
  C  C1329  1  0.048400  0.238400  0.630600  1
  C  C1330  1  0.548400  0.261600  0.869400  1
  C  C1331  1  0.951600  0.761600  0.369400  1
  C  C1332  1  0.451600  0.738400  0.130600  1
  C  C1333  1  0.182500  0.153900  0.633700  1
  C  C1334  1  0.682500  0.346100  0.866300  1
  C  C1335  1  0.817500  0.846100  0.366300  1
  C  C1336  1  0.317500  0.653900  0.133700  1
  C  C1337  1  0.028700  0.446000  0.721200  1
  C  C1338  1  0.528700  0.054000  0.778800  1
  C  C1339  1  0.971300  0.554000  0.278800  1
  C  C1340  1  0.471300  0.946000  0.221200  1
  C  C1341  1  0.980000  0.465200  0.745400  1
  C  C1342  1  0.480000  0.034800  0.754600  1
  C  C1343  1  0.020000  0.534800  0.254600  1
  C  C1344  1  0.520000  0.965200  0.245400  1
  C  C1345  1  0.995600  0.498900  0.775300  1
  C  C1346  1  0.495600  0.001100  0.724700  1
  C  C1347  1  0.004400  0.501100  0.224700  1
  C  C1348  1  0.504400  0.998900  0.275300  1
  C  C1349  1  0.065300  0.514800  0.781000  1
  C  C1350  1  0.565300  0.985200  0.719000  1
  C  C1351  1  0.934700  0.485200  0.219000  1
  C  C1352  1  0.434700  0.014800  0.281000  1
  C  C1353  1  0.114500  0.492200  0.757400  1
  C  C1354  1  0.614500  0.007800  0.742600  1
  C  C1355  1  0.885500  0.507800  0.242600  1
  C  C1356  1  0.385500  0.992200  0.257400  1
  C  C1357  1  0.097300  0.459100  0.727800  1
  C  C1358  1  0.597300  0.040900  0.772200  1
  C  C1359  1  0.902700  0.540900  0.272200  1
  C  C1360  1  0.402700  0.959100  0.227800  1
  C  C1361  1  0.085600  0.552400  0.813300  1
  C  C1362  1  0.585600  0.947600  0.686700  1
  C  C1363  1  0.914400  0.447600  0.186700  1
  C  C1364  1  0.414400  0.052400  0.313300  1
  C  C1365  1  0.017400  0.421500  0.661400  1
  C  C1366  1  0.517400  0.078500  0.838600  1
  C  C1367  1  0.982600  0.578500  0.338600  1
  C  C1368  1  0.482600  0.921500  0.161400  1
  C  C1369  1  0.997500  0.385900  0.629700  1
  C  C1370  1  0.497500  0.114100  0.870300  1
  C  C1371  1  0.002500  0.614100  0.370300  1
  C  C1372  1  0.502500  0.885900  0.129700  1
  C  C1373  1  0.994600  0.392200  0.598100  1
  C  C1374  1  0.494600  0.107800  0.901900  1
  C  C1375  1  0.005400  0.607800  0.401900  1
  C  C1376  1  0.505400  0.892200  0.098100  1
  C  C1377  1  0.963400  0.359200  0.570800  1
  C  C1378  1  0.463400  0.140800  0.929200  1
  C  C1379  1  0.036600  0.640800  0.429200  1
  C  C1380  1  0.536600  0.859200  0.070800  1
  C  C1381  1  0.929700  0.323700  0.575300  1
  C  C1382  1  0.429700  0.176300  0.924700  1
  C  C1383  1  0.070300  0.676300  0.424700  1
  C  C1384  1  0.570300  0.823700  0.075300  1
  C  C1385  1  0.938400  0.320500  0.607600  1
  C  C1386  1  0.438400  0.179500  0.892400  1
  C  C1387  1  0.061600  0.679500  0.392400  1
  C  C1388  1  0.561600  0.820500  0.107600  1
  C  C1389  1  0.854400  0.308580  0.525490  1
  C  C1390  1  0.354400  0.191420  0.974510  1
  C  C1391  1  0.145600  0.691420  0.474510  1
  C  C1392  1  0.645600  0.808580  0.025490  1
  C  C1393  1  0.886500  0.293670  0.548880  1
  C  C1394  1  0.386500  0.206330  0.951120  1
  C  C1395  1  0.113500  0.706330  0.451120  1
  C  C1396  1  0.613500  0.793670  0.048880  1
  C  C1397  1  0.868200  0.253560  0.550080  1
  C  C1398  1  0.368200  0.246440  0.949920  1
  C  C1399  1  0.131800  0.746440  0.449920  1
  C  C1400  1  0.631800  0.753560  0.050080  1
  C  C1401  1  0.817700  0.228340  0.527880  1
  C  C1402  1  0.317700  0.271660  0.972120  1
  C  C1403  1  0.182300  0.771660  0.472120  1
  C  C1404  1  0.682300  0.728340  0.027880  1
  C  C1405  1  0.785500  0.243250  0.504480  1
  C  C1406  1  0.285500  0.256750  0.995520  1
  C  C1407  1  0.214500  0.756750  0.495520  1
  C  C1408  1  0.714500  0.743250  0.004480  1
  C  C1409  1  0.727700  0.223100  0.483600  1
  C  C1410  1  0.227700  0.276900  0.016400  1
  C  C1411  1  0.272300  0.776900  0.516400  1
  C  C1412  1  0.772300  0.723100  0.983600  1
  C  C1413  1  0.643600  0.225500  0.443820  1
  C  C1414  1  0.143600  0.274500  0.056180  1
  C  C1415  1  0.356400  0.774500  0.556180  1
  C  C1416  1  0.856400  0.725500  0.943820  1
  C  C1417  1  0.657500  0.189000  0.414840  1
  C  C1418  1  0.157500  0.311000  0.085160  1
  C  C1419  1  0.342500  0.811000  0.585160  1
  C  C1420  1  0.842500  0.689000  0.914840  1
  C  C1421  1  0.605300  0.170800  0.390900  1
  C  C1422  1  0.105300  0.329200  0.109100  1
  C  C1423  1  0.394700  0.829200  0.609100  1
  C  C1424  1  0.894700  0.670800  0.890900  1
  C  C1425  1  0.539000  0.189100  0.395900  1
  C  C1426  1  0.039000  0.310900  0.104100  1
  C  C1427  1  0.461000  0.810900  0.604100  1
  C  C1428  1  0.961000  0.689100  0.895900  1
  C  C1429  1  0.525100  0.225600  0.424900  1
  C  C1430  1  0.025100  0.274400  0.075100  1
  C  C1431  1  0.474900  0.774400  0.575100  1
  C  C1432  1  0.974900  0.725600  0.924900  1
  C  C1433  1  0.577400  0.243800  0.448850  1
  C  C1434  1  0.077400  0.256200  0.051150  1
  C  C1435  1  0.422600  0.756200  0.551150  1
  C  C1436  1  0.922600  0.743800  0.948850  1
  C  C1437  1  0.484000  0.168600  0.367400  1
  C  C1438  1  0.984000  0.331400  0.132600  1
  C  C1439  1  0.516000  0.831400  0.632600  1
  C  C1440  1  0.016000  0.668600  0.867400  1
  C  C1441  1  0.111600  0.860500  0.539100  1
  C  C1442  1  0.611600  0.639500  0.960900  1
  C  C1443  1  0.888400  0.139500  0.460900  1
  C  C1444  1  0.388400  0.360500  0.039100  1
  C  C1445  1  0.053900  0.873700  0.521800  1
  C  C1446  1  0.553900  0.626300  0.978200  1
  C  C1447  1  0.946100  0.126300  0.478200  1
  C  C1448  1  0.446100  0.373700  0.021800  1
  C  C1449  1  0.374400  0.559100  0.538200  1
  C  C1450  1  0.874400  0.940900  0.961800  1
  C  C1451  1  0.625600  0.440900  0.461800  1
  C  C1452  1  0.125600  0.059100  0.038200  1
  C  C1453  1  0.432500  0.532900  0.520600  1
  C  C1454  1  0.932500  0.967100  0.979400  1
  C  C1455  1  0.567500  0.467100  0.479400  1
  C  C1456  1  0.067500  0.032900  0.020600  1
  C  C1457  1  0.865900  0.284100  0.771300  1
  C  C1458  1  0.365900  0.215900  0.728700  1
  C  C1459  1  0.134100  0.715900  0.228700  1
  C  C1460  1  0.634100  0.784100  0.271300  1
  C  C1461  1  0.801900  0.293700  0.791900  1
  C  C1462  1  0.301900  0.206300  0.708100  1
  C  C1463  1  0.198100  0.706300  0.208100  1
  C  C1464  1  0.698100  0.793700  0.291900  1
  C  C1465  1  0.541700  0.258500  0.709600  1
  C  C1466  1  0.041700  0.241500  0.790400  1
  C  C1467  1  0.458300  0.741500  0.290400  1
  C  C1468  1  0.958300  0.758500  0.209600  1
  C  C1469  1  0.582100  0.279200  0.687800  1
  C  C1470  1  0.082100  0.220800  0.812200  1
  C  C1471  1  0.417900  0.720800  0.312200  1
  C  C1472  1  0.917900  0.779200  0.187800  1
  C  C1473  1  0.777200  0.391600  0.607200  1
  C  C1474  1  0.277200  0.108400  0.892800  1
  C  C1475  1  0.222800  0.608400  0.392800  1
  C  C1476  1  0.722800  0.891600  0.107200  1
  C  C1477  1  0.751100  0.352700  0.606700  1
  C  C1478  1  0.251100  0.147300  0.893300  1
  C  C1479  1  0.248900  0.647300  0.393300  1
  C  C1480  1  0.748900  0.852700  0.106700  1
  C  C1481  1  0.731000  0.307500  0.608100  1
  C  C1482  1  0.231000  0.192500  0.891900  1
  C  C1483  1  0.269000  0.692500  0.391900  1
  C  C1484  1  0.769000  0.807500  0.108100  1
  N  N1485  1  0.769800  0.533200  0.873000  1
  N  N1486  1  0.269800  0.966800  0.627000  1
  N  N1487  1  0.230200  0.466800  0.127000  1
  N  N1488  1  0.730200  0.033200  0.373000  1
  N  N1489  1  0.659100  0.500600  0.834500  1
  N  N1490  1  0.159100  0.999400  0.665500  1
  N  N1491  1  0.340900  0.499400  0.165500  1
  N  N1492  1  0.840900  0.000600  0.334500  1
  N  N1493  1  0.408400  0.435300  0.671400  1
  N  N1494  1  0.908400  0.064700  0.828600  1
  N  N1495  1  0.591600  0.564700  0.328600  1
  N  N1496  1  0.091600  0.935300  0.171400  1
  N  N1497  1  0.310600  0.390700  0.540360  1
  N  N1498  1  0.810600  0.109300  0.959640  1
  N  N1499  1  0.689400  0.609300  0.459640  1
  N  N1500  1  0.189400  0.890700  0.040360  1
  N  N1501  1  0.283200  0.352100  0.474000  1
  N  N1502  1  0.783200  0.147900  0.026000  1
  N  N1503  1  0.716800  0.647900  0.526000  1
  N  N1504  1  0.216800  0.852100  0.974000  1
  N  N1505  1  0.335800  0.435300  0.480900  1
  N  N1506  1  0.835800  0.064700  0.019100  1
  N  N1507  1  0.664200  0.564700  0.519100  1
  N  N1508  1  0.164200  0.935300  0.980900  1
  N  N1509  1  0.438300  0.377800  0.452400  1
  N  N1510  1  0.938300  0.122200  0.047600  1
  N  N1511  1  0.561700  0.622200  0.547600  1
  N  N1512  1  0.061700  0.877800  0.952400  1
  N  N1513  1  0.696400  0.301800  0.429280  1
  N  N1514  1  0.196400  0.198200  0.070720  1
  N  N1515  1  0.303600  0.698200  0.570720  1
  N  N1516  1  0.803600  0.801800  0.929280  1
  N  N1517  1  0.806100  0.258100  0.427980  1
  N  N1518  1  0.306100  0.241900  0.072020  1
  N  N1519  1  0.193900  0.741900  0.572020  1
  N  N1520  1  0.693900  0.758100  0.927980  1
  N  N1521  1  0.062500  0.201700  0.451000  1
  N  N1522  1  0.562500  0.298300  0.049000  1
  N  N1523  1  0.937500  0.798300  0.549000  1
  N  N1524  1  0.437500  0.701700  0.951000  1
  N  N1525  1  0.165400  0.167100  0.476000  1
  N  N1526  1  0.665400  0.332900  0.024000  1
  N  N1527  1  0.834600  0.832900  0.524000  1
  N  N1528  1  0.334600  0.667100  0.976000  1
  N  N1529  1  0.217300  0.245500  0.475200  1
  N  N1530  1  0.717300  0.254500  0.024800  1
  N  N1531  1  0.782700  0.754500  0.524800  1
  N  N1532  1  0.282700  0.745500  0.975200  1
  N  N1533  1  0.189000  0.265200  0.541100  1
  N  N1534  1  0.689000  0.234800  0.958900  1
  N  N1535  1  0.811000  0.734800  0.458900  1
  N  N1536  1  0.311000  0.765200  0.041100  1
  N  N1537  1  0.089200  0.339000  0.672690  1
  N  N1538  1  0.589200  0.161000  0.827310  1
  N  N1539  1  0.910800  0.661000  0.327310  1
  N  N1540  1  0.410800  0.839000  0.172690  1
  N  N1541  1  0.017900  0.357000  0.726900  1
  N  N1542  1  0.517900  0.143000  0.773100  1
  N  N1543  1  0.982100  0.643000  0.273100  1
  N  N1544  1  0.482100  0.857000  0.226900  1
  N  N1545  1  0.847000  0.436100  0.838600  1
  N  N1546  1  0.347000  0.063900  0.661400  1
  N  N1547  1  0.153000  0.563900  0.161400  1
  N  N1548  1  0.653000  0.936100  0.338600  1
  N  N1549  1  0.730300  0.453400  0.877000  1
  N  N1550  1  0.230300  0.046600  0.623000  1
  N  N1551  1  0.269700  0.546600  0.123000  1
  N  N1552  1  0.769700  0.953400  0.377000  1
  N  N1553  1  0.803800  0.348000  0.466500  1
  N  N1554  1  0.303800  0.152000  0.033500  1
  N  N1555  1  0.196200  0.652000  0.533500  1
  N  N1556  1  0.696200  0.848000  0.966500  1
  N  N1557  1  0.528500  0.392900  0.633800  1
  N  N1558  1  0.028500  0.107100  0.866200  1
  N  N1559  1  0.471500  0.607100  0.366200  1
  N  N1560  1  0.971500  0.892900  0.133800  1
  N  N1561  1  0.492500  0.378600  0.687610  1
  N  N1562  1  0.992500  0.121400  0.812390  1
  N  N1563  1  0.507500  0.621400  0.312390  1
  N  N1564  1  0.007500  0.878600  0.187610  1
  N  N1565  1  0.523600  0.490300  0.674280  1
  N  N1566  1  0.023600  0.009700  0.825720  1
  N  N1567  1  0.476400  0.509700  0.325720  1
  N  N1568  1  0.976400  0.990300  0.174280  1
  N  N1569  1  0.971600  0.289000  0.672690  1
  N  N1570  1  0.471600  0.211000  0.827310  1
  N  N1571  1  0.028400  0.711000  0.327310  1
  N  N1572  1  0.528400  0.789000  0.172690  1
  N  N1573  1  0.009800  0.412300  0.688780  1
  N  N1574  1  0.509800  0.087700  0.811220  1
  N  N1575  1  0.990200  0.587700  0.311220  1
  N  N1576  1  0.490200  0.912300  0.188780  1
  N  N1577  1  0.971600  0.350700  0.633860  1
  N  N1578  1  0.471600  0.149300  0.866140  1
  N  N1579  1  0.028400  0.649300  0.366140  1
  N  N1580  1  0.528400  0.850700  0.133860  1
  N  N1581  1  0.698300  0.245300  0.466510  1
  N  N1582  1  0.198300  0.254700  0.033490  1
  N  N1583  1  0.301700  0.754700  0.533490  1
  N  N1584  1  0.801700  0.745300  0.966510  1
  N  N1585  1  0.478100  0.467080  0.726650  1
  N  N1586  1  0.978100  0.032920  0.773350  1
  N  N1587  1  0.521900  0.532920  0.273350  1
  N  N1588  1  0.021900  0.967080  0.226650  1
  N  N1589  1  0.703500  0.343050  0.504360  1
  N  N1590  1  0.203500  0.156950  0.995640  1
  N  N1591  1  0.296500  0.656950  0.495640  1
  N  N1592  1  0.796500  0.843050  0.004360  1
  N  N1593  1  0.609700  0.440700  0.689750  1
  N  N1594  1  0.109700  0.059300  0.810250  1
  N  N1595  1  0.390300  0.559300  0.310250  1
  N  N1596  1  0.890300  0.940700  0.189750  1
  N  N1597  1  0.888100  0.354000  0.689650  1
  N  N1598  1  0.388100  0.146000  0.810350  1
  N  N1599  1  0.111900  0.646000  0.310350  1
  N  N1600  1  0.611900  0.854000  0.189650  1
  N  N1601  1  0.803900  0.283370  0.503290  1
  N  N1602  1  0.303900  0.216630  0.996710  1
  N  N1603  1  0.196100  0.716630  0.496710  1
  N  N1604  1  0.696100  0.783370  0.003290  1
  N  N1605  1  0.157600  0.852400  0.555000  1
  N  N1606  1  0.657600  0.647600  0.945000  1
  N  N1607  1  0.842400  0.147600  0.445000  1
  N  N1608  1  0.342400  0.352400  0.055000  1
  N  N1609  1  0.329200  0.580000  0.551600  1
  N  N1610  1  0.829200  0.920000  0.948400  1
  N  N1611  1  0.670800  0.420000  0.448400  1
  N  N1612  1  0.170800  0.080000  0.051600  1
  N  N1613  1  0.915800  0.278400  0.756000  1
  N  N1614  1  0.415800  0.221600  0.744000  1
  N  N1615  1  0.084200  0.721600  0.244000  1
  N  N1616  1  0.584200  0.778400  0.256000  1
  N  N1617  1  0.610400  0.295300  0.669700  1
  N  N1618  1  0.110400  0.204700  0.830300  1
  N  N1619  1  0.389600  0.704700  0.330300  1
  N  N1620  1  0.889600  0.795300  0.169700  1
  N  N1621  1  0.810900  0.428200  0.604500  1
  N  N1622  1  0.310900  0.071800  0.895500  1
  N  N1623  1  0.189100  0.571800  0.395500  1
  N  N1624  1  0.689100  0.928200  0.104500  1
  N  N1625  1  0.711400  0.259900  0.603600  1
  N  N1626  1  0.211400  0.240100  0.896400  1
  N  N1627  1  0.288600  0.740100  0.396400  1
  N  N1628  1  0.788600  0.759900  0.103600  1
  Cl  Cl1629  1  0.808470  0.489030  0.788030  1
  Cl  Cl1630  1  0.308470  0.010970  0.711970  1
  Cl  Cl1631  1  0.191530  0.510970  0.211970  1
  Cl  Cl1632  1  0.691530  0.989030  0.288030  1
  Cl  Cl1633  1  0.703110  0.396810  0.792480  1
  Cl  Cl1634  1  0.203110  0.103190  0.707520  1
  Cl  Cl1635  1  0.296890  0.603190  0.207520  1
  Cl  Cl1636  1  0.796890  0.896810  0.292480  1
  Cl  Cl1637  1  0.037210  0.216460  0.535910  1
  Cl  Cl1638  1  0.537210  0.283540  0.964090  1
  Cl  Cl1639  1  0.962790  0.783540  0.464090  1
  Cl  Cl1640  1  0.462790  0.716460  0.035910  1
  Cl  Cl1641  1  0.066660  0.305420  0.501720  1
  Cl  Cl1642  1  0.566660  0.194580  0.998280  1
  Cl  Cl1643  1  0.933340  0.694580  0.498280  1
  Cl  Cl1644  1  0.433340  0.805420  0.001720  1
  Cl  Cl1645  1  0.433310  0.313830  0.500050  1
  Cl  Cl1646  1  0.933310  0.186170  0.999950  1
  Cl  Cl1647  1  0.566690  0.686170  0.499950  1
  Cl  Cl1648  1  0.066690  0.813830  0.000050  1
  Cl  Cl1649  1  0.465440  0.433480  0.537650  1
  Cl  Cl1650  1  0.965440  0.066520  0.962350  1
  Cl  Cl1651  1  0.534560  0.566520  0.462350  1
  Cl  Cl1652  1  0.034560  0.933480  0.037650  1
  Cl  Cl1653  1  0.603030  0.772400  0.371790  1
  Cl  Cl1654  1  0.103030  0.727600  0.128210  1
  Cl  Cl1655  1  0.396970  0.227600  0.628210  1
  Cl  Cl1656  1  0.896970  0.272400  0.871790  1
  Cl  Cl1657  1  0.115400  0.513990  0.637800  1
  Cl  Cl1658  1  0.615400  0.986010  0.862200  1
  Cl  Cl1659  1  0.884600  0.486010  0.362200  1
  Cl  Cl1660  1  0.384600  0.013990  0.137800  1
  Cl  Cl1661  1  0.579400  0.607500  0.778950  1
  Cl  Cl1662  1  0.079400  0.892500  0.721050  1
  Cl  Cl1663  1  0.420600  0.392500  0.221050  1
  Cl  Cl1664  1  0.920600  0.107500  0.278950  1
  Cl  Cl1665  1  0.732900  0.197530  0.695810  1
  Cl  Cl1666  1  0.232900  0.302470  0.804190  1
  Cl  Cl1667  1  0.267100  0.802470  0.304190  1
  Cl  Cl1668  1  0.767100  0.697530  0.195810  1
  Cl  Cl1669  1  0.687300  0.528500  0.623750  1
  Cl  Cl1670  1  0.187300  0.971500  0.876250  1
  Cl  Cl1671  1  0.312700  0.471500  0.376250  1
  Cl  Cl1672  1  0.812700  0.028500  0.123750  1
  Cl  Cl1673  1  0.277100  0.549700  0.862450  1
  Cl  Cl1674  1  0.777100  0.950300  0.637550  1
  Cl  Cl1675  1  0.722900  0.450300  0.137550  1
  Cl  Cl1676  1  0.222900  0.049700  0.362450  1
  Cl  Cl1677  1  0.366300  0.527300  0.890200  1
  Cl  Cl1678  1  0.866300  0.972700  0.609800  1
  Cl  Cl1679  1  0.633700  0.472700  0.109800  1
  Cl  Cl1680  1  0.133700  0.027300  0.390200  1
  O  O1681  1  0.545000  0.797100  0.368400  1
  O  O1682  1  0.045000  0.702900  0.131600  1
  O  O1683  1  0.455000  0.202900  0.631600  1
  O  O1684  1  0.955000  0.297100  0.868400  1
  O  O1685  1  0.664700  0.798100  0.377400  1
  O  O1686  1  0.164700  0.701900  0.122600  1
  O  O1687  1  0.335300  0.201900  0.622600  1
  O  O1688  1  0.835300  0.298100  0.877400  1
  O  O1689  1  0.590200  0.758600  0.399200  1
  O  O1690  1  0.090200  0.741400  0.100800  1
  O  O1691  1  0.409800  0.241400  0.600800  1
  O  O1692  1  0.909800  0.258600  0.899200  1
  O  O1693  1  0.608100  0.737000  0.340800  1
  O  O1694  1  0.108100  0.763000  0.159200  1
  O  O1695  1  0.391900  0.263000  0.659200  1
  O  O1696  1  0.891900  0.237000  0.840800  1
  O  O1697  1  0.189100  0.514800  0.630600  1
  O  O1698  1  0.689100  0.985200  0.869400  1
  O  O1699  1  0.810900  0.485200  0.369400  1
  O  O1700  1  0.310900  0.014800  0.130600  1
  O  O1701  1  0.088700  0.555100  0.643300  1
  O  O1702  1  0.588700  0.944900  0.856700  1
  O  O1703  1  0.911300  0.444900  0.356700  1
  O  O1704  1  0.411300  0.055100  0.143300  1
  O  O1705  1  0.113600  0.504900  0.669200  1
  O  O1706  1  0.613600  0.995100  0.830800  1
  O  O1707  1  0.886400  0.495100  0.330800  1
  O  O1708  1  0.386400  0.004900  0.169200  1
  O  O1709  1  0.086300  0.481800  0.610200  1
  O  O1710  1  0.586300  0.018200  0.889800  1
  O  O1711  1  0.913700  0.518200  0.389800  1
  O  O1712  1  0.413700  0.981800  0.110200  1
  O  O1713  1  0.631800  0.643700  0.790000  1
  O  O1714  1  0.131800  0.856300  0.710000  1
  O  O1715  1  0.368200  0.356300  0.210000  1
  O  O1716  1  0.868200  0.143700  0.290000  1
  O  O1717  1  0.615200  0.565300  0.761900  1
  O  O1718  1  0.115200  0.934700  0.738100  1
  O  O1719  1  0.384800  0.434700  0.238100  1
  O  O1720  1  0.884800  0.065300  0.261900  1
  O  O1721  1  0.527300  0.615700  0.755300  1
  O  O1722  1  0.027300  0.884300  0.744700  1
  O  O1723  1  0.472700  0.384300  0.244700  1
  O  O1724  1  0.972700  0.115700  0.255300  1
  O  O1725  1  0.541300  0.607600  0.810100  1
  O  O1726  1  0.041300  0.892400  0.689900  1
  O  O1727  1  0.458700  0.392400  0.189900  1
  O  O1728  1  0.958700  0.107600  0.310100  1
  O  O1729  1  0.679000  0.167300  0.674000  1
  O  O1730  1  0.179000  0.332700  0.826000  1
  O  O1731  1  0.321000  0.832700  0.326000  1
  O  O1732  1  0.821000  0.667300  0.174000  1
  O  O1733  1  0.698000  0.240600  0.714800  1
  O  O1734  1  0.198000  0.259400  0.785200  1
  O  O1735  1  0.302000  0.759400  0.285200  1
  O  O1736  1  0.802000  0.740600  0.214800  1
  O  O1737  1  0.789800  0.202000  0.672700  1
  O  O1738  1  0.289800  0.298000  0.827300  1
  O  O1739  1  0.210200  0.798000  0.327300  1
  O  O1740  1  0.710200  0.702000  0.172700  1
  O  O1741  1  0.760600  0.182900  0.723500  1
  O  O1742  1  0.260600  0.317100  0.776500  1
  O  O1743  1  0.239400  0.817100  0.276500  1
  O  O1744  1  0.739400  0.682900  0.223500  1
  O  O1745  1  0.693300  0.489800  0.631400  1
  O  O1746  1  0.193300  0.010200  0.868600  1
  O  O1747  1  0.306700  0.510200  0.368600  1
  O  O1748  1  0.806700  0.989800  0.131400  1
  O  O1749  1  0.677500  0.565200  0.653300  1
  O  O1750  1  0.177500  0.934800  0.846700  1
  O  O1751  1  0.322500  0.434800  0.346700  1
  O  O1752  1  0.822500  0.065200  0.153300  1
  O  O1753  1  0.740900  0.532100  0.602900  1
  O  O1754  1  0.240900  0.967900  0.897100  1
  O  O1755  1  0.259100  0.467900  0.397100  1
  O  O1756  1  0.759100  0.032100  0.102900  1
  O  O1757  1  0.622400  0.521200  0.605400  1
  O  O1758  1  0.122400  0.978800  0.894600  1
  O  O1759  1  0.377600  0.478800  0.394600  1
  O  O1760  1  0.877600  0.021200  0.105400  1
  O  O1761  1  0.347700  0.545000  0.870500  1
  O  O1762  1  0.847700  0.955000  0.629500  1
  O  O1763  1  0.652300  0.455000  0.129500  1
  O  O1764  1  0.152300  0.045000  0.370500  1
  O  O1765  1  0.264400  0.529000  0.826300  1
  O  O1766  1  0.764400  0.971000  0.673700  1
  O  O1767  1  0.735600  0.471000  0.173700  1
  O  O1768  1  0.235600  0.029000  0.326300  1
  O  O1769  1  0.260000  0.594600  0.872300  1
  O  O1770  1  0.760000  0.905400  0.627700  1
  O  O1771  1  0.740000  0.405400  0.127700  1
  O  O1772  1  0.240000  0.094600  0.372300  1
  O  O1773  1  0.231200  0.531200  0.880800  1
  O  O1774  1  0.731200  0.968800  0.619200  1
  O  O1775  1  0.768800  0.468800  0.119200  1
  O  O1776  1  0.268800  0.031200  0.380800  1
  O  O1777  1  0.581300  0.655600  0.785800  1
  O  O1778  1  0.081300  0.844400  0.714200  1
  O  O1779  1  0.418700  0.344400  0.214200  1
  O  O1780  1  0.918700  0.155600  0.285800  1
  O  O1781  1  0.625200  0.585900  0.749200  1
  O  O1782  1  0.125200  0.914100  0.750800  1
  O  O1783  1  0.374800  0.414100  0.250800  1
  O  O1784  1  0.874800  0.085900  0.249200  1
  O  O1785  1  0.506300  0.591500  0.772800  1
  O  O1786  1  0.006300  0.908500  0.727200  1
  O  O1787  1  0.493700  0.408500  0.227200  1
  O  O1788  1  0.993700  0.091500  0.272800  1
  O  O1789  1  0.606400  0.603300  0.811300  1
  O  O1790  1  0.106400  0.896700  0.688700  1
  O  O1791  1  0.393600  0.396700  0.188700  1
  O  O1792  1  0.893600  0.103300  0.311300  1
  O  O1793  1  0.673500  0.192300  0.671100  1
  O  O1794  1  0.173500  0.307700  0.828900  1
  O  O1795  1  0.326500  0.807700  0.328900  1
  O  O1796  1  0.826500  0.692300  0.171100  1
  O  O1797  1  0.712100  0.228600  0.730600  1
  O  O1798  1  0.212100  0.271400  0.769400  1
  O  O1799  1  0.287900  0.771400  0.269400  1
  O  O1800  1  0.787900  0.728600  0.230600  1
  O  O1801  1  0.796400  0.216000  0.685000  1
  O  O1802  1  0.296400  0.284000  0.815000  1
  O  O1803  1  0.203600  0.784000  0.315000  1
  O  O1804  1  0.703600  0.716000  0.185000  1
  O  O1805  1  0.751500  0.152900  0.695300  1
  O  O1806  1  0.251500  0.347100  0.804700  1
  O  O1807  1  0.248500  0.847100  0.304700  1
  O  O1808  1  0.748500  0.652900  0.195300  1
  O  O1809  1  0.739800  0.534200  0.650200  1
  O  O1810  1  0.239800  0.965800  0.849800  1
  O  O1811  1  0.260200  0.465800  0.349800  1
  O  O1812  1  0.760200  0.034200  0.150200  1
  O  O1813  1  0.656800  0.569400  0.633100  1
  O  O1814  1  0.156800  0.930600  0.866900  1
  O  O1815  1  0.343200  0.430600  0.366900  1
  O  O1816  1  0.843200  0.069400  0.133100  1
  O  O1817  1  0.724000  0.513500  0.592600  1
  O  O1818  1  0.224000  0.986500  0.907400  1
  O  O1819  1  0.276000  0.486500  0.407400  1
  O  O1820  1  0.776000  0.013500  0.092600  1
  O  O1821  1  0.642100  0.496500  0.626400  1
  O  O1822  1  0.142100  0.003500  0.873600  1
  O  O1823  1  0.357900  0.503500  0.373600  1
  O  O1824  1  0.857900  0.996500  0.126400  1
  O  O1825  1  0.420800  0.549800  0.913200  1
  O  O1826  1  0.920800  0.950200  0.586800  1
  O  O1827  1  0.579200  0.450200  0.086800  1
  O  O1828  1  0.079200  0.049800  0.413200  1
  O  O1829  1  0.307200  0.523500  0.909900  1
  O  O1830  1  0.807200  0.976500  0.590100  1
  O  O1831  1  0.692800  0.476500  0.090100  1
  O  O1832  1  0.192800  0.023500  0.409900  1
  O  O1833  1  0.389800  0.486000  0.867700  1
  O  O1834  1  0.889800  0.014000  0.632300  1
  O  O1835  1  0.610200  0.514000  0.132300  1
  O  O1836  1  0.110200  0.986000  0.367700  1
  O  O1837  1  0.344300  0.553300  0.870800  1
  O  O1838  1  0.844300  0.946700  0.629200  1
  O  O1839  1  0.655700  0.446700  0.129200  1
  O  O1840  1  0.155700  0.053300  0.370800  1
