
#######################################################################
#
#                 Cambridge Crystallographic Data Centre
#                                CCDC 
#
#######################################################################
#
# If this CIF has been generated from an entry in the Cambridge 
# Structural Database, then it will include bibliographic, chemical, 
# crystal, experimental, refinement or atomic coordinate data resulting 
# from the CCDC's data processing and validation procedures.
#
#######################################################################

data_AVELEU
_chemical_formula_moiety         
'C186 H150 Cl6 Fe6 N30 6+,5(C2 H3 N1),6(Cl1 O4 1-)'
_chemical_name_systematic        
"tris(\m-3,3'-bipyridine-6,6'-diylbis(N-(4-methylphenyl)methanimine))-tris(\m-3,3':6',2'':5'',3'''-quaterpyridine-6,6'''-diylbis(N-(4-methylphenyl)methanimine))-hexachloro-hexa-iron hexaperchlorate acetonitrile unknown solvate"
_symmetry_cell_setting           monoclinic
_symmetry_space_group_name_H-M   'P 21/n'
_symmetry_Int_Tables_number      14
_space_group_name_Hall           '-P 2yn'
loop_
_symmetry_equiv_pos_site_id
_symmetry_equiv_pos_as_xyz
1 x,y,z
2 1/2-x,1/2+y,1/2-z
3 -x,-y,-z
4 1/2+x,1/2-y,1/2+z
_cell_length_a                   33.0443(19)
_cell_length_b                   19.1840(11)
_cell_length_c                   41.840(2)
_cell_angle_alpha                90
_cell_angle_beta                 111.339(2)
_cell_angle_gamma                90
_cell_volume                     24705
_exptl_crystal_colour            purple
_exptl_crystal_description       block
_cell_formula_units_Z            4
loop_
_atom_site_label
_atom_site_type_symbol
_atom_site_fract_x
_atom_site_fract_y
_atom_site_fract_z
Fe1 Fe 0.53183(6) 0.24516(9) 0.16959(4)
Fe2 Fe 0.76520(4) -0.11674(8) 0.50098(3)
Fe3 Fe 0.61646(5) 0.61698(7) 0.50047(3)
Fe4 Fe 0.70324(4) 0.24784(7) 0.53293(3)
Fe5 Fe 0.56665(4) 0.49105(7) 0.31964(3)
Fe6 Fe 0.64892(4) 0.01021(7) 0.31958(3)
Cl1 Cl 0.51097(10) 0.19153(15) 0.21197(7)
Cl2 Cl 0.60319(6) 0.29689(10) 0.20752(5)
Cl3 Cl 0.78354(8) -0.03721(13) 0.46409(6)
Cl4 Cl 0.69458(6) -0.06666(11) 0.49828(5)
Cl5 Cl 0.68617(6) 0.56669(10) 0.49995(5)
Cl6 Cl 0.56652(7) 0.53456(12) 0.46235(5)
N1 N 0.4668(3) 0.2302(6) 0.1270(2)
N2 N 0.4994(3) 0.3409(5) 0.1655(2)
N3 N 0.5647(2) 0.5916(4) 0.3286(2)
N4 N 0.6093(2) 0.6894(4) 0.45964(19)
N5 N 0.6479(2) 0.7168(4) 0.5260(2)
N6 N 0.5647(3) 0.6642(4) 0.5191(2)
N7 N 0.6222(3) 0.5617(4) 0.54760(19)
N8 N 0.6982(2) 0.3036(4) 0.57072(19)
N9 N 0.7419(2) 0.1939(4) 0.57202(18)
N10 N 0.7983(2) -0.0625(4) 0.5490(2)
N11 N 0.8329(3) -0.1654(4) 0.5240(2)
N12 N 0.7545(3) -0.2173(5) 0.5248(2)
N13 N 0.7348(2) -0.1890(4) 0.4589(2)
N14 N 0.6610(2) -0.0892(4) 0.32731(19)
N15 N 0.6430(3) -0.0179(5) 0.2731(2)
N16 N 0.5639(3) 0.1530(5) 0.1614(2)
N17 N 0.5466(3) 0.2697(6) 0.1230(2)
N18 N 0.6520(2) 0.1962(4) 0.53350(18)
N19 N 0.6071(2) 0.4715(4) 0.36620(19)
N20 N 0.6214(2) 0.5075(4) 0.31239(19)
N21 N 0.5097(2) 0.4764(4) 0.32572(18)
N22 N 0.7110(2) 0.0284(5) 0.32731(18)
N23 N 0.5877(2) -0.0098(4) 0.31122(19)
N24 N 0.6493(2) 0.0284(4) 0.36614(19)
N25 N 0.7547(2) 0.3017(4) 0.53349(18)
C1 C 0.4471(3) 0.1701(4) 0.1077(2)
C2 C 0.4215(3) 0.1684(5) 0.0729(2)
H1 H 0.4173 0.2097 0.0595
C3 C 0.4021(4) 0.1064(6) 0.0578(2)
H2 H 0.3847 0.1053 0.0340
C4 C 0.4083(4) 0.0461(5) 0.0774(3)
C5 C 0.4338(4) 0.0477(4) 0.1121(3)
H3 H 0.4380 0.0065 0.1255
C6 C 0.4532(3) 0.1097(5) 0.12723(19)
H4 H 0.4707 0.1108 0.1510
C7 C 0.3839(7) -0.0212(9) 0.0615(6)
H5 H 0.3980 -0.0431 0.0471
H6 H 0.3537 -0.0100 0.0474
H7 H 0.3844 -0.0534 0.0798
C8 C 0.4468(4) 0.2867(7) 0.1170(3)
H8 H 0.4223 0.2878 0.0962
C9 C 0.4603(4) 0.3499(7) 0.1367(3)
C10 C 0.4393(4) 0.4123(7) 0.1300(3)
H9 H 0.4148 0.4184 0.1094
C11 C 0.4532(4) 0.4672(7) 0.1532(3)
H10 H 0.4392 0.5113 0.1482
C12 C 0.4876(3) 0.4565(6) 0.1833(3)
C13 C 0.5108(3) 0.3946(6) 0.1873(3)
H11 H 0.5366 0.3902 0.2070
N26 N 0.53292(19) 0.5219(3) 0.27335(11)
C14 C 0.5200(2) 0.4781(3) 0.24494(15)
H12 H 0.5243 0.4292 0.2479
C15 C 0.5007(2) 0.5058(3) 0.21217(12)
C16 C 0.4944(2) 0.5773(4) 0.20783(13)
H13 H 0.4812 0.5963 0.1854
C17 C 0.5073(3) 0.6211(3) 0.23624(18)
H14 H 0.5030 0.6700 0.2333
C18 C 0.5266(2) 0.5934(3) 0.26900(14)
C19 C 0.5430(3) 0.6310(6) 0.3005(3)
C20 C 0.5349(4) 0.7022(6) 0.3043(3)
H15 H 0.5186 0.7288 0.2847
C21 C 0.5502(3) 0.7335(6) 0.3360(3)
H16 H 0.5452 0.7817 0.3384
C22 C 0.5732(3) 0.6932(6) 0.3644(3)
C23 C 0.5805(3) 0.6234(5) 0.3597(3)
H17 H 0.5973 0.5966 0.3790
C24 C 0.5931(3) 0.6730(5) 0.4266(2)
H18 H 0.5831 0.6266 0.4206
C25 C 0.5896(3) 0.7193(5) 0.4000(2)
C26 C 0.6010(3) 0.7881(5) 0.4087(3)
H19 H 0.5968 0.8228 0.3915
C27 C 0.6194(3) 0.8052(5) 0.4442(3)
H20 H 0.6292 0.8514 0.4509
C28 C 0.6231(3) 0.7554(5) 0.4688(3)
C29 C 0.6424(3) 0.7679(6) 0.5049(3)
H21 H 0.6512 0.8136 0.5133
C30 C 0.6626(2) 0.7267(4) 0.56201(14)
C31 C 0.6480(3) 0.7817(4) 0.5766(2)
H22 H 0.6294 0.8161 0.5624
C32 C 0.6606(3) 0.7862(4) 0.6121(2)
H23 H 0.6506 0.8238 0.6221
C33 C 0.6878(3) 0.7358(5) 0.63292(14)
C34 C 0.7024(3) 0.6809(4) 0.61830(19)
H24 H 0.7210 0.6464 0.6325
C35 C 0.6898(3) 0.6763(4) 0.5828(2)
H25 H 0.6997 0.6388 0.5728
C36 C 0.6999(8) 0.7427(10) 0.6719(3)
H26 H 0.6974 0.6970 0.6816
H27 H 0.6802 0.7757 0.6766
H28 H 0.7298 0.7595 0.6824
C37 C 0.5398(3) 0.7246(6) 0.5052(3)
C38 C 0.5315(4) 0.7772(6) 0.5243(3)
H29 H 0.5420 0.7740 0.5486
C39 C 0.5079(3) 0.8347(6) 0.5079(3)
H30 H 0.5025 0.8705 0.5215
C40 C 0.4919(3) 0.8425(6) 0.4729(3)
C41 C 0.4996(3) 0.7893(6) 0.4538(3)
H31 H 0.4891 0.7929 0.4295
C42 C 0.5224(3) 0.7308(5) 0.4695(3)
H32 H 0.5264 0.6939 0.4558
C43 C 0.4680(3) 0.9073(6) 0.4557(3)
H33 H 0.4702 0.9125 0.4331
H34 H 0.4809 0.9481 0.4698
H35 H 0.4374 0.9035 0.4530
C44 C 0.5679(3) 0.6425(6) 0.5481(3)
H36 H 0.5519 0.6649 0.5600
C45 C 0.5961(3) 0.5824(5) 0.5643(2)
C46 C 0.5967(4) 0.5478(6) 0.5934(3)
H37 H 0.5793 0.5639 0.6056
C47 C 0.6232(4) 0.4888(6) 0.6049(3)
H38 H 0.6238 0.4645 0.6248
C48 C 0.6487(3) 0.4665(5) 0.5862(2)
C49 C 0.6477(3) 0.5059(5) 0.5586(2)
H39 H 0.6662 0.4930 0.5467
C50 C 0.6766(3) 0.3631(5) 0.5673(2)
H40 H 0.6619 0.3804 0.5447
C51 C 0.6742(3) 0.4017(5) 0.5948(2)
C52 C 0.6975(4) 0.3776(5) 0.6285(3)
H41 H 0.6977 0.4025 0.6482
C53 C 0.7199(4) 0.3164(6) 0.6312(3)
H42 H 0.7350 0.2980 0.6535
C54 C 0.7215(3) 0.2802(5) 0.6035(2)
C55 C 0.7453(3) 0.2157(5) 0.6032(2)
C56 C 0.7695(3) 0.1784(6) 0.6317(3)
H43 H 0.7730 0.1960 0.6538
C57 C 0.7887(4) 0.1163(6) 0.6291(3)
H44 H 0.8045 0.0903 0.6491
C58 C 0.7847(3) 0.0920(5) 0.5968(2)
C59 C 0.7628(3) 0.1353(5) 0.5694(2)
H45 H 0.7626 0.1228 0.5474
C60 C 0.7823(3) -0.0065(6) 0.5590(2)
H46 H 0.7548 0.0108 0.5444
C61 C 0.8039(3) 0.0280(6) 0.5900(2)
C62 C 0.8411(3) -0.0039(6) 0.6126(3)
H47 H 0.8554 0.0142 0.6350
C63 C 0.8568(3) -0.0616(6) 0.6021(3)
H48 H 0.8823 -0.0836 0.6172
C64 C 0.8361(3) -0.0885(5) 0.5697(3)
C65 C 0.8528(3) -0.1454(6) 0.5548(3)
H49 H 0.8790 -0.1680 0.5683
C66 C 0.8485(3) -0.2217(6) 0.5096(3)
C67 C 0.8750(4) -0.2746(7) 0.5296(3)
H50 H 0.8841 -0.2735 0.5539
C68 C 0.8873(4) -0.3266(7) 0.5138(3)
H51 H 0.9056 -0.3621 0.5273
C69 C 0.8741(4) -0.3307(7) 0.4775(3)
C70 C 0.8500(3) -0.2791(7) 0.4592(3)
H52 H 0.8419 -0.2791 0.4349
C71 C 0.8363(3) -0.2244(6) 0.4754(3)
H53 H 0.8180 -0.1888 0.4618
C72 C 0.8908(5) -0.3914(7) 0.4615(3)
H54 H 0.8699 -0.4006 0.4383
H55 H 0.8940 -0.4332 0.4757
H56 H 0.9190 -0.3789 0.4604
C73 C 0.7699(3) -0.2294(5) 0.56104(16)
C74 C 0.7587(3) -0.1838(4) 0.5823(2)
H57 H 0.7398 -0.1457 0.5726
C75 C 0.7752(3) -0.1938(4) 0.6176(2)
H58 H 0.7675 -0.1626 0.6321
C76 C 0.8028(3) -0.2495(5) 0.63169(16)
C77 C 0.8140(3) -0.2952(4) 0.6105(2)
H59 H 0.8329 -0.3332 0.6201
C78 C 0.7975(3) -0.2851(5) 0.5751(2)
H60 H 0.8052 -0.3163 0.5606
C79 C 0.8189(6) -0.2631(8) 0.6707(3)
H61 H 0.8090 -0.3091 0.6749
H62 H 0.8073 -0.2272 0.6816
H63 H 0.8507 -0.2616 0.6802
C80 C 0.7397(3) -0.2696(6) 0.5032(3)
H64 H 0.7368 -0.3151 0.5110
C81 C 0.7281(3) -0.2548(6) 0.4675(3)
C82 C 0.7089(3) -0.3048(6) 0.4416(3)
H65 H 0.7044 -0.3512 0.4476
C83 C 0.6967(3) -0.2862(6) 0.4077(3)
H66 H 0.6848 -0.3200 0.3901
C84 C 0.7020(3) -0.2173(5) 0.3992(2)
C85 C 0.7222(3) -0.1702(6) 0.4264(2)
H67 H 0.7269 -0.1235 0.4211
C86 C 0.6716(3) -0.1229(5) 0.3575(2)
H68 H 0.6681 -0.0986 0.3760
C87 C 0.6875(3) -0.1910(5) 0.3634(2)
C88 C 0.6906(3) -0.2294(5) 0.3361(3)
H69 H 0.7009 -0.2760 0.3389
C89 C 0.6776(3) -0.1956(6) 0.3040(3)
H70 H 0.6780 -0.2204 0.2845
C90 C 0.6643(3) -0.1260(6) 0.3007(3)
C91 C 0.6521(3) -0.0855(6) 0.2689(2)
C92 C 0.6483(4) -0.1121(6) 0.2364(3)
H71 H 0.6546 -0.1596 0.2337
C93 C 0.6351(3) -0.0673(6) 0.2088(3)
H72 H 0.6336 -0.0839 0.1870
C94 C 0.6242(3) -0.0006(6) 0.2119(3)
C95 C 0.6292(3) 0.0244(6) 0.2450(2)
H73 H 0.6229 0.0718 0.2476
C96 C 0.5778(4) 0.1031(6) 0.1838(3)
H74 H 0.5665 0.1015 0.2017
C97 C 0.6079(4) 0.0515(6) 0.1839(2)
C98 C 0.6225(4) 0.0526(7) 0.1561(3)
H75 H 0.6415 0.0177 0.1536
C99 C 0.6077(4) 0.1073(7) 0.1323(3)
H76 H 0.6175 0.1100 0.1136
C100 C 0.5802(4) 0.1559(6) 0.1355(3)
C101 C 0.5678(4) 0.2203(7) 0.1147(3)
H77 H 0.5754 0.2255 0.0950
C102 C 0.5336(3) 0.3298(4) 0.1027(2)
C103 C 0.5481(3) 0.3931(5) 0.11914(19)
H78 H 0.5663 0.3938 0.1427
C104 C 0.5359(3) 0.4552(4) 0.1011(3)
H79 H 0.5458 0.4984 0.1123
C105 C 0.5093(3) 0.4541(5) 0.0666(3)
C106 C 0.4948(3) 0.3909(6) 0.0502(2)
H80 H 0.4766 0.3901 0.0266
C107 C 0.5069(3) 0.3287(5) 0.0683(2)
H81 H 0.4970 0.2855 0.0570
C108 C 0.4943(9) 0.5234(8) 0.0468(5)
H82 H 0.4649 0.5347 0.0458
H83 H 0.4942 0.5184 0.0235
H84 H 0.5143 0.5608 0.0587
C109 C 0.6526(3) 0.1439(6) 0.5594(2)
C110 C 0.6683(3) 0.0783(6) 0.5601(3)
H85 H 0.6780 0.0635 0.5424
C111 C 0.6703(4) 0.0338(6) 0.5858(3)
H86 H 0.6809 -0.0122 0.5855
C112 C 0.6572(4) 0.0539(8) 0.6126(3)
C113 C 0.6406(4) 0.1206(7) 0.6112(3)
H87 H 0.6308 0.1353 0.6288
C114 C 0.6378(3) 0.1659(6) 0.5856(2)
H88 H 0.6262 0.2113 0.5852
C115 C 0.6588(5) 0.0050(8) 0.6420(4)
H89 H 0.6804 0.0222 0.6635
H90 H 0.6669 -0.0419 0.6372
H91 H 0.6302 0.0036 0.6440
C116 C 0.6142(4) 0.2205(5) 0.5149(2)
H92 H 0.5879 0.2023 0.5157
N27 N 0.65695(15) 0.2965(3) 0.49564(12)
C117 C 0.61547(18) 0.2768(3) 0.49325(13)
C118 C 0.57927(14) 0.3078(3) 0.46898(15)
H93 H 0.5509 0.2944 0.4673
C119 C 0.58456(16) 0.3586(3) 0.44711(14)
H94 H 0.5598 0.3798 0.4305
C120 C 0.6260(2) 0.3783(3) 0.44950(14)
C121 C 0.66224(15) 0.3473(3) 0.47377(14)
H95 H 0.6906 0.3608 0.4754
C122 C 0.6014(3) 0.4354(5) 0.3913(2)
H96 H 0.5737 0.4150 0.3871
C123 C 0.6334(3) 0.4257(5) 0.4234(2)
C124 C 0.6737(3) 0.4564(5) 0.4299(2)
H97 H 0.6957 0.4550 0.4521
C125 C 0.6808(3) 0.4887(5) 0.4034(2)
H98 H 0.7085 0.5084 0.4069
C126 C 0.6484(3) 0.4932(5) 0.3715(2)
C127 C 0.6550(3) 0.5154(5) 0.3409(2)
H99 H 0.6817 0.5345 0.3413
C128 C 0.6278(3) 0.5244(5) 0.2807(2)
C129 C 0.6183(3) 0.4711(6) 0.2555(2)
H100 H 0.6081 0.4267 0.2593
C130 C 0.6245(3) 0.4856(6) 0.2250(3)
H101 H 0.6191 0.4502 0.2081
C131 C 0.6384(4) 0.5512(6) 0.2186(2)
C132 C 0.6476(4) 0.6014(6) 0.2443(3)
H102 H 0.6575 0.6461 0.2406
C133 C 0.6426(3) 0.5879(6) 0.2756(2)
H103 H 0.6495 0.6226 0.2930
C134 C 0.6441(5) 0.5676(6) 0.1852(3)
H104 H 0.6169 0.5863 0.1688
H105 H 0.6519 0.5249 0.1759
H106 H 0.6673 0.6021 0.1892
C135 C 0.4850(3) 0.5274(5) 0.3349(2)
C136 C 0.4969(3) 0.5504(5) 0.3684(2)
H107 H 0.5217 0.5314 0.3858
C137 C 0.4723(3) 0.6014(5) 0.3764(2)
H108 H 0.4812 0.6179 0.3993
C138 C 0.4354(3) 0.6290(6) 0.3520(3)
C139 C 0.4241(4) 0.6056(6) 0.3187(3)
H109 H 0.3993 0.6248 0.3012
C140 C 0.4481(3) 0.5547(6) 0.3101(3)
H110 H 0.4393 0.5385 0.2871
C141 C 0.4103(4) 0.6865(6) 0.3610(3)
H111 H 0.4070 0.6755 0.3828
H112 H 0.3815 0.6906 0.3429
H113 H 0.4260 0.7306 0.3632
C142 C 0.4918(3) 0.4183(6) 0.3128(2)
H114 H 0.4621 0.4096 0.3092
N28 N 0.55930(19) 0.3903(2) 0.31025(13)
C143 C 0.51719(17) 0.3676(3) 0.30415(15)
C144 C 0.50590(16) 0.2986(3) 0.29518(16)
H115 H 0.4771 0.2831 0.2910
C145 C 0.5367(2) 0.2522(3) 0.29231(15)
H116 H 0.5290 0.2050 0.2862
C146 C 0.57883(19) 0.2749(3) 0.29841(15)
C147 C 0.59012(15) 0.3439(3) 0.30738(14)
H117 H 0.6189 0.3594 0.3115
N29 N 0.6460(2) 0.1119(2) 0.31035(13)
C148 C 0.61144(16) 0.1566(3) 0.30660(14)
H118 H 0.5863 0.1398 0.3100
C149 C 0.61370(18) 0.2260(3) 0.29783(16)
C150 C 0.6505(2) 0.2507(2) 0.29282(16)
H119 H 0.6520 0.2981 0.2868
C151 C 0.68503(18) 0.2060(3) 0.29657(16)
H120 H 0.7102 0.2229 0.2931
C152 C 0.68277(17) 0.1366(3) 0.30534(15)
C153 C 0.7176(3) 0.0902(6) 0.3155(2)
H121 H 0.7448 0.1021 0.3141
C154 C 0.7453(3) -0.0224(5) 0.3370(3)
C155 C 0.7630(4) -0.0474(6) 0.3130(3)
H122 H 0.7529 -0.0283 0.2905
C156 C 0.7938(4) -0.0978(6) 0.3211(3)
H123 H 0.8046 -0.1150 0.3044
C157 C 0.8097(3) -0.1242(6) 0.3550(3)
C158 C 0.7926(3) -0.0974(6) 0.3783(3)
H124 H 0.8031 -0.1144 0.4012
C159 C 0.7616(3) -0.0484(5) 0.3694(2)
H125 H 0.7508 -0.0315 0.3861
C160 C 0.8461(4) -0.1825(6) 0.3663(3)
H126 H 0.8669 -0.1722 0.3893
H127 H 0.8613 -0.1835 0.3501
H128 H 0.8326 -0.2280 0.3663
C161 C 0.5540(3) -0.0287(6) 0.2788(2)
C162 C 0.5348(4) 0.0200(6) 0.2546(3)
H129 H 0.5451 0.0667 0.2584
C163 C 0.5011(4) 0.0044(7) 0.2247(3)
H130 H 0.4884 0.0396 0.2081
C164 C 0.4852(4) -0.0653(7) 0.2190(3)
C165 C 0.5078(4) -0.1145(6) 0.2426(3)
H131 H 0.5000 -0.1622 0.2381
C166 C 0.5409(4) -0.0973(6) 0.2722(3)
H132 H 0.5550 -0.1326 0.2884
C167 C 0.4476(5) -0.0856(8) 0.1867(4)
H133 H 0.4434 -0.1363 0.1863
H134 H 0.4539 -0.0715 0.1665
H135 H 0.4210 -0.0623 0.1863
C168 C 0.5785(3) -0.0174(5) 0.3386(2)
H136 H 0.5513 -0.0343 0.3381
C169 C 0.6141(3) 0.0025(5) 0.3703(2)
C170 C 0.6078(3) 0.0054(5) 0.4019(2)
H137 H 0.5825 -0.0130 0.4045
C171 C 0.6408(3) 0.0366(5) 0.4292(2)
H138 H 0.6393 0.0352 0.4515
C172 C 0.6763(3) 0.0703(5) 0.4247(2)
C173 C 0.6795(3) 0.0616(5) 0.3924(2)
H139 H 0.7043 0.0800 0.3889
N30 N 0.71663(17) 0.1961(3) 0.49671(12)
C174 C 0.69142(14) 0.1456(3) 0.47451(14)
H140 H 0.6640 0.1331 0.4753
C175 C 0.70633(18) 0.1135(3) 0.45112(13)
C176 C 0.74644(18) 0.1318(3) 0.44992(13)
H141 H 0.7566 0.1099 0.4339
C177 C 0.77166(15) 0.1823(3) 0.47212(15)
H142 H 0.7991 0.1949 0.4713
C178 C 0.75675(17) 0.2145(3) 0.49552(13)
C179 C 0.7769(3) 0.2723(5) 0.5164(2)
H143 H 0.8046 0.2889 0.5180
C180 C 0.7745(2) 0.3564(3) 0.55618(15)
C181 C 0.8110(2) 0.3425(4) 0.58516(19)
H144 H 0.8236 0.2972 0.5886
C182 C 0.8292(3) 0.3947(5) 0.60910(18)
H145 H 0.8542 0.3852 0.6289
C183 C 0.8109(3) 0.4610(4) 0.6041(2)
C184 C 0.7744(3) 0.4749(3) 0.5751(2)
H146 H 0.7619 0.5202 0.5716
C185 C 0.7562(2) 0.4226(4) 0.55115(16)
H147 H 0.7313 0.4322 0.5313
C186 C 0.8314(7) 0.5160(10) 0.6326(5)
H148 H 0.8474 0.5505 0.6246
H149 H 0.8513 0.4928 0.6532
H150 H 0.8083 0.5394 0.6381
Cl7 Cl 0.22760(10) 0.39697(17) 0.62821(8)
O1 O 0.2029(4) 0.4550(6) 0.6316(3)
O2 O 0.2019(3) 0.3353(5) 0.6226(2)
O3 O 0.2414(3) 0.4098(5) 0.6008(3)
O4 O 0.2630(3) 0.3919(4) 0.6592(3)
Cl8 Cl 0.48601(14) 0.8846(2) 0.36220(11)
O5 O 0.4852(4) 0.8109(6) 0.3694(3)
O6 O 0.4449(4) 0.9113(8) 0.3567(3)
O7 O 0.4951(3) 0.8864(5) 0.3308(3)
O8 O 0.5182(3) 0.9137(6) 0.3898(3)
Cl9 Cl 0.3925(2) 0.4206(3) 0.22105(13)
O9 O 0.3563(6) 0.3682(11) 0.2100(6)
O10 O 0.4347(6) 0.3848(11) 0.2381(6)
O11 O 0.3843(8) 0.4727(12) 0.2447(6)
O12 O 0.3924(7) 0.4587(13) 0.1899(5)
Cl10 Cl 0.80247(18) 0.2671(2) 0.30419(15)
O17 O 0.8327(7) 0.3210(9) 0.3260(5)
O18 O 0.7594(5) 0.3020(10) 0.2852(5)
O19 O 0.7980(6) 0.2102(8) 0.3273(4)
O20 O 0.8171(6) 0.2394(9) 0.2765(4)
Cl11 Cl 0.47150(15) 0.3127(3) 0.37625(10)
O25 O 0.5102(4) 0.3067(11) 0.3686(4)
O26 O 0.4348(5) 0.3225(10) 0.3467(4)
O27 O 0.4679(5) 0.2591(7) 0.3971(4)
O28 O 0.4788(6) 0.3776(7) 0.3946(4)
Cl12 Cl 0.4503(3) 0.7229(4) 0.13755(19)
O33 O 0.4550(9) 0.6523(9) 0.1295(7)
O34 O 0.4710(7) 0.7356(12) 0.1737(4)
O35 O 0.4054(6) 0.7400(12) 0.1277(6)
O36 O 0.4688(7) 0.7688(12) 0.1192(5)
N31 N 0.1476(5) 0.8424(11) 0.4450(4)
C187 C 0.1395(6) 0.8884(13) 0.4609(4)
C188 C 0.1263(8) 0.9461(12) 0.4782(5)
H151 H 0.1035 0.9735 0.4611
H152 H 0.1515 0.9760 0.4897
H153 H 0.1152 0.9272 0.4951
N32 N 0.4200(3) 0.6708(6) 0.4484(3)
C189 C 0.4409(4) 0.6256(7) 0.4618(3)
C190 C 0.4671(4) 0.5675(7) 0.4794(4)
H154 H 0.4816 0.5468 0.4650
H155 H 0.4485 0.5324 0.4843
H156 H 0.4890 0.5836 0.5010
N33 N 0.7216(4) 0.0842(7) 0.2440(3)
C191 C 0.7159(4) 0.1341(8) 0.2287(3)
C192 C 0.7063(5) 0.1981(7) 0.2081(3)
H157 H 0.7017 0.1867 0.1842
H158 H 0.7308 0.2304 0.2171
H159 H 0.6801 0.2198 0.2093
C193 C 0.7415(5) 0.4583(8) 0.2904(4)
H160 H 0.7454 0.4271 0.2732
H161 H 0.7698 0.4766 0.3053
H162 H 0.7225 0.4971 0.2789
N34 N 0.7047(4) 0.3896(7) 0.3303(4)
C194 C 0.7208(5) 0.4179(9) 0.3122(5)
N35 N 0.5718(6) 0.1891(10) 0.3955(5)
C195 C 0.6084(7) 0.2228(11) 0.3928(5)
C196 C 0.6473(6) 0.2489(10) 0.3933(5)
H163 H 0.6606 0.2749 0.4141
H164 H 0.6431 0.2788 0.3739
H165 H 0.6658 0.2107 0.3927
loop_
_geom_bond_atom_site_label_1
_geom_bond_atom_site_label_2
_geom_bond_site_symmetry_1
_geom_bond_site_symmetry_2
Fe1 Cl1 1_555 1_555
Fe2 Cl3 1_555 1_555
Fe3 Cl5 1_555 1_555
Fe4 N8 1_555 1_555
Fe5 N3 1_555 1_555
Fe6 N14 1_555 1_555
Cl2 Fe1 1_555 1_555
Cl4 Fe2 1_555 1_555
Cl6 Fe3 1_555 1_555
N1 Fe1 1_555 1_555
N2 Fe1 1_555 1_555
N3 C19 1_555 1_555
N4 Fe3 1_555 1_555
N5 Fe3 1_555 1_555
N6 Fe3 1_555 1_555
N7 Fe3 1_555 1_555
N8 C50 1_555 1_555
N9 Fe4 1_555 1_555
N10 Fe2 1_555 1_555
N11 Fe2 1_555 1_555
N12 Fe2 1_555 1_555
N13 Fe2 1_555 1_555
N14 C86 1_555 1_555
N15 Fe6 1_555 1_555
N16 Fe1 1_555 1_555
N17 Fe1 1_555 1_555
N18 Fe4 1_555 1_555
N19 Fe5 1_555 1_555
N20 Fe5 1_555 1_555
N21 Fe5 1_555 1_555
N22 Fe6 1_555 1_555
N23 Fe6 1_555 1_555
N24 Fe6 1_555 1_555
N25 Fe4 1_555 1_555
C1 N1 1_555 1_555
C2 C1 1_555 1_555
H1 C2 1_555 1_555
C3 C2 1_555 1_555
H2 C3 1_555 1_555
C4 C3 1_555 1_555
C5 C4 1_555 1_555
H3 C5 1_555 1_555
C6 C1 1_555 1_555
H4 C6 1_555 1_555
C7 C4 1_555 1_555
H5 C7 1_555 1_555
H6 C7 1_555 1_555
H7 C7 1_555 1_555
C8 N1 1_555 1_555
H8 C8 1_555 1_555
C9 N2 1_555 1_555
C10 C9 1_555 1_555
H9 C10 1_555 1_555
C11 C10 1_555 1_555
H10 C11 1_555 1_555
C12 C11 1_555 1_555
C13 N2 1_555 1_555
H11 C13 1_555 1_555
N26 Fe5 1_555 1_555
C14 N26 1_555 1_555
H12 C14 1_555 1_555
C15 C12 1_555 1_555
C16 C15 1_555 1_555
H13 C16 1_555 1_555
C17 C16 1_555 1_555
H14 C17 1_555 1_555
C18 N26 1_555 1_555
C19 C18 1_555 1_555
C20 C19 1_555 1_555
H15 C20 1_555 1_555
C21 C20 1_555 1_555
H16 C21 1_555 1_555
C22 C21 1_555 1_555
C23 N3 1_555 1_555
H17 C23 1_555 1_555
C24 N4 1_555 1_555
H18 C24 1_555 1_555
C25 C22 1_555 1_555
C26 C25 1_555 1_555
H19 C26 1_555 1_555
C27 C26 1_555 1_555
H20 C27 1_555 1_555
C28 N4 1_555 1_555
C29 N5 1_555 1_555
H21 C29 1_555 1_555
C30 N5 1_555 1_555
C31 C30 1_555 1_555
H22 C31 1_555 1_555
C32 C31 1_555 1_555
H23 C32 1_555 1_555
C33 C32 1_555 1_555
C34 C33 1_555 1_555
H24 C34 1_555 1_555
C35 C30 1_555 1_555
H25 C35 1_555 1_555
C36 C33 1_555 1_555
H26 C36 1_555 1_555
H27 C36 1_555 1_555
H28 C36 1_555 1_555
C37 N6 1_555 1_555
C38 C37 1_555 1_555
H29 C38 1_555 1_555
C39 C38 1_555 1_555
H30 C39 1_555 1_555
C40 C39 1_555 1_555
C41 C40 1_555 1_555
H31 C41 1_555 1_555
C42 C37 1_555 1_555
H32 C42 1_555 1_555
C43 C40 1_555 1_555
H33 C43 1_555 1_555
H34 C43 1_555 1_555
H35 C43 1_555 1_555
C44 N6 1_555 1_555
H36 C44 1_555 1_555
C45 N7 1_555 1_555
C46 C45 1_555 1_555
H37 C46 1_555 1_555
C47 C46 1_555 1_555
H38 C47 1_555 1_555
C48 C47 1_555 1_555
C49 N7 1_555 1_555
H39 C49 1_555 1_555
C50 H40 1_555 1_555
C51 C48 1_555 1_555
C52 C51 1_555 1_555
H41 C52 1_555 1_555
C53 C52 1_555 1_555
H42 C53 1_555 1_555
C54 N8 1_555 1_555
C55 N9 1_555 1_555
C56 C55 1_555 1_555
H43 C56 1_555 1_555
C57 C56 1_555 1_555
H44 C57 1_555 1_555
C58 C57 1_555 1_555
C59 N9 1_555 1_555
H45 C59 1_555 1_555
C60 N10 1_555 1_555
H46 C60 1_555 1_555
C61 C58 1_555 1_555
C62 C61 1_555 1_555
H47 C62 1_555 1_555
C63 C62 1_555 1_555
H48 C63 1_555 1_555
C64 N10 1_555 1_555
C65 N11 1_555 1_555
H49 C65 1_555 1_555
C66 N11 1_555 1_555
C67 C66 1_555 1_555
H50 C67 1_555 1_555
C68 C67 1_555 1_555
H51 C68 1_555 1_555
C69 C68 1_555 1_555
C70 C69 1_555 1_555
H52 C70 1_555 1_555
C71 C66 1_555 1_555
H53 C71 1_555 1_555
C72 C69 1_555 1_555
H54 C72 1_555 1_555
H55 C72 1_555 1_555
H56 C72 1_555 1_555
C73 N12 1_555 1_555
C74 C73 1_555 1_555
H57 C74 1_555 1_555
C75 C74 1_555 1_555
H58 C75 1_555 1_555
C76 C75 1_555 1_555
C77 C76 1_555 1_555
H59 C77 1_555 1_555
C78 C73 1_555 1_555
H60 C78 1_555 1_555
C79 C76 1_555 1_555
H61 C79 1_555 1_555
H62 C79 1_555 1_555
H63 C79 1_555 1_555
C80 N12 1_555 1_555
H64 C80 1_555 1_555
C81 N13 1_555 1_555
C82 C81 1_555 1_555
H65 C82 1_555 1_555
C83 C82 1_555 1_555
H66 C83 1_555 1_555
C84 C83 1_555 1_555
C85 N13 1_555 1_555
H67 C85 1_555 1_555
C86 H68 1_555 1_555
C87 C84 1_555 1_555
C88 C87 1_555 1_555
H69 C88 1_555 1_555
C89 C88 1_555 1_555
H70 C89 1_555 1_555
C90 N14 1_555 1_555
C91 N15 1_555 1_555
C92 C91 1_555 1_555
H71 C92 1_555 1_555
C93 C92 1_555 1_555
H72 C93 1_555 1_555
C94 C93 1_555 1_555
C95 N15 1_555 1_555
H73 C95 1_555 1_555
C96 N16 1_555 1_555
H74 C96 1_555 1_555
C97 C94 1_555 1_555
C98 C97 1_555 1_555
H75 C98 1_555 1_555
C99 C98 1_555 1_555
H76 C99 1_555 1_555
C100 N16 1_555 1_555
C101 N17 1_555 1_555
H77 C101 1_555 1_555
C102 N17 1_555 1_555
C103 C102 1_555 1_555
H78 C103 1_555 1_555
C104 C103 1_555 1_555
H79 C104 1_555 1_555
C105 C104 1_555 1_555
C106 C105 1_555 1_555
H80 C106 1_555 1_555
C107 C102 1_555 1_555
H81 C107 1_555 1_555
C108 C105 1_555 1_555
H82 C108 1_555 1_555
H83 C108 1_555 1_555
H84 C108 1_555 1_555
C109 N18 1_555 1_555
C110 C109 1_555 1_555
H85 C110 1_555 1_555
C111 C110 1_555 1_555
H86 C111 1_555 1_555
C112 C111 1_555 1_555
C113 C112 1_555 1_555
H87 C113 1_555 1_555
C114 C109 1_555 1_555
H88 C114 1_555 1_555
C115 C112 1_555 1_555
H89 C115 1_555 1_555
H90 C115 1_555 1_555
H91 C115 1_555 1_555
C116 N18 1_555 1_555
H92 C116 1_555 1_555
N27 Fe4 1_555 1_555
C117 C116 1_555 1_555
C118 C117 1_555 1_555
H93 C118 1_555 1_555
C119 C118 1_555 1_555
H94 C119 1_555 1_555
C120 C119 1_555 1_555
C121 N27 1_555 1_555
H95 C121 1_555 1_555
C122 N19 1_555 1_555
H96 C122 1_555 1_555
C123 C120 1_555 1_555
C124 C123 1_555 1_555
H97 C124 1_555 1_555
C125 C124 1_555 1_555
H98 C125 1_555 1_555
C126 N19 1_555 1_555
C127 N20 1_555 1_555
H99 C127 1_555 1_555
C128 N20 1_555 1_555
C129 C128 1_555 1_555
H100 C129 1_555 1_555
C130 C129 1_555 1_555
H101 C130 1_555 1_555
C131 C130 1_555 1_555
C132 C131 1_555 1_555
H102 C132 1_555 1_555
C133 C128 1_555 1_555
H103 C133 1_555 1_555
C134 C131 1_555 1_555
H104 C134 1_555 1_555
H105 C134 1_555 1_555
H106 C134 1_555 1_555
C135 N21 1_555 1_555
C136 C135 1_555 1_555
H107 C136 1_555 1_555
C137 C136 1_555 1_555
H108 C137 1_555 1_555
C138 C137 1_555 1_555
C139 C138 1_555 1_555
H109 C139 1_555 1_555
C140 C135 1_555 1_555
H110 C140 1_555 1_555
C141 C138 1_555 1_555
H111 C141 1_555 1_555
H112 C141 1_555 1_555
H113 C141 1_555 1_555
C142 N21 1_555 1_555
H114 C142 1_555 1_555
N28 Fe5 1_555 1_555
C143 C142 1_555 1_555
C144 C143 1_555 1_555
H115 C144 1_555 1_555
C145 C144 1_555 1_555
H116 C145 1_555 1_555
C146 C145 1_555 1_555
C147 N28 1_555 1_555
H117 C147 1_555 1_555
N29 Fe6 1_555 1_555
C148 N29 1_555 1_555
H118 C148 1_555 1_555
C149 C146 1_555 1_555
C150 C149 1_555 1_555
H119 C150 1_555 1_555
C151 C150 1_555 1_555
H120 C151 1_555 1_555
C152 N29 1_555 1_555
C153 N22 1_555 1_555
H121 C153 1_555 1_555
C154 N22 1_555 1_555
C155 C154 1_555 1_555
H122 C155 1_555 1_555
C156 C155 1_555 1_555
H123 C156 1_555 1_555
C157 C156 1_555 1_555
C158 C157 1_555 1_555
H124 C158 1_555 1_555
C159 C154 1_555 1_555
H125 C159 1_555 1_555
C160 C157 1_555 1_555
H126 C160 1_555 1_555
H127 C160 1_555 1_555
H128 C160 1_555 1_555
C161 N23 1_555 1_555
C162 C161 1_555 1_555
H129 C162 1_555 1_555
C163 C162 1_555 1_555
H130 C163 1_555 1_555
C164 C163 1_555 1_555
C165 C164 1_555 1_555
H131 C165 1_555 1_555
C166 C161 1_555 1_555
H132 C166 1_555 1_555
C167 C164 1_555 1_555
H133 C167 1_555 1_555
H134 C167 1_555 1_555
H135 C167 1_555 1_555
C168 N23 1_555 1_555
H136 C168 1_555 1_555
C169 N24 1_555 1_555
C170 C169 1_555 1_555
H137 C170 1_555 1_555
C171 C170 1_555 1_555
H138 C171 1_555 1_555
C172 C171 1_555 1_555
C173 N24 1_555 1_555
H139 C173 1_555 1_555
N30 Fe4 1_555 1_555
C174 N30 1_555 1_555
H140 C174 1_555 1_555
C175 C172 1_555 1_555
C176 C175 1_555 1_555
H141 C176 1_555 1_555
C177 C176 1_555 1_555
H142 C177 1_555 1_555
C178 N30 1_555 1_555
C179 N25 1_555 1_555
H143 C179 1_555 1_555
C180 N25 1_555 1_555
C181 C180 1_555 1_555
H144 C181 1_555 1_555
C182 C181 1_555 1_555
H145 C182 1_555 1_555
C183 C182 1_555 1_555
C184 C183 1_555 1_555
H146 C184 1_555 1_555
C185 C180 1_555 1_555
H147 C185 1_555 1_555
C186 C183 1_555 1_555
H148 C186 1_555 1_555
H149 C186 1_555 1_555
H150 C186 1_555 1_555
Cl7 O1 1_555 1_555
O2 Cl7 1_555 1_555
O3 Cl7 1_555 1_555
O4 Cl7 1_555 1_555
Cl8 O5 1_555 1_555
O6 Cl8 1_555 1_555
O7 Cl8 1_555 1_555
O8 Cl8 1_555 1_555
Cl9 O9 1_555 1_555
O10 Cl9 1_555 1_555
O11 Cl9 1_555 1_555
O12 Cl9 1_555 1_555
Cl10 O17 1_555 1_555
O18 Cl10 1_555 1_555
O19 Cl10 1_555 1_555
O20 Cl10 1_555 1_555
Cl11 O25 1_555 1_555
O26 Cl11 1_555 1_555
O27 Cl11 1_555 1_555
O28 Cl11 1_555 1_555
Cl12 O33 1_555 1_555
O34 Cl12 1_555 1_555
O35 Cl12 1_555 1_555
O36 Cl12 1_555 1_555
N31 C187 1_555 1_555
C187 C188 1_555 1_555
C188 H151 1_555 1_555
H152 C188 1_555 1_555
H153 C188 1_555 1_555
N32 C189 1_555 1_555
C189 C190 1_555 1_555
C190 H154 1_555 1_555
H155 C190 1_555 1_555
H156 C190 1_555 1_555
N33 C191 1_555 1_555
C191 C192 1_555 1_555
C192 H157 1_555 1_555
H158 C192 1_555 1_555
H159 C192 1_555 1_555
C193 H160 1_555 1_555
H161 C193 1_555 1_555
H162 C193 1_555 1_555
N34 C194 1_555 1_555
C194 C193 1_555 1_555
N35 C195 1_555 1_555
C195 C196 1_555 1_555
C196 H163 1_555 1_555
H164 C196 1_555 1_555
H165 C196 1_555 1_555
C5 C6 1_555 1_555
C8 C9 1_555 1_555
C12 C13 1_555 1_555
C14 C15 1_555 1_555
C17 C18 1_555 1_555
C22 C23 1_555 1_555
C24 C25 1_555 1_555
C27 C28 1_555 1_555
C28 C29 1_555 1_555
C34 C35 1_555 1_555
C41 C42 1_555 1_555
C44 C45 1_555 1_555
C48 C49 1_555 1_555
C50 C51 1_555 1_555
C53 C54 1_555 1_555
C54 C55 1_555 1_555
C58 C59 1_555 1_555
C60 C61 1_555 1_555
C63 C64 1_555 1_555
C64 C65 1_555 1_555
C70 C71 1_555 1_555
C77 C78 1_555 1_555
C80 C81 1_555 1_555
C84 C85 1_555 1_555
C86 C87 1_555 1_555
C89 C90 1_555 1_555
C90 C91 1_555 1_555
C94 C95 1_555 1_555
C96 C97 1_555 1_555
C99 C100 1_555 1_555
C100 C101 1_555 1_555
C106 C107 1_555 1_555
C113 C114 1_555 1_555
N27 C117 1_555 1_555
C120 C121 1_555 1_555
C122 C123 1_555 1_555
C125 C126 1_555 1_555
C126 C127 1_555 1_555
C132 C133 1_555 1_555
C139 C140 1_555 1_555
N28 C143 1_555 1_555
C146 C147 1_555 1_555
C148 C149 1_555 1_555
C151 C152 1_555 1_555
C152 C153 1_555 1_555
C158 C159 1_555 1_555
C165 C166 1_555 1_555
C168 C169 1_555 1_555
C172 C173 1_555 1_555
C174 C175 1_555 1_555
C177 C178 1_555 1_555
C178 C179 1_555 1_555
C184 C185 1_555 1_555

#END
