
#######################################################################
#
#                 Cambridge Crystallographic Data Centre
#                                CCDC 
#
#######################################################################
#
# If this CIF has been generated from an entry in the Cambridge 
# Structural Database, then it will include bibliographic, chemical, 
# crystal, experimental, refinement or atomic coordinate data resulting 
# from the CCDC's data processing and validation procedures.
#
#######################################################################

data_AVELOE
_chemical_formula_moiety         
'4(C234 H234 Br6 Fe6 N30 O36 6+),3(K1 1+),27(Br1 1-),25(H2 O1)'
_chemical_name_systematic        
'tri-potassium tris(\m-20,23,26,29,32,35,56,59,62,65,68,71-dodecaoxa-4,7,12,15,40,43,48,51,76,79-decaazaundecacyclo[76.2.2.22,5.26,9.210,13.216,19.236,39.242,45.246,49.252,55.272,75]hecta-1(80),2,4,6,8,10,12,14,16,18,36,38,40,42,44,46,48,50,52,54,72,74,76,78,81,83,85,87,89,91,93,95,97,99-tetratriacontaene)-hexa-bromo-hexa-iron heptacosabromide pentacosahydrate'
_symmetry_cell_setting           monoclinic
_symmetry_space_group_name_H-M   'C 2/c'
_symmetry_Int_Tables_number      15
_space_group_name_Hall           '-C 2yn'
loop_
_symmetry_equiv_pos_site_id
_symmetry_equiv_pos_as_xyz
1 x,y,z
2 -x,y,1/2-z
3 1/2+x,1/2+y,z
4 1/2-x,1/2+y,1/2-z
5 -x,-y,-z
6 x,-y,1/2+z
7 1/2-x,1/2-y,-z
8 1/2+x,1/2-y,1/2+z
_cell_length_a                   59.465(5)
_cell_length_b                   16.8956(15)
_cell_length_c                   62.436(5)
_cell_angle_alpha                90
_cell_angle_beta                 116.189(3)
_cell_angle_gamma                90
_cell_volume                     56289.7
_exptl_crystal_colour            'dark green'
_exptl_crystal_description       block
_cell_formula_units_Z            2
loop_
_atom_site_label
_atom_site_type_symbol
_atom_site_fract_x
_atom_site_fract_y
_atom_site_fract_z
Fe1 Fe 0.21565(7) 1.18732(19) 0.75598(5)
Fe2 Fe 0.27483(7) 1.4803(2) 1.00490(5)
Fe3 Fe 0.48109(7) 1.1680(3) 0.94791(7)
Fe4 Fe 0.22500(6) 1.36352(19) 0.87306(5)
Fe5 Fe 0.39237(7) 1.3242(2) 0.99709(5)
Fe6 Fe 0.35610(7) 1.1740(2) 0.83649(6)
Br1 Br 0.22452(6) 1.12213(16) 0.79547(4)
Br2 Br 0.24752(5) 1.30121(14) 0.76994(4)
Br3 Br 0.28173(5) 1.53992(16) 0.97081(4)
Br4 Br 0.28696(5) 1.33412(16) 1.00240(5)
Br5 Br 0.45725(6) 1.2964(2) 0.94212(5)
Br6 Br 0.44352(5) 1.0729(2) 0.93549(5)
N1 N 0.1922(3) 1.0826(10) 0.7348(3)
N2 N 0.2408(3) 1.1128(10) 0.7486(3)
N3 N 0.3422(3) 1.1301(11) 0.8041(3)
N4 N 0.3874(3) 1.1637(11) 0.8336(3)
N5 N 0.4788(4) 1.1775(14) 0.9121(3)
N6 N 0.5163(4) 1.2286(15) 0.9521(3)
C1 C 0.1669(3) 1.0721(11) 0.7284(3)
C2 C 0.1504(3) 1.0490(12) 0.7054(3)
H1 H 0.1564 1.0393 0.6939
C3 C 0.1250(3) 1.0402(14) 0.6994(3)
H2 H 0.1137 1.0245 0.6836
C4 C 0.1162(3) 1.0545(15) 0.7162(3)
C5 C 0.1327(4) 1.0775(14) 0.7392(3)
H3 H 0.1267 1.0872 0.7508
C6 C 0.1581(3) 1.0863(12) 0.7453(3)
H4 H 0.1694 1.1020 0.7610
C7 C 0.2044(4) 1.0401(12) 0.7264(3)
H5 H 0.1956 1.0004 0.7150
C8 C 0.2310(4) 1.0496(12) 0.7334(3)
C9 C 0.2453(4) 1.0036(12) 0.7271(3)
H6 H 0.2379 0.9628 0.7157
C10 C 0.2703(4) 1.0149(12) 0.7370(3)
H7 H 0.2803 0.9820 0.7323
C11 C 0.2814(4) 1.0732(12) 0.7536(3)
C12 C 0.2649(4) 1.1241(12) 0.7576(3)
H8 H 0.2717 1.1692 0.7675
C13 C 0.3185(4) 1.1119(10) 0.7906(3)
H9 H 0.3072 1.1174 0.7976
C14 C 0.3085(4) 1.0856(12) 0.7672(3)
C15 C 0.3266(4) 1.0745(15) 0.7585(4)
H10 H 0.3213 1.0559 0.7427
C16 C 0.3514(4) 1.0899(14) 0.7723(3)
H11 H 0.3633 1.0795 0.7663
C17 C 0.3591(4) 1.1206(14) 0.7950(3)
C18 C 0.3851(4) 1.1410(15) 0.8121(3)
C19 C 0.4057(4) 1.1273(18) 0.8077(4)
H12 H 0.4037 1.1083 0.7926
C20 C 0.4286(4) 1.1423(18) 0.8256(4)
H13 H 0.4426 1.1406 0.8221
C21 C 0.4329(4) 1.1601(17) 0.8491(4)
C22 C 0.4111(4) 1.1784(12) 0.8507(4)
H14 H 0.4128 1.2036 0.8649
C23 C 0.4584(4) 1.1584(16) 0.8923(4)
H15 H 0.4447 1.1349 0.8938
C24 C 0.4563(4) 1.1715(18) 0.8692(4)
C25 C 0.4774(5) 1.207(2) 0.8681(4)
H16 H 0.4771 1.2185 0.8531
C26 C 0.4982(5) 1.223(2) 0.8890(4)
H17 H 0.5122 1.2468 0.8881
C27 C 0.4997(5) 1.207(2) 0.9108(4)
C28 C 0.5190(5) 1.230(2) 0.9331(4)
H18 H 0.5344 1.2482 0.9338
C29 C 0.5363(4) 1.2459(15) 0.9741(4)
C30 C 0.5597(4) 1.2158(15) 0.9794(4)
H19 H 0.5618 1.1806 0.9685
C31 C 0.5802(4) 1.2367(15) 1.0005(4)
H20 H 0.5963 1.2148 1.0044
C32 C 0.5770(5) 1.2895(19) 1.0158(5)
C33 C 0.5534(4) 1.3189(18) 1.0108(4)
H21 H 0.5513 1.3552 1.0215
C34 C 0.5329(4) 1.2948(17) 0.9903(4)
H22 H 0.5165 1.3116 0.9873
N7 N 0.1961(3) 1.2403(9) 0.7189(2)
N8 N 0.1875(3) 1.2683(9) 0.7572(3)
N9 N 0.1950(3) 1.3824(9) 0.8429(2)
N10 N 0.2016(3) 1.3920(10) 0.8857(2)
N11 N 0.2359(3) 1.4549(10) 0.9821(3)
N12 N 0.2572(4) 1.4540(11) 1.0296(3)
C35 C 0.1991(4) 1.2133(11) 0.6991(3)
C36 C 0.2226(4) 1.2105(10) 0.7001(3)
H23 H 0.2366 1.2287 0.7140
C37 C 0.2261(4) 1.1815(10) 0.6812(3)
H24 H 0.2424 1.1796 0.6820
C38 C 0.2056(4) 1.1553(14) 0.6612(3)
C39 C 0.1821(4) 1.1576(13) 0.6599(3)
H25 H 0.1683 1.1370 0.6463
C40 C 0.1783(4) 1.1899(13) 0.6786(3)
H26 H 0.1619 1.1958 0.6773
C41 C 0.1772(4) 1.2835(12) 0.7162(3)
H27 H 0.1664 1.3024 0.7007
C42 C 0.1719(4) 1.3045(12) 0.7361(3)
C43 C 0.1566(4) 1.3622(12) 0.7361(3)
H28 H 0.1464 1.3876 0.7214
C44 C 0.1550(4) 1.3862(12) 0.7560(3)
H29 H 0.1436 1.4270 0.7551
C45 C 0.1698(4) 1.3512(11) 0.7773(3)
C46 C 0.1857(4) 1.2891(12) 0.7768(3)
H30 H 0.1954 1.2612 0.7912
C47 C 0.1924(3) 1.3687(10) 0.8209(3)
H31 H 0.2070 1.3532 0.8194
C48 C 0.1707(4) 1.3747(12) 0.8003(3)
C49 C 0.1498(4) 1.4055(13) 0.8029(3)
H32 H 0.1343 1.4137 0.7893
C50 C 0.1525(4) 1.4232(14) 0.8252(3)
H33 H 0.1389 1.4464 0.8271
C51 C 0.1746(4) 1.4080(13) 0.8452(3)
C52 C 0.1786(4) 1.4165(13) 0.8702(3)
C53 C 0.1611(4) 1.4486(14) 0.8768(3)
H34 H 0.1454 1.4676 0.8653
C54 C 0.1678(4) 1.4514(14) 0.9007(3)
H35 H 0.1559 1.4709 0.9056
C55 C 0.1911(4) 1.4274(13) 0.9184(3)
C56 C 0.2061(4) 1.3927(11) 0.9094(3)
H36 H 0.2208 1.3669 0.9204
C57 C 0.2253(4) 1.4504(12) 0.9583(3)
H37 H 0.2358 1.4597 0.9507
C58 C 0.2002(4) 1.4334(14) 0.9436(3)
C59 C 0.1851(4) 1.4210(15) 0.9558(3)
H38 H 0.1675 1.4122 0.9473
C60 C 0.1968(4) 1.4222(15) 0.9803(3)
H39 H 0.1869 1.4115 0.9885
C61 C 0.2215(4) 1.4378(14) 0.9936(3)
C62 C 0.2339(4) 1.4418(13) 1.0188(3)
H40 H 0.2246 1.4351 1.0277
C63 C 0.2685(3) 1.4632(9) 1.05451(19)
C64 C 0.2931(3) 1.4383(9) 1.0677(2)
H41 H 0.3015 1.4102 1.0602
C65 C 0.3055(3) 1.4546(10) 1.0920(2)
H42 H 0.3223 1.4377 1.1011
C66 C 0.2932(3) 1.4958(11) 1.1031(2)
C67 C 0.2686(3) 1.5206(10) 1.0899(2)
H43 H 0.2603 1.5487 1.0974
C68 C 0.2563(2) 1.5043(10) 1.0656(2)
H44 H 0.2395 1.5213 1.0565
N13 N 0.2717(3) 1.6013(10) 1.0188(3)
N14 N 0.3128(3) 1.5117(10) 1.0309(3)
N15 N 0.3950(3) 1.3788(11) 1.0259(3)
N16 N 0.4263(3) 1.2901(10) 1.0193(3)
N17 N 0.4894(4) 1.1612(12) 0.9854(3)
N18 N 0.5084(4) 1.0715(13) 0.9624(4)
C69 C 0.2492(3) 1.6423(12) 1.0123(3)
C70 C 0.2322(4) 1.6443(11) 0.9885(3)
H45 H 0.2364 1.6187 0.9771
C71 C 0.2095(4) 1.6824(11) 0.9807(4)
H46 H 0.1980 1.6831 0.9642
C72 C 0.2038(4) 1.7197(14) 0.9975(3)
C73 C 0.2204(4) 1.7171(14) 1.0212(3)
H47 H 0.2159 1.7401 1.0327
C74 C 0.2436(4) 1.6813(13) 1.0288(4)
H48 H 0.2556 1.6837 1.0451
C75 C 0.2924(4) 1.6237(12) 1.0366(3)
H49 H 0.2923 1.6700 1.0452
C76 C 0.3155(4) 1.5802(12) 1.0437(3)
C77 C 0.3383(4) 1.6056(13) 1.0584(4)
H50 H 0.3400 1.6538 1.0669
C78 C 0.3589(4) 1.5653(13) 1.0616(4)
H51 H 0.3749 1.5838 1.0728
C79 C 0.3573(4) 1.4980(13) 1.0490(3)
C80 C 0.3327(4) 1.4724(12) 1.0338(3)
H52 H 0.3307 1.4244 1.0252
C81 C 0.3773(4) 1.4201(10) 1.0283(3)
H53 H 0.3620 1.4266 1.0144
C82 C 0.3788(4) 1.4547(13) 1.0490(3)
C83 C 0.4029(4) 1.4491(15) 1.0686(3)
H54 H 0.4060 1.4731 1.0834
C84 C 0.4216(4) 1.4087(16) 1.0660(4)
H55 H 0.4377 1.4062 1.0792
C85 C 0.4178(4) 1.3718(14) 1.0452(3)
C86 C 0.4357(4) 1.3199(14) 1.0416(3)
C87 C 0.4603(4) 1.3072(16) 1.0589(4)
H56 H 0.4663 1.3265 1.0747
C88 C 0.4753(4) 1.2658(16) 1.0516(4)
H57 H 0.4922 1.2581 1.0628
C89 C 0.4676(4) 1.2333(14) 1.0287(4)
C90 C 0.4425(4) 1.2445(11) 1.0142(3)
H58 H 0.4356 1.2181 0.9993
C91 C 0.4771(4) 1.2009(15) 0.9956(4)
H59 H 0.4640 1.2358 0.9859
C92 C 0.4825(4) 1.1936(15) 1.0196(4)
C93 C 0.5025(4) 1.1415(15) 1.0331(4)
H60 H 0.5071 1.1322 1.0496
C94 C 0.5150(5) 1.1050(17) 1.0220(4)
H61 H 0.5287 1.0718 1.0314
C95 C 0.5091(4) 1.1130(16) 0.9986(4)
C96 C 0.5178(4) 1.0671(15) 0.9849(4)
H62 H 0.5314 1.0316 0.9929
C97 C 0.5177(4) 1.0224(14) 0.9500(4)
C98 C 0.5021(4) 0.9923(12) 0.9281(4)
H63 H 0.4847 1.0051 0.9212
C99 C 0.5109(4) 0.9434(13) 0.9155(4)
H64 H 0.5000 0.9241 0.9001
C100 C 0.5361(4) 0.9238(18) 0.9262(5)
C101 C 0.5520(5) 0.9575(17) 0.9477(4)
H65 H 0.5694 0.9468 0.9541
C102 C 0.5433(4) 1.0060(16) 0.9602(4)
H66 H 0.5544 1.0276 0.9752
N19 N 0.3803(3) 1.2290(10) 1.0055(3)
N20 N 0.3899(3) 1.2554(10) 0.9706(3)
N21 N 0.3717(3) 1.2317(9) 0.8675(2)
N22 N 0.3549(3) 1.2840(10) 0.8247(3)
C103 C 0.3745(3) 1.2157(9) 1.0252(2)
C104 C 0.3927(3) 1.1854(10) 1.0465(2)
H67 H 0.4079 1.1652 1.0472
C105 C 0.3886(3) 1.1845(10) 1.0668(2)
H68 H 0.4011 1.1638 1.0814
C106 C 0.3663(3) 1.2140(10) 1.0658(2)
C107 C 0.3481(2) 1.2443(9) 1.0445(3)
H69 H 0.3329 1.2645 1.0438
C108 C 0.3522(3) 1.2452(8) 1.0242(2)
H70 H 0.3398 1.2659 1.0097
C109 C 0.3801(4) 1.1654(12) 0.9937(3)
H71 H 0.3774 1.1142 0.9984
C110 C 0.3844(4) 1.1783(12) 0.9727(3)
C111 C 0.3834(4) 1.1226(12) 0.9563(3)
H72 H 0.3809 1.0684 0.9588
C112 C 0.3859(4) 1.1448(11) 0.9364(3)
H73 H 0.3853 1.1060 0.9251
C113 C 0.3893(4) 1.2230(11) 0.9326(3)
C114 C 0.3904(4) 1.2780(11) 0.9506(3)
H74 H 0.3916 1.3329 0.9480
C115 C 0.3766(4) 1.2067(11) 0.8890(3)
H75 H 0.3722 1.1538 0.8907
C116 C 0.3878(4) 1.2528(11) 0.9096(3)
C117 C 0.3955(4) 1.3277(12) 0.9070(3)
H76 H 0.4042 1.3601 0.9207
C118 C 0.3907(4) 1.3557(12) 0.8845(3)
H77 H 0.3960 1.4073 0.8826
C119 C 0.3783(4) 1.3081(11) 0.8650(3)
C120 C 0.3683(4) 1.3348(12) 0.8404(3)
H78 H 0.3715 1.3863 0.8363
C121 C 0.3437(3) 1.3074(9) 0.80012(19)
C122 C 0.3584(3) 1.3304(12) 0.7890(3)
H79 H 0.3761 1.3330 0.7979
C123 C 0.3472(3) 1.3495(12) 0.7649(3)
H80 H 0.3572 1.3652 0.7573
C124 C 0.3212(3) 1.3457(12) 0.7519(2)
C125 C 0.3066(2) 1.3227(10) 0.7630(2)
H81 H 0.2889 1.3201 0.7541
C126 C 0.3178(3) 1.3035(8) 0.7871(3)
H82 H 0.3078 1.2878 0.7947
N23 N 0.2157(3) 1.2521(10) 0.8731(3)
N24 N 0.2521(3) 1.3308(9) 0.9037(3)
N25 N 0.3603(3) 1.3733(10) 0.9758(3)
N26 N 0.4047(3) 1.4228(11) 0.9895(3)
C127 C 0.1945(3) 1.2121(10) 0.8552(3)
C128 C 0.1951(3) 1.1816(9) 0.8348(3)
H83 H 0.2104 1.1808 0.8334
C129 C 0.1733(3) 1.1522(11) 0.8164(3)
H84 H 0.1737 1.1313 0.8024
C130 C 0.1510(3) 1.1533(12) 0.8184(3)
C131 C 0.1504(3) 1.1838(13) 0.8388(3)
H85 H 0.1351 1.1846 0.8402
C132 C 0.1722(3) 1.2133(12) 0.8572(3)
H86 H 0.1718 1.2341 0.8712
C133 C 0.2278(4) 1.2151(12) 0.8934(3)
H87 H 0.2228 1.1643 0.8963
C134 C 0.2494(3) 1.2571(11) 0.9113(3)
C135 C 0.2666(4) 1.2242(12) 0.9322(3)
H88 H 0.2638 1.1731 0.9369
C136 C 0.2877(4) 1.2655(11) 0.9462(3)
H89 H 0.2994 1.2445 0.9611
C137 C 0.2922(3) 1.3374(11) 0.9386(3)
C138 C 0.2732(3) 1.3692(12) 0.9166(3)
H90 H 0.2760 1.4192 0.9112
C139 C 0.3379(3) 1.3400(11) 0.9658(3)
H91 H 0.3365 1.2857 0.9689
C140 C 0.3161(3) 1.3806(11) 0.9507(3)
C141 C 0.3181(4) 1.4609(12) 0.9477(3)
H92 H 0.3034 1.4916 0.9395
C142 C 0.3416(4) 1.4974(12) 0.9566(3)
H93 H 0.3433 1.5515 0.9533
C143 C 0.3623(3) 1.4522(12) 0.9703(3)
C144 C 0.3881(3) 1.4769(13) 0.9781(3)
H94 H 0.3924 1.5284 0.9752
C145 C 0.4303(3) 1.4478(11) 0.9977(3)
C146 C 0.4458(4) 1.4119(10) 0.9895(3)
H95 H 0.4385 1.3796 0.9757
C147 C 0.4715(4) 1.4207(11) 1.0005(3)
H96 H 0.4817 1.3959 0.9943
C148 C 0.4820(4) 1.4671(11) 1.0211(4)
C149 C 0.4665(3) 1.5046(12) 1.0290(4)
H97 H 0.4738 1.5378 1.0426
C150 C 0.4407(3) 1.4957(12) 1.0178(3)
H98 H 0.4304 1.5216 1.0237
N27 N 0.3584(3) 1.0659(10) 0.8486(3)
N28 N 0.3248(3) 1.1698(9) 0.8393(3)
N29 N 0.2476(3) 1.3518(9) 0.8578(2)
N30 N 0.2342(3) 1.4774(8) 0.8727(2)
C151 C 0.3788(4) 1.0139(12) 0.8523(4)
C152 C 0.3790(4) 0.9672(13) 0.8342(4)
H99 H 0.3644 0.9641 0.8194
C153 C 0.4002(4) 0.9248(14) 0.8376(4)
H100 H 0.4000 0.8925 0.8251
C154 C 0.4216(5) 0.9287(18) 0.8588(4)
C155 C 0.4212(4) 0.9719(16) 0.8774(4)
H101 H 0.4352 0.9708 0.8927
C156 C 0.4005(4) 1.0165(12) 0.8735(4)
H102 H 0.4011 1.0504 0.8859
C157 C 0.3384(4) 1.0376(12) 0.8494(4)
H103 H 0.3367 0.9834 0.8524
C158 C 0.3189(4) 1.0966(11) 0.8452(4)
C159 C 0.2972(4) 1.0826(11) 0.8473(3)
H104 H 0.2934 1.0303 0.8503
C160 C 0.2810(4) 1.1433(10) 0.8451(3)
H105 H 0.2659 1.1336 0.8464
C161 C 0.2873(3) 1.2189(10) 0.8411(3)
C162 C 0.3098(3) 1.2301(11) 0.8382(3)
H106 H 0.3141 1.2820 0.8355
C163 C 0.2587(4) 1.2886(11) 0.8542(3)
H107 H 0.2565 1.2392 0.8602
C164 C 0.2735(4) 1.2908(10) 0.8420(3)
C165 C 0.2751(4) 1.3610(10) 0.8314(3)
H108 H 0.2834 1.3630 0.8214
C166 C 0.2642(4) 1.4284(11) 0.8355(3)
H109 H 0.2656 1.4777 0.8289
C167 C 0.2513(3) 1.4236(10) 0.8492(3)
C168 C 0.2430(4) 1.4915(11) 0.8578(3)
H110 H 0.2441 1.5437 0.8527
C169 C 0.2260(3) 1.5434(7) 0.8817(2)
C170 C 0.2104(3) 1.6013(8) 0.86661(18)
H111 H 0.2040 1.5957 0.8498
C171 C 0.2042(3) 1.6675(8) 0.8761(2)
H112 H 0.1935 1.7071 0.8658
C172 C 0.2136(3) 1.6757(7) 0.9007(2)
C173 C 0.2291(3) 1.6178(8) 0.91579(18)
H113 H 0.2355 1.6235 0.9326
C174 C 0.2353(3) 1.5516(7) 0.9063(2)
H114 H 0.2460 1.5120 0.9166
O1 O 0.5974(5) 1.3102(18) 1.0376(5)
O2 O 0.6316(7) 1.256(2) 1.0822(7)
O3 O 0.6217(8) 1.246(3) 1.1224(7)
O4 O 0.5747(8) 1.329(2) 1.1187(8)
O5 O 0.5528(7) 1.405(2) 1.0720(6)
O6 O 0.5079(4) 1.4767(13) 1.0324(4)
C175 C 0.6220(8) 1.277(3) 1.0426(9)
H115 H 0.6270 1.2957 1.0303
H116 H 0.6207 1.2187 1.0416
C176 C 0.6416(7) 1.300(3) 1.0664(8)
H117 H 0.6423 1.3578 1.0689
H118 H 0.6584 1.2803 1.0691
C177 C 0.6457(9) 1.207(3) 1.1039(9)
H119 H 0.6508 1.1583 1.0985
H120 H 0.6614 1.2365 1.1137
C178 C 0.6355(11) 1.182(3) 1.1204(10)
H121 H 0.6247 1.1353 1.1140
H122 H 0.6493 1.1688 1.1362
C179 C 0.6074(11) 1.232(2) 1.1350(10)
H123 H 0.6176 1.2004 1.1494
H124 H 0.5926 1.1999 1.1248
C180 C 0.5985(10) 1.304(3) 1.1426(10)
H125 H 0.6114 1.3461 1.1481
H126 H 0.5937 1.2920 1.1556
C181 C 0.5481(7) 1.307(3) 1.1016(9)
H127 H 0.5379 1.2938 1.1100
H128 H 0.5476 1.2620 1.0912
C182 C 0.5396(7) 1.385(2) 1.0874(9)
H129 H 0.5214 1.3822 1.0770
H130 H 0.5425 1.4289 1.0989
C183 C 0.5463(7) 1.489(3) 1.0655(9)
H131 H 0.5530 1.5042 1.0541
H132 H 0.5553 1.5214 1.0800
C184 C 0.5179(5) 1.514(2) 1.0542(6)
H133 H 0.5098 1.4963 1.0642
H134 H 0.5161 1.5725 1.0523
O7 O 0.2094(5) 1.124(4) 0.6424(7)
O8 O 0.2018(8) 1.120(2) 0.5905(6)
O9 O 0.1962(7) 1.287(2) 0.5684(6)
O10 O 0.2300(7) 1.350(2) 0.6136(6)
O11 O 0.2861(7) 1.372(2) 0.6784(6)
O12 O 0.3095(5) 1.379(3) 0.7288(4)
C185 C 0.1879(6) 1.093(3) 0.6226(6)
H135 H 0.1750 1.1342 0.6155
H136 H 0.1806 1.0485 0.6279
C186 C 0.1963(11) 1.063(2) 0.6045(6)
H137 H 0.2115 1.0307 0.6130
H138 H 0.1831 1.0278 0.5933
C187 C 0.2170(10) 1.186(2) 0.6017(6)
H139 H 0.2342 1.1703 0.6130
H140 H 0.2096 1.2194 0.6100
C188 C 0.2166(8) 1.2277(18) 0.5802(7)
H141 H 0.2329 1.2550 0.5851
H142 H 0.2153 1.1871 0.5683
C189 C 0.2050(9) 1.369(2) 0.5763(7)
H143 H 0.1930 1.4041 0.5640
H144 H 0.2211 1.3740 0.5754
C190 C 0.2092(9) 1.404(3) 0.5999(7)
H145 H 0.2144 1.4598 0.6016
H146 H 0.1947 1.3966 0.6035
C191 C 0.2451(7) 1.369(3) 0.6387(6)
H147 H 0.2441 1.3205 0.6473
H148 H 0.2353 1.4095 0.6423
C192 C 0.2721(8) 1.396(3) 0.6522(6)
H149 H 0.2724 1.4543 0.6513
H150 H 0.2816 1.3751 0.6438
C193 C 0.2994(8) 1.440(2) 0.6910(6)
H151 H 0.2876 1.4773 0.6932
H152 H 0.3067 1.4679 0.6815
C194 C 0.3202(7) 1.419(3) 0.7153(6)
H153 H 0.3325 1.3837 0.7134
H154 H 0.3290 1.4671 0.7238
O13 O 0.1807(4) 1.7570(14) 0.9896(4)
O14 O 0.1258(5) 1.7974(17) 0.9768(5)
O15 O 0.0675(6) 1.867(2) 0.9263(5)
O16 O 0.0915(6) 1.780(2) 0.9000(7)
O17 O 0.1605(5) 1.7256(18) 0.9119(5)
O18 O 0.2077(4) 1.7416(12) 0.9108(3)
C195 C 0.1714(5) 1.783(2) 1.0064(5)
H155 H 0.1846 1.8133 1.0193
H156 H 0.1677 1.7353 1.0137
C196 C 0.1482(5) 1.8322(19) 0.9950(7)
H157 H 0.1441 1.8515 1.0079
H158 H 0.1523 1.8792 0.9880
C197 C 0.1043(6) 1.849(2) 0.9684(6)
H159 H 0.1092 1.9046 0.9679
H160 H 0.0954 1.8449 0.9784
C198 C 0.0887(7) 1.817(2) 0.9437(6)
H161 H 0.0816 1.7661 0.9455
H162 H 0.1001 1.8060 0.9364
C199 C 0.0619(6) 1.848(3) 0.9011(5)
H163 H 0.0558 1.7925 0.8987
H164 H 0.0471 1.8809 0.8913
C200 C 0.0787(8) 1.853(2) 0.8894(8)
H165 H 0.0697 1.8513 0.8718
H166 H 0.0899 1.9002 0.8946
C201 C 0.1128(7) 1.753(3) 0.8963(8)
H167 H 0.1219 1.8031 0.8976
H168 H 0.1047 1.7409 0.8790
C202 C 0.1345(6) 1.693(2) 0.9055(8)
H169 H 0.1348 1.6668 0.9198
H170 H 0.1308 1.6516 0.8931
C203 C 0.1626(5) 1.7503(19) 0.8911(5)
H171 H 0.1486 1.7865 0.8817
H172 H 0.1613 1.7036 0.8810
C204 C 0.1872(5) 1.7921(18) 0.8973(6)
H173 H 0.1881 1.8084 0.8825
H174 H 0.1882 1.8404 0.9067
O19 O 0.3618(4) 1.2125(17) 1.0860(4)
O20 O 0.3737(6) 1.3434(18) 1.1220(7)
O21 O 0.3843(8) 1.4989(18) 1.1398(6)
O22 O 0.3903(6) 1.5918(19) 1.1750(6)
O23 O 0.3324(7) 1.605(2) 1.1691(8)
O24 O 0.3053(4) 1.512(2) 1.1281(4)
C205 C 0.3806(7) 1.203(2) 1.1101(4)
H175 H 0.3973 1.2107 1.1106
H176 H 0.3798 1.1483 1.1154
C206 C 0.3775(5) 1.2601(19) 1.1270(5)
H177 H 0.3631 1.2412 1.1296
H178 H 0.3926 1.2548 1.1425
C207 C 0.3955(8) 1.378(2) 1.1219(10)
H179 H 0.3982 1.3603 1.1081
H180 H 0.4107 1.3675 1.1369
C208 C 0.3878(10) 1.4629(19) 1.1197(7)
H181 H 0.4006 1.4944 1.1174
H182 H 0.3719 1.4686 1.1051
C209 C 0.3873(6) 1.5874(17) 1.1405(6)
H183 H 0.3704 1.6105 1.1352
H184 H 0.3931 1.6017 1.1284
C210 C 0.4044(8) 1.629(3) 1.1633(8)
H185 H 0.4221 1.6116 1.1699
H186 H 0.4030 1.6872 1.1624
C211 C 0.3784(8) 1.647(3) 1.1851(8)
H187 H 0.3874 1.6975 1.1865
H188 H 0.3838 1.6279 1.2016
C212 C 0.3515(8) 1.671(2) 1.1768(12)
H189 H 0.3469 1.7079 1.1632
H190 H 0.3502 1.7002 1.1899
C213 C 0.3430(6) 1.5343(15) 1.1654(5)
H191 H 0.3400 1.4906 1.1744
H192 H 0.3614 1.5412 1.1717
C214 C 0.3320(5) 1.513(3) 1.1391(5)
H193 H 0.3378 1.5515 1.1308
H194 H 0.3383 1.4599 1.1375
O25 O 0.4436(5) 0.887(2) 0.8624(5)
O26 O 0.4841(7) 0.941(2) 0.8451(8)
O27 O 0.5289(7) 1.008(3) 0.8421(7)
O28 O 0.5681(6) 0.938(2) 0.8435(7)
O29 O 0.5558(7) 0.833(2) 0.8768(7)
O30 O 0.5462(5) 0.8751(18) 0.9141(5)
C215 C 0.4487(9) 0.853(2) 0.8438(8)
H195 H 0.4331 0.8299 0.8314
H196 H 0.4609 0.8088 0.8506
C216 C 0.4590(8) 0.911(3) 0.8325(7)
H197 H 0.4576 0.8868 0.8175
H198 H 0.4477 0.9574 0.8278
C217 C 0.4864(7) 1.024(2) 0.8429(10)
H199 H 0.4782 1.0534 0.8512
H200 H 0.4790 1.0402 0.8260
C218 C 0.5142(8) 1.036(3) 0.8547(9)
H201 H 0.5172 1.0939 0.8575
H202 H 0.5210 1.0105 0.8705
C219 C 0.5554(8) 1.036(2) 0.8553(10)
H203 H 0.5561 1.0712 0.8682
H204 H 0.5588 1.0699 0.8441
C220 C 0.5772(7) 0.979(3) 0.8664(6)
H205 H 0.5938 1.0043 0.8715
H206 H 0.5768 0.9464 0.8793
C221 C 0.5631(8) 0.855(2) 0.8402(7)
H207 H 0.5792 0.8305 0.8426
H208 H 0.5517 0.8485 0.8230
C222 C 0.5526(11) 0.800(2) 0.8529(7)
H209 H 0.5346 0.7910 0.8426
H210 H 0.5612 0.7481 0.8556
C223 C 0.5435(8) 0.7773(19) 0.8854(7)
H211 H 0.5559 0.7438 0.8982
H212 H 0.5321 0.7427 0.8723
C224 C 0.5289(6) 0.828(3) 0.8950(7)
H213 H 0.5170 0.8623 0.8822
H214 H 0.5193 0.7936 0.9009
O31 O 0.1302(5) 1.111(3) 0.8014(6)
O32 O 0.0814(8) 1.260(3) 0.7670(8)
O33 O 0.0357(8) 1.308(3) 0.7516(11)
O34 O 0.0177(10) 1.259(4) 0.7023(11)
O35 O 0.0390(11) 1.105(4) 0.6932(9)
O36 O 0.0902(4) 1.060(4) 0.7090(6)
C225 C 0.1060(6) 1.148(3) 0.7933(6)
H215 H 0.1044 1.1724 0.8070
H216 H 0.0927 1.1078 0.7861
C226 C 0.1030(11) 1.211(4) 0.7751(10)
H217 H 0.1180 1.2450 0.7819
H218 H 0.1030 1.1839 0.7610
C227 C 0.0805(12) 1.308(4) 0.7857(10)
H219 H 0.0938 1.3483 0.7913
H220 H 0.0822 1.2743 0.7994
C228 C 0.0551(11) 1.344(4) 0.7738(10)
H221 H 0.0483 1.3458 0.7856
H222 H 0.0574 1.3998 0.7701
C229 C 0.0398(11) 1.332(3) 0.7305(8)
H223 H 0.0540 1.3692 0.7363
H224 H 0.0248 1.3614 0.7195
C230 C 0.0450(10) 1.270(5) 0.7159(11)
H225 H 0.0532 1.2903 0.7063
H226 H 0.0538 1.2222 0.7251
C231 C 0.0102(12) 1.224(4) 0.6786(10)
H227 H 0.0076 1.2691 0.6675
H228 H -0.0065 1.2001 0.6739
C232 C 0.0258(18) 1.163(4) 0.6729(12)
H229 H 0.0146 1.1331 0.6585
H230 H 0.0384 1.1908 0.6694
C233 C 0.0464(6) 1.037(3) 0.6845(12)
H231 H 0.0338 1.0248 0.6680
H232 H 0.0481 0.9910 0.6948
C234 C 0.0715(5) 1.057(6) 0.6848(7)
H233 H 0.0760 1.0152 0.6761
H234 H 0.0705 1.1079 0.6768
K1 K 0.5945(2) 1.3436(8) 1.0828(2)
Br7 Br 0.62182(11) 1.4996(3) 1.07705(9)
Br8 Br 0.32186(7) 1.0803(2) 0.96798(6)
Br9 Br 0.34687(10) 0.9922(3) 0.90244(8)
Br10 Br 0.0929(2) 1.4795(8) 0.7364(3)
Br11 Br 0.20494(13) 1.5623(4) 0.80582(8)
Br12 Br 0.2991(6) 0.9324(10) 0.8025(3)
O37 O 0.6461(6) 1.062(2) 1.0470(6)
Br13 Br 0.67359(12) 1.5453(4) 1.16270(12)
O38 O 0.2614(5) 1.0932(16) 0.8833(5)
O39 O 0.3072(8) 1.118(3) 0.9104(8)
O40 O 0.2677(3) 1.2430(10) 1.0404(3)
O41 O 0.4382(5) 1.0729(16) 0.9863(5)
O42 O 0.3122(9) 1.263(3) 1.0822(8)
O43 O 0.5992(7) 0.988(3) 0.8353(7)
loop_
_geom_bond_atom_site_label_1
_geom_bond_atom_site_label_2
_geom_bond_site_symmetry_1
_geom_bond_site_symmetry_2
Fe1 Br1 1_555 1_555
Fe2 Br3 1_555 1_555
Fe3 Br5 1_555 1_555
Fe4 N9 1_555 1_555
Fe5 N15 1_555 1_555
Fe6 N3 1_555 1_555
Br2 Fe1 1_555 1_555
Br4 Fe2 1_555 1_555
Br6 Fe3 1_555 1_555
N1 Fe1 1_555 1_555
N2 Fe1 1_555 1_555
N3 C13 1_555 1_555
N4 Fe6 1_555 1_555
N5 Fe3 1_555 1_555
N6 Fe3 1_555 1_555
C1 N1 1_555 1_555
C2 C1 1_555 1_555
H1 C2 1_555 1_555
C3 C2 1_555 1_555
H2 C3 1_555 1_555
C4 C3 1_555 1_555
C5 C4 1_555 1_555
H3 C5 1_555 1_555
C6 C1 1_555 1_555
H4 C6 1_555 1_555
C7 N1 1_555 1_555
H5 C7 1_555 1_555
C8 N2 1_555 1_555
C9 C8 1_555 1_555
H6 C9 1_555 1_555
C10 C9 1_555 1_555
H7 C10 1_555 1_555
C11 C10 1_555 1_555
C12 N2 1_555 1_555
H8 C12 1_555 1_555
C13 H9 1_555 1_555
C14 C11 1_555 1_555
C15 C14 1_555 1_555
H10 C15 1_555 1_555
C16 C15 1_555 1_555
H11 C16 1_555 1_555
C17 N3 1_555 1_555
C18 N4 1_555 1_555
C19 C18 1_555 1_555
H12 C19 1_555 1_555
C20 C19 1_555 1_555
H13 C20 1_555 1_555
C21 C20 1_555 1_555
C22 N4 1_555 1_555
H14 C22 1_555 1_555
C23 N5 1_555 1_555
H15 C23 1_555 1_555
C24 C21 1_555 1_555
C25 C24 1_555 1_555
H16 C25 1_555 1_555
C26 C25 1_555 1_555
H17 C26 1_555 1_555
C27 N5 1_555 1_555
C28 N6 1_555 1_555
H18 C28 1_555 1_555
C29 N6 1_555 1_555
C30 C29 1_555 1_555
H19 C30 1_555 1_555
C31 C30 1_555 1_555
H20 C31 1_555 1_555
C32 C31 1_555 1_555
C33 C32 1_555 1_555
H21 C33 1_555 1_555
C34 C29 1_555 1_555
H22 C34 1_555 1_555
N7 Fe1 1_555 1_555
N8 Fe1 1_555 1_555
N9 C47 1_555 1_555
N10 Fe4 1_555 1_555
N11 Fe2 1_555 1_555
N12 Fe2 1_555 1_555
C35 N7 1_555 1_555
C36 C35 1_555 1_555
H23 C36 1_555 1_555
C37 C36 1_555 1_555
H24 C37 1_555 1_555
C38 C37 1_555 1_555
C39 C38 1_555 1_555
H25 C39 1_555 1_555
C40 C35 1_555 1_555
H26 C40 1_555 1_555
C41 N7 1_555 1_555
H27 C41 1_555 1_555
C42 N8 1_555 1_555
C43 C42 1_555 1_555
H28 C43 1_555 1_555
C44 C43 1_555 1_555
H29 C44 1_555 1_555
C45 C44 1_555 1_555
C46 N8 1_555 1_555
H30 C46 1_555 1_555
C47 H31 1_555 1_555
C48 C45 1_555 1_555
C49 C48 1_555 1_555
H32 C49 1_555 1_555
C50 C49 1_555 1_555
H33 C50 1_555 1_555
C51 N9 1_555 1_555
C52 N10 1_555 1_555
C53 C52 1_555 1_555
H34 C53 1_555 1_555
C54 C53 1_555 1_555
H35 C54 1_555 1_555
C55 C54 1_555 1_555
C56 N10 1_555 1_555
H36 C56 1_555 1_555
C57 N11 1_555 1_555
H37 C57 1_555 1_555
C58 C55 1_555 1_555
C59 C58 1_555 1_555
H38 C59 1_555 1_555
C60 C59 1_555 1_555
H39 C60 1_555 1_555
C61 N11 1_555 1_555
C62 N12 1_555 1_555
H40 C62 1_555 1_555
C63 N12 1_555 1_555
C64 C63 1_555 1_555
H41 C64 1_555 1_555
C65 C64 1_555 1_555
H42 C65 1_555 1_555
C66 C65 1_555 1_555
C67 C66 1_555 1_555
H43 C67 1_555 1_555
C68 C63 1_555 1_555
H44 C68 1_555 1_555
N13 Fe2 1_555 1_555
N14 Fe2 1_555 1_555
N15 C81 1_555 1_555
N16 Fe5 1_555 1_555
N17 Fe3 1_555 1_555
N18 Fe3 1_555 1_555
C69 N13 1_555 1_555
C70 C69 1_555 1_555
H45 C70 1_555 1_555
C71 C70 1_555 1_555
H46 C71 1_555 1_555
C72 C71 1_555 1_555
C73 C72 1_555 1_555
H47 C73 1_555 1_555
C74 C69 1_555 1_555
H48 C74 1_555 1_555
C75 N13 1_555 1_555
H49 C75 1_555 1_555
C76 N14 1_555 1_555
C77 C76 1_555 1_555
H50 C77 1_555 1_555
C78 C77 1_555 1_555
H51 C78 1_555 1_555
C79 C78 1_555 1_555
C80 N14 1_555 1_555
H52 C80 1_555 1_555
C81 H53 1_555 1_555
C82 C79 1_555 1_555
C83 C82 1_555 1_555
H54 C83 1_555 1_555
C84 C83 1_555 1_555
H55 C84 1_555 1_555
C85 N15 1_555 1_555
C86 N16 1_555 1_555
C87 C86 1_555 1_555
H56 C87 1_555 1_555
C88 C87 1_555 1_555
H57 C88 1_555 1_555
C89 C88 1_555 1_555
C90 N16 1_555 1_555
H58 C90 1_555 1_555
C91 N17 1_555 1_555
H59 C91 1_555 1_555
C92 C89 1_555 1_555
C93 C92 1_555 1_555
H60 C93 1_555 1_555
C94 C93 1_555 1_555
H61 C94 1_555 1_555
C95 N17 1_555 1_555
C96 N18 1_555 1_555
H62 C96 1_555 1_555
C97 N18 1_555 1_555
C98 C97 1_555 1_555
H63 C98 1_555 1_555
C99 C98 1_555 1_555
H64 C99 1_555 1_555
C100 C99 1_555 1_555
C101 C100 1_555 1_555
H65 C101 1_555 1_555
C102 C97 1_555 1_555
H66 C102 1_555 1_555
N19 Fe5 1_555 1_555
N20 Fe5 1_555 1_555
N21 Fe6 1_555 1_555
N22 Fe6 1_555 1_555
C103 N19 1_555 1_555
C104 C103 1_555 1_555
H67 C104 1_555 1_555
C105 C104 1_555 1_555
H68 C105 1_555 1_555
C106 C105 1_555 1_555
C107 C106 1_555 1_555
H69 C107 1_555 1_555
C108 C103 1_555 1_555
H70 C108 1_555 1_555
C109 N19 1_555 1_555
H71 C109 1_555 1_555
C110 N20 1_555 1_555
C111 C110 1_555 1_555
H72 C111 1_555 1_555
C112 C111 1_555 1_555
H73 C112 1_555 1_555
C113 C112 1_555 1_555
C114 N20 1_555 1_555
H74 C114 1_555 1_555
C115 N21 1_555 1_555
H75 C115 1_555 1_555
C116 C113 1_555 1_555
C117 C116 1_555 1_555
H76 C117 1_555 1_555
C118 C117 1_555 1_555
H77 C118 1_555 1_555
C119 N21 1_555 1_555
C120 N22 1_555 1_555
H78 C120 1_555 1_555
C121 N22 1_555 1_555
C122 C121 1_555 1_555
H79 C122 1_555 1_555
C123 C122 1_555 1_555
H80 C123 1_555 1_555
C124 C123 1_555 1_555
C125 C124 1_555 1_555
H81 C125 1_555 1_555
C126 C121 1_555 1_555
H82 C126 1_555 1_555
N23 Fe4 1_555 1_555
N24 Fe4 1_555 1_555
N25 Fe5 1_555 1_555
N26 Fe5 1_555 1_555
C127 N23 1_555 1_555
C128 C127 1_555 1_555
H83 C128 1_555 1_555
C129 C128 1_555 1_555
H84 C129 1_555 1_555
C130 C129 1_555 1_555
C131 C130 1_555 1_555
H85 C131 1_555 1_555
C132 C127 1_555 1_555
H86 C132 1_555 1_555
C133 N23 1_555 1_555
H87 C133 1_555 1_555
C134 N24 1_555 1_555
C135 C134 1_555 1_555
H88 C135 1_555 1_555
C136 C135 1_555 1_555
H89 C136 1_555 1_555
C137 C136 1_555 1_555
C138 N24 1_555 1_555
H90 C138 1_555 1_555
C139 N25 1_555 1_555
H91 C139 1_555 1_555
C140 C137 1_555 1_555
C141 C140 1_555 1_555
H92 C141 1_555 1_555
C142 C141 1_555 1_555
H93 C142 1_555 1_555
C143 N25 1_555 1_555
C144 N26 1_555 1_555
H94 C144 1_555 1_555
C145 N26 1_555 1_555
C146 C145 1_555 1_555
H95 C146 1_555 1_555
C147 C146 1_555 1_555
H96 C147 1_555 1_555
C148 C147 1_555 1_555
C149 C148 1_555 1_555
H97 C149 1_555 1_555
C150 C145 1_555 1_555
H98 C150 1_555 1_555
N27 Fe6 1_555 1_555
N28 Fe6 1_555 1_555
N29 Fe4 1_555 1_555
N30 Fe4 1_555 1_555
C151 N27 1_555 1_555
C152 C151 1_555 1_555
H99 C152 1_555 1_555
C153 C152 1_555 1_555
H100 C153 1_555 1_555
C154 C153 1_555 1_555
C155 C154 1_555 1_555
H101 C155 1_555 1_555
C156 C151 1_555 1_555
H102 C156 1_555 1_555
C157 N27 1_555 1_555
H103 C157 1_555 1_555
C158 N28 1_555 1_555
C159 C158 1_555 1_555
H104 C159 1_555 1_555
C160 C159 1_555 1_555
H105 C160 1_555 1_555
C161 C160 1_555 1_555
C162 N28 1_555 1_555
H106 C162 1_555 1_555
C163 N29 1_555 1_555
H107 C163 1_555 1_555
C164 C161 1_555 1_555
C165 C164 1_555 1_555
H108 C165 1_555 1_555
C166 C165 1_555 1_555
H109 C166 1_555 1_555
C167 N29 1_555 1_555
C168 N30 1_555 1_555
H110 C168 1_555 1_555
C169 N30 1_555 1_555
C170 C169 1_555 1_555
H111 C170 1_555 1_555
C171 C170 1_555 1_555
H112 C171 1_555 1_555
C172 C171 1_555 1_555
C173 C172 1_555 1_555
H113 C173 1_555 1_555
C174 C169 1_555 1_555
H114 C174 1_555 1_555
O1 C32 1_555 1_555
O2 C176 1_555 1_555
O3 C178 1_555 1_555
O4 C180 1_555 1_555
O5 C182 1_555 1_555
O6 C148 1_555 1_555
C175 O1 1_555 1_555
H115 C175 1_555 1_555
H116 C175 1_555 1_555
C176 C175 1_555 1_555
H117 C176 1_555 1_555
H118 C176 1_555 1_555
C177 O2 1_555 1_555
H119 C177 1_555 1_555
H120 C177 1_555 1_555
C178 C177 1_555 1_555
H121 C178 1_555 1_555
H122 C178 1_555 1_555
C179 O3 1_555 1_555
H123 C179 1_555 1_555
H124 C179 1_555 1_555
C180 C179 1_555 1_555
H125 C180 1_555 1_555
H126 C180 1_555 1_555
C181 O4 1_555 1_555
H127 C181 1_555 1_555
H128 C181 1_555 1_555
C182 C181 1_555 1_555
H129 C182 1_555 1_555
H130 C182 1_555 1_555
C183 O5 1_555 1_555
H131 C183 1_555 1_555
H132 C183 1_555 1_555
C184 O6 1_555 1_555
H133 C184 1_555 1_555
H134 C184 1_555 1_555
O7 C38 1_555 1_555
O8 C186 1_555 1_555
O9 C188 1_555 1_555
O10 C190 1_555 1_555
O11 C192 1_555 1_555
O12 C124 1_555 1_555
C185 O7 1_555 1_555
H135 C185 1_555 1_555
H136 C185 1_555 1_555
C186 C185 1_555 1_555
H137 C186 1_555 1_555
H138 C186 1_555 1_555
C187 O8 1_555 1_555
H139 C187 1_555 1_555
H140 C187 1_555 1_555
C188 C187 1_555 1_555
H141 C188 1_555 1_555
H142 C188 1_555 1_555
C189 O9 1_555 1_555
H143 C189 1_555 1_555
H144 C189 1_555 1_555
C190 C189 1_555 1_555
H145 C190 1_555 1_555
H146 C190 1_555 1_555
C191 O10 1_555 1_555
H147 C191 1_555 1_555
H148 C191 1_555 1_555
C192 C191 1_555 1_555
H149 C192 1_555 1_555
H150 C192 1_555 1_555
C193 O11 1_555 1_555
H151 C193 1_555 1_555
H152 C193 1_555 1_555
C194 O12 1_555 1_555
H153 C194 1_555 1_555
H154 C194 1_555 1_555
O13 C72 1_555 1_555
O14 C196 1_555 1_555
O15 C198 1_555 1_555
O16 C200 1_555 1_555
O17 C202 1_555 1_555
O18 C172 1_555 1_555
C195 O13 1_555 1_555
H155 C195 1_555 1_555
H156 C195 1_555 1_555
C196 C195 1_555 1_555
H157 C196 1_555 1_555
H158 C196 1_555 1_555
C197 O14 1_555 1_555
H159 C197 1_555 1_555
H160 C197 1_555 1_555
C198 C197 1_555 1_555
H161 C198 1_555 1_555
H162 C198 1_555 1_555
C199 O15 1_555 1_555
H163 C199 1_555 1_555
H164 C199 1_555 1_555
C200 C199 1_555 1_555
H165 C200 1_555 1_555
H166 C200 1_555 1_555
C201 O16 1_555 1_555
H167 C201 1_555 1_555
H168 C201 1_555 1_555
C202 C201 1_555 1_555
H169 C202 1_555 1_555
H170 C202 1_555 1_555
C203 O17 1_555 1_555
H171 C203 1_555 1_555
H172 C203 1_555 1_555
C204 O18 1_555 1_555
H173 C204 1_555 1_555
H174 C204 1_555 1_555
O19 C106 1_555 1_555
O20 C206 1_555 1_555
O21 C208 1_555 1_555
O22 C210 1_555 1_555
O23 C212 1_555 1_555
O24 C66 1_555 1_555
C205 O19 1_555 1_555
H175 C205 1_555 1_555
H176 C205 1_555 1_555
C206 C205 1_555 1_555
H177 C206 1_555 1_555
H178 C206 1_555 1_555
C207 O20 1_555 1_555
H179 C207 1_555 1_555
H180 C207 1_555 1_555
C208 C207 1_555 1_555
H181 C208 1_555 1_555
H182 C208 1_555 1_555
C209 O21 1_555 1_555
H183 C209 1_555 1_555
H184 C209 1_555 1_555
C210 C209 1_555 1_555
H185 C210 1_555 1_555
H186 C210 1_555 1_555
C211 O22 1_555 1_555
H187 C211 1_555 1_555
H188 C211 1_555 1_555
C212 C211 1_555 1_555
H189 C212 1_555 1_555
H190 C212 1_555 1_555
C213 O23 1_555 1_555
H191 C213 1_555 1_555
H192 C213 1_555 1_555
C214 O24 1_555 1_555
H193 C214 1_555 1_555
H194 C214 1_555 1_555
O25 C154 1_555 1_555
O26 C216 1_555 1_555
O27 C218 1_555 1_555
O28 C220 1_555 1_555
O29 C222 1_555 1_555
O30 C100 1_555 1_555
C215 O25 1_555 1_555
H195 C215 1_555 1_555
H196 C215 1_555 1_555
C216 C215 1_555 1_555
H197 C216 1_555 1_555
H198 C216 1_555 1_555
C217 O26 1_555 1_555
H199 C217 1_555 1_555
H200 C217 1_555 1_555
C218 C217 1_555 1_555
H201 C218 1_555 1_555
H202 C218 1_555 1_555
C219 O27 1_555 1_555
H203 C219 1_555 1_555
H204 C219 1_555 1_555
C220 C219 1_555 1_555
H205 C220 1_555 1_555
H206 C220 1_555 1_555
C221 O28 1_555 1_555
H207 C221 1_555 1_555
H208 C221 1_555 1_555
C222 C221 1_555 1_555
H209 C222 1_555 1_555
H210 C222 1_555 1_555
C223 O29 1_555 1_555
H211 C223 1_555 1_555
H212 C223 1_555 1_555
C224 O30 1_555 1_555
H213 C224 1_555 1_555
H214 C224 1_555 1_555
O31 C130 1_555 1_555
O32 C226 1_555 1_555
O33 C228 1_555 1_555
O34 C230 1_555 1_555
O35 C232 1_555 1_555
O36 C4 1_555 1_555
C225 O31 1_555 1_555
H215 C225 1_555 1_555
H216 C225 1_555 1_555
C226 C225 1_555 1_555
H217 C226 1_555 1_555
H218 C226 1_555 1_555
C227 O32 1_555 1_555
H219 C227 1_555 1_555
H220 C227 1_555 1_555
C228 C227 1_555 1_555
H221 C228 1_555 1_555
H222 C228 1_555 1_555
C229 O33 1_555 1_555
H223 C229 1_555 1_555
H224 C229 1_555 1_555
C230 C229 1_555 1_555
H225 C230 1_555 1_555
H226 C230 1_555 1_555
C231 O34 1_555 1_555
H227 C231 1_555 1_555
H228 C231 1_555 1_555
C232 C231 1_555 1_555
H229 C232 1_555 1_555
H230 C232 1_555 1_555
C233 O35 1_555 1_555
H231 C233 1_555 1_555
H232 C233 1_555 1_555
C234 O36 1_555 1_555
H233 C234 1_555 1_555
H234 C234 1_555 1_555
C5 C6 1_555 1_555
C7 C8 1_555 1_555
C11 C12 1_555 1_555
C13 C14 1_555 1_555
C16 C17 1_555 1_555
C17 C18 1_555 1_555
C21 C22 1_555 1_555
C23 C24 1_555 1_555
C26 C27 1_555 1_555
C27 C28 1_555 1_555
C33 C34 1_555 1_555
C39 C40 1_555 1_555
C41 C42 1_555 1_555
C45 C46 1_555 1_555
C47 C48 1_555 1_555
C50 C51 1_555 1_555
C51 C52 1_555 1_555
C55 C56 1_555 1_555
C57 C58 1_555 1_555
C60 C61 1_555 1_555
C61 C62 1_555 1_555
C67 C68 1_555 1_555
C73 C74 1_555 1_555
C75 C76 1_555 1_555
C79 C80 1_555 1_555
C81 C82 1_555 1_555
C84 C85 1_555 1_555
C85 C86 1_555 1_555
C89 C90 1_555 1_555
C91 C92 1_555 1_555
C94 C95 1_555 1_555
C95 C96 1_555 1_555
C101 C102 1_555 1_555
C107 C108 1_555 1_555
C109 C110 1_555 1_555
C113 C114 1_555 1_555
C115 C116 1_555 1_555
C118 C119 1_555 1_555
C119 C120 1_555 1_555
C125 C126 1_555 1_555
C131 C132 1_555 1_555
C133 C134 1_555 1_555
C137 C138 1_555 1_555
C139 C140 1_555 1_555
C142 C143 1_555 1_555
C143 C144 1_555 1_555
C149 C150 1_555 1_555
C155 C156 1_555 1_555
C157 C158 1_555 1_555
C161 C162 1_555 1_555
C163 C164 1_555 1_555
C166 C167 1_555 1_555
C167 C168 1_555 1_555
C173 C174 1_555 1_555
C183 C184 1_555 1_555
C193 C194 1_555 1_555
C203 C204 1_555 1_555
C213 C214 1_555 1_555
C223 C224 1_555 1_555
C233 C234 1_555 1_555

#END
