
#######################################################################
#
#                 Cambridge Crystallographic Data Centre
#                                CCDC 
#
#######################################################################
#
# If this CIF has been generated from an entry in the Cambridge 
# Structural Database, then it will include bibliographic, chemical, 
# crystal, experimental, refinement or atomic coordinate data resulting 
# from the CCDC's data processing and validation procedures.
#
#######################################################################

data_AWEZIN
_chemical_formula_moiety         'C72 H104 O48 S8 8-,4(Cu1 2+),50(H2 O1)'
_chemical_name_systematic        
'tetra-copper octakis-(6-deoxy-6-(3-mercaptopropanoato))- -cyclodextrin pentacontahydrate'
_symmetry_cell_setting           tetragonal
_symmetry_space_group_name_H-M   'P 42 21 2'
_symmetry_Int_Tables_number      94
_space_group_name_Hall           'P 4n 2n'
loop_
_symmetry_equiv_pos_site_id
_symmetry_equiv_pos_as_xyz
1 x,y,z
2 -x,-y,z
3 1/2+x,1/2-y,1/2-z
4 1/2-x,1/2+y,1/2-z
5 -y,-x,-z
6 y,x,-z
7 1/2+y,1/2-x,1/2+z
8 1/2-y,1/2+x,1/2+z
_cell_length_a                   17.010(5)
_cell_length_b                   17.010(5)
_cell_length_c                   49.050(5)
_cell_angle_alpha                90
_cell_angle_beta                 90
_cell_angle_gamma                90
_cell_volume                     14192.1
_exptl_crystal_colour            blue
_exptl_crystal_description       prism
_cell_formula_units_Z            8
loop_
_atom_site_label
_atom_site_type_symbol
_atom_site_fract_x
_atom_site_fract_y
_atom_site_fract_z
Cu1 Cu 0.9998(9) 0.5075(9) 0.12556(6)
Cu2 Cu 0.14852(15) 0.25098(15) 0.00853(3)
Cu3 Cu 1.0000 0.5000 0.07220(4)
S1 S 0.0946(6) 0.0069(5) 0.10909(11)
S2 S 0.6153(2) 0.4591(2) 0.12105(6)
S3 S 0.2645(3) 0.2783(3) 0.09821(6)
S4 S 0.8810(3) 0.2253(3) 0.11576(7)
O1 O 1.0129(6) 0.3859(9) 0.12046(18)
O2 O 1.0230(7) 0.3876(7) 0.07584(18)
O3 O 0.5317(6) 0.3594(7) 0.22696(15)
H1 H 0.5538 0.3874 0.2382
O4 O 0.4891(4) 0.3264(5) 0.17354(13)
O5 O 0.0828(5) 0.0933(5) 0.21727(12)
H2 H 0.0952 0.0511 0.2241
O6 O 0.8876(6) 0.4760(8) 0.07539(19)
O7 O 0.8866(7) 0.4876(10) 0.1221(2)
O8 O 0.1157(5) 0.2513(5) 0.20304(17)
H3 H 0.1293 0.2338 0.2179
O9 O 0.1244(11) 0.1698(11) 0.0347(2)
O10 O 0.1672(5) 0.1480(5) 0.14001(13)
O11 O 0.6952(7) 0.3348(7) 0.24028(15)
H4 H 0.6646 0.3490 0.2522
O12 O 0.2018(11) 0.0797(9) 0.0182(2)
O13 O 0.7020(4) 0.3635(5) 0.16659(14)
O14 O 0.7318(4) 0.2562(4) 0.19305(12)
O15 O 0.2321(12) 0.2882(11) 0.0320(2)
O16 O 0.2455(4) 0.2181(5) 0.16999(13)
O17 O 0.2524(4) 0.3494(5) 0.20571(13)
H5 H 0.2264 0.3103 0.2095
O18 O 0.7818(6) 0.1966(6) 0.24377(14)
H6 H 0.7762 0.1626 0.2554
O19 O 0.3168(8) 0.1943(10) 0.02051(18)
O20 O 0.8388(4) 0.0244(4) 0.18419(11)
O21 O 0.8614(5) 0.0463(5) 0.23840(13)
H7 H 0.9025 0.0212 0.2391
O22 O 0.3988(5) 0.3397(5) 0.13934(14)
O23 O 0.4033(5) 0.4311(5) 0.20646(13)
H8 H 0.3691 0.4419 0.2176
O24 O 0.9054(4) 0.1405(5) 0.17344(14)
C1 C 1.0196(9) 0.3513(12) 0.0978(2)
C2 C 1.0256(10) 0.2647(12) 0.0966(3)
H9 H 1.0810 0.2511 0.0965
H10 H 1.0042 0.2478 0.0792
C3 C 0.5631(7) 0.3605(7) 0.17929(18)
H11 H 0.5595 0.4180 0.1788
C4 C 0.5864(8) 0.3326(9) 0.20788(19)
H12 H 0.5877 0.2750 0.2082
C5 C 0.6112(8) 0.3574(8) 0.1292(2)
H13 H 0.5599 0.3381 0.1237
H14 H 0.6499 0.3307 0.1180
C6 C 0.1133(7) 0.1893(8) 0.1836(2)
H15 H 0.0596 0.1849 0.1766
C7 C 0.6244(6) 0.3315(8) 0.1588(2)
H16 H 0.6266 0.2739 0.1595
C8 C 0.123(3) 0.074(3) 0.0818(5)
H17 H 0.0812 0.1121 0.0791
H18 H 0.1695 0.1028 0.0875
C9 C 0.1337(6) 0.0479(7) 0.17381(17)
H19 H 0.0795 0.0416 0.1674
C10 C 0.1364(6) 0.1123(7) 0.19609(19)
H20 H 0.1897 0.1161 0.2035
C11 C 0.137(2) 0.0410(18) 0.0590(4)
H21 H 0.0938 0.0068 0.0544
H22 H 0.1839 0.0084 0.0610
C12 C 0.1509(18) 0.0997(14) 0.0350(3)
C13 C 0.6683(10) 0.3643(9) 0.2139(2)
H23 H 0.6668 0.4218 0.2143
C14 C 0.1684(7) 0.2076(9) 0.1600(2)
H24 H 0.1513 0.2569 0.1516
C15 C 0.1739(13) 0.0136(10) 0.1254(3)
H25 H 0.1853 -0.0385 0.1323
H26 H 0.2144 0.0255 0.1121
C16 C 0.1865(9) 0.0718(9) 0.1497(2)
H27 H 0.2417 0.0706 0.1554
C17 C 0.7204(8) 0.4865(10) 0.1210(2)
H28 H 0.7248 0.5432 0.1195
H29 H 0.7435 0.4712 0.1383
C18 C 0.7251(8) 0.3379(8) 0.1933(2)
H30 H 0.7767 0.3605 0.1976
C19 C 0.7662(8) 0.4491(10) 0.0984(2)
H31 H 0.7601 0.3925 0.0996
H32 H 0.7439 0.4658 0.0811
C20 C 0.2881(7) 0.2883(7) 0.16289(19)
H33 H 0.2532 0.3247 0.1532
C21 C 0.7980(7) 0.1602(7) 0.21788(17)
H34 H 0.7535 0.1266 0.2129
C22 C 0.2991(16) 0.2534(14) 0.0334(3)
C23 C 0.8084(7) 0.2215(7) 0.19630(19)
H35 H 0.8463 0.2613 0.2023
C24 C 0.3172(7) 0.3271(8) 0.1900(2)
H36 H 0.3491 0.2893 0.2003
C25 C 0.3247(13) 0.3310(12) 0.0763(3)
H37 H 0.2940 0.3742 0.0689
H38 H 0.3666 0.3540 0.0871
C26 C 0.8342(7) 0.1855(8) 0.16902(19)
H39 H 0.7926 0.1532 0.1610
C27 C 0.3353(9) 0.2317(9) 0.1186(2)
H40 H 0.3171 0.1786 0.1222
H41 H 0.3832 0.2273 0.1079
C28 C 0.8521(9) 0.4683(13) 0.0984(3)
C29 C 0.3560(7) 0.2680(7) 0.1451(2)
H42 H 0.3907 0.2321 0.1551
C30 C 0.3618(12) 0.2889(15) 0.0527(3)
H43 H 0.3953 0.2472 0.0596
H44 H 0.3945 0.3254 0.0426
C31 C 0.8625(11) 0.2669(13) 0.1464(4)
H45 H 0.8202 0.3049 0.1450
H46 H 0.9089 0.2933 0.1533
C32 C 0.3675(6) 0.3977(7) 0.1824(2)
H47 H 0.3331 0.4376 0.1743
C33 C 0.8707(7) 0.1097(7) 0.22068(19)
H48 H 0.9129 0.1429 0.2279
C34 C 0.8962(7) 0.0803(8) 0.1923(2)
H49 H 0.9467 0.0532 0.1943
C35 C 0.4302(7) 0.3780(8) 0.1621(2)
H50 H 0.4557 0.4267 0.1561
C36 C 0.9839(11) 0.2140(14) 0.1201(4)
H51 H 0.9998 0.2328 0.1379
H52 H 0.9985 0.1591 0.1185
S1A S 0.9054(6) -0.0069(5) 0.10909(11)
S2A S 0.3847(2) -0.4591(2) 0.12105(6)
S3A S 0.7355(3) -0.2783(3) 0.09821(6)
S4A S 0.1190(3) -0.2253(3) 0.11576(7)
O1A O -0.0129(6) -0.3859(9) 0.12046(18)
O2A O -0.0230(7) -0.3876(7) 0.07584(18)
O3A O 0.4683(6) -0.3594(7) 0.22696(15)
H1A H 0.4462 -0.3874 0.2382
O4A O 0.5109(4) -0.3264(5) 0.17354(13)
O5A O 0.9172(5) -0.0933(5) 0.21727(12)
H2A H 0.9048 -0.0511 0.2241
O6A O 0.1124(6) -0.4760(8) 0.07539(19)
O7A O 0.1134(7) -0.4876(10) 0.1221(2)
O8A O 0.8843(5) -0.2513(5) 0.20304(17)
H3A H 0.8707 -0.2338 0.2179
O9A O 0.8756(11) -0.1698(11) 0.0347(2)
O10A O 0.8328(5) -0.1480(5) 0.14001(13)
O11A O 0.3048(7) -0.3348(7) 0.24028(15)
H4A H 0.3354 -0.3490 0.2522
O12A O 0.7982(11) -0.0797(9) 0.0182(2)
O13A O 0.2980(4) -0.3635(5) 0.16659(14)
O14A O 0.2682(4) -0.2562(4) 0.19305(12)
O15A O 0.7679(12) -0.2882(11) 0.0320(2)
O16A O 0.7545(4) -0.2181(5) 0.16999(13)
O17A O 0.7476(4) -0.3494(5) 0.20571(13)
H5A H 0.7736 -0.3103 0.2095
O18A O 0.2182(6) -0.1966(6) 0.24377(14)
H6A H 0.2238 -0.1626 0.2554
O19A O 0.6832(8) -0.1943(10) 0.02051(18)
O20A O 0.1612(4) -0.0244(4) 0.18419(11)
O21A O 0.1386(5) -0.0463(5) 0.23840(13)
H7A H 0.0975 -0.0212 0.2391
O22A O 0.6012(5) -0.3397(5) 0.13934(14)
O23A O 0.5967(5) -0.4311(5) 0.20646(13)
H8A H 0.6309 -0.4419 0.2176
O24A O 0.0946(4) -0.1405(5) 0.17344(14)
C1A C -0.0196(9) -0.3513(12) 0.0978(2)
C2A C -0.0256(10) -0.2647(12) 0.0966(3)
H9A H -0.0810 -0.2511 0.0965
H10A H -0.0042 -0.2478 0.0792
C3A C 0.4369(7) -0.3605(7) 0.17929(18)
H11A H 0.4405 -0.4180 0.1788
C4A C 0.4136(8) -0.3326(9) 0.20788(19)
H12A H 0.4123 -0.2750 0.2082
C5A C 0.3888(8) -0.3574(8) 0.1292(2)
H13A H 0.4401 -0.3381 0.1237
H14A H 0.3501 -0.3307 0.1180
C6A C 0.8867(7) -0.1893(8) 0.1836(2)
H15A H 0.9404 -0.1849 0.1766
C7A C 0.3756(6) -0.3315(8) 0.1588(2)
H16A H 0.3734 -0.2739 0.1595
C8A C 0.877(3) -0.074(3) 0.0818(5)
H17A H 0.9188 -0.1121 0.0791
H18A H 0.8305 -0.1028 0.0875
C9A C 0.8663(6) -0.0479(7) 0.17381(17)
H19A H 0.9205 -0.0416 0.1674
C10A C 0.8636(6) -0.1123(7) 0.19609(19)
H20A H 0.8103 -0.1161 0.2035
C11A C 0.863(2) -0.0410(18) 0.0590(4)
H21A H 0.9062 -0.0068 0.0544
H22A H 0.8161 -0.0084 0.0610
C12A C 0.8491(18) -0.0997(14) 0.0350(3)
C13A C 0.3317(10) -0.3643(9) 0.2139(2)
H23A H 0.3332 -0.4218 0.2143
C14A C 0.8316(7) -0.2076(9) 0.1600(2)
H24A H 0.8487 -0.2569 0.1516
C15A C 0.8261(13) -0.0136(10) 0.1254(3)
H25A H 0.8147 0.0385 0.1323
H26A H 0.7856 -0.0255 0.1121
C16A C 0.8135(9) -0.0718(9) 0.1497(2)
H27A H 0.7583 -0.0706 0.1554
C17A C 0.2796(8) -0.4865(10) 0.1210(2)
H28A H 0.2752 -0.5432 0.1195
H29A H 0.2565 -0.4712 0.1383
C18A C 0.2749(8) -0.3379(8) 0.1933(2)
H30A H 0.2233 -0.3605 0.1976
C19A C 0.2338(8) -0.4491(10) 0.0984(2)
H31A H 0.2399 -0.3925 0.0996
H32A H 0.2561 -0.4658 0.0811
C20A C 0.7119(7) -0.2883(7) 0.16289(19)
H33A H 0.7468 -0.3247 0.1532
C21A C 0.2020(7) -0.1602(7) 0.21788(17)
H34A H 0.2465 -0.1266 0.2129
C22A C 0.7009(16) -0.2534(14) 0.0334(3)
C23A C 0.1916(7) -0.2215(7) 0.19630(19)
H35A H 0.1537 -0.2613 0.2023
C24A C 0.6828(7) -0.3271(8) 0.1900(2)
H36A H 0.6509 -0.2893 0.2003
C25A C 0.6753(13) -0.3310(12) 0.0763(3)
H37A H 0.7060 -0.3742 0.0689
H38A H 0.6334 -0.3540 0.0871
C26A C 0.1658(7) -0.1855(8) 0.16902(19)
H39A H 0.2074 -0.1532 0.1610
C27A C 0.6647(9) -0.2317(9) 0.1186(2)
H40A H 0.6829 -0.1786 0.1222
H41A H 0.6168 -0.2273 0.1079
C28A C 0.1479(9) -0.4683(13) 0.0984(3)
C29A C 0.6440(7) -0.2680(7) 0.1451(2)
H42A H 0.6093 -0.2321 0.1551
C30A C 0.6382(12) -0.2889(15) 0.0527(3)
H43A H 0.6047 -0.2472 0.0596
H44A H 0.6055 -0.3254 0.0426
C31A C 0.1375(11) -0.2669(13) 0.1464(4)
H45A H 0.1798 -0.3049 0.1450
H46A H 0.0911 -0.2933 0.1533
C32A C 0.6325(6) -0.3977(7) 0.1824(2)
H47A H 0.6669 -0.4376 0.1743
C33A C 0.1293(7) -0.1097(7) 0.22068(19)
H48A H 0.0871 -0.1429 0.2279
C34A C 0.1038(7) -0.0803(8) 0.1923(2)
H49A H 0.0533 -0.0532 0.1943
C35A C 0.5698(7) -0.3780(8) 0.1621(2)
H50A H 0.5443 -0.4267 0.1561
C36A C 0.0161(11) -0.2140(14) 0.1201(4)
H51A H 0.0002 -0.2328 0.1379
H52A H 0.0015 -0.1591 0.1185
O25 O 1.0000 0.5000 0.1689(3)
O26 O 1.0000 0.5000 0.0279(3)
O27 O 0.0587(12) 0.3257(12) 0.0219(2)
loop_
_geom_bond_atom_site_label_1
_geom_bond_atom_site_label_2
_geom_bond_site_symmetry_1
_geom_bond_site_symmetry_2
S1 C8 1_555 1_555
S2 C5 1_555 1_555
S3 C25 1_555 1_555
S4 C31 1_555 1_555
O1 C1 1_555 1_555
O2 C1 1_555 1_555
O3 H1 1_555 1_555
O4 C3 1_555 1_555
O5 H2 1_555 1_555
O6 C28 1_555 1_555
O7 C28 1_555 1_555
O8 H3 1_555 1_555
O9 C12 1_555 1_555
O10 C14 1_555 1_555
O11 H4 1_555 1_555
O12 C12 1_555 1_555
O13 C7 1_555 1_555
O14 C18 1_555 1_555
O15 C22 1_555 1_555
O16 C14 1_555 1_555
O17 H5 1_555 1_555
O18 H6 1_555 1_555
O19 C22 1_555 1_555
O20 C34 1_555 1_555
O21 H7 1_555 1_555
O22 C29 1_555 1_555
O23 H8 1_555 1_555
O24 C26 1_555 1_555
C1 C2 1_555 1_555
C2 H9 1_555 1_555
H10 C2 1_555 1_555
C3 H11 1_555 1_555
C4 O3 1_555 1_555
H12 C4 1_555 1_555
C5 H13 1_555 1_555
H14 C5 1_555 1_555
C6 O8 1_555 1_555
H15 C6 1_555 1_555
C7 C3 1_555 1_555
H16 C7 1_555 1_555
C8 H17 1_555 1_555
H18 C8 1_555 1_555
C9 H19 1_555 1_555
C10 O5 1_555 1_555
H20 C10 1_555 1_555
C11 C8 1_555 1_555
H21 C11 1_555 1_555
H22 C11 1_555 1_555
C12 C11 1_555 1_555
C13 O11 1_555 1_555
H23 C13 1_555 1_555
C14 C6 1_555 1_555
H24 C14 1_555 1_555
C15 S1 1_555 1_555
H25 C15 1_555 1_555
H26 C15 1_555 1_555
C16 O10 1_555 1_555
H27 C16 1_555 1_555
C17 S2 1_555 1_555
H28 C17 1_555 1_555
H29 C17 1_555 1_555
C18 O13 1_555 1_555
H30 C18 1_555 1_555
C19 C17 1_555 1_555
H31 C19 1_555 1_555
H32 C19 1_555 1_555
C20 O16 1_555 1_555
H33 C20 1_555 1_555
C21 O18 1_555 1_555
H34 C21 1_555 1_555
C22 C30 1_555 1_555
C23 O14 1_555 1_555
H35 C23 1_555 1_555
C24 O17 1_555 1_555
H36 C24 1_555 1_555
C25 H37 1_555 1_555
H38 C25 1_555 1_555
C26 C23 1_555 1_555
H39 C26 1_555 1_555
C27 S3 1_555 1_555
H40 C27 1_555 1_555
H41 C27 1_555 1_555
C28 C19 1_555 1_555
C29 C20 1_555 1_555
H42 C29 1_555 1_555
C30 C25 1_555 1_555
H43 C30 1_555 1_555
H44 C30 1_555 1_555
C31 C26 1_555 1_555
H45 C31 1_555 1_555
H46 C31 1_555 1_555
C32 O23 1_555 1_555
H47 C32 1_555 1_555
C33 O21 1_555 1_555
H48 C33 1_555 1_555
C34 O24 1_555 1_555
H49 C34 1_555 1_555
C35 O4 1_555 1_555
H50 C35 1_555 1_555
C36 S4 1_555 1_555
H51 C36 1_555 1_555
H52 C36 1_555 1_555
S1A C8A 1_555 1_555
S2A C5A 1_555 1_555
S3A C25A 1_555 1_555
S4A C31A 1_555 1_555
O1A C1A 1_555 1_555
O2A C1A 1_555 1_555
O3A H1A 1_555 1_555
O4A C3A 1_555 1_555
O5A H2A 1_555 1_555
O6A C28A 1_555 1_555
O7A C28A 1_555 1_555
O8A H3A 1_555 1_555
O9A C12A 1_555 1_555
O10A C14A 1_555 1_555
O11A H4A 1_555 1_555
O12A C12A 1_555 1_555
O13A C7A 1_555 1_555
O14A C18A 1_555 1_555
O15A C22A 1_555 1_555
O16A C14A 1_555 1_555
O17A H5A 1_555 1_555
O18A H6A 1_555 1_555
O19A C22A 1_555 1_555
O20A C9 1_555 1_555
O21A H7A 1_555 1_555
O22A C29A 1_555 1_555
O23A H8A 1_555 1_555
O24A C26A 1_555 1_555
C1A C2A 1_555 1_555
C2A H9A 1_555 1_555
H10A C2A 1_555 1_555
C3A H11A 1_555 1_555
C4A O3A 1_555 1_555
H12A C4A 1_555 1_555
C5A H13A 1_555 1_555
H14A C5A 1_555 1_555
C6A O8A 1_555 1_555
H15A C6A 1_555 1_555
C7A C3A 1_555 1_555
H16A C7A 1_555 1_555
C8A H17A 1_555 1_555
H18A C8A 1_555 1_555
C9A O20 1_555 1_555
H19A C9A 1_555 1_555
C10A O5A 1_555 1_555
H20A C10A 1_555 1_555
C11A C8A 1_555 1_555
H21A C11A 1_555 1_555
H22A C11A 1_555 1_555
C12A C11A 1_555 1_555
C13A O11A 1_555 1_555
H23A C13A 1_555 1_555
C14A C6A 1_555 1_555
H24A C14A 1_555 1_555
C15A S1A 1_555 1_555
H25A C15A 1_555 1_555
H26A C15A 1_555 1_555
C16A O10A 1_555 1_555
H27A C16A 1_555 1_555
C17A S2A 1_555 1_555
H28A C17A 1_555 1_555
H29A C17A 1_555 1_555
C18A O13A 1_555 1_555
H30A C18A 1_555 1_555
C19A C17A 1_555 1_555
H31A C19A 1_555 1_555
H32A C19A 1_555 1_555
C20A O16A 1_555 1_555
H33A C20A 1_555 1_555
C21A O18A 1_555 1_555
H34A C21A 1_555 1_555
C22A C30A 1_555 1_555
C23A O14A 1_555 1_555
H35A C23A 1_555 1_555
C24A O17A 1_555 1_555
H36A C24A 1_555 1_555
C25A H37A 1_555 1_555
H38A C25A 1_555 1_555
C26A C23A 1_555 1_555
H39A C26A 1_555 1_555
C27A S3A 1_555 1_555
H40A C27A 1_555 1_555
H41A C27A 1_555 1_555
C28A C19A 1_555 1_555
C29A C20A 1_555 1_555
H42A C29A 1_555 1_555
C30A C25A 1_555 1_555
H43A C30A 1_555 1_555
H44A C30A 1_555 1_555
C31A C26A 1_555 1_555
H45A C31A 1_555 1_555
H46A C31A 1_555 1_555
C32A O23A 1_555 1_555
H47A C32A 1_555 1_555
C33A O21A 1_555 1_555
H48A C33A 1_555 1_555
C34A O20A 1_555 1_555
H49A C34A 1_555 1_555
C35A O4A 1_555 1_555
H50A C35A 1_555 1_555
C36A S4A 1_555 1_555
H51A C36A 1_555 1_555
H52A C36A 1_555 1_555
O22 C35 1_555 1_555
C2 C36 1_555 1_555
C3 C4 1_555 1_555
C4 C13 1_555 1_555
C5 C7 1_555 1_555
C6 C10 1_555 1_555
C9 C10 1_555 1_555
C9 C16 1_555 1_555
C13 C18 1_555 1_555
C15 C16 1_555 1_555
C20 C24 1_555 1_555
C21 C23 1_555 1_555
C21 C33 1_555 1_555
C24 C32 1_555 1_555
C27 C29 1_555 1_555
C32 C35 1_555 1_555
C33 C34 1_555 1_555
O22A C35A 1_555 1_555
O24A C34A 1_555 1_555
C2A C36A 1_555 1_555
C3A C4A 1_555 1_555
C4A C13A 1_555 1_555
C5A C7A 1_555 1_555
C6A C10A 1_555 1_555
C9A C10A 1_555 1_555
C9A C16A 1_555 1_555
C13A C18A 1_555 1_555
C15A C16A 1_555 1_555
C20A C24A 1_555 1_555
C21A C23A 1_555 1_555
C21A C33A 1_555 1_555
C24A C32A 1_555 1_555
C27A C29A 1_555 1_555
C32A C35A 1_555 1_555
C33A C34A 1_555 1_555

#END
