# generated using pymatgen
data_Cu5H104C72(S5O26)2
_symmetry_space_group_name_H-M   'P 1'
_cell_length_a   17.01000000
_cell_length_b   17.01000000
_cell_length_c   49.05000000
_cell_angle_alpha   90.00000000
_cell_angle_beta   90.00000000
_cell_angle_gamma   90.00000000
_symmetry_Int_Tables_number   1
_chemical_formula_structural   Cu5H104C72(S5O26)2
_chemical_formula_sum   'Cu20 H416 C288 S40 O208'
_cell_volume   14192.13190500
_cell_formula_units_Z   4
loop_
 _symmetry_equiv_pos_site_id
 _symmetry_equiv_pos_as_xyz
  1  'x, y, z'
loop_
 _atom_site_type_symbol
 _atom_site_label
 _atom_site_symmetry_multiplicity
 _atom_site_fract_x
 _atom_site_fract_y
 _atom_site_fract_z
 _atom_site_occupancy
  Cu  Cu1  1  0.999800  0.507500  0.125560  1
  Cu  Cu2  1  0.000200  0.492500  0.125560  1
  Cu  Cu3  1  0.499800  0.992500  0.374440  1
  Cu  Cu4  1  0.500200  0.007500  0.374440  1
  Cu  Cu5  1  0.492500  0.000200  0.874440  1
  Cu  Cu6  1  0.507500  0.999800  0.874440  1
  Cu  Cu7  1  0.007500  0.500200  0.625560  1
  Cu  Cu8  1  0.992500  0.499800  0.625560  1
  Cu  Cu9  1  0.148520  0.250980  0.008530  1
  Cu  Cu10  1  0.851480  0.749020  0.008530  1
  Cu  Cu11  1  0.648520  0.249020  0.491470  1
  Cu  Cu12  1  0.351480  0.750980  0.491470  1
  Cu  Cu13  1  0.749020  0.851480  0.991470  1
  Cu  Cu14  1  0.250980  0.148520  0.991470  1
  Cu  Cu15  1  0.750980  0.351480  0.508530  1
  Cu  Cu16  1  0.249020  0.648520  0.508530  1
  Cu  Cu17  1  0.000000  0.500000  0.072200  1
  Cu  Cu18  1  0.500000  0.000000  0.427800  1
  Cu  Cu19  1  0.500000  0.000000  0.927800  1
  Cu  Cu20  1  0.000000  0.500000  0.572200  1
  H  H21  1  0.553800  0.387400  0.238200  1.0
  H  H22  1  0.446200  0.612600  0.238200  1.0
  H  H23  1  0.053800  0.112600  0.261800  1.0
  H  H24  1  0.946200  0.887400  0.261800  1.0
  H  H25  1  0.612600  0.446200  0.761800  1.0
  H  H26  1  0.387400  0.553800  0.761800  1.0
  H  H27  1  0.887400  0.946200  0.738200  1.0
  H  H28  1  0.112600  0.053800  0.738200  1.0
  H  H29  1  0.095200  0.051100  0.224100  1.0
  H  H30  1  0.904800  0.948900  0.224100  1.0
  H  H31  1  0.595200  0.448900  0.275900  1.0
  H  H32  1  0.404800  0.551100  0.275900  1.0
  H  H33  1  0.948900  0.904800  0.775900  1.0
  H  H34  1  0.051100  0.095200  0.775900  1.0
  H  H35  1  0.551100  0.404800  0.724100  1.0
  H  H36  1  0.448900  0.595200  0.724100  1.0
  H  H37  1  0.129300  0.233800  0.217900  1.0
  H  H38  1  0.870700  0.766200  0.217900  1.0
  H  H39  1  0.629300  0.266200  0.282100  1.0
  H  H40  1  0.370700  0.733800  0.282100  1.0
  H  H41  1  0.766200  0.870700  0.782100  1.0
  H  H42  1  0.233800  0.129300  0.782100  1.0
  H  H43  1  0.733800  0.370700  0.717900  1.0
  H  H44  1  0.266200  0.629300  0.717900  1.0
  H  H45  1  0.664600  0.349000  0.252200  1.0
  H  H46  1  0.335400  0.651000  0.252200  1.0
  H  H47  1  0.164600  0.151000  0.247800  1.0
  H  H48  1  0.835400  0.849000  0.247800  1.0
  H  H49  1  0.651000  0.335400  0.747800  1.0
  H  H50  1  0.349000  0.664600  0.747800  1.0
  H  H51  1  0.849000  0.835400  0.752200  1.0
  H  H52  1  0.151000  0.164600  0.752200  1.0
  H  H53  1  0.226400  0.310300  0.209500  1.0
  H  H54  1  0.773600  0.689700  0.209500  1.0
  H  H55  1  0.726400  0.189700  0.290500  1.0
  H  H56  1  0.273600  0.810300  0.290500  1.0
  H  H57  1  0.689700  0.773600  0.790500  1.0
  H  H58  1  0.310300  0.226400  0.790500  1.0
  H  H59  1  0.810300  0.273600  0.709500  1.0
  H  H60  1  0.189700  0.726400  0.709500  1.0
  H  H61  1  0.776200  0.162600  0.255400  1.0
  H  H62  1  0.223800  0.837400  0.255400  1.0
  H  H63  1  0.276200  0.337400  0.244600  1.0
  H  H64  1  0.723800  0.662600  0.244600  1.0
  H  H65  1  0.837400  0.223800  0.744600  1.0
  H  H66  1  0.162600  0.776200  0.744600  1.0
  H  H67  1  0.662600  0.723800  0.755400  1.0
  H  H68  1  0.337400  0.276200  0.755400  1.0
  H  H69  1  0.902500  0.021200  0.239100  1.0
  H  H70  1  0.097500  0.978800  0.239100  1.0
  H  H71  1  0.402500  0.478800  0.260900  1.0
  H  H72  1  0.597500  0.521200  0.260900  1.0
  H  H73  1  0.978800  0.097500  0.760900  1.0
  H  H74  1  0.021200  0.902500  0.760900  1.0
  H  H75  1  0.521200  0.597500  0.739100  1.0
  H  H76  1  0.478800  0.402500  0.739100  1.0
  H  H77  1  0.369100  0.441900  0.217600  1.0
  H  H78  1  0.630900  0.558100  0.217600  1.0
  H  H79  1  0.869100  0.058100  0.282400  1.0
  H  H80  1  0.130900  0.941900  0.282400  1.0
  H  H81  1  0.558100  0.630900  0.782400  1.0
  H  H82  1  0.441900  0.369100  0.782400  1.0
  H  H83  1  0.941900  0.130900  0.717600  1.0
  H  H84  1  0.058100  0.869100  0.717600  1.0
  H  H85  1  0.081000  0.251100  0.096500  1.0
  H  H86  1  0.919000  0.748900  0.096500  1.0
  H  H87  1  0.581000  0.248900  0.403500  1.0
  H  H88  1  0.419000  0.751100  0.403500  1.0
  H  H89  1  0.748900  0.919000  0.903500  1.0
  H  H90  1  0.251100  0.081000  0.903500  1.0
  H  H91  1  0.751100  0.419000  0.596500  1.0
  H  H92  1  0.248900  0.581000  0.596500  1.0
  H  H93  1  0.004200  0.247800  0.079200  1.0
  H  H94  1  0.995800  0.752200  0.079200  1.0
  H  H95  1  0.504200  0.252200  0.420800  1.0
  H  H96  1  0.495800  0.747800  0.420800  1.0
  H  H97  1  0.752200  0.995800  0.920800  1.0
  H  H98  1  0.247800  0.004200  0.920800  1.0
  H  H99  1  0.747800  0.495800  0.579200  1.0
  H  H100  1  0.252200  0.504200  0.579200  1.0
  H  H101  1  0.559500  0.418000  0.178800  1.0
  H  H102  1  0.440500  0.582000  0.178800  1.0
  H  H103  1  0.059500  0.082000  0.321200  1.0
  H  H104  1  0.940500  0.918000  0.321200  1.0
  H  H105  1  0.582000  0.440500  0.821200  1.0
  H  H106  1  0.418000  0.559500  0.821200  1.0
  H  H107  1  0.918000  0.940500  0.678800  1.0
  H  H108  1  0.082000  0.059500  0.678800  1.0
  H  H109  1  0.587700  0.275000  0.208200  1.0
  H  H110  1  0.412300  0.725000  0.208200  1.0
  H  H111  1  0.087700  0.225000  0.291800  1.0
  H  H112  1  0.912300  0.775000  0.291800  1.0
  H  H113  1  0.725000  0.412300  0.791800  1.0
  H  H114  1  0.275000  0.587700  0.791800  1.0
  H  H115  1  0.775000  0.912300  0.708200  1.0
  H  H116  1  0.225000  0.087700  0.708200  1.0
  H  H117  1  0.559900  0.338100  0.123700  1.0
  H  H118  1  0.440100  0.661900  0.123700  1.0
  H  H119  1  0.059900  0.161900  0.376300  1.0
  H  H120  1  0.940100  0.838100  0.376300  1.0
  H  H121  1  0.661900  0.440100  0.876300  1.0
  H  H122  1  0.338100  0.559900  0.876300  1.0
  H  H123  1  0.838100  0.940100  0.623700  1.0
  H  H124  1  0.161900  0.059900  0.623700  1.0
  H  H125  1  0.649900  0.330700  0.118000  1.0
  H  H126  1  0.350100  0.669300  0.118000  1.0
  H  H127  1  0.149900  0.169300  0.382000  1.0
  H  H128  1  0.850100  0.830700  0.382000  1.0
  H  H129  1  0.669300  0.350100  0.882000  1.0
  H  H130  1  0.330700  0.649900  0.882000  1.0
  H  H131  1  0.830700  0.850100  0.618000  1.0
  H  H132  1  0.169300  0.149900  0.618000  1.0
  H  H133  1  0.059600  0.184900  0.176600  1.0
  H  H134  1  0.940400  0.815100  0.176600  1.0
  H  H135  1  0.559600  0.315100  0.323400  1.0
  H  H136  1  0.440400  0.684900  0.323400  1.0
  H  H137  1  0.815100  0.940400  0.823400  1.0
  H  H138  1  0.184900  0.059600  0.823400  1.0
  H  H139  1  0.684900  0.440400  0.676600  1.0
  H  H140  1  0.315100  0.559600  0.676600  1.0
  H  H141  1  0.626600  0.273900  0.159500  1.0
  H  H142  1  0.373400  0.726100  0.159500  1.0
  H  H143  1  0.126600  0.226100  0.340500  1.0
  H  H144  1  0.873400  0.773900  0.340500  1.0
  H  H145  1  0.726100  0.373400  0.840500  1.0
  H  H146  1  0.273900  0.626600  0.840500  1.0
  H  H147  1  0.773900  0.873400  0.659500  1.0
  H  H148  1  0.226100  0.126600  0.659500  1.0
  H  H149  1  0.081200  0.112100  0.079100  1.0
  H  H150  1  0.918800  0.887900  0.079100  1.0
  H  H151  1  0.581200  0.387900  0.420900  1.0
  H  H152  1  0.418800  0.612100  0.420900  1.0
  H  H153  1  0.887900  0.918800  0.920900  1.0
  H  H154  1  0.112100  0.081200  0.920900  1.0
  H  H155  1  0.612100  0.418800  0.579100  1.0
  H  H156  1  0.387900  0.581200  0.579100  1.0
  H  H157  1  0.169500  0.102800  0.087500  1.0
  H  H158  1  0.830500  0.897200  0.087500  1.0
  H  H159  1  0.669500  0.397200  0.412500  1.0
  H  H160  1  0.330500  0.602800  0.412500  1.0
  H  H161  1  0.897200  0.830500  0.912500  1.0
  H  H162  1  0.102800  0.169500  0.912500  1.0
  H  H163  1  0.602800  0.330500  0.587500  1.0
  H  H164  1  0.397200  0.669500  0.587500  1.0
  H  H165  1  0.079500  0.041600  0.167400  1.0
  H  H166  1  0.920500  0.958400  0.167400  1.0
  H  H167  1  0.579500  0.458400  0.332600  1.0
  H  H168  1  0.420500  0.541600  0.332600  1.0
  H  H169  1  0.958400  0.920500  0.832600  1.0
  H  H170  1  0.041600  0.079500  0.832600  1.0
  H  H171  1  0.541600  0.420500  0.667400  1.0
  H  H172  1  0.458400  0.579500  0.667400  1.0
  H  H173  1  0.189700  0.116100  0.203500  1.0
  H  H174  1  0.810300  0.883900  0.203500  1.0
  H  H175  1  0.689700  0.383900  0.296500  1.0
  H  H176  1  0.310300  0.616100  0.296500  1.0
  H  H177  1  0.883900  0.810300  0.796500  1.0
  H  H178  1  0.116100  0.189700  0.796500  1.0
  H  H179  1  0.616100  0.310300  0.703500  1.0
  H  H180  1  0.383900  0.689700  0.703500  1.0
  H  H181  1  0.093800  0.006800  0.054400  1.0
  H  H182  1  0.906200  0.993200  0.054400  1.0
  H  H183  1  0.593800  0.493200  0.445600  1.0
  H  H184  1  0.406200  0.506800  0.445600  1.0
  H  H185  1  0.993200  0.906200  0.945600  1.0
  H  H186  1  0.006800  0.093800  0.945600  1.0
  H  H187  1  0.506800  0.406200  0.554400  1.0
  H  H188  1  0.493200  0.593800  0.554400  1.0
  H  H189  1  0.183900  0.008400  0.061000  1.0
  H  H190  1  0.816100  0.991600  0.061000  1.0
  H  H191  1  0.683900  0.491600  0.439000  1.0
  H  H192  1  0.316100  0.508400  0.439000  1.0
  H  H193  1  0.991600  0.816100  0.939000  1.0
  H  H194  1  0.008400  0.183900  0.939000  1.0
  H  H195  1  0.508400  0.316100  0.561000  1.0
  H  H196  1  0.491600  0.683900  0.561000  1.0
  H  H197  1  0.666800  0.421800  0.214300  1.0
  H  H198  1  0.333200  0.578200  0.214300  1.0
  H  H199  1  0.166800  0.078200  0.285700  1.0
  H  H200  1  0.833200  0.921800  0.285700  1.0
  H  H201  1  0.578200  0.333200  0.785700  1.0
  H  H202  1  0.421800  0.666800  0.785700  1.0
  H  H203  1  0.921800  0.833200  0.714300  1.0
  H  H204  1  0.078200  0.166800  0.714300  1.0
  H  H205  1  0.151300  0.256900  0.151600  1.0
  H  H206  1  0.848700  0.743100  0.151600  1.0
  H  H207  1  0.651300  0.243100  0.348400  1.0
  H  H208  1  0.348700  0.756900  0.348400  1.0
  H  H209  1  0.743100  0.848700  0.848400  1.0
  H  H210  1  0.256900  0.151300  0.848400  1.0
  H  H211  1  0.756900  0.348700  0.651600  1.0
  H  H212  1  0.243100  0.651300  0.651600  1.0
  H  H213  1  0.185300  0.961500  0.132300  1.0
  H  H214  1  0.814700  0.038500  0.132300  1.0
  H  H215  1  0.685300  0.538500  0.367700  1.0
  H  H216  1  0.314700  0.461500  0.367700  1.0
  H  H217  1  0.038500  0.814700  0.867700  1.0
  H  H218  1  0.961500  0.185300  0.867700  1.0
  H  H219  1  0.461500  0.314700  0.632300  1.0
  H  H220  1  0.538500  0.685300  0.632300  1.0
  H  H221  1  0.214400  0.025500  0.112100  1.0
  H  H222  1  0.785600  0.974500  0.112100  1.0
  H  H223  1  0.714400  0.474500  0.387900  1.0
  H  H224  1  0.285600  0.525500  0.387900  1.0
  H  H225  1  0.974500  0.785600  0.887900  1.0
  H  H226  1  0.025500  0.214400  0.887900  1.0
  H  H227  1  0.525500  0.285600  0.612100  1.0
  H  H228  1  0.474500  0.714400  0.612100  1.0
  H  H229  1  0.241700  0.070600  0.155400  1.0
  H  H230  1  0.758300  0.929400  0.155400  1.0
  H  H231  1  0.741700  0.429400  0.344600  1.0
  H  H232  1  0.258300  0.570600  0.344600  1.0
  H  H233  1  0.929400  0.758300  0.844600  1.0
  H  H234  1  0.070600  0.241700  0.844600  1.0
  H  H235  1  0.570600  0.258300  0.655400  1.0
  H  H236  1  0.429400  0.741700  0.655400  1.0
  H  H237  1  0.724800  0.543200  0.119500  1.0
  H  H238  1  0.275200  0.456800  0.119500  1.0
  H  H239  1  0.224800  0.956800  0.380500  1.0
  H  H240  1  0.775200  0.043200  0.380500  1.0
  H  H241  1  0.456800  0.275200  0.880500  1.0
  H  H242  1  0.543200  0.724800  0.880500  1.0
  H  H243  1  0.043200  0.775200  0.619500  1.0
  H  H244  1  0.956800  0.224800  0.619500  1.0
  H  H245  1  0.743500  0.471200  0.138300  1.0
  H  H246  1  0.256500  0.528800  0.138300  1.0
  H  H247  1  0.243500  0.028800  0.361700  1.0
  H  H248  1  0.756500  0.971200  0.361700  1.0
  H  H249  1  0.528800  0.256500  0.861700  1.0
  H  H250  1  0.471200  0.743500  0.861700  1.0
  H  H251  1  0.971200  0.756500  0.638300  1.0
  H  H252  1  0.028800  0.243500  0.638300  1.0
  H  H253  1  0.776700  0.360500  0.197600  1.0
  H  H254  1  0.223300  0.639500  0.197600  1.0
  H  H255  1  0.276700  0.139500  0.302400  1.0
  H  H256  1  0.723300  0.860500  0.302400  1.0
  H  H257  1  0.639500  0.223300  0.802400  1.0
  H  H258  1  0.360500  0.776700  0.802400  1.0
  H  H259  1  0.860500  0.723300  0.697600  1.0
  H  H260  1  0.139500  0.276700  0.697600  1.0
  H  H261  1  0.760100  0.392500  0.099600  1.0
  H  H262  1  0.239900  0.607500  0.099600  1.0
  H  H263  1  0.260100  0.107500  0.400400  1.0
  H  H264  1  0.739900  0.892500  0.400400  1.0
  H  H265  1  0.607500  0.239900  0.900400  1.0
  H  H266  1  0.392500  0.760100  0.900400  1.0
  H  H267  1  0.892500  0.739900  0.599600  1.0
  H  H268  1  0.107500  0.260100  0.599600  1.0
  H  H269  1  0.743900  0.465800  0.081100  1.0
  H  H270  1  0.256100  0.534200  0.081100  1.0
  H  H271  1  0.243900  0.034200  0.418900  1.0
  H  H272  1  0.756100  0.965800  0.418900  1.0
  H  H273  1  0.534200  0.256100  0.918900  1.0
  H  H274  1  0.465800  0.743900  0.918900  1.0
  H  H275  1  0.965800  0.756100  0.581100  1.0
  H  H276  1  0.034200  0.243900  0.581100  1.0
  H  H277  1  0.253200  0.324700  0.153200  1.0
  H  H278  1  0.746800  0.675300  0.153200  1.0
  H  H279  1  0.753200  0.175300  0.346800  1.0
  H  H280  1  0.246800  0.824700  0.346800  1.0
  H  H281  1  0.675300  0.746800  0.846800  1.0
  H  H282  1  0.324700  0.253200  0.846800  1.0
  H  H283  1  0.824700  0.246800  0.653200  1.0
  H  H284  1  0.175300  0.753200  0.653200  1.0
  H  H285  1  0.753500  0.126600  0.212900  1.0
  H  H286  1  0.246500  0.873400  0.212900  1.0
  H  H287  1  0.253500  0.373400  0.287100  1.0
  H  H288  1  0.746500  0.626600  0.287100  1.0
  H  H289  1  0.873400  0.246500  0.787100  1.0
  H  H290  1  0.126600  0.753500  0.787100  1.0
  H  H291  1  0.626600  0.746500  0.712900  1.0
  H  H292  1  0.373400  0.253500  0.712900  1.0
  H  H293  1  0.846300  0.261300  0.202300  1.0
  H  H294  1  0.153700  0.738700  0.202300  1.0
  H  H295  1  0.346300  0.238700  0.297700  1.0
  H  H296  1  0.653700  0.761300  0.297700  1.0
  H  H297  1  0.738700  0.153700  0.797700  1.0
  H  H298  1  0.261300  0.846300  0.797700  1.0
  H  H299  1  0.761300  0.653700  0.702300  1.0
  H  H300  1  0.238700  0.346300  0.702300  1.0
  H  H301  1  0.349100  0.289300  0.200300  1.0
  H  H302  1  0.650900  0.710700  0.200300  1.0
  H  H303  1  0.849100  0.210700  0.299700  1.0
  H  H304  1  0.150900  0.789300  0.299700  1.0
  H  H305  1  0.710700  0.650900  0.799700  1.0
  H  H306  1  0.289300  0.349100  0.799700  1.0
  H  H307  1  0.789300  0.150900  0.700300  1.0
  H  H308  1  0.210700  0.849100  0.700300  1.0
  H  H309  1  0.294000  0.374200  0.068900  1.0
  H  H310  1  0.706000  0.625800  0.068900  1.0
  H  H311  1  0.794000  0.125800  0.431100  1.0
  H  H312  1  0.206000  0.874200  0.431100  1.0
  H  H313  1  0.625800  0.706000  0.931100  1.0
  H  H314  1  0.374200  0.294000  0.931100  1.0
  H  H315  1  0.874200  0.206000  0.568900  1.0
  H  H316  1  0.125800  0.794000  0.568900  1.0
  H  H317  1  0.366600  0.354000  0.087100  1.0
  H  H318  1  0.633400  0.646000  0.087100  1.0
  H  H319  1  0.866600  0.146000  0.412900  1.0
  H  H320  1  0.133400  0.854000  0.412900  1.0
  H  H321  1  0.646000  0.633400  0.912900  1.0
  H  H322  1  0.354000  0.366600  0.912900  1.0
  H  H323  1  0.854000  0.133400  0.587100  1.0
  H  H324  1  0.146000  0.866600  0.587100  1.0
  H  H325  1  0.792600  0.153200  0.161000  1.0
  H  H326  1  0.207400  0.846800  0.161000  1.0
  H  H327  1  0.292600  0.346800  0.339000  1.0
  H  H328  1  0.707400  0.653200  0.339000  1.0
  H  H329  1  0.846800  0.207400  0.839000  1.0
  H  H330  1  0.153200  0.792600  0.839000  1.0
  H  H331  1  0.653200  0.707400  0.661000  1.0
  H  H332  1  0.346800  0.292600  0.661000  1.0
  H  H333  1  0.317100  0.178600  0.122200  1.0
  H  H334  1  0.682900  0.821400  0.122200  1.0
  H  H335  1  0.817100  0.321400  0.377800  1.0
  H  H336  1  0.182900  0.678600  0.377800  1.0
  H  H337  1  0.821400  0.682900  0.877800  1.0
  H  H338  1  0.178600  0.317100  0.877800  1.0
  H  H339  1  0.678600  0.182900  0.622200  1.0
  H  H340  1  0.321400  0.817100  0.622200  1.0
  H  H341  1  0.383200  0.227300  0.107900  1.0
  H  H342  1  0.616800  0.772700  0.107900  1.0
  H  H343  1  0.883200  0.272700  0.392100  1.0
  H  H344  1  0.116800  0.727300  0.392100  1.0
  H  H345  1  0.772700  0.616800  0.892100  1.0
  H  H346  1  0.227300  0.383200  0.892100  1.0
  H  H347  1  0.727300  0.116800  0.607900  1.0
  H  H348  1  0.272700  0.883200  0.607900  1.0
  H  H349  1  0.390700  0.232100  0.155100  1.0
  H  H350  1  0.609300  0.767900  0.155100  1.0
  H  H351  1  0.890700  0.267900  0.344900  1.0
  H  H352  1  0.109300  0.732100  0.344900  1.0
  H  H353  1  0.767900  0.609300  0.844900  1.0
  H  H354  1  0.232100  0.390700  0.844900  1.0
  H  H355  1  0.732100  0.109300  0.655100  1.0
  H  H356  1  0.267900  0.890700  0.655100  1.0
  H  H357  1  0.395300  0.247200  0.059600  1.0
  H  H358  1  0.604700  0.752800  0.059600  1.0
  H  H359  1  0.895300  0.252800  0.440400  1.0
  H  H360  1  0.104700  0.747200  0.440400  1.0
  H  H361  1  0.752800  0.604700  0.940400  1.0
  H  H362  1  0.247200  0.395300  0.940400  1.0
  H  H363  1  0.747200  0.104700  0.559600  1.0
  H  H364  1  0.252800  0.895300  0.559600  1.0
  H  H365  1  0.394500  0.325400  0.042600  1.0
  H  H366  1  0.605500  0.674600  0.042600  1.0
  H  H367  1  0.894500  0.174600  0.457400  1.0
  H  H368  1  0.105500  0.825400  0.457400  1.0
  H  H369  1  0.674600  0.605500  0.957400  1.0
  H  H370  1  0.325400  0.394500  0.957400  1.0
  H  H371  1  0.825400  0.105500  0.542600  1.0
  H  H372  1  0.174600  0.894500  0.542600  1.0
  H  H373  1  0.820200  0.304900  0.145000  1.0
  H  H374  1  0.179800  0.695100  0.145000  1.0
  H  H375  1  0.320200  0.195100  0.355000  1.0
  H  H376  1  0.679800  0.804900  0.355000  1.0
  H  H377  1  0.695100  0.179800  0.855000  1.0
  H  H378  1  0.304900  0.820200  0.855000  1.0
  H  H379  1  0.804900  0.679800  0.645000  1.0
  H  H380  1  0.195100  0.320200  0.645000  1.0
  H  H381  1  0.908900  0.293300  0.153300  1.0
  H  H382  1  0.091100  0.706700  0.153300  1.0
  H  H383  1  0.408900  0.206700  0.346700  1.0
  H  H384  1  0.591100  0.793300  0.346700  1.0
  H  H385  1  0.706700  0.091100  0.846700  1.0
  H  H386  1  0.293300  0.908900  0.846700  1.0
  H  H387  1  0.793300  0.591100  0.653300  1.0
  H  H388  1  0.206700  0.408900  0.653300  1.0
  H  H389  1  0.333100  0.437600  0.174300  1.0
  H  H390  1  0.666900  0.562400  0.174300  1.0
  H  H391  1  0.833100  0.062400  0.325700  1.0
  H  H392  1  0.166900  0.937600  0.325700  1.0
  H  H393  1  0.562400  0.666900  0.825700  1.0
  H  H394  1  0.437600  0.333100  0.825700  1.0
  H  H395  1  0.937600  0.166900  0.674300  1.0
  H  H396  1  0.062400  0.833100  0.674300  1.0
  H  H397  1  0.912900  0.142900  0.227900  1.0
  H  H398  1  0.087100  0.857100  0.227900  1.0
  H  H399  1  0.412900  0.357100  0.272100  1.0
  H  H400  1  0.587100  0.642900  0.272100  1.0
  H  H401  1  0.857100  0.087100  0.772100  1.0
  H  H402  1  0.142900  0.912900  0.772100  1.0
  H  H403  1  0.642900  0.587100  0.727900  1.0
  H  H404  1  0.357100  0.412900  0.727900  1.0
  H  H405  1  0.946700  0.053200  0.194300  1.0
  H  H406  1  0.053300  0.946800  0.194300  1.0
  H  H407  1  0.446700  0.446800  0.305700  1.0
  H  H408  1  0.553300  0.553200  0.305700  1.0
  H  H409  1  0.946800  0.053300  0.805700  1.0
  H  H410  1  0.053200  0.946700  0.805700  1.0
  H  H411  1  0.553200  0.553300  0.694300  1.0
  H  H412  1  0.446800  0.446700  0.694300  1.0
  H  H413  1  0.455700  0.426700  0.156100  1.0
  H  H414  1  0.544300  0.573300  0.156100  1.0
  H  H415  1  0.955700  0.073300  0.343900  1.0
  H  H416  1  0.044300  0.926700  0.343900  1.0
  H  H417  1  0.573300  0.544300  0.843900  1.0
  H  H418  1  0.426700  0.455700  0.843900  1.0
  H  H419  1  0.926700  0.044300  0.656100  1.0
  H  H420  1  0.073300  0.955700  0.656100  1.0
  H  H421  1  0.999800  0.232800  0.137900  1.0
  H  H422  1  0.000200  0.767200  0.137900  1.0
  H  H423  1  0.499800  0.267200  0.362100  1.0
  H  H424  1  0.500200  0.732800  0.362100  1.0
  H  H425  1  0.767200  0.000200  0.862100  1.0
  H  H426  1  0.232800  0.999800  0.862100  1.0
  H  H427  1  0.732800  0.500200  0.637900  1.0
  H  H428  1  0.267200  0.499800  0.637900  1.0
  H  H429  1  0.998500  0.159100  0.118500  1.0
  H  H430  1  0.001500  0.840900  0.118500  1.0
  H  H431  1  0.498500  0.340900  0.381500  1.0
  H  H432  1  0.501500  0.659100  0.381500  1.0
  H  H433  1  0.840900  0.001500  0.881500  1.0
  H  H434  1  0.159100  0.998500  0.881500  1.0
  H  H435  1  0.659100  0.501500  0.618500  1.0
  H  H436  1  0.340900  0.498500  0.618500  1.0
  C  C437  1  0.019600  0.351300  0.097800  1.0
  C  C438  1  0.980400  0.648700  0.097800  1.0
  C  C439  1  0.519600  0.148700  0.402200  1.0
  C  C440  1  0.480400  0.851300  0.402200  1.0
  C  C441  1  0.648700  0.980400  0.902200  1.0
  C  C442  1  0.351300  0.019600  0.902200  1.0
  C  C443  1  0.851300  0.480400  0.597800  1.0
  C  C444  1  0.148700  0.519600  0.597800  1.0
  C  C445  1  0.025600  0.264700  0.096600  1.0
  C  C446  1  0.974400  0.735300  0.096600  1.0
  C  C447  1  0.525600  0.235300  0.403400  1.0
  C  C448  1  0.474400  0.764700  0.403400  1.0
  C  C449  1  0.735300  0.974400  0.903400  1.0
  C  C450  1  0.264700  0.025600  0.903400  1.0
  C  C451  1  0.764700  0.474400  0.596600  1.0
  C  C452  1  0.235300  0.525600  0.596600  1.0
  C  C453  1  0.563100  0.360500  0.179290  1.0
  C  C454  1  0.436900  0.639500  0.179290  1.0
  C  C455  1  0.063100  0.139500  0.320710  1.0
  C  C456  1  0.936900  0.860500  0.320710  1.0
  C  C457  1  0.639500  0.436900  0.820710  1.0
  C  C458  1  0.360500  0.563100  0.820710  1.0
  C  C459  1  0.860500  0.936900  0.679290  1.0
  C  C460  1  0.139500  0.063100  0.679290  1.0
  C  C461  1  0.586400  0.332600  0.207880  1.0
  C  C462  1  0.413600  0.667400  0.207880  1.0
  C  C463  1  0.086400  0.167400  0.292120  1.0
  C  C464  1  0.913600  0.832600  0.292120  1.0
  C  C465  1  0.667400  0.413600  0.792120  1.0
  C  C466  1  0.332600  0.586400  0.792120  1.0
  C  C467  1  0.832600  0.913600  0.707880  1.0
  C  C468  1  0.167400  0.086400  0.707880  1.0
  C  C469  1  0.611200  0.357400  0.129200  1.0
  C  C470  1  0.388800  0.642600  0.129200  1.0
  C  C471  1  0.111200  0.142600  0.370800  1.0
  C  C472  1  0.888800  0.857400  0.370800  1.0
  C  C473  1  0.642600  0.388800  0.870800  1.0
  C  C474  1  0.357400  0.611200  0.870800  1.0
  C  C475  1  0.857400  0.888800  0.629200  1.0
  C  C476  1  0.142600  0.111200  0.629200  1.0
  C  C477  1  0.113300  0.189300  0.183600  1.0
  C  C478  1  0.886700  0.810700  0.183600  1.0
  C  C479  1  0.613300  0.310700  0.316400  1.0
  C  C480  1  0.386700  0.689300  0.316400  1.0
  C  C481  1  0.810700  0.886700  0.816400  1.0
  C  C482  1  0.189300  0.113300  0.816400  1.0
  C  C483  1  0.689300  0.386700  0.683600  1.0
  C  C484  1  0.310700  0.613300  0.683600  1.0
  C  C485  1  0.624400  0.331500  0.158800  1.0
  C  C486  1  0.375600  0.668500  0.158800  1.0
  C  C487  1  0.124400  0.168500  0.341200  1.0
  C  C488  1  0.875600  0.831500  0.341200  1.0
  C  C489  1  0.668500  0.375600  0.841200  1.0
  C  C490  1  0.331500  0.624400  0.841200  1.0
  C  C491  1  0.831500  0.875600  0.658800  1.0
  C  C492  1  0.168500  0.124400  0.658800  1.0
  C  C493  1  0.123000  0.074000  0.081800  1.0
  C  C494  1  0.877000  0.926000  0.081800  1.0
  C  C495  1  0.623000  0.426000  0.418200  1.0
  C  C496  1  0.377000  0.574000  0.418200  1.0
  C  C497  1  0.926000  0.877000  0.918200  1.0
  C  C498  1  0.074000  0.123000  0.918200  1.0
  C  C499  1  0.574000  0.377000  0.581800  1.0
  C  C500  1  0.426000  0.623000  0.581800  1.0
  C  C501  1  0.133700  0.047900  0.173810  1.0
  C  C502  1  0.866300  0.952100  0.173810  1.0
  C  C503  1  0.633700  0.452100  0.326190  1.0
  C  C504  1  0.366300  0.547900  0.326190  1.0
  C  C505  1  0.952100  0.866300  0.826190  1.0
  C  C506  1  0.047900  0.133700  0.826190  1.0
  C  C507  1  0.547900  0.366300  0.673810  1.0
  C  C508  1  0.452100  0.633700  0.673810  1.0
  C  C509  1  0.136400  0.112300  0.196090  1.0
  C  C510  1  0.863600  0.887700  0.196090  1.0
  C  C511  1  0.636400  0.387700  0.303910  1.0
  C  C512  1  0.363600  0.612300  0.303910  1.0
  C  C513  1  0.887700  0.863600  0.803910  1.0
  C  C514  1  0.112300  0.136400  0.803910  1.0
  C  C515  1  0.612300  0.363600  0.696090  1.0
  C  C516  1  0.387700  0.636400  0.696090  1.0
  C  C517  1  0.137000  0.041000  0.059000  1.0
  C  C518  1  0.863000  0.959000  0.059000  1.0
  C  C519  1  0.637000  0.459000  0.441000  1.0
  C  C520  1  0.363000  0.541000  0.441000  1.0
  C  C521  1  0.959000  0.863000  0.941000  1.0
  C  C522  1  0.041000  0.137000  0.941000  1.0
  C  C523  1  0.541000  0.363000  0.559000  1.0
  C  C524  1  0.459000  0.637000  0.559000  1.0
  C  C525  1  0.150900  0.099700  0.035000  1.0
  C  C526  1  0.849100  0.900300  0.035000  1.0
  C  C527  1  0.650900  0.400300  0.465000  1.0
  C  C528  1  0.349100  0.599700  0.465000  1.0
  C  C529  1  0.900300  0.849100  0.965000  1.0
  C  C530  1  0.099700  0.150900  0.965000  1.0
  C  C531  1  0.599700  0.349100  0.535000  1.0
  C  C532  1  0.400300  0.650900  0.535000  1.0
  C  C533  1  0.668300  0.364300  0.213900  1.0
  C  C534  1  0.331700  0.635700  0.213900  1.0
  C  C535  1  0.168300  0.135700  0.286100  1.0
  C  C536  1  0.831700  0.864300  0.286100  1.0
  C  C537  1  0.635700  0.331700  0.786100  1.0
  C  C538  1  0.364300  0.668300  0.786100  1.0
  C  C539  1  0.864300  0.831700  0.713900  1.0
  C  C540  1  0.135700  0.168300  0.713900  1.0
  C  C541  1  0.168400  0.207600  0.160000  1.0
  C  C542  1  0.831600  0.792400  0.160000  1.0
  C  C543  1  0.668400  0.292400  0.340000  1.0
  C  C544  1  0.331600  0.707600  0.340000  1.0
  C  C545  1  0.792400  0.831600  0.840000  1.0
  C  C546  1  0.207600  0.168400  0.840000  1.0
  C  C547  1  0.707600  0.331600  0.660000  1.0
  C  C548  1  0.292400  0.668400  0.660000  1.0
  C  C549  1  0.173900  0.013600  0.125400  1.0
  C  C550  1  0.826100  0.986400  0.125400  1.0
  C  C551  1  0.673900  0.486400  0.374600  1.0
  C  C552  1  0.326100  0.513600  0.374600  1.0
  C  C553  1  0.986400  0.826100  0.874600  1.0
  C  C554  1  0.013600  0.173900  0.874600  1.0
  C  C555  1  0.513600  0.326100  0.625400  1.0
  C  C556  1  0.486400  0.673900  0.625400  1.0
  C  C557  1  0.186500  0.071800  0.149700  1.0
  C  C558  1  0.813500  0.928200  0.149700  1.0
  C  C559  1  0.686500  0.428200  0.350300  1.0
  C  C560  1  0.313500  0.571800  0.350300  1.0
  C  C561  1  0.928200  0.813500  0.850300  1.0
  C  C562  1  0.071800  0.186500  0.850300  1.0
  C  C563  1  0.571800  0.313500  0.649700  1.0
  C  C564  1  0.428200  0.686500  0.649700  1.0
  C  C565  1  0.720400  0.486500  0.121000  1.0
  C  C566  1  0.279600  0.513500  0.121000  1.0
  C  C567  1  0.220400  0.013500  0.379000  1.0
  C  C568  1  0.779600  0.986500  0.379000  1.0
  C  C569  1  0.513500  0.279600  0.879000  1.0
  C  C570  1  0.486500  0.720400  0.879000  1.0
  C  C571  1  0.986500  0.779600  0.621000  1.0
  C  C572  1  0.013500  0.220400  0.621000  1.0
  C  C573  1  0.725100  0.337900  0.193300  1.0
  C  C574  1  0.274900  0.662100  0.193300  1.0
  C  C575  1  0.225100  0.162100  0.306700  1.0
  C  C576  1  0.774900  0.837900  0.306700  1.0
  C  C577  1  0.662100  0.274900  0.806700  1.0
  C  C578  1  0.337900  0.725100  0.806700  1.0
  C  C579  1  0.837900  0.774900  0.693300  1.0
  C  C580  1  0.162100  0.225100  0.693300  1.0
  C  C581  1  0.766200  0.449100  0.098400  1.0
  C  C582  1  0.233800  0.550900  0.098400  1.0
  C  C583  1  0.266200  0.050900  0.401600  1.0
  C  C584  1  0.733800  0.949100  0.401600  1.0
  C  C585  1  0.550900  0.233800  0.901600  1.0
  C  C586  1  0.449100  0.766200  0.901600  1.0
  C  C587  1  0.949100  0.733800  0.598400  1.0
  C  C588  1  0.050900  0.266200  0.598400  1.0
  C  C589  1  0.288100  0.288300  0.162890  1.0
  C  C590  1  0.711900  0.711700  0.162890  1.0
  C  C591  1  0.788100  0.211700  0.337110  1.0
  C  C592  1  0.211900  0.788300  0.337110  1.0
  C  C593  1  0.711700  0.711900  0.837110  1.0
  C  C594  1  0.288300  0.288100  0.837110  1.0
  C  C595  1  0.788300  0.211900  0.662890  1.0
  C  C596  1  0.211700  0.788100  0.662890  1.0
  C  C597  1  0.798000  0.160200  0.217880  1.0
  C  C598  1  0.202000  0.839800  0.217880  1.0
  C  C599  1  0.298000  0.339800  0.282120  1.0
  C  C600  1  0.702000  0.660200  0.282120  1.0
  C  C601  1  0.839800  0.202000  0.782120  1.0
  C  C602  1  0.160200  0.798000  0.782120  1.0
  C  C603  1  0.660200  0.702000  0.717880  1.0
  C  C604  1  0.339800  0.298000  0.717880  1.0
  C  C605  1  0.299100  0.253400  0.033400  1.0
  C  C606  1  0.700900  0.746600  0.033400  1.0
  C  C607  1  0.799100  0.246600  0.466600  1.0
  C  C608  1  0.200900  0.753400  0.466600  1.0
  C  C609  1  0.746600  0.700900  0.966600  1.0
  C  C610  1  0.253400  0.299100  0.966600  1.0
  C  C611  1  0.753400  0.200900  0.533400  1.0
  C  C612  1  0.246600  0.799100  0.533400  1.0
  C  C613  1  0.808400  0.221500  0.196300  1.0
  C  C614  1  0.191600  0.778500  0.196300  1.0
  C  C615  1  0.308400  0.278500  0.303700  1.0
  C  C616  1  0.691600  0.721500  0.303700  1.0
  C  C617  1  0.778500  0.191600  0.803700  1.0
  C  C618  1  0.221500  0.808400  0.803700  1.0
  C  C619  1  0.721500  0.691600  0.696300  1.0
  C  C620  1  0.278500  0.308400  0.696300  1.0
  C  C621  1  0.317200  0.327100  0.190000  1.0
  C  C622  1  0.682800  0.672900  0.190000  1.0
  C  C623  1  0.817200  0.172900  0.310000  1.0
  C  C624  1  0.182800  0.827100  0.310000  1.0
  C  C625  1  0.672900  0.682800  0.810000  1.0
  C  C626  1  0.327100  0.317200  0.810000  1.0
  C  C627  1  0.827100  0.182800  0.690000  1.0
  C  C628  1  0.172900  0.817200  0.690000  1.0
  C  C629  1  0.324700  0.331000  0.076300  1.0
  C  C630  1  0.675300  0.669000  0.076300  1.0
  C  C631  1  0.824700  0.169000  0.423700  1.0
  C  C632  1  0.175300  0.831000  0.423700  1.0
  C  C633  1  0.669000  0.675300  0.923700  1.0
  C  C634  1  0.331000  0.324700  0.923700  1.0
  C  C635  1  0.831000  0.175300  0.576300  1.0
  C  C636  1  0.169000  0.824700  0.576300  1.0
  C  C637  1  0.834200  0.185500  0.169020  1.0
  C  C638  1  0.165800  0.814500  0.169020  1.0
  C  C639  1  0.334200  0.314500  0.330980  1.0
  C  C640  1  0.665800  0.685500  0.330980  1.0
  C  C641  1  0.814500  0.165800  0.830980  1.0
  C  C642  1  0.185500  0.834200  0.830980  1.0
  C  C643  1  0.685500  0.665800  0.669020  1.0
  C  C644  1  0.314500  0.334200  0.669020  1.0
  C  C645  1  0.335300  0.231700  0.118600  1.0
  C  C646  1  0.664700  0.768300  0.118600  1.0
  C  C647  1  0.835300  0.268300  0.381400  1.0
  C  C648  1  0.164700  0.731700  0.381400  1.0
  C  C649  1  0.768300  0.664700  0.881400  1.0
  C  C650  1  0.231700  0.335300  0.881400  1.0
  C  C651  1  0.731700  0.164700  0.618600  1.0
  C  C652  1  0.268300  0.835300  0.618600  1.0
  C  C653  1  0.852100  0.468300  0.098400  1.0
  C  C654  1  0.147900  0.531700  0.098400  1.0
  C  C655  1  0.352100  0.031700  0.401600  1.0
  C  C656  1  0.647900  0.968300  0.401600  1.0
  C  C657  1  0.531700  0.147900  0.901600  1.0
  C  C658  1  0.468300  0.852100  0.901600  1.0
  C  C659  1  0.968300  0.647900  0.598400  1.0
  C  C660  1  0.031700  0.352100  0.598400  1.0
  C  C661  1  0.356000  0.268000  0.145100  1.0
  C  C662  1  0.644000  0.732000  0.145100  1.0
  C  C663  1  0.856000  0.232000  0.354900  1.0
  C  C664  1  0.144000  0.768000  0.354900  1.0
  C  C665  1  0.732000  0.644000  0.854900  1.0
  C  C666  1  0.268000  0.356000  0.854900  1.0
  C  C667  1  0.768000  0.144000  0.645100  1.0
  C  C668  1  0.232000  0.856000  0.645100  1.0
  C  C669  1  0.361800  0.288900  0.052700  1.0
  C  C670  1  0.638200  0.711100  0.052700  1.0
  C  C671  1  0.861800  0.211100  0.447300  1.0
  C  C672  1  0.138200  0.788900  0.447300  1.0
  C  C673  1  0.711100  0.638200  0.947300  1.0
  C  C674  1  0.288900  0.361800  0.947300  1.0
  C  C675  1  0.788900  0.138200  0.552700  1.0
  C  C676  1  0.211100  0.861800  0.552700  1.0
  C  C677  1  0.862500  0.266900  0.146400  1.0
  C  C678  1  0.137500  0.733100  0.146400  1.0
  C  C679  1  0.362500  0.233100  0.353600  1.0
  C  C680  1  0.637500  0.766900  0.353600  1.0
  C  C681  1  0.733100  0.137500  0.853600  1.0
  C  C682  1  0.266900  0.862500  0.853600  1.0
  C  C683  1  0.766900  0.637500  0.646400  1.0
  C  C684  1  0.233100  0.362500  0.646400  1.0
  C  C685  1  0.367500  0.397700  0.182400  1.0
  C  C686  1  0.632500  0.602300  0.182400  1.0
  C  C687  1  0.867500  0.102300  0.317600  1.0
  C  C688  1  0.132500  0.897700  0.317600  1.0
  C  C689  1  0.602300  0.632500  0.817600  1.0
  C  C690  1  0.397700  0.367500  0.817600  1.0
  C  C691  1  0.897700  0.132500  0.682400  1.0
  C  C692  1  0.102300  0.867500  0.682400  1.0
  C  C693  1  0.870700  0.109700  0.220680  1.0
  C  C694  1  0.129300  0.890300  0.220680  1.0
  C  C695  1  0.370700  0.390300  0.279320  1.0
  C  C696  1  0.629300  0.609700  0.279320  1.0
  C  C697  1  0.890300  0.129300  0.779320  1.0
  C  C698  1  0.109700  0.870700  0.779320  1.0
  C  C699  1  0.609700  0.629300  0.720680  1.0
  C  C700  1  0.390300  0.370700  0.720680  1.0
  C  C701  1  0.896200  0.080300  0.192300  1.0
  C  C702  1  0.103800  0.919700  0.192300  1.0
  C  C703  1  0.396200  0.419700  0.307700  1.0
  C  C704  1  0.603800  0.580300  0.307700  1.0
  C  C705  1  0.919700  0.103800  0.807700  1.0
  C  C706  1  0.080300  0.896200  0.807700  1.0
  C  C707  1  0.580300  0.603800  0.692300  1.0
  C  C708  1  0.419700  0.396200  0.692300  1.0
  C  C709  1  0.430200  0.378000  0.162100  1.0
  C  C710  1  0.569800  0.622000  0.162100  1.0
  C  C711  1  0.930200  0.122000  0.337900  1.0
  C  C712  1  0.069800  0.878000  0.337900  1.0
  C  C713  1  0.622000  0.569800  0.837900  1.0
  C  C714  1  0.378000  0.430200  0.837900  1.0
  C  C715  1  0.878000  0.069800  0.662100  1.0
  C  C716  1  0.122000  0.930200  0.662100  1.0
  C  C717  1  0.983900  0.214000  0.120100  1.0
  C  C718  1  0.016100  0.786000  0.120100  1.0
  C  C719  1  0.483900  0.286000  0.379900  1.0
  C  C720  1  0.516100  0.714000  0.379900  1.0
  C  C721  1  0.786000  0.016100  0.879900  1.0
  C  C722  1  0.214000  0.983900  0.879900  1.0
  C  C723  1  0.714000  0.516100  0.620100  1.0
  C  C724  1  0.286000  0.483900  0.620100  1.0
  S  S725  1  0.219900  0.040400  0.095600  1
  S  S726  1  0.780100  0.959600  0.095600  1
  S  S727  1  0.719900  0.459600  0.404400  1
  S  S728  1  0.280100  0.540400  0.404400  1
  S  S729  1  0.959600  0.780100  0.904400  1
  S  S730  1  0.040400  0.219900  0.904400  1
  S  S731  1  0.540400  0.280100  0.595600  1
  S  S732  1  0.459600  0.719900  0.595600  1
  S  S733  1  0.094600  0.006900  0.109090  1.0
  S  S734  1  0.905400  0.993100  0.109090  1.0
  S  S735  1  0.594600  0.493100  0.390910  1.0
  S  S736  1  0.405400  0.506900  0.390910  1.0
  S  S737  1  0.993100  0.905400  0.890910  1.0
  S  S738  1  0.006900  0.094600  0.890910  1.0
  S  S739  1  0.506900  0.405400  0.609090  1.0
  S  S740  1  0.493100  0.594600  0.609090  1.0
  S  S741  1  0.615300  0.459100  0.121050  1.0
  S  S742  1  0.384700  0.540900  0.121050  1.0
  S  S743  1  0.115300  0.040900  0.378950  1.0
  S  S744  1  0.884700  0.959100  0.378950  1.0
  S  S745  1  0.540900  0.384700  0.878950  1.0
  S  S746  1  0.459100  0.615300  0.878950  1.0
  S  S747  1  0.959100  0.884700  0.621050  1.0
  S  S748  1  0.040900  0.115300  0.621050  1.0
  S  S749  1  0.264500  0.278300  0.098210  1.0
  S  S750  1  0.735500  0.721700  0.098210  1.0
  S  S751  1  0.764500  0.221700  0.401790  1.0
  S  S752  1  0.235500  0.778300  0.401790  1.0
  S  S753  1  0.721700  0.735500  0.901790  1.0
  S  S754  1  0.278300  0.264500  0.901790  1.0
  S  S755  1  0.778300  0.235500  0.598210  1.0
  S  S756  1  0.221700  0.764500  0.598210  1.0
  S  S757  1  0.881000  0.225300  0.115760  1.0
  S  S758  1  0.119000  0.774700  0.115760  1.0
  S  S759  1  0.381000  0.274700  0.384240  1.0
  S  S760  1  0.619000  0.725300  0.384240  1.0
  S  S761  1  0.774700  0.119000  0.884240  1.0
  S  S762  1  0.225300  0.881000  0.884240  1.0
  S  S763  1  0.725300  0.619000  0.615760  1.0
  S  S764  1  0.274700  0.381000  0.615760  1.0
  O  O765  1  0.000000  0.500000  0.168900  1
  O  O766  1  0.500000  0.000000  0.331100  1
  O  O767  1  0.500000  0.000000  0.831100  1
  O  O768  1  0.000000  0.500000  0.668900  1
  O  O769  1  0.000000  0.500000  0.027900  1
  O  O770  1  0.500000  0.000000  0.472100  1
  O  O771  1  0.500000  0.000000  0.972100  1
  O  O772  1  0.000000  0.500000  0.527900  1
  O  O773  1  0.058700  0.325700  0.021900  1
  O  O774  1  0.941300  0.674300  0.021900  1
  O  O775  1  0.558700  0.174300  0.478100  1
  O  O776  1  0.441300  0.825700  0.478100  1
  O  O777  1  0.674300  0.941300  0.978100  1
  O  O778  1  0.325700  0.058700  0.978100  1
  O  O779  1  0.825700  0.441300  0.521900  1
  O  O780  1  0.174300  0.558700  0.521900  1
  O  O781  1  0.012900  0.385900  0.120460  1.0
  O  O782  1  0.987100  0.614100  0.120460  1.0
  O  O783  1  0.512900  0.114100  0.379540  1.0
  O  O784  1  0.487100  0.885900  0.379540  1.0
  O  O785  1  0.614100  0.987100  0.879540  1.0
  O  O786  1  0.385900  0.012900  0.879540  1.0
  O  O787  1  0.885900  0.487100  0.620460  1.0
  O  O788  1  0.114100  0.512900  0.620460  1.0
  O  O789  1  0.023000  0.387600  0.075840  1.0
  O  O790  1  0.977000  0.612400  0.075840  1.0
  O  O791  1  0.523000  0.112400  0.424160  1.0
  O  O792  1  0.477000  0.887600  0.424160  1.0
  O  O793  1  0.612400  0.977000  0.924160  1.0
  O  O794  1  0.387600  0.023000  0.924160  1.0
  O  O795  1  0.887600  0.477000  0.575840  1.0
  O  O796  1  0.112400  0.523000  0.575840  1.0
  O  O797  1  0.531700  0.359400  0.226960  1.0
  O  O798  1  0.468300  0.640600  0.226960  1.0
  O  O799  1  0.031700  0.140600  0.273040  1.0
  O  O800  1  0.968300  0.859400  0.273040  1.0
  O  O801  1  0.640600  0.468300  0.773040  1.0
  O  O802  1  0.359400  0.531700  0.773040  1.0
  O  O803  1  0.859400  0.968300  0.726960  1.0
  O  O804  1  0.140600  0.031700  0.726960  1.0
  O  O805  1  0.489100  0.326400  0.173540  1.0
  O  O806  1  0.510900  0.673600  0.173540  1.0
  O  O807  1  0.989100  0.173600  0.326460  1.0
  O  O808  1  0.010900  0.826400  0.326460  1.0
  O  O809  1  0.673600  0.510900  0.826460  1.0
  O  O810  1  0.326400  0.489100  0.826460  1.0
  O  O811  1  0.826400  0.010900  0.673540  1.0
  O  O812  1  0.173600  0.989100  0.673540  1.0
  O  O813  1  0.082800  0.093300  0.217270  1.0
  O  O814  1  0.917200  0.906700  0.217270  1.0
  O  O815  1  0.582800  0.406700  0.282730  1.0
  O  O816  1  0.417200  0.593300  0.282730  1.0
  O  O817  1  0.906700  0.917200  0.782730  1.0
  O  O818  1  0.093300  0.082800  0.782730  1.0
  O  O819  1  0.593300  0.417200  0.717270  1.0
  O  O820  1  0.406700  0.582800  0.717270  1.0
  O  O821  1  0.887600  0.476000  0.075390  1.0
  O  O822  1  0.112400  0.524000  0.075390  1.0
  O  O823  1  0.387600  0.024000  0.424610  1.0
  O  O824  1  0.612400  0.976000  0.424610  1.0
  O  O825  1  0.524000  0.112400  0.924610  1.0
  O  O826  1  0.476000  0.887600  0.924610  1.0
  O  O827  1  0.976000  0.612400  0.575390  1.0
  O  O828  1  0.024000  0.387600  0.575390  1.0
  O  O829  1  0.886600  0.487600  0.122100  1.0
  O  O830  1  0.113400  0.512400  0.122100  1.0
  O  O831  1  0.386600  0.012400  0.377900  1.0
  O  O832  1  0.613400  0.987600  0.377900  1.0
  O  O833  1  0.512400  0.113400  0.877900  1.0
  O  O834  1  0.487600  0.886600  0.877900  1.0
  O  O835  1  0.987600  0.613400  0.622100  1.0
  O  O836  1  0.012400  0.386600  0.622100  1.0
  O  O837  1  0.115700  0.251300  0.203040  1.0
  O  O838  1  0.884300  0.748700  0.203040  1.0
  O  O839  1  0.615700  0.248700  0.296960  1.0
  O  O840  1  0.384300  0.751300  0.296960  1.0
  O  O841  1  0.748700  0.884300  0.796960  1.0
  O  O842  1  0.251300  0.115700  0.796960  1.0
  O  O843  1  0.751300  0.384300  0.703040  1.0
  O  O844  1  0.248700  0.615700  0.703040  1.0
  O  O845  1  0.124400  0.169800  0.034700  1.0
  O  O846  1  0.875600  0.830200  0.034700  1.0
  O  O847  1  0.624400  0.330200  0.465300  1.0
  O  O848  1  0.375600  0.669800  0.465300  1.0
  O  O849  1  0.830200  0.875600  0.965300  1.0
  O  O850  1  0.169800  0.124400  0.965300  1.0
  O  O851  1  0.669800  0.375600  0.534700  1.0
  O  O852  1  0.330200  0.624400  0.534700  1.0
  O  O853  1  0.167200  0.148000  0.140010  1.0
  O  O854  1  0.832800  0.852000  0.140010  1.0
  O  O855  1  0.667200  0.352000  0.359990  1.0
  O  O856  1  0.332800  0.648000  0.359990  1.0
  O  O857  1  0.852000  0.832800  0.859990  1.0
  O  O858  1  0.148000  0.167200  0.859990  1.0
  O  O859  1  0.648000  0.332800  0.640010  1.0
  O  O860  1  0.352000  0.667200  0.640010  1.0
  O  O861  1  0.695200  0.334800  0.240280  1.0
  O  O862  1  0.304800  0.665200  0.240280  1.0
  O  O863  1  0.195200  0.165200  0.259720  1.0
  O  O864  1  0.804800  0.834800  0.259720  1.0
  O  O865  1  0.665200  0.304800  0.759720  1.0
  O  O866  1  0.334800  0.695200  0.759720  1.0
  O  O867  1  0.834800  0.804800  0.740280  1.0
  O  O868  1  0.165200  0.195200  0.740280  1.0
  O  O869  1  0.201800  0.079700  0.018200  1.0
  O  O870  1  0.798200  0.920300  0.018200  1.0
  O  O871  1  0.701800  0.420300  0.481800  1.0
  O  O872  1  0.298200  0.579700  0.481800  1.0
  O  O873  1  0.920300  0.798200  0.981800  1.0
  O  O874  1  0.079700  0.201800  0.981800  1.0
  O  O875  1  0.579700  0.298200  0.518200  1.0
  O  O876  1  0.420300  0.701800  0.518200  1.0
  O  O877  1  0.702000  0.363500  0.166590  1.0
  O  O878  1  0.298000  0.636500  0.166590  1.0
  O  O879  1  0.202000  0.136500  0.333410  1.0
  O  O880  1  0.798000  0.863500  0.333410  1.0
  O  O881  1  0.636500  0.298000  0.833410  1.0
  O  O882  1  0.363500  0.702000  0.833410  1.0
  O  O883  1  0.863500  0.798000  0.666590  1.0
  O  O884  1  0.136500  0.202000  0.666590  1.0
  O  O885  1  0.731800  0.256200  0.193050  1.0
  O  O886  1  0.268200  0.743800  0.193050  1.0
  O  O887  1  0.231800  0.243800  0.306950  1.0
  O  O888  1  0.768200  0.756200  0.306950  1.0
  O  O889  1  0.743800  0.268200  0.806950  1.0
  O  O890  1  0.256200  0.731800  0.806950  1.0
  O  O891  1  0.756200  0.768200  0.693050  1.0
  O  O892  1  0.243800  0.231800  0.693050  1.0
  O  O893  1  0.232100  0.288200  0.032000  1.0
  O  O894  1  0.767900  0.711800  0.032000  1.0
  O  O895  1  0.732100  0.211800  0.468000  1.0
  O  O896  1  0.267900  0.788200  0.468000  1.0
  O  O897  1  0.711800  0.767900  0.968000  1.0
  O  O898  1  0.288200  0.232100  0.968000  1.0
  O  O899  1  0.788200  0.267900  0.532000  1.0
  O  O900  1  0.211800  0.732100  0.532000  1.0
  O  O901  1  0.245500  0.218100  0.169990  1.0
  O  O902  1  0.754500  0.781900  0.169990  1.0
  O  O903  1  0.745500  0.281900  0.330010  1.0
  O  O904  1  0.254500  0.718100  0.330010  1.0
  O  O905  1  0.781900  0.754500  0.830010  1.0
  O  O906  1  0.218100  0.245500  0.830010  1.0
  O  O907  1  0.718100  0.254500  0.669990  1.0
  O  O908  1  0.281900  0.745500  0.669990  1.0
  O  O909  1  0.252400  0.349400  0.205710  1.0
  O  O910  1  0.747600  0.650600  0.205710  1.0
  O  O911  1  0.752400  0.150600  0.294290  1.0
  O  O912  1  0.247600  0.849400  0.294290  1.0
  O  O913  1  0.650600  0.747600  0.794290  1.0
  O  O914  1  0.349400  0.252400  0.794290  1.0
  O  O915  1  0.849400  0.247600  0.705710  1.0
  O  O916  1  0.150600  0.752400  0.705710  1.0
  O  O917  1  0.781800  0.196600  0.243770  1.0
  O  O918  1  0.218200  0.803400  0.243770  1.0
  O  O919  1  0.281800  0.303400  0.256230  1.0
  O  O920  1  0.718200  0.696600  0.256230  1.0
  O  O921  1  0.803400  0.218200  0.756230  1.0
  O  O922  1  0.196600  0.781800  0.756230  1.0
  O  O923  1  0.696600  0.718200  0.743770  1.0
  O  O924  1  0.303400  0.281800  0.743770  1.0
  O  O925  1  0.316800  0.194300  0.020510  1.0
  O  O926  1  0.683200  0.805700  0.020510  1.0
  O  O927  1  0.816800  0.305700  0.479490  1.0
  O  O928  1  0.183200  0.694300  0.479490  1.0
  O  O929  1  0.805700  0.683200  0.979490  1.0
  O  O930  1  0.194300  0.316800  0.979490  1.0
  O  O931  1  0.694300  0.183200  0.520510  1.0
  O  O932  1  0.305700  0.816800  0.520510  1.0
  O  O933  1  0.838800  0.024400  0.184190  1.0
  O  O934  1  0.161200  0.975600  0.184190  1.0
  O  O935  1  0.338800  0.475600  0.315810  1.0
  O  O936  1  0.661200  0.524400  0.315810  1.0
  O  O937  1  0.975600  0.161200  0.815810  1.0
  O  O938  1  0.024400  0.838800  0.815810  1.0
  O  O939  1  0.524400  0.661200  0.684190  1.0
  O  O940  1  0.475600  0.338800  0.684190  1.0
  O  O941  1  0.861400  0.046300  0.238400  1.0
  O  O942  1  0.138600  0.953700  0.238400  1.0
  O  O943  1  0.361400  0.453700  0.261600  1.0
  O  O944  1  0.638600  0.546300  0.261600  1.0
  O  O945  1  0.953700  0.138600  0.761600  1.0
  O  O946  1  0.046300  0.861400  0.761600  1.0
  O  O947  1  0.546300  0.638600  0.738400  1.0
  O  O948  1  0.453700  0.361400  0.738400  1.0
  O  O949  1  0.398800  0.339700  0.139340  1.0
  O  O950  1  0.601200  0.660300  0.139340  1.0
  O  O951  1  0.898800  0.160300  0.360660  1.0
  O  O952  1  0.101200  0.839700  0.360660  1.0
  O  O953  1  0.660300  0.601200  0.860660  1.0
  O  O954  1  0.339700  0.398800  0.860660  1.0
  O  O955  1  0.839700  0.101200  0.639340  1.0
  O  O956  1  0.160300  0.898800  0.639340  1.0
  O  O957  1  0.403300  0.431100  0.206460  1.0
  O  O958  1  0.596700  0.568900  0.206460  1.0
  O  O959  1  0.903300  0.068900  0.293540  1.0
  O  O960  1  0.096700  0.931100  0.293540  1.0
  O  O961  1  0.568900  0.596700  0.793540  1.0
  O  O962  1  0.431100  0.403300  0.793540  1.0
  O  O963  1  0.931100  0.096700  0.706460  1.0
  O  O964  1  0.068900  0.903300  0.706460  1.0
  O  O965  1  0.905400  0.140500  0.173440  1.0
  O  O966  1  0.094600  0.859500  0.173440  1.0
  O  O967  1  0.405400  0.359500  0.326560  1.0
  O  O968  1  0.594600  0.640500  0.326560  1.0
  O  O969  1  0.859500  0.094600  0.826560  1.0
  O  O970  1  0.140500  0.905400  0.826560  1.0
  O  O971  1  0.640500  0.594600  0.673440  1.0
  O  O972  1  0.359500  0.405400  0.673440  1.0
