
#######################################################################
#
#                 Cambridge Crystallographic Data Centre
#                                CCDC 
#
#######################################################################
#
# If this CIF has been generated from an entry in the Cambridge 
# Structural Database, then it will include bibliographic, chemical, 
# crystal, experimental, refinement or atomic coordinate data resulting 
# from the CCDC's data processing and validation procedures.
#
#######################################################################

data_AXENAT
_chemical_formula_moiety         
'C108 H144 N36 Pd6 12+,12(N1 O3 1-),C14 H16,C10 H13 N1 O2,52.17(H2 O1)'
_chemical_name_systematic        
'tetrakis(\m~3~-2,4,6-tris(pyridin-4-yl)-1,3,5-triazine)-hexakis(1,2-bis(dimethylamine)ethane)-hexa-palladium 1-cyclohexyl-1H-pyrrole-2,5-dione 2,3-diethylnaphthalene clathrate dodecanitrate hydrate'
_symmetry_cell_setting           tetragonal
_symmetry_space_group_name_H-M   'I 41/a'
_symmetry_Int_Tables_number      88
_space_group_name_Hall           '-I 4ad'
loop_
_symmetry_equiv_pos_site_id
_symmetry_equiv_pos_as_xyz
1 x,y,z
2 1/2-x,-y,1/2+z
3 3/4-y,1/4+x,1/4+z
4 3/4+y,3/4-x,3/4+z
5 1/2+x,1/2+y,1/2+z
6 -x,1/2-y,z
7 1/4-y,3/4+x,3/4+z
8 1/4+y,1/4-x,1/4+z
9 -x,-y,-z
10 1/2+x,y,1/2-z
11 1/4+y,3/4-x,3/4-z
12 1/4-y,1/4+x,1/4-z
13 1/2-x,1/2-y,1/2-z
14 x,1/2+y,-z
15 3/4+y,1/4-x,1/4-z
16 3/4-y,3/4+x,3/4-z
_cell_length_a                   26.108(18)
_cell_length_b                   26.108(18)
_cell_length_c                   31.52(2)
_cell_angle_alpha                90
_cell_angle_beta                 90
_cell_angle_gamma                90
_cell_volume                     21484.9
_exptl_crystal_colour            yellow
_exptl_crystal_description       block
_cell_formula_units_Z            4
loop_
_atom_site_label
_atom_site_type_symbol
_atom_site_fract_x
_atom_site_fract_y
_atom_site_fract_z
H37 H 0.6495 0.3508 0.3711
H51 H 0.5037 0.3474 0.4731
C42 C 0.5724(11) 0.3267(14) 0.4537(11)
H53 H 0.5572 0.3426 0.4777
C43 C 0.6036(13) 0.3490(17) 0.4247(14)
H54 H 0.6156 0.3833 0.4248
C44 C 0.5668(11) 0.2732(11) 0.4403(9)
C45 C 0.6150(16) 0.309(2) 0.3928(14)
O1 O 0.5400(11) 0.2420(13) 0.4554(10)
O2 O 0.643(2) 0.314(2) 0.3630(16)
N10 N 0.5971(13) 0.2629(15) 0.4057(10)
C46 C 0.5996(16) 0.2172(18) 0.3809(11)
H55 H 0.6085 0.1878 0.3998
C47 C 0.643(3) 0.2240(16) 0.3465(14)
H56 H 0.6749 0.2085 0.3570
H57 H 0.6486 0.2605 0.3411
C48 C 0.553(3) 0.377(2) 0.4450(13)
H58 H 0.5518 0.4059 0.4651
H59 H 0.5891 0.3688 0.4391
C49 C 0.527(4) 0.329(3) 0.4658(14)
H60 H 0.5511 0.3127 0.4856
H61 H 0.4964 0.3405 0.4823
C50 C 0.510(3) 0.291(2) 0.431(2)
H62 H 0.4737 0.2961 0.4240
H63 H 0.5143 0.2553 0.4419
C51 C 0.544(3) 0.2980(18) 0.3908(16)
H64 H 0.5803 0.2965 0.3987
H65 H 0.5366 0.2700 0.3705
H37E H 0.3505 0.1492 0.3711
H37J H 0.6008 0.1005 0.3789
H37O H 0.3992 0.3995 0.3789
H51E H 0.4963 0.1526 0.4731
H51J H 0.5974 0.2463 0.2769
H51O H 0.4026 0.2537 0.2769
C42E C 0.4276(11) 0.1733(14) 0.4537(11)
C42J C 0.5767(14) 0.1776(11) 0.2963(11)
C42O C 0.4233(14) 0.3224(11) 0.2963(11)
H53E H 0.4428 0.1574 0.4777
H53J H 0.5926 0.1928 0.2723
H53O H 0.4074 0.3072 0.2723
C43E C 0.3964(13) 0.1510(17) 0.4247(14)
C43J C 0.5990(17) 0.1464(13) 0.3253(14)
C43O C 0.4010(17) 0.3536(13) 0.3253(14)
H54E H 0.3844 0.1167 0.4248
H54J H 0.6333 0.1344 0.3252
H54O H 0.3667 0.3656 0.3252
C44E C 0.4332(11) 0.2268(11) 0.4403(9)
C44J C 0.5232(11) 0.1832(11) 0.3097(9)
C44O C 0.4768(11) 0.3168(11) 0.3097(9)
C45E C 0.3850(16) 0.191(2) 0.3928(14)
C45J C 0.559(2) 0.1350(16) 0.3572(14)
C45O C 0.441(2) 0.3650(16) 0.3572(14)
O1E O 0.4600(11) 0.2580(13) 0.4554(10)
O1J O 0.4920(13) 0.2100(11) 0.2946(10)
O1O O 0.5080(13) 0.2900(11) 0.2946(10)
O2E O 0.357(2) 0.186(2) 0.3630(16)
O2J O 0.564(2) 0.107(2) 0.3870(16)
O2O O 0.436(2) 0.393(2) 0.3870(16)
N10E N 0.4029(13) 0.2371(15) 0.4057(10)
N10J N 0.5129(15) 0.1529(13) 0.3443(10)
N10O N 0.4871(15) 0.3471(13) 0.3443(10)
C46J C 0.4672(18) 0.1504(16) 0.3691(11)
C46E C 0.4004(16) 0.2828(18) 0.3809(11)
C46O C 0.5328(18) 0.3496(16) 0.3691(11)
H55J H 0.4378 0.1415 0.3502
H55E H 0.3915 0.3122 0.3998
H55O H 0.5622 0.3585 0.3502
C47J C 0.4740(16) 0.107(3) 0.4035(14)
C47E C 0.357(3) 0.2760(16) 0.3465(14)
C47O C 0.5260(16) 0.393(3) 0.4035(14)
H56J H 0.4585 0.0751 0.3930
H56E H 0.3251 0.2915 0.3570
H56O H 0.5415 0.4249 0.3930
H57J H 0.5105 0.1014 0.4089
H57E H 0.3514 0.2395 0.3411
H57O H 0.4895 0.3986 0.4089
C48J C 0.627(2) 0.197(3) 0.3050(13)
C48E C 0.447(3) 0.123(2) 0.4450(13)
C48O C 0.373(2) 0.303(3) 0.3050(13)
H58J H 0.6559 0.1982 0.2849
H58E H 0.4482 0.0941 0.4651
H58O H 0.3441 0.3018 0.2849
H59J H 0.6188 0.1609 0.3109
H59E H 0.4109 0.1312 0.4391
H59O H 0.3812 0.3391 0.3109
C49E C 0.473(4) 0.171(3) 0.4658(14)
C49J C 0.579(3) 0.223(4) 0.2842(14)
C49O C 0.421(3) 0.277(4) 0.2842(14)
H60J H 0.5627 0.1989 0.2644
H60E H 0.4489 0.1873 0.4856
H60O H 0.4373 0.3011 0.2644
H61E H 0.5036 0.1595 0.4823
H61J H 0.5905 0.2536 0.2677
H61O H 0.4095 0.2464 0.2677
C50E C 0.490(3) 0.209(2) 0.431(2)
C50J C 0.541(2) 0.240(3) 0.319(2)
C50O C 0.459(2) 0.260(3) 0.319(2)
H62J H 0.5461 0.2763 0.3260
H62E H 0.5263 0.2039 0.4240
H62O H 0.4539 0.2237 0.3260
H63J H 0.5053 0.2357 0.3081
H63E H 0.4857 0.2447 0.4419
H63O H 0.4947 0.2643 0.3081
C51J C 0.5480(18) 0.206(3) 0.3592(16)
C51E C 0.456(3) 0.2020(18) 0.3908(16)
C51O C 0.4520(18) 0.294(3) 0.3592(16)
H64O H 0.4535 0.3303 0.3513
H64E H 0.4197 0.2035 0.3987
H64J H 0.5465 0.1697 0.3513
H65O H 0.4800 0.2866 0.3795
H65E H 0.4634 0.2300 0.3705
H65J H 0.5200 0.2134 0.3795
N11 N 0.3840(3) 0.5647(3) 0.4830(2)
O3 O 0.3612(3) 0.5865(3) 0.4600(3)
O4 O 0.3572(2) 0.5472(3) 0.5123(2)
O5 O 0.4257(3) 0.5387(4) 0.4791(3)
O6 O 0.5977(4) 0.5373(4) 0.4437(4)
N12 N 0.1753(6) 0.4797(6) 0.3009(5)
O7 O 0.2215(3) 0.4844(4) 0.2978(3)
O8 O 0.1616(4) 0.4350(4) 0.3207(3)
O9 O 0.1407(5) 0.5094(5) 0.2888(4)
O10 O 0.4962(4) 0.5815(4) 0.4213(3)
N13 N 0.3517(4) 0.3241(4) -0.0013(4)
O12 O 0.3330(6) 0.2720(7) 0.0132(5)
O13 O 0.3489(5) 0.3561(6) 0.0145(4)
O14 O 0.3715(6) 0.3263(6) -0.0392(5)
O15 O 0.4259(6) 0.4134(7) -0.0473(5)
N14 N 0.4686(10) 0.0301(9) 0.1372(8)
O16 O 0.5046(8) 0.0068(8) 0.1531(7)
O18 O 0.4208(8) 0.0280(8) 0.1588(6)
O19 O 0.4755(6) 0.0497(5) 0.1037(4)
O21 O 0.4256(7) 0.0214(7) 0.0336(6)
O22 O 0.1825(10) 0.7095(10) 0.2865(8)
O23 O 0.1404(8) 0.3946(7) 0.3870(7)
O24 O 0.413(2) 0.301(2) -0.1218(17)
O25 O 0.37660(17) 0.27696(16) 0.09441(14)
O26 O 0.5000 0.2500 -0.1250
O27 O 0.1203(6) 0.6641(6) 0.3182(5)
O28 O 0.3618(12) 0.1967(12) -0.1125(10)
O29 O 0.4389(8) -0.0372(8) 0.2289(7)
Pd1 Pd 0.5000 0.2500 0.086415(12)
Pd2 Pd 0.285766(10) 0.537223(10) 0.376982(8)
C1 C 0.46599(15) 0.32286(17) 0.15203(12)
H1 H 0.4333 0.3147 0.1407
C2 C 0.46884(15) 0.35523(17) 0.18666(13)
H2 H 0.4386 0.3690 0.1989
C3 C 0.51671(15) 0.36736(16) 0.20323(13)
C4 C 0.55965(15) 0.34604(18) 0.18454(15)
H3 H 0.5928 0.3535 0.1953
C5 C 0.55398(15) 0.31397(17) 0.15013(14)
H4 H 0.5837 0.2995 0.1375
C6 C 0.39673(16) 0.52153(16) 0.36480(13)
H5 H 0.3990 0.5409 0.3903
C7 C 0.44093(15) 0.50178(16) 0.34708(14)
H6 H 0.4732 0.5078 0.3600
C8 C 0.43767(15) 0.47296(15) 0.31008(13)
C9 C 0.39011(15) 0.46470(16) 0.29187(12)
H7 H 0.3869 0.4449 0.2667
C10 C 0.34717(14) 0.48580(16) 0.31104(12)
H8 H 0.3145 0.4803 0.2987
C11 C 0.31238(15) 0.46209(19) 0.44245(12)
H9 H 0.3252 0.4918 0.4563
C12 C 0.32030(16) 0.4147(2) 0.46056(13)
H10 H 0.3388 0.4119 0.4864
C13 C 0.30134(15) 0.37119(17) 0.44102(13)
C14 C 0.27430(16) 0.3768(2) 0.40364(16)
H11 H 0.2599 0.3478 0.3898
C15 C 0.26842(16) 0.42579(18) 0.38654(14)
H12 H 0.2506 0.4297 0.3605
C16 C 0.52143(15) 0.40140(16) 0.24057(13)
C17 C 0.48487(14) 0.45065(16) 0.29075(13)
C18 C 0.31074(15) 0.32001(17) 0.45976(13)
C19 C 0.4359(2) 0.1836(3) 0.0347(2)
H13 H 0.4314 0.1586 0.0118
H14 H 0.4157 0.2143 0.0285
H15 H 0.4243 0.1686 0.0615
C20 C 0.5090(3) 0.2227(2) -0.00143(15)
H16 H 0.4953 0.2045 -0.0265
H17 H 0.5469 0.2216 -0.0027
C21 C 0.5210(2) 0.1494(2) 0.04491(16)
H18 H 0.5154 0.1260 0.0210
H19 H 0.5099 0.1328 0.0713
H20 H 0.5575 0.1578 0.0468
C22 C 0.1766(4) 0.5374(4) 0.3890(3)
H21 H 0.1456 0.5490 0.4036
H22 H 0.1796 0.5001 0.3917
H23 H 0.1745 0.5466 0.3589
C23 C 0.2233(3) 0.5564(4) 0.4536(3)
H24 H 0.1912 0.5683 0.4662
H25 H 0.2518 0.5772 0.4643
H26 H 0.2290 0.5204 0.4611
C24 C 0.2199(3) 0.6208(3) 0.3977(3)
H27 H 0.1849 0.6345 0.4021
H28 H 0.2434 0.6388 0.4173
C25 C 0.2361(3) 0.6299(3) 0.3530(3)
H29 H 0.2123 0.6128 0.3331
H30 H 0.2365 0.6671 0.3467
C26 C 0.3293(4) 0.6370(4) 0.3579(4)
H31 H 0.3269 0.6704 0.3438
H32 H 0.3595 0.6186 0.3474
H33 H 0.3325 0.6420 0.3886
C27 C 0.3000(4) 0.6072(4) 0.3009(3)
H34 H 0.2998 0.6421 0.2893
H35 H 0.2747 0.5863 0.2858
H36 H 0.3341 0.5922 0.2972
N1 N 0.50803(12) 0.30242(13) 0.13377(10)
N2 N 0.35074(12) 0.51402(12) 0.34690(10)
N3 N 0.28704(13) 0.46726(12) 0.40572(10)
N4 N 0.47803(12) 0.42146(14) 0.25609(11)
N5 N 0.52946(13) 0.46085(15) 0.30897(12)
N6 N 0.56821(13) 0.40928(15) 0.25595(11)
N7 N 0.49075(16) 0.19750(16) 0.03820(12)
N8 N 0.22046(14) 0.56130(15) 0.40760(11)
N9 N 0.28615(15) 0.60890(14) 0.34944(12)
Pd1J Pd 0.5000 0.2500 0.663585(12)
Pd2O Pd 0.212777(10) 0.035766(10) 0.373018(8)
Pd2E Pd 0.714234(10) -0.037223(10) 0.376982(8)
Pd2J Pd 0.787223(10) 0.464234(10) 0.373018(8)
C1J C 0.57286(17) 0.28401(15) 0.59797(12)
C1O C 0.42714(17) 0.21599(15) 0.59797(12)
C1E C 0.53401(15) 0.17714(17) 0.15203(12)
H1J H 0.5647 0.3167 0.6093
H1O H 0.4353 0.1833 0.6093
H1E H 0.5667 0.1853 0.1407
C2J C 0.60523(17) 0.28116(15) 0.56334(13)
C2O C 0.39477(17) 0.21884(15) 0.56334(13)
C2E C 0.53116(15) 0.14477(17) 0.18666(13)
H2O H 0.3810 0.1886 0.5511
H2J H 0.6190 0.3114 0.5511
H2E H 0.5614 0.1310 0.1989
C3J C 0.61736(16) 0.23329(15) 0.54677(13)
C3O C 0.38264(16) 0.26671(15) 0.54677(13)
C3E C 0.48329(15) 0.13264(16) 0.20323(13)
C4O C 0.40396(18) 0.30965(15) 0.56546(15)
C4J C 0.59604(18) 0.19035(15) 0.56546(15)
C4E C 0.44035(15) 0.15396(18) 0.18454(15)
H3O H 0.3965 0.3428 0.5547
H3J H 0.6035 0.1572 0.5547
H3E H 0.4072 0.1465 0.1953
C5O C 0.43603(17) 0.30398(15) 0.59987(14)
C5J C 0.56397(17) 0.19602(15) 0.59987(14)
C5E C 0.44602(15) 0.18603(17) 0.15013(14)
H4O H 0.4505 0.3337 0.6125
H4J H 0.5495 0.1663 0.6125
H4E H 0.4163 0.2005 0.1375
C6O C 0.22847(16) 0.14673(16) 0.38520(13)
C6E C 0.60327(16) -0.02153(16) 0.36480(13)
C6J C 0.77153(16) 0.35327(16) 0.38520(13)
H5O H 0.2091 0.1490 0.3597
H5E H 0.6010 -0.0409 0.3903
H5J H 0.7909 0.3510 0.3597
C7O C 0.24822(16) 0.19093(15) 0.40292(14)
C7E C 0.55907(15) -0.00178(16) 0.34708(14)
C7J C 0.75178(16) 0.30907(15) 0.40292(14)
H6J H 0.7578 0.2768 0.3900
H6E H 0.5268 -0.0078 0.3600
H6O H 0.2422 0.2232 0.3900
C8O C 0.27704(15) 0.18767(15) 0.43992(13)
C8E C 0.56233(15) 0.02704(15) 0.31008(13)
C8J C 0.72296(15) 0.31233(15) 0.43992(13)
C9J C 0.71470(16) 0.35989(15) 0.45813(12)
C9E C 0.60989(15) 0.03530(16) 0.29187(12)
C9O C 0.28530(16) 0.14011(15) 0.45813(12)
H7J H 0.6949 0.3631 0.4833
H7E H 0.6131 0.0551 0.2667
H7O H 0.3051 0.1369 0.4833
C10J C 0.73580(16) 0.40283(14) 0.43896(12)
C10E C 0.65283(14) 0.01420(16) 0.31104(12)
C10O C 0.26420(16) 0.09717(14) 0.43896(12)
H8J H 0.7303 0.4355 0.4513
H8E H 0.6855 0.0197 0.2987
H8O H 0.2697 0.0645 0.4513
C11O C 0.28791(19) 0.06238(15) 0.30755(12)
C11E C 0.68762(15) 0.03791(19) 0.44245(12)
C11J C 0.71209(19) 0.43762(15) 0.30755(12)
H9O H 0.2582 0.0752 0.2937
H9E H 0.6748 0.0082 0.4563
H9J H 0.7418 0.4248 0.2937
C12O C 0.3353(2) 0.07030(16) 0.28944(13)
C12E C 0.67970(16) 0.0853(2) 0.46056(13)
C12J C 0.6647(2) 0.42970(16) 0.28944(13)
H10O H 0.3381 0.0888 0.2636
H10E H 0.6612 0.0881 0.4864
H10J H 0.6619 0.4112 0.2636
C13O C 0.37881(17) 0.05134(15) 0.30898(13)
C13E C 0.69866(15) 0.12881(17) 0.44102(13)
C13J C 0.62119(17) 0.44866(15) 0.30898(13)
C14O C 0.3732(2) 0.02430(16) 0.34636(16)
C14E C 0.72570(16) 0.1232(2) 0.40364(16)
C14J C 0.6268(2) 0.47570(16) 0.34636(16)
H11O H 0.4022 0.0099 0.3602
H11E H 0.7401 0.1522 0.3898
H11J H 0.5978 0.4901 0.3602
C15O C 0.32421(18) 0.01842(16) 0.36346(14)
C15E C 0.73158(16) 0.07421(18) 0.38654(14)
C15J C 0.67579(18) 0.48158(16) 0.36346(14)
H12O H 0.3203 0.0006 0.3895
H12E H 0.7494 0.0703 0.3605
H12J H 0.6797 0.4994 0.3895
C16J C 0.65140(16) 0.22857(15) 0.50943(13)
C16O C 0.34860(16) 0.27143(15) 0.50943(13)
C16E C 0.47857(15) 0.09860(16) 0.24057(13)
C17O C 0.29935(16) 0.23487(14) 0.45925(13)
C17E C 0.51513(14) 0.04935(16) 0.29075(13)
C17J C 0.70065(16) 0.26513(14) 0.45925(13)
C18O C 0.42999(17) 0.06074(15) 0.29024(13)
C18E C 0.68926(15) 0.17999(17) 0.45976(13)
C18J C 0.57001(17) 0.43926(15) 0.29024(13)
C19J C 0.4336(3) 0.3141(2) 0.7153(2)
C19O C 0.5664(3) 0.1859(2) 0.7153(2)
C19E C 0.5641(2) 0.3164(3) 0.0347(2)
H13J H 0.4086 0.3186 0.7382
H13O H 0.5914 0.1814 0.7382
H13E H 0.5686 0.3414 0.0118
H14J H 0.4643 0.3343 0.7215
H14O H 0.5357 0.1657 0.7215
H14E H 0.5843 0.2857 0.0285
H15J H 0.4186 0.3257 0.6885
H15O H 0.5814 0.1743 0.6885
H15E H 0.5757 0.3314 0.0615
C20J C 0.4727(2) 0.2410(3) 0.75143(15)
C20O C 0.5273(2) 0.2590(3) 0.75143(15)
C20E C 0.4910(3) 0.2773(2) -0.00143(15)
H16O H 0.5455 0.2453 0.7765
H16J H 0.4545 0.2547 0.7765
H16E H 0.5047 0.2955 -0.0265
H17O H 0.5284 0.2969 0.7527
H17J H 0.4716 0.2031 0.7527
H17E H 0.4531 0.2784 -0.0027
C21O C 0.6006(2) 0.2710(2) 0.70509(16)
C21J C 0.3994(2) 0.2290(2) 0.70509(16)
C21E C 0.4790(2) 0.3506(2) 0.04491(16)
H18O H 0.6240 0.2654 0.7290
H18J H 0.3760 0.2346 0.7290
H18E H 0.4846 0.3740 0.0210
H19O H 0.6172 0.2599 0.6787
H19J H 0.3828 0.2401 0.6787
H19E H 0.4901 0.3672 0.0713
H20O H 0.5922 0.3075 0.7032
H20J H 0.4078 0.1925 0.7032
H20E H 0.4425 0.3422 0.0468
C22J C 0.7874(4) 0.5734(4) 0.3610(3)
C22E C 0.8234(4) -0.0374(4) 0.3890(3)
C22O C 0.2126(4) -0.0734(4) 0.3610(3)
H21J H 0.7990 0.6044 0.3464
H21E H 0.8544 -0.0490 0.4036
H21O H 0.2010 -0.1044 0.3464
H22J H 0.7501 0.5704 0.3583
H22E H 0.8204 -0.0001 0.3917
H22O H 0.2499 -0.0704 0.3583
H23J H 0.7966 0.5755 0.3911
H23E H 0.8255 -0.0466 0.3589
H23O H 0.2034 -0.0755 0.3911
C23J C 0.8064(4) 0.5267(3) 0.2964(3)
C23E C 0.7767(3) -0.0564(4) 0.4536(3)
C23O C 0.1936(4) -0.0267(3) 0.2964(3)
H24J H 0.8183 0.5588 0.2838
H24E H 0.8088 -0.0683 0.4662
H24O H 0.1817 -0.0588 0.2838
H25J H 0.8272 0.4982 0.2857
H25E H 0.7482 -0.0772 0.4643
H25O H 0.1728 0.0018 0.2857
H26J H 0.7704 0.5210 0.2889
H26E H 0.7710 -0.0204 0.4611
H26O H 0.2296 -0.0210 0.2889
C24J C 0.8708(3) 0.5301(3) 0.3523(3)
C24E C 0.7801(3) -0.1208(3) 0.3977(3)
C24O C 0.1292(3) -0.0301(3) 0.3523(3)
H27J H 0.8845 0.5651 0.3479
H27E H 0.8151 -0.1345 0.4021
H27O H 0.1155 -0.0651 0.3479
H28J H 0.8888 0.5066 0.3327
H28E H 0.7566 -0.1388 0.4173
H28O H 0.1112 -0.0066 0.3327
C25J C 0.8799(3) 0.5139(3) 0.3970(3)
C25E C 0.7639(3) -0.1299(3) 0.3530(3)
C25O C 0.1201(3) -0.0139(3) 0.3970(3)
H29J H 0.8628 0.5377 0.4169
H29E H 0.7877 -0.1128 0.3331
H29O H 0.1372 -0.0377 0.4169
H30J H 0.9171 0.5135 0.4033
H30E H 0.7635 -0.1671 0.3467
H30O H 0.0829 -0.0135 0.4033
C26J C 0.8870(4) 0.4207(4) 0.3921(4)
C26E C 0.6707(4) -0.1370(4) 0.3579(4)
C26O C 0.1130(4) 0.0793(4) 0.3921(4)
H31J H 0.9204 0.4231 0.4062
H31E H 0.6731 -0.1704 0.3438
H31O H 0.0796 0.0769 0.4062
H32J H 0.8686 0.3905 0.4026
H32E H 0.6405 -0.1186 0.3474
H32O H 0.1314 0.1095 0.4026
H33J H 0.8920 0.4175 0.3614
H33E H 0.6675 -0.1420 0.3886
H33O H 0.1080 0.0825 0.3614
C27J C 0.8572(4) 0.4500(4) 0.4491(3)
C27E C 0.7000(4) -0.1072(4) 0.3009(3)
C27O C 0.1428(4) 0.0500(4) 0.4491(3)
H34J H 0.8921 0.4502 0.4607
H34E H 0.7002 -0.1421 0.2893
H34O H 0.1079 0.0498 0.4607
H35J H 0.8363 0.4753 0.4642
H35E H 0.7253 -0.0863 0.2858
H35O H 0.1637 0.0247 0.4642
H36J H 0.8422 0.4159 0.4528
H36E H 0.6659 -0.0922 0.2972
H36O H 0.1578 0.0841 0.4528
N1J N 0.55242(13) 0.24197(12) 0.61623(10)
N1O N 0.44758(13) 0.25803(12) 0.61623(10)
N1E N 0.49197(12) 0.19758(13) 0.13377(10)
N2O N 0.23598(12) 0.10074(12) 0.40310(10)
N2E N 0.64926(12) -0.01402(12) 0.34690(10)
N2J N 0.76402(12) 0.39926(12) 0.40310(10)
N3O N 0.28274(12) 0.03704(13) 0.34428(10)
N3E N 0.71296(13) 0.03274(12) 0.40572(10)
N3J N 0.71726(12) 0.46296(13) 0.34428(10)
N4J N 0.67146(14) 0.27197(12) 0.49391(11)
N4O N 0.32854(14) 0.22803(12) 0.49391(11)
N4E N 0.52197(12) 0.07854(14) 0.25609(11)
N5O N 0.28915(15) 0.27946(13) 0.44103(12)
N5E N 0.47054(13) 0.03915(15) 0.30897(12)
N5J N 0.71085(15) 0.22054(13) 0.44103(12)
N6O N 0.34072(15) 0.31821(13) 0.49405(11)
N6J N 0.65928(15) 0.18179(13) 0.49405(11)
N6E N 0.43179(13) 0.09072(15) 0.25595(11)
N7J N 0.44750(16) 0.25925(16) 0.71180(12)
N7O N 0.55250(16) 0.24075(16) 0.71180(12)
N7E N 0.50925(16) 0.30250(16) 0.03820(12)
N8J N 0.81130(15) 0.52954(14) 0.34240(11)
N8E N 0.77954(14) -0.06130(15) 0.40760(11)
N8O N 0.18870(15) -0.02954(14) 0.34240(11)
N9J N 0.85890(14) 0.46385(15) 0.40056(12)
N9E N 0.71385(15) -0.10890(14) 0.34944(12)
N9O N 0.14110(14) 0.03615(15) 0.40056(12)
loop_
_geom_bond_atom_site_label_1
_geom_bond_atom_site_label_2
_geom_bond_site_symmetry_1
_geom_bond_site_symmetry_2
Pd1 N1 1_555 1_555
Pd2 N2 1_555 1_555
C1 H1 1_555 1_555
C2 C1 1_555 1_555
H2 C2 1_555 1_555
C3 C2 1_555 1_555
C4 C3 1_555 1_555
H3 C4 1_555 1_555
C5 C4 1_555 1_555
H4 C5 1_555 1_555
C6 H5 1_555 1_555
C7 C6 1_555 1_555
H6 C7 1_555 1_555
C8 C7 1_555 1_555
C9 C8 1_555 1_555
H7 C9 1_555 1_555
C10 C9 1_555 1_555
H8 C10 1_555 1_555
C11 H9 1_555 1_555
C12 C11 1_555 1_555
H10 C12 1_555 1_555
C13 C12 1_555 1_555
C14 C13 1_555 1_555
H11 C14 1_555 1_555
C15 C14 1_555 1_555
H12 C15 1_555 1_555
C16 C3 1_555 1_555
C17 C8 1_555 1_555
C18 C13 1_555 1_555
C19 H13 1_555 1_555
H14 C19 1_555 1_555
H15 C19 1_555 1_555
C20 H16 1_555 1_555
H17 C20 1_555 1_555
C21 H18 1_555 1_555
H19 C21 1_555 1_555
H20 C21 1_555 1_555
C22 H21 1_555 1_555
H22 C22 1_555 1_555
H23 C22 1_555 1_555
C23 H24 1_555 1_555
H25 C23 1_555 1_555
H26 C23 1_555 1_555
C24 H27 1_555 1_555
H28 C24 1_555 1_555
C25 C24 1_555 1_555
H29 C25 1_555 1_555
H30 C25 1_555 1_555
C26 H31 1_555 1_555
H32 C26 1_555 1_555
H33 C26 1_555 1_555
C27 H34 1_555 1_555
H35 C27 1_555 1_555
H36 C27 1_555 1_555
N1 C1 1_555 1_555
N2 C6 1_555 1_555
N3 Pd2 1_555 1_555
N4 C16 1_555 1_555
N5 C17 1_555 1_555
N6 C16 1_555 1_555
N7 Pd1 1_555 1_555
N8 Pd2 1_555 1_555
N9 Pd2 1_555 1_555
H37 O2 1_555 1_555
H51 C49 1_555 1_555
C42 H53 1_555 1_555
H53 C49 1_555 1_555
C43 C42 1_555 1_555
H54 C43 1_555 1_555
C44 C42 1_555 1_555
C45 C43 1_555 1_555
O1 C44 1_555 1_555
O2 C45 1_555 1_555
N10 C44 1_555 1_555
C46 N10 1_555 1_555
H55 C46 1_555 1_555
C47 C46 1_555 1_555
H56 C47 1_555 1_555
H57 C47 1_555 1_555
C48 C42 1_555 1_555
H58 C48 1_555 1_555
H59 C42 1_555 1_555
C49 C42 1_555 1_555
H60 C42 1_555 1_555
H61 H51 1_555 1_555
C50 C44 1_555 1_555
H62 C50 1_555 1_555
H63 O1 1_555 1_555
C51 N10 1_555 1_555
H64 C45 1_555 1_555
H65 C51 1_555 1_555
N11 O3 1_555 1_555
O4 N11 1_555 1_555
O5 N11 1_555 1_555
N12 O7 1_555 1_555
O8 N12 1_555 1_555
O9 N12 1_555 1_555
N13 O12 1_555 1_555
O13 N13 1_555 1_555
O14 N13 1_555 1_555
N14 O16 1_555 1_555
O18 N14 1_555 1_555
O19 N14 1_555 1_555
Pd1J N1J 1_555 1_555
Pd2O N2O 1_555 1_555
Pd2E N2E 1_555 1_555
Pd2J N2J 1_555 1_555
C1J H1J 1_555 1_555
C1O H1O 1_555 1_555
C1E H1E 1_555 1_555
C2J C1J 1_555 1_555
C2O C1O 1_555 1_555
C2E C1E 1_555 1_555
H2O C2O 1_555 1_555
H2J C2J 1_555 1_555
H2E C2E 1_555 1_555
C3J C2J 1_555 1_555
C3O C2O 1_555 1_555
C3E C2E 1_555 1_555
C4O C3O 1_555 1_555
C4J C3J 1_555 1_555
C4E C3E 1_555 1_555
H3O C4O 1_555 1_555
H3J C4J 1_555 1_555
H3E C4E 1_555 1_555
C5O C4O 1_555 1_555
C5J C4J 1_555 1_555
C5E C4E 1_555 1_555
H4O C5O 1_555 1_555
H4J C5J 1_555 1_555
H4E C5E 1_555 1_555
C6O H5O 1_555 1_555
C6E H5E 1_555 1_555
C6J H5J 1_555 1_555
C7O C6O 1_555 1_555
C7E C6E 1_555 1_555
C7J C6J 1_555 1_555
H6J C7J 1_555 1_555
H6E C7E 1_555 1_555
H6O C7O 1_555 1_555
C8O C7O 1_555 1_555
C8E C7E 1_555 1_555
C8J C7J 1_555 1_555
C9J C8J 1_555 1_555
C9E C8E 1_555 1_555
C9O C8O 1_555 1_555
H7J C9J 1_555 1_555
H7E C9E 1_555 1_555
H7O C9O 1_555 1_555
C10J C9J 1_555 1_555
C10E C9E 1_555 1_555
C10O C9O 1_555 1_555
H8J C10J 1_555 1_555
H8E C10E 1_555 1_555
H8O C10O 1_555 1_555
C11O H9O 1_555 1_555
C11E H9E 1_555 1_555
C11J H9J 1_555 1_555
C12O C11O 1_555 1_555
C12E C11E 1_555 1_555
C12J C11J 1_555 1_555
H10O C12O 1_555 1_555
H10E C12E 1_555 1_555
H10J C12J 1_555 1_555
C13O C12O 1_555 1_555
C13E C12E 1_555 1_555
C13J C12J 1_555 1_555
C14O C13O 1_555 1_555
C14E C13E 1_555 1_555
C14J C13J 1_555 1_555
H11O C14O 1_555 1_555
H11E C14E 1_555 1_555
H11J C14J 1_555 1_555
C15O C14O 1_555 1_555
C15E C14E 1_555 1_555
C15J C14J 1_555 1_555
H12O C15O 1_555 1_555
H12E C15E 1_555 1_555
H12J C15J 1_555 1_555
C16J C3J 1_555 1_555
C16O C3O 1_555 1_555
C16E C3E 1_555 1_555
C17O C8O 1_555 1_555
C17E C8E 1_555 1_555
C17J C8J 1_555 1_555
C18O C13O 1_555 1_555
C18E C13E 1_555 1_555
C18J N5 1_555 1_555
C19J H13J 1_555 1_555
C19O H13O 1_555 1_555
C19E H13E 1_555 1_555
H14J C19J 1_555 1_555
H14O C19O 1_555 1_555
H14E C19E 1_555 1_555
H15J C19J 1_555 1_555
H15O C19O 1_555 1_555
H15E C19E 1_555 1_555
C20J C20O 1_555 1_555
C20O H16O 1_555 1_555
C20E C20 1_555 1_555
H16J C20J 1_555 1_555
H16E C20E 1_555 1_555
H17O C20O 1_555 1_555
H17J C20J 1_555 1_555
H17E C20E 1_555 1_555
C21O H18O 1_555 1_555
C21J H18J 1_555 1_555
C21E H18E 1_555 1_555
H19O C21O 1_555 1_555
H19J C21J 1_555 1_555
H19E C21E 1_555 1_555
H20O C21O 1_555 1_555
H20J C21J 1_555 1_555
H20E C21E 1_555 1_555
C22J H21J 1_555 1_555
C22E H21E 1_555 1_555
C22O H21O 1_555 1_555
H22J C22J 1_555 1_555
H22E C22E 1_555 1_555
H22O C22O 1_555 1_555
H23J C22J 1_555 1_555
H23E C22E 1_555 1_555
H23O C22O 1_555 1_555
C23J H24J 1_555 1_555
C23E H24E 1_555 1_555
C23O H24O 1_555 1_555
H25J C23J 1_555 1_555
H25E C23E 1_555 1_555
H25O C23O 1_555 1_555
H26J C23J 1_555 1_555
H26E C23E 1_555 1_555
H26O C23O 1_555 1_555
C24J H27J 1_555 1_555
C24E H27E 1_555 1_555
C24O H27O 1_555 1_555
H28J C24J 1_555 1_555
H28E C24E 1_555 1_555
H28O C24O 1_555 1_555
C25J C24J 1_555 1_555
C25E C24E 1_555 1_555
C25O C24O 1_555 1_555
H29J C25J 1_555 1_555
H29E C25E 1_555 1_555
H29O C25O 1_555 1_555
H30J C25J 1_555 1_555
H30E C25E 1_555 1_555
H30O C25O 1_555 1_555
C26J H31J 1_555 1_555
C26E H31E 1_555 1_555
C26O H31O 1_555 1_555
H32J C26J 1_555 1_555
H32E C26E 1_555 1_555
H32O C26O 1_555 1_555
H33J C26J 1_555 1_555
H33E C26E 1_555 1_555
H33O C26O 1_555 1_555
C27J H34J 1_555 1_555
C27E H34E 1_555 1_555
C27O H34O 1_555 1_555
H35J C27J 1_555 1_555
H35E C27E 1_555 1_555
H35O C27O 1_555 1_555
H36J C27J 1_555 1_555
H36E C27E 1_555 1_555
H36O C27O 1_555 1_555
N1J C1J 1_555 1_555
N1O Pd1J 1_555 1_555
N1E Pd1 1_555 1_555
N2O C6O 1_555 1_555
N2E C6E 1_555 1_555
N2J C6J 1_555 1_555
N3O Pd2O 1_555 1_555
N3E Pd2E 1_555 1_555
N3J Pd2J 1_555 1_555
N4J C16J 1_555 1_555
N4O C16O 1_555 1_555
N4E C16E 1_555 1_555
N5O C18 1_555 1_555
N5E C17E 1_555 1_555
N5J C17J 1_555 1_555
N6O C18 1_555 1_555
N6J C16J 1_555 1_555
N6E C16E 1_555 1_555
N7J Pd1J 1_555 1_555
N7O Pd1J 1_555 1_555
N7E Pd1 1_555 1_555
N8J Pd2J 1_555 1_555
N8E Pd2E 1_555 1_555
N8O Pd2O 1_555 1_555
N9J Pd2J 1_555 1_555
N9E Pd2E 1_555 1_555
N9O Pd2O 1_555 1_555
H37E O2E 1_555 1_555
H37J O2J 1_555 1_555
H37O O2O 1_555 1_555
H51E C49E 1_555 1_555
H51J C49J 1_555 1_555
H51O C49O 1_555 1_555
C42E H53E 1_555 1_555
C42J H53J 1_555 1_555
C42O H53O 1_555 1_555
H53E C49E 1_555 1_555
H53J C49J 1_555 1_555
H53O C49O 1_555 1_555
C43E C42E 1_555 1_555
C43J C42J 1_555 1_555
C43O C42O 1_555 1_555
H54E C43E 1_555 1_555
H54J C43J 1_555 1_555
H54O C43O 1_555 1_555
C44E C42E 1_555 1_555
C44J C42J 1_555 1_555
C44O C42O 1_555 1_555
C45E C43E 1_555 1_555
C45J C43J 1_555 1_555
C45O C43O 1_555 1_555
O1E C50 1_555 1_555
O1J C44J 1_555 1_555
O1O C44O 1_555 1_555
O2E C45E 1_555 1_555
O2J C45J 1_555 1_555
O2O C45O 1_555 1_555
N10E C44E 1_555 1_555
N10J C44J 1_555 1_555
N10O C44O 1_555 1_555
C46J N10J 1_555 1_555
C46E N10E 1_555 1_555
C46O C51 1_555 1_555
H55J C46J 1_555 1_555
H55E C46E 1_555 1_555
H55O C46O 1_555 1_555
C47J C46J 1_555 1_555
C47E C46E 1_555 1_555
C47O C48 1_555 1_555
H56J C47J 1_555 1_555
H56E C47E 1_555 1_555
H56O C47O 1_555 1_555
H57J C47J 1_555 1_555
H57E C47E 1_555 1_555
H57O C47O 1_555 1_555
C48J C47 1_555 1_555
C48E C42E 1_555 1_555
C48O C42O 1_555 1_555
H58J C48J 1_555 1_555
H58E C48E 1_555 1_555
H58O C48O 1_555 1_555
H59J C42J 1_555 1_555
H59E C42E 1_555 1_555
H59O C42O 1_555 1_555
C49E C42E 1_555 1_555
C49J C42J 1_555 1_555
C49O C42O 1_555 1_555
H60J C42J 1_555 1_555
H60E C42E 1_555 1_555
H60O C42O 1_555 1_555
H61E H51E 1_555 1_555
H61J H51J 1_555 1_555
H61O H51O 1_555 1_555
C50E O1 1_555 1_555
C50J C44J 1_555 1_555
C50O C44O 1_555 1_555
H62J C50J 1_555 1_555
H62E C50E 1_555 1_555
H62O C50O 1_555 1_555
H63J O1J 1_555 1_555
H63E H63 1_555 1_555
H63O O1O 1_555 1_555
C51J C46 1_555 1_555
C51E N10E 1_555 1_555
C51O N10O 1_555 1_555
H64O C45O 1_555 1_555
H64E C45E 1_555 1_555
H64J C45J 1_555 1_555
H65O C51O 1_555 1_555
H65E C51E 1_555 1_555
H65J C51J 1_555 1_555
C5 N1 1_555 1_555
C10 N2 1_555 1_555
C11 N3 1_555 1_555
C15 N3 1_555 1_555
C17 N4 1_555 1_555
C19 N7 1_555 1_555
C20 N7 1_555 1_555
C21 N7 1_555 1_555
C22 N8 1_555 1_555
C23 N8 1_555 1_555
C24 N8 1_555 1_555
C25 N9 1_555 1_555
C26 N9 1_555 1_555
C27 N9 1_555 1_555
N6 C18J 1_555 1_555
H53 H60 1_555 1_555
C43 C48 1_555 1_555
C43 H59 1_555 1_555
C45 N10 1_555 1_555
O1 C50 1_555 1_555
N10 H64 1_555 1_555
C48 H59 1_555 1_555
C48 C49 1_555 1_555
C49 H60 1_555 1_555
C49 H61 1_555 1_555
C49 C50 1_555 1_555
C50 H63 1_555 1_555
C50 C51 1_555 1_555
C51 H64 1_555 1_555
C1O N1O 1_555 1_555
C1E N1E 1_555 1_555
C5O N1O 1_555 1_555
C5J N1J 1_555 1_555
C5E N1E 1_555 1_555
C10J N2J 1_555 1_555
C10E N2E 1_555 1_555
C10O N2O 1_555 1_555
C11O N3O 1_555 1_555
C11E N3E 1_555 1_555
C11J N3J 1_555 1_555
C13J C18J 1_555 1_555
C15O N3O 1_555 1_555
C15E N3E 1_555 1_555
C15J N3J 1_555 1_555
C16O N6O 1_555 1_555
C17O N4O 1_555 1_555
C17O N5O 1_555 1_555
C17E N4E 1_555 1_555
C17J N4J 1_555 1_555
C18O N5E 1_555 1_555
C18O N6E 1_555 1_555
C18E N5J 1_555 1_555
C18E N6J 1_555 1_555
C19J N7J 1_555 1_555
C19O N7O 1_555 1_555
C19E N7E 1_555 1_555
C20J N7J 1_555 1_555
C20O N7O 1_555 1_555
C20E N7E 1_555 1_555
C21O N7O 1_555 1_555
C21J N7J 1_555 1_555
C21E N7E 1_555 1_555
C22J N8J 1_555 1_555
C22E N8E 1_555 1_555
C22O N8O 1_555 1_555
C23J N8J 1_555 1_555
C23E N8E 1_555 1_555
C23O N8O 1_555 1_555
C24J N8J 1_555 1_555
C24E N8E 1_555 1_555
C24O N8O 1_555 1_555
C25J N9J 1_555 1_555
C25E N9E 1_555 1_555
C25O N9O 1_555 1_555
C26J N9J 1_555 1_555
C26E N9E 1_555 1_555
C26O N9O 1_555 1_555
C27J N9J 1_555 1_555
C27E N9E 1_555 1_555
C27O N9O 1_555 1_555
C42J C48J 1_555 1_555
H53E H60E 1_555 1_555
H53J H60J 1_555 1_555
H53O H60O 1_555 1_555
C43E C48E 1_555 1_555
C43E H59E 1_555 1_555
C43J C48J 1_555 1_555
C43J H59J 1_555 1_555
C43O C48O 1_555 1_555
C43O H59O 1_555 1_555
C44E O1E 1_555 1_555
C44E C50E 1_555 1_555
C45E N10E 1_555 1_555
C45J N10J 1_555 1_555
C45O N10O 1_555 1_555
O1E C50E 1_555 1_555
O1E H63E 1_555 1_555
O1J C50J 1_555 1_555
O1J C50O 1_555 1_555
O1O C50J 1_555 1_555
O1O C50O 1_555 1_555
N10E H64E 1_555 1_555
N10J C51J 1_555 1_555
N10J H64J 1_555 1_555
N10O C46O 1_555 1_555
N10O H64O 1_555 1_555
C46J C51E 1_555 1_555
C46E C51O 1_555 1_555
C46O C47O 1_555 1_555
C47J C48E 1_555 1_555
C47E C48O 1_555 1_555
C48J H59J 1_555 1_555
C48J C49J 1_555 1_555
C48E H59E 1_555 1_555
C48E C49E 1_555 1_555
C48O H59O 1_555 1_555
C48O C49O 1_555 1_555
C49E H60E 1_555 1_555
C49E H61E 1_555 1_555
C49E C50E 1_555 1_555
C49J H60J 1_555 1_555
C49J H61J 1_555 1_555
C49J C50J 1_555 1_555
C49O H60O 1_555 1_555
C49O H61O 1_555 1_555
C49O C50O 1_555 1_555
C50E H63E 1_555 1_555
C50E C51E 1_555 1_555
C50J H63J 1_555 1_555
C50J C51J 1_555 1_555
C50O H63O 1_555 1_555
C50O C51O 1_555 1_555
H63J H63O 1_555 1_555
C51J H64J 1_555 1_555
C51E H64E 1_555 1_555
C51O H64O 1_555 1_555

#END
