# generated using pymatgen
data_H324Pd6C228N68O173
_symmetry_space_group_name_H-M   'P 1'
_cell_length_a   26.10800000
_cell_length_b   26.10800000
_cell_length_c   31.52000000
_cell_angle_alpha   90.00000000
_cell_angle_beta   90.00000000
_cell_angle_gamma   90.00000000
_symmetry_Int_Tables_number   1
_chemical_formula_structural   H324Pd6C228N68O173
_chemical_formula_sum   'H1296 Pd24 C912 N272 O692'
_cell_volume   21484.90396928
_cell_formula_units_Z   4
loop_
 _symmetry_equiv_pos_site_id
 _symmetry_equiv_pos_as_xyz
  1  'x, y, z'
loop_
 _atom_site_type_symbol
 _atom_site_label
 _atom_site_symmetry_multiplicity
 _atom_site_fract_x
 _atom_site_fract_y
 _atom_site_fract_z
 _atom_site_occupancy
  H  H1  1  0.680400  0.303000  0.314200  1
  H  H2  1  0.819600  0.697000  0.814200  1
  H  H3  1  0.447000  0.930400  0.564200  1
  H  H4  1  0.053000  0.069600  0.064200  1
  H  H5  1  0.180400  0.803000  0.814200  1
  H  H6  1  0.319600  0.197000  0.314200  1
  H  H7  1  0.947000  0.430400  0.064200  1
  H  H8  1  0.553000  0.569600  0.564200  1
  H  H9  1  0.319600  0.697000  0.685800  1
  H  H10  1  0.180400  0.303000  0.185800  1
  H  H11  1  0.553000  0.069600  0.435800  1
  H  H12  1  0.947000  0.930400  0.935800  1
  H  H13  1  0.819600  0.197000  0.185800  1
  H  H14  1  0.680400  0.803000  0.685800  1
  H  H15  1  0.053000  0.569600  0.935800  1
  H  H16  1  0.447000  0.430400  0.435800  1
  H  H17  1  0.624200  0.265800  0.266200  1
  H  H18  1  0.875800  0.734200  0.766200  1
  H  H19  1  0.484200  0.874200  0.516200  1
  H  H20  1  0.015800  0.125800  0.016200  1
  H  H21  1  0.124200  0.765800  0.766200  1
  H  H22  1  0.375800  0.234200  0.266200  1
  H  H23  1  0.984200  0.374200  0.016200  1
  H  H24  1  0.515800  0.625800  0.516200  1
  H  H25  1  0.375800  0.734200  0.733800  1
  H  H26  1  0.124200  0.265800  0.233800  1
  H  H27  1  0.515800  0.125800  0.483800  1
  H  H28  1  0.984200  0.874200  0.983800  1
  H  H29  1  0.875800  0.234200  0.233800  1
  H  H30  1  0.624200  0.765800  0.733800  1
  H  H31  1  0.015800  0.625800  0.983800  1
  H  H32  1  0.484200  0.374200  0.483800  1
  H  H33  1  0.536500  0.276200  0.274800  1
  H  H34  1  0.963500  0.723800  0.774800  1
  H  H35  1  0.473800  0.786500  0.524800  1
  H  H36  1  0.026200  0.213500  0.024800  1
  H  H37  1  0.036500  0.776200  0.774800  1
  H  H38  1  0.463500  0.223800  0.274800  1
  H  H39  1  0.973800  0.286500  0.024800  1
  H  H40  1  0.526200  0.713500  0.524800  1
  H  H41  1  0.463500  0.723800  0.725200  1
  H  H42  1  0.036500  0.276200  0.225200  1
  H  H43  1  0.526200  0.213500  0.475200  1
  H  H44  1  0.973800  0.786500  0.975200  1
  H  H45  1  0.963500  0.223800  0.225200  1
  H  H46  1  0.536500  0.776200  0.725200  1
  H  H47  1  0.026200  0.713500  0.975200  1
  H  H48  1  0.473800  0.286500  0.475200  1
  H  H49  1  0.577700  0.385200  0.409600  1
  H  H50  1  0.922300  0.614800  0.909600  1
  H  H51  1  0.364800  0.827700  0.659600  1
  H  H52  1  0.135200  0.172300  0.159600  1
  H  H53  1  0.077700  0.885200  0.909600  1
  H  H54  1  0.422300  0.114800  0.409600  1
  H  H55  1  0.864800  0.327700  0.159600  1
  H  H56  1  0.635200  0.672300  0.659600  1
  H  H57  1  0.422300  0.614800  0.590400  1
  H  H58  1  0.077700  0.385200  0.090400  1
  H  H59  1  0.635200  0.172300  0.340400  1
  H  H60  1  0.864800  0.827700  0.840400  1
  H  H61  1  0.922300  0.114800  0.090400  1
  H  H62  1  0.577700  0.885200  0.590400  1
  H  H63  1  0.135200  0.672300  0.840400  1
  H  H64  1  0.364800  0.327700  0.340400  1
  H  H65  1  0.465200  0.310800  0.313800  1
  H  H66  1  0.034800  0.689200  0.813800  1
  H  H67  1  0.439200  0.715200  0.563800  1
  H  H68  1  0.060800  0.284800  0.063800  1
  H  H69  1  0.965200  0.810800  0.813800  1
  H  H70  1  0.534800  0.189200  0.313800  1
  H  H71  1  0.939200  0.215200  0.063800  1
  H  H72  1  0.560800  0.784800  0.563800  1
  H  H73  1  0.534800  0.689200  0.686200  1
  H  H74  1  0.965200  0.310800  0.186200  1
  H  H75  1  0.560800  0.284800  0.436200  1
  H  H76  1  0.939200  0.715200  0.936200  1
  H  H77  1  0.034800  0.189200  0.186200  1
  H  H78  1  0.465200  0.810800  0.686200  1
  H  H79  1  0.060800  0.784800  0.936200  1
  H  H80  1  0.439200  0.215200  0.436200  1
  H  H81  1  0.398000  0.386200  0.381000  1
  H  H82  1  0.102000  0.613800  0.881000  1
  H  H83  1  0.363800  0.648000  0.631000  1
  H  H84  1  0.136200  0.352000  0.131000  1
  H  H85  1  0.898000  0.886200  0.881000  1
  H  H86  1  0.602000  0.113800  0.381000  1
  H  H87  1  0.863800  0.148000  0.131000  1
  H  H88  1  0.636200  0.852000  0.631000  1
  H  H89  1  0.602000  0.613800  0.619000  1
  H  H90  1  0.898000  0.386200  0.119000  1
  H  H91  1  0.636200  0.352000  0.369000  1
  H  H92  1  0.863800  0.648000  0.869000  1
  H  H93  1  0.102000  0.113800  0.119000  1
  H  H94  1  0.398000  0.886200  0.619000  1
  H  H95  1  0.136200  0.852000  0.869000  1
  H  H96  1  0.363800  0.148000  0.369000  1
  H  H97  1  0.405400  0.330800  0.401600  1
  H  H98  1  0.094600  0.669200  0.901600  1
  H  H99  1  0.419200  0.655400  0.651600  1
  H  H100  1  0.080800  0.344600  0.151600  1
  H  H101  1  0.905400  0.830800  0.901600  1
  H  H102  1  0.594600  0.169200  0.401600  1
  H  H103  1  0.919200  0.155400  0.151600  1
  H  H104  1  0.580800  0.844600  0.651600  1
  H  H105  1  0.594600  0.669200  0.598400  1
  H  H106  1  0.905400  0.330800  0.098400  1
  H  H107  1  0.580800  0.344600  0.348400  1
  H  H108  1  0.919200  0.655400  0.848400  1
  H  H109  1  0.094600  0.169200  0.098400  1
  H  H110  1  0.405400  0.830800  0.598400  1
  H  H111  1  0.080800  0.844600  0.848400  1
  H  H112  1  0.419200  0.155400  0.348400  1
  H  H113  1  0.509600  0.432500  0.443700  1
  H  H114  1  0.990400  0.567500  0.943700  1
  H  H115  1  0.317500  0.759600  0.693700  1
  H  H116  1  0.182500  0.240400  0.193700  1
  H  H117  1  0.009600  0.932500  0.943700  1
  H  H118  1  0.490400  0.067500  0.443700  1
  H  H119  1  0.817500  0.259600  0.193700  1
  H  H120  1  0.682500  0.740400  0.693700  1
  H  H121  1  0.490400  0.567500  0.556300  1
  H  H122  1  0.009600  0.432500  0.056300  1
  H  H123  1  0.682500  0.240400  0.306300  1
  H  H124  1  0.817500  0.759600  0.806300  1
  H  H125  1  0.990400  0.067500  0.056300  1
  H  H126  1  0.509600  0.932500  0.556300  1
  H  H127  1  0.182500  0.740400  0.806300  1
  H  H128  1  0.317500  0.259600  0.306300  1
  H  H129  1  0.451700  0.427400  0.426400  1
  H  H130  1  0.048300  0.572600  0.926400  1
  H  H131  1  0.322600  0.701700  0.676400  1
  H  H132  1  0.177400  0.298300  0.176400  1
  H  H133  1  0.951700  0.927400  0.926400  1
  H  H134  1  0.548300  0.072600  0.426400  1
  H  H135  1  0.822600  0.201700  0.176400  1
  H  H136  1  0.677400  0.798300  0.676400  1
  H  H137  1  0.548300  0.572600  0.573600  1
  H  H138  1  0.951700  0.427400  0.073600  1
  H  H139  1  0.677400  0.298300  0.323600  1
  H  H140  1  0.822600  0.701700  0.823600  1
  H  H141  1  0.048300  0.072600  0.073600  1
  H  H142  1  0.451700  0.927400  0.573600  1
  H  H143  1  0.177400  0.798300  0.823600  1
  H  H144  1  0.322600  0.201700  0.323600  1
  H  H145  1  0.343700  0.329600  0.344800  1
  H  H146  1  0.156300  0.670400  0.844800  1
  H  H147  1  0.420400  0.593700  0.594800  1
  H  H148  1  0.079600  0.406300  0.094800  1
  H  H149  1  0.843700  0.829600  0.844800  1
  H  H150  1  0.656300  0.170400  0.344800  1
  H  H151  1  0.920400  0.093700  0.094800  1
  H  H152  1  0.579600  0.906300  0.594800  1
  H  H153  1  0.656300  0.670400  0.655200  1
  H  H154  1  0.843700  0.329600  0.155200  1
  H  H155  1  0.579600  0.406300  0.405200  1
  H  H156  1  0.920400  0.593700  0.905200  1
  H  H157  1  0.156300  0.170400  0.155200  1
  H  H158  1  0.343700  0.829600  0.655200  1
  H  H159  1  0.079600  0.906300  0.905200  1
  H  H160  1  0.420400  0.093700  0.405200  1
  H  H161  1  0.390100  0.291100  0.335600  1
  H  H162  1  0.109900  0.708900  0.835600  1
  H  H163  1  0.458900  0.640100  0.585600  1
  H  H164  1  0.041100  0.359900  0.085600  1
  H  H165  1  0.890100  0.791100  0.835600  1
  H  H166  1  0.609900  0.208900  0.335600  1
  H  H167  1  0.958900  0.140100  0.085600  1
  H  H168  1  0.541100  0.859900  0.585600  1
  H  H169  1  0.609900  0.708900  0.664400  1
  H  H170  1  0.890100  0.291100  0.164400  1
  H  H171  1  0.541100  0.359900  0.414400  1
  H  H172  1  0.958900  0.640100  0.914400  1
  H  H173  1  0.109900  0.208900  0.164400  1
  H  H174  1  0.390100  0.791100  0.664400  1
  H  H175  1  0.041100  0.859900  0.914400  1
  H  H176  1  0.458900  0.140100  0.414400  1
  H  H177  1  0.388100  0.345500  0.312300  1
  H  H178  1  0.111900  0.654500  0.812300  1
  H  H179  1  0.404500  0.638100  0.562300  1
  H  H180  1  0.095500  0.361900  0.062300  1
  H  H181  1  0.888100  0.845500  0.812300  1
  H  H182  1  0.611900  0.154500  0.312300  1
  H  H183  1  0.904500  0.138100  0.062300  1
  H  H184  1  0.595500  0.861900  0.562300  1
  H  H185  1  0.611900  0.654500  0.687700  1
  H  H186  1  0.888100  0.345500  0.187700  1
  H  H187  1  0.595500  0.361900  0.437700  1
  H  H188  1  0.904500  0.638100  0.937700  1
  H  H189  1  0.111900  0.154500  0.187700  1
  H  H190  1  0.388100  0.845500  0.687700  1
  H  H191  1  0.095500  0.861900  0.937700  1
  H  H192  1  0.404500  0.138100  0.437700  1
  H  H193  1  0.459800  0.382600  0.493300  1
  H  H194  1  0.040200  0.617400  0.993300  1
  H  H195  1  0.367400  0.709800  0.743300  1
  H  H196  1  0.132600  0.290200  0.243300  1
  H  H197  1  0.959800  0.882600  0.993300  1
  H  H198  1  0.540200  0.117400  0.493300  1
  H  H199  1  0.867400  0.209800  0.243300  1
  H  H200  1  0.632600  0.790200  0.743300  1
  H  H201  1  0.540200  0.617400  0.506700  1
  H  H202  1  0.959800  0.382600  0.006700  1
  H  H203  1  0.632600  0.290200  0.256700  1
  H  H204  1  0.867400  0.709800  0.756700  1
  H  H205  1  0.040200  0.117400  0.006700  1
  H  H206  1  0.459800  0.882600  0.506700  1
  H  H207  1  0.132600  0.790200  0.756700  1
  H  H208  1  0.367400  0.209800  0.256700  1
  H  H209  1  0.446000  0.343000  0.456300  1
  H  H210  1  0.054000  0.657000  0.956300  1
  H  H211  1  0.407000  0.696000  0.706300  1
  H  H212  1  0.093000  0.304000  0.206300  1
  H  H213  1  0.946000  0.843000  0.956300  1
  H  H214  1  0.554000  0.157000  0.456300  1
  H  H215  1  0.907000  0.196000  0.206300  1
  H  H216  1  0.593000  0.804000  0.706300  1
  H  H217  1  0.554000  0.657000  0.543700  1
  H  H218  1  0.946000  0.343000  0.043700  1
  H  H219  1  0.593000  0.304000  0.293700  1
  H  H220  1  0.907000  0.696000  0.793700  1
  H  H221  1  0.054000  0.157000  0.043700  1
  H  H222  1  0.446000  0.843000  0.543700  1
  H  H223  1  0.093000  0.804000  0.793700  1
  H  H224  1  0.407000  0.196000  0.293700  1
  H  H225  1  0.146800  0.529800  0.424800  1
  H  H226  1  0.353200  0.470200  0.924800  1
  H  H227  1  0.220200  0.396800  0.674800  1
  H  H228  1  0.279800  0.603200  0.174800  1
  H  H229  1  0.646800  0.029800  0.924800  1
  H  H230  1  0.853200  0.970200  0.424800  1
  H  H231  1  0.720200  0.896800  0.174800  1
  H  H232  1  0.779800  0.103200  0.674800  1
  H  H233  1  0.853200  0.470200  0.575200  1
  H  H234  1  0.646800  0.529800  0.075200  1
  H  H235  1  0.779800  0.603200  0.325200  1
  H  H236  1  0.720200  0.396800  0.825200  1
  H  H237  1  0.353200  0.970200  0.075200  1
  H  H238  1  0.146800  0.029800  0.575200  1
  H  H239  1  0.279800  0.103200  0.825200  1
  H  H240  1  0.220200  0.896800  0.325200  1
  H  H241  1  0.190800  0.487100  0.425600  1
  H  H242  1  0.309200  0.512900  0.925600  1
  H  H243  1  0.262900  0.440800  0.675600  1
  H  H244  1  0.237100  0.559200  0.175600  1
  H  H245  1  0.690800  0.987100  0.925600  1
  H  H246  1  0.809200  0.012900  0.425600  1
  H  H247  1  0.762900  0.940800  0.175600  1
  H  H248  1  0.737100  0.059200  0.675600  1
  H  H249  1  0.809200  0.512900  0.574400  1
  H  H250  1  0.690800  0.487100  0.074400  1
  H  H251  1  0.737100  0.559200  0.324400  1
  H  H252  1  0.762900  0.440800  0.824400  1
  H  H253  1  0.309200  0.012900  0.074400  1
  H  H254  1  0.190800  0.987100  0.574400  1
  H  H255  1  0.237100  0.059200  0.824400  1
  H  H256  1  0.262900  0.940800  0.324400  1
  H  H257  1  0.167600  0.506000  0.381300  1
  H  H258  1  0.332400  0.494000  0.881300  1
  H  H259  1  0.244000  0.417600  0.631300  1
  H  H260  1  0.256000  0.582400  0.131300  1
  H  H261  1  0.667600  0.006000  0.881300  1
  H  H262  1  0.832400  0.994000  0.381300  1
  H  H263  1  0.744000  0.917600  0.131300  1
  H  H264  1  0.756000  0.082400  0.631300  1
  H  H265  1  0.832400  0.494000  0.618700  1
  H  H266  1  0.667600  0.506000  0.118700  1
  H  H267  1  0.756000  0.582400  0.368700  1
  H  H268  1  0.744000  0.417600  0.868700  1
  H  H269  1  0.332400  0.994000  0.118700  1
  H  H270  1  0.167600  0.006000  0.618700  1
  H  H271  1  0.256000  0.082400  0.868700  1
  H  H272  1  0.244000  0.917600  0.368700  1
  H  H273  1  0.199900  0.583900  0.467700  1
  H  H274  1  0.300100  0.416100  0.967700  1
  H  H275  1  0.166100  0.449900  0.717700  1
  H  H276  1  0.333900  0.550100  0.217700  1
  H  H277  1  0.699900  0.083900  0.967700  1
  H  H278  1  0.800100  0.916100  0.467700  1
  H  H279  1  0.666100  0.949900  0.217700  1
  H  H280  1  0.833900  0.050100  0.717700  1
  H  H281  1  0.800100  0.416100  0.532300  1
  H  H282  1  0.699900  0.583900  0.032300  1
  H  H283  1  0.833900  0.550100  0.282300  1
  H  H284  1  0.666100  0.449900  0.782300  1
  H  H285  1  0.300100  0.916100  0.032300  1
  H  H286  1  0.199900  0.083900  0.532300  1
  H  H287  1  0.333900  0.050100  0.782300  1
  H  H288  1  0.166100  0.949900  0.282300  1
  H  H289  1  0.257300  0.599600  0.455700  1
  H  H290  1  0.242700  0.400400  0.955700  1
  H  H291  1  0.150400  0.507300  0.705700  1
  H  H292  1  0.349600  0.492700  0.205700  1
  H  H293  1  0.757300  0.099600  0.955700  1
  H  H294  1  0.742700  0.900400  0.455700  1
  H  H295  1  0.650400  0.007300  0.205700  1
  H  H296  1  0.849600  0.992700  0.705700  1
  H  H297  1  0.742700  0.400400  0.544300  1
  H  H298  1  0.757300  0.599600  0.044300  1
  H  H299  1  0.849600  0.492700  0.294300  1
  H  H300  1  0.650400  0.507300  0.794300  1
  H  H301  1  0.242700  0.900400  0.044300  1
  H  H302  1  0.257300  0.099600  0.544300  1
  H  H303  1  0.349600  0.992700  0.794300  1
  H  H304  1  0.150400  0.007300  0.294300  1
  H  H305  1  0.244200  0.541500  0.467600  1
  H  H306  1  0.255800  0.458500  0.967600  1
  H  H307  1  0.208500  0.494200  0.717600  1
  H  H308  1  0.291500  0.505800  0.217600  1
  H  H309  1  0.744200  0.041500  0.967600  1
  H  H310  1  0.755800  0.958500  0.467600  1
  H  H311  1  0.708500  0.994200  0.217600  1
  H  H312  1  0.791500  0.005800  0.717600  1
  H  H313  1  0.755800  0.458500  0.532400  1
  H  H314  1  0.744200  0.541500  0.032400  1
  H  H315  1  0.791500  0.505800  0.282400  1
  H  H316  1  0.708500  0.494200  0.782400  1
  H  H317  1  0.255800  0.958500  0.032400  1
  H  H318  1  0.244200  0.041500  0.532400  1
  H  H319  1  0.291500  0.005800  0.782400  1
  H  H320  1  0.208500  0.994200  0.282400  1
  H  H321  1  0.172400  0.620700  0.402900  1
  H  H322  1  0.327600  0.379300  0.902900  1
  H  H323  1  0.129300  0.422400  0.652900  1
  H  H324  1  0.370700  0.577600  0.152900  1
  H  H325  1  0.672400  0.120700  0.902900  1
  H  H326  1  0.827600  0.879300  0.402900  1
  H  H327  1  0.629300  0.922400  0.152900  1
  H  H328  1  0.870700  0.077600  0.652900  1
  H  H329  1  0.827600  0.379300  0.597100  1
  H  H330  1  0.672400  0.620700  0.097100  1
  H  H331  1  0.870700  0.577600  0.347100  1
  H  H332  1  0.629300  0.422400  0.847100  1
  H  H333  1  0.327600  0.879300  0.097100  1
  H  H334  1  0.172400  0.120700  0.597100  1
  H  H335  1  0.370700  0.077600  0.847100  1
  H  H336  1  0.129300  0.922400  0.347100  1
  H  H337  1  0.181400  0.590900  0.358800  1
  H  H338  1  0.318600  0.409100  0.858800  1
  H  H339  1  0.159100  0.431400  0.608800  1
  H  H340  1  0.340900  0.568600  0.108800  1
  H  H341  1  0.681400  0.090900  0.858800  1
  H  H342  1  0.818600  0.909100  0.358800  1
  H  H343  1  0.659100  0.931400  0.108800  1
  H  H344  1  0.840900  0.068600  0.608800  1
  H  H345  1  0.818600  0.409100  0.641200  1
  H  H346  1  0.681400  0.590900  0.141200  1
  H  H347  1  0.840900  0.568600  0.391200  1
  H  H348  1  0.659100  0.431400  0.891200  1
  H  H349  1  0.318600  0.909100  0.141200  1
  H  H350  1  0.181400  0.090900  0.641200  1
  H  H351  1  0.340900  0.068600  0.891200  1
  H  H352  1  0.159100  0.931400  0.391200  1
  H  H353  1  0.253600  0.652300  0.401500  1
  H  H354  1  0.246400  0.347700  0.901500  1
  H  H355  1  0.097700  0.503600  0.651500  1
  H  H356  1  0.402300  0.496400  0.151500  1
  H  H357  1  0.753600  0.152300  0.901500  1
  H  H358  1  0.746400  0.847700  0.401500  1
  H  H359  1  0.597700  0.003600  0.151500  1
  H  H360  1  0.902300  0.996400  0.651500  1
  H  H361  1  0.746400  0.347700  0.598500  1
  H  H362  1  0.753600  0.652300  0.098500  1
  H  H363  1  0.902300  0.496400  0.348500  1
  H  H364  1  0.597700  0.503600  0.848500  1
  H  H365  1  0.246400  0.847700  0.098500  1
  H  H366  1  0.253600  0.152300  0.598500  1
  H  H367  1  0.402300  0.996400  0.848500  1
  H  H368  1  0.097700  0.003600  0.348500  1
  H  H369  1  0.226600  0.665900  0.357300  1
  H  H370  1  0.273400  0.334100  0.857300  1
  H  H371  1  0.084100  0.476600  0.607300  1
  H  H372  1  0.415900  0.523400  0.107300  1
  H  H373  1  0.726600  0.165900  0.857300  1
  H  H374  1  0.773400  0.834100  0.357300  1
  H  H375  1  0.584100  0.976600  0.107300  1
  H  H376  1  0.915900  0.023400  0.607300  1
  H  H377  1  0.773400  0.334100  0.642700  1
  H  H378  1  0.726600  0.665900  0.142700  1
  H  H379  1  0.915900  0.523400  0.392700  1
  H  H380  1  0.584100  0.476600  0.892700  1
  H  H381  1  0.273400  0.834100  0.142700  1
  H  H382  1  0.226600  0.165900  0.642700  1
  H  H383  1  0.415900  0.023400  0.892700  1
  H  H384  1  0.084100  0.976600  0.392700  1
  H  H385  1  0.270300  0.639800  0.293500  1
  H  H386  1  0.229700  0.360200  0.793500  1
  H  H387  1  0.110200  0.520300  0.543500  1
  H  H388  1  0.389800  0.479700  0.043500  1
  H  H389  1  0.770300  0.139800  0.793500  1
  H  H390  1  0.729700  0.860200  0.293500  1
  H  H391  1  0.610200  0.020300  0.043500  1
  H  H392  1  0.889800  0.979700  0.543500  1
  H  H393  1  0.729700  0.360200  0.706500  1
  H  H394  1  0.770300  0.639800  0.206500  1
  H  H395  1  0.889800  0.479700  0.456500  1
  H  H396  1  0.610200  0.520300  0.956500  1
  H  H397  1  0.229700  0.860200  0.206500  1
  H  H398  1  0.270300  0.139800  0.706500  1
  H  H399  1  0.389800  0.979700  0.956500  1
  H  H400  1  0.110200  0.020300  0.456500  1
  H  H401  1  0.235000  0.591700  0.305100  1
  H  H402  1  0.265000  0.408300  0.805100  1
  H  H403  1  0.158300  0.485000  0.555100  1
  H  H404  1  0.341700  0.515000  0.055100  1
  H  H405  1  0.735000  0.091700  0.805100  1
  H  H406  1  0.765000  0.908300  0.305100  1
  H  H407  1  0.658300  0.985000  0.055100  1
  H  H408  1  0.841700  0.015000  0.555100  1
  H  H409  1  0.765000  0.408300  0.694900  1
  H  H410  1  0.735000  0.591700  0.194900  1
  H  H411  1  0.841700  0.515000  0.444900  1
  H  H412  1  0.658300  0.485000  0.944900  1
  H  H413  1  0.265000  0.908300  0.194900  1
  H  H414  1  0.235000  0.091700  0.694900  1
  H  H415  1  0.341700  0.015000  0.944900  1
  H  H416  1  0.158300  0.985000  0.444900  1
  H  H417  1  0.293100  0.583000  0.290600  1
  H  H418  1  0.206900  0.417000  0.790600  1
  H  H419  1  0.167000  0.543100  0.540600  1
  H  H420  1  0.333000  0.456900  0.040600  1
  H  H421  1  0.793100  0.083000  0.790600  1
  H  H422  1  0.706900  0.917000  0.290600  1
  H  H423  1  0.667000  0.043100  0.040600  1
  H  H424  1  0.833000  0.956900  0.540600  1
  H  H425  1  0.706900  0.417000  0.709400  1
  H  H426  1  0.793100  0.583000  0.209400  1
  H  H427  1  0.833000  0.456900  0.459400  1
  H  H428  1  0.667000  0.543100  0.959400  1
  H  H429  1  0.206900  0.917000  0.209400  1
  H  H430  1  0.293100  0.083000  0.709400  1
  H  H431  1  0.333000  0.956900  0.959400  1
  H  H432  1  0.167000  0.043100  0.459400  1
  H  H433  1  0.330100  0.675400  0.356900  1
  H  H434  1  0.169900  0.324600  0.856900  1
  H  H435  1  0.074600  0.580100  0.606900  1
  H  H436  1  0.425400  0.419900  0.106900  1
  H  H437  1  0.830100  0.175400  0.856900  1
  H  H438  1  0.669900  0.824600  0.356900  1
  H  H439  1  0.574600  0.080100  0.106900  1
  H  H440  1  0.925400  0.919900  0.606900  1
  H  H441  1  0.669900  0.324600  0.643100  1
  H  H442  1  0.830100  0.675400  0.143100  1
  H  H443  1  0.925400  0.419900  0.393100  1
  H  H444  1  0.574600  0.580100  0.893100  1
  H  H445  1  0.169900  0.824600  0.143100  1
  H  H446  1  0.330100  0.175400  0.643100  1
  H  H447  1  0.425400  0.919900  0.893100  1
  H  H448  1  0.074600  0.080100  0.393100  1
  H  H449  1  0.362600  0.624300  0.365000  1
  H  H450  1  0.137400  0.375700  0.865000  1
  H  H451  1  0.125700  0.612600  0.615000  1
  H  H452  1  0.374300  0.387400  0.115000  1
  H  H453  1  0.862600  0.124300  0.865000  1
  H  H454  1  0.637400  0.875700  0.365000  1
  H  H455  1  0.625700  0.112600  0.115000  1
  H  H456  1  0.874300  0.887400  0.615000  1
  H  H457  1  0.637400  0.375700  0.635000  1
  H  H458  1  0.862600  0.624300  0.135000  1
  H  H459  1  0.874300  0.387400  0.385000  1
  H  H460  1  0.625700  0.612600  0.885000  1
  H  H461  1  0.137400  0.875700  0.135000  1
  H  H462  1  0.362600  0.124300  0.635000  1
  H  H463  1  0.374300  0.887400  0.885000  1
  H  H464  1  0.125700  0.112600  0.385000  1
  H  H465  1  0.323500  0.644400  0.400300  1
  H  H466  1  0.176500  0.355600  0.900300  1
  H  H467  1  0.105600  0.573500  0.650300  1
  H  H468  1  0.394400  0.426500  0.150300  1
  H  H469  1  0.823500  0.144400  0.900300  1
  H  H470  1  0.676500  0.855600  0.400300  1
  H  H471  1  0.605600  0.073500  0.150300  1
  H  H472  1  0.894400  0.926500  0.650300  1
  H  H473  1  0.676500  0.355600  0.599700  1
  H  H474  1  0.823500  0.644400  0.099700  1
  H  H475  1  0.894400  0.426500  0.349700  1
  H  H476  1  0.605600  0.573500  0.849700  1
  H  H477  1  0.176500  0.855600  0.099700  1
  H  H478  1  0.323500  0.144400  0.599700  1
  H  H479  1  0.394400  0.926500  0.849700  1
  H  H480  1  0.105600  0.073500  0.349700  1
  H  H481  1  0.649500  0.350800  0.371100  1.0
  H  H482  1  0.850500  0.649200  0.871100  1.0
  H  H483  1  0.399200  0.899500  0.621100  1.0
  H  H484  1  0.100800  0.100500  0.121100  1.0
  H  H485  1  0.149500  0.850800  0.871100  1.0
  H  H486  1  0.350500  0.149200  0.371100  1.0
  H  H487  1  0.899200  0.399500  0.121100  1.0
  H  H488  1  0.600800  0.600500  0.621100  1.0
  H  H489  1  0.350500  0.649200  0.628900  1.0
  H  H490  1  0.149500  0.350800  0.128900  1.0
  H  H491  1  0.600800  0.100500  0.378900  1.0
  H  H492  1  0.899200  0.899500  0.878900  1.0
  H  H493  1  0.850500  0.149200  0.128900  1.0
  H  H494  1  0.649500  0.850800  0.628900  1.0
  H  H495  1  0.100800  0.600500  0.878900  1.0
  H  H496  1  0.399200  0.399500  0.378900  1.0
  H  H497  1  0.503700  0.347400  0.473100  1.0
  H  H498  1  0.996300  0.652600  0.973100  1.0
  H  H499  1  0.402600  0.753700  0.723100  1.0
  H  H500  1  0.097400  0.246300  0.223100  1.0
  H  H501  1  0.003700  0.847400  0.973100  1.0
  H  H502  1  0.496300  0.152600  0.473100  1.0
  H  H503  1  0.902600  0.253700  0.223100  1.0
  H  H504  1  0.597400  0.746300  0.723100  1.0
  H  H505  1  0.496300  0.652600  0.526900  1.0
  H  H506  1  0.003700  0.347400  0.026900  1.0
  H  H507  1  0.597400  0.246300  0.276900  1.0
  H  H508  1  0.902600  0.753700  0.776900  1.0
  H  H509  1  0.996300  0.152600  0.026900  1.0
  H  H510  1  0.503700  0.847400  0.526900  1.0
  H  H511  1  0.097400  0.746300  0.776900  1.0
  H  H512  1  0.402600  0.253700  0.276900  1.0
  H  H513  1  0.557200  0.342600  0.477700  1.0
  H  H514  1  0.942800  0.657400  0.977700  1.0
  H  H515  1  0.407400  0.807200  0.727700  1.0
  H  H516  1  0.092600  0.192800  0.227700  1.0
  H  H517  1  0.057200  0.842600  0.977700  1.0
  H  H518  1  0.442800  0.157400  0.477700  1.0
  H  H519  1  0.907400  0.307200  0.227700  1.0
  H  H520  1  0.592600  0.692800  0.727700  1.0
  H  H521  1  0.442800  0.657400  0.522300  1.0
  H  H522  1  0.057200  0.342600  0.022300  1.0
  H  H523  1  0.592600  0.192800  0.272300  1.0
  H  H524  1  0.907400  0.807200  0.772300  1.0
  H  H525  1  0.942800  0.157400  0.022300  1.0
  H  H526  1  0.557200  0.842600  0.522300  1.0
  H  H527  1  0.092600  0.692800  0.772300  1.0
  H  H528  1  0.407400  0.307200  0.272300  1.0
  H  H529  1  0.615600  0.383300  0.424800  1.0
  H  H530  1  0.884400  0.616700  0.924800  1.0
  H  H531  1  0.366700  0.865600  0.674800  1.0
  H  H532  1  0.133300  0.134400  0.174800  1.0
  H  H533  1  0.115600  0.883300  0.924800  1.0
  H  H534  1  0.384400  0.116700  0.424800  1.0
  H  H535  1  0.866700  0.365600  0.174800  1.0
  H  H536  1  0.633300  0.634400  0.674800  1.0
  H  H537  1  0.384400  0.616700  0.575200  1.0
  H  H538  1  0.115600  0.383300  0.075200  1.0
  H  H539  1  0.633300  0.134400  0.325200  1.0
  H  H540  1  0.866700  0.865600  0.825200  1.0
  H  H541  1  0.884400  0.116700  0.075200  1.0
  H  H542  1  0.615600  0.883300  0.575200  1.0
  H  H543  1  0.133300  0.634400  0.825200  1.0
  H  H544  1  0.366700  0.365600  0.325200  1.0
  H  H545  1  0.608500  0.187800  0.399800  1.0
  H  H546  1  0.891500  0.812200  0.899800  1.0
  H  H547  1  0.562200  0.858500  0.649800  1.0
  H  H548  1  0.937800  0.141500  0.149800  1.0
  H  H549  1  0.108500  0.687800  0.899800  1.0
  H  H550  1  0.391500  0.312200  0.399800  1.0
  H  H551  1  0.062200  0.358500  0.149800  1.0
  H  H552  1  0.437800  0.641500  0.649800  1.0
  H  H553  1  0.391500  0.812200  0.600200  1.0
  H  H554  1  0.108500  0.187800  0.100200  1.0
  H  H555  1  0.437800  0.141500  0.350200  1.0
  H  H556  1  0.062200  0.858500  0.850200  1.0
  H  H557  1  0.891500  0.312200  0.100200  1.0
  H  H558  1  0.608500  0.687800  0.600200  1.0
  H  H559  1  0.937800  0.641500  0.850200  1.0
  H  H560  1  0.562200  0.358500  0.350200  1.0
  H  H561  1  0.674900  0.208500  0.357000  1.0
  H  H562  1  0.825100  0.791500  0.857000  1.0
  H  H563  1  0.541500  0.924900  0.607000  1.0
  H  H564  1  0.958500  0.075100  0.107000  1.0
  H  H565  1  0.174900  0.708500  0.857000  1.0
  H  H566  1  0.325100  0.291500  0.357000  1.0
  H  H567  1  0.041500  0.424900  0.107000  1.0
  H  H568  1  0.458500  0.575100  0.607000  1.0
  H  H569  1  0.325100  0.791500  0.643000  1.0
  H  H570  1  0.174900  0.208500  0.143000  1.0
  H  H571  1  0.458500  0.075100  0.393000  1.0
  H  H572  1  0.041500  0.924900  0.893000  1.0
  H  H573  1  0.825100  0.291500  0.143000  1.0
  H  H574  1  0.674900  0.708500  0.643000  1.0
  H  H575  1  0.958500  0.575100  0.893000  1.0
  H  H576  1  0.541500  0.424900  0.393000  1.0
  H  H577  1  0.648600  0.260500  0.341100  1.0
  H  H578  1  0.851400  0.739500  0.841100  1.0
  H  H579  1  0.489500  0.898600  0.591100  1.0
  H  H580  1  0.010500  0.101400  0.091100  1.0
  H  H581  1  0.148600  0.760500  0.841100  1.0
  H  H582  1  0.351400  0.239500  0.341100  1.0
  H  H583  1  0.989500  0.398600  0.091100  1.0
  H  H584  1  0.510500  0.601400  0.591100  1.0
  H  H585  1  0.351400  0.739500  0.658900  1.0
  H  H586  1  0.148600  0.260500  0.158900  1.0
  H  H587  1  0.510500  0.101400  0.408900  1.0
  H  H588  1  0.989500  0.898600  0.908900  1.0
  H  H589  1  0.851400  0.239500  0.158900  1.0
  H  H590  1  0.648600  0.760500  0.658900  1.0
  H  H591  1  0.010500  0.601400  0.908900  1.0
  H  H592  1  0.489500  0.398600  0.408900  1.0
  H  H593  1  0.551800  0.405900  0.465100  1.0
  H  H594  1  0.948200  0.594100  0.965100  1.0
  H  H595  1  0.344100  0.801800  0.715100  1.0
  H  H596  1  0.155900  0.198200  0.215100  1.0
  H  H597  1  0.051800  0.905900  0.965100  1.0
  H  H598  1  0.448200  0.094100  0.465100  1.0
  H  H599  1  0.844100  0.301800  0.215100  1.0
  H  H600  1  0.655900  0.698200  0.715100  1.0
  H  H601  1  0.448200  0.594100  0.534900  1.0
  H  H602  1  0.051800  0.405900  0.034900  1.0
  H  H603  1  0.655900  0.198200  0.284900  1.0
  H  H604  1  0.844100  0.801800  0.784900  1.0
  H  H605  1  0.948200  0.094100  0.034900  1.0
  H  H606  1  0.551800  0.905900  0.534900  1.0
  H  H607  1  0.155900  0.698200  0.784900  1.0
  H  H608  1  0.344100  0.301800  0.284900  1.0
  H  H609  1  0.589100  0.368800  0.439100  1.0
  H  H610  1  0.910900  0.631200  0.939100  1.0
  H  H611  1  0.381200  0.839100  0.689100  1.0
  H  H612  1  0.118800  0.160900  0.189100  1.0
  H  H613  1  0.089100  0.868800  0.939100  1.0
  H  H614  1  0.410900  0.131200  0.439100  1.0
  H  H615  1  0.881200  0.339100  0.189100  1.0
  H  H616  1  0.618800  0.660900  0.689100  1.0
  H  H617  1  0.410900  0.631200  0.560900  1.0
  H  H618  1  0.089100  0.368800  0.060900  1.0
  H  H619  1  0.618800  0.160900  0.310900  1.0
  H  H620  1  0.881200  0.839100  0.810900  1.0
  H  H621  1  0.910900  0.131200  0.060900  1.0
  H  H622  1  0.589100  0.868800  0.560900  1.0
  H  H623  1  0.118800  0.660900  0.810900  1.0
  H  H624  1  0.381200  0.339100  0.310900  1.0
  H  H625  1  0.551100  0.312700  0.485600  1.0
  H  H626  1  0.948900  0.687300  0.985600  1.0
  H  H627  1  0.437300  0.801100  0.735600  1.0
  H  H628  1  0.062700  0.198900  0.235600  1.0
  H  H629  1  0.051100  0.812700  0.985600  1.0
  H  H630  1  0.448900  0.187300  0.485600  1.0
  H  H631  1  0.937300  0.301100  0.235600  1.0
  H  H632  1  0.562700  0.698900  0.735600  1.0
  H  H633  1  0.448900  0.687300  0.514400  1.0
  H  H634  1  0.051100  0.312700  0.014400  1.0
  H  H635  1  0.562700  0.198900  0.264400  1.0
  H  H636  1  0.937300  0.801100  0.764400  1.0
  H  H637  1  0.948900  0.187300  0.014400  1.0
  H  H638  1  0.551100  0.812700  0.514400  1.0
  H  H639  1  0.062700  0.698900  0.764400  1.0
  H  H640  1  0.437300  0.301100  0.264400  1.0
  H  H641  1  0.496400  0.340500  0.482300  1.0
  H  H642  1  0.003600  0.659500  0.982300  1.0
  H  H643  1  0.409500  0.746400  0.732300  1.0
  H  H644  1  0.090500  0.253600  0.232300  1.0
  H  H645  1  0.996400  0.840500  0.982300  1.0
  H  H646  1  0.503600  0.159500  0.482300  1.0
  H  H647  1  0.909500  0.246400  0.232300  1.0
  H  H648  1  0.590500  0.753600  0.732300  1.0
  H  H649  1  0.503600  0.659500  0.517700  1.0
  H  H650  1  0.996400  0.340500  0.017700  1.0
  H  H651  1  0.590500  0.253600  0.267700  1.0
  H  H652  1  0.909500  0.746400  0.767700  1.0
  H  H653  1  0.003600  0.159500  0.017700  1.0
  H  H654  1  0.496400  0.840500  0.517700  1.0
  H  H655  1  0.090500  0.753600  0.767700  1.0
  H  H656  1  0.409500  0.246400  0.267700  1.0
  H  H657  1  0.473700  0.296100  0.424000  1.0
  H  H658  1  0.026300  0.703900  0.924000  1.0
  H  H659  1  0.453900  0.723700  0.674000  1.0
  H  H660  1  0.046100  0.276300  0.174000  1.0
  H  H661  1  0.973700  0.796100  0.924000  1.0
  H  H662  1  0.526300  0.203900  0.424000  1.0
  H  H663  1  0.953900  0.223700  0.174000  1.0
  H  H664  1  0.546100  0.776300  0.674000  1.0
  H  H665  1  0.526300  0.703900  0.576000  1.0
  H  H666  1  0.973700  0.296100  0.076000  1.0
  H  H667  1  0.546100  0.276300  0.326000  1.0
  H  H668  1  0.953900  0.723700  0.826000  1.0
  H  H669  1  0.026300  0.203900  0.076000  1.0
  H  H670  1  0.473700  0.796100  0.576000  1.0
  H  H671  1  0.046100  0.776300  0.826000  1.0
  H  H672  1  0.453900  0.223700  0.326000  1.0
  H  H673  1  0.514300  0.255300  0.441900  1.0
  H  H674  1  0.985700  0.744700  0.941900  1.0
  H  H675  1  0.494700  0.764300  0.691900  1.0
  H  H676  1  0.005300  0.235700  0.191900  1.0
  H  H677  1  0.014300  0.755300  0.941900  1.0
  H  H678  1  0.485700  0.244700  0.441900  1.0
  H  H679  1  0.994700  0.264300  0.191900  1.0
  H  H680  1  0.505300  0.735700  0.691900  1.0
  H  H681  1  0.485700  0.744700  0.558100  1.0
  H  H682  1  0.014300  0.255300  0.058100  1.0
  H  H683  1  0.505300  0.235700  0.308100  1.0
  H  H684  1  0.994700  0.764300  0.808100  1.0
  H  H685  1  0.985700  0.244700  0.058100  1.0
  H  H686  1  0.514300  0.755300  0.558100  1.0
  H  H687  1  0.005300  0.735700  0.808100  1.0
  H  H688  1  0.494700  0.264300  0.308100  1.0
  H  H689  1  0.580300  0.296500  0.398700  1.0
  H  H690  1  0.919700  0.703500  0.898700  1.0
  H  H691  1  0.453500  0.830300  0.648700  1.0
  H  H692  1  0.046500  0.169700  0.148700  1.0
  H  H693  1  0.080300  0.796500  0.898700  1.0
  H  H694  1  0.419700  0.203500  0.398700  1.0
  H  H695  1  0.953500  0.330300  0.148700  1.0
  H  H696  1  0.546500  0.669700  0.648700  1.0
  H  H697  1  0.419700  0.703500  0.601300  1.0
  H  H698  1  0.080300  0.296500  0.101300  1.0
  H  H699  1  0.546500  0.169700  0.351300  1.0
  H  H700  1  0.953500  0.830300  0.851300  1.0
  H  H701  1  0.919700  0.203500  0.101300  1.0
  H  H702  1  0.580300  0.796500  0.601300  1.0
  H  H703  1  0.046500  0.669700  0.851300  1.0
  H  H704  1  0.453500  0.330300  0.351300  1.0
  H  H705  1  0.536600  0.270000  0.370500  1.0
  H  H706  1  0.963400  0.730000  0.870500  1.0
  H  H707  1  0.480000  0.786600  0.620500  1.0
  H  H708  1  0.020000  0.213400  0.120500  1.0
  H  H709  1  0.036600  0.770000  0.870500  1.0
  H  H710  1  0.463400  0.230000  0.370500  1.0
  H  H711  1  0.980000  0.286600  0.120500  1.0
  H  H712  1  0.520000  0.713400  0.620500  1.0
  H  H713  1  0.463400  0.730000  0.629500  1.0
  H  H714  1  0.036600  0.270000  0.129500  1.0
  H  H715  1  0.520000  0.213400  0.379500  1.0
  H  H716  1  0.980000  0.786600  0.879500  1.0
  H  H717  1  0.963400  0.230000  0.129500  1.0
  H  H718  1  0.536600  0.770000  0.629500  1.0
  H  H719  1  0.020000  0.713400  0.879500  1.0
  H  H720  1  0.480000  0.286600  0.379500  1.0
  H  H721  1  0.433300  0.314700  0.140700  1.0
  H  H722  1  0.066700  0.685300  0.640700  1.0
  H  H723  1  0.435300  0.683300  0.390700  1.0
  H  H724  1  0.064700  0.316700  0.890700  1.0
  H  H725  1  0.933300  0.814700  0.640700  1.0
  H  H726  1  0.566700  0.185300  0.140700  1.0
  H  H727  1  0.935300  0.183300  0.890700  1.0
  H  H728  1  0.564700  0.816700  0.390700  1.0
  H  H729  1  0.566700  0.685300  0.859300  1.0
  H  H730  1  0.933300  0.314700  0.359300  1.0
  H  H731  1  0.564700  0.316700  0.609300  1.0
  H  H732  1  0.935300  0.683300  0.109300  1.0
  H  H733  1  0.066700  0.185300  0.359300  1.0
  H  H734  1  0.433300  0.814700  0.859300  1.0
  H  H735  1  0.064700  0.816700  0.109300  1.0
  H  H736  1  0.435300  0.183300  0.609300  1.0
  H  H737  1  0.438600  0.369000  0.198900  1.0
  H  H738  1  0.061400  0.631000  0.698900  1.0
  H  H739  1  0.381000  0.688600  0.448900  1.0
  H  H740  1  0.119000  0.311400  0.948900  1.0
  H  H741  1  0.938600  0.869000  0.698900  1.0
  H  H742  1  0.561400  0.131000  0.198900  1.0
  H  H743  1  0.881000  0.188600  0.948900  1.0
  H  H744  1  0.619000  0.811400  0.448900  1.0
  H  H745  1  0.561400  0.631000  0.801100  1.0
  H  H746  1  0.938600  0.369000  0.301100  1.0
  H  H747  1  0.619000  0.311400  0.551100  1.0
  H  H748  1  0.881000  0.688600  0.051100  1.0
  H  H749  1  0.061400  0.131000  0.301100  1.0
  H  H750  1  0.438600  0.869000  0.801100  1.0
  H  H751  1  0.119000  0.811400  0.051100  1.0
  H  H752  1  0.381000  0.188600  0.551100  1.0
  H  H753  1  0.592800  0.353500  0.195300  1.0
  H  H754  1  0.907200  0.646500  0.695300  1.0
  H  H755  1  0.396500  0.842800  0.445300  1.0
  H  H756  1  0.103500  0.157200  0.945300  1.0
  H  H757  1  0.092800  0.853500  0.695300  1.0
  H  H758  1  0.407200  0.146500  0.195300  1.0
  H  H759  1  0.896500  0.342800  0.945300  1.0
  H  H760  1  0.603500  0.657200  0.445300  1.0
  H  H761  1  0.407200  0.646500  0.804700  1.0
  H  H762  1  0.092800  0.353500  0.304700  1.0
  H  H763  1  0.603500  0.157200  0.554700  1.0
  H  H764  1  0.896500  0.842800  0.054700  1.0
  H  H765  1  0.907200  0.146500  0.304700  1.0
  H  H766  1  0.592800  0.853500  0.804700  1.0
  H  H767  1  0.103500  0.657200  0.054700  1.0
  H  H768  1  0.396500  0.342800  0.554700  1.0
  H  H769  1  0.583700  0.299500  0.137500  1.0
  H  H770  1  0.916300  0.700500  0.637500  1.0
  H  H771  1  0.450500  0.833700  0.387500  1.0
  H  H772  1  0.049500  0.166300  0.887500  1.0
  H  H773  1  0.083700  0.799500  0.637500  1.0
  H  H774  1  0.416300  0.200500  0.137500  1.0
  H  H775  1  0.950500  0.333700  0.887500  1.0
  H  H776  1  0.549500  0.666300  0.387500  1.0
  H  H777  1  0.416300  0.700500  0.862500  1.0
  H  H778  1  0.083700  0.299500  0.362500  1.0
  H  H779  1  0.549500  0.166300  0.612500  1.0
  H  H780  1  0.950500  0.833700  0.112500  1.0
  H  H781  1  0.916300  0.200500  0.362500  1.0
  H  H782  1  0.583700  0.799500  0.862500  1.0
  H  H783  1  0.049500  0.666300  0.112500  1.0
  H  H784  1  0.450500  0.333700  0.612500  1.0
  H  H785  1  0.399000  0.540900  0.390300  1.0
  H  H786  1  0.101000  0.459100  0.890300  1.0
  H  H787  1  0.209100  0.649000  0.640300  1.0
  H  H788  1  0.290900  0.351000  0.140300  1.0
  H  H789  1  0.899000  0.040900  0.890300  1.0
  H  H790  1  0.601000  0.959100  0.390300  1.0
  H  H791  1  0.709100  0.149000  0.140300  1.0
  H  H792  1  0.790900  0.851000  0.640300  1.0
  H  H793  1  0.601000  0.459100  0.609700  1.0
  H  H794  1  0.899000  0.540900  0.109700  1.0
  H  H795  1  0.790900  0.351000  0.359700  1.0
  H  H796  1  0.709100  0.649000  0.859700  1.0
  H  H797  1  0.101000  0.959100  0.109700  1.0
  H  H798  1  0.399000  0.040900  0.609700  1.0
  H  H799  1  0.290900  0.851000  0.859700  1.0
  H  H800  1  0.209100  0.149000  0.359700  1.0
  H  H801  1  0.473200  0.507800  0.360000  1.0
  H  H802  1  0.026800  0.492200  0.860000  1.0
  H  H803  1  0.242200  0.723200  0.610000  1.0
  H  H804  1  0.257800  0.276800  0.110000  1.0
  H  H805  1  0.973200  0.007800  0.860000  1.0
  H  H806  1  0.526800  0.992200  0.360000  1.0
  H  H807  1  0.742200  0.223200  0.110000  1.0
  H  H808  1  0.757800  0.776800  0.610000  1.0
  H  H809  1  0.526800  0.492200  0.640000  1.0
  H  H810  1  0.973200  0.507800  0.140000  1.0
  H  H811  1  0.757800  0.276800  0.390000  1.0
  H  H812  1  0.742200  0.723200  0.890000  1.0
  H  H813  1  0.026800  0.992200  0.140000  1.0
  H  H814  1  0.473200  0.007800  0.640000  1.0
  H  H815  1  0.257800  0.776800  0.890000  1.0
  H  H816  1  0.242200  0.223200  0.390000  1.0
  H  H817  1  0.386900  0.444900  0.266700  1.0
  H  H818  1  0.113100  0.555100  0.766700  1.0
  H  H819  1  0.305100  0.636900  0.516700  1.0
  H  H820  1  0.194900  0.363100  0.016700  1.0
  H  H821  1  0.886900  0.944900  0.766700  1.0
  H  H822  1  0.613100  0.055100  0.266700  1.0
  H  H823  1  0.805100  0.136900  0.016700  1.0
  H  H824  1  0.694900  0.863100  0.516700  1.0
  H  H825  1  0.613100  0.555100  0.733300  1.0
  H  H826  1  0.886900  0.444900  0.233300  1.0
  H  H827  1  0.694900  0.363100  0.483300  1.0
  H  H828  1  0.805100  0.636900  0.983300  1.0
  H  H829  1  0.113100  0.055100  0.233300  1.0
  H  H830  1  0.386900  0.944900  0.733300  1.0
  H  H831  1  0.194900  0.863100  0.983300  1.0
  H  H832  1  0.305100  0.136900  0.483300  1.0
  H  H833  1  0.314500  0.480300  0.298700  1.0
  H  H834  1  0.185500  0.519700  0.798700  1.0
  H  H835  1  0.269700  0.564500  0.548700  1.0
  H  H836  1  0.230300  0.435500  0.048700  1.0
  H  H837  1  0.814500  0.980300  0.798700  1.0
  H  H838  1  0.685500  0.019700  0.298700  1.0
  H  H839  1  0.769700  0.064500  0.048700  1.0
  H  H840  1  0.730300  0.935500  0.548700  1.0
  H  H841  1  0.685500  0.519700  0.701300  1.0
  H  H842  1  0.814500  0.480300  0.201300  1.0
  H  H843  1  0.730300  0.435500  0.451300  1.0
  H  H844  1  0.769700  0.564500  0.951300  1.0
  H  H845  1  0.185500  0.019700  0.201300  1.0
  H  H846  1  0.314500  0.980300  0.701300  1.0
  H  H847  1  0.230300  0.935500  0.951300  1.0
  H  H848  1  0.269700  0.064500  0.451300  1.0
  H  H849  1  0.325200  0.491800  0.456300  1.0
  H  H850  1  0.174800  0.508200  0.956300  1.0
  H  H851  1  0.258200  0.575200  0.706300  1.0
  H  H852  1  0.241800  0.424800  0.206300  1.0
  H  H853  1  0.825200  0.991800  0.956300  1.0
  H  H854  1  0.674800  0.008200  0.456300  1.0
  H  H855  1  0.758200  0.075200  0.206300  1.0
  H  H856  1  0.741800  0.924800  0.706300  1.0
  H  H857  1  0.674800  0.508200  0.543700  1.0
  H  H858  1  0.825200  0.491800  0.043700  1.0
  H  H859  1  0.741800  0.424800  0.293700  1.0
  H  H860  1  0.758200  0.575200  0.793700  1.0
  H  H861  1  0.174800  0.008200  0.043700  1.0
  H  H862  1  0.325200  0.991800  0.543700  1.0
  H  H863  1  0.241800  0.924800  0.793700  1.0
  H  H864  1  0.258200  0.075200  0.293700  1.0
  H  H865  1  0.338800  0.411900  0.486400  1.0
  H  H866  1  0.161200  0.588100  0.986400  1.0
  H  H867  1  0.338100  0.588800  0.736400  1.0
  H  H868  1  0.161900  0.411200  0.236400  1.0
  H  H869  1  0.838800  0.911900  0.986400  1.0
  H  H870  1  0.661200  0.088100  0.486400  1.0
  H  H871  1  0.838100  0.088800  0.236400  1.0
  H  H872  1  0.661900  0.911200  0.736400  1.0
  H  H873  1  0.661200  0.588100  0.513600  1.0
  H  H874  1  0.838800  0.411900  0.013600  1.0
  H  H875  1  0.661900  0.411200  0.263600  1.0
  H  H876  1  0.838100  0.588800  0.763600  1.0
  H  H877  1  0.161200  0.088100  0.013600  1.0
  H  H878  1  0.338800  0.911900  0.513600  1.0
  H  H879  1  0.161900  0.911200  0.763600  1.0
  H  H880  1  0.338100  0.088800  0.263600  1.0
  H  H881  1  0.259900  0.347800  0.389800  1.0
  H  H882  1  0.240100  0.652200  0.889800  1.0
  H  H883  1  0.402200  0.509900  0.639800  1.0
  H  H884  1  0.097800  0.490100  0.139800  1.0
  H  H885  1  0.759900  0.847800  0.889800  1.0
  H  H886  1  0.740100  0.152200  0.389800  1.0
  H  H887  1  0.902200  0.009900  0.139800  1.0
  H  H888  1  0.597800  0.990100  0.639800  1.0
  H  H889  1  0.740100  0.652200  0.610200  1.0
  H  H890  1  0.759900  0.347800  0.110200  1.0
  H  H891  1  0.597800  0.490100  0.360200  1.0
  H  H892  1  0.902200  0.509900  0.860200  1.0
  H  H893  1  0.240100  0.152200  0.110200  1.0
  H  H894  1  0.259900  0.847800  0.610200  1.0
  H  H895  1  0.097800  0.990100  0.860200  1.0
  H  H896  1  0.402200  0.009900  0.360200  1.0
  H  H897  1  0.250600  0.429700  0.360500  1.0
  H  H898  1  0.249400  0.570300  0.860500  1.0
  H  H899  1  0.320300  0.500600  0.610500  1.0
  H  H900  1  0.179700  0.499400  0.110500  1.0
  H  H901  1  0.750600  0.929700  0.860500  1.0
  H  H902  1  0.749400  0.070300  0.360500  1.0
  H  H903  1  0.820300  0.000600  0.110500  1.0
  H  H904  1  0.679700  0.999400  0.610500  1.0
  H  H905  1  0.749400  0.570300  0.639500  1.0
  H  H906  1  0.750600  0.429700  0.139500  1.0
  H  H907  1  0.679700  0.499400  0.389500  1.0
  H  H908  1  0.820300  0.500600  0.889500  1.0
  H  H909  1  0.249400  0.070300  0.139500  1.0
  H  H910  1  0.250600  0.929700  0.639500  1.0
  H  H911  1  0.179700  0.999400  0.889500  1.0
  H  H912  1  0.320300  0.000600  0.389500  1.0
  H  H913  1  0.431400  0.158600  0.011800  1.0
  H  H914  1  0.068600  0.841400  0.511800  1.0
  H  H915  1  0.591400  0.681400  0.261800  1.0
  H  H916  1  0.908600  0.318600  0.761800  1.0
  H  H917  1  0.931400  0.658600  0.511800  1.0
  H  H918  1  0.568600  0.341400  0.011800  1.0
  H  H919  1  0.091400  0.181400  0.761800  1.0
  H  H920  1  0.408600  0.818600  0.261800  1.0
  H  H921  1  0.568600  0.841400  0.988200  1.0
  H  H922  1  0.931400  0.158600  0.488200  1.0
  H  H923  1  0.408600  0.318600  0.738200  1.0
  H  H924  1  0.091400  0.681400  0.238200  1.0
  H  H925  1  0.068600  0.341400  0.488200  1.0
  H  H926  1  0.431400  0.658600  0.988200  1.0
  H  H927  1  0.908600  0.818600  0.238200  1.0
  H  H928  1  0.591400  0.181400  0.738200  1.0
  H  H929  1  0.415700  0.214300  0.028500  1.0
  H  H930  1  0.084300  0.785700  0.528500  1.0
  H  H931  1  0.535700  0.665700  0.278500  1.0
  H  H932  1  0.964300  0.334300  0.778500  1.0
  H  H933  1  0.915700  0.714300  0.528500  1.0
  H  H934  1  0.584300  0.285700  0.028500  1.0
  H  H935  1  0.035700  0.165700  0.778500  1.0
  H  H936  1  0.464300  0.834300  0.278500  1.0
  H  H937  1  0.584300  0.785700  0.971500  1.0
  H  H938  1  0.915700  0.214300  0.471500  1.0
  H  H939  1  0.464300  0.334300  0.721500  1.0
  H  H940  1  0.035700  0.665700  0.221500  1.0
  H  H941  1  0.084300  0.285700  0.471500  1.0
  H  H942  1  0.415700  0.714300  0.971500  1.0
  H  H943  1  0.964300  0.834300  0.221500  1.0
  H  H944  1  0.535700  0.165700  0.721500  1.0
  H  H945  1  0.424300  0.168600  0.061500  1.0
  H  H946  1  0.075700  0.831400  0.561500  1.0
  H  H947  1  0.581400  0.674300  0.311500  1.0
  H  H948  1  0.918600  0.325700  0.811500  1.0
  H  H949  1  0.924300  0.668600  0.561500  1.0
  H  H950  1  0.575700  0.331400  0.061500  1.0
  H  H951  1  0.081400  0.174300  0.811500  1.0
  H  H952  1  0.418600  0.825700  0.311500  1.0
  H  H953  1  0.575700  0.831400  0.938500  1.0
  H  H954  1  0.924300  0.168600  0.438500  1.0
  H  H955  1  0.418600  0.325700  0.688500  1.0
  H  H956  1  0.081400  0.674300  0.188500  1.0
  H  H957  1  0.075700  0.331400  0.438500  1.0
  H  H958  1  0.424300  0.668600  0.938500  1.0
  H  H959  1  0.918600  0.825700  0.188500  1.0
  H  H960  1  0.581400  0.174300  0.688500  1.0
  H  H961  1  0.495300  0.204500  0.973500  1.0
  H  H962  1  0.004700  0.795500  0.473500  1.0
  H  H963  1  0.545500  0.745300  0.223500  1.0
  H  H964  1  0.954500  0.254700  0.723500  1.0
  H  H965  1  0.995300  0.704500  0.473500  1.0
  H  H966  1  0.504700  0.295500  0.973500  1.0
  H  H967  1  0.045500  0.245300  0.723500  1.0
  H  H968  1  0.454500  0.754700  0.223500  1.0
  H  H969  1  0.504700  0.795500  0.026500  1.0
  H  H970  1  0.995300  0.204500  0.526500  1.0
  H  H971  1  0.454500  0.254700  0.776500  1.0
  H  H972  1  0.045500  0.745300  0.276500  1.0
  H  H973  1  0.004700  0.295500  0.526500  1.0
  H  H974  1  0.495300  0.704500  0.026500  1.0
  H  H975  1  0.954500  0.754700  0.276500  1.0
  H  H976  1  0.545500  0.245300  0.776500  1.0
  H  H977  1  0.546900  0.221600  0.997300  1.0
  H  H978  1  0.953100  0.778400  0.497300  1.0
  H  H979  1  0.528400  0.796900  0.247300  1.0
  H  H980  1  0.971600  0.203100  0.747300  1.0
  H  H981  1  0.046900  0.721600  0.497300  1.0
  H  H982  1  0.453100  0.278400  0.997300  1.0
  H  H983  1  0.028400  0.296900  0.747300  1.0
  H  H984  1  0.471600  0.703100  0.247300  1.0
  H  H985  1  0.453100  0.778400  0.002700  1.0
  H  H986  1  0.046900  0.221600  0.502700  1.0
  H  H987  1  0.471600  0.203100  0.752700  1.0
  H  H988  1  0.028400  0.796900  0.252700  1.0
  H  H989  1  0.953100  0.278400  0.502700  1.0
  H  H990  1  0.546900  0.721600  0.002700  1.0
  H  H991  1  0.971600  0.703100  0.252700  1.0
  H  H992  1  0.528400  0.296900  0.752700  1.0
  H  H993  1  0.515400  0.126000  0.021000  1.0
  H  H994  1  0.984600  0.874000  0.521000  1.0
  H  H995  1  0.624000  0.765400  0.271000  1.0
  H  H996  1  0.876000  0.234600  0.771000  1.0
  H  H997  1  0.015400  0.626000  0.521000  1.0
  H  H998  1  0.484600  0.374000  0.021000  1.0
  H  H999  1  0.124000  0.265400  0.771000  1.0
  H  H1000  1  0.376000  0.734600  0.271000  1.0
  H  H1001  1  0.484600  0.874000  0.979000  1.0
  H  H1002  1  0.015400  0.126000  0.479000  1.0
  H  H1003  1  0.376000  0.234600  0.729000  1.0
  H  H1004  1  0.124000  0.765400  0.229000  1.0
  H  H1005  1  0.984600  0.374000  0.479000  1.0
  H  H1006  1  0.515400  0.626000  0.979000  1.0
  H  H1007  1  0.876000  0.734600  0.229000  1.0
  H  H1008  1  0.624000  0.265400  0.729000  1.0
  H  H1009  1  0.509900  0.132800  0.071300  1.0
  H  H1010  1  0.990100  0.867200  0.571300  1.0
  H  H1011  1  0.617200  0.759900  0.321300  1.0
  H  H1012  1  0.882800  0.240100  0.821300  1.0
  H  H1013  1  0.009900  0.632800  0.571300  1.0
  H  H1014  1  0.490100  0.367200  0.071300  1.0
  H  H1015  1  0.117200  0.259900  0.821300  1.0
  H  H1016  1  0.382800  0.740100  0.321300  1.0
  H  H1017  1  0.490100  0.867200  0.928700  1.0
  H  H1018  1  0.009900  0.132800  0.428700  1.0
  H  H1019  1  0.382800  0.240100  0.678700  1.0
  H  H1020  1  0.117200  0.759900  0.178700  1.0
  H  H1021  1  0.990100  0.367200  0.428700  1.0
  H  H1022  1  0.509900  0.632800  0.928700  1.0
  H  H1023  1  0.882800  0.740100  0.178700  1.0
  H  H1024  1  0.617200  0.259900  0.678700  1.0
  H  H1025  1  0.557500  0.157800  0.046800  1.0
  H  H1026  1  0.942500  0.842200  0.546800  1.0
  H  H1027  1  0.592200  0.807500  0.296800  1.0
  H  H1028  1  0.907800  0.192500  0.796800  1.0
  H  H1029  1  0.057500  0.657800  0.546800  1.0
  H  H1030  1  0.442500  0.342200  0.046800  1.0
  H  H1031  1  0.092200  0.307500  0.796800  1.0
  H  H1032  1  0.407800  0.692500  0.296800  1.0
  H  H1033  1  0.442500  0.842200  0.953200  1.0
  H  H1034  1  0.057500  0.157800  0.453200  1.0
  H  H1035  1  0.407800  0.192500  0.703200  1.0
  H  H1036  1  0.092200  0.807500  0.203200  1.0
  H  H1037  1  0.942500  0.342200  0.453200  1.0
  H  H1038  1  0.557500  0.657800  0.953200  1.0
  H  H1039  1  0.907800  0.692500  0.203200  1.0
  H  H1040  1  0.592200  0.307500  0.703200  1.0
  H  H1041  1  0.145600  0.549000  0.403600  1.0
  H  H1042  1  0.354400  0.451000  0.903600  1.0
  H  H1043  1  0.201000  0.395600  0.653600  1.0
  H  H1044  1  0.299000  0.604400  0.153600  1.0
  H  H1045  1  0.645600  0.049000  0.903600  1.0
  H  H1046  1  0.854400  0.951000  0.403600  1.0
  H  H1047  1  0.701000  0.895600  0.153600  1.0
  H  H1048  1  0.799000  0.104400  0.653600  1.0
  H  H1049  1  0.854400  0.451000  0.596400  1.0
  H  H1050  1  0.645600  0.549000  0.096400  1.0
  H  H1051  1  0.799000  0.604400  0.346400  1.0
  H  H1052  1  0.701000  0.395600  0.846400  1.0
  H  H1053  1  0.354400  0.951000  0.096400  1.0
  H  H1054  1  0.145600  0.049000  0.596400  1.0
  H  H1055  1  0.299000  0.104400  0.846400  1.0
  H  H1056  1  0.201000  0.895600  0.346400  1.0
  H  H1057  1  0.179600  0.500100  0.391700  1.0
  H  H1058  1  0.320400  0.499900  0.891700  1.0
  H  H1059  1  0.249900  0.429600  0.641700  1.0
  H  H1060  1  0.250100  0.570400  0.141700  1.0
  H  H1061  1  0.679600  0.000100  0.891700  1.0
  H  H1062  1  0.820400  0.999900  0.391700  1.0
  H  H1063  1  0.749900  0.929600  0.141700  1.0
  H  H1064  1  0.750100  0.070400  0.641700  1.0
  H  H1065  1  0.820400  0.499900  0.608300  1.0
  H  H1066  1  0.679600  0.500100  0.108300  1.0
  H  H1067  1  0.750100  0.570400  0.358300  1.0
  H  H1068  1  0.749900  0.429600  0.858300  1.0
  H  H1069  1  0.320400  0.999900  0.108300  1.0
  H  H1070  1  0.179600  0.000100  0.608300  1.0
  H  H1071  1  0.250100  0.070400  0.858300  1.0
  H  H1072  1  0.249900  0.929600  0.358300  1.0
  H  H1073  1  0.174500  0.546600  0.358900  1.0
  H  H1074  1  0.325500  0.453400  0.858900  1.0
  H  H1075  1  0.203400  0.424500  0.608900  1.0
  H  H1076  1  0.296600  0.575500  0.108900  1.0
  H  H1077  1  0.674500  0.046600  0.858900  1.0
  H  H1078  1  0.825500  0.953400  0.358900  1.0
  H  H1079  1  0.703400  0.924500  0.108900  1.0
  H  H1080  1  0.796600  0.075500  0.608900  1.0
  H  H1081  1  0.825500  0.453400  0.641100  1.0
  H  H1082  1  0.674500  0.546600  0.141100  1.0
  H  H1083  1  0.796600  0.575500  0.391100  1.0
  H  H1084  1  0.703400  0.424500  0.891100  1.0
  H  H1085  1  0.325500  0.953400  0.141100  1.0
  H  H1086  1  0.174500  0.046600  0.641100  1.0
  H  H1087  1  0.296600  0.075500  0.891100  1.0
  H  H1088  1  0.203400  0.924500  0.391100  1.0
  H  H1089  1  0.191200  0.568300  0.466200  1.0
  H  H1090  1  0.308800  0.431700  0.966200  1.0
  H  H1091  1  0.181700  0.441200  0.716200  1.0
  H  H1092  1  0.318300  0.558800  0.216200  1.0
  H  H1093  1  0.691200  0.068300  0.966200  1.0
  H  H1094  1  0.808800  0.931700  0.466200  1.0
  H  H1095  1  0.681700  0.941200  0.216200  1.0
  H  H1096  1  0.818300  0.058800  0.716200  1.0
  H  H1097  1  0.808800  0.431700  0.533800  1.0
  H  H1098  1  0.691200  0.568300  0.033800  1.0
  H  H1099  1  0.818300  0.558800  0.283800  1.0
  H  H1100  1  0.681700  0.441200  0.783800  1.0
  H  H1101  1  0.308800  0.931700  0.033800  1.0
  H  H1102  1  0.191200  0.068300  0.533800  1.0
  H  H1103  1  0.318300  0.058800  0.783800  1.0
  H  H1104  1  0.181700  0.941200  0.283800  1.0
  H  H1105  1  0.251800  0.577200  0.464300  1.0
  H  H1106  1  0.248200  0.422800  0.964300  1.0
  H  H1107  1  0.172800  0.501800  0.714300  1.0
  H  H1108  1  0.327200  0.498200  0.214300  1.0
  H  H1109  1  0.751800  0.077200  0.964300  1.0
  H  H1110  1  0.748200  0.922800  0.464300  1.0
  H  H1111  1  0.672800  0.001800  0.214300  1.0
  H  H1112  1  0.827200  0.998200  0.714300  1.0
  H  H1113  1  0.748200  0.422800  0.535700  1.0
  H  H1114  1  0.751800  0.577200  0.035700  1.0
  H  H1115  1  0.827200  0.498200  0.285700  1.0
  H  H1116  1  0.672800  0.501800  0.785700  1.0
  H  H1117  1  0.248200  0.922800  0.035700  1.0
  H  H1118  1  0.251800  0.077200  0.535700  1.0
  H  H1119  1  0.327200  0.998200  0.785700  1.0
  H  H1120  1  0.172800  0.001800  0.285700  1.0
  H  H1121  1  0.229000  0.520400  0.461100  1.0
  H  H1122  1  0.271000  0.479600  0.961100  1.0
  H  H1123  1  0.229600  0.479000  0.711100  1.0
  H  H1124  1  0.270400  0.521000  0.211100  1.0
  H  H1125  1  0.729000  0.020400  0.961100  1.0
  H  H1126  1  0.771000  0.979600  0.461100  1.0
  H  H1127  1  0.729600  0.979000  0.211100  1.0
  H  H1128  1  0.770400  0.021000  0.711100  1.0
  H  H1129  1  0.771000  0.479600  0.538900  1.0
  H  H1130  1  0.729000  0.520400  0.038900  1.0
  H  H1131  1  0.770400  0.521000  0.288900  1.0
  H  H1132  1  0.729600  0.479000  0.788900  1.0
  H  H1133  1  0.271000  0.979600  0.038900  1.0
  H  H1134  1  0.229000  0.020400  0.538900  1.0
  H  H1135  1  0.270400  0.021000  0.788900  1.0
  H  H1136  1  0.229600  0.979000  0.288900  1.0
  H  H1137  1  0.184900  0.634500  0.402100  1.0
  H  H1138  1  0.315100  0.365500  0.902100  1.0
  H  H1139  1  0.115500  0.434900  0.652100  1.0
  H  H1140  1  0.384500  0.565100  0.152100  1.0
  H  H1141  1  0.684900  0.134500  0.902100  1.0
  H  H1142  1  0.815100  0.865500  0.402100  1.0
  H  H1143  1  0.615500  0.934900  0.152100  1.0
  H  H1144  1  0.884500  0.065100  0.652100  1.0
  H  H1145  1  0.815100  0.365500  0.597900  1.0
  H  H1146  1  0.684900  0.634500  0.097900  1.0
  H  H1147  1  0.884500  0.565100  0.347900  1.0
  H  H1148  1  0.615500  0.434900  0.847900  1.0
  H  H1149  1  0.315100  0.865500  0.097900  1.0
  H  H1150  1  0.184900  0.134500  0.597900  1.0
  H  H1151  1  0.384500  0.065100  0.847900  1.0
  H  H1152  1  0.115500  0.934900  0.347900  1.0
  H  H1153  1  0.243400  0.638800  0.417300  1.0
  H  H1154  1  0.256600  0.361200  0.917300  1.0
  H  H1155  1  0.111200  0.493400  0.667300  1.0
  H  H1156  1  0.388800  0.506600  0.167300  1.0
  H  H1157  1  0.743400  0.138800  0.917300  1.0
  H  H1158  1  0.756600  0.861200  0.417300  1.0
  H  H1159  1  0.611200  0.993400  0.167300  1.0
  H  H1160  1  0.888800  0.006600  0.667300  1.0
  H  H1161  1  0.756600  0.361200  0.582700  1.0
  H  H1162  1  0.743400  0.638800  0.082700  1.0
  H  H1163  1  0.888800  0.506600  0.332700  1.0
  H  H1164  1  0.611200  0.493400  0.832700  1.0
  H  H1165  1  0.256600  0.861200  0.082700  1.0
  H  H1166  1  0.243400  0.138800  0.582700  1.0
  H  H1167  1  0.388800  0.006600  0.832700  1.0
  H  H1168  1  0.111200  0.993400  0.332700  1.0
  H  H1169  1  0.212300  0.612800  0.333100  1.0
  H  H1170  1  0.287700  0.387200  0.833100  1.0
  H  H1171  1  0.137200  0.462300  0.583100  1.0
  H  H1172  1  0.362800  0.537700  0.083100  1.0
  H  H1173  1  0.712300  0.112800  0.833100  1.0
  H  H1174  1  0.787700  0.887200  0.333100  1.0
  H  H1175  1  0.637200  0.962300  0.083100  1.0
  H  H1176  1  0.862800  0.037700  0.583100  1.0
  H  H1177  1  0.787700  0.387200  0.666900  1.0
  H  H1178  1  0.712300  0.612800  0.166900  1.0
  H  H1179  1  0.862800  0.537700  0.416900  1.0
  H  H1180  1  0.637200  0.462300  0.916900  1.0
  H  H1181  1  0.287700  0.887200  0.166900  1.0
  H  H1182  1  0.212300  0.112800  0.666900  1.0
  H  H1183  1  0.362800  0.037700  0.916900  1.0
  H  H1184  1  0.137200  0.962300  0.416900  1.0
  H  H1185  1  0.236500  0.667100  0.346700  1.0
  H  H1186  1  0.263500  0.332900  0.846700  1.0
  H  H1187  1  0.082900  0.486500  0.596700  1.0
  H  H1188  1  0.417100  0.513500  0.096700  1.0
  H  H1189  1  0.736500  0.167100  0.846700  1.0
  H  H1190  1  0.763500  0.832900  0.346700  1.0
  H  H1191  1  0.582900  0.986500  0.096700  1.0
  H  H1192  1  0.917100  0.013500  0.596700  1.0
  H  H1193  1  0.763500  0.332900  0.653300  1.0
  H  H1194  1  0.736500  0.667100  0.153300  1.0
  H  H1195  1  0.917100  0.513500  0.403300  1.0
  H  H1196  1  0.582900  0.486500  0.903300  1.0
  H  H1197  1  0.263500  0.832900  0.153300  1.0
  H  H1198  1  0.236500  0.167100  0.653300  1.0
  H  H1199  1  0.417100  0.013500  0.903300  1.0
  H  H1200  1  0.082900  0.986500  0.403300  1.0
  H  H1201  1  0.326900  0.670400  0.343800  1.0
  H  H1202  1  0.173100  0.329600  0.843800  1.0
  H  H1203  1  0.079600  0.576900  0.593800  1.0
  H  H1204  1  0.420400  0.423100  0.093800  1.0
  H  H1205  1  0.826900  0.170400  0.843800  1.0
  H  H1206  1  0.673100  0.829600  0.343800  1.0
  H  H1207  1  0.579600  0.076900  0.093800  1.0
  H  H1208  1  0.920400  0.923100  0.593800  1.0
  H  H1209  1  0.673100  0.329600  0.656200  1.0
  H  H1210  1  0.826900  0.670400  0.156200  1.0
  H  H1211  1  0.920400  0.423100  0.406200  1.0
  H  H1212  1  0.579600  0.576900  0.906200  1.0
  H  H1213  1  0.173100  0.829600  0.156200  1.0
  H  H1214  1  0.326900  0.170400  0.656200  1.0
  H  H1215  1  0.420400  0.923100  0.906200  1.0
  H  H1216  1  0.079600  0.076900  0.406200  1.0
  H  H1217  1  0.359500  0.618600  0.347400  1.0
  H  H1218  1  0.140500  0.381400  0.847400  1.0
  H  H1219  1  0.131400  0.609500  0.597400  1.0
  H  H1220  1  0.368600  0.390500  0.097400  1.0
  H  H1221  1  0.859500  0.118600  0.847400  1.0
  H  H1222  1  0.640500  0.881400  0.347400  1.0
  H  H1223  1  0.631400  0.109500  0.097400  1.0
  H  H1224  1  0.868600  0.890500  0.597400  1.0
  H  H1225  1  0.640500  0.381400  0.652600  1.0
  H  H1226  1  0.859500  0.618600  0.152600  1.0
  H  H1227  1  0.868600  0.390500  0.402600  1.0
  H  H1228  1  0.631400  0.609500  0.902600  1.0
  H  H1229  1  0.140500  0.881400  0.152600  1.0
  H  H1230  1  0.359500  0.118600  0.652600  1.0
  H  H1231  1  0.368600  0.890500  0.902600  1.0
  H  H1232  1  0.131400  0.109500  0.402600  1.0
  H  H1233  1  0.332500  0.642000  0.388600  1.0
  H  H1234  1  0.167500  0.358000  0.888600  1.0
  H  H1235  1  0.108000  0.582500  0.638600  1.0
  H  H1236  1  0.392000  0.417500  0.138600  1.0
  H  H1237  1  0.832500  0.142000  0.888600  1.0
  H  H1238  1  0.667500  0.858000  0.388600  1.0
  H  H1239  1  0.608000  0.082500  0.138600  1.0
  H  H1240  1  0.892000  0.917500  0.638600  1.0
  H  H1241  1  0.667500  0.358000  0.611400  1.0
  H  H1242  1  0.832500  0.642000  0.111400  1.0
  H  H1243  1  0.892000  0.417500  0.361400  1.0
  H  H1244  1  0.608000  0.582500  0.861400  1.0
  H  H1245  1  0.167500  0.858000  0.111400  1.0
  H  H1246  1  0.332500  0.142000  0.611400  1.0
  H  H1247  1  0.392000  0.917500  0.861400  1.0
  H  H1248  1  0.108000  0.082500  0.361400  1.0
  H  H1249  1  0.299800  0.642100  0.289300  1.0
  H  H1250  1  0.200200  0.357900  0.789300  1.0
  H  H1251  1  0.107900  0.549800  0.539300  1.0
  H  H1252  1  0.392100  0.450200  0.039300  1.0
  H  H1253  1  0.799800  0.142100  0.789300  1.0
  H  H1254  1  0.700200  0.857900  0.289300  1.0
  H  H1255  1  0.607900  0.049800  0.039300  1.0
  H  H1256  1  0.892100  0.950200  0.539300  1.0
  H  H1257  1  0.700200  0.357900  0.710700  1.0
  H  H1258  1  0.799800  0.642100  0.210700  1.0
  H  H1259  1  0.892100  0.450200  0.460700  1.0
  H  H1260  1  0.607900  0.549800  0.960700  1.0
  H  H1261  1  0.200200  0.857900  0.210700  1.0
  H  H1262  1  0.299800  0.142100  0.710700  1.0
  H  H1263  1  0.392100  0.950200  0.960700  1.0
  H  H1264  1  0.107900  0.049800  0.460700  1.0
  H  H1265  1  0.274700  0.586300  0.285800  1.0
  H  H1266  1  0.225300  0.413700  0.785800  1.0
  H  H1267  1  0.163700  0.524700  0.535800  1.0
  H  H1268  1  0.336300  0.475300  0.035800  1.0
  H  H1269  1  0.774700  0.086300  0.785800  1.0
  H  H1270  1  0.725300  0.913700  0.285800  1.0
  H  H1271  1  0.663700  0.024700  0.035800  1.0
  H  H1272  1  0.836300  0.975300  0.535800  1.0
  H  H1273  1  0.725300  0.413700  0.714200  1.0
  H  H1274  1  0.774700  0.586300  0.214200  1.0
  H  H1275  1  0.836300  0.475300  0.464200  1.0
  H  H1276  1  0.663700  0.524700  0.964200  1.0
  H  H1277  1  0.225300  0.913700  0.214200  1.0
  H  H1278  1  0.274700  0.086300  0.714200  1.0
  H  H1279  1  0.336300  0.975300  0.964200  1.0
  H  H1280  1  0.163700  0.024700  0.464200  1.0
  H  H1281  1  0.334100  0.592200  0.297200  1.0
  H  H1282  1  0.165900  0.407800  0.797200  1.0
  H  H1283  1  0.157800  0.584100  0.547200  1.0
  H  H1284  1  0.342200  0.415900  0.047200  1.0
  H  H1285  1  0.834100  0.092200  0.797200  1.0
  H  H1286  1  0.665900  0.907800  0.297200  1.0
  H  H1287  1  0.657800  0.084100  0.047200  1.0
  H  H1288  1  0.842200  0.915900  0.547200  1.0
  H  H1289  1  0.665900  0.407800  0.702800  1.0
  H  H1290  1  0.834100  0.592200  0.202800  1.0
  H  H1291  1  0.842200  0.415900  0.452800  1.0
  H  H1292  1  0.657800  0.584100  0.952800  1.0
  H  H1293  1  0.165900  0.907800  0.202800  1.0
  H  H1294  1  0.334100  0.092200  0.702800  1.0
  H  H1295  1  0.342200  0.915900  0.952800  1.0
  H  H1296  1  0.157800  0.084100  0.452800  1.0
  Pd  Pd1297  1  0.500000  0.250000  0.086415  1.0
  Pd  Pd1298  1  0.000000  0.750000  0.586415  1.0
  Pd  Pd1299  1  0.500000  0.750000  0.336415  1.0
  Pd  Pd1300  1  0.000000  0.250000  0.836415  1.0
  Pd  Pd1301  1  0.500000  0.750000  0.913585  1.0
  Pd  Pd1302  1  0.000000  0.250000  0.413585  1.0
  Pd  Pd1303  1  0.500000  0.250000  0.663585  1.0
  Pd  Pd1304  1  0.000000  0.750000  0.163585  1.0
  Pd  Pd1305  1  0.285766  0.537223  0.376982  1.0
  Pd  Pd1306  1  0.214234  0.462777  0.876982  1.0
  Pd  Pd1307  1  0.212777  0.535766  0.626982  1.0
  Pd  Pd1308  1  0.287223  0.464234  0.126982  1.0
  Pd  Pd1309  1  0.785766  0.037223  0.876982  1.0
  Pd  Pd1310  1  0.714234  0.962777  0.376982  1.0
  Pd  Pd1311  1  0.712777  0.035766  0.126982  1.0
  Pd  Pd1312  1  0.787223  0.964234  0.626982  1.0
  Pd  Pd1313  1  0.714234  0.462777  0.623018  1.0
  Pd  Pd1314  1  0.785766  0.537223  0.123018  1.0
  Pd  Pd1315  1  0.787223  0.464234  0.373018  1.0
  Pd  Pd1316  1  0.712777  0.535766  0.873018  1.0
  Pd  Pd1317  1  0.214234  0.962777  0.123018  1.0
  Pd  Pd1318  1  0.285766  0.037223  0.623018  1.0
  Pd  Pd1319  1  0.287223  0.964234  0.873018  1.0
  Pd  Pd1320  1  0.212777  0.035766  0.373018  1.0
  C  C1321  1  0.626500  0.335600  0.351400  1
  C  C1322  1  0.873500  0.664400  0.851400  1
  C  C1323  1  0.414400  0.876500  0.601400  1
  C  C1324  1  0.085600  0.123500  0.101400  1
  C  C1325  1  0.126500  0.835600  0.851400  1
  C  C1326  1  0.373500  0.164400  0.351400  1
  C  C1327  1  0.914400  0.376500  0.101400  1
  C  C1328  1  0.585600  0.623500  0.601400  1
  C  C1329  1  0.373500  0.664400  0.648600  1
  C  C1330  1  0.126500  0.335600  0.148600  1
  C  C1331  1  0.585600  0.123500  0.398600  1
  C  C1332  1  0.914400  0.876500  0.898600  1
  C  C1333  1  0.873500  0.164400  0.148600  1
  C  C1334  1  0.626500  0.835600  0.648600  1
  C  C1335  1  0.085600  0.623500  0.898600  1
  C  C1336  1  0.414400  0.376500  0.398600  1
  C  C1337  1  0.645300  0.307100  0.317600  1
  C  C1338  1  0.854700  0.692900  0.817600  1
  C  C1339  1  0.442900  0.895300  0.567600  1
  C  C1340  1  0.057100  0.104700  0.067600  1
  C  C1341  1  0.145300  0.807100  0.817600  1
  C  C1342  1  0.354700  0.192900  0.317600  1
  C  C1343  1  0.942900  0.395300  0.067600  1
  C  C1344  1  0.557100  0.604700  0.567600  1
  C  C1345  1  0.354700  0.692900  0.682400  1
  C  C1346  1  0.145300  0.307100  0.182400  1
  C  C1347  1  0.557100  0.104700  0.432400  1
  C  C1348  1  0.942900  0.895300  0.932400  1
  C  C1349  1  0.854700  0.192900  0.182400  1
  C  C1350  1  0.645300  0.807100  0.682400  1
  C  C1351  1  0.057100  0.604700  0.932400  1
  C  C1352  1  0.442900  0.395300  0.432400  1
  C  C1353  1  0.611600  0.284900  0.288900  1
  C  C1354  1  0.888400  0.715100  0.788900  1
  C  C1355  1  0.465100  0.861600  0.538900  1
  C  C1356  1  0.034900  0.138400  0.038900  1
  C  C1357  1  0.111600  0.784900  0.788900  1
  C  C1358  1  0.388400  0.215100  0.288900  1
  C  C1359  1  0.965100  0.361600  0.038900  1
  C  C1360  1  0.534900  0.638400  0.538900  1
  C  C1361  1  0.388400  0.715100  0.711100  1
  C  C1362  1  0.111600  0.284900  0.211100  1
  C  C1363  1  0.534900  0.138400  0.461100  1
  C  C1364  1  0.965100  0.861600  0.961100  1
  C  C1365  1  0.888400  0.215100  0.211100  1
  C  C1366  1  0.611600  0.784900  0.711100  1
  C  C1367  1  0.034900  0.638400  0.961100  1
  C  C1368  1  0.465100  0.361600  0.461100  1
  C  C1369  1  0.559100  0.291100  0.294000  1
  C  C1370  1  0.940900  0.708900  0.794000  1
  C  C1371  1  0.458900  0.809100  0.544000  1
  C  C1372  1  0.041100  0.190900  0.044000  1
  C  C1373  1  0.059100  0.791100  0.794000  1
  C  C1374  1  0.440900  0.208900  0.294000  1
  C  C1375  1  0.958900  0.309100  0.044000  1
  C  C1376  1  0.541100  0.690900  0.544000  1
  C  C1377  1  0.440900  0.708900  0.706000  1
  C  C1378  1  0.059100  0.291100  0.206000  1
  C  C1379  1  0.541100  0.190900  0.456000  1
  C  C1380  1  0.958900  0.809100  0.956000  1
  C  C1381  1  0.940900  0.208900  0.206000  1
  C  C1382  1  0.559100  0.791100  0.706000  1
  C  C1383  1  0.041100  0.690900  0.956000  1
  C  C1384  1  0.458900  0.309100  0.456000  1
  C  C1385  1  0.540300  0.319500  0.327800  1
  C  C1386  1  0.959700  0.680500  0.827800  1
  C  C1387  1  0.430500  0.790300  0.577800  1
  C  C1388  1  0.069500  0.209700  0.077800  1
  C  C1389  1  0.040300  0.819500  0.827800  1
  C  C1390  1  0.459700  0.180500  0.327800  1
  C  C1391  1  0.930500  0.290300  0.077800  1
  C  C1392  1  0.569500  0.709700  0.577800  1
  C  C1393  1  0.459700  0.680500  0.672200  1
  C  C1394  1  0.040300  0.319500  0.172200  1
  C  C1395  1  0.569500  0.209700  0.422200  1
  C  C1396  1  0.930500  0.790300  0.922200  1
  C  C1397  1  0.959700  0.180500  0.172200  1
  C  C1398  1  0.540300  0.819500  0.672200  1
  C  C1399  1  0.069500  0.709700  0.922200  1
  C  C1400  1  0.430500  0.290300  0.422200  1
  C  C1401  1  0.574000  0.341800  0.356600  1
  C  C1402  1  0.926000  0.658200  0.856600  1
  C  C1403  1  0.408200  0.824000  0.606600  1
  C  C1404  1  0.091800  0.176000  0.106600  1
  C  C1405  1  0.074000  0.841800  0.856600  1
  C  C1406  1  0.426000  0.158200  0.356600  1
  C  C1407  1  0.908200  0.324000  0.106600  1
  C  C1408  1  0.591800  0.676000  0.606600  1
  C  C1409  1  0.426000  0.658200  0.643400  1
  C  C1410  1  0.074000  0.341800  0.143400  1
  C  C1411  1  0.591800  0.176000  0.393400  1
  C  C1412  1  0.908200  0.824000  0.893400  1
  C  C1413  1  0.926000  0.158200  0.143400  1
  C  C1414  1  0.574000  0.841800  0.643400  1
  C  C1415  1  0.091800  0.676000  0.893400  1
  C  C1416  1  0.408200  0.324000  0.393400  1
  C  C1417  1  0.555200  0.370300  0.390400  1
  C  C1418  1  0.944800  0.629700  0.890400  1
  C  C1419  1  0.379700  0.805200  0.640400  1
  C  C1420  1  0.120300  0.194800  0.140400  1
  C  C1421  1  0.055200  0.870300  0.890400  1
  C  C1422  1  0.444800  0.129700  0.390400  1
  C  C1423  1  0.879700  0.305200  0.140400  1
  C  C1424  1  0.620300  0.694800  0.640400  1
  C  C1425  1  0.444800  0.629700  0.609600  1
  C  C1426  1  0.055200  0.370300  0.109600  1
  C  C1427  1  0.620300  0.194800  0.359600  1
  C  C1428  1  0.879700  0.805200  0.859600  1
  C  C1429  1  0.944800  0.129700  0.109600  1
  C  C1430  1  0.555200  0.870300  0.609600  1
  C  C1431  1  0.120300  0.694800  0.859600  1
  C  C1432  1  0.379700  0.305200  0.359600  1
  C  C1433  1  0.502600  0.376500  0.395500  1
  C  C1434  1  0.997400  0.623500  0.895500  1
  C  C1435  1  0.373500  0.752600  0.645500  1
  C  C1436  1  0.126500  0.247400  0.145500  1
  C  C1437  1  0.002600  0.876500  0.895500  1
  C  C1438  1  0.497400  0.123500  0.395500  1
  C  C1439  1  0.873500  0.252600  0.145500  1
  C  C1440  1  0.626500  0.747400  0.645500  1
  C  C1441  1  0.497400  0.623500  0.604500  1
  C  C1442  1  0.002600  0.376500  0.104500  1
  C  C1443  1  0.626500  0.247400  0.354500  1
  C  C1444  1  0.873500  0.752600  0.854500  1
  C  C1445  1  0.997400  0.123500  0.104500  1
  C  C1446  1  0.502600  0.876500  0.604500  1
  C  C1447  1  0.126500  0.747400  0.854500  1
  C  C1448  1  0.373500  0.252600  0.354500  1
  C  C1449  1  0.468900  0.354200  0.366800  1
  C  C1450  1  0.031100  0.645800  0.866800  1
  C  C1451  1  0.395800  0.718900  0.616800  1
  C  C1452  1  0.104200  0.281100  0.116800  1
  C  C1453  1  0.968900  0.854200  0.866800  1
  C  C1454  1  0.531100  0.145800  0.366800  1
  C  C1455  1  0.895800  0.218900  0.116800  1
  C  C1456  1  0.604200  0.781100  0.616800  1
  C  C1457  1  0.531100  0.645800  0.633200  1
  C  C1458  1  0.968900  0.354200  0.133200  1
  C  C1459  1  0.604200  0.281100  0.383200  1
  C  C1460  1  0.895800  0.718900  0.883200  1
  C  C1461  1  0.031100  0.145800  0.133200  1
  C  C1462  1  0.468900  0.854200  0.633200  1
  C  C1463  1  0.104200  0.781100  0.883200  1
  C  C1464  1  0.395800  0.218900  0.383200  1
  C  C1465  1  0.487700  0.325700  0.333000  1
  C  C1466  1  0.012300  0.674300  0.833000  1
  C  C1467  1  0.424300  0.737700  0.583000  1
  C  C1468  1  0.075700  0.262300  0.083000  1
  C  C1469  1  0.987700  0.825700  0.833000  1
  C  C1470  1  0.512300  0.174300  0.333000  1
  C  C1471  1  0.924300  0.237700  0.083000  1
  C  C1472  1  0.575700  0.762300  0.583000  1
  C  C1473  1  0.512300  0.674300  0.667000  1
  C  C1474  1  0.987700  0.325700  0.167000  1
  C  C1475  1  0.575700  0.262300  0.417000  1
  C  C1476  1  0.924300  0.737700  0.917000  1
  C  C1477  1  0.012300  0.174300  0.167000  1
  C  C1478  1  0.487700  0.825700  0.667000  1
  C  C1479  1  0.075700  0.762300  0.917000  1
  C  C1480  1  0.424300  0.237700  0.417000  1
  C  C1481  1  0.411100  0.351300  0.375600  1
  C  C1482  1  0.088900  0.648700  0.875600  1
  C  C1483  1  0.398700  0.661100  0.625600  1
  C  C1484  1  0.101300  0.338900  0.125600  1
  C  C1485  1  0.911100  0.851300  0.875600  1
  C  C1486  1  0.588900  0.148700  0.375600  1
  C  C1487  1  0.898700  0.161100  0.125600  1
  C  C1488  1  0.601300  0.838900  0.625600  1
  C  C1489  1  0.588900  0.648700  0.624400  1
  C  C1490  1  0.911100  0.351300  0.124400  1
  C  C1491  1  0.601300  0.338900  0.374400  1
  C  C1492  1  0.898700  0.661100  0.874400  1
  C  C1493  1  0.088900  0.148700  0.124400  1
  C  C1494  1  0.411100  0.851300  0.624400  1
  C  C1495  1  0.101300  0.838900  0.874400  1
  C  C1496  1  0.398700  0.161100  0.374400  1
  C  C1497  1  0.483200  0.408200  0.433700  1
  C  C1498  1  0.016800  0.591800  0.933700  1
  C  C1499  1  0.341800  0.733200  0.683700  1
  C  C1500  1  0.158200  0.266800  0.183700  1
  C  C1501  1  0.983200  0.908200  0.933700  1
  C  C1502  1  0.516800  0.091800  0.433700  1
  C  C1503  1  0.841800  0.233200  0.183700  1
  C  C1504  1  0.658200  0.766800  0.683700  1
  C  C1505  1  0.516800  0.591800  0.566300  1
  C  C1506  1  0.983200  0.408200  0.066300  1
  C  C1507  1  0.658200  0.266800  0.316300  1
  C  C1508  1  0.841800  0.733200  0.816300  1
  C  C1509  1  0.016800  0.091800  0.066300  1
  C  C1510  1  0.483200  0.908200  0.566300  1
  C  C1511  1  0.158200  0.766800  0.816300  1
  C  C1512  1  0.341800  0.233200  0.316300  1
  C  C1513  1  0.380400  0.327000  0.338700  1
  C  C1514  1  0.119600  0.673000  0.838700  1
  C  C1515  1  0.423000  0.630400  0.588700  1
  C  C1516  1  0.077000  0.369600  0.088700  1
  C  C1517  1  0.880400  0.827000  0.838700  1
  C  C1518  1  0.619600  0.173000  0.338700  1
  C  C1519  1  0.923000  0.130400  0.088700  1
  C  C1520  1  0.577000  0.869600  0.588700  1
  C  C1521  1  0.619600  0.673000  0.661300  1
  C  C1522  1  0.880400  0.327000  0.161300  1
  C  C1523  1  0.577000  0.369600  0.411300  1
  C  C1524  1  0.923000  0.630400  0.911300  1
  C  C1525  1  0.119600  0.173000  0.161300  1
  C  C1526  1  0.380400  0.827000  0.661300  1
  C  C1527  1  0.077000  0.869600  0.911300  1
  C  C1528  1  0.423000  0.130400  0.411300  1
  C  C1529  1  0.472000  0.367000  0.467000  1
  C  C1530  1  0.028000  0.633000  0.967000  1
  C  C1531  1  0.383000  0.722000  0.717000  1
  C  C1532  1  0.117000  0.278000  0.217000  1
  C  C1533  1  0.972000  0.867000  0.967000  1
  C  C1534  1  0.528000  0.133000  0.467000  1
  C  C1535  1  0.883000  0.222000  0.217000  1
  C  C1536  1  0.617000  0.778000  0.717000  1
  C  C1537  1  0.528000  0.633000  0.533000  1
  C  C1538  1  0.972000  0.367000  0.033000  1
  C  C1539  1  0.617000  0.278000  0.283000  1
  C  C1540  1  0.883000  0.722000  0.783000  1
  C  C1541  1  0.028000  0.133000  0.033000  1
  C  C1542  1  0.472000  0.867000  0.533000  1
  C  C1543  1  0.117000  0.778000  0.783000  1
  C  C1544  1  0.383000  0.222000  0.283000  1
  C  C1545  1  0.177100  0.516600  0.410100  1
  C  C1546  1  0.322900  0.483400  0.910100  1
  C  C1547  1  0.233400  0.427100  0.660100  1
  C  C1548  1  0.266600  0.572900  0.160100  1
  C  C1549  1  0.677100  0.016600  0.910100  1
  C  C1550  1  0.822900  0.983400  0.410100  1
  C  C1551  1  0.733400  0.927100  0.160100  1
  C  C1552  1  0.766600  0.072900  0.660100  1
  C  C1553  1  0.822900  0.483400  0.589900  1
  C  C1554  1  0.677100  0.516600  0.089900  1
  C  C1555  1  0.766600  0.572900  0.339900  1
  C  C1556  1  0.733400  0.427100  0.839900  1
  C  C1557  1  0.322900  0.983400  0.089900  1
  C  C1558  1  0.177100  0.016600  0.589900  1
  C  C1559  1  0.266600  0.072900  0.839900  1
  C  C1560  1  0.233400  0.927100  0.339900  1
  C  C1561  1  0.231400  0.572600  0.453700  1
  C  C1562  1  0.268600  0.427400  0.953700  1
  C  C1563  1  0.177400  0.481400  0.703700  1
  C  C1564  1  0.322600  0.518600  0.203700  1
  C  C1565  1  0.731400  0.072600  0.953700  1
  C  C1566  1  0.768600  0.927400  0.453700  1
  C  C1567  1  0.677400  0.981400  0.203700  1
  C  C1568  1  0.822600  0.018600  0.703700  1
  C  C1569  1  0.768600  0.427400  0.546300  1
  C  C1570  1  0.731400  0.572600  0.046300  1
  C  C1571  1  0.822600  0.518600  0.296300  1
  C  C1572  1  0.677400  0.481400  0.796300  1
  C  C1573  1  0.268600  0.927400  0.046300  1
  C  C1574  1  0.231400  0.072600  0.546300  1
  C  C1575  1  0.322600  0.018600  0.796300  1
  C  C1576  1  0.177400  0.981400  0.296300  1
  C  C1577  1  0.198200  0.603100  0.385100  1
  C  C1578  1  0.301800  0.396900  0.885100  1
  C  C1579  1  0.146900  0.448200  0.635100  1
  C  C1580  1  0.353100  0.551800  0.135100  1
  C  C1581  1  0.698200  0.103100  0.885100  1
  C  C1582  1  0.801800  0.896900  0.385100  1
  C  C1583  1  0.646900  0.948200  0.135100  1
  C  C1584  1  0.853100  0.051800  0.635100  1
  C  C1585  1  0.801800  0.396900  0.614900  1
  C  C1586  1  0.698200  0.603100  0.114900  1
  C  C1587  1  0.853100  0.551800  0.364900  1
  C  C1588  1  0.646900  0.448200  0.864900  1
  C  C1589  1  0.301800  0.896900  0.114900  1
  C  C1590  1  0.198200  0.103100  0.614900  1
  C  C1591  1  0.353100  0.051800  0.864900  1
  C  C1592  1  0.146900  0.948200  0.364900  1
  C  C1593  1  0.239900  0.637500  0.374900  1
  C  C1594  1  0.260100  0.362500  0.874900  1
  C  C1595  1  0.112500  0.489900  0.624900  1
  C  C1596  1  0.387500  0.510100  0.124900  1
  C  C1597  1  0.739900  0.137500  0.874900  1
  C  C1598  1  0.760100  0.862500  0.374900  1
  C  C1599  1  0.612500  0.989900  0.124900  1
  C  C1600  1  0.887500  0.010100  0.624900  1
  C  C1601  1  0.760100  0.362500  0.625100  1
  C  C1602  1  0.739900  0.637500  0.125100  1
  C  C1603  1  0.887500  0.510100  0.375100  1
  C  C1604  1  0.612500  0.489900  0.875100  1
  C  C1605  1  0.260100  0.862500  0.125100  1
  C  C1606  1  0.239900  0.137500  0.625100  1
  C  C1607  1  0.387500  0.010100  0.875100  1
  C  C1608  1  0.112500  0.989900  0.375100  1
  C  C1609  1  0.269900  0.605600  0.306300  1
  C  C1610  1  0.230100  0.394400  0.806300  1
  C  C1611  1  0.144400  0.519900  0.556300  1
  C  C1612  1  0.355600  0.480100  0.056300  1
  C  C1613  1  0.769900  0.105600  0.806300  1
  C  C1614  1  0.730100  0.894400  0.306300  1
  C  C1615  1  0.644400  0.019900  0.056300  1
  C  C1616  1  0.855600  0.980100  0.556300  1
  C  C1617  1  0.730100  0.394400  0.693700  1
  C  C1618  1  0.769900  0.605600  0.193700  1
  C  C1619  1  0.855600  0.480100  0.443700  1
  C  C1620  1  0.644400  0.519900  0.943700  1
  C  C1621  1  0.230100  0.894400  0.193700  1
  C  C1622  1  0.269900  0.105600  0.693700  1
  C  C1623  1  0.355600  0.980100  0.943700  1
  C  C1624  1  0.144400  0.019900  0.443700  1
  C  C1625  1  0.329600  0.641200  0.369800  1
  C  C1626  1  0.170400  0.358800  0.869800  1
  C  C1627  1  0.108800  0.579600  0.619800  1
  C  C1628  1  0.391200  0.420400  0.119800  1
  C  C1629  1  0.829600  0.141200  0.869800  1
  C  C1630  1  0.670400  0.858800  0.369800  1
  C  C1631  1  0.608800  0.079600  0.119800  1
  C  C1632  1  0.891200  0.920400  0.619800  1
  C  C1633  1  0.670400  0.358800  0.630200  1
  C  C1634  1  0.829600  0.641200  0.130200  1
  C  C1635  1  0.891200  0.420400  0.380200  1
  C  C1636  1  0.608800  0.579600  0.880200  1
  C  C1637  1  0.170400  0.858800  0.130200  1
  C  C1638  1  0.329600  0.141200  0.630200  1
  C  C1639  1  0.391200  0.920400  0.880200  1
  C  C1640  1  0.108800  0.079600  0.380200  1
  C  C1641  1  0.572400  0.326700  0.453700  1.0
  C  C1642  1  0.927600  0.673300  0.953700  1.0
  C  C1643  1  0.423300  0.822400  0.703700  1.0
  C  C1644  1  0.076700  0.177600  0.203700  1.0
  C  C1645  1  0.072400  0.826700  0.953700  1.0
  C  C1646  1  0.427600  0.173300  0.453700  1.0
  C  C1647  1  0.923300  0.322400  0.203700  1.0
  C  C1648  1  0.576700  0.677600  0.703700  1.0
  C  C1649  1  0.427600  0.673300  0.546300  1.0
  C  C1650  1  0.072400  0.326700  0.046300  1.0
  C  C1651  1  0.576700  0.177600  0.296300  1.0
  C  C1652  1  0.923300  0.822400  0.796300  1.0
  C  C1653  1  0.927600  0.173300  0.046300  1.0
  C  C1654  1  0.572400  0.826700  0.546300  1.0
  C  C1655  1  0.076700  0.677600  0.796300  1.0
  C  C1656  1  0.423300  0.322400  0.296300  1.0
  C  C1657  1  0.603600  0.349000  0.424700  1.0
  C  C1658  1  0.896400  0.651000  0.924700  1.0
  C  C1659  1  0.401000  0.853600  0.674700  1.0
  C  C1660  1  0.099000  0.146400  0.174700  1.0
  C  C1661  1  0.103600  0.849000  0.924700  1.0
  C  C1662  1  0.396400  0.151000  0.424700  1.0
  C  C1663  1  0.901000  0.353600  0.174700  1.0
  C  C1664  1  0.599000  0.646400  0.674700  1.0
  C  C1665  1  0.396400  0.651000  0.575300  1.0
  C  C1666  1  0.103600  0.349000  0.075300  1.0
  C  C1667  1  0.599000  0.146400  0.325300  1.0
  C  C1668  1  0.901000  0.853600  0.825300  1.0
  C  C1669  1  0.896400  0.151000  0.075300  1.0
  C  C1670  1  0.603600  0.849000  0.575300  1.0
  C  C1671  1  0.099000  0.646400  0.825300  1.0
  C  C1672  1  0.401000  0.353600  0.325300  1.0
  C  C1673  1  0.566800  0.273200  0.440300  1.0
  C  C1674  1  0.933200  0.726800  0.940300  1.0
  C  C1675  1  0.476800  0.816800  0.690300  1.0
  C  C1676  1  0.023200  0.183200  0.190300  1.0
  C  C1677  1  0.066800  0.773200  0.940300  1.0
  C  C1678  1  0.433200  0.226800  0.440300  1.0
  C  C1679  1  0.976800  0.316800  0.190300  1.0
  C  C1680  1  0.523200  0.683200  0.690300  1.0
  C  C1681  1  0.433200  0.726800  0.559700  1.0
  C  C1682  1  0.066800  0.273200  0.059700  1.0
  C  C1683  1  0.523200  0.183200  0.309700  1.0
  C  C1684  1  0.976800  0.816800  0.809700  1.0
  C  C1685  1  0.933200  0.226800  0.059700  1.0
  C  C1686  1  0.566800  0.773200  0.559700  1.0
  C  C1687  1  0.023200  0.683200  0.809700  1.0
  C  C1688  1  0.476800  0.316800  0.309700  1.0
  C  C1689  1  0.615000  0.309000  0.392800  1.0
  C  C1690  1  0.885000  0.691000  0.892800  1.0
  C  C1691  1  0.441000  0.865000  0.642800  1.0
  C  C1692  1  0.059000  0.135000  0.142800  1.0
  C  C1693  1  0.115000  0.809000  0.892800  1.0
  C  C1694  1  0.385000  0.191000  0.392800  1.0
  C  C1695  1  0.941000  0.365000  0.142800  1.0
  C  C1696  1  0.559000  0.635000  0.642800  1.0
  C  C1697  1  0.385000  0.691000  0.607200  1.0
  C  C1698  1  0.115000  0.309000  0.107200  1.0
  C  C1699  1  0.559000  0.135000  0.357200  1.0
  C  C1700  1  0.941000  0.865000  0.857200  1.0
  C  C1701  1  0.885000  0.191000  0.107200  1.0
  C  C1702  1  0.615000  0.809000  0.607200  1.0
  C  C1703  1  0.059000  0.635000  0.857200  1.0
  C  C1704  1  0.441000  0.365000  0.357200  1.0
  C  C1705  1  0.599600  0.217200  0.380900  1.0
  C  C1706  1  0.900400  0.782800  0.880900  1.0
  C  C1707  1  0.532800  0.849600  0.630900  1.0
  C  C1708  1  0.967200  0.150400  0.130900  1.0
  C  C1709  1  0.099600  0.717200  0.880900  1.0
  C  C1710  1  0.400400  0.282800  0.380900  1.0
  C  C1711  1  0.032800  0.349600  0.130900  1.0
  C  C1712  1  0.467200  0.650400  0.630900  1.0
  C  C1713  1  0.400400  0.782800  0.619100  1.0
  C  C1714  1  0.099600  0.217200  0.119100  1.0
  C  C1715  1  0.467200  0.150400  0.369100  1.0
  C  C1716  1  0.032800  0.849600  0.869100  1.0
  C  C1717  1  0.900400  0.282800  0.119100  1.0
  C  C1718  1  0.599600  0.717200  0.619100  1.0
  C  C1719  1  0.967200  0.650400  0.869100  1.0
  C  C1720  1  0.532800  0.349600  0.369100  1.0
  C  C1721  1  0.643000  0.224000  0.346500  1.0
  C  C1722  1  0.857000  0.776000  0.846500  1.0
  C  C1723  1  0.526000  0.893000  0.596500  1.0
  C  C1724  1  0.974000  0.107000  0.096500  1.0
  C  C1725  1  0.143000  0.724000  0.846500  1.0
  C  C1726  1  0.357000  0.276000  0.346500  1.0
  C  C1727  1  0.026000  0.393000  0.096500  1.0
  C  C1728  1  0.474000  0.607000  0.596500  1.0
  C  C1729  1  0.357000  0.776000  0.653500  1.0
  C  C1730  1  0.143000  0.224000  0.153500  1.0
  C  C1731  1  0.474000  0.107000  0.403500  1.0
  C  C1732  1  0.026000  0.893000  0.903500  1.0
  C  C1733  1  0.857000  0.276000  0.153500  1.0
  C  C1734  1  0.643000  0.724000  0.653500  1.0
  C  C1735  1  0.974000  0.607000  0.903500  1.0
  C  C1736  1  0.526000  0.393000  0.403500  1.0
  C  C1737  1  0.553000  0.377000  0.445000  1.0
  C  C1738  1  0.947000  0.623000  0.945000  1.0
  C  C1739  1  0.373000  0.803000  0.695000  1.0
  C  C1740  1  0.127000  0.197000  0.195000  1.0
  C  C1741  1  0.053000  0.877000  0.945000  1.0
  C  C1742  1  0.447000  0.123000  0.445000  1.0
  C  C1743  1  0.873000  0.303000  0.195000  1.0
  C  C1744  1  0.627000  0.697000  0.695000  1.0
  C  C1745  1  0.447000  0.623000  0.555000  1.0
  C  C1746  1  0.053000  0.377000  0.055000  1.0
  C  C1747  1  0.627000  0.197000  0.305000  1.0
  C  C1748  1  0.873000  0.803000  0.805000  1.0
  C  C1749  1  0.947000  0.123000  0.055000  1.0
  C  C1750  1  0.553000  0.877000  0.555000  1.0
  C  C1751  1  0.127000  0.697000  0.805000  1.0
  C  C1752  1  0.373000  0.303000  0.305000  1.0
  C  C1753  1  0.527000  0.329000  0.465800  1.0
  C  C1754  1  0.973000  0.671000  0.965800  1.0
  C  C1755  1  0.421000  0.777000  0.715800  1.0
  C  C1756  1  0.079000  0.223000  0.215800  1.0
  C  C1757  1  0.027000  0.829000  0.965800  1.0
  C  C1758  1  0.473000  0.171000  0.465800  1.0
  C  C1759  1  0.921000  0.277000  0.215800  1.0
  C  C1760  1  0.579000  0.723000  0.715800  1.0
  C  C1761  1  0.473000  0.671000  0.534200  1.0
  C  C1762  1  0.027000  0.329000  0.034200  1.0
  C  C1763  1  0.579000  0.223000  0.284200  1.0
  C  C1764  1  0.921000  0.777000  0.784200  1.0
  C  C1765  1  0.973000  0.171000  0.034200  1.0
  C  C1766  1  0.527000  0.829000  0.534200  1.0
  C  C1767  1  0.079000  0.723000  0.784200  1.0
  C  C1768  1  0.421000  0.277000  0.284200  1.0
  C  C1769  1  0.510000  0.291000  0.431000  1.0
  C  C1770  1  0.990000  0.709000  0.931000  1.0
  C  C1771  1  0.459000  0.760000  0.681000  1.0
  C  C1772  1  0.041000  0.240000  0.181000  1.0
  C  C1773  1  0.010000  0.791000  0.931000  1.0
  C  C1774  1  0.490000  0.209000  0.431000  1.0
  C  C1775  1  0.959000  0.260000  0.181000  1.0
  C  C1776  1  0.541000  0.740000  0.681000  1.0
  C  C1777  1  0.490000  0.709000  0.569000  1.0
  C  C1778  1  0.010000  0.291000  0.069000  1.0
  C  C1779  1  0.541000  0.240000  0.319000  1.0
  C  C1780  1  0.959000  0.760000  0.819000  1.0
  C  C1781  1  0.990000  0.209000  0.069000  1.0
  C  C1782  1  0.510000  0.791000  0.569000  1.0
  C  C1783  1  0.041000  0.740000  0.819000  1.0
  C  C1784  1  0.459000  0.260000  0.319000  1.0
  C  C1785  1  0.544000  0.298000  0.390800  1.0
  C  C1786  1  0.956000  0.702000  0.890800  1.0
  C  C1787  1  0.452000  0.794000  0.640800  1.0
  C  C1788  1  0.048000  0.206000  0.140800  1.0
  C  C1789  1  0.044000  0.798000  0.890800  1.0
  C  C1790  1  0.456000  0.202000  0.390800  1.0
  C  C1791  1  0.952000  0.294000  0.140800  1.0
  C  C1792  1  0.548000  0.706000  0.640800  1.0
  C  C1793  1  0.456000  0.702000  0.609200  1.0
  C  C1794  1  0.044000  0.298000  0.109200  1.0
  C  C1795  1  0.548000  0.206000  0.359200  1.0
  C  C1796  1  0.952000  0.794000  0.859200  1.0
  C  C1797  1  0.956000  0.202000  0.109200  1.0
  C  C1798  1  0.544000  0.798000  0.609200  1.0
  C  C1799  1  0.048000  0.706000  0.859200  1.0
  C  C1800  1  0.452000  0.294000  0.359200  1.0
  C  C1801  1  0.465990  0.322860  0.152030  1.0
  C  C1802  1  0.034010  0.677140  0.652030  1.0
  C  C1803  1  0.427140  0.715990  0.402030  1.0
  C  C1804  1  0.072860  0.284010  0.902030  1.0
  C  C1805  1  0.965990  0.822860  0.652030  1.0
  C  C1806  1  0.534010  0.177140  0.152030  1.0
  C  C1807  1  0.927140  0.215990  0.902030  1.0
  C  C1808  1  0.572860  0.784010  0.402030  1.0
  C  C1809  1  0.534010  0.677140  0.847970  1.0
  C  C1810  1  0.965990  0.322860  0.347970  1.0
  C  C1811  1  0.572860  0.284010  0.597970  1.0
  C  C1812  1  0.927140  0.715990  0.097970  1.0
  C  C1813  1  0.034010  0.177140  0.347970  1.0
  C  C1814  1  0.465990  0.822860  0.847970  1.0
  C  C1815  1  0.072860  0.784010  0.097970  1.0
  C  C1816  1  0.427140  0.215990  0.597970  1.0
  C  C1817  1  0.468840  0.355230  0.186660  1.0
  C  C1818  1  0.031160  0.644770  0.686660  1.0
  C  C1819  1  0.394770  0.718840  0.436660  1.0
  C  C1820  1  0.105230  0.281160  0.936660  1.0
  C  C1821  1  0.968840  0.855230  0.686660  1.0
  C  C1822  1  0.531160  0.144770  0.186660  1.0
  C  C1823  1  0.894770  0.218840  0.936660  1.0
  C  C1824  1  0.605230  0.781160  0.436660  1.0
  C  C1825  1  0.531160  0.644770  0.813340  1.0
  C  C1826  1  0.968840  0.355230  0.313340  1.0
  C  C1827  1  0.605230  0.281160  0.563340  1.0
  C  C1828  1  0.894770  0.718840  0.063340  1.0
  C  C1829  1  0.031160  0.144770  0.313340  1.0
  C  C1830  1  0.468840  0.855230  0.813340  1.0
  C  C1831  1  0.105230  0.781160  0.063340  1.0
  C  C1832  1  0.394770  0.218840  0.563340  1.0
  C  C1833  1  0.516710  0.367360  0.203230  1.0
  C  C1834  1  0.983290  0.632640  0.703230  1.0
  C  C1835  1  0.382640  0.766710  0.453230  1.0
  C  C1836  1  0.117360  0.233290  0.953230  1.0
  C  C1837  1  0.016710  0.867360  0.703230  1.0
  C  C1838  1  0.483290  0.132640  0.203230  1.0
  C  C1839  1  0.882640  0.266710  0.953230  1.0
  C  C1840  1  0.617360  0.733290  0.453230  1.0
  C  C1841  1  0.483290  0.632640  0.796770  1.0
  C  C1842  1  0.016710  0.367360  0.296770  1.0
  C  C1843  1  0.617360  0.233290  0.546770  1.0
  C  C1844  1  0.882640  0.766710  0.046770  1.0
  C  C1845  1  0.983290  0.132640  0.296770  1.0
  C  C1846  1  0.516710  0.867360  0.796770  1.0
  C  C1847  1  0.117360  0.733290  0.046770  1.0
  C  C1848  1  0.382640  0.266710  0.546770  1.0
  C  C1849  1  0.559650  0.346040  0.184540  1.0
  C  C1850  1  0.940350  0.653960  0.684540  1.0
  C  C1851  1  0.403960  0.809650  0.434540  1.0
  C  C1852  1  0.096040  0.190350  0.934540  1.0
  C  C1853  1  0.059650  0.846040  0.684540  1.0
  C  C1854  1  0.440350  0.153960  0.184540  1.0
  C  C1855  1  0.903960  0.309650  0.934540  1.0
  C  C1856  1  0.596040  0.690350  0.434540  1.0
  C  C1857  1  0.440350  0.653960  0.815460  1.0
  C  C1858  1  0.059650  0.346040  0.315460  1.0
  C  C1859  1  0.596040  0.190350  0.565460  1.0
  C  C1860  1  0.903960  0.809650  0.065460  1.0
  C  C1861  1  0.940350  0.153960  0.315460  1.0
  C  C1862  1  0.559650  0.846040  0.815460  1.0
  C  C1863  1  0.096040  0.690350  0.065460  1.0
  C  C1864  1  0.403960  0.309650  0.565460  1.0
  C  C1865  1  0.553980  0.313970  0.150130  1.0
  C  C1866  1  0.946020  0.686030  0.650130  1.0
  C  C1867  1  0.436030  0.803980  0.400130  1.0
  C  C1868  1  0.063970  0.196020  0.900130  1.0
  C  C1869  1  0.053980  0.813970  0.650130  1.0
  C  C1870  1  0.446020  0.186030  0.150130  1.0
  C  C1871  1  0.936030  0.303980  0.900130  1.0
  C  C1872  1  0.563970  0.696020  0.400130  1.0
  C  C1873  1  0.446020  0.686030  0.849870  1.0
  C  C1874  1  0.053980  0.313970  0.349870  1.0
  C  C1875  1  0.563970  0.196020  0.599870  1.0
  C  C1876  1  0.936030  0.803980  0.099870  1.0
  C  C1877  1  0.946020  0.186030  0.349870  1.0
  C  C1878  1  0.553980  0.813970  0.849870  1.0
  C  C1879  1  0.063970  0.696020  0.099870  1.0
  C  C1880  1  0.436030  0.303980  0.599870  1.0
  C  C1881  1  0.396730  0.521530  0.364800  1.0
  C  C1882  1  0.103270  0.478470  0.864800  1.0
  C  C1883  1  0.228470  0.646730  0.614800  1.0
  C  C1884  1  0.271530  0.353270  0.114800  1.0
  C  C1885  1  0.896730  0.021530  0.864800  1.0
  C  C1886  1  0.603270  0.978470  0.364800  1.0
  C  C1887  1  0.728470  0.146730  0.114800  1.0
  C  C1888  1  0.771530  0.853270  0.614800  1.0
  C  C1889  1  0.603270  0.478470  0.635200  1.0
  C  C1890  1  0.896730  0.521530  0.135200  1.0
  C  C1891  1  0.771530  0.353270  0.385200  1.0
  C  C1892  1  0.728470  0.646730  0.885200  1.0
  C  C1893  1  0.103270  0.978470  0.135200  1.0
  C  C1894  1  0.396730  0.021530  0.635200  1.0
  C  C1895  1  0.271530  0.853270  0.885200  1.0
  C  C1896  1  0.228470  0.146730  0.385200  1.0
  C  C1897  1  0.440930  0.501780  0.347080  1.0
  C  C1898  1  0.059070  0.498220  0.847080  1.0
  C  C1899  1  0.248220  0.690930  0.597080  1.0
  C  C1900  1  0.251780  0.309070  0.097080  1.0
  C  C1901  1  0.940930  0.001780  0.847080  1.0
  C  C1902  1  0.559070  0.998220  0.347080  1.0
  C  C1903  1  0.748220  0.190930  0.097080  1.0
  C  C1904  1  0.751780  0.809070  0.597080  1.0
  C  C1905  1  0.559070  0.498220  0.652920  1.0
  C  C1906  1  0.940930  0.501780  0.152920  1.0
  C  C1907  1  0.751780  0.309070  0.402920  1.0
  C  C1908  1  0.748220  0.690930  0.902920  1.0
  C  C1909  1  0.059070  0.998220  0.152920  1.0
  C  C1910  1  0.440930  0.001780  0.652920  1.0
  C  C1911  1  0.251780  0.809070  0.902920  1.0
  C  C1912  1  0.248220  0.190930  0.402920  1.0
  C  C1913  1  0.437670  0.472960  0.310080  1.0
  C  C1914  1  0.062330  0.527040  0.810080  1.0
  C  C1915  1  0.277040  0.687670  0.560080  1.0
  C  C1916  1  0.222960  0.312330  0.060080  1.0
  C  C1917  1  0.937670  0.972960  0.810080  1.0
  C  C1918  1  0.562330  0.027040  0.310080  1.0
  C  C1919  1  0.777040  0.187670  0.060080  1.0
  C  C1920  1  0.722960  0.812330  0.560080  1.0
  C  C1921  1  0.562330  0.527040  0.689920  1.0
  C  C1922  1  0.937670  0.472960  0.189920  1.0
  C  C1923  1  0.722960  0.312330  0.439920  1.0
  C  C1924  1  0.777040  0.687670  0.939920  1.0
  C  C1925  1  0.062330  0.027040  0.189920  1.0
  C  C1926  1  0.437670  0.972960  0.689920  1.0
  C  C1927  1  0.222960  0.812330  0.939920  1.0
  C  C1928  1  0.277040  0.187670  0.439920  1.0
  C  C1929  1  0.390110  0.464700  0.291870  1.0
  C  C1930  1  0.109890  0.535300  0.791870  1.0
  C  C1931  1  0.285300  0.640110  0.541870  1.0
  C  C1932  1  0.214700  0.359890  0.041870  1.0
  C  C1933  1  0.890110  0.964700  0.791870  1.0
  C  C1934  1  0.609890  0.035300  0.291870  1.0
  C  C1935  1  0.785300  0.140110  0.041870  1.0
  C  C1936  1  0.714700  0.859890  0.541870  1.0
  C  C1937  1  0.609890  0.535300  0.708130  1.0
  C  C1938  1  0.890110  0.464700  0.208130  1.0
  C  C1939  1  0.714700  0.359890  0.458130  1.0
  C  C1940  1  0.785300  0.640110  0.958130  1.0
  C  C1941  1  0.109890  0.035300  0.208130  1.0
  C  C1942  1  0.390110  0.964700  0.708130  1.0
  C  C1943  1  0.214700  0.859890  0.958130  1.0
  C  C1944  1  0.285300  0.140110  0.458130  1.0
  C  C1945  1  0.347170  0.485800  0.311040  1.0
  C  C1946  1  0.152830  0.514200  0.811040  1.0
  C  C1947  1  0.264200  0.597170  0.561040  1.0
  C  C1948  1  0.235800  0.402830  0.061040  1.0
  C  C1949  1  0.847170  0.985800  0.811040  1.0
  C  C1950  1  0.652830  0.014200  0.311040  1.0
  C  C1951  1  0.764200  0.097170  0.061040  1.0
  C  C1952  1  0.735800  0.902830  0.561040  1.0
  C  C1953  1  0.652830  0.514200  0.688960  1.0
  C  C1954  1  0.847170  0.485800  0.188960  1.0
  C  C1955  1  0.735800  0.402830  0.438960  1.0
  C  C1956  1  0.764200  0.597170  0.938960  1.0
  C  C1957  1  0.152830  0.014200  0.188960  1.0
  C  C1958  1  0.347170  0.985800  0.688960  1.0
  C  C1959  1  0.235800  0.902830  0.938960  1.0
  C  C1960  1  0.264200  0.097170  0.438960  1.0
  C  C1961  1  0.312380  0.462090  0.442450  1.0
  C  C1962  1  0.187620  0.537910  0.942450  1.0
  C  C1963  1  0.287910  0.562380  0.692450  1.0
  C  C1964  1  0.212090  0.437620  0.192450  1.0
  C  C1965  1  0.812380  0.962090  0.942450  1.0
  C  C1966  1  0.687620  0.037910  0.442450  1.0
  C  C1967  1  0.787910  0.062380  0.192450  1.0
  C  C1968  1  0.712090  0.937620  0.692450  1.0
  C  C1969  1  0.687620  0.537910  0.557550  1.0
  C  C1970  1  0.812380  0.462090  0.057550  1.0
  C  C1971  1  0.712090  0.437620  0.307550  1.0
  C  C1972  1  0.787910  0.562380  0.807550  1.0
  C  C1973  1  0.187620  0.037910  0.057550  1.0
  C  C1974  1  0.312380  0.962090  0.557550  1.0
  C  C1975  1  0.212090  0.937620  0.807550  1.0
  C  C1976  1  0.287910  0.062380  0.307550  1.0
  C  C1977  1  0.320300  0.414700  0.460560  1.0
  C  C1978  1  0.179700  0.585300  0.960560  1.0
  C  C1979  1  0.335300  0.570300  0.710560  1.0
  C  C1980  1  0.164700  0.429700  0.210560  1.0
  C  C1981  1  0.820300  0.914700  0.960560  1.0
  C  C1982  1  0.679700  0.085300  0.460560  1.0
  C  C1983  1  0.835300  0.070300  0.210560  1.0
  C  C1984  1  0.664700  0.929700  0.710560  1.0
  C  C1985  1  0.679700  0.585300  0.539440  1.0
  C  C1986  1  0.820300  0.414700  0.039440  1.0
  C  C1987  1  0.664700  0.429700  0.289440  1.0
  C  C1988  1  0.835300  0.570300  0.789440  1.0
  C  C1989  1  0.179700  0.085300  0.039440  1.0
  C  C1990  1  0.320300  0.914700  0.539440  1.0
  C  C1991  1  0.164700  0.929700  0.789440  1.0
  C  C1992  1  0.335300  0.070300  0.289440  1.0
  C  C1993  1  0.301340  0.371190  0.441020  1.0
  C  C1994  1  0.198660  0.628810  0.941020  1.0
  C  C1995  1  0.378810  0.551340  0.691020  1.0
  C  C1996  1  0.121190  0.448660  0.191020  1.0
  C  C1997  1  0.801340  0.871190  0.941020  1.0
  C  C1998  1  0.698660  0.128810  0.441020  1.0
  C  C1999  1  0.878810  0.051340  0.191020  1.0
  C  C2000  1  0.621190  0.948660  0.691020  1.0
  C  C2001  1  0.698660  0.628810  0.558980  1.0
  C  C2002  1  0.801340  0.371190  0.058980  1.0
  C  C2003  1  0.621190  0.448660  0.308980  1.0
  C  C2004  1  0.878810  0.551340  0.808980  1.0
  C  C2005  1  0.198660  0.128810  0.058980  1.0
  C  C2006  1  0.301340  0.871190  0.558980  1.0
  C  C2007  1  0.121190  0.948660  0.808980  1.0
  C  C2008  1  0.378810  0.051340  0.308980  1.0
  C  C2009  1  0.274300  0.376800  0.403640  1.0
  C  C2010  1  0.225700  0.623200  0.903640  1.0
  C  C2011  1  0.373200  0.524300  0.653640  1.0
  C  C2012  1  0.126800  0.475700  0.153640  1.0
  C  C2013  1  0.774300  0.876800  0.903640  1.0
  C  C2014  1  0.725700  0.123200  0.403640  1.0
  C  C2015  1  0.873200  0.024300  0.153640  1.0
  C  C2016  1  0.626800  0.975700  0.653640  1.0
  C  C2017  1  0.725700  0.623200  0.596360  1.0
  C  C2018  1  0.774300  0.376800  0.096360  1.0
  C  C2019  1  0.626800  0.475700  0.346360  1.0
  C  C2020  1  0.873200  0.524300  0.846360  1.0
  C  C2021  1  0.225700  0.123200  0.096360  1.0
  C  C2022  1  0.274300  0.876800  0.596360  1.0
  C  C2023  1  0.126800  0.975700  0.846360  1.0
  C  C2024  1  0.373200  0.024300  0.346360  1.0
  C  C2025  1  0.268420  0.425790  0.386540  1.0
  C  C2026  1  0.231580  0.574210  0.886540  1.0
  C  C2027  1  0.324210  0.518420  0.636540  1.0
  C  C2028  1  0.175790  0.481580  0.136540  1.0
  C  C2029  1  0.768420  0.925790  0.886540  1.0
  C  C2030  1  0.731580  0.074210  0.386540  1.0
  C  C2031  1  0.824210  0.018420  0.136540  1.0
  C  C2032  1  0.675790  0.981580  0.636540  1.0
  C  C2033  1  0.731580  0.574210  0.613460  1.0
  C  C2034  1  0.768420  0.425790  0.113460  1.0
  C  C2035  1  0.675790  0.481580  0.363460  1.0
  C  C2036  1  0.824210  0.518420  0.863460  1.0
  C  C2037  1  0.231580  0.074210  0.113460  1.0
  C  C2038  1  0.268420  0.925790  0.613460  1.0
  C  C2039  1  0.175790  0.981580  0.863460  1.0
  C  C2040  1  0.324210  0.018420  0.363460  1.0
  C  C2041  1  0.521430  0.401400  0.240570  1.0
  C  C2042  1  0.978570  0.598600  0.740570  1.0
  C  C2043  1  0.348600  0.771430  0.490570  1.0
  C  C2044  1  0.151400  0.228570  0.990570  1.0
  C  C2045  1  0.021430  0.901400  0.740570  1.0
  C  C2046  1  0.478570  0.098600  0.240570  1.0
  C  C2047  1  0.848600  0.271430  0.990570  1.0
  C  C2048  1  0.651400  0.728570  0.490570  1.0
  C  C2049  1  0.478570  0.598600  0.759430  1.0
  C  C2050  1  0.021430  0.401400  0.259430  1.0
  C  C2051  1  0.651400  0.228570  0.509430  1.0
  C  C2052  1  0.848600  0.771430  0.009430  1.0
  C  C2053  1  0.978570  0.098600  0.259430  1.0
  C  C2054  1  0.521430  0.901400  0.759430  1.0
  C  C2055  1  0.151400  0.728570  0.009430  1.0
  C  C2056  1  0.348600  0.271430  0.509430  1.0
  C  C2057  1  0.484870  0.450650  0.290750  1.0
  C  C2058  1  0.015130  0.549350  0.790750  1.0
  C  C2059  1  0.299350  0.734870  0.540750  1.0
  C  C2060  1  0.200650  0.265130  0.040750  1.0
  C  C2061  1  0.984870  0.950650  0.790750  1.0
  C  C2062  1  0.515130  0.049350  0.290750  1.0
  C  C2063  1  0.799350  0.234870  0.040750  1.0
  C  C2064  1  0.700650  0.765130  0.540750  1.0
  C  C2065  1  0.515130  0.549350  0.709250  1.0
  C  C2066  1  0.984870  0.450650  0.209250  1.0
  C  C2067  1  0.700650  0.265130  0.459250  1.0
  C  C2068  1  0.799350  0.734870  0.959250  1.0
  C  C2069  1  0.015130  0.049350  0.209250  1.0
  C  C2070  1  0.484870  0.950650  0.709250  1.0
  C  C2071  1  0.200650  0.765130  0.959250  1.0
  C  C2072  1  0.299350  0.234870  0.459250  1.0
  C  C2073  1  0.310740  0.320010  0.459760  1.0
  C  C2074  1  0.189260  0.679990  0.959760  1.0
  C  C2075  1  0.429990  0.560740  0.709760  1.0
  C  C2076  1  0.070010  0.439260  0.209760  1.0
  C  C2077  1  0.810740  0.820010  0.959760  1.0
  C  C2078  1  0.689260  0.179990  0.459760  1.0
  C  C2079  1  0.929990  0.060740  0.209760  1.0
  C  C2080  1  0.570010  0.939260  0.709760  1.0
  C  C2081  1  0.689260  0.679990  0.540240  1.0
  C  C2082  1  0.810740  0.320010  0.040240  1.0
  C  C2083  1  0.570010  0.439260  0.290240  1.0
  C  C2084  1  0.929990  0.560740  0.790240  1.0
  C  C2085  1  0.189260  0.179990  0.040240  1.0
  C  C2086  1  0.310740  0.820010  0.540240  1.0
  C  C2087  1  0.070010  0.939260  0.790240  1.0
  C  C2088  1  0.429990  0.060740  0.290240  1.0
  C  C2089  1  0.435900  0.183600  0.034700  1.0
  C  C2090  1  0.064100  0.816400  0.534700  1.0
  C  C2091  1  0.566400  0.685900  0.284700  1.0
  C  C2092  1  0.933600  0.314100  0.784700  1.0
  C  C2093  1  0.935900  0.683600  0.534700  1.0
  C  C2094  1  0.564100  0.316400  0.034700  1.0
  C  C2095  1  0.066400  0.185900  0.784700  1.0
  C  C2096  1  0.433600  0.814100  0.284700  1.0
  C  C2097  1  0.564100  0.816400  0.965300  1.0
  C  C2098  1  0.935900  0.183600  0.465300  1.0
  C  C2099  1  0.433600  0.314100  0.715300  1.0
  C  C2100  1  0.066400  0.685900  0.215300  1.0
  C  C2101  1  0.064100  0.316400  0.465300  1.0
  C  C2102  1  0.435900  0.683600  0.965300  1.0
  C  C2103  1  0.933600  0.814100  0.215300  1.0
  C  C2104  1  0.566400  0.185900  0.715300  1.0
  C  C2105  1  0.509000  0.222700  0.998570  1.0
  C  C2106  1  0.991000  0.777300  0.498570  1.0
  C  C2107  1  0.527300  0.759000  0.248570  1.0
  C  C2108  1  0.972700  0.241000  0.748570  1.0
  C  C2109  1  0.009000  0.722700  0.498570  1.0
  C  C2110  1  0.491000  0.277300  0.998570  1.0
  C  C2111  1  0.027300  0.259000  0.748570  1.0
  C  C2112  1  0.472700  0.741000  0.248570  1.0
  C  C2113  1  0.491000  0.777300  0.001430  1.0
  C  C2114  1  0.009000  0.222700  0.501430  1.0
  C  C2115  1  0.472700  0.241000  0.751430  1.0
  C  C2116  1  0.027300  0.759000  0.251430  1.0
  C  C2117  1  0.991000  0.277300  0.501430  1.0
  C  C2118  1  0.509000  0.722700  0.001430  1.0
  C  C2119  1  0.972700  0.741000  0.251430  1.0
  C  C2120  1  0.527300  0.259000  0.751430  1.0
  C  C2121  1  0.521000  0.149400  0.044910  1.0
  C  C2122  1  0.979000  0.850600  0.544910  1.0
  C  C2123  1  0.600600  0.771000  0.294910  1.0
  C  C2124  1  0.899400  0.229000  0.794910  1.0
  C  C2125  1  0.021000  0.649400  0.544910  1.0
  C  C2126  1  0.479000  0.350600  0.044910  1.0
  C  C2127  1  0.100600  0.271000  0.794910  1.0
  C  C2128  1  0.399400  0.729000  0.294910  1.0
  C  C2129  1  0.479000  0.850600  0.955090  1.0
  C  C2130  1  0.021000  0.149400  0.455090  1.0
  C  C2131  1  0.399400  0.229000  0.705090  1.0
  C  C2132  1  0.100600  0.771000  0.205090  1.0
  C  C2133  1  0.979000  0.350600  0.455090  1.0
  C  C2134  1  0.521000  0.649400  0.955090  1.0
  C  C2135  1  0.899400  0.729000  0.205090  1.0
  C  C2136  1  0.600600  0.271000  0.705090  1.0
  C  C2137  1  0.176600  0.537400  0.389000  1.0
  C  C2138  1  0.323400  0.462600  0.889000  1.0
  C  C2139  1  0.212600  0.426600  0.639000  1.0
  C  C2140  1  0.287400  0.573400  0.139000  1.0
  C  C2141  1  0.676600  0.037400  0.889000  1.0
  C  C2142  1  0.823400  0.962600  0.389000  1.0
  C  C2143  1  0.712600  0.926600  0.139000  1.0
  C  C2144  1  0.787400  0.073400  0.639000  1.0
  C  C2145  1  0.823400  0.462600  0.611000  1.0
  C  C2146  1  0.676600  0.537400  0.111000  1.0
  C  C2147  1  0.787400  0.573400  0.361000  1.0
  C  C2148  1  0.712600  0.426600  0.861000  1.0
  C  C2149  1  0.323400  0.962600  0.111000  1.0
  C  C2150  1  0.176600  0.037400  0.611000  1.0
  C  C2151  1  0.287400  0.073400  0.861000  1.0
  C  C2152  1  0.212600  0.926600  0.361000  1.0
  C  C2153  1  0.223300  0.556400  0.453600  1.0
  C  C2154  1  0.276700  0.443600  0.953600  1.0
  C  C2155  1  0.193600  0.473300  0.703600  1.0
  C  C2156  1  0.306400  0.526700  0.203600  1.0
  C  C2157  1  0.723300  0.056400  0.953600  1.0
  C  C2158  1  0.776700  0.943600  0.453600  1.0
  C  C2159  1  0.693600  0.973300  0.203600  1.0
  C  C2160  1  0.806400  0.026700  0.703600  1.0
  C  C2161  1  0.776700  0.443600  0.546400  1.0
  C  C2162  1  0.723300  0.556400  0.046400  1.0
  C  C2163  1  0.806400  0.526700  0.296400  1.0
  C  C2164  1  0.693600  0.473300  0.796400  1.0
  C  C2165  1  0.276700  0.943600  0.046400  1.0
  C  C2166  1  0.223300  0.056400  0.546400  1.0
  C  C2167  1  0.306400  0.026700  0.796400  1.0
  C  C2168  1  0.193600  0.973300  0.296400  1.0
  C  C2169  1  0.219900  0.620800  0.397700  1.0
  C  C2170  1  0.280100  0.379200  0.897700  1.0
  C  C2171  1  0.129200  0.469900  0.647700  1.0
  C  C2172  1  0.370800  0.530100  0.147700  1.0
  C  C2173  1  0.719900  0.120800  0.897700  1.0
  C  C2174  1  0.780100  0.879200  0.397700  1.0
  C  C2175  1  0.629200  0.969900  0.147700  1.0
  C  C2176  1  0.870800  0.030100  0.647700  1.0
  C  C2177  1  0.780100  0.379200  0.602300  1.0
  C  C2178  1  0.719900  0.620800  0.102300  1.0
  C  C2179  1  0.870800  0.530100  0.352300  1.0
  C  C2180  1  0.629200  0.469900  0.852300  1.0
  C  C2181  1  0.280100  0.879200  0.102300  1.0
  C  C2182  1  0.219900  0.120800  0.602300  1.0
  C  C2183  1  0.370800  0.030100  0.852300  1.0
  C  C2184  1  0.129200  0.969900  0.352300  1.0
  C  C2185  1  0.236100  0.629900  0.353000  1.0
  C  C2186  1  0.263900  0.370100  0.853000  1.0
  C  C2187  1  0.120100  0.486100  0.603000  1.0
  C  C2188  1  0.379900  0.513900  0.103000  1.0
  C  C2189  1  0.736100  0.129900  0.853000  1.0
  C  C2190  1  0.763900  0.870100  0.353000  1.0
  C  C2191  1  0.620100  0.986100  0.103000  1.0
  C  C2192  1  0.879900  0.013900  0.603000  1.0
  C  C2193  1  0.763900  0.370100  0.647000  1.0
  C  C2194  1  0.736100  0.629900  0.147000  1.0
  C  C2195  1  0.879900  0.513900  0.397000  1.0
  C  C2196  1  0.620100  0.486100  0.897000  1.0
  C  C2197  1  0.263900  0.870100  0.147000  1.0
  C  C2198  1  0.236100  0.129900  0.647000  1.0
  C  C2199  1  0.379900  0.013900  0.897000  1.0
  C  C2200  1  0.120100  0.986100  0.397000  1.0
  C  C2201  1  0.329300  0.637000  0.357900  1.0
  C  C2202  1  0.170700  0.363000  0.857900  1.0
  C  C2203  1  0.113000  0.579300  0.607900  1.0
  C  C2204  1  0.387000  0.420700  0.107900  1.0
  C  C2205  1  0.829300  0.137000  0.857900  1.0
  C  C2206  1  0.670700  0.863000  0.357900  1.0
  C  C2207  1  0.613000  0.079300  0.107900  1.0
  C  C2208  1  0.887000  0.920700  0.607900  1.0
  C  C2209  1  0.670700  0.363000  0.642100  1.0
  C  C2210  1  0.829300  0.637000  0.142100  1.0
  C  C2211  1  0.887000  0.420700  0.392100  1.0
  C  C2212  1  0.613000  0.579300  0.892100  1.0
  C  C2213  1  0.170700  0.863000  0.142100  1.0
  C  C2214  1  0.329300  0.137000  0.642100  1.0
  C  C2215  1  0.387000  0.920700  0.892100  1.0
  C  C2216  1  0.113000  0.079300  0.392100  1.0
  C  C2217  1  0.300000  0.607200  0.300900  1.0
  C  C2218  1  0.200000  0.392800  0.800900  1.0
  C  C2219  1  0.142800  0.550000  0.550900  1.0
  C  C2220  1  0.357200  0.450000  0.050900  1.0
  C  C2221  1  0.800000  0.107200  0.800900  1.0
  C  C2222  1  0.700000  0.892800  0.300900  1.0
  C  C2223  1  0.642800  0.050000  0.050900  1.0
  C  C2224  1  0.857200  0.950000  0.550900  1.0
  C  C2225  1  0.700000  0.392800  0.699100  1.0
  C  C2226  1  0.800000  0.607200  0.199100  1.0
  C  C2227  1  0.857200  0.450000  0.449100  1.0
  C  C2228  1  0.642800  0.550000  0.949100  1.0
  C  C2229  1  0.200000  0.892800  0.199100  1.0
  C  C2230  1  0.300000  0.107200  0.699100  1.0
  C  C2231  1  0.357200  0.950000  0.949100  1.0
  C  C2232  1  0.142800  0.050000  0.449100  1.0
  N  N2233  1  0.384000  0.564700  0.483000  1
  N  N2234  1  0.116000  0.435300  0.983000  1
  N  N2235  1  0.185300  0.634000  0.733000  1
  N  N2236  1  0.314700  0.366000  0.233000  1
  N  N2237  1  0.884000  0.064700  0.983000  1
  N  N2238  1  0.616000  0.935300  0.483000  1
  N  N2239  1  0.685300  0.134000  0.233000  1
  N  N2240  1  0.814700  0.866000  0.733000  1
  N  N2241  1  0.616000  0.435300  0.517000  1
  N  N2242  1  0.884000  0.564700  0.017000  1
  N  N2243  1  0.814700  0.366000  0.267000  1
  N  N2244  1  0.685300  0.634000  0.767000  1
  N  N2245  1  0.116000  0.935300  0.017000  1
  N  N2246  1  0.384000  0.064700  0.517000  1
  N  N2247  1  0.314700  0.866000  0.767000  1
  N  N2248  1  0.185300  0.134000  0.267000  1
  N  N2249  1  0.175300  0.479700  0.300900  1
  N  N2250  1  0.324700  0.520300  0.800900  1
  N  N2251  1  0.270300  0.425300  0.550900  1
  N  N2252  1  0.229700  0.574700  0.050900  1
  N  N2253  1  0.675300  0.979700  0.800900  1
  N  N2254  1  0.824700  0.020300  0.300900  1
  N  N2255  1  0.770300  0.925300  0.050900  1
  N  N2256  1  0.729700  0.074700  0.550900  1
  N  N2257  1  0.824700  0.520300  0.699100  1
  N  N2258  1  0.675300  0.479700  0.199100  1
  N  N2259  1  0.729700  0.574700  0.449100  1
  N  N2260  1  0.770300  0.425300  0.949100  1
  N  N2261  1  0.324700  0.020300  0.199100  1
  N  N2262  1  0.175300  0.979700  0.699100  1
  N  N2263  1  0.229700  0.074700  0.949100  1
  N  N2264  1  0.270300  0.925300  0.449100  1
  N  N2265  1  0.351700  0.324100  0.998700  1
  N  N2266  1  0.148300  0.675900  0.498700  1
  N  N2267  1  0.425900  0.601700  0.248700  1
  N  N2268  1  0.074100  0.398300  0.748700  1
  N  N2269  1  0.851700  0.824100  0.498700  1
  N  N2270  1  0.648300  0.175900  0.998700  1
  N  N2271  1  0.925900  0.101700  0.748700  1
  N  N2272  1  0.574100  0.898300  0.248700  1
  N  N2273  1  0.648300  0.675900  0.001300  1
  N  N2274  1  0.851700  0.324100  0.501300  1
  N  N2275  1  0.574100  0.398300  0.751300  1
  N  N2276  1  0.925900  0.601700  0.251300  1
  N  N2277  1  0.148300  0.175900  0.501300  1
  N  N2278  1  0.351700  0.824100  0.001300  1
  N  N2279  1  0.074100  0.898300  0.251300  1
  N  N2280  1  0.425900  0.101700  0.751300  1
  N  N2281  1  0.468600  0.030100  0.137200  1
  N  N2282  1  0.031400  0.969900  0.637200  1
  N  N2283  1  0.719900  0.718600  0.387200  1
  N  N2284  1  0.780100  0.281400  0.887200  1
  N  N2285  1  0.968600  0.530100  0.637200  1
  N  N2286  1  0.531400  0.469900  0.137200  1
  N  N2287  1  0.219900  0.218600  0.887200  1
  N  N2288  1  0.280100  0.781400  0.387200  1
  N  N2289  1  0.531400  0.969900  0.862800  1
  N  N2290  1  0.968600  0.030100  0.362800  1
  N  N2291  1  0.280100  0.281400  0.612800  1
  N  N2292  1  0.219900  0.718600  0.112800  1
  N  N2293  1  0.031400  0.469900  0.362800  1
  N  N2294  1  0.468600  0.530100  0.862800  1
  N  N2295  1  0.780100  0.781400  0.112800  1
  N  N2296  1  0.719900  0.218600  0.612800  1
  N  N2297  1  0.420800  0.596800  0.460500  1
  N  N2298  1  0.079200  0.403200  0.960500  1
  N  N2299  1  0.153200  0.670800  0.710500  1
  N  N2300  1  0.346800  0.329200  0.210500  1
  N  N2301  1  0.920800  0.096800  0.960500  1
  N  N2302  1  0.579200  0.903200  0.460500  1
  N  N2303  1  0.653200  0.170800  0.210500  1
  N  N2304  1  0.846800  0.829200  0.710500  1
  N  N2305  1  0.579200  0.403200  0.539500  1
  N  N2306  1  0.920800  0.596800  0.039500  1
  N  N2307  1  0.846800  0.329200  0.289500  1
  N  N2308  1  0.653200  0.670800  0.789500  1
  N  N2309  1  0.079200  0.903200  0.039500  1
  N  N2310  1  0.420800  0.096800  0.539500  1
  N  N2311  1  0.346800  0.829200  0.789500  1
  N  N2312  1  0.153200  0.170800  0.289500  1
  N  N2313  1  0.156500  0.581300  0.239900  1
  N  N2314  1  0.343500  0.418700  0.739900  1
  N  N2315  1  0.168700  0.406500  0.489900  1
  N  N2316  1  0.331300  0.593500  0.989900  1
  N  N2317  1  0.656500  0.081300  0.739900  1
  N  N2318  1  0.843500  0.918700  0.239900  1
  N  N2319  1  0.668700  0.906500  0.989900  1
  N  N2320  1  0.831300  0.093500  0.489900  1
  N  N2321  1  0.843500  0.418700  0.760100  1
  N  N2322  1  0.656500  0.581300  0.260100  1
  N  N2323  1  0.831300  0.593500  0.510100  1
  N  N2324  1  0.668700  0.406500  0.010100  1
  N  N2325  1  0.343500  0.918700  0.260100  1
  N  N2326  1  0.156500  0.081300  0.760100  1
  N  N2327  1  0.331300  0.093500  0.010100  1
  N  N2328  1  0.168700  0.906500  0.510100  1
  N  N2329  1  0.325800  0.295000  0.992700  1
  N  N2330  1  0.174200  0.705000  0.492700  1
  N  N2331  1  0.455000  0.575800  0.242700  1
  N  N2332  1  0.045000  0.424200  0.742700  1
  N  N2333  1  0.825800  0.795000  0.492700  1
  N  N2334  1  0.674200  0.205000  0.992700  1
  N  N2335  1  0.955000  0.075800  0.742700  1
  N  N2336  1  0.545000  0.924200  0.242700  1
  N  N2337  1  0.674200  0.705000  0.007300  1
  N  N2338  1  0.825800  0.295000  0.507300  1
  N  N2339  1  0.545000  0.424200  0.757300  1
  N  N2340  1  0.955000  0.575800  0.257300  1
  N  N2341  1  0.174200  0.205000  0.507300  1
  N  N2342  1  0.325800  0.795000  0.007300  1
  N  N2343  1  0.045000  0.924200  0.257300  1
  N  N2344  1  0.455000  0.075800  0.757300  1
  N  N2345  1  0.597100  0.262900  0.405700  1.0
  N  N2346  1  0.902900  0.737100  0.905700  1.0
  N  N2347  1  0.487100  0.847100  0.655700  1.0
  N  N2348  1  0.012900  0.152900  0.155700  1.0
  N  N2349  1  0.097100  0.762900  0.905700  1.0
  N  N2350  1  0.402900  0.237100  0.405700  1.0
  N  N2351  1  0.987100  0.347100  0.155700  1.0
  N  N2352  1  0.512900  0.652900  0.655700  1.0
  N  N2353  1  0.402900  0.737100  0.594300  1.0
  N  N2354  1  0.097100  0.262900  0.094300  1.0
  N  N2355  1  0.512900  0.152900  0.344300  1.0
  N  N2356  1  0.987100  0.847100  0.844300  1.0
  N  N2357  1  0.902900  0.237100  0.094300  1.0
  N  N2358  1  0.597100  0.762900  0.594300  1.0
  N  N2359  1  0.012900  0.652900  0.844300  1.0
  N  N2360  1  0.487100  0.347100  0.344300  1.0
  N  N2361  1  0.508030  0.302420  0.133770  1.0
  N  N2362  1  0.991970  0.697580  0.633770  1.0
  N  N2363  1  0.447580  0.758030  0.383770  1.0
  N  N2364  1  0.052420  0.241970  0.883770  1.0
  N  N2365  1  0.008030  0.802420  0.633770  1.0
  N  N2366  1  0.491970  0.197580  0.133770  1.0
  N  N2367  1  0.947580  0.258030  0.883770  1.0
  N  N2368  1  0.552420  0.741970  0.383770  1.0
  N  N2369  1  0.491970  0.697580  0.866230  1.0
  N  N2370  1  0.008030  0.302420  0.366230  1.0
  N  N2371  1  0.552420  0.241970  0.616230  1.0
  N  N2372  1  0.947580  0.758030  0.116230  1.0
  N  N2373  1  0.991970  0.197580  0.366230  1.0
  N  N2374  1  0.508030  0.802420  0.866230  1.0
  N  N2375  1  0.052420  0.741970  0.116230  1.0
  N  N2376  1  0.447580  0.258030  0.616230  1.0
  N  N2377  1  0.350740  0.514020  0.346900  1.0
  N  N2378  1  0.149260  0.485980  0.846900  1.0
  N  N2379  1  0.235980  0.600740  0.596900  1.0
  N  N2380  1  0.264020  0.399260  0.096900  1.0
  N  N2381  1  0.850740  0.014020  0.846900  1.0
  N  N2382  1  0.649260  0.985980  0.346900  1.0
  N  N2383  1  0.735980  0.100740  0.096900  1.0
  N  N2384  1  0.764020  0.899260  0.596900  1.0
  N  N2385  1  0.649260  0.485980  0.653100  1.0
  N  N2386  1  0.850740  0.514020  0.153100  1.0
  N  N2387  1  0.764020  0.399260  0.403100  1.0
  N  N2388  1  0.735980  0.600740  0.903100  1.0
  N  N2389  1  0.149260  0.985980  0.153100  1.0
  N  N2390  1  0.350740  0.014020  0.653100  1.0
  N  N2391  1  0.264020  0.899260  0.903100  1.0
  N  N2392  1  0.235980  0.100740  0.403100  1.0
  N  N2393  1  0.287040  0.467260  0.405720  1.0
  N  N2394  1  0.212960  0.532740  0.905720  1.0
  N  N2395  1  0.282740  0.537040  0.655720  1.0
  N  N2396  1  0.217260  0.462960  0.155720  1.0
  N  N2397  1  0.787040  0.967260  0.905720  1.0
  N  N2398  1  0.712960  0.032740  0.405720  1.0
  N  N2399  1  0.782740  0.037040  0.155720  1.0
  N  N2400  1  0.717260  0.962960  0.655720  1.0
  N  N2401  1  0.712960  0.532740  0.594280  1.0
  N  N2402  1  0.787040  0.467260  0.094280  1.0
  N  N2403  1  0.717260  0.462960  0.344280  1.0
  N  N2404  1  0.782740  0.537040  0.844280  1.0
  N  N2405  1  0.212960  0.032740  0.094280  1.0
  N  N2406  1  0.287040  0.967260  0.594280  1.0
  N  N2407  1  0.217260  0.962960  0.844280  1.0
  N  N2408  1  0.282740  0.037040  0.344280  1.0
  N  N2409  1  0.478030  0.421460  0.256090  1.0
  N  N2410  1  0.021970  0.578540  0.756090  1.0
  N  N2411  1  0.328540  0.728030  0.506090  1.0
  N  N2412  1  0.171460  0.271970  0.006090  1.0
  N  N2413  1  0.978030  0.921460  0.756090  1.0
  N  N2414  1  0.521970  0.078540  0.256090  1.0
  N  N2415  1  0.828540  0.228030  0.006090  1.0
  N  N2416  1  0.671460  0.771970  0.506090  1.0
  N  N2417  1  0.521970  0.578540  0.743910  1.0
  N  N2418  1  0.978030  0.421460  0.243910  1.0
  N  N2419  1  0.671460  0.271970  0.493910  1.0
  N  N2420  1  0.828540  0.728030  0.993910  1.0
  N  N2421  1  0.021970  0.078540  0.243910  1.0
  N  N2422  1  0.478030  0.921460  0.743910  1.0
  N  N2423  1  0.171460  0.771970  0.993910  1.0
  N  N2424  1  0.328540  0.228030  0.493910  1.0
  N  N2425  1  0.529460  0.460850  0.308970  1.0
  N  N2426  1  0.970540  0.539150  0.808970  1.0
  N  N2427  1  0.289150  0.779460  0.558970  1.0
  N  N2428  1  0.210850  0.220540  0.058970  1.0
  N  N2429  1  0.029460  0.960850  0.808970  1.0
  N  N2430  1  0.470540  0.039150  0.308970  1.0
  N  N2431  1  0.789150  0.279460  0.058970  1.0
  N  N2432  1  0.710850  0.720540  0.558970  1.0
  N  N2433  1  0.470540  0.539150  0.691030  1.0
  N  N2434  1  0.029460  0.460850  0.191030  1.0
  N  N2435  1  0.710850  0.220540  0.441030  1.0
  N  N2436  1  0.789150  0.779460  0.941030  1.0
  N  N2437  1  0.970540  0.039150  0.191030  1.0
  N  N2438  1  0.529460  0.960850  0.691030  1.0
  N  N2439  1  0.210850  0.720540  0.941030  1.0
  N  N2440  1  0.289150  0.279460  0.441030  1.0
  N  N2441  1  0.568210  0.409280  0.255950  1.0
  N  N2442  1  0.931790  0.590720  0.755950  1.0
  N  N2443  1  0.340720  0.818210  0.505950  1.0
  N  N2444  1  0.159280  0.181790  0.005950  1.0
  N  N2445  1  0.068210  0.909280  0.755950  1.0
  N  N2446  1  0.431790  0.090720  0.255950  1.0
  N  N2447  1  0.840720  0.318210  0.005950  1.0
  N  N2448  1  0.659280  0.681790  0.505950  1.0
  N  N2449  1  0.431790  0.590720  0.744050  1.0
  N  N2450  1  0.068210  0.409280  0.244050  1.0
  N  N2451  1  0.659280  0.181790  0.494050  1.0
  N  N2452  1  0.840720  0.818210  0.994050  1.0
  N  N2453  1  0.931790  0.090720  0.244050  1.0
  N  N2454  1  0.568210  0.909280  0.744050  1.0
  N  N2455  1  0.159280  0.681790  0.994050  1.0
  N  N2456  1  0.340720  0.318210  0.494050  1.0
  N  N2457  1  0.490750  0.197500  0.038200  1.0
  N  N2458  1  0.009250  0.802500  0.538200  1.0
  N  N2459  1  0.552500  0.740750  0.288200  1.0
  N  N2460  1  0.947500  0.259250  0.788200  1.0
  N  N2461  1  0.990750  0.697500  0.538200  1.0
  N  N2462  1  0.509250  0.302500  0.038200  1.0
  N  N2463  1  0.052500  0.240750  0.788200  1.0
  N  N2464  1  0.447500  0.759250  0.288200  1.0
  N  N2465  1  0.509250  0.802500  0.961800  1.0
  N  N2466  1  0.990750  0.197500  0.461800  1.0
  N  N2467  1  0.447500  0.259250  0.711800  1.0
  N  N2468  1  0.052500  0.740750  0.211800  1.0
  N  N2469  1  0.009250  0.302500  0.461800  1.0
  N  N2470  1  0.490750  0.697500  0.961800  1.0
  N  N2471  1  0.947500  0.759250  0.211800  1.0
  N  N2472  1  0.552500  0.240750  0.711800  1.0
  N  N2473  1  0.220460  0.561300  0.407600  1.0
  N  N2474  1  0.279540  0.438700  0.907600  1.0
  N  N2475  1  0.188700  0.470460  0.657600  1.0
  N  N2476  1  0.311300  0.529540  0.157600  1.0
  N  N2477  1  0.720460  0.061300  0.907600  1.0
  N  N2478  1  0.779540  0.938700  0.407600  1.0
  N  N2479  1  0.688700  0.970460  0.157600  1.0
  N  N2480  1  0.811300  0.029540  0.657600  1.0
  N  N2481  1  0.779540  0.438700  0.592400  1.0
  N  N2482  1  0.720460  0.561300  0.092400  1.0
  N  N2483  1  0.811300  0.529540  0.342400  1.0
  N  N2484  1  0.688700  0.470460  0.842400  1.0
  N  N2485  1  0.279540  0.938700  0.092400  1.0
  N  N2486  1  0.220460  0.061300  0.592400  1.0
  N  N2487  1  0.311300  0.029540  0.842400  1.0
  N  N2488  1  0.188700  0.970460  0.342400  1.0
  N  N2489  1  0.286150  0.608900  0.349440  1.0
  N  N2490  1  0.213850  0.391100  0.849440  1.0
  N  N2491  1  0.141100  0.536150  0.599440  1.0
  N  N2492  1  0.358900  0.463850  0.099440  1.0
  N  N2493  1  0.786150  0.108900  0.849440  1.0
  N  N2494  1  0.713850  0.891100  0.349440  1.0
  N  N2495  1  0.641100  0.036150  0.099440  1.0
  N  N2496  1  0.858900  0.963850  0.599440  1.0
  N  N2497  1  0.713850  0.391100  0.650560  1.0
  N  N2498  1  0.786150  0.608900  0.150560  1.0
  N  N2499  1  0.858900  0.463850  0.400560  1.0
  N  N2500  1  0.641100  0.536150  0.900560  1.0
  N  N2501  1  0.213850  0.891100  0.150560  1.0
  N  N2502  1  0.286150  0.108900  0.650560  1.0
  N  N2503  1  0.358900  0.963850  0.900560  1.0
  N  N2504  1  0.141100  0.036150  0.400560  1.0
  O  O2505  1  0.361200  0.586500  0.460000  1
  O  O2506  1  0.138800  0.413500  0.960000  1
  O  O2507  1  0.163500  0.611200  0.710000  1
  O  O2508  1  0.336500  0.388800  0.210000  1
  O  O2509  1  0.861200  0.086500  0.960000  1
  O  O2510  1  0.638800  0.913500  0.460000  1
  O  O2511  1  0.663500  0.111200  0.210000  1
  O  O2512  1  0.836500  0.888800  0.710000  1
  O  O2513  1  0.638800  0.413500  0.540000  1
  O  O2514  1  0.861200  0.586500  0.040000  1
  O  O2515  1  0.836500  0.388800  0.290000  1
  O  O2516  1  0.663500  0.611200  0.790000  1
  O  O2517  1  0.138800  0.913500  0.040000  1
  O  O2518  1  0.361200  0.086500  0.540000  1
  O  O2519  1  0.336500  0.888800  0.790000  1
  O  O2520  1  0.163500  0.111200  0.290000  1
  O  O2521  1  0.357200  0.547200  0.512300  1
  O  O2522  1  0.142800  0.452800  0.012300  1
  O  O2523  1  0.202800  0.607200  0.762300  1
  O  O2524  1  0.297200  0.392800  0.262300  1
  O  O2525  1  0.857200  0.047200  0.012300  1
  O  O2526  1  0.642800  0.952800  0.512300  1
  O  O2527  1  0.702800  0.107200  0.262300  1
  O  O2528  1  0.797200  0.892800  0.762300  1
  O  O2529  1  0.642800  0.452800  0.487700  1
  O  O2530  1  0.857200  0.547200  0.987700  1
  O  O2531  1  0.797200  0.392800  0.237700  1
  O  O2532  1  0.702800  0.607200  0.737700  1
  O  O2533  1  0.142800  0.952800  0.987700  1
  O  O2534  1  0.357200  0.047200  0.487700  1
  O  O2535  1  0.297200  0.892800  0.737700  1
  O  O2536  1  0.202800  0.107200  0.237700  1
  O  O2537  1  0.425700  0.538700  0.479100  1
  O  O2538  1  0.074300  0.461300  0.979100  1
  O  O2539  1  0.211300  0.675700  0.729100  1
  O  O2540  1  0.288700  0.324300  0.229100  1
  O  O2541  1  0.925700  0.038700  0.979100  1
  O  O2542  1  0.574300  0.961300  0.479100  1
  O  O2543  1  0.711300  0.175700  0.229100  1
  O  O2544  1  0.788700  0.824300  0.729100  1
  O  O2545  1  0.574300  0.461300  0.520900  1
  O  O2546  1  0.925700  0.538700  0.020900  1
  O  O2547  1  0.788700  0.324300  0.270900  1
  O  O2548  1  0.711300  0.675700  0.770900  1
  O  O2549  1  0.074300  0.961300  0.020900  1
  O  O2550  1  0.425700  0.038700  0.520900  1
  O  O2551  1  0.288700  0.824300  0.770900  1
  O  O2552  1  0.211300  0.175700  0.270900  1
  O  O2553  1  0.597700  0.537300  0.443700  1
  O  O2554  1  0.902300  0.462700  0.943700  1
  O  O2555  1  0.212700  0.847700  0.693700  1
  O  O2556  1  0.287300  0.152300  0.193700  1
  O  O2557  1  0.097700  0.037300  0.943700  1
  O  O2558  1  0.402300  0.962700  0.443700  1
  O  O2559  1  0.712700  0.347700  0.193700  1
  O  O2560  1  0.787300  0.652300  0.693700  1
  O  O2561  1  0.402300  0.462700  0.556300  1
  O  O2562  1  0.097700  0.537300  0.056300  1
  O  O2563  1  0.787300  0.152300  0.306300  1
  O  O2564  1  0.712700  0.847700  0.806300  1
  O  O2565  1  0.902300  0.962700  0.056300  1
  O  O2566  1  0.597700  0.037300  0.556300  1
  O  O2567  1  0.287300  0.652300  0.806300  1
  O  O2568  1  0.212700  0.347700  0.306300  1
  O  O2569  1  0.221500  0.484400  0.297800  1
  O  O2570  1  0.278500  0.515600  0.797800  1
  O  O2571  1  0.265600  0.471500  0.547800  1
  O  O2572  1  0.234400  0.528500  0.047800  1
  O  O2573  1  0.721500  0.984400  0.797800  1
  O  O2574  1  0.778500  0.015600  0.297800  1
  O  O2575  1  0.765600  0.971500  0.047800  1
  O  O2576  1  0.734400  0.028500  0.547800  1
  O  O2577  1  0.778500  0.515600  0.702200  1
  O  O2578  1  0.721500  0.484400  0.202200  1
  O  O2579  1  0.734400  0.528500  0.452200  1
  O  O2580  1  0.765600  0.471500  0.952200  1
  O  O2581  1  0.278500  0.015600  0.202200  1
  O  O2582  1  0.221500  0.984400  0.702200  1
  O  O2583  1  0.234400  0.028500  0.952200  1
  O  O2584  1  0.265600  0.971500  0.452200  1
  O  O2585  1  0.161600  0.435000  0.320700  1
  O  O2586  1  0.338400  0.565000  0.820700  1
  O  O2587  1  0.315000  0.411600  0.570700  1
  O  O2588  1  0.185000  0.588400  0.070700  1
  O  O2589  1  0.661600  0.935000  0.820700  1
  O  O2590  1  0.838400  0.065000  0.320700  1
  O  O2591  1  0.815000  0.911600  0.070700  1
  O  O2592  1  0.685000  0.088400  0.570700  1
  O  O2593  1  0.838400  0.565000  0.679300  1
  O  O2594  1  0.661600  0.435000  0.179300  1
  O  O2595  1  0.685000  0.588400  0.429300  1
  O  O2596  1  0.815000  0.411600  0.929300  1
  O  O2597  1  0.338400  0.065000  0.179300  1
  O  O2598  1  0.161600  0.935000  0.679300  1
  O  O2599  1  0.185000  0.088400  0.929300  1
  O  O2600  1  0.315000  0.911600  0.429300  1
  O  O2601  1  0.140700  0.509400  0.288800  1
  O  O2602  1  0.359300  0.490600  0.788800  1
  O  O2603  1  0.240600  0.390700  0.538800  1
  O  O2604  1  0.259400  0.609300  0.038800  1
  O  O2605  1  0.640700  0.009400  0.788800  1
  O  O2606  1  0.859300  0.990600  0.288800  1
  O  O2607  1  0.740600  0.890700  0.038800  1
  O  O2608  1  0.759400  0.109300  0.538800  1
  O  O2609  1  0.859300  0.490600  0.711200  1
  O  O2610  1  0.640700  0.509400  0.211200  1
  O  O2611  1  0.759400  0.609300  0.461200  1
  O  O2612  1  0.740600  0.390700  0.961200  1
  O  O2613  1  0.359300  0.990600  0.211200  1
  O  O2614  1  0.140700  0.009400  0.711200  1
  O  O2615  1  0.259400  0.109300  0.961200  1
  O  O2616  1  0.240600  0.890700  0.461200  1
  O  O2617  1  0.496200  0.581500  0.421300  1
  O  O2618  1  0.003800  0.418500  0.921300  1
  O  O2619  1  0.168500  0.746200  0.671300  1
  O  O2620  1  0.331500  0.253800  0.171300  1
  O  O2621  1  0.996200  0.081500  0.921300  1
  O  O2622  1  0.503800  0.918500  0.421300  1
  O  O2623  1  0.668500  0.246200  0.171300  1
  O  O2624  1  0.831500  0.753800  0.671300  1
  O  O2625  1  0.503800  0.418500  0.578700  1
  O  O2626  1  0.996200  0.581500  0.078700  1
  O  O2627  1  0.831500  0.253800  0.328700  1
  O  O2628  1  0.668500  0.746200  0.828700  1
  O  O2629  1  0.003800  0.918500  0.078700  1
  O  O2630  1  0.496200  0.081500  0.578700  1
  O  O2631  1  0.331500  0.753800  0.828700  1
  O  O2632  1  0.168500  0.246200  0.328700  1
  O  O2633  1  0.333000  0.272000  0.013200  1
  O  O2634  1  0.167000  0.728000  0.513200  1
  O  O2635  1  0.478000  0.583000  0.263200  1
  O  O2636  1  0.022000  0.417000  0.763200  1
  O  O2637  1  0.833000  0.772000  0.513200  1
  O  O2638  1  0.667000  0.228000  0.013200  1
  O  O2639  1  0.978000  0.083000  0.763200  1
  O  O2640  1  0.522000  0.917000  0.263200  1
  O  O2641  1  0.667000  0.728000  0.986800  1
  O  O2642  1  0.833000  0.272000  0.486800  1
  O  O2643  1  0.522000  0.417000  0.736800  1
  O  O2644  1  0.978000  0.583000  0.236800  1
  O  O2645  1  0.167000  0.228000  0.486800  1
  O  O2646  1  0.333000  0.772000  0.986800  1
  O  O2647  1  0.022000  0.917000  0.236800  1
  O  O2648  1  0.478000  0.083000  0.736800  1
  O  O2649  1  0.348900  0.356100  0.014500  1
  O  O2650  1  0.151100  0.643900  0.514500  1
  O  O2651  1  0.393900  0.598900  0.264500  1
  O  O2652  1  0.106100  0.401100  0.764500  1
  O  O2653  1  0.848900  0.856100  0.514500  1
  O  O2654  1  0.651100  0.143900  0.014500  1
  O  O2655  1  0.893900  0.098900  0.764500  1
  O  O2656  1  0.606100  0.901100  0.264500  1
  O  O2657  1  0.651100  0.643900  0.985500  1
  O  O2658  1  0.848900  0.356100  0.485500  1
  O  O2659  1  0.606100  0.401100  0.735500  1
  O  O2660  1  0.893900  0.598900  0.235500  1
  O  O2661  1  0.151100  0.143900  0.485500  1
  O  O2662  1  0.348900  0.856100  0.985500  1
  O  O2663  1  0.106100  0.901100  0.235500  1
  O  O2664  1  0.393900  0.098900  0.735500  1
  O  O2665  1  0.371500  0.326300  0.960800  1
  O  O2666  1  0.128500  0.673700  0.460800  1
  O  O2667  1  0.423700  0.621500  0.210800  1
  O  O2668  1  0.076300  0.378500  0.710800  1
  O  O2669  1  0.871500  0.826300  0.460800  1
  O  O2670  1  0.628500  0.173700  0.960800  1
  O  O2671  1  0.923700  0.121500  0.710800  1
  O  O2672  1  0.576300  0.878500  0.210800  1
  O  O2673  1  0.628500  0.673700  0.039200  1
  O  O2674  1  0.871500  0.326300  0.539200  1
  O  O2675  1  0.576300  0.378500  0.789200  1
  O  O2676  1  0.923700  0.621500  0.289200  1
  O  O2677  1  0.128500  0.173700  0.539200  1
  O  O2678  1  0.371500  0.826300  0.039200  1
  O  O2679  1  0.076300  0.878500  0.289200  1
  O  O2680  1  0.423700  0.121500  0.789200  1
  O  O2681  1  0.425900  0.413400  0.952700  1
  O  O2682  1  0.074100  0.586600  0.452700  1
  O  O2683  1  0.336600  0.675900  0.202700  1
  O  O2684  1  0.163400  0.324100  0.702700  1
  O  O2685  1  0.925900  0.913400  0.452700  1
  O  O2686  1  0.574100  0.086600  0.952700  1
  O  O2687  1  0.836600  0.175900  0.702700  1
  O  O2688  1  0.663400  0.824100  0.202700  1
  O  O2689  1  0.574100  0.586600  0.047300  1
  O  O2690  1  0.925900  0.413400  0.547300  1
  O  O2691  1  0.663400  0.324100  0.797300  1
  O  O2692  1  0.836600  0.675900  0.297300  1
  O  O2693  1  0.074100  0.086600  0.547300  1
  O  O2694  1  0.425900  0.913400  0.047300  1
  O  O2695  1  0.163400  0.824100  0.297300  1
  O  O2696  1  0.336600  0.175900  0.797300  1
  O  O2697  1  0.504600  0.006800  0.153100  1
  O  O2698  1  0.995400  0.993200  0.653100  1
  O  O2699  1  0.743200  0.754600  0.403100  1
  O  O2700  1  0.756800  0.245400  0.903100  1
  O  O2701  1  0.004600  0.506800  0.653100  1
  O  O2702  1  0.495400  0.493200  0.153100  1
  O  O2703  1  0.243200  0.254600  0.903100  1
  O  O2704  1  0.256800  0.745400  0.403100  1
  O  O2705  1  0.495400  0.993200  0.846900  1
  O  O2706  1  0.004600  0.006800  0.346900  1
  O  O2707  1  0.256800  0.245400  0.596900  1
  O  O2708  1  0.243200  0.754600  0.096900  1
  O  O2709  1  0.995400  0.493200  0.346900  1
  O  O2710  1  0.504600  0.506800  0.846900  1
  O  O2711  1  0.756800  0.745400  0.096900  1
  O  O2712  1  0.743200  0.254600  0.596900  1
  O  O2713  1  0.420800  0.028000  0.158800  1
  O  O2714  1  0.079200  0.972000  0.658800  1
  O  O2715  1  0.722000  0.670800  0.408800  1
  O  O2716  1  0.778000  0.329200  0.908800  1
  O  O2717  1  0.920800  0.528000  0.658800  1
  O  O2718  1  0.579200  0.472000  0.158800  1
  O  O2719  1  0.222000  0.170800  0.908800  1
  O  O2720  1  0.278000  0.829200  0.408800  1
  O  O2721  1  0.579200  0.972000  0.841200  1
  O  O2722  1  0.920800  0.028000  0.341200  1
  O  O2723  1  0.278000  0.329200  0.591200  1
  O  O2724  1  0.222000  0.670800  0.091200  1
  O  O2725  1  0.079200  0.472000  0.341200  1
  O  O2726  1  0.420800  0.528000  0.841200  1
  O  O2727  1  0.778000  0.829200  0.091200  1
  O  O2728  1  0.722000  0.170800  0.591200  1
  O  O2729  1  0.475500  0.049700  0.103700  1
  O  O2730  1  0.024500  0.950300  0.603700  1
  O  O2731  1  0.700300  0.725500  0.353700  1
  O  O2732  1  0.799700  0.274500  0.853700  1
  O  O2733  1  0.975500  0.549700  0.603700  1
  O  O2734  1  0.524500  0.450300  0.103700  1
  O  O2735  1  0.200300  0.225500  0.853700  1
  O  O2736  1  0.299700  0.774500  0.353700  1
  O  O2737  1  0.524500  0.950300  0.896300  1
  O  O2738  1  0.975500  0.049700  0.396300  1
  O  O2739  1  0.299700  0.274500  0.646300  1
  O  O2740  1  0.200300  0.725500  0.146300  1
  O  O2741  1  0.024500  0.450300  0.396300  1
  O  O2742  1  0.475500  0.549700  0.896300  1
  O  O2743  1  0.799700  0.774500  0.146300  1
  O  O2744  1  0.700300  0.225500  0.646300  1
  O  O2745  1  0.425600  0.021400  0.033600  1
  O  O2746  1  0.074400  0.978600  0.533600  1
  O  O2747  1  0.728600  0.675600  0.283600  1
  O  O2748  1  0.771400  0.324400  0.783600  1
  O  O2749  1  0.925600  0.521400  0.533600  1
  O  O2750  1  0.574400  0.478600  0.033600  1
  O  O2751  1  0.228600  0.175600  0.783600  1
  O  O2752  1  0.271400  0.824400  0.283600  1
  O  O2753  1  0.574400  0.978600  0.966400  1
  O  O2754  1  0.925600  0.021400  0.466400  1
  O  O2755  1  0.271400  0.324400  0.716400  1
  O  O2756  1  0.228600  0.675600  0.216400  1
  O  O2757  1  0.074400  0.478600  0.466400  1
  O  O2758  1  0.425600  0.521400  0.966400  1
  O  O2759  1  0.771400  0.824400  0.216400  1
  O  O2760  1  0.728600  0.175600  0.716400  1
  O  O2761  1  0.182500  0.709500  0.286500  1
  O  O2762  1  0.317500  0.290500  0.786500  1
  O  O2763  1  0.040500  0.432500  0.536500  1
  O  O2764  1  0.459500  0.567500  0.036500  1
  O  O2765  1  0.682500  0.209500  0.786500  1
  O  O2766  1  0.817500  0.790500  0.286500  1
  O  O2767  1  0.540500  0.932500  0.036500  1
  O  O2768  1  0.959500  0.067500  0.536500  1
  O  O2769  1  0.817500  0.290500  0.713500  1
  O  O2770  1  0.682500  0.709500  0.213500  1
  O  O2771  1  0.959500  0.567500  0.463500  1
  O  O2772  1  0.540500  0.432500  0.963500  1
  O  O2773  1  0.317500  0.790500  0.213500  1
  O  O2774  1  0.182500  0.209500  0.713500  1
  O  O2775  1  0.459500  0.067500  0.963500  1
  O  O2776  1  0.040500  0.932500  0.463500  1
  O  O2777  1  0.140400  0.394600  0.387000  1
  O  O2778  1  0.359600  0.605400  0.887000  1
  O  O2779  1  0.355400  0.390400  0.637000  1
  O  O2780  1  0.144600  0.609600  0.137000  1
  O  O2781  1  0.640400  0.894600  0.887000  1
  O  O2782  1  0.859600  0.105400  0.387000  1
  O  O2783  1  0.855400  0.890400  0.137000  1
  O  O2784  1  0.644600  0.109600  0.637000  1
  O  O2785  1  0.859600  0.605400  0.613000  1
  O  O2786  1  0.640400  0.394600  0.113000  1
  O  O2787  1  0.644600  0.609600  0.363000  1
  O  O2788  1  0.855400  0.390400  0.863000  1
  O  O2789  1  0.359600  0.105400  0.113000  1
  O  O2790  1  0.140400  0.894600  0.613000  1
  O  O2791  1  0.144600  0.109600  0.863000  1
  O  O2792  1  0.355400  0.890400  0.363000  1
  O  O2793  1  0.413000  0.301000  0.878200  1
  O  O2794  1  0.087000  0.699000  0.378200  1
  O  O2795  1  0.449000  0.663000  0.128200  1
  O  O2796  1  0.051000  0.337000  0.628200  1
  O  O2797  1  0.913000  0.801000  0.378200  1
  O  O2798  1  0.587000  0.199000  0.878200  1
  O  O2799  1  0.949000  0.163000  0.628200  1
  O  O2800  1  0.551000  0.837000  0.128200  1
  O  O2801  1  0.587000  0.699000  0.121800  1
  O  O2802  1  0.913000  0.301000  0.621800  1
  O  O2803  1  0.551000  0.337000  0.871800  1
  O  O2804  1  0.949000  0.663000  0.371800  1
  O  O2805  1  0.087000  0.199000  0.621800  1
  O  O2806  1  0.413000  0.801000  0.121800  1
  O  O2807  1  0.051000  0.837000  0.371800  1
  O  O2808  1  0.449000  0.163000  0.871800  1
  O  O2809  1  0.376600  0.276960  0.094410  1
  O  O2810  1  0.123400  0.723040  0.594410  1
  O  O2811  1  0.473040  0.626600  0.344410  1
  O  O2812  1  0.026960  0.373400  0.844410  1
  O  O2813  1  0.876600  0.776960  0.594410  1
  O  O2814  1  0.623400  0.223040  0.094410  1
  O  O2815  1  0.973040  0.126600  0.844410  1
  O  O2816  1  0.526960  0.873400  0.344410  1
  O  O2817  1  0.623400  0.723040  0.905590  1
  O  O2818  1  0.876600  0.276960  0.405590  1
  O  O2819  1  0.526960  0.373400  0.655590  1
  O  O2820  1  0.973040  0.626600  0.155590  1
  O  O2821  1  0.123400  0.223040  0.405590  1
  O  O2822  1  0.376600  0.776960  0.905590  1
  O  O2823  1  0.026960  0.873400  0.155590  1
  O  O2824  1  0.473040  0.126600  0.655590  1
  O  O2825  1  0.500000  0.250000  0.875000  1
  O  O2826  1  0.000000  0.750000  0.375000  1
  O  O2827  1  0.500000  0.750000  0.125000  1
  O  O2828  1  0.000000  0.250000  0.625000  1
  O  O2829  1  0.120300  0.664100  0.318200  1
  O  O2830  1  0.379700  0.335900  0.818200  1
  O  O2831  1  0.085900  0.370300  0.568200  1
  O  O2832  1  0.414100  0.629700  0.068200  1
  O  O2833  1  0.620300  0.164100  0.818200  1
  O  O2834  1  0.879700  0.835900  0.318200  1
  O  O2835  1  0.585900  0.870300  0.068200  1
  O  O2836  1  0.914100  0.129700  0.568200  1
  O  O2837  1  0.879700  0.335900  0.681800  1
  O  O2838  1  0.620300  0.664100  0.181800  1
  O  O2839  1  0.914100  0.629700  0.431800  1
  O  O2840  1  0.585900  0.370300  0.931800  1
  O  O2841  1  0.379700  0.835900  0.181800  1
  O  O2842  1  0.120300  0.164100  0.681800  1
  O  O2843  1  0.414100  0.129700  0.931800  1
  O  O2844  1  0.085900  0.870300  0.431800  1
  O  O2845  1  0.361800  0.196700  0.887500  1
  O  O2846  1  0.138200  0.803300  0.387500  1
  O  O2847  1  0.553300  0.611800  0.137500  1
  O  O2848  1  0.946700  0.388200  0.637500  1
  O  O2849  1  0.861800  0.696700  0.387500  1
  O  O2850  1  0.638200  0.303300  0.887500  1
  O  O2851  1  0.053300  0.111800  0.637500  1
  O  O2852  1  0.446700  0.888200  0.137500  1
  O  O2853  1  0.638200  0.803300  0.112500  1
  O  O2854  1  0.861800  0.196700  0.612500  1
  O  O2855  1  0.446700  0.388200  0.862500  1
  O  O2856  1  0.053300  0.611800  0.362500  1
  O  O2857  1  0.138200  0.303300  0.612500  1
  O  O2858  1  0.361800  0.696700  0.112500  1
  O  O2859  1  0.946700  0.888200  0.362500  1
  O  O2860  1  0.553300  0.111800  0.862500  1
  O  O2861  1  0.438900  0.962800  0.228900  1
  O  O2862  1  0.061100  0.037200  0.728900  1
  O  O2863  1  0.787200  0.688900  0.478900  1
  O  O2864  1  0.712800  0.311100  0.978900  1
  O  O2865  1  0.938900  0.462800  0.728900  1
  O  O2866  1  0.561100  0.537200  0.228900  1
  O  O2867  1  0.287200  0.188900  0.978900  1
  O  O2868  1  0.212800  0.811100  0.478900  1
  O  O2869  1  0.561100  0.037200  0.771100  1
  O  O2870  1  0.938900  0.962800  0.271100  1
  O  O2871  1  0.212800  0.311100  0.521100  1
  O  O2872  1  0.287200  0.688900  0.021100  1
  O  O2873  1  0.061100  0.537200  0.271100  1
  O  O2874  1  0.438900  0.462800  0.771100  1
  O  O2875  1  0.712800  0.811100  0.021100  1
  O  O2876  1  0.787200  0.188900  0.521100  1
  O  O2877  1  0.508300  0.570000  0.416000  1
  O  O2878  1  0.991700  0.430000  0.916000  1
  O  O2879  1  0.180000  0.758300  0.666000  1
  O  O2880  1  0.320000  0.241700  0.166000  1
  O  O2881  1  0.008300  0.070000  0.916000  1
  O  O2882  1  0.491700  0.930000  0.416000  1
  O  O2883  1  0.680000  0.258300  0.166000  1
  O  O2884  1  0.820000  0.741700  0.666000  1
  O  O2885  1  0.491700  0.430000  0.584000  1
  O  O2886  1  0.008300  0.570000  0.084000  1
  O  O2887  1  0.820000  0.241700  0.334000  1
  O  O2888  1  0.680000  0.758300  0.834000  1
  O  O2889  1  0.991700  0.930000  0.084000  1
  O  O2890  1  0.508300  0.070000  0.584000  1
  O  O2891  1  0.320000  0.741700  0.834000  1
  O  O2892  1  0.180000  0.258300  0.334000  1
  O  O2893  1  0.451200  0.066300  0.106100  1
  O  O2894  1  0.048800  0.933700  0.606100  1
  O  O2895  1  0.683700  0.701200  0.356100  1
  O  O2896  1  0.816300  0.298800  0.856100  1
  O  O2897  1  0.951200  0.566300  0.606100  1
  O  O2898  1  0.548800  0.433700  0.106100  1
  O  O2899  1  0.183700  0.201200  0.856100  1
  O  O2900  1  0.316300  0.798800  0.356100  1
  O  O2901  1  0.548800  0.933700  0.893900  1
  O  O2902  1  0.951200  0.066300  0.393900  1
  O  O2903  1  0.316300  0.298800  0.643900  1
  O  O2904  1  0.183700  0.701200  0.143900  1
  O  O2905  1  0.048800  0.433700  0.393900  1
  O  O2906  1  0.451200  0.566300  0.893900  1
  O  O2907  1  0.816300  0.798800  0.143900  1
  O  O2908  1  0.683700  0.201200  0.643900  1
  O  O2909  1  0.459100  0.996000  0.178600  1
  O  O2910  1  0.040900  0.004000  0.678600  1
  O  O2911  1  0.754000  0.709100  0.428600  1
  O  O2912  1  0.746000  0.290900  0.928600  1
  O  O2913  1  0.959100  0.496000  0.678600  1
  O  O2914  1  0.540900  0.504000  0.178600  1
  O  O2915  1  0.254000  0.209100  0.928600  1
  O  O2916  1  0.246000  0.790900  0.428600  1
  O  O2917  1  0.540900  0.004000  0.821400  1
  O  O2918  1  0.959100  0.996000  0.321400  1
  O  O2919  1  0.246000  0.290900  0.571400  1
  O  O2920  1  0.254000  0.709100  0.071400  1
  O  O2921  1  0.040900  0.504000  0.321400  1
  O  O2922  1  0.459100  0.496000  0.821400  1
  O  O2923  1  0.746000  0.790900  0.071400  1
  O  O2924  1  0.754000  0.209100  0.571400  1
  O  O2925  1  0.189700  0.665400  0.261500  1
  O  O2926  1  0.310300  0.334600  0.761500  1
  O  O2927  1  0.084600  0.439700  0.511500  1
  O  O2928  1  0.415400  0.560300  0.011500  1
  O  O2929  1  0.689700  0.165400  0.761500  1
  O  O2930  1  0.810300  0.834600  0.261500  1
  O  O2931  1  0.584600  0.939700  0.011500  1
  O  O2932  1  0.915400  0.060300  0.511500  1
  O  O2933  1  0.810300  0.334600  0.738500  1
  O  O2934  1  0.689700  0.665400  0.238500  1
  O  O2935  1  0.915400  0.560300  0.488500  1
  O  O2936  1  0.584600  0.439700  0.988500  1
  O  O2937  1  0.310300  0.834600  0.238500  1
  O  O2938  1  0.189700  0.165400  0.738500  1
  O  O2939  1  0.415400  0.060300  0.988500  1
  O  O2940  1  0.084600  0.939700  0.488500  1
  O  O2941  1  0.253200  0.390100  0.282500  1
  O  O2942  1  0.246800  0.609900  0.782500  1
  O  O2943  1  0.359900  0.503200  0.532500  1
  O  O2944  1  0.140100  0.496800  0.032500  1
  O  O2945  1  0.753200  0.890100  0.782500  1
  O  O2946  1  0.746800  0.109900  0.282500  1
  O  O2947  1  0.859900  0.003200  0.032500  1
  O  O2948  1  0.640100  0.996800  0.532500  1
  O  O2949  1  0.746800  0.609900  0.717500  1
  O  O2950  1  0.753200  0.390100  0.217500  1
  O  O2951  1  0.640100  0.496800  0.467500  1
  O  O2952  1  0.859900  0.503200  0.967500  1
  O  O2953  1  0.246800  0.109900  0.217500  1
  O  O2954  1  0.253200  0.890100  0.717500  1
  O  O2955  1  0.140100  0.996800  0.967500  1
  O  O2956  1  0.359900  0.003200  0.467500  1
  O  O2957  1  0.225300  0.507300  0.288400  1
  O  O2958  1  0.274700  0.492700  0.788400  1
  O  O2959  1  0.242700  0.475300  0.538400  1
  O  O2960  1  0.257300  0.524700  0.038400  1
  O  O2961  1  0.725300  0.007300  0.788400  1
  O  O2962  1  0.774700  0.992700  0.288400  1
  O  O2963  1  0.742700  0.975300  0.038400  1
  O  O2964  1  0.757300  0.024700  0.538400  1
  O  O2965  1  0.774700  0.492700  0.711600  1
  O  O2966  1  0.725300  0.507300  0.211600  1
  O  O2967  1  0.757300  0.524700  0.461600  1
  O  O2968  1  0.742700  0.475300  0.961600  1
  O  O2969  1  0.274700  0.992700  0.211600  1
  O  O2970  1  0.225300  0.007300  0.711600  1
  O  O2971  1  0.257300  0.024700  0.961600  1
  O  O2972  1  0.242700  0.975300  0.461600  1
  O  O2973  1  0.409200  0.374600  0.947400  1
  O  O2974  1  0.090800  0.625400  0.447400  1
  O  O2975  1  0.375400  0.659200  0.197400  1
  O  O2976  1  0.124600  0.340800  0.697400  1
  O  O2977  1  0.909200  0.874600  0.447400  1
  O  O2978  1  0.590800  0.125400  0.947400  1
  O  O2979  1  0.875400  0.159200  0.697400  1
  O  O2980  1  0.624600  0.840800  0.197400  1
  O  O2981  1  0.590800  0.625400  0.052600  1
  O  O2982  1  0.909200  0.374600  0.552600  1
  O  O2983  1  0.624600  0.340800  0.802600  1
  O  O2984  1  0.875400  0.659200  0.302600  1
  O  O2985  1  0.090800  0.125400  0.552600  1
  O  O2986  1  0.409200  0.874600  0.052600  1
  O  O2987  1  0.124600  0.840800  0.302600  1
  O  O2988  1  0.375400  0.159200  0.802600  1
  O  O2989  1  0.450700  0.603000  0.437100  1
  O  O2990  1  0.049300  0.397000  0.937100  1
  O  O2991  1  0.147000  0.700700  0.687100  1
  O  O2992  1  0.353000  0.299300  0.187100  1
  O  O2993  1  0.950700  0.103000  0.937100  1
  O  O2994  1  0.549300  0.897000  0.437100  1
  O  O2995  1  0.647000  0.200700  0.187100  1
  O  O2996  1  0.853000  0.799300  0.687100  1
  O  O2997  1  0.549300  0.397000  0.562900  1
  O  O2998  1  0.950700  0.603000  0.062900  1
  O  O2999  1  0.853000  0.299300  0.312900  1
  O  O3000  1  0.647000  0.700700  0.812900  1
  O  O3001  1  0.049300  0.897000  0.062900  1
  O  O3002  1  0.450700  0.103000  0.562900  1
  O  O3003  1  0.353000  0.799300  0.812900  1
  O  O3004  1  0.147000  0.200700  0.312900  1
  O  O3005  1  0.118500  0.407600  0.407500  1
  O  O3006  1  0.381500  0.592400  0.907500  1
  O  O3007  1  0.342400  0.368500  0.657500  1
  O  O3008  1  0.157600  0.631500  0.157500  1
  O  O3009  1  0.618500  0.907600  0.907500  1
  O  O3010  1  0.881500  0.092400  0.407500  1
  O  O3011  1  0.842400  0.868500  0.157500  1
  O  O3012  1  0.657600  0.131500  0.657500  1
  O  O3013  1  0.881500  0.592400  0.592500  1
  O  O3014  1  0.618500  0.407600  0.092500  1
  O  O3015  1  0.657600  0.631500  0.342500  1
  O  O3016  1  0.842400  0.368500  0.842500  1
  O  O3017  1  0.381500  0.092400  0.092500  1
  O  O3018  1  0.118500  0.907600  0.592500  1
  O  O3019  1  0.157600  0.131500  0.842500  1
  O  O3020  1  0.342400  0.868500  0.342500  1
  O  O3021  1  0.431300  0.566700  0.490500  1
  O  O3022  1  0.068700  0.433300  0.990500  1
  O  O3023  1  0.183300  0.681300  0.740500  1
  O  O3024  1  0.316700  0.318700  0.240500  1
  O  O3025  1  0.931300  0.066700  0.990500  1
  O  O3026  1  0.568700  0.933300  0.490500  1
  O  O3027  1  0.683300  0.181300  0.240500  1
  O  O3028  1  0.816700  0.818700  0.740500  1
  O  O3029  1  0.568700  0.433300  0.509500  1
  O  O3030  1  0.931300  0.566700  0.009500  1
  O  O3031  1  0.816700  0.318700  0.259500  1
  O  O3032  1  0.683300  0.681300  0.759500  1
  O  O3033  1  0.068700  0.933300  0.009500  1
  O  O3034  1  0.431300  0.066700  0.509500  1
  O  O3035  1  0.316700  0.818700  0.759500  1
  O  O3036  1  0.183300  0.181300  0.259500  1
  O  O3037  1  0.416200  0.253300  0.915400  1
  O  O3038  1  0.083800  0.746700  0.415400  1
  O  O3039  1  0.496700  0.666200  0.165400  1
  O  O3040  1  0.003300  0.333800  0.665400  1
  O  O3041  1  0.916200  0.753300  0.415400  1
  O  O3042  1  0.583800  0.246700  0.915400  1
  O  O3043  1  0.996700  0.166200  0.665400  1
  O  O3044  1  0.503300  0.833800  0.165400  1
  O  O3045  1  0.583800  0.746700  0.084600  1
  O  O3046  1  0.916200  0.253300  0.584600  1
  O  O3047  1  0.503300  0.333800  0.834600  1
  O  O3048  1  0.996700  0.666200  0.334600  1
  O  O3049  1  0.083800  0.246700  0.584600  1
  O  O3050  1  0.416200  0.753300  0.084600  1
  O  O3051  1  0.003300  0.833800  0.334600  1
  O  O3052  1  0.496700  0.166200  0.834600  1
  O  O3053  1  0.373000  0.592700  0.452800  1
  O  O3054  1  0.127000  0.407300  0.952800  1
  O  O3055  1  0.157300  0.623000  0.702800  1
  O  O3056  1  0.342700  0.377000  0.202800  1
  O  O3057  1  0.873000  0.092700  0.952800  1
  O  O3058  1  0.627000  0.907300  0.452800  1
  O  O3059  1  0.657300  0.123000  0.202800  1
  O  O3060  1  0.842700  0.877000  0.702800  1
  O  O3061  1  0.627000  0.407300  0.547200  1
  O  O3062  1  0.873000  0.592700  0.047200  1
  O  O3063  1  0.842700  0.377000  0.297200  1
  O  O3064  1  0.657300  0.623000  0.797200  1
  O  O3065  1  0.127000  0.907300  0.047200  1
  O  O3066  1  0.373000  0.092700  0.547200  1
  O  O3067  1  0.342700  0.877000  0.797200  1
  O  O3068  1  0.157300  0.123000  0.297200  1
  O  O3069  1  0.181200  0.581200  0.212700  1
  O  O3070  1  0.318800  0.418800  0.712700  1
  O  O3071  1  0.168800  0.431200  0.462700  1
  O  O3072  1  0.331200  0.568800  0.962700  1
  O  O3073  1  0.681200  0.081200  0.712700  1
  O  O3074  1  0.818800  0.918800  0.212700  1
  O  O3075  1  0.668800  0.931200  0.962700  1
  O  O3076  1  0.831200  0.068800  0.462700  1
  O  O3077  1  0.818800  0.418800  0.787300  1
  O  O3078  1  0.681200  0.581200  0.287300  1
  O  O3079  1  0.831200  0.568800  0.537300  1
  O  O3080  1  0.668800  0.431200  0.037300  1
  O  O3081  1  0.318800  0.918800  0.287300  1
  O  O3082  1  0.181200  0.081200  0.787300  1
  O  O3083  1  0.331200  0.068800  0.037300  1
  O  O3084  1  0.168800  0.931200  0.537300  1
  O  O3085  1  0.167400  0.551000  0.269000  1
  O  O3086  1  0.332600  0.449000  0.769000  1
  O  O3087  1  0.199000  0.417400  0.519000  1
  O  O3088  1  0.301000  0.582600  0.019000  1
  O  O3089  1  0.667400  0.051000  0.769000  1
  O  O3090  1  0.832600  0.949000  0.269000  1
  O  O3091  1  0.699000  0.917400  0.019000  1
  O  O3092  1  0.801000  0.082600  0.519000  1
  O  O3093  1  0.832600  0.449000  0.731000  1
  O  O3094  1  0.667400  0.551000  0.231000  1
  O  O3095  1  0.801000  0.582600  0.481000  1
  O  O3096  1  0.699000  0.417400  0.981000  1
  O  O3097  1  0.332600  0.949000  0.231000  1
  O  O3098  1  0.167400  0.051000  0.731000  1
  O  O3099  1  0.301000  0.082600  0.981000  1
  O  O3100  1  0.199000  0.917400  0.481000  1
  O  O3101  1  0.106300  0.573700  0.236000  1
  O  O3102  1  0.393700  0.426300  0.736000  1
  O  O3103  1  0.176300  0.356300  0.486000  1
  O  O3104  1  0.323700  0.643700  0.986000  1
  O  O3105  1  0.606300  0.073700  0.736000  1
  O  O3106  1  0.893700  0.926300  0.236000  1
  O  O3107  1  0.676300  0.856300  0.986000  1
  O  O3108  1  0.823700  0.143700  0.486000  1
  O  O3109  1  0.893700  0.426300  0.764000  1
  O  O3110  1  0.606300  0.573700  0.264000  1
  O  O3111  1  0.823700  0.643700  0.514000  1
  O  O3112  1  0.676300  0.356300  0.014000  1
  O  O3113  1  0.393700  0.926300  0.264000  1
  O  O3114  1  0.106300  0.073700  0.764000  1
  O  O3115  1  0.323700  0.143700  0.014000  1
  O  O3116  1  0.176300  0.856300  0.514000  1
  O  O3117  1  0.347300  0.321700  0.018200  1
  O  O3118  1  0.152700  0.678300  0.518200  1
  O  O3119  1  0.428300  0.597300  0.268200  1
  O  O3120  1  0.071700  0.402700  0.768200  1
  O  O3121  1  0.847300  0.821700  0.518200  1
  O  O3122  1  0.652700  0.178300  0.018200  1
  O  O3123  1  0.928300  0.097300  0.768200  1
  O  O3124  1  0.571700  0.902700  0.268200  1
  O  O3125  1  0.652700  0.678300  0.981800  1
  O  O3126  1  0.847300  0.321700  0.481800  1
  O  O3127  1  0.571700  0.402700  0.731800  1
  O  O3128  1  0.928300  0.597300  0.231800  1
  O  O3129  1  0.152700  0.178300  0.481800  1
  O  O3130  1  0.347300  0.821700  0.981800  1
  O  O3131  1  0.071700  0.902700  0.231800  1
  O  O3132  1  0.428300  0.097300  0.731800  1
  O  O3133  1  0.302800  0.300200  0.960000  1
  O  O3134  1  0.197200  0.699800  0.460000  1
  O  O3135  1  0.449800  0.552800  0.210000  1
  O  O3136  1  0.050200  0.447200  0.710000  1
  O  O3137  1  0.802800  0.800200  0.460000  1
  O  O3138  1  0.697200  0.199800  0.960000  1
  O  O3139  1  0.949800  0.052800  0.710000  1
  O  O3140  1  0.550200  0.947200  0.210000  1
  O  O3141  1  0.697200  0.699800  0.040000  1
  O  O3142  1  0.802800  0.300200  0.540000  1
  O  O3143  1  0.550200  0.447200  0.790000  1
  O  O3144  1  0.949800  0.552800  0.290000  1
  O  O3145  1  0.197200  0.199800  0.540000  1
  O  O3146  1  0.302800  0.800200  0.040000  1
  O  O3147  1  0.050200  0.947200  0.290000  1
  O  O3148  1  0.449800  0.052800  0.790000  1
  O  O3149  1  0.312600  0.251400  0.014100  1
  O  O3150  1  0.187400  0.748600  0.514100  1
  O  O3151  1  0.498600  0.562600  0.264100  1
  O  O3152  1  0.001400  0.437400  0.764100  1
  O  O3153  1  0.812600  0.751400  0.514100  1
  O  O3154  1  0.687400  0.248600  0.014100  1
  O  O3155  1  0.998600  0.062600  0.764100  1
  O  O3156  1  0.501400  0.937400  0.264100  1
  O  O3157  1  0.687400  0.748600  0.985900  1
  O  O3158  1  0.812600  0.251400  0.485900  1
  O  O3159  1  0.501400  0.437400  0.735900  1
  O  O3160  1  0.998600  0.562600  0.235900  1
  O  O3161  1  0.187400  0.248600  0.485900  1
  O  O3162  1  0.312600  0.751400  0.985900  1
  O  O3163  1  0.001400  0.937400  0.235900  1
  O  O3164  1  0.498600  0.062600  0.735900  1
  O  O3165  1  0.540000  0.242000  0.455400  1.0
  O  O3166  1  0.960000  0.758000  0.955400  1.0
  O  O3167  1  0.508000  0.790000  0.705400  1.0
  O  O3168  1  0.992000  0.210000  0.205400  1.0
  O  O3169  1  0.040000  0.742000  0.955400  1.0
  O  O3170  1  0.460000  0.258000  0.455400  1.0
  O  O3171  1  0.008000  0.290000  0.205400  1.0
  O  O3172  1  0.492000  0.710000  0.705400  1.0
  O  O3173  1  0.460000  0.758000  0.544600  1.0
  O  O3174  1  0.040000  0.242000  0.044600  1.0
  O  O3175  1  0.492000  0.210000  0.294600  1.0
  O  O3176  1  0.008000  0.790000  0.794600  1.0
  O  O3177  1  0.960000  0.258000  0.044600  1.0
  O  O3178  1  0.540000  0.742000  0.544600  1.0
  O  O3179  1  0.992000  0.710000  0.794600  1.0
  O  O3180  1  0.508000  0.290000  0.294600  1.0
  O  O3181  1  0.643000  0.314000  0.363000  1.0
  O  O3182  1  0.857000  0.686000  0.863000  1.0
  O  O3183  1  0.436000  0.893000  0.613000  1.0
  O  O3184  1  0.064000  0.107000  0.113000  1.0
  O  O3185  1  0.143000  0.814000  0.863000  1.0
  O  O3186  1  0.357000  0.186000  0.363000  1.0
  O  O3187  1  0.936000  0.393000  0.113000  1.0
  O  O3188  1  0.564000  0.607000  0.613000  1.0
  O  O3189  1  0.357000  0.686000  0.637000  1.0
  O  O3190  1  0.143000  0.314000  0.137000  1.0
  O  O3191  1  0.564000  0.107000  0.387000  1.0
  O  O3192  1  0.936000  0.893000  0.887000  1.0
  O  O3193  1  0.857000  0.186000  0.137000  1.0
  O  O3194  1  0.643000  0.814000  0.637000  1.0
  O  O3195  1  0.064000  0.607000  0.887000  1.0
  O  O3196  1  0.436000  0.393000  0.387000  1.0
