
#######################################################################
#
#                 Cambridge Crystallographic Data Centre
#                                CCDC 
#
#######################################################################
#
# If this CIF has been generated from an entry in the Cambridge 
# Structural Database, then it will include bibliographic, chemical, 
# crystal, experimental, refinement or atomic coordinate data resulting 
# from the CCDC's data processing and validation procedures.
#
#######################################################################

data_BALGEC
_chemical_formula_moiety         
'C180 H144 Co4 N36 8+,2(C10 H7 O3 S1 1-),2(C2 H3 N1),6(B1 F4 1-),2(H2 O1)'
_chemical_name_systematic        
"hexakis(\m~2~-2,2'-(biphenyl-3,3'-diylbis(methylene-1H-pyrazole-1,3-diyl))dipyridine)-tetra-cobalt(ii) bis(naphthalene-1-sulfonate) hexakis(tetrafluoroborate) acetonitrile solvate dihydrate"
_symmetry_cell_setting           triclinic
_symmetry_space_group_name_H-M   'P -1'
_symmetry_Int_Tables_number      2
_space_group_name_Hall           '-P 1'
loop_
_symmetry_equiv_pos_site_id
_symmetry_equiv_pos_as_xyz
1 x,y,z
2 -x,-y,-z
_cell_length_a                   18.7977(4)
_cell_length_b                   19.7726(4)
_cell_length_c                   32.5810(7)
_cell_angle_alpha                82.6170(10)
_cell_angle_beta                 84.7620(10)
_cell_angle_gamma                65.0120(10)
_cell_volume                     10875.9
_exptl_crystal_colour            orange
_exptl_crystal_description       block
_cell_formula_units_Z            2
loop_
_atom_site_label
_atom_site_type_symbol
_atom_site_fract_x
_atom_site_fract_y
_atom_site_fract_z
Co1 Co -0.01693(6) 0.39402(6) 0.38200(3)
Co2 Co 0.65958(6) 0.00092(6) 0.26998(3)
Co3 Co 0.46868(6) 0.64827(6) 0.32414(3)
Co4 Co 0.25134(7) 0.46926(7) 0.05133(3)
N1 N 0.0038(2) 0.4837(2) 0.40218(13)
C1 C -0.0341(2) 0.5590(2) 0.38775(13)
H1 H -0.0659 0.5736 0.3644
C2 C -0.0253(3) 0.61315(18) 0.40751(16)
H2 H -0.0511 0.6646 0.3976
C3 C 0.0213(3) 0.5919(2) 0.44170(15)
H3 H 0.0274 0.6289 0.4552
C4 C 0.0592(3) 0.5166(3) 0.45613(12)
H4 H 0.0910 0.5020 0.4795
C5 C 0.0504(2) 0.46246(19) 0.43637(13)
N2 N 0.0983(3) 0.2662(2) 0.45233(15)
N3 N 0.0616(3) 0.3389(2) 0.43103(12)
C6 C 0.0813(3) 0.38869(19) 0.45043(16)
C7 C 0.1302(3) 0.3468(3) 0.48373(15)
H5 H 0.1521 0.3660 0.5020
C8 C 0.1407(3) 0.2711(3) 0.48490(15)
H6 H 0.1708 0.2308 0.5041
C9 C 0.0916(5) 0.2034(5) 0.4414(3)
H7 H 0.0380 0.2189 0.4317
H8 H 0.0982 0.1673 0.4663
N4 N 0.7562(2) 0.0223(2) 0.24169(15)
C10 C 0.8335(2) -0.0304(2) 0.23772(18)
H9 H 0.8488 -0.0795 0.2515
C11 C 0.8883(2) -0.0112(3) 0.2136(2)
H10 H 0.9411 -0.0472 0.2108
C12 C 0.8659(3) 0.0606(3) 0.19336(19)
H11 H 0.9034 0.0737 0.1768
C13 C 0.7887(3) 0.1133(2) 0.19733(17)
H12 H 0.7734 0.1623 0.1835
C14 C 0.7338(2) 0.0941(2) 0.22149(16)
N5 N 0.5286(2) 0.1763(2) 0.24628(16)
N6 N 0.6033(2) 0.11481(18) 0.24459(15)
C15 C 0.6587(2) 0.1427(3) 0.22668(17)
C16 C 0.6181(3) 0.2214(3) 0.21730(18)
H13 H 0.6407 0.2544 0.2051
C17 C 0.5377(3) 0.24222(19) 0.22941(18)
H14 H 0.4971 0.2916 0.2267
C18 C 0.4594(4) 0.1698(5) 0.2557(3)
H15 H 0.4640 0.1226 0.2459
H16 H 0.4175 0.2117 0.2400
C19 C 0.43381(13) 0.1697(2) 0.30162(11)
C20 C 0.36873(12) 0.15433(17) 0.31331(9)
H17 H 0.3427 0.1434 0.2932
C21 C 0.34179(11) 0.15498(13) 0.35450(8)
C22 C 0.37994(13) 0.17096(18) 0.38399(10)
H18 H 0.3615 0.1714 0.4121
C23 C 0.44502(13) 0.1863(2) 0.37229(12)
H19 H 0.4711 0.1972 0.3924
C24 C 0.47196(13) 0.1856(2) 0.33110(12)
H20 H 0.5164 0.1961 0.3231
C25 C 0.26843(11) 0.14058(12) 0.36607(8)
C26 C 0.25295(12) 0.09153(11) 0.34520(11)
H21 H 0.2882 0.0666 0.3236
C27 C 0.18595(13) 0.07892(11) 0.35586(12)
H22 H 0.1754 0.0454 0.3416
C28 C 0.13444(13) 0.11537(14) 0.38741(10)
H23 H 0.0887 0.1067 0.3947
C29 C 0.14992(13) 0.16442(18) 0.40828(7)
C30 C 0.21692(13) 0.17702(16) 0.39761(7)
H24 H 0.2275 0.2105 0.4119
N7 N -0.03362(11) 0.30276(15) 0.36253(11)
C31 C -0.09444(11) 0.28202(18) 0.37630(11)
H25 H -0.1306 0.3068 0.3976
C32 C -0.10233(13) 0.22502(19) 0.35896(12)
H26 H -0.1439 0.2108 0.3684
C33 C -0.04939(14) 0.18876(19) 0.32783(12)
H27 H -0.0548 0.1498 0.3160
C34 C 0.01143(13) 0.20950(18) 0.31407(9)
H28 H 0.0476 0.1847 0.2928
C35 C 0.01932(12) 0.26650(14) 0.33141(9)
N8 N 0.1335(3) 0.3734(2) 0.31492(15)
N9 N 0.0705(2) 0.3574(2) 0.33383(13)
C36 C 0.0758(3) 0.2907(3) 0.31921(16)
C37 C 0.1421(3) 0.2655(3) 0.29126(17)
H29 H 0.1595 0.2221 0.2769
C38 C 0.1778(3) 0.3166(3) 0.28860(16)
H30 H 0.2233 0.3133 0.2721
C39 C 0.1398(5) 0.4404(5) 0.3175(3)
H31 H 0.0863 0.4806 0.3203
H32 H 0.1644 0.4531 0.2912
N10 N 0.5699(2) 0.5459(2) 0.32017(14)
C40 C 0.6190(3) 0.5261(3) 0.28505(11)
H33 H 0.6061 0.5578 0.2599
C41 C 0.6869(3) 0.4597(3) 0.28680(13)
H34 H 0.7205 0.4462 0.2628
C42 C 0.7057(2) 0.4132(2) 0.32366(16)
H35 H 0.7521 0.3679 0.3249
C43 C 0.6566(3) 0.4331(2) 0.35879(13)
H36 H 0.6694 0.4013 0.3840
C44 C 0.5887(2) 0.4994(3) 0.35704(11)
N11 N 0.4311(3) 0.6077(3) 0.42271(14)
N12 N 0.4719(3) 0.5920(2) 0.38376(12)
C45 C 0.5379(3) 0.5219(3) 0.38942(15)
C46 C 0.5379(3) 0.4943(3) 0.43186(16)
H37 H 0.5755 0.4484 0.4443
C47 C 0.4719(3) 0.5473(3) 0.45244(11)
H38 H 0.4576 0.5431 0.4811
C48 C 0.3616(5) 0.6717(5) 0.4292(3)
H39 H 0.3651 0.7161 0.4129
H40 H 0.3548 0.6802 0.4588
C49 C 0.29097(17) 0.66144(19) 0.41596(11)
C50 C 0.22212(18) 0.72618(17) 0.41015(13)
H41 H 0.2209 0.7734 0.4142
C51 C 0.15505(16) 0.72186(14) 0.39837(13)
H42 H 0.1080 0.7661 0.3944
C52 C 0.15681(14) 0.65280(13) 0.39241(10)
H43 H 0.1110 0.6499 0.3844
C53 C 0.22566(13) 0.58806(14) 0.39822(8)
C54 C 0.29274(14) 0.59238(17) 0.41000(9)
H44 H 0.3398 0.5481 0.4140
C55 C 0.22884(11) 0.51242(13) 0.39152(7)
C56 C 0.18545(13) 0.50834(15) 0.36033(7)
H45 H 0.1544 0.5525 0.3437
C57 C 0.18749(14) 0.43960(16) 0.35345(8)
C58 C 0.23292(13) 0.37493(14) 0.37776(11)
H46 H 0.2343 0.3279 0.3731
C59 C 0.27630(11) 0.37900(13) 0.40895(12)
H47 H 0.3073 0.3348 0.4256
C60 C 0.27426(11) 0.44775(14) 0.41583(9)
H48 H 0.3039 0.4505 0.4371
N13 N -0.11607(14) 0.41976(16) 0.42620(9)
C61 C -0.11273(16) 0.38585(18) 0.46653(10)
H49 H -0.0643 0.3487 0.4766
C62 C -0.18028(18) 0.4063(2) 0.49215(10)
H50 H -0.1780 0.3831 0.5197
C63 C -0.25113(16) 0.4606(2) 0.47746(12)
H51 H -0.2973 0.4745 0.4950
C64 C -0.25445(14) 0.4945(2) 0.43715(12)
H52 H -0.3029 0.5316 0.4271
C65 C -0.18691(14) 0.47407(18) 0.41152(11)
N14 N -0.1288(2) 0.5134(3) 0.30697(12)
N15 N -0.1144(2) 0.4746(2) 0.34725(13)
C66 C -0.1852(3) 0.5036(3) 0.37176(12)
C67 C -0.24333(19) 0.5604(3) 0.34662(16)
H53 H -0.2962 0.5893 0.3551
C68 C -0.2085(3) 0.5665(3) 0.30658(14)
H54 H -0.2340 0.6002 0.2836
C69 C -0.0712(4) 0.4961(4) 0.2748(2)
H55 H -0.0201 0.4856 0.2862
H56 H -0.0841 0.5404 0.2541
N16 N 0.3436(3) 0.4304(4) 0.00430(16)
C70 C 0.3529(4) 0.4751(4) -0.0305(2)
H57 H 0.3199 0.5273 -0.0335
C71 C 0.4103(5) 0.4434(6) -0.06093(17)
H58 H 0.4166 0.4739 -0.0847
C72 C 0.4584(4) 0.3671(6) -0.0565(2)
H59 H 0.4976 0.3454 -0.0773
C73 C 0.4492(4) 0.3224(4) -0.0217(3)
H60 H 0.4821 0.2702 -0.0187
C74 C 0.3918(4) 0.3541(4) 0.00869(18)
N17 N 0.3214(3) 0.3039(3) 0.10791(14)
N18 N 0.3212(3) 0.3558(2) 0.07342(16)
C75 C 0.3796(3) 0.3162(3) 0.04393(15)
C76 C 0.4159(3) 0.2398(3) 0.0602(2)
H61 H 0.4570 0.2006 0.0469
C77 C 0.3799(3) 0.2322(2) 0.0997(2)
H62 H 0.3928 0.1871 0.1176
C78 C 0.2686(4) 0.3223(5) 0.1415(3)
H63 H 0.2531 0.3755 0.1455
H64 H 0.2951 0.2915 0.1666
C79 C 0.1949(2) 0.3105(3) 0.13697(15)
C80 C 0.1843(3) 0.2783(3) 0.10386(14)
H65 H 0.2238 0.2633 0.0824
C81 C 0.1159(3) 0.2680(3) 0.10222(14)
H66 H 0.1087 0.2459 0.0796
C82 C 0.0582(3) 0.2899(3) 0.13368(16)
H67 H 0.0114 0.2829 0.1326
C83 C 0.0687(2) 0.3222(3) 0.16679(14)
C84 C 0.1371(3) 0.3325(3) 0.16843(13)
H68 H 0.1443 0.3545 0.1911
C85 C 0.0068(5) 0.3460(4) 0.2003(2)
C86 C -0.0418(5) 0.3089(5) 0.2117(3)
H69 H -0.0351 0.2672 0.1978
C87 C -0.0987(5) 0.3311(5) 0.2424(3)
H70 H -0.1312 0.3049 0.2491
C88 C -0.1100(5) 0.3911(5) 0.2640(3)
H71 H -0.1492 0.4056 0.2856
C89 C -0.0628(4) 0.4299(4) 0.2534(2)
C90 C -0.0049(4) 0.4066(4) 0.2218(2)
H72 H 0.0275 0.4329 0.2147
N19 N 0.5596(2) -0.0148(3) 0.29786(15)
C91 C 0.5084(3) -0.0321(3) 0.27762(14)
H73 H 0.5131 -0.0327 0.2484
C92 C 0.4502(3) -0.0485(3) 0.3002(2)
H74 H 0.4152 -0.0603 0.2863
C93 C 0.4433(3) -0.0477(4) 0.3430(2)
H75 H 0.4036 -0.0589 0.3584
C94 C 0.4946(3) -0.0304(4) 0.36321(14)
H76 H 0.4899 -0.0298 0.3925
C95 C 0.5527(3) -0.0140(3) 0.34065(15)
N20 N 0.7138(3) 0.0257(3) 0.35905(16)
N21 N 0.6627(3) 0.0166(3) 0.33295(12)
C96 C 0.6034(3) 0.0036(3) 0.35846(17)
C97 C 0.6179(4) 0.0047(4) 0.40033(14)
H77 H 0.5873 -0.0024 0.4239
C98 C 0.6862(4) 0.0184(4) 0.40069(13)
H78 H 0.7093 0.0220 0.4246
C99 C 0.7786(5) 0.0410(5) 0.3446(3)
H79 H 0.8104 0.0052 0.3244
H80 H 0.8119 0.0332 0.3682
N22 N 0.3630(2) 0.7470(2) 0.32866(19)
C100 C 0.3574(3) 0.8143(3) 0.3404(2)
H81 H 0.4022 0.8172 0.3499
C101 C 0.2862(3) 0.8772(2) 0.3382(3)
H82 H 0.2823 0.9232 0.3462
C102 C 0.2206(2) 0.8729(2) 0.3243(3)
H83 H 0.1720 0.9159 0.3228
C103 C 0.2262(2) 0.8055(3) 0.3126(2)
H84 H 0.1814 0.8026 0.3031
C104 C 0.2974(3) 0.7426(2) 0.31478(18)
N23 N 0.3801(2) 0.5571(2) 0.28458(15)
N24 N 0.3850(2) 0.6197(2) 0.29908(15)
C105 C 0.3075(3) 0.6760(2) 0.30349(17)
C106 C 0.25468(18) 0.6483(3) 0.29172(18)
H85 H 0.1991 0.6744 0.2917
C107 C 0.2995(2) 0.5748(3) 0.28003(17)
H86 H 0.2792 0.5431 0.2708
C108 C 0.4449(4) 0.4955(4) 0.2727(2)
H87 H 0.4857 0.5125 0.2609
H88 H 0.4298 0.4753 0.2503
C109 C 0.48062(16) 0.43248(11) 0.30633(11)
C110 C 0.44706(16) 0.43196(13) 0.34612(12)
H89 H 0.3988 0.4720 0.3530
C111 C 0.48418(18) 0.37288(14) 0.37583(10)
H90 H 0.4612 0.3725 0.4030
C112 C 0.55486(17) 0.31434(13) 0.36574(8)
H91 H 0.5802 0.2740 0.3860
C113 C 0.58842(14) 0.31486(11) 0.32594(8)
C114 C 0.55131(16) 0.37393(11) 0.29624(9)
H92 H 0.5742 0.3743 0.2690
C115 C 0.66545(13) 0.25032(12) 0.31461(8)
C116 C 0.71702(15) 0.26333(12) 0.28465(10)
H93 H 0.7041 0.3123 0.2711
C117 C 0.78755(15) 0.20468(14) 0.27448(12)
H94 H 0.8228 0.2136 0.2540
C118 C 0.80653(12) 0.13300(13) 0.29430(12)
H95 H 0.8547 0.0929 0.2874
C119 C 0.75497(12) 0.11998(12) 0.32426(9)
C120 C 0.68444(13) 0.17863(12) 0.33442(7)
H96 H 0.6492 0.1697 0.3549
N25 N 0.73344(15) -0.11840(12) 0.28589(10)
C121 C 0.76900(17) -0.14941(11) 0.32348(10)
H97 H 0.7607 -0.1185 0.3450
C122 C 0.8167(2) -0.22570(11) 0.32950(12)
H98 H 0.8410 -0.2469 0.3552
C123 C 0.82897(19) -0.27099(11) 0.29793(13)
H99 H 0.8616 -0.3231 0.3020
C124 C 0.79341(19) -0.23998(12) 0.26035(13)
H100 H 0.8017 -0.2709 0.2388
C125 C 0.74566(18) -0.16369(13) 0.25433(11)
N26 N 0.6229(3) -0.0315(2) 0.17738(15)
N27 N 0.6596(3) -0.0514(2) 0.21601(13)
C126 C 0.7075(3) -0.1297(3) 0.21937(15)
C127 C 0.7003(3) -0.1582(2) 0.18282(18)
H101 H 0.7260 -0.2089 0.1768
C128 C 0.6481(4) -0.0974(3) 0.15687(14)
H102 H 0.6327 -0.1004 0.1304
C129 C 0.5792(5) 0.0416(5) 0.1616(3)
H103 H 0.5501 0.0713 0.1847
H104 H 0.5401 0.0420 0.1430
N28 N 0.1960(3) 0.5802(3) 0.02055(17)
C130 C 0.1368(4) 0.6023(4) -0.0074(2)
H105 H 0.1184 0.5672 -0.0140
C131 C 0.1044(4) 0.6758(4) -0.0256(2)
H106 H 0.0639 0.6909 -0.0448
C132 C 0.1313(4) 0.7272(3) -0.0159(2)
H107 H 0.1091 0.7774 -0.0284
C133 C 0.1905(4) 0.7051(3) 0.0120(2)
H108 H 0.2089 0.7402 0.0186
C134 C 0.2229(3) 0.6316(3) 0.03026(17)
N29 N 0.3694(3) 0.5138(2) 0.10120(15)
N30 N 0.3088(3) 0.5289(3) 0.07373(15)
C135 C 0.2815(3) 0.6053(3) 0.05745(15)
C136 C 0.3251(3) 0.6374(2) 0.07485(18)
H109 H 0.3191 0.6879 0.0694
C137 C 0.3795(3) 0.5809(3) 0.10189(16)
H110 H 0.4161 0.5868 0.1177
C138 C 0.4132(5) 0.4433(4) 0.1204(2)
H111 H 0.3785 0.4173 0.1288
H112 H 0.4347 0.4487 0.1458
C139 C 0.48098(15) 0.39526(14) 0.09257(8)
C140 C 0.5019(2) 0.42323(14) 0.05430(7)
H113 H 0.4730 0.4742 0.0442
C141 C 0.5650(2) 0.37668(15) 0.03081(7)
H114 H 0.5793 0.3958 0.0047
C142 C 0.60715(18) 0.30216(15) 0.04560(7)
H115 H 0.6503 0.2703 0.0296
C143 C 0.58625(15) 0.27419(13) 0.08388(7)
C144 C 0.52316(13) 0.32074(14) 0.10736(7)
H116 H 0.5089 0.3016 0.1335
C145 C 0.63069(15) 0.19072(13) 0.09975(7)
C146 C 0.71070(15) 0.15243(14) 0.09097(9)
H117 H 0.7388 0.1776 0.0750
C147 C 0.74963(18) 0.07729(14) 0.10555(10)
H118 H 0.8043 0.0511 0.0996
C148 C 0.7086(2) 0.04044(13) 0.12891(10)
H119 H 0.7352 -0.0109 0.1389
C149 C 0.6285(2) 0.07872(13) 0.13770(9)
C150 C 0.58962(18) 0.15386(14) 0.12311(8)
H120 H 0.5349 0.1800 0.1291
N31 N 0.53874(17) 0.69981(16) 0.34778(9)
C151 C 0.5546(2) 0.69671(18) 0.38901(10)
H121 H 0.5350 0.6701 0.4100
C152 C 0.5990(2) 0.73251(19) 0.39957(11)
H122 H 0.6098 0.7304 0.4277
C153 C 0.6276(2) 0.77140(19) 0.36893(12)
H123 H 0.6580 0.7959 0.3762
C154 C 0.61180(19) 0.77451(17) 0.32771(11)
H124 H 0.6314 0.8011 0.3068
C155 C 0.56736(17) 0.73871(15) 0.31714(10)
N32 N 0.4927(4) 0.7114(4) 0.22687(15)
N33 N 0.5036(3) 0.7014(3) 0.27015(14)
C156 C 0.5480(4) 0.7410(4) 0.27805(16)
C157 C 0.5645(5) 0.7755(5) 0.2396(2)
H125 H 0.5933 0.8056 0.2358
C158 C 0.5303(5) 0.7572(5) 0.20802(15)
H126 H 0.5323 0.7729 0.1793
C159 C 0.4486(6) 0.6827(6) 0.2085(3)
H127 H 0.4528 0.6354 0.2248
H128 H 0.4712 0.6706 0.1803
N34 N 0.1772(3) 0.4307(3) 0.02350(16)
C160 C 0.1958(3) 0.3938(4) -0.01217(17)
H129 H 0.2447 0.3841 -0.0267
C161 C 0.1427(4) 0.3712(4) -0.02655(18)
H130 H 0.1554 0.3460 -0.0509
C162 C 0.0711(4) 0.3854(4) -0.0053(2)
H131 H 0.0348 0.3699 -0.0151
C163 C 0.0525(3) 0.4222(4) 0.0304(2)
H132 H 0.0036 0.4320 0.0449
C164 C 0.1056(3) 0.4449(3) 0.04478(15)
N35 N 0.1261(3) 0.5263(3) 0.13154(14)
N36 N 0.1539(2) 0.4921(3) 0.09409(14)
C165 C 0.0927(3) 0.4784(3) 0.07947(14)
C166 C 0.0272(2) 0.5041(4) 0.10790(18)
H133 H -0.0218 0.5019 0.1058
C167 C 0.0479(3) 0.5337(3) 0.14008(15)
H134 H 0.0151 0.5548 0.1632
C168 C 0.1721(4) 0.5482(4) 0.1537(2)
H135 H 0.2282 0.5172 0.1470
H136 H 0.1623 0.5376 0.1837
C169 C 0.1569(2) 0.6297(2) 0.14477(13)
C170 C 0.1046(2) 0.6777(2) 0.11540(12)
H137 H 0.0761 0.6596 0.1006
C171 C 0.0941(2) 0.7520(2) 0.10775(13)
H138 H 0.0584 0.7848 0.0877
C172 C 0.1359(2) 0.77839(18) 0.12947(12)
H139 H 0.1288 0.8292 0.1242
C173 C 0.18820(16) 0.73041(15) 0.15884(8)
C174 C 0.1987(2) 0.65606(16) 0.16649(11)
H140 H 0.2344 0.6233 0.1866
C175 C 0.23595(19) 0.75766(16) 0.18087(8)
C176 C 0.31453(19) 0.7110(2) 0.18730(12)
H141 H 0.3363 0.6615 0.1793
C177 C 0.3612(2) 0.7368(3) 0.20548(15)
C178 C 0.3293(3) 0.8093(3) 0.21724(14)
H142 H 0.3612 0.8269 0.2297
C179 C 0.2507(3) 0.8559(2) 0.21081(15)
H143 H 0.2289 0.9055 0.2188
C180 C 0.2040(2) 0.83011(18) 0.19264(13)
H144 H 0.1503 0.8620 0.1883
B1 B 0.0410(5) 0.6082(5) 0.2534(3)
F1 F 0.0050(5) 0.6058(5) 0.2917(2)
F2 F 0.0580(5) 0.5430(4) 0.2346(3)
F3 F -0.0022(5) 0.6706(4) 0.2289(2)
F4 F 0.1162(4) 0.6093(5) 0.2587(2)
B2 B 0.7212(6) 0.2822(6) 0.4611(3)
F5 F 0.7662(5) 0.2478(5) 0.4948(3)
F6 F 0.6489(5) 0.3364(4) 0.4720(3)
F7 F 0.7594(6) 0.3059(5) 0.4305(3)
F8 F 0.7010(6) 0.2267(5) 0.4457(3)
B3 B 0.0617(8) 0.0692(8) 0.2263(4)
F9 F 0.0860(8) 0.1186(7) 0.2023(4)
F10 F 0.1141(6) 0.0356(6) 0.2587(3)
F11 F -0.0122(5) 0.1039(5) 0.2423(2)
F12 F 0.0644(6) 0.0129(6) 0.2038(3)
B4 B 0.5747(9) 0.4548(9) 0.1744(5)
F13 F 0.5451(8) 0.4035(7) 0.1921(4)
F14 F 0.6207(8) 0.4310(7) 0.1405(4)
F15 F 0.6189(8) 0.4601(9) 0.2065(4)
F16 F 0.5148(8) 0.5264(7) 0.1666(5)
B5 B 0.3212(5) 0.4010(5) 0.2232(3)
F17 F 0.3455(4) 0.3820(4) 0.26358(19)
F18 F 0.3731(3) 0.3461(3) 0.19903(15)
F19 F 0.3229(3) 0.4691(3) 0.20818(14)
F20 F 0.2468(3) 0.4046(3) 0.22150(15)
C181 C 0.0472(6) 0.1056(6) 0.6082(3)
C182 C 0.0446(6) 0.0415(6) 0.5964(3)
H145 H 0.0617 0.0272 0.5692
C183 C 0.0162(6) -0.0021(5) 0.6255(3)
H146 H 0.0136 -0.0456 0.6177
C184 C -0.0073(5) 0.0182(6) 0.6644(3)
H147 H -0.0253 -0.0121 0.6836
C185 C -0.0334(3) 0.1054(3) 0.71642(17)
H148 H -0.0514 0.0752 0.7357
C186 C -0.0346(4) 0.1714(4) 0.72764(17)
H149 H -0.0535 0.1862 0.7545
C187 C -0.0082(4) 0.2156(3) 0.6995(2)
H150 H -0.0090 0.2607 0.7071
C188 C 0.0195(4) 0.1939(3) 0.6601(2)
H151 H 0.0375 0.2242 0.6408
C189 C 0.0207(3) 0.1279(3) 0.64888(15)
C190 C -0.0057(3) 0.0837(3) 0.67705(19)
S1 S 0.08776(17) 0.15575(16) 0.57067(9)
O1 O 0.1490(5) 0.1634(5) 0.5904(2)
O2 O 0.1195(5) 0.1103(5) 0.5363(3)
O3 O 0.0226(4) 0.2264(4) 0.5592(2)
C191 C 0.4537(8) 0.8828(8) 0.0517(4)
C192 C 0.4836(9) 0.9091(9) 0.0134(5)
H152 H 0.5346 0.9083 0.0126
C193 C 0.4407(8) 0.9353(8) -0.0219(4)
H153 H 0.4597 0.9559 -0.0461
C194 C 0.3716(8) 0.9307(7) -0.0209(4)
H154 H 0.3414 0.9491 -0.0449
C195 C 0.2703(6) 0.8955(6) 0.0116(3)
H155 H 0.2437 0.9108 -0.0136
C196 C 0.2378(5) 0.8686(7) 0.0464(4)
H156 H 0.1891 0.8655 0.0449
C197 C 0.2767(7) 0.8463(6) 0.0834(3)
H157 H 0.2545 0.8279 0.1072
C198 C 0.3480(7) 0.8510(6) 0.0856(3)
H158 H 0.3745 0.8357 0.1109
C199 C 0.3804(5) 0.8779(6) 0.0508(3)
C200 C 0.3415(6) 0.9002(6) 0.0138(3)
S2 S 0.5117(3) 0.8520(3) 0.09545(15)
O4 O 0.5248(7) 0.7735(7) 0.1085(4)
O5 O 0.4623(6) 0.9042(6) 0.1266(3)
O6 O 0.5870(8) 0.8600(7) 0.0824(4)
N37 N 0.9138(12) 0.9184(9) 0.1157(6)
C201 C 0.9135(9) 0.8723(8) 0.1404(5)
C202 C 0.9237(9) 0.8030(8) 0.1712(5)
H159 H 0.9446 0.7581 0.1563
H160 H 0.8728 0.8095 0.1846
H161 H 0.9604 0.7975 0.1922
N38 N 0.5190(12) 0.2582(9) 0.4906(7)
C203 C 0.4747(10) 0.3172(8) 0.4965(5)
C204 C 0.4197(11) 0.4009(9) 0.4978(7)
H162 H 0.4351 0.4209 0.5198
H163 H 0.3655 0.4066 0.5034
H164 H 0.4236 0.4285 0.4711
N39 N 0.8713(8) 0.4512(8) 0.0927(4)
C205 C 0.8385(8) 0.4642(8) 0.1238(4)
C206 C 0.8007(16) 0.4780(17) 0.1676(5)
H165 H 0.7856 0.4372 0.1786
H166 H 0.7539 0.5258 0.1665
H167 H 0.8384 0.4800 0.1857
O7 O 0.2643(6) 0.2109(6) 0.5657(3)
O8 O 0.2269(10) 0.3634(10) 0.5559(5)
O9 O 0.9308(7) 0.2056(7) 0.5005(4)
O10 O 0.8147(11) 0.1076(11) 0.4300(6)
loop_
_geom_bond_atom_site_label_1
_geom_bond_atom_site_label_2
_geom_bond_site_symmetry_1
_geom_bond_site_symmetry_2
Co1 N1 1_555 1_555
Co2 N4 1_555 1_555
Co3 N10 1_555 1_555
Co4 N16 1_555 1_555
N1 C1 1_555 1_555
C1 H1 1_555 1_555
C2 C1 1_555 1_555
H2 C2 1_555 1_555
C3 C2 1_555 1_555
H3 C3 1_555 1_555
C4 C3 1_555 1_555
H4 C4 1_555 1_555
C5 N1 1_555 1_555
N2 N3 1_555 1_555
N3 Co1 1_555 1_555
C6 C5 1_555 1_555
C7 C6 1_555 1_555
H5 C7 1_555 1_555
C8 N2 1_555 1_555
H6 C8 1_555 1_555
C9 N2 1_555 1_555
H7 C9 1_555 1_555
H8 C9 1_555 1_555
N4 C10 1_555 1_555
C10 H9 1_555 1_555
C11 C10 1_555 1_555
H10 C11 1_555 1_555
C12 C11 1_555 1_555
H11 C12 1_555 1_555
C13 C12 1_555 1_555
H12 C13 1_555 1_555
C14 N4 1_555 1_555
N5 N6 1_555 1_555
N6 Co2 1_555 1_555
C15 C14 1_555 1_555
C16 C15 1_555 1_555
H13 C16 1_555 1_555
C17 N5 1_555 1_555
H14 C17 1_555 1_555
C18 N5 1_555 1_555
H15 C18 1_555 1_555
H16 C18 1_555 1_555
C19 C18 1_555 1_555
C20 C19 1_555 1_555
H17 C20 1_555 1_555
C21 C20 1_555 1_555
C22 C21 1_555 1_555
H18 C22 1_555 1_555
C23 C22 1_555 1_555
H19 C23 1_555 1_555
C24 C19 1_555 1_555
H20 C24 1_555 1_555
C25 C21 1_555 1_555
C26 C25 1_555 1_555
H21 C26 1_555 1_555
C27 C26 1_555 1_555
H22 C27 1_555 1_555
C28 C27 1_555 1_555
H23 C28 1_555 1_555
C29 C9 1_555 1_555
C30 C25 1_555 1_555
H24 C30 1_555 1_555
N7 Co1 1_555 1_555
C31 N7 1_555 1_555
H25 C31 1_555 1_555
C32 C31 1_555 1_555
H26 C32 1_555 1_555
C33 C32 1_555 1_555
H27 C33 1_555 1_555
C34 C33 1_555 1_555
H28 C34 1_555 1_555
C35 N7 1_555 1_555
N8 N9 1_555 1_555
N9 Co1 1_555 1_555
C36 C35 1_555 1_555
C37 C36 1_555 1_555
H29 C37 1_555 1_555
C38 N8 1_555 1_555
H30 C38 1_555 1_555
C39 N8 1_555 1_555
H31 C39 1_555 1_555
H32 C39 1_555 1_555
N10 C40 1_555 1_555
C40 H33 1_555 1_555
C41 C40 1_555 1_555
H34 C41 1_555 1_555
C42 C41 1_555 1_555
H35 C42 1_555 1_555
C43 C42 1_555 1_555
H36 C43 1_555 1_555
C44 N10 1_555 1_555
N11 N12 1_555 1_555
N12 Co3 1_555 1_555
C45 C44 1_555 1_555
C46 C45 1_555 1_555
H37 C46 1_555 1_555
C47 N11 1_555 1_555
H38 C47 1_555 1_555
C48 N11 1_555 1_555
H39 C48 1_555 1_555
H40 C48 1_555 1_555
C49 C48 1_555 1_555
C50 C49 1_555 1_555
H41 C50 1_555 1_555
C51 C50 1_555 1_555
H42 C51 1_555 1_555
C52 C51 1_555 1_555
H43 C52 1_555 1_555
C53 C52 1_555 1_555
C54 C49 1_555 1_555
H44 C54 1_555 1_555
C55 C53 1_555 1_555
C56 C55 1_555 1_555
H45 C56 1_555 1_555
C57 C39 1_555 1_555
C58 C57 1_555 1_555
H46 C58 1_555 1_555
C59 C58 1_555 1_555
H47 C59 1_555 1_555
C60 C55 1_555 1_555
H48 C60 1_555 1_555
N13 Co1 1_555 1_555
C61 N13 1_555 1_555
H49 C61 1_555 1_555
C62 C61 1_555 1_555
H50 C62 1_555 1_555
C63 C62 1_555 1_555
H51 C63 1_555 1_555
C64 C63 1_555 1_555
H52 C64 1_555 1_555
C65 N13 1_555 1_555
N14 N15 1_555 1_555
N15 Co1 1_555 1_555
C66 C65 1_555 1_555
C67 C66 1_555 1_555
H53 C67 1_555 1_555
C68 N14 1_555 1_555
H54 C68 1_555 1_555
C69 N14 1_555 1_555
H55 C69 1_555 1_555
H56 C69 1_555 1_555
N16 C70 1_555 1_555
C70 H57 1_555 1_555
C71 C70 1_555 1_555
H58 C71 1_555 1_555
C72 C71 1_555 1_555
H59 C72 1_555 1_555
C73 C72 1_555 1_555
H60 C73 1_555 1_555
C74 N16 1_555 1_555
N17 N18 1_555 1_555
N18 Co4 1_555 1_555
C75 C74 1_555 1_555
C76 C75 1_555 1_555
H61 C76 1_555 1_555
C77 N17 1_555 1_555
H62 C77 1_555 1_555
C78 N17 1_555 1_555
H63 C78 1_555 1_555
H64 C78 1_555 1_555
C79 C78 1_555 1_555
C80 C79 1_555 1_555
H65 C80 1_555 1_555
C81 C80 1_555 1_555
H66 C81 1_555 1_555
C82 C81 1_555 1_555
H67 C82 1_555 1_555
C83 C82 1_555 1_555
C84 C79 1_555 1_555
H68 C84 1_555 1_555
C85 C83 1_555 1_555
C86 C85 1_555 1_555
H69 C86 1_555 1_555
C87 C86 1_555 1_555
H70 C87 1_555 1_555
C88 C87 1_555 1_555
H71 C88 1_555 1_555
C89 C69 1_555 1_555
C90 C85 1_555 1_555
H72 C90 1_555 1_555
N19 Co2 1_555 1_555
C91 N19 1_555 1_555
H73 C91 1_555 1_555
C92 C91 1_555 1_555
H74 C92 1_555 1_555
C93 C92 1_555 1_555
H75 C93 1_555 1_555
C94 C93 1_555 1_555
H76 C94 1_555 1_555
C95 N19 1_555 1_555
N20 N21 1_555 1_555
N21 Co2 1_555 1_555
C96 C95 1_555 1_555
C97 C96 1_555 1_555
H77 C97 1_555 1_555
C98 N20 1_555 1_555
H78 C98 1_555 1_555
C99 N20 1_555 1_555
H79 C99 1_555 1_555
H80 C99 1_555 1_555
N22 Co3 1_555 1_555
C100 N22 1_555 1_555
H81 C100 1_555 1_555
C101 C100 1_555 1_555
H82 C101 1_555 1_555
C102 C101 1_555 1_555
H83 C102 1_555 1_555
C103 C102 1_555 1_555
H84 C103 1_555 1_555
C104 N22 1_555 1_555
N23 N24 1_555 1_555
N24 Co3 1_555 1_555
C105 C104 1_555 1_555
C106 C105 1_555 1_555
H85 C106 1_555 1_555
C107 N23 1_555 1_555
H86 C107 1_555 1_555
C108 N23 1_555 1_555
H87 C108 1_555 1_555
H88 C108 1_555 1_555
C109 C108 1_555 1_555
C110 C109 1_555 1_555
H89 C110 1_555 1_555
C111 C110 1_555 1_555
H90 C111 1_555 1_555
C112 C111 1_555 1_555
H91 C112 1_555 1_555
C113 C112 1_555 1_555
C114 C109 1_555 1_555
H92 C114 1_555 1_555
C115 C113 1_555 1_555
C116 C115 1_555 1_555
H93 C116 1_555 1_555
C117 C116 1_555 1_555
H94 C117 1_555 1_555
C118 C117 1_555 1_555
H95 C118 1_555 1_555
C119 C99 1_555 1_555
C120 C115 1_555 1_555
H96 C120 1_555 1_555
N25 Co2 1_555 1_555
C121 N25 1_555 1_555
H97 C121 1_555 1_555
C122 C121 1_555 1_555
H98 C122 1_555 1_555
C123 C122 1_555 1_555
H99 C123 1_555 1_555
C124 C123 1_555 1_555
H100 C124 1_555 1_555
C125 N25 1_555 1_555
N26 N27 1_555 1_555
N27 Co2 1_555 1_555
C126 C125 1_555 1_555
C127 C126 1_555 1_555
H101 C127 1_555 1_555
C128 N26 1_555 1_555
H102 C128 1_555 1_555
C129 N26 1_555 1_555
H103 C129 1_555 1_555
H104 C129 1_555 1_555
N28 Co4 1_555 1_555
C130 N28 1_555 1_555
H105 C130 1_555 1_555
C131 C130 1_555 1_555
H106 C131 1_555 1_555
C132 C131 1_555 1_555
H107 C132 1_555 1_555
C133 C132 1_555 1_555
H108 C133 1_555 1_555
C134 N28 1_555 1_555
N29 N30 1_555 1_555
N30 Co4 1_555 1_555
C135 C134 1_555 1_555
C136 C135 1_555 1_555
H109 C136 1_555 1_555
C137 N29 1_555 1_555
H110 C137 1_555 1_555
C138 N29 1_555 1_555
H111 C138 1_555 1_555
H112 C138 1_555 1_555
C139 C138 1_555 1_555
C140 C139 1_555 1_555
H113 C140 1_555 1_555
C141 C140 1_555 1_555
H114 C141 1_555 1_555
C142 C141 1_555 1_555
H115 C142 1_555 1_555
C143 C142 1_555 1_555
C144 C139 1_555 1_555
H116 C144 1_555 1_555
C145 C143 1_555 1_555
C146 C145 1_555 1_555
H117 C146 1_555 1_555
C147 C146 1_555 1_555
H118 C147 1_555 1_555
C148 C147 1_555 1_555
H119 C148 1_555 1_555
C149 C129 1_555 1_555
C150 C145 1_555 1_555
H120 C150 1_555 1_555
N31 Co3 1_555 1_555
C151 N31 1_555 1_555
H121 C151 1_555 1_555
C152 C151 1_555 1_555
H122 C152 1_555 1_555
C153 C152 1_555 1_555
H123 C153 1_555 1_555
C154 C153 1_555 1_555
H124 C154 1_555 1_555
C155 N31 1_555 1_555
N32 N33 1_555 1_555
N33 Co3 1_555 1_555
C156 C155 1_555 1_555
C157 C156 1_555 1_555
H125 C157 1_555 1_555
C158 N32 1_555 1_555
H126 C158 1_555 1_555
C159 N32 1_555 1_555
H127 C159 1_555 1_555
H128 C159 1_555 1_555
N34 Co4 1_555 1_555
C160 N34 1_555 1_555
H129 C160 1_555 1_555
C161 C160 1_555 1_555
H130 C161 1_555 1_555
C162 C161 1_555 1_555
H131 C162 1_555 1_555
C163 C162 1_555 1_555
H132 C163 1_555 1_555
C164 N34 1_555 1_555
N35 N36 1_555 1_555
N36 Co4 1_555 1_555
C165 C164 1_555 1_555
C166 C165 1_555 1_555
H133 C166 1_555 1_555
C167 N35 1_555 1_555
H134 C167 1_555 1_555
C168 N35 1_555 1_555
H135 C168 1_555 1_555
H136 C168 1_555 1_555
C169 C168 1_555 1_555
C170 C169 1_555 1_555
H137 C170 1_555 1_555
C171 C170 1_555 1_555
H138 C171 1_555 1_555
C172 C171 1_555 1_555
H139 C172 1_555 1_555
C173 C172 1_555 1_555
C174 C169 1_555 1_555
H140 C174 1_555 1_555
C175 C173 1_555 1_555
C176 C175 1_555 1_555
H141 C176 1_555 1_555
C177 C159 1_555 1_555
C178 C177 1_555 1_555
H142 C178 1_555 1_555
C179 C178 1_555 1_555
H143 C179 1_555 1_555
C180 C175 1_555 1_555
H144 C180 1_555 1_555
B1 F1 1_555 1_555
F2 B1 1_555 1_555
F3 B1 1_555 1_555
F4 B1 1_555 1_555
B2 F5 1_555 1_555
F6 B2 1_555 1_555
F7 B2 1_555 1_555
F8 B2 1_555 1_555
B3 F9 1_555 1_555
F10 B3 1_555 1_555
F11 B3 1_555 1_555
F12 B3 1_555 1_555
B4 F13 1_555 1_555
F14 B4 1_555 1_555
F15 B4 1_555 1_555
F16 B4 1_555 1_555
B5 F17 1_555 1_555
F18 B5 1_555 1_555
F19 B5 1_555 1_555
F20 B5 1_555 1_555
C181 C182 1_555 1_555
C182 H145 1_555 1_555
C183 C182 1_555 1_555
H146 C183 1_555 1_555
C184 C183 1_555 1_555
H147 C184 1_555 1_555
C185 H148 1_555 1_555
C186 C185 1_555 1_555
H149 C186 1_555 1_555
C187 C186 1_555 1_555
H150 C187 1_555 1_555
C188 C187 1_555 1_555
H151 C188 1_555 1_555
C189 C181 1_555 1_555
C190 C184 1_555 1_555
S1 C181 1_555 1_555
O1 S1 1_555 1_555
O2 S1 1_555 1_555
O3 S1 1_555 1_555
C191 C192 1_555 1_555
C192 H152 1_555 1_555
C193 C192 1_555 1_555
H153 C193 1_555 1_555
C194 C193 1_555 1_555
H154 C194 1_555 1_555
C195 H155 1_555 1_555
C196 C195 1_555 1_555
H156 C196 1_555 1_555
C197 C196 1_555 1_555
H157 C197 1_555 1_555
C198 C197 1_555 1_555
H158 C198 1_555 1_555
C199 C191 1_555 1_555
C200 C194 1_555 1_555
S2 C191 1_555 1_555
O4 S2 1_555 1_555
O5 S2 1_555 1_555
O6 S2 1_555 1_555
N37 C201 1_555 1_555
C201 C202 1_555 1_555
C202 H159 1_555 1_555
H160 C202 1_555 1_555
H161 C202 1_555 1_555
N38 C203 1_555 1_555
C203 C204 1_555 1_555
C204 H162 1_555 1_555
H163 C204 1_555 1_555
H164 C204 1_555 1_555
N39 C205 1_555 1_555
C205 C206 1_555 1_555
C206 H165 1_555 1_555
H166 C206 1_555 1_555
H167 C206 1_555 1_555
C4 C5 1_555 1_555
N3 C6 1_555 1_555
C7 C8 1_555 1_555
C13 C14 1_555 1_555
N6 C15 1_555 1_555
C16 C17 1_555 1_555
C23 C24 1_555 1_555
C28 C29 1_555 1_555
C29 C30 1_555 1_555
C34 C35 1_555 1_555
N9 C36 1_555 1_555
C37 C38 1_555 1_555
C43 C44 1_555 1_555
N12 C45 1_555 1_555
C46 C47 1_555 1_555
C53 C54 1_555 1_555
C56 C57 1_555 1_555
C59 C60 1_555 1_555
C64 C65 1_555 1_555
N15 C66 1_555 1_555
C67 C68 1_555 1_555
C73 C74 1_555 1_555
N18 C75 1_555 1_555
C76 C77 1_555 1_555
C83 C84 1_555 1_555
C88 C89 1_555 1_555
C89 C90 1_555 1_555
C94 C95 1_555 1_555
N21 C96 1_555 1_555
C97 C98 1_555 1_555
C103 C104 1_555 1_555
N24 C105 1_555 1_555
C106 C107 1_555 1_555
C113 C114 1_555 1_555
C118 C119 1_555 1_555
C119 C120 1_555 1_555
C124 C125 1_555 1_555
N27 C126 1_555 1_555
C127 C128 1_555 1_555
C133 C134 1_555 1_555
N30 C135 1_555 1_555
C136 C137 1_555 1_555
C143 C144 1_555 1_555
C148 C149 1_555 1_555
C149 C150 1_555 1_555
C154 C155 1_555 1_555
N33 C156 1_555 1_555
C157 C158 1_555 1_555
C163 C164 1_555 1_555
N36 C165 1_555 1_555
C166 C167 1_555 1_555
C173 C174 1_555 1_555
C176 C177 1_555 1_555
C179 C180 1_555 1_555
C185 C190 1_555 1_555
C188 C189 1_555 1_555
C189 C190 1_555 1_555
C195 C200 1_555 1_555
C198 C199 1_555 1_555
C199 C200 1_555 1_555

#END
