# generated using pymatgen
data_Cd4B6H168C188N44O16F31
_symmetry_space_group_name_H-M   'P 1'
_cell_length_a   18.98210000
_cell_length_b   19.29840000
_cell_length_c   30.81480000
_cell_angle_alpha   86.20600000
_cell_angle_beta   86.11500000
_cell_angle_gamma   65.10800000
_symmetry_Int_Tables_number   1
_chemical_formula_structural   Cd4B6H168C188N44O16F31
_chemical_formula_sum   'Cd8 B12 H336 C376 N88 O32 F62'
_cell_volume   10207.18826053
_cell_formula_units_Z   2
loop_
 _symmetry_equiv_pos_site_id
 _symmetry_equiv_pos_as_xyz
  1  'x, y, z'
loop_
 _atom_site_type_symbol
 _atom_site_label
 _atom_site_symmetry_multiplicity
 _atom_site_fract_x
 _atom_site_fract_y
 _atom_site_fract_z
 _atom_site_occupancy
  Cd  Cd1  1  0.882180  0.837780  0.472204  1
  Cd  Cd2  1  0.117820  0.162220  0.527796  1
  Cd  Cd3  1  0.059470  0.036140  0.128473  1
  Cd  Cd4  1  0.940530  0.963860  0.871527  1
  Cd  Cd5  1  0.431390  0.384270  0.293709  1
  Cd  Cd6  1  0.568610  0.615730  0.706291  1
  Cd  Cd7  1  0.583250  0.760220  0.171271  1
  Cd  Cd8  1  0.416750  0.239780  0.828729  1
  B  B9  1  0.650100  0.345600  0.500200  1
  B  B10  1  0.349900  0.654400  0.499800  1
  B  B11  1  0.780300  0.243200  0.343600  1
  B  B12  1  0.219700  0.756800  0.656400  1
  B  B13  1  0.758500  0.973000  0.304400  1
  B  B14  1  0.241500  0.027000  0.695600  1
  B  B15  1  0.484600  0.915100  0.350230  1
  B  B16  1  0.515400  0.084900  0.649770  1
  B  B17  1  0.033600  0.757600  0.226400  1
  B  B18  1  0.966400  0.242400  0.773600  1
  B  B19  1  0.316200  0.192100  0.079600  1
  B  B20  1  0.683800  0.807900  0.920400  1
  H  H21  1  0.694000  0.052500  0.576200  1
  H  H22  1  0.306000  0.947500  0.423800  1
  H  H23  1  0.694600  0.978200  0.637200  1
  H  H24  1  0.305400  0.021800  0.362800  1
  H  H25  1  0.768700  0.845000  0.636900  1
  H  H26  1  0.231300  0.155000  0.363100  1
  H  H27  1  0.845800  0.794200  0.574700  1
  H  H28  1  0.154200  0.205800  0.425300  1
  H  H29  1  0.711800  0.127500  0.509500  1
  H  H30  1  0.288200  0.872500  0.490500  1
  H  H31  1  0.755000  0.142600  0.433200  1
  H  H32  1  0.245000  0.857400  0.566800  1
  H  H33  1  0.829800  0.051200  0.371900  1
  H  H34  1  0.170200  0.948800  0.628100  1
  H  H35  1  0.856400  0.961800  0.382700  1
  H  H36  1  0.143600  0.038200  0.617300  1
  H  H37  1  0.341800  0.930100  0.053800  1
  H  H38  1  0.658200  0.069900  0.946200  1
  H  H39  1  0.322800  0.028600  0.001100  1
  H  H40  1  0.677200  0.971400  0.998900  1
  H  H41  1  0.200900  0.132000  0.996400  1
  H  H42  1  0.799100  0.868000  0.003600  1
  H  H43  1  0.098100  0.137000  0.044300  1
  H  H44  1  0.901900  0.863000  0.955700  1
  H  H45  1  0.352500  0.841600  0.114800  1
  H  H46  1  0.647500  0.158400  0.885200  1
  H  H47  1  0.313800  0.785900  0.180600  1
  H  H48  1  0.686200  0.214100  0.819400  1
  H  H49  1  0.179400  0.824600  0.227600  1
  H  H50  1  0.820600  0.175400  0.772400  1
  H  H51  1  0.104000  0.883100  0.203100  1
  H  H52  1  0.896000  0.116900  0.796900  1
  H  H53  1  0.949300  0.011200  0.330900  1
  H  H54  1  0.050700  0.988800  0.669100  1
  H  H55  1  0.943100  0.002300  0.461200  1
  H  H56  1  0.056900  0.997700  0.538800  1
  H  H57  1  0.071800  0.985900  0.462500  1
  H  H58  1  0.928200  0.014100  0.537500  1
  H  H59  1  0.139900  0.984300  0.396500  1
  H  H60  1  0.860100  0.015700  0.603500  1
  H  H61  1  0.076300  0.910400  0.288500  1
  H  H62  1  0.923700  0.089600  0.711500  1
  H  H63  1  0.213700  0.986000  0.211800  1
  H  H64  1  0.786300  0.014000  0.788200  1
  H  H65  1  0.203100  0.072400  0.264300  1
  H  H66  1  0.796900  0.927600  0.735700  1
  H  H67  1  0.129200  0.077800  0.329000  1
  H  H68  1  0.870800  0.922200  0.671000  1
  H  H69  1  0.831400  0.589400  0.486300  1
  H  H70  1  0.168600  0.410600  0.513700  1
  H  H71  1  0.928500  0.516600  0.534500  1
  H  H72  1  0.071500  0.483400  0.465500  1
  H  H73  1  0.018500  0.563400  0.553500  1
  H  H74  1  0.981500  0.436600  0.446500  1
  H  H75  1  0.999600  0.684200  0.530800  1
  H  H76  1  0.000400  0.315800  0.469200  1
  H  H77  1  0.645800  0.799700  0.402800  1
  H  H78  1  0.354200  0.200300  0.597200  1
  H  H79  1  0.729100  0.674100  0.438600  1
  H  H80  1  0.270900  0.325900  0.561400  1
  H  H81  1  0.658000  0.929400  0.385200  1
  H  H82  1  0.342000  0.070600  0.614800  1
  H  H83  1  0.733200  0.934700  0.402400  1
  H  H84  1  0.266800  0.065300  0.597600  1
  H  H85  1  0.321400  0.658200  0.355300  1
  H  H86  1  0.678600  0.341800  0.644700  1
  H  H87  1  0.225500  0.722800  0.309300  1
  H  H88  1  0.774500  0.277200  0.690700  1
  H  H89  1  0.214700  0.666700  0.251200  1
  H  H90  1  0.785300  0.333300  0.748800  1
  H  H91  1  0.291000  0.532400  0.242700  1
  H  H92  1  0.709000  0.467600  0.757300  1
  H  H93  1  0.415800  0.585200  0.409300  1
  H  H94  1  0.584200  0.414800  0.590700  1
  H  H95  1  0.521100  0.466400  0.439500  1
  H  H96  1  0.478900  0.533600  0.560500  1
  H  H97  1  0.595200  0.326700  0.415100  1
  H  H98  1  0.404800  0.673300  0.584900  1
  H  H99  1  0.570600  0.307600  0.370300  1
  H  H100  1  0.429400  0.692400  0.629700  1
  H  H101  1  0.601500  0.064500  0.408900  1
  H  H102  1  0.398500  0.935500  0.591100  1
  H  H103  1  0.663300  0.885500  0.496400  1
  H  H104  1  0.336700  0.114500  0.503600  1
  H  H105  1  0.585800  0.966300  0.550200  1
  H  H106  1  0.414200  0.033700  0.449800  1
  H  H107  1  0.513700  0.095100  0.533300  1
  H  H108  1  0.486300  0.904900  0.466700  1
  H  H109  1  0.594500  0.188700  0.421800  1
  H  H110  1  0.405500  0.811300  0.578200  1
  H  H111  1  0.400300  0.386700  0.431000  1
  H  H112  1  0.599700  0.613300  0.569000  1
  H  H113  1  0.340500  0.319200  0.473700  1
  H  H114  1  0.659500  0.680800  0.526300  1
  H  H115  1  0.406500  0.193700  0.494000  1
  H  H116  1  0.593500  0.806300  0.506000  1
  H  H117  1  0.179200  0.770200  0.464300  1
  H  H118  1  0.820800  0.229800  0.535700  1
  H  H119  1  0.197900  0.767600  0.539700  1
  H  H120  1  0.802100  0.232400  0.460300  1
  H  H121  1  0.091200  0.805600  0.587900  1
  H  H122  1  0.908800  0.194400  0.412100  1
  H  H123  1  0.968400  0.840300  0.561500  1
  H  H124  1  0.031600  0.159700  0.438500  1
  H  H125  1  0.070000  0.777700  0.324700  1
  H  H126  1  0.930000  0.222300  0.675300  1
  H  H127  1  0.149800  0.777800  0.387400  1
  H  H128  1  0.850200  0.222200  0.612600  1
  H  H129  1  0.920600  0.806500  0.319400  1
  H  H130  1  0.079400  0.193500  0.680600  1
  H  H131  1  0.866200  0.833500  0.362500  1
  H  H132  1  0.133800  0.166500  0.637500  1
  H  H133  1  0.416700  0.598200  0.175300  1
  H  H134  1  0.583300  0.401800  0.824700  1
  H  H135  1  0.406800  0.594700  0.100300  1
  H  H136  1  0.593200  0.405300  0.899700  1
  H  H137  1  0.462700  0.657500  0.051600  1
  H  H138  1  0.537300  0.342500  0.948400  1
  H  H139  1  0.528500  0.723800  0.077900  1
  H  H140  1  0.471500  0.276200  0.922100  1
  H  H141  1  0.434700  0.605000  0.251800  1
  H  H142  1  0.565300  0.395000  0.748200  1
  H  H143  1  0.485800  0.639600  0.316600  1
  H  H144  1  0.514200  0.360400  0.683400  1
  H  H145  1  0.567200  0.717500  0.327200  1
  H  H146  1  0.432800  0.282500  0.672800  1
  H  H147  1  0.581400  0.764100  0.285200  1
  H  H148  1  0.418600  0.235900  0.714800  1
  H  H149  1  0.821600  0.744200  0.320800  1
  H  H150  1  0.178400  0.255800  0.679200  1
  H  H151  1  0.008600  0.665700  0.395400  1
  H  H152  1  0.991400  0.334300  0.604600  1
  H  H153  1  0.004700  0.547400  0.401900  1
  H  H154  1  0.995300  0.452600  0.598100  1
  H  H155  1  0.909700  0.525900  0.368000  1
  H  H156  1  0.090300  0.474100  0.632000  1
  H  H157  1  0.705800  0.717000  0.329900  1
  H  H158  1  0.294200  0.283000  0.670100  1
  H  H159  1  0.656100  0.580600  0.255100  1
  H  H160  1  0.343900  0.419400  0.744900  1
  H  H161  1  0.786300  0.489200  0.257000  1
  H  H162  1  0.213700  0.510800  0.743000  1
  H  H163  1  0.876400  0.515900  0.294000  1
  H  H164  1  0.123600  0.484100  0.706000  1
  H  H165  1  0.909200  0.955100  0.020700  1
  H  H166  1  0.090800  0.044900  0.979300  1
  H  H167  1  0.969700  0.824700  0.031700  1
  H  H168  1  0.030300  0.175300  0.968300  1
  H  H169  1  0.071800  0.772200  0.080600  1
  H  H170  1  0.928200  0.227800  0.919400  1
  H  H171  1  0.098800  0.854100  0.120500  1
  H  H172  1  0.901200  0.145900  0.879500  1
  H  H173  1  0.851800  0.091900  0.009100  1
  H  H174  1  0.148200  0.908100  0.990900  1
  H  H175  1  0.835000  0.227900  0.017700  1
  H  H176  1  0.165000  0.772100  0.982300  1
  H  H177  1  0.916600  0.283500  0.061000  1
  H  H178  1  0.083400  0.716500  0.939000  1
  H  H179  1  0.987900  0.222400  0.087200  1
  H  H180  1  0.012100  0.777600  0.912800  1
  H  H181  1  0.328300  0.205200  0.381300  1
  H  H182  1  0.671700  0.794800  0.618700  1
  H  H183  1  0.204800  0.296000  0.402400  1
  H  H184  1  0.795200  0.704000  0.597600  1
  H  H185  1  0.164400  0.423800  0.378000  1
  H  H186  1  0.835600  0.576200  0.622000  1
  H  H187  1  0.247600  0.460700  0.332600  1
  H  H188  1  0.752400  0.539300  0.667400  1
  H  H189  1  0.446600  0.115600  0.344600  1
  H  H190  1  0.553400  0.884400  0.655400  1
  H  H191  1  0.584800  0.076600  0.314400  1
  H  H192  1  0.415200  0.923400  0.685600  1
  H  H193  1  0.672400  0.150200  0.300300  1
  H  H194  1  0.327600  0.849800  0.699700  1
  H  H195  1  0.630200  0.239900  0.307500  1
  H  H196  1  0.369800  0.760100  0.692500  1
  H  H197  1  0.808500  0.217700  0.115200  1
  H  H198  1  0.191500  0.782300  0.884800  1
  H  H199  1  0.945300  0.322500  0.142800  1
  H  H200  1  0.054700  0.677500  0.857200  1
  H  H201  1  0.883900  0.352000  0.210100  1
  H  H202  1  0.116100  0.648000  0.789900  1
  H  H203  1  0.773200  0.327200  0.227900  1
  H  H204  1  0.226800  0.672800  0.772100  1
  H  H205  1  0.729100  0.239200  0.252100  1
  H  H206  1  0.270900  0.760800  0.747900  1
  H  H207  1  0.553400  0.188800  0.219700  1
  H  H208  1  0.446600  0.811200  0.780300  1
  H  H209  1  0.575500  0.218600  0.147500  1
  H  H210  1  0.424500  0.781400  0.852500  1
  H  H211  1  0.676400  0.252200  0.126000  1
  H  H212  1  0.323600  0.747800  0.874000  1
  H  H213  1  0.003200  0.215300  0.257500  1
  H  H214  1  0.996800  0.784700  0.742500  1
  H  H215  1  0.097000  0.262500  0.239400  1
  H  H216  1  0.903000  0.737500  0.760600  1
  H  H217  1  0.175400  0.225400  0.175700  1
  H  H218  1  0.824600  0.774600  0.824300  1
  H  H219  1  0.160000  0.141000  0.130000  1
  H  H220  1  0.840000  0.859000  0.870000  1
  H  H221  1  0.903100  0.166800  0.269200  1
  H  H222  1  0.096900  0.833200  0.730800  1
  H  H223  1  0.846500  0.072100  0.262000  1
  H  H224  1  0.153500  0.927900  0.738000  1
  H  H225  1  0.904300  0.939300  0.225000  1
  H  H226  1  0.095700  0.060700  0.775000  1
  H  H227  1  0.973000  0.924800  0.188900  1
  H  H228  1  0.027000  0.075200  0.811100  1
  H  H229  1  0.381000  0.028000  0.120800  1
  H  H230  1  0.619000  0.972000  0.879200  1
  H  H231  1  0.304600  0.061000  0.185800  1
  H  H232  1  0.695400  0.939000  0.814200  1
  H  H233  1  0.332000  0.969400  0.244300  1
  H  H234  1  0.668000  0.030600  0.755700  1
  H  H235  1  0.443100  0.856200  0.239200  1
  H  H236  1  0.556900  0.143800  0.760800  1
  H  H237  1  0.470500  0.990900  0.056700  1
  H  H238  1  0.529500  0.009100  0.943300  1
  H  H239  1  0.582900  0.903100  0.012400  1
  H  H240  1  0.417100  0.096900  0.987600  1
  H  H241  1  0.684200  0.767600  0.022100  1
  H  H242  1  0.315800  0.232400  0.977900  1
  H  H243  1  0.672900  0.719900  0.064300  1
  H  H244  1  0.327100  0.280100  0.935700  1
  H  H245  1  0.895100  0.859800  0.162800  1
  H  H246  1  0.104900  0.140200  0.837200  1
  H  H247  1  0.818100  0.089500  0.154000  1
  H  H248  1  0.181900  0.910500  0.846000  1
  H  H249  1  0.734100  0.096300  0.100900  1
  H  H250  1  0.265900  0.903700  0.899100  1
  H  H251  1  0.734700  0.985600  0.075600  1
  H  H252  1  0.265300  0.014400  0.924400  1
  H  H253  1  0.700800  0.880800  0.085900  1
  H  H254  1  0.299200  0.119200  0.914100  1
  H  H255  1  0.816700  0.655300  0.065600  1
  H  H256  1  0.183300  0.344700  0.934400  1
  H  H257  1  0.928300  0.657500  0.089000  1
  H  H258  1  0.071700  0.342500  0.911000  1
  H  H259  1  0.929100  0.767600  0.115000  1
  H  H260  1  0.070900  0.232400  0.885000  1
  H  H261  1  0.571000  0.447900  0.156100  1
  H  H262  1  0.429000  0.552100  0.843900  1
  H  H263  1  0.667700  0.466000  0.191300  1
  H  H264  1  0.332300  0.534000  0.808700  1
  H  H265  1  0.675300  0.447300  0.266500  1
  H  H266  1  0.324700  0.552700  0.733500  1
  H  H267  1  0.586400  0.411200  0.304400  1
  H  H268  1  0.413600  0.588800  0.695600  1
  H  H269  1  0.470200  0.415600  0.123400  1
  H  H270  1  0.529800  0.584400  0.876600  1
  H  H271  1  0.352400  0.393400  0.126400  1
  H  H272  1  0.647600  0.606600  0.873600  1
  H  H273  1  0.252300  0.384500  0.188900  1
  H  H274  1  0.747700  0.615500  0.811100  1
  H  H275  1  0.268400  0.403000  0.236100  1
  H  H276  1  0.731600  0.597000  0.763900  1
  H  H277  1  0.881400  0.597400  0.185000  1
  H  H278  1  0.118600  0.402600  0.815000  1
  H  H279  1  0.890900  0.488700  0.149000  1
  H  H280  1  0.109100  0.511300  0.851000  1
  H  H281  1  0.784000  0.485000  0.121100  1
  H  H282  1  0.216000  0.515000  0.878900  1
  H  H283  1  0.663100  0.594400  0.127800  1
  H  H284  1  0.336900  0.405600  0.872200  1
  H  H285  1  0.861600  0.723500  0.206700  1
  H  H286  1  0.138400  0.276500  0.793300  1
  H  H287  1  0.785900  0.847300  0.243100  1
  H  H288  1  0.214100  0.152700  0.756900  1
  H  H289  1  0.642200  0.916000  0.270100  1
  H  H290  1  0.357800  0.084000  0.729900  1
  H  H291  1  0.585300  0.879100  0.258100  1
  H  H292  1  0.414700  0.120900  0.741900  1
  H  H293  1  0.415400  0.237800  0.188400  1
  H  H294  1  0.584600  0.762200  0.811600  1
  H  H295  1  0.219300  0.305900  0.266800  1
  H  H296  1  0.780700  0.694100  0.733200  1
  H  H297  1  0.248200  0.184500  0.288000  1
  H  H298  1  0.751800  0.815500  0.712000  1
  H  H299  1  0.365600  0.083900  0.266300  1
  H  H300  1  0.634400  0.916100  0.733700  1
  H  H301  1  0.495500  0.019200  0.259800  1
  H  H302  1  0.504500  0.980800  0.740200  1
  H  H303  1  0.657900  0.934600  0.161600  1
  H  H304  1  0.342100  0.065400  0.838400  1
  H  H305  1  0.588400  0.041500  0.117800  1
  H  H306  1  0.411600  0.958500  0.882200  1
  H  H307  1  0.475600  0.140500  0.145900  1
  H  H308  1  0.524400  0.859500  0.854100  1
  H  H309  1  0.454500  0.791700  0.926800  1
  H  H310  1  0.545500  0.208300  0.073200  1
  H  H311  1  0.509300  0.736700  0.963600  1
  H  H312  1  0.490700  0.263300  0.036400  1
  H  H313  1  0.534500  0.796300  0.935800  1
  H  H314  1  0.465500  0.203700  0.064200  1
  H  H315  1  0.786400  0.365900  0.542300  1
  H  H316  1  0.213600  0.634100  0.457700  1
  H  H317  1  0.707600  0.440600  0.550500  1
  H  H318  1  0.292400  0.559400  0.449500  1
  H  H319  1  0.762400  0.398300  0.590100  1
  H  H320  1  0.237600  0.601700  0.409900  1
  H  H321  1  0.742500  0.428200  0.380800  1
  H  H322  1  0.257500  0.571800  0.619200  1
  H  H323  1  0.815500  0.351700  0.395100  1
  H  H324  1  0.184500  0.648300  0.604900  1
  H  H325  1  0.827500  0.411200  0.360000  1
  H  H326  1  0.172500  0.588800  0.640000  1
  H  H327  1  0.398400  0.481600  0.549800  1
  H  H328  1  0.601600  0.518400  0.450200  1
  H  H329  1  0.344900  0.443400  0.534000  1
  H  H330  1  0.655100  0.556600  0.466000  1
  H  H331  1  0.437500  0.397900  0.530800  1
  H  H332  1  0.562500  0.602100  0.469200  1
  H  H333  1  0.496900  0.262600  0.558500  1
  H  H334  1  0.503100  0.737400  0.441500  1
  H  H335  1  0.561600  0.178600  0.549000  1
  H  H336  1  0.438400  0.821400  0.451000  1
  H  H337  1  0.565200  0.251300  0.522400  1
  H  H338  1  0.434800  0.748700  0.477600  1
  H  H339  1  0.374500  0.863100  0.316600  1
  H  H340  1  0.625500  0.136900  0.683400  1
  H  H341  1  0.325000  0.856400  0.359500  1
  H  H342  1  0.675000  0.143600  0.640500  1
  H  H343  1  0.288600  0.927600  0.325600  1
  H  H344  1  0.711400  0.072400  0.674400  1
  H  H345  1  0.103900  0.391400  0.053000  1
  H  H346  1  0.896100  0.608600  0.947000  1
  H  H347  1  0.054600  0.395700  0.012000  1
  H  H348  1  0.945400  0.604300  0.988000  1
  H  H349  1  0.147200  0.349600  0.009500  1
  H  H350  1  0.852800  0.650400  0.990500  1
  H  H351  1  0.164200  0.601100  0.102600  1
  H  H352  1  0.835800  0.398900  0.897400  1
  H  H353  1  0.108200  0.650300  0.141000  1
  H  H354  1  0.891800  0.349700  0.859000  1
  H  H355  1  0.167400  0.563300  0.150700  1
  H  H356  1  0.832600  0.436700  0.849300  1
  C  C357  1  0.773200  0.964700  0.538400  1
  C  C358  1  0.226800  0.035300  0.461600  1
  C  C359  1  0.725300  0.999000  0.576400  1
  C  C360  1  0.274700  0.001000  0.423600  1
  C  C361  1  0.725100  0.955400  0.612000  1
  C  C362  1  0.274900  0.044600  0.388000  1
  C  C363  1  0.769200  0.877100  0.612200  1
  C  C364  1  0.230800  0.122900  0.387800  1
  C  C365  1  0.814300  0.847700  0.574700  1
  C  C366  1  0.185700  0.152300  0.425300  1
  C  C367  1  0.776500  0.008500  0.500500  1
  C  C368  1  0.223500  0.991500  0.499500  1
  C  C369  1  0.743700  0.088000  0.490800  1
  C  C370  1  0.256300  0.912000  0.509200  1
  C  C371  1  0.767500  0.095500  0.449300  1
  C  C372  1  0.232500  0.904500  0.550700  1
  C  C373  1  0.856000  0.009200  0.393400  1
  C  C374  1  0.144000  0.990800  0.606600  1
  C  C375  1  0.231200  0.975100  0.080400  1
  C  C376  1  0.768800  0.024900  0.919600  1
  C  C377  1  0.292300  0.972100  0.051900  1
  C  C378  1  0.707700  0.027900  0.948100  1
  C  C379  1  0.281000  0.030600  0.020590  1
  C  C380  1  0.719000  0.969400  0.979410  1
  C  C381  1  0.208600  0.092100  0.017770  1
  C  C382  1  0.791400  0.907900  0.982230  1
  C  C383  1  0.147500  0.095000  0.046300  1
  C  C384  1  0.852500  0.905000  0.953700  1
  C  C385  1  0.238200  0.922000  0.115500  1
  C  C386  1  0.761800  0.078000  0.884500  1
  C  C387  1  0.302100  0.860000  0.128700  1
  C  C388  1  0.697900  0.140000  0.871300  1
  C  C389  1  0.281800  0.830400  0.164300  1
  C  C390  1  0.718200  0.169600  0.835700  1
  C  C391  1  0.155900  0.875400  0.212300  1
  C  C392  1  0.844100  0.124600  0.787700  1
  C  C393  1  0.051900  0.996800  0.356900  1
  C  C394  1  0.948100  0.003200  0.643100  1
  C  C395  1  0.975300  0.003600  0.357300  1
  C  C396  1  0.024700  0.996400  0.642700  1
  C  C397  1  0.939200  0.999100  0.396400  1
  C  C398  1  0.060800  0.000900  0.603600  1
  C  C399  1  0.972700  0.997900  0.434600  1
  C  C400  1  0.027300  0.002100  0.565400  1
  C  C401  1  0.048200  0.990400  0.435700  1
  C  C402  1  0.951800  0.009600  0.564300  1
  C  C403  1  0.087700  0.989700  0.396700  1
  C  C404  1  0.912300  0.010300  0.603300  1
  C  C405  1  0.095800  0.994600  0.314850  1
  C  C406  1  0.904200  0.005400  0.685150  1
  C  C407  1  0.102100  0.943300  0.283620  1
  C  C408  1  0.897900  0.056700  0.716380  1
  C  C409  1  0.146000  0.940100  0.245220  1
  C  C410  1  0.854000  0.059900  0.754780  1
  C  C411  1  0.183600  0.988200  0.238030  1
  C  C412  1  0.816400  0.011800  0.761970  1
  C  C413  1  0.177400  0.039500  0.269250  1
  C  C414  1  0.822600  0.960500  0.730750  1
  C  C415  1  0.133500  0.042700  0.307660  1
  C  C416  1  0.866500  0.957300  0.692340  1
  C  C417  1  0.858100  0.683400  0.483200  1
  C  C418  1  0.141900  0.316600  0.516800  1
  C  C419  1  0.865600  0.608900  0.496300  1
  C  C420  1  0.134400  0.391100  0.503700  1
  C  C421  1  0.923900  0.565500  0.523800  1
  C  C422  1  0.076100  0.434500  0.476200  1
  C  C423  1  0.976100  0.593700  0.535900  1
  C  C424  1  0.023900  0.406300  0.464100  1
  C  C425  1  0.964700  0.664700  0.521900  1
  C  C426  1  0.035300  0.335300  0.478100  1
  C  C427  1  0.723300  0.837200  0.422310  1
  C  C428  1  0.276700  0.162800  0.577690  1
  C  C429  1  0.691900  0.788600  0.417630  1
  C  C430  1  0.308100  0.211400  0.582370  1
  C  C431  1  0.736400  0.720000  0.437540  1
  C  C432  1  0.263600  0.280000  0.562460  1
  C  C433  1  0.690200  0.919500  0.410830  1
  C  C434  1  0.309800  0.080500  0.589170  1
  C  C435  1  0.355200  0.556800  0.329600  1
  C  C436  1  0.644800  0.443200  0.670400  1
  C  C437  1  0.312500  0.632200  0.332600  1
  C  C438  1  0.687500  0.367800  0.667400  1
  C  C439  1  0.258800  0.670600  0.305000  1
  C  C440  1  0.741200  0.329400  0.695000  1
  C  C441  1  0.251300  0.637800  0.272200  1
  C  C442  1  0.748700  0.362200  0.727800  1
  C  C443  1  0.297500  0.557400  0.266700  1
  C  C444  1  0.702500  0.442600  0.733300  1
  C  C445  1  0.412800  0.512200  0.359700  1
  C  C446  1  0.587200  0.487800  0.640300  1
  C  C447  1  0.435900  0.535600  0.398100  1
  C  C448  1  0.564100  0.464400  0.601900  1
  C  C449  1  0.492900  0.470200  0.414400  1
  C  C450  1  0.507100  0.529800  0.585600  1
  C  C451  1  0.550300  0.332400  0.398300  1
  C  C452  1  0.449700  0.667600  0.601700  1
  C  C453  1  0.550900  0.094700  0.469570  1
  C  C454  1  0.449100  0.905300  0.530430  1
  C  C455  1  0.598600  0.044900  0.437740  1
  C  C456  1  0.401400  0.955100  0.562260  1
  C  C457  1  0.640900  0.968500  0.447410  1
  C  C458  1  0.359100  0.031500  0.552590  1
  C  C459  1  0.635200  0.938600  0.489690  1
  C  C460  1  0.364800  0.061400  0.510310  1
  C  C461  1  0.588800  0.986200  0.521390  1
  C  C462  1  0.411200  0.013800  0.478610  1
  C  C463  1  0.546500  0.063000  0.511340  1
  C  C464  1  0.453500  0.937000  0.488660  1
  C  C465  1  0.508500  0.175900  0.458500  1
  C  C466  1  0.491500  0.824100  0.541500  1
  C  C467  1  0.542800  0.215700  0.433080  1
  C  C468  1  0.457200  0.784300  0.566920  1
  C  C469  1  0.505900  0.292000  0.423500  1
  C  C470  1  0.494100  0.708000  0.576500  1
  C  C471  1  0.427800  0.333700  0.438200  1
  C  C472  1  0.572200  0.666300  0.561800  1
  C  C473  1  0.393100  0.293000  0.463800  1
  C  C474  1  0.606900  0.707000  0.536200  1
  C  C475  1  0.431300  0.218200  0.475000  1
  C  C476  1  0.568700  0.781800  0.525000  1
  C  C477  1  0.060900  0.803200  0.470800  1
  C  C478  1  0.939100  0.196800  0.529200  1
  C  C479  1  0.136300  0.783200  0.484800  1
  C  C480  1  0.863700  0.216800  0.515200  1
  C  C481  1  0.147200  0.782900  0.529500  1
  C  C482  1  0.852800  0.217100  0.470500  1
  C  C483  1  0.085200  0.804300  0.557600  1
  C  C484  1  0.914800  0.195700  0.442400  1
  C  C485  1  0.012200  0.824500  0.541600  1
  C  C486  1  0.987800  0.175500  0.458400  1
  C  C487  1  0.975800  0.800600  0.371040  1
  C  C488  1  0.024200  0.199400  0.628960  1
  C  C489  1  0.052000  0.786100  0.354240  1
  C  C490  1  0.948000  0.213900  0.645760  1
  C  C491  1  0.096690  0.786100  0.389370  1
  C  C492  1  0.903310  0.213900  0.610630  1
  C  C493  1  0.916200  0.794600  0.351000  1
  C  C494  1  0.083800  0.205400  0.649000  1
  C  C495  1  0.478400  0.663100  0.171170  1
  C  C496  1  0.521600  0.336900  0.828830  1
  C  C497  1  0.439400  0.623700  0.155540  1
  C  C498  1  0.560600  0.376300  0.844460  1
  C  C499  1  0.433500  0.621600  0.110970  1
  C  C500  1  0.566500  0.378400  0.889030  1
  C  C501  1  0.466700  0.658900  0.082030  1
  C  C502  1  0.533300  0.341100  0.917970  1
  C  C503  1  0.505800  0.698300  0.097660  1
  C  C504  1  0.494200  0.301700  0.902340  1
  C  C505  1  0.490300  0.666667  0.216200  1
  C  C506  1  0.509700  0.333333  0.783800  1
  C  C507  1  0.464800  0.633800  0.251700  1
  C  C508  1  0.535200  0.366200  0.748300  1
  C  C509  1  0.493500  0.652500  0.286900  1
  C  C510  1  0.506500  0.347500  0.713100  1
  C  C511  1  0.585300  0.713300  0.296200  1
  C  C512  1  0.414700  0.286700  0.703800  1
  C  C513  1  0.857000  0.633400  0.339700  1
  C  C514  1  0.143000  0.366600  0.660300  1
  C  C515  1  0.859500  0.703700  0.337030  1
  C  C516  1  0.140500  0.296300  0.662970  1
  C  C517  1  0.914700  0.718000  0.356800  1
  C  C518  1  0.085300  0.282000  0.643200  1
  C  C519  1  0.969800  0.657700  0.381400  1
  C  C520  1  0.030200  0.342300  0.618600  1
  C  C521  1  0.967500  0.587600  0.385200  1
  C  C522  1  0.032500  0.412400  0.614800  1
  C  C523  1  0.911300  0.574600  0.364900  1
  C  C524  1  0.088700  0.425400  0.635100  1
  C  C525  1  0.799900  0.617600  0.315900  1
  C  C526  1  0.200100  0.382400  0.684100  1
  C  C527  1  0.722000  0.670800  0.315040  1
  C  C528  1  0.278000  0.329200  0.684960  1
  C  C529  1  0.668100  0.657100  0.292900  1
  C  C530  1  0.331900  0.342900  0.707100  1
  C  C531  1  0.692400  0.590000  0.270900  1
  C  C532  1  0.307600  0.410000  0.729100  1
  C  C533  1  0.770000  0.535800  0.271500  1
  C  C534  1  0.230000  0.464200  0.728500  1
  C  C535  1  0.823400  0.551600  0.294000  1
  C  C536  1  0.176600  0.448400  0.706000  1
  C  C537  1  0.972700  0.980200  0.063100  1
  C  C538  1  0.027300  0.019800  0.936900  1
  C  C539  1  0.949800  0.933100  0.040600  1
  C  C540  1  0.050200  0.066900  0.959400  1
  C  C541  1  0.984900  0.857100  0.047000  1
  C  C542  1  0.015100  0.142900  0.953000  1
  C  C543  1  0.044100  0.826000  0.076400  1
  C  C544  1  0.955900  0.174000  0.923600  1
  C  C545  1  0.061300  0.875300  0.098900  1
  C  C546  1  0.938700  0.124700  0.901100  1
  C  C547  1  0.938800  0.058400  0.055670  1
  C  C548  1  0.061200  0.941600  0.944330  1
  C  C549  1  0.879900  0.107400  0.027730  1
  C  C550  1  0.120100  0.892600  0.972270  1
  C  C551  1  0.870500  0.183500  0.032570  1
  C  C552  1  0.129500  0.816500  0.967430  1
  C  C553  1  0.932100  0.239000  0.082000  1
  C  C554  1  0.067900  0.761000  0.918000  1
  C  C555  1  0.361300  0.279000  0.344470  1
  C  C556  1  0.638700  0.721000  0.655530  1
  C  C557  1  0.311900  0.257000  0.371440  1
  C  C558  1  0.688100  0.743000  0.628560  1
  C  C559  1  0.238500  0.311000  0.383930  1
  C  C560  1  0.761500  0.689000  0.616070  1
  C  C561  1  0.214600  0.386900  0.369440  1
  C  C562  1  0.785400  0.613100  0.630560  1
  C  C563  1  0.264000  0.408900  0.342470  1
  C  C564  1  0.736000  0.591100  0.657530  1
  C  C565  1  0.438300  0.227100  0.331100  1
  C  C566  1  0.561700  0.772900  0.668900  1
  C  C567  1  0.470500  0.148100  0.333800  1
  C  C568  1  0.529500  0.851900  0.666200  1
  C  C569  1  0.546200  0.127400  0.317000  1
  C  C570  1  0.453800  0.872600  0.683000  1
  C  C571  1  0.628000  0.198100  0.291500  1
  C  C572  1  0.372000  0.801900  0.708500  1
  C  C573  1  0.780900  0.268400  0.174400  1
  C  C574  1  0.219100  0.731600  0.825600  1
  C  C575  1  0.823000  0.245400  0.134500  1
  C  C576  1  0.177000  0.754600  0.865500  1
  C  C577  1  0.887400  0.263700  0.123000  1
  C  C578  1  0.112600  0.736300  0.877000  1
  C  C579  1  0.905100  0.306600  0.151200  1
  C  C580  1  0.094900  0.693400  0.848800  1
  C  C581  1  0.867200  0.326800  0.190400  1
  C  C582  1  0.132800  0.673200  0.809600  1
  C  C583  1  0.802400  0.309800  0.201400  1
  C  C584  1  0.197600  0.690200  0.798600  1
  C  C585  1  0.714300  0.246500  0.187200  1
  C  C586  1  0.285700  0.753500  0.812800  1
  C  C587  1  0.698300  0.234000  0.230600  1
  C  C588  1  0.301700  0.766000  0.769400  1
  C  C589  1  0.637900  0.214000  0.243100  1
  C  C590  1  0.362100  0.786000  0.756900  1
  C  C591  1  0.593200  0.205400  0.211700  1
  C  C592  1  0.406800  0.794600  0.788300  1
  C  C593  1  0.607800  0.221500  0.168900  1
  C  C594  1  0.392200  0.778500  0.831100  1
  C  C595  1  0.667400  0.241700  0.155900  1
  C  C596  1  0.332600  0.758300  0.844100  1
  C  C597  1  0.025900  0.150100  0.204500  1
  C  C598  1  0.974100  0.849900  0.795500  1
  C  C599  1  0.035000  0.200200  0.231620  1
  C  C600  1  0.965000  0.799800  0.768380  1
  C  C601  1  0.090800  0.228300  0.220890  1
  C  C602  1  0.909200  0.771700  0.779110  1
  C  C603  1  0.137300  0.206200  0.183040  1
  C  C604  1  0.862700  0.793800  0.816960  1
  C  C605  1  0.128200  0.156100  0.155920  1
  C  C606  1  0.871800  0.843900  0.844080  1
  C  C607  1  0.974900  0.113000  0.215600  1
  C  C608  1  0.025100  0.887000  0.784400  1
  C  C609  1  0.918000  0.128400  0.248400  1
  C  C610  1  0.082000  0.871600  0.751600  1
  C  C611  1  0.887700  0.076400  0.244500  1
  C  C612  1  0.112300  0.923600  0.755500  1
  C  C613  1  0.920800  0.962200  0.198700  1
  C  C614  1  0.079200  0.037800  0.801300  1
  C  C615  1  0.458500  0.926100  0.144600  1
  C  C616  1  0.541500  0.073900  0.855400  1
  C  C617  1  0.393900  0.994000  0.145700  1
  C  C618  1  0.606100  0.006000  0.854300  1
  C  C619  1  0.347600  0.012600  0.183700  1
  C  C620  1  0.652400  0.987400  0.816300  1
  C  C621  1  0.364800  0.959300  0.218700  1
  C  C622  1  0.635200  0.040700  0.781300  1
  C  C623  1  0.430200  0.892100  0.215200  1
  C  C624  1  0.569800  0.107900  0.784800  1
  C  C625  1  0.510500  0.903300  0.106200  1
  C  C626  1  0.489500  0.096700  0.893800  1
  C  C627  1  0.507600  0.941600  0.065500  1
  C  C628  1  0.492400  0.058400  0.934500  1
  C  C629  1  0.568700  0.893700  0.041600  1
  C  C630  1  0.431300  0.106300  0.958400  1
  C  C631  1  0.676900  0.767900  0.054200  1
  C  C632  1  0.323100  0.232100  0.945800  1
  C  C633  1  0.814300  0.909400  0.117500  1
  C  C634  1  0.185700  0.090600  0.882500  1
  C  C635  1  0.862700  0.907700  0.149700  1
  C  C636  1  0.137300  0.092300  0.850300  1
  C  C637  1  0.865500  0.974000  0.163700  1
  C  C638  1  0.134500  0.026000  0.836300  1
  C  C639  1  0.817200  0.043900  0.144800  1
  C  C640  1  0.182800  0.956100  0.855200  1
  C  C641  1  0.767900  0.047900  0.113000  1
  C  C642  1  0.232100  0.952100  0.887000  1
  C  C643  1  0.767200  0.982200  0.098500  1
  C  C644  1  0.232800  0.017800  0.901500  1
  C  C645  1  0.814700  0.839000  0.102800  1
  C  C646  1  0.185300  0.161000  0.897200  1
  C  C647  1  0.747600  0.835400  0.087000  1
  C  C648  1  0.252400  0.164600  0.913000  1
  C  C649  1  0.747500  0.769800  0.073300  1
  C  C650  1  0.252500  0.230200  0.926700  1
  C  C651  1  0.816200  0.701600  0.074600  1
  C  C652  1  0.183800  0.298400  0.925400  1
  C  C653  1  0.881700  0.703100  0.089100  1
  C  C654  1  0.118300  0.296900  0.910900  1
  C  C655  1  0.882900  0.769200  0.104000  1
  C  C656  1  0.117100  0.230800  0.896000  1
  C  C657  1  0.523000  0.417300  0.211800  1
  C  C658  1  0.477000  0.582700  0.788200  1
  C  C659  1  0.574800  0.440100  0.186800  1
  C  C660  1  0.425200  0.559900  0.813200  1
  C  C661  1  0.632000  0.450900  0.207800  1
  C  C662  1  0.368000  0.549100  0.792200  1
  C  C663  1  0.636700  0.440100  0.251700  1
  C  C664  1  0.363300  0.559900  0.748300  1
  C  C665  1  0.583600  0.418600  0.273700  1
  C  C666  1  0.416400  0.581400  0.726300  1
  C  C667  1  0.460000  0.404400  0.193300  1
  C  C668  1  0.540000  0.595600  0.806700  1
  C  C669  1  0.442600  0.407200  0.148600  1
  C  C670  1  0.557400  0.592800  0.851400  1
  C  C671  1  0.379000  0.395400  0.151000  1
  C  C672  1  0.621000  0.604600  0.849000  1
  C  C673  1  0.292300  0.370300  0.210900  1
  C  C674  1  0.707700  0.629700  0.789100  1
  C  C675  1  0.764300  0.657700  0.176000  1
  C  C676  1  0.235700  0.342300  0.824000  1
  C  C677  1  0.837100  0.596100  0.173100  1
  C  C678  1  0.162900  0.403900  0.826900  1
  C  C679  1  0.842000  0.531500  0.151700  1
  C  C680  1  0.158000  0.468500  0.848300  1
  C  C681  1  0.780300  0.528900  0.135100  1
  C  C682  1  0.219700  0.471100  0.864900  1
  C  C683  1  0.708000  0.594900  0.139400  1
  C  C684  1  0.292000  0.405100  0.860600  1
  C  C685  1  0.751400  0.727500  0.196600  1
  C  C686  1  0.248600  0.272500  0.803400  1
  C  C687  1  0.806700  0.749700  0.210200  1
  C  C688  1  0.193300  0.250300  0.789800  1
  C  C689  1  0.764800  0.817700  0.229800  1
  C  C690  1  0.235200  0.182300  0.770200  1
  C  C691  1  0.623700  0.898200  0.245700  1
  C  C692  1  0.376300  0.101800  0.754300  1
  C  C693  1  0.402900  0.150600  0.224200  1
  C  C694  1  0.597100  0.849400  0.775800  1
  C  C695  1  0.382700  0.226700  0.209700  1
  C  C696  1  0.617300  0.773300  0.790300  1
  C  C697  1  0.315300  0.287400  0.225900  1
  C  C698  1  0.684700  0.712600  0.774100  1
  C  C699  1  0.266100  0.266800  0.255800  1
  C  C700  1  0.733900  0.733200  0.744200  1
  C  C701  1  0.283700  0.195400  0.268700  1
  C  C702  1  0.716300  0.804600  0.731300  1
  C  C703  1  0.352900  0.134600  0.255000  1
  C  C704  1  0.647100  0.865400  0.745000  1
  C  C705  1  0.475500  0.087900  0.205900  1
  C  C706  1  0.524500  0.912100  0.794100  1
  C  C707  1  0.514800  0.024000  0.231000  1
  C  C708  1  0.485200  0.976000  0.769000  1
  C  C709  1  0.582700  0.965700  0.215200  1
  C  C710  1  0.417300  0.034300  0.784800  1
  C  C711  1  0.610900  0.973400  0.172700  1
  C  C712  1  0.389100  0.026600  0.827300  1
  C  C713  1  0.570300  0.037300  0.146900  1
  C  C714  1  0.429700  0.962700  0.853100  1
  C  C715  1  0.502800  0.095800  0.163400  1
  C  C716  1  0.497200  0.904200  0.836600  1
  C  C717  1  0.490400  0.787800  0.949200  1
  C  C718  1  0.509600  0.212200  0.050800  1
  C  C719  1  0.761600  0.412300  0.558900  1
  C  C720  1  0.238400  0.587700  0.441100  1
  C  C721  1  0.798100  0.406000  0.386500  1
  C  C722  1  0.201900  0.594000  0.613500  1
  C  C723  1  0.393200  0.433500  0.548000  1
  C  C724  1  0.606800  0.566500  0.452000  1
  C  C725  1  0.551900  0.232400  0.550700  1
  C  C726  1  0.448100  0.767600  0.449300  1
  C  C727  1  0.322200  0.872800  0.328600  1
  C  C728  1  0.677800  0.127200  0.671400  1
  C  C729  1  0.100200  0.363400  0.028500  1
  C  C730  1  0.899800  0.636600  0.971500  1
  C  C731  1  0.159900  0.610600  0.133800  1
  C  C732  1  0.840100  0.389400  0.866200  1
  N  N733  1  0.816200  0.888900  0.538990  1
  N  N734  1  0.183800  0.111100  0.461010  1
  N  N735  1  0.811800  0.026000  0.434320  1
  N  N736  1  0.188200  0.974000  0.565680  1
  N  N737  1  0.818900  0.971200  0.464060  1
  N  N738  1  0.181100  0.028800  0.535940  1
  N  N739  1  0.158800  0.036500  0.077570  1
  N  N740  1  0.841200  0.963500  0.922430  1
  N  N741  1  0.205100  0.876400  0.173300  1
  N  N742  1  0.794900  0.123600  0.826700  1
  N  N743  1  0.179400  0.932900  0.144800  1
  N  N744  1  0.820600  0.067100  0.855200  1
  N  N745  1  0.907000  0.710600  0.496030  1
  N  N746  1  0.093000  0.289400  0.503970  1
  N  N747  1  0.796200  0.732800  0.456270  1
  N  N748  1  0.203800  0.267200  0.543730  1
  N  N749  1  0.787200  0.805200  0.446650  1
  N  N750  1  0.212800  0.194800  0.553350  1
  N  N751  1  0.349600  0.519500  0.296200  1
  N  N752  1  0.650400  0.480500  0.703800  1
  N  N753  1  0.502600  0.413000  0.389880  1
  N  N754  1  0.497400  0.587000  0.610120  1
  N  N755  1  0.455200  0.436300  0.355900  1
  N  N756  1  0.544800  0.563700  0.644100  1
  N  N757  1  0.000700  0.822800  0.499830  1
  N  N758  1  0.999300  0.177200  0.500170  1
  N  N759  1  0.048100  0.800700  0.427880  1
  N  N760  1  0.951900  0.199300  0.572120  1
  N  N761  1  0.973340  0.809700  0.416560  1
  N  N762  1  0.026660  0.190300  0.583440  1
  N  N763  1  0.511600  0.700400  0.142230  1
  N  N764  1  0.488400  0.299600  0.857770  1
  N  N765  1  0.534400  0.692200  0.271660  1
  N  N766  1  0.465600  0.307800  0.728340  1
  N  N767  1  0.532900  0.701900  0.227980  1
  N  N768  1  0.467100  0.298100  0.772020  1
  N  N769  1  0.030200  0.948100  0.092780  1
  N  N770  1  0.969800  0.051900  0.907220  1
  N  N771  1  0.923600  0.181500  0.063490  1
  N  N772  1  0.076400  0.818500  0.936510  1
  N  N773  1  0.965800  0.104200  0.077770  1
  N  N774  1  0.034200  0.895800  0.922230  1
  N  N775  1  0.337400  0.354900  0.329990  1
  N  N776  1  0.662600  0.645100  0.670010  1
  N  N777  1  0.555400  0.190900  0.305100  1
  N  N778  1  0.444600  0.809100  0.694900  1
  N  N779  1  0.488800  0.254300  0.313720  1
  N  N780  1  0.511200  0.745700  0.686280  1
  N  N781  1  0.072400  0.128100  0.166650  1
  N  N782  1  0.927600  0.871900  0.833350  1
  N  N783  1  0.927100  0.032300  0.211140  1
  N  N784  1  0.072900  0.967700  0.788860  1
  N  N785  1  0.981200  0.052900  0.192710  1
  N  N786  1  0.018800  0.947100  0.807290  1
  N  N787  1  0.476300  0.875300  0.179110  1
  N  N788  1  0.523700  0.124700  0.820890  1
  N  N789  1  0.605200  0.831700  0.065820  1
  N  N790  1  0.394800  0.168300  0.934180  1
  N  N791  1  0.569600  0.836000  0.105990  1
  N  N792  1  0.430400  0.164000  0.894010  1
  N  N793  1  0.529000  0.407400  0.255300  1
  N  N794  1  0.471000  0.592600  0.744700  1
  N  N795  1  0.356200  0.386600  0.192400  1
  N  N796  1  0.643800  0.613400  0.807600  1
  N  N797  1  0.408500  0.389900  0.218400  1
  N  N798  1  0.591500  0.610100  0.781600  1
  N  N799  1  0.701600  0.654500  0.158100  1
  N  N800  1  0.298400  0.345500  0.841900  1
  N  N801  1  0.688400  0.835600  0.226860  1
  N  N802  1  0.311600  0.164400  0.773140  1
  N  N803  1  0.679200  0.779600  0.206540  1
  N  N804  1  0.320800  0.220400  0.793460  1
  N  N805  1  0.450900  0.843800  0.980600  1
  N  N806  1  0.549100  0.156200  0.019400  1
  N  N807  1  0.803000  0.459600  0.550000  1
  N  N808  1  0.197000  0.540400  0.450000  1
  N  N809  1  0.811300  0.446000  0.421400  1
  N  N810  1  0.188700  0.554000  0.578600  1
  N  N811  1  0.391600  0.399900  0.592000  1
  N  N812  1  0.608400  0.600100  0.408000  1
  N  N813  1  0.600300  0.239600  0.584200  1
  N  N814  1  0.399700  0.760400  0.415800  1
  N  N815  1  0.290200  0.829700  0.304900  1
  N  N816  1  0.709800  0.170300  0.695100  1
  N  N817  1  0.092500  0.293200  0.045200  1
  N  N818  1  0.907500  0.706800  0.954800  1
  N  N819  1  0.219600  0.636100  0.144200  1
  N  N820  1  0.780400  0.363900  0.855800  1
  O  O821  1  0.445500  0.821400  0.019100  1
  O  O822  1  0.554500  0.178600  0.980900  1
  O  O823  1  0.422800  0.913100  0.970800  1
  O  O824  1  0.577200  0.086900  0.029200  1
  O  O825  1  0.873400  0.427700  0.552000  1
  O  O826  1  0.126600  0.572300  0.448000  1
  O  O827  1  0.762900  0.527700  0.540400  1
  O  O828  1  0.237100  0.472300  0.459600  1
  O  O829  1  0.859500  0.408500  0.448600  1
  O  O830  1  0.140500  0.591500  0.551400  1
  O  O831  1  0.774700  0.513600  0.424300  1
  O  O832  1  0.225300  0.486400  0.575700  1
  O  O833  1  0.397300  0.432800  0.623000  1
  O  O834  1  0.602700  0.567200  0.377000  1
  O  O835  1  0.384500  0.339200  0.595300  1
  O  O836  1  0.615500  0.660800  0.404700  1
  O  O837  1  0.569400  0.288000  0.610400  1
  O  O838  1  0.430600  0.712000  0.389600  1
  O  O839  1  0.671000  0.194100  0.583100  1
  O  O840  1  0.329000  0.805900  0.416900  1
  O  O841  1  0.235600  0.819000  0.324700  1
  O  O842  1  0.764400  0.181000  0.675300  1
  O  O843  1  0.316700  0.807100  0.269900  1
  O  O844  1  0.683300  0.192900  0.730100  1
  O  O845  1  0.079400  0.257700  0.017600  1
  O  O846  1  0.920600  0.742300  0.982400  1
  O  O847  1  0.098700  0.276400  0.083500  1
  O  O848  1  0.901300  0.723600  0.916500  1
  O  O849  1  0.211500  0.699600  0.130100  1
  O  O850  1  0.788500  0.300400  0.869900  1
  O  O851  1  0.273900  0.594000  0.166400  1
  O  O852  1  0.726100  0.406000  0.833600  1
  F  F853  1  0.663300  0.277500  0.482960  1
  F  F854  1  0.336700  0.722500  0.517040  1
  F  F855  1  0.683100  0.385100  0.472900  1
  F  F856  1  0.316900  0.614900  0.527100  1
  F  F857  1  0.571300  0.390900  0.506210  1
  F  F858  1  0.428700  0.609100  0.493790  1
  F  F859  1  0.682700  0.329000  0.541550  1
  F  F860  1  0.317300  0.671000  0.458450  1
  F  F861  1  0.852400  0.245800  0.338630  1
  F  F862  1  0.147600  0.754200  0.661370  1
  F  F863  1  0.787700  0.174300  0.327830  1
  F  F864  1  0.212300  0.825700  0.672170  1
  F  F865  1  0.723600  0.303800  0.322430  1
  F  F866  1  0.276400  0.696200  0.677570  1
  F  F867  1  0.759300  0.244800  0.387170  1
  F  F868  1  0.240700  0.755200  0.612830  1
  F  F869  1  0.838900  0.956200  0.300270  1
  F  F870  1  0.161100  0.043800  0.699730  1
  F  F871  1  0.753200  0.903500  0.315070  1
  F  F872  1  0.246800  0.096500  0.684930  1
  F  F873  1  0.724600  0.023200  0.337170  1
  F  F874  1  0.275400  0.976800  0.662830  1
  F  F875  1  0.724700  0.004400  0.265530  1
  F  F876  1  0.275300  0.995600  0.734470  1
  F  F877  1  0.561700  0.864000  0.347400  1
  F  F878  1  0.438300  0.136000  0.652600  1
  F  F879  1  0.444800  0.885600  0.379600  1
  F  F880  1  0.555200  0.114400  0.620400  1
  F  F881  1  0.453700  0.926300  0.309820  1
  F  F882  1  0.546300  0.073700  0.690180  1
  F  F883  1  0.479400  0.983500  0.364500  1
  F  F884  1  0.520600  0.016500  0.635500  1
  F  F885  1  0.083000  0.680100  0.230900  1
  F  F886  1  0.917000  0.319900  0.769100  1
  F  F887  1  0.042500  0.782600  0.183380  1
  F  F888  1  0.957500  0.217400  0.816620  1
  F  F889  1  0.957800  0.771100  0.235900  1
  F  F890  1  0.042200  0.228900  0.764100  1
  F  F891  1  0.056300  0.796100  0.254400  1
  F  F892  1  0.943700  0.203900  0.745600  1
  F  F893  1  0.277900  0.165300  0.110000  1
  F  F894  1  0.722100  0.834700  0.890000  1
  F  F895  1  0.376200  0.132400  0.060700  1
  F  F896  1  0.623800  0.867600  0.939300  1
  F  F897  1  0.266900  0.240500  0.048600  1
  F  F898  1  0.733100  0.759500  0.951400  1
  F  F899  1  0.346800  0.236700  0.100500  1
  F  F900  1  0.653200  0.763300  0.899500  1
  F  F901  1  0.561600  0.903500  0.348800  1
  F  F902  1  0.438400  0.096500  0.651200  1
  F  F903  1  0.469000  0.879300  0.387400  1
  F  F904  1  0.531000  0.120700  0.612600  1
  F  F905  1  0.471200  0.884900  0.313900  1
  F  F906  1  0.528800  0.115100  0.686100  1
  F  F907  1  0.438100  0.992600  0.350400  1
  F  F908  1  0.561900  0.007400  0.649600  1
  F  F909  1  0.391000  0.143800  0.071300  1
  F  F910  1  0.609000  0.856200  0.928700  1
  F  F911  1  0.274900  0.203000  0.040600  1
  F  F912  1  0.725100  0.797000  0.959400  1
  F  F913  1  0.308000  0.263300  0.091700  1
  F  F914  1  0.692000  0.736700  0.908300  1
