# generated using pymatgen
data_Zn4B8H171C189N45(O9F16)2
_symmetry_space_group_name_H-M   'P 1'
_cell_length_a   18.97600000
_cell_length_b   32.32700000
_cell_length_c   36.82900000
_cell_angle_alpha   90.00000000
_cell_angle_beta   90.00000000
_cell_angle_gamma   91.42000000
_symmetry_Int_Tables_number   1
_chemical_formula_structural   Zn4B8H171C189N45(O9F16)2
_chemical_formula_sum   'Zn16 B32 H684 C756 N180 O72 F128'
_cell_volume   22585.33879265
_cell_formula_units_Z   4
loop_
 _symmetry_equiv_pos_site_id
 _symmetry_equiv_pos_as_xyz
  1  'x, y, z'
loop_
 _atom_site_type_symbol
 _atom_site_label
 _atom_site_symmetry_multiplicity
 _atom_site_fract_x
 _atom_site_fract_y
 _atom_site_fract_z
 _atom_site_occupancy
  Zn  Zn1  1  0.130120  0.435040  0.099270  1
  Zn  Zn2  1  0.369880  0.064960  0.599270  1
  Zn  Zn3  1  0.869880  0.564960  0.900730  1
  Zn  Zn4  1  0.630120  0.935040  0.400730  1
  Zn  Zn5  1  0.501300  0.155620  0.103000  1
  Zn  Zn6  1  0.998700  0.344380  0.603000  1
  Zn  Zn7  1  0.498700  0.844380  0.897000  1
  Zn  Zn8  1  0.001300  0.655620  0.397000  1
  Zn  Zn9  1  0.367450  0.312960  0.819140  1
  Zn  Zn10  1  0.132550  0.187040  0.319140  1
  Zn  Zn11  1  0.632550  0.687040  0.180860  1
  Zn  Zn12  1  0.867450  0.812960  0.680860  1
  Zn  Zn13  1  0.909350  0.129810  0.975770  1
  Zn  Zn14  1  0.590650  0.370190  0.475770  1
  Zn  Zn15  1  0.090650  0.870190  0.024230  1
  Zn  Zn16  1  0.409350  0.629810  0.524230  1
  B  B17  1  0.222600  0.289600  0.014700  1
  B  B18  1  0.277400  0.210400  0.514700  1
  B  B19  1  0.777400  0.710400  0.985300  1
  B  B20  1  0.722600  0.789600  0.485300  1
  B  B21  1  0.399500  0.919300  0.096000  1
  B  B22  1  0.100500  0.580700  0.596000  1
  B  B23  1  0.600500  0.080700  0.904000  1
  B  B24  1  0.899500  0.419300  0.404000  1
  B  B25  1  0.932200  0.984900  0.835000  1
  B  B26  1  0.567800  0.515100  0.335000  1
  B  B27  1  0.067800  0.015100  0.165000  1
  B  B28  1  0.432200  0.484900  0.665000  1
  B  B29  1  0.964800  0.790500  0.894200  1
  B  B30  1  0.535200  0.709500  0.394200  1
  B  B31  1  0.035200  0.209500  0.105800  1
  B  B32  1  0.464800  0.290500  0.605800  1
  B  B33  1  0.642300  0.361200  0.973600  1
  B  B34  1  0.857700  0.138800  0.473600  1
  B  B35  1  0.357700  0.638800  0.026400  1
  B  B36  1  0.142300  0.861200  0.526400  1
  B  B37  1  0.098100  0.362000  0.904400  1
  B  B38  1  0.401900  0.138000  0.404400  1
  B  B39  1  0.901900  0.638000  0.095600  1
  B  B40  1  0.598100  0.862000  0.595600  1
  B  B41  1  0.290700  0.067600  0.830900  1
  B  B42  1  0.209300  0.432400  0.330900  1
  B  B43  1  0.709300  0.932400  0.169100  1
  B  B44  1  0.790700  0.567600  0.669100  1
  B  B45  1  0.278500  0.058100  0.825900  1
  B  B46  1  0.221500  0.441900  0.325900  1
  B  B47  1  0.721500  0.941900  0.174100  1
  B  B48  1  0.778500  0.558100  0.674100  1
  H  H49  1  0.864800  0.437200  0.094700  1
  H  H50  1  0.635200  0.062800  0.594700  1
  H  H51  1  0.135200  0.562800  0.905300  1
  H  H52  1  0.364800  0.937200  0.405300  1
  H  H53  1  0.850600  0.508600  0.089200  1
  H  H54  1  0.649400  0.991400  0.589200  1
  H  H55  1  0.149400  0.491400  0.910800  1
  H  H56  1  0.350600  0.008600  0.410800  1
  H  H57  1  0.949700  0.553000  0.085800  1
  H  H58  1  0.550300  0.947000  0.585800  1
  H  H59  1  0.050300  0.447000  0.914200  1
  H  H60  1  0.449700  0.053000  0.414200  1
  H  H61  1  0.062900  0.526000  0.088000  1
  H  H62  1  0.437100  0.974000  0.588000  1
  H  H63  1  0.937100  0.474000  0.912000  1
  H  H64  1  0.562900  0.026000  0.412000  1
  H  H65  1  0.890500  0.363600  0.102700  1
  H  H66  1  0.609500  0.136400  0.602700  1
  H  H67  1  0.109500  0.636400  0.897300  1
  H  H68  1  0.390500  0.863600  0.397300  1
  H  H69  1  0.966600  0.300200  0.103900  1
  H  H70  1  0.533400  0.199800  0.603900  1
  H  H71  1  0.033400  0.699800  0.896100  1
  H  H72  1  0.466600  0.800200  0.396100  1
  H  H73  1  0.152100  0.332400  0.085400  1
  H  H74  1  0.347900  0.167600  0.585400  1
  H  H75  1  0.847900  0.667600  0.914600  1
  H  H76  1  0.652100  0.832400  0.414600  1
  H  H77  1  0.104600  0.291100  0.088500  1
  H  H78  1  0.395400  0.208900  0.588500  1
  H  H79  1  0.895400  0.708900  0.911500  1
  H  H80  1  0.604600  0.791100  0.411500  1
  H  H81  1  0.732300  0.161600  0.172100  1
  H  H82  1  0.767700  0.338400  0.672100  1
  H  H83  1  0.267700  0.838400  0.827900  1
  H  H84  1  0.232300  0.661600  0.327900  1
  H  H85  1  0.759500  0.091400  0.170300  1
  H  H86  1  0.740500  0.408600  0.670300  1
  H  H87  1  0.240500  0.908600  0.829700  1
  H  H88  1  0.259500  0.591400  0.329700  1
  H  H89  1  0.685100  0.044400  0.139600  1
  H  H90  1  0.814900  0.455600  0.639600  1
  H  H91  1  0.314900  0.955600  0.860400  1
  H  H92  1  0.185100  0.544400  0.360400  1
  H  H93  1  0.583500  0.067500  0.110700  1
  H  H94  1  0.916500  0.432500  0.610700  1
  H  H95  1  0.416500  0.932500  0.889300  1
  H  H96  1  0.083500  0.567500  0.389300  1
  H  H97  1  0.700100  0.235100  0.168300  1
  H  H98  1  0.799900  0.264900  0.668300  1
  H  H99  1  0.299900  0.764900  0.831700  1
  H  H100  1  0.200100  0.735100  0.331700  1
  H  H101  1  0.616800  0.294200  0.158400  1
  H  H102  1  0.883200  0.205800  0.658400  1
  H  H103  1  0.383200  0.705800  0.841600  1
  H  H104  1  0.116800  0.794200  0.341600  1
  H  H105  1  0.463100  0.262500  0.105200  1
  H  H106  1  0.036900  0.237500  0.605200  1
  H  H107  1  0.536900  0.737500  0.894800  1
  H  H108  1  0.963100  0.762500  0.394800  1
  H  H109  1  0.488300  0.299800  0.131000  1
  H  H110  1  0.011700  0.200200  0.631000  1
  H  H111  1  0.511700  0.700200  0.869000  1
  H  H112  1  0.988300  0.799800  0.369000  1
  H  H113  1  0.230300  0.282500  0.119500  1
  H  H114  1  0.269700  0.217500  0.619500  1
  H  H115  1  0.769700  0.717500  0.880500  1
  H  H116  1  0.730300  0.782500  0.380500  1
  H  H117  1  0.063400  0.337900  0.165800  1
  H  H118  1  0.436600  0.162100  0.665800  1
  H  H119  1  0.936600  0.662100  0.834200  1
  H  H120  1  0.563400  0.837900  0.334200  1
  H  H121  1  0.111000  0.326200  0.223400  1
  H  H122  1  0.389000  0.173800  0.723400  1
  H  H123  1  0.889000  0.673800  0.776600  1
  H  H124  1  0.611000  0.826200  0.276600  1
  H  H125  1  0.218200  0.292600  0.229000  1
  H  H126  1  0.281800  0.207400  0.729000  1
  H  H127  1  0.781800  0.707400  0.771000  1
  H  H128  1  0.718200  0.792600  0.271000  1
  H  H129  1  0.348100  0.290800  0.133200  1
  H  H130  1  0.151900  0.209200  0.633200  1
  H  H131  1  0.651900  0.709200  0.866800  1
  H  H132  1  0.848100  0.790800  0.366800  1
  H  H133  1  0.483200  0.220000  0.189600  1
  H  H134  1  0.016800  0.280000  0.689600  1
  H  H135  1  0.516800  0.780000  0.810400  1
  H  H136  1  0.983200  0.720000  0.310400  1
  H  H137  1  0.394400  0.204500  0.231900  1
  H  H138  1  0.105600  0.295500  0.731900  1
  H  H139  1  0.605600  0.795500  0.768100  1
  H  H140  1  0.894400  0.704500  0.268100  1
  H  H141  1  0.282400  0.232200  0.224900  1
  H  H142  1  0.217600  0.267800  0.724900  1
  H  H143  1  0.717600  0.767800  0.775100  1
  H  H144  1  0.782400  0.732200  0.275100  1
  H  H145  1  0.220800  0.406800  0.225500  1
  H  H146  1  0.279200  0.093200  0.725500  1
  H  H147  1  0.779200  0.593200  0.774500  1
  H  H148  1  0.720800  0.906800  0.274500  1
  H  H149  1  0.128400  0.434700  0.258800  1
  H  H150  1  0.371600  0.065300  0.758800  1
  H  H151  1  0.871600  0.565300  0.741200  1
  H  H152  1  0.628400  0.934700  0.241200  1
  H  H153  1  0.032300  0.463000  0.228700  1
  H  H154  1  0.467700  0.037000  0.728700  1
  H  H155  1  0.967700  0.537000  0.771300  1
  H  H156  1  0.532300  0.963000  0.271300  1
  H  H157  1  0.028600  0.463400  0.165200  1
  H  H158  1  0.471400  0.036600  0.665200  1
  H  H159  1  0.971400  0.536600  0.834800  1
  H  H160  1  0.528600  0.963400  0.334800  1
  H  H161  1  0.319700  0.386600  0.186200  1
  H  H162  1  0.180300  0.113400  0.686200  1
  H  H163  1  0.680300  0.613400  0.813800  1
  H  H164  1  0.819700  0.886600  0.313800  1
  H  H165  1  0.375300  0.364500  0.126900  1
  H  H166  1  0.124700  0.135500  0.626900  1
  H  H167  1  0.624700  0.635500  0.873100  1
  H  H168  1  0.875300  0.864500  0.373100  1
  H  H169  1  0.244000  0.374100  0.052700  1
  H  H170  1  0.256000  0.125900  0.552700  1
  H  H171  1  0.756000  0.625900  0.947300  1
  H  H172  1  0.744000  0.874100  0.447300  1
  H  H173  1  0.319600  0.354700  0.059600  1
  H  H174  1  0.180400  0.145300  0.559600  1
  H  H175  1  0.680400  0.645300  0.940400  1
  H  H176  1  0.819600  0.854700  0.440400  1
  H  H177  1  0.355600  0.398100  0.702900  1
  H  H178  1  0.144400  0.101900  0.202900  1
  H  H179  1  0.644400  0.601900  0.297100  1
  H  H180  1  0.855600  0.898100  0.797100  1
  H  H181  1  0.382300  0.345700  0.661600  1
  H  H182  1  0.117700  0.154300  0.161600  1
  H  H183  1  0.617700  0.654300  0.338400  1
  H  H184  1  0.882300  0.845700  0.838400  1
  H  H185  1  0.403300  0.278800  0.682500  1
  H  H186  1  0.096700  0.221200  0.182500  1
  H  H187  1  0.596700  0.721200  0.317500  1
  H  H188  1  0.903300  0.778800  0.817500  1
  H  H189  1  0.397700  0.264300  0.744700  1
  H  H190  1  0.102300  0.235700  0.244700  1
  H  H191  1  0.602300  0.735700  0.255300  1
  H  H192  1  0.897700  0.764300  0.755300  1
  H  H193  1  0.337700  0.449900  0.749700  1
  H  H194  1  0.162300  0.050100  0.249700  1
  H  H195  1  0.662300  0.550100  0.250300  1
  H  H196  1  0.837700  0.949900  0.750300  1
  H  H197  1  0.298500  0.475100  0.811600  1
  H  H198  1  0.201500  0.024900  0.311600  1
  H  H199  1  0.701500  0.524900  0.188400  1
  H  H200  1  0.798500  0.975100  0.688400  1
  H  H201  1  0.277500  0.382200  0.871800  1
  H  H202  1  0.222500  0.117800  0.371800  1
  H  H203  1  0.722500  0.617800  0.128200  1
  H  H204  1  0.777500  0.882200  0.628200  1
  H  H205  1  0.252600  0.429100  0.870800  1
  H  H206  1  0.247400  0.070900  0.370800  1
  H  H207  1  0.747400  0.570900  0.129200  1
  H  H208  1  0.752600  0.929100  0.629200  1
  H  H209  1  0.325000  0.389400  0.996000  1
  H  H210  1  0.175000  0.110600  0.496000  1
  H  H211  1  0.675000  0.610600  0.004000  1
  H  H212  1  0.825000  0.889400  0.504000  1
  H  H213  1  0.340100  0.455700  0.089100  1
  H  H214  1  0.159900  0.044300  0.589100  1
  H  H215  1  0.659900  0.544300  0.910900  1
  H  H216  1  0.840100  0.955700  0.410900  1
  H  H217  1  0.400100  0.508900  0.058000  1
  H  H218  1  0.099900  0.991100  0.558000  1
  H  H219  1  0.599900  0.491100  0.942000  1
  H  H220  1  0.900100  0.008900  0.442000  1
  H  H221  1  0.422600  0.502300  0.995800  1
  H  H222  1  0.077400  0.997700  0.495800  1
  H  H223  1  0.577400  0.497700  0.004200  1
  H  H224  1  0.922600  0.002300  0.504200  1
  H  H225  1  0.296100  0.417400  0.937000  1
  H  H226  1  0.203900  0.082600  0.437000  1
  H  H227  1  0.703900  0.582600  0.063000  1
  H  H228  1  0.796100  0.917400  0.563000  1
  H  H229  1  0.428400  0.434400  0.851600  1
  H  H230  1  0.071600  0.065600  0.351600  1
  H  H231  1  0.571600  0.565600  0.148400  1
  H  H232  1  0.928400  0.934400  0.648400  1
  H  H233  1  0.516500  0.459300  0.891000  1
  H  H234  1  0.983500  0.040700  0.391000  1
  H  H235  1  0.483500  0.540700  0.109000  1
  H  H236  1  0.016500  0.959300  0.609000  1
  H  H237  1  0.494300  0.463200  0.953400  1
  H  H238  1  0.005700  0.036800  0.453400  1
  H  H239  1  0.505700  0.536800  0.046600  1
  H  H240  1  0.994300  0.963200  0.546600  1
  H  H241  1  0.260800  0.554200  0.039200  1
  H  H242  1  0.239200  0.945800  0.539200  1
  H  H243  1  0.739200  0.445800  0.960800  1
  H  H244  1  0.760800  0.054200  0.460800  1
  H  H245  1  0.279400  0.596000  0.090300  1
  H  H246  1  0.220600  0.904000  0.590300  1
  H  H247  1  0.720600  0.404000  0.909700  1
  H  H248  1  0.779400  0.096000  0.409700  1
  H  H249  1  0.239800  0.573500  0.147300  1
  H  H250  1  0.260200  0.926500  0.647300  1
  H  H251  1  0.760200  0.426500  0.852700  1
  H  H252  1  0.739800  0.073500  0.352700  1
  H  H253  1  0.181600  0.509200  0.153200  1
  H  H254  1  0.318400  0.990800  0.653200  1
  H  H255  1  0.818400  0.490800  0.846800  1
  H  H256  1  0.681600  0.009200  0.346800  1
  H  H257  1  0.228100  0.508900  0.987800  1
  H  H258  1  0.271900  0.991100  0.487800  1
  H  H259  1  0.771900  0.491100  0.012200  1
  H  H260  1  0.728100  0.008900  0.512200  1
  H  H261  1  0.180000  0.443500  0.957700  1
  H  H262  1  0.320000  0.056500  0.457700  1
  H  H263  1  0.820000  0.556500  0.042300  1
  H  H264  1  0.680000  0.943500  0.542300  1
  H  H265  1  0.126900  0.367900  0.026700  1
  H  H266  1  0.373100  0.132100  0.526700  1
  H  H267  1  0.873100  0.632100  0.973300  1
  H  H268  1  0.626900  0.867900  0.473300  1
  H  H269  1  0.129900  0.373200  0.983500  1
  H  H270  1  0.370100  0.126800  0.483500  1
  H  H271  1  0.870100  0.626800  0.016500  1
  H  H272  1  0.629900  0.873200  0.516500  1
  H  H273  1  0.685300  0.057200  0.021100  1
  H  H274  1  0.814700  0.442800  0.521100  1
  H  H275  1  0.314700  0.942800  0.978900  1
  H  H276  1  0.185300  0.557200  0.478900  1
  H  H277  1  0.679600  0.003400  0.978700  1
  H  H278  1  0.820400  0.496600  0.478700  1
  H  H279  1  0.320400  0.996600  0.021300  1
  H  H280  1  0.179600  0.503400  0.521300  1
  H  H281  1  0.767400  0.998200  0.934400  1
  H  H282  1  0.732600  0.501800  0.434400  1
  H  H283  1  0.232600  0.001800  0.065600  1
  H  H284  1  0.267400  0.498200  0.565600  1
  H  H285  1  0.860700  0.046800  0.932500  1
  H  H286  1  0.639300  0.453200  0.432500  1
  H  H287  1  0.139300  0.953200  0.067500  1
  H  H288  1  0.360700  0.546800  0.567500  1
  H  H289  1  0.701800  0.116500  0.064500  1
  H  H290  1  0.798200  0.383500  0.564500  1
  H  H291  1  0.298200  0.883500  0.935500  1
  H  H292  1  0.201800  0.616500  0.435500  1
  H  H293  1  0.757900  0.183100  0.088400  1
  H  H294  1  0.742100  0.316900  0.588400  1
  H  H295  1  0.242100  0.816900  0.911600  1
  H  H296  1  0.257900  0.683100  0.411600  1
  H  H297  1  0.924800  0.202000  0.037600  1
  H  H298  1  0.575200  0.298000  0.537600  1
  H  H299  1  0.075200  0.798000  0.962400  1
  H  H300  1  0.424800  0.702000  0.462400  1
  H  H301  1  0.883700  0.221000  0.071200  1
  H  H302  1  0.616300  0.279000  0.571200  1
  H  H303  1  0.116300  0.779000  0.928800  1
  H  H304  1  0.383700  0.721000  0.428800  1
  H  H305  1  0.014700  0.328000  0.005700  1
  H  H306  1  0.485300  0.172000  0.505700  1
  H  H307  1  0.985300  0.672000  0.994300  1
  H  H308  1  0.514700  0.828000  0.494300  1
  H  H309  1  0.030000  0.453200  0.004400  1
  H  H310  1  0.470000  0.046800  0.504400  1
  H  H311  1  0.970000  0.546800  0.995600  1
  H  H312  1  0.530000  0.953200  0.495600  1
  H  H313  1  0.907200  0.456600  0.000800  1
  H  H314  1  0.592800  0.043400  0.500800  1
  H  H315  1  0.092800  0.543400  0.999200  1
  H  H316  1  0.407200  0.956600  0.499200  1
  H  H317  1  0.838100  0.395600  0.999700  1
  H  H318  1  0.661900  0.104400  0.499700  1
  H  H319  1  0.161900  0.604400  0.000300  1
  H  H320  1  0.338100  0.895600  0.500300  1
  H  H321  1  0.939600  0.284000  0.036800  1
  H  H322  1  0.560400  0.216000  0.536800  1
  H  H323  1  0.060400  0.716000  0.963200  1
  H  H324  1  0.439600  0.784000  0.463200  1
  H  H325  1  0.766900  0.218700  0.002700  1
  H  H326  1  0.733100  0.281300  0.502700  1
  H  H327  1  0.233100  0.781300  0.997300  1
  H  H328  1  0.266900  0.718700  0.497300  1
  H  H329  1  0.732500  0.275300  0.968000  1
  H  H330  1  0.767500  0.224700  0.468000  1
  H  H331  1  0.267500  0.724700  0.032000  1
  H  H332  1  0.232500  0.775300  0.532000  1
  H  H333  1  0.801600  0.336300  0.967600  1
  H  H334  1  0.698400  0.163700  0.467600  1
  H  H335  1  0.198400  0.663700  0.032400  1
  H  H336  1  0.301600  0.836300  0.532400  1
  H  H337  1  0.277900  0.142100  0.174800  1
  H  H338  1  0.222100  0.357900  0.674800  1
  H  H339  1  0.722100  0.857900  0.825200  1
  H  H340  1  0.777900  0.642100  0.325200  1
  H  H341  1  0.319800  0.103300  0.223600  1
  H  H342  1  0.180200  0.396700  0.723600  1
  H  H343  1  0.680200  0.896700  0.776400  1
  H  H344  1  0.819800  0.603300  0.276400  1
  H  H345  1  0.437500  0.083500  0.224800  1
  H  H346  1  0.062500  0.416500  0.724800  1
  H  H347  1  0.562500  0.916500  0.775200  1
  H  H348  1  0.937500  0.583500  0.275200  1
  H  H349  1  0.513400  0.102400  0.177200  1
  H  H350  1  0.986600  0.397600  0.677200  1
  H  H351  1  0.486600  0.897600  0.822800  1
  H  H352  1  0.013400  0.602400  0.322800  1
  H  H353  1  0.238400  0.176500  0.119900  1
  H  H354  1  0.261600  0.323500  0.619900  1
  H  H355  1  0.761600  0.823500  0.880100  1
  H  H356  1  0.738400  0.676500  0.380100  1
  H  H357  1  0.256400  0.220100  0.063200  1
  H  H358  1  0.243600  0.279900  0.563200  1
  H  H359  1  0.743600  0.779900  0.936800  1
  H  H360  1  0.756400  0.720100  0.436800  1
  H  H361  1  0.443300  0.242000  0.049000  1
  H  H362  1  0.056700  0.258000  0.549000  1
  H  H363  1  0.556700  0.758000  0.951000  1
  H  H364  1  0.943300  0.742000  0.451000  1
  H  H365  1  0.367600  0.253600  0.033200  1
  H  H366  1  0.132400  0.246400  0.533200  1
  H  H367  1  0.632400  0.746400  0.966800  1
  H  H368  1  0.867600  0.753600  0.466800  1
  H  H369  1  0.198400  0.196900  0.791700  1
  H  H370  1  0.301600  0.303100  0.291700  1
  H  H371  1  0.801600  0.803100  0.208300  1
  H  H372  1  0.698400  0.696900  0.708300  1
  H  H373  1  0.095800  0.235500  0.788500  1
  H  H374  1  0.404200  0.264500  0.288500  1
  H  H375  1  0.904200  0.764500  0.211500  1
  H  H376  1  0.595800  0.735500  0.711500  1
  H  H377  1  0.100600  0.306400  0.801000  1
  H  H378  1  0.399400  0.193600  0.301000  1
  H  H379  1  0.899400  0.693600  0.199000  1
  H  H380  1  0.600600  0.806400  0.699000  1
  H  H381  1  0.207900  0.338900  0.816700  1
  H  H382  1  0.292100  0.161100  0.316700  1
  H  H383  1  0.792100  0.661100  0.183300  1
  H  H384  1  0.707900  0.838900  0.683300  1
  H  H385  1  0.308000  0.159100  0.797000  1
  H  H386  1  0.192000  0.340900  0.297000  1
  H  H387  1  0.692000  0.840900  0.203000  1
  H  H388  1  0.808000  0.659100  0.703000  1
  H  H389  1  0.441000  0.153700  0.800600  1
  H  H390  1  0.059000  0.346300  0.300600  1
  H  H391  1  0.559000  0.846300  0.199400  1
  H  H392  1  0.941000  0.653700  0.699400  1
  H  H393  1  0.529500  0.253300  0.799400  1
  H  H394  1  0.970500  0.246700  0.299400  1
  H  H395  1  0.470500  0.746700  0.200600  1
  H  H396  1  0.029500  0.753300  0.700600  1
  H  H397  1  0.545400  0.205200  0.805300  1
  H  H398  1  0.954600  0.294800  0.305300  1
  H  H399  1  0.454600  0.794800  0.194700  1
  H  H400  1  0.045400  0.705200  0.694700  1
  H  H401  1  0.468900  0.251100  0.982800  1
  H  H402  1  0.031100  0.248900  0.482800  1
  H  H403  1  0.531100  0.748900  0.017200  1
  H  H404  1  0.968900  0.751100  0.517200  1
  H  H405  1  0.358600  0.150500  0.019200  1
  H  H406  1  0.141400  0.349500  0.519200  1
  H  H407  1  0.641400  0.849500  0.980800  1
  H  H408  1  0.858600  0.650500  0.480800  1
  H  H409  1  0.381000  0.116200  0.964600  1
  H  H410  1  0.119000  0.383800  0.464600  1
  H  H411  1  0.619000  0.883800  0.035400  1
  H  H412  1  0.881000  0.616200  0.535400  1
  H  H413  1  0.447400  0.149300  0.919100  1
  H  H414  1  0.052600  0.350700  0.419100  1
  H  H415  1  0.552600  0.850700  0.080900  1
  H  H416  1  0.947400  0.649300  0.580900  1
  H  H417  1  0.450200  0.201500  0.875300  1
  H  H418  1  0.049800  0.298500  0.375300  1
  H  H419  1  0.549800  0.798500  0.124700  1
  H  H420  1  0.950200  0.701500  0.624700  1
  H  H421  1  0.617300  0.273600  0.844400  1
  H  H422  1  0.882700  0.226400  0.344400  1
  H  H423  1  0.382700  0.726400  0.155600  1
  H  H424  1  0.117300  0.773600  0.655600  1
  H  H425  1  0.646900  0.284800  0.905300  1
  H  H426  1  0.853100  0.215200  0.405300  1
  H  H427  1  0.353100  0.715200  0.094700  1
  H  H428  1  0.146900  0.784800  0.594700  1
  H  H429  1  0.578100  0.254300  0.951300  1
  H  H430  1  0.921900  0.245700  0.451300  1
  H  H431  1  0.421900  0.745700  0.048700  1
  H  H432  1  0.078100  0.754300  0.548700  1
  H  H433  1  0.596100  0.130500  0.977400  1
  H  H434  1  0.903900  0.369500  0.477400  1
  H  H435  1  0.403900  0.869500  0.022600  1
  H  H436  1  0.096100  0.630500  0.522600  1
  H  H437  1  0.651600  0.195200  0.968700  1
  H  H438  1  0.848400  0.304800  0.468700  1
  H  H439  1  0.348400  0.804800  0.031300  1
  H  H440  1  0.151600  0.695200  0.531300  1
  H  H441  1  0.644400  0.246200  0.013600  1
  H  H442  1  0.855600  0.253800  0.513600  1
  H  H443  1  0.355600  0.753800  0.986400  1
  H  H444  1  0.144400  0.746200  0.486400  1
  H  H445  1  0.581700  0.232500  0.067100  1
  H  H446  1  0.918300  0.267500  0.567100  1
  H  H447  1  0.418300  0.767500  0.932900  1
  H  H448  1  0.081700  0.732500  0.432900  1
  H  H449  1  0.535000  0.064600  0.990600  1
  H  H450  1  0.965000  0.435400  0.490600  1
  H  H451  1  0.465000  0.935400  0.009400  1
  H  H452  1  0.035000  0.564600  0.509400  1
  H  H453  1  0.464700  0.013000  0.028800  1
  H  H454  1  0.035300  0.487000  0.528800  1
  H  H455  1  0.535300  0.987000  0.971200  1
  H  H456  1  0.964700  0.513000  0.471200  1
  H  H457  1  0.440600  0.054500  0.120100  1
  H  H458  1  0.059400  0.445500  0.620100  1
  H  H459  1  0.559400  0.945500  0.879900  1
  H  H460  1  0.940600  0.554500  0.379900  1
  H  H461  1  0.421100  0.014300  0.096500  1
  H  H462  1  0.078900  0.485700  0.596500  1
  H  H463  1  0.578900  0.985700  0.903500  1
  H  H464  1  0.921100  0.514300  0.403500  1
  H  H465  1  0.867900  0.258800  0.903200  1
  H  H466  1  0.632100  0.241200  0.403200  1
  H  H467  1  0.132100  0.741200  0.096800  1
  H  H468  1  0.367900  0.758800  0.596800  1
  H  H469  1  0.755600  0.241700  0.880800  1
  H  H470  1  0.744400  0.258300  0.380800  1
  H  H471  1  0.244400  0.758300  0.119200  1
  H  H472  1  0.255600  0.741700  0.619200  1
  H  H473  1  0.703200  0.177200  0.894200  1
  H  H474  1  0.796800  0.322800  0.394200  1
  H  H475  1  0.296800  0.822800  0.105800  1
  H  H476  1  0.203200  0.677200  0.605800  1
  H  H477  1  0.763200  0.129800  0.930100  1
  H  H478  1  0.736800  0.370200  0.430100  1
  H  H479  1  0.236800  0.870200  0.069900  1
  H  H480  1  0.263200  0.629800  0.569900  1
  H  H481  1  0.988500  0.270400  0.926000  1
  H  H482  1  0.511500  0.229600  0.426000  1
  H  H483  1  0.011500  0.729600  0.074000  1
  H  H484  1  0.488500  0.770400  0.574000  1
  H  H485  1  0.092400  0.257400  0.967400  1
  H  H486  1  0.407600  0.242600  0.467400  1
  H  H487  1  0.907600  0.742600  0.032600  1
  H  H488  1  0.592400  0.757400  0.532600  1
  H  H489  1  0.037100  0.177700  0.031000  1
  H  H490  1  0.462900  0.322300  0.531000  1
  H  H491  1  0.962900  0.822300  0.969000  1
  H  H492  1  0.537100  0.677700  0.469000  1
  H  H493  1  0.097000  0.212600  0.025100  1
  H  H494  1  0.403000  0.287400  0.525100  1
  H  H495  1  0.903000  0.787400  0.974900  1
  H  H496  1  0.597000  0.712600  0.474900  1
  H  H497  1  0.340500  0.080500  0.043500  1
  H  H498  1  0.159500  0.419500  0.543500  1
  H  H499  1  0.659500  0.919500  0.956500  1
  H  H500  1  0.840500  0.580500  0.456500  1
  H  H501  1  0.321900  0.039300  0.147100  1
  H  H502  1  0.178100  0.460700  0.647100  1
  H  H503  1  0.678100  0.960700  0.852900  1
  H  H504  1  0.821900  0.539300  0.352900  1
  H  H505  1  0.204300  0.059400  0.148100  1
  H  H506  1  0.295700  0.440600  0.648100  1
  H  H507  1  0.795700  0.940600  0.851900  1
  H  H508  1  0.704300  0.559400  0.351900  1
  H  H509  1  0.154800  0.090000  0.096900  1
  H  H510  1  0.345200  0.410000  0.596900  1
  H  H511  1  0.845200  0.910000  0.903100  1
  H  H512  1  0.654800  0.590000  0.403100  1
  H  H513  1  0.144700  0.145400  0.060300  1
  H  H514  1  0.355300  0.354600  0.560300  1
  H  H515  1  0.855300  0.854600  0.939700  1
  H  H516  1  0.644700  0.645400  0.439700  1
  H  H517  1  0.125900  0.154400  0.951000  1
  H  H518  1  0.374100  0.345600  0.451000  1
  H  H519  1  0.874100  0.845600  0.049000  1
  H  H520  1  0.625900  0.654400  0.549000  1
  H  H521  1  0.211500  0.104200  0.943700  1
  H  H522  1  0.288500  0.395800  0.443700  1
  H  H523  1  0.788500  0.895800  0.056300  1
  H  H524  1  0.711500  0.604200  0.556300  1
  H  H525  1  0.263700  0.074600  0.994700  1
  H  H526  1  0.236300  0.425400  0.494700  1
  H  H527  1  0.736300  0.925400  0.005300  1
  H  H528  1  0.763700  0.574600  0.505300  1
  H  H529  1  0.564000  0.365400  0.898300  1
  H  H530  1  0.936000  0.134600  0.398300  1
  H  H531  1  0.436000  0.634600  0.101700  1
  H  H532  1  0.064000  0.865400  0.601700  1
  H  H533  1  0.644300  0.384000  0.852600  1
  H  H534  1  0.855700  0.116000  0.352600  1
  H  H535  1  0.355700  0.616000  0.147400  1
  H  H536  1  0.144300  0.884000  0.647400  1
  H  H537  1  0.615600  0.372100  0.791600  1
  H  H538  1  0.884400  0.127900  0.291600  1
  H  H539  1  0.384400  0.627900  0.208400  1
  H  H540  1  0.115600  0.872100  0.708400  1
  H  H541  1  0.506400  0.341700  0.776400  1
  H  H542  1  0.993600  0.158300  0.276400  1
  H  H543  1  0.493600  0.658300  0.223600  1
  H  H544  1  0.006400  0.841700  0.723600  1
  H  H545  1  0.479400  0.335000  0.943300  1
  H  H546  1  0.020600  0.165000  0.443300  1
  H  H547  1  0.520600  0.665000  0.056700  1
  H  H548  1  0.979400  0.835000  0.556700  1
  H  H549  1  0.357400  0.311900  0.964500  1
  H  H550  1  0.142600  0.188100  0.464500  1
  H  H551  1  0.642600  0.688100  0.035500  1
  H  H552  1  0.857400  0.811900  0.535500  1
  H  H553  1  0.236100  0.315600  0.889400  1
  H  H554  1  0.263900  0.184400  0.389400  1
  H  H555  1  0.763900  0.684400  0.110600  1
  H  H556  1  0.736100  0.815600  0.610600  1
  H  H557  1  0.238000  0.304400  0.931600  1
  H  H558  1  0.262000  0.195600  0.431600  1
  H  H559  1  0.762000  0.695600  0.068400  1
  H  H560  1  0.738000  0.804400  0.568400  1
  H  H561  1  0.089100  0.021700  0.007800  1
  H  H562  1  0.410900  0.478300  0.507800  1
  H  H563  1  0.910900  0.978300  0.992200  1
  H  H564  1  0.589100  0.521700  0.492200  1
  H  H565  1  0.080700  0.027300  0.071000  1
  H  H566  1  0.419300  0.472700  0.571000  1
  H  H567  1  0.919300  0.972700  0.929000  1
  H  H568  1  0.580700  0.527300  0.429000  1
  H  H569  1  0.005900  0.075700  0.096900  1
  H  H570  1  0.494100  0.424300  0.596900  1
  H  H571  1  0.994100  0.924300  0.903100  1
  H  H572  1  0.505900  0.575700  0.403100  1
  H  H573  1  0.939700  0.118500  0.059500  1
  H  H574  1  0.560300  0.381500  0.559500  1
  H  H575  1  0.060300  0.881500  0.940500  1
  H  H576  1  0.439700  0.618500  0.440500  1
  H  H577  1  0.088900  0.020700  0.941600  1
  H  H578  1  0.411100  0.479300  0.441600  1
  H  H579  1  0.911100  0.979300  0.058400  1
  H  H580  1  0.588900  0.520700  0.558400  1
  H  H581  1  0.046300  0.038000  0.878200  1
  H  H582  1  0.453700  0.462000  0.378200  1
  H  H583  1  0.953700  0.962000  0.121800  1
  H  H584  1  0.546300  0.538000  0.621800  1
  H  H585  1  0.895200  0.106800  0.885200  1
  H  H586  1  0.604800  0.393200  0.385200  1
  H  H587  1  0.104800  0.893200  0.114800  1
  H  H588  1  0.395200  0.606800  0.614800  1
  H  H589  1  0.942100  0.085900  0.854500  1
  H  H590  1  0.557900  0.414100  0.354500  1
  H  H591  1  0.057900  0.914100  0.145500  1
  H  H592  1  0.442100  0.585900  0.645500  1
  H  H593  1  0.138000  0.264900  0.890500  1
  H  H594  1  0.362000  0.235100  0.390500  1
  H  H595  1  0.862000  0.735100  0.109500  1
  H  H596  1  0.638000  0.764900  0.609500  1
  H  H597  1  0.338800  0.228000  0.904400  1
  H  H598  1  0.161200  0.272000  0.404400  1
  H  H599  1  0.661200  0.772000  0.095600  1
  H  H600  1  0.838800  0.728000  0.595600  1
  H  H601  1  0.303700  0.160000  0.890200  1
  H  H602  1  0.196300  0.340000  0.390200  1
  H  H603  1  0.696300  0.840000  0.109800  1
  H  H604  1  0.803700  0.660000  0.609800  1
  H  H605  1  0.185800  0.144500  0.876000  1
  H  H606  1  0.314200  0.355500  0.376000  1
  H  H607  1  0.814200  0.855500  0.124000  1
  H  H608  1  0.685800  0.644500  0.624000  1
  H  H609  1  0.074700  0.133800  0.889200  1
  H  H610  1  0.425300  0.366200  0.389200  1
  H  H611  1  0.925300  0.866200  0.110800  1
  H  H612  1  0.574700  0.633800  0.610800  1
  H  H613  1  0.889600  0.168100  0.845000  1
  H  H614  1  0.610400  0.331900  0.345000  1
  H  H615  1  0.110400  0.831900  0.155000  1
  H  H616  1  0.389600  0.668100  0.655000  1
  H  H617  1  0.936900  0.234600  0.834800  1
  H  H618  1  0.563100  0.265400  0.334800  1
  H  H619  1  0.063100  0.765400  0.165200  1
  H  H620  1  0.436900  0.734600  0.665200  1
  H  H621  1  0.053200  0.250700  0.851900  1
  H  H622  1  0.446800  0.249300  0.351900  1
  H  H623  1  0.946800  0.749300  0.148100  1
  H  H624  1  0.553200  0.750700  0.648100  1
  H  H625  1  0.573400  0.380200  0.048300  1
  H  H626  1  0.926600  0.119800  0.548300  1
  H  H627  1  0.426600  0.619800  0.951700  1
  H  H628  1  0.073400  0.880200  0.451700  1
  H  H629  1  0.496000  0.396000  0.039500  1
  H  H630  1  0.004000  0.104000  0.539500  1
  H  H631  1  0.504000  0.604000  0.960500  1
  H  H632  1  0.996000  0.896000  0.460500  1
  H  H633  1  0.537400  0.369400  0.010100  1
  H  H634  1  0.962600  0.130600  0.510100  1
  H  H635  1  0.462600  0.630600  0.989900  1
  H  H636  1  0.037400  0.869400  0.489900  1
  H  H637  1  0.595600  0.965100  0.116300  1
  H  H638  1  0.904400  0.534900  0.616300  1
  H  H639  1  0.404400  0.034900  0.883700  1
  H  H640  1  0.095600  0.465100  0.383700  1
  H  H641  1  0.641700  0.930400  0.097400  1
  H  H642  1  0.858300  0.569600  0.597400  1
  H  H643  1  0.358300  0.069600  0.902600  1
  H  H644  1  0.141700  0.430400  0.402600  1
  H  H645  1  0.559900  0.934000  0.087600  1
  H  H646  1  0.940100  0.566000  0.587600  1
  H  H647  1  0.440100  0.066000  0.912400  1
  H  H648  1  0.059900  0.434000  0.412400  1
  H  H649  1  0.099100  0.907000  0.898400  1
  H  H650  1  0.400900  0.593000  0.398400  1
  H  H651  1  0.900900  0.093000  0.101600  1
  H  H652  1  0.599100  0.407000  0.601600  1
  H  H653  1  0.180800  0.898000  0.904500  1
  H  H654  1  0.319200  0.602000  0.404500  1
  H  H655  1  0.819200  0.102000  0.095500  1
  H  H656  1  0.680800  0.398000  0.595500  1
  H  H657  1  0.152500  0.908800  0.864800  1
  H  H658  1  0.347500  0.591200  0.364800  1
  H  H659  1  0.847500  0.091200  0.135200  1
  H  H660  1  0.652500  0.408800  0.635200  1
  H  H661  1  0.114000  0.699500  0.818100  1
  H  H662  1  0.386000  0.800500  0.318100  1
  H  H663  1  0.886000  0.300500  0.181900  1
  H  H664  1  0.614000  0.199500  0.681900  1
  H  H665  1  0.121100  0.741200  0.794700  1
  H  H666  1  0.378900  0.758800  0.294700  1
  H  H667  1  0.878900  0.258800  0.205300  1
  H  H668  1  0.621100  0.241200  0.705300  1
  H  H669  1  0.054600  0.733700  0.820800  1
  H  H670  1  0.445400  0.766300  0.320800  1
  H  H671  1  0.945400  0.266300  0.179200  1
  H  H672  1  0.554600  0.233700  0.679200  1
  H  H673  1  0.245400  0.637000  0.776400  1
  H  H674  1  0.254600  0.863000  0.276400  1
  H  H675  1  0.754600  0.363000  0.223600  1
  H  H676  1  0.745400  0.137000  0.723600  1
  H  H677  1  0.283300  0.597200  0.792500  1
  H  H678  1  0.216700  0.902800  0.292500  1
  H  H679  1  0.716700  0.402800  0.207500  1
  H  H680  1  0.783300  0.097200  0.707500  1
  H  H681  1  0.325300  0.640700  0.790100  1
  H  H682  1  0.174700  0.859300  0.290100  1
  H  H683  1  0.674700  0.359300  0.209900  1
  H  H684  1  0.825300  0.140700  0.709900  1
  H  H685  1  0.538400  0.046800  0.803400  1
  H  H686  1  0.961600  0.453200  0.303400  1
  H  H687  1  0.461600  0.953200  0.196600  1
  H  H688  1  0.038400  0.546800  0.696600  1
  H  H689  1  0.487400  0.056800  0.836700  1
  H  H690  1  0.012600  0.443200  0.336700  1
  H  H691  1  0.512600  0.943200  0.163300  1
  H  H692  1  0.987400  0.556800  0.663300  1
  H  H693  1  0.457900  0.057900  0.796000  1
  H  H694  1  0.042100  0.442100  0.296000  1
  H  H695  1  0.542100  0.942100  0.204000  1
  H  H696  1  0.957900  0.557900  0.704000  1
  H  H697  1  0.172900  0.434200  0.852000  1
  H  H698  1  0.327100  0.065800  0.352000  1
  H  H699  1  0.827100  0.565800  0.148000  1
  H  H700  1  0.672900  0.934200  0.648000  1
  H  H701  1  0.102700  0.460600  0.851600  1
  H  H702  1  0.397300  0.039400  0.351600  1
  H  H703  1  0.897300  0.539400  0.148400  1
  H  H704  1  0.602700  0.960600  0.648400  1
  H  H705  1  0.162100  0.468600  0.821300  1
  H  H706  1  0.337900  0.031400  0.321300  1
  H  H707  1  0.837900  0.531400  0.178700  1
  H  H708  1  0.662100  0.968600  0.678700  1
  H  H709  1  0.134700  0.100900  0.818500  1
  H  H710  1  0.365300  0.399100  0.318500  1
  H  H711  1  0.865300  0.899100  0.181500  1
  H  H712  1  0.634700  0.600900  0.681500  1
  H  H713  1  0.076800  0.069800  0.801300  1
  H  H714  1  0.423200  0.430200  0.301300  1
  H  H715  1  0.923200  0.930200  0.198700  1
  H  H716  1  0.576800  0.569800  0.698700  1
  H  H717  1  0.062600  0.118400  0.802900  1
  H  H718  1  0.437400  0.381600  0.302900  1
  H  H719  1  0.937400  0.881600  0.197100  1
  H  H720  1  0.562600  0.618400  0.697100  1
  H  H721  1  0.324200  0.672700  0.920700  1
  H  H722  1  0.175800  0.827300  0.420700  1
  H  H723  1  0.675800  0.327300  0.079300  1
  H  H724  1  0.824200  0.172700  0.579300  1
  H  H725  1  0.248700  0.649600  0.922700  1
  H  H726  1  0.251300  0.850400  0.422700  1
  H  H727  1  0.751300  0.350400  0.077300  1
  H  H728  1  0.748700  0.149600  0.577300  1
  H  H729  1  0.275900  0.677400  0.956000  1
  H  H730  1  0.224100  0.822600  0.456000  1
  H  H731  1  0.724100  0.322600  0.044000  1
  H  H732  1  0.775900  0.177400  0.544000  1
  C  C733  1  0.972200  0.439200  0.094700  1
  C  C734  1  0.527800  0.060800  0.594700  1
  C  C735  1  0.027800  0.560800  0.905300  1
  C  C736  1  0.472200  0.939200  0.405300  1
  C  C737  1  0.905000  0.455200  0.093400  1
  C  C738  1  0.595000  0.044800  0.593400  1
  C  C739  1  0.095000  0.544800  0.906600  1
  C  C740  1  0.405000  0.955200  0.406600  1
  C  C741  1  0.896600  0.497600  0.090100  1
  C  C742  1  0.603400  0.002400  0.590100  1
  C  C743  1  0.103400  0.502400  0.909900  1
  C  C744  1  0.396600  0.997600  0.409900  1
  C  C745  1  0.955400  0.524000  0.088100  1
  C  C746  1  0.544600  0.976000  0.588100  1
  C  C747  1  0.044600  0.476000  0.911900  1
  C  C748  1  0.455400  0.024000  0.411900  1
  C  C749  1  0.022700  0.508000  0.089400  1
  C  C750  1  0.477300  0.992000  0.589400  1
  C  C751  1  0.977300  0.492000  0.910600  1
  C  C752  1  0.522700  0.008000  0.410600  1
  C  C753  1  0.985600  0.399000  0.097100  1
  C  C754  1  0.514400  0.101000  0.597100  1
  C  C755  1  0.014400  0.601000  0.902900  1
  C  C756  1  0.485600  0.899000  0.402900  1
  C  C757  1  0.940400  0.363500  0.100900  1
  C  C758  1  0.559600  0.136500  0.600900  1
  C  C759  1  0.059600  0.636500  0.899100  1
  C  C760  1  0.440400  0.863500  0.399100  1
  C  C761  1  0.983000  0.328100  0.101600  1
  C  C762  1  0.517000  0.171900  0.601600  1
  C  C763  1  0.017000  0.671900  0.898400  1
  C  C764  1  0.483000  0.828100  0.398400  1
  C  C765  1  0.114700  0.318300  0.099900  1
  C  C766  1  0.385300  0.181700  0.599900  1
  C  C767  1  0.885300  0.681700  0.900100  1
  C  C768  1  0.614700  0.818300  0.400100  1
  C  C769  1  0.641800  0.156200  0.142500  1
  C  C770  1  0.858200  0.343800  0.642500  1
  C  C771  1  0.358200  0.843800  0.857500  1
  C  C772  1  0.141800  0.656200  0.357500  1
  C  C773  1  0.702100  0.142500  0.159700  1
  C  C774  1  0.797900  0.357500  0.659700  1
  C  C775  1  0.297900  0.857500  0.840300  1
  C  C776  1  0.202100  0.642500  0.340300  1
  C  C777  1  0.718200  0.100800  0.158600  1
  C  C778  1  0.781800  0.399200  0.658600  1
  C  C779  1  0.281800  0.899200  0.841400  1
  C  C780  1  0.218200  0.600800  0.341400  1
  C  C781  1  0.674100  0.072900  0.140300  1
  C  C782  1  0.825900  0.427100  0.640300  1
  C  C783  1  0.325900  0.927100  0.859700  1
  C  C784  1  0.174100  0.572900  0.359700  1
  C  C785  1  0.613700  0.086600  0.123200  1
  C  C786  1  0.886300  0.413400  0.623200  1
  C  C787  1  0.386300  0.913400  0.876800  1
  C  C788  1  0.113700  0.586600  0.376800  1
  C  C789  1  0.620500  0.196000  0.145200  1
  C  C790  1  0.879500  0.304000  0.645200  1
  C  C791  1  0.379500  0.804000  0.854800  1
  C  C792  1  0.120500  0.696000  0.354800  1
  C  C793  1  0.654300  0.232900  0.157900  1
  C  C794  1  0.845700  0.267100  0.657900  1
  C  C795  1  0.345700  0.767100  0.842100  1
  C  C796  1  0.154300  0.732900  0.342100  1
  C  C797  1  0.607700  0.266000  0.152400  1
  C  C798  1  0.892300  0.234000  0.652400  1
  C  C799  1  0.392300  0.734000  0.847600  1
  C  C800  1  0.107700  0.766000  0.347600  1
  C  C801  1  0.480200  0.269500  0.129900  1
  C  C802  1  0.019800  0.230500  0.629900  1
  C  C803  1  0.519800  0.730500  0.870100  1
  C  C804  1  0.980200  0.769500  0.370100  1
  C  C805  1  0.234400  0.284400  0.174800  1
  C  C806  1  0.265600  0.215600  0.674800  1
  C  C807  1  0.765600  0.715600  0.825200  1
  C  C808  1  0.734400  0.784400  0.325200  1
  C  C809  1  0.206100  0.291400  0.140620  1
  C  C810  1  0.293900  0.208600  0.640620  1
  C  C811  1  0.793900  0.708600  0.859380  1
  C  C812  1  0.706100  0.791400  0.359380  1
  C  C813  1  0.142400  0.311300  0.137250  1
  C  C814  1  0.357600  0.188700  0.637250  1
  C  C815  1  0.857600  0.688700  0.862750  1
  C  C816  1  0.642400  0.811300  0.362750  1
  C  C817  1  0.106900  0.324300  0.168100  1
  C  C818  1  0.393100  0.175700  0.668100  1
  C  C819  1  0.893100  0.675700  0.831900  1
  C  C820  1  0.606900  0.824300  0.331900  1
  C  C821  1  0.135200  0.317300  0.202300  1
  C  C822  1  0.364800  0.182700  0.702300  1
  C  C823  1  0.864800  0.682700  0.797700  1
  C  C824  1  0.635200  0.817300  0.297700  1
  C  C825  1  0.198900  0.297400  0.205670  1
  C  C826  1  0.301100  0.202600  0.705670  1
  C  C827  1  0.801100  0.702600  0.794330  1
  C  C828  1  0.698900  0.797400  0.294330  1
  C  C829  1  0.304700  0.264100  0.178400  1
  C  C830  1  0.195300  0.235900  0.678400  1
  C  C831  1  0.695300  0.735900  0.821600  1
  C  C832  1  0.804700  0.764100  0.321600  1
  C  C833  1  0.357500  0.273300  0.153240  1
  C  C834  1  0.142500  0.226700  0.653240  1
  C  C835  1  0.642500  0.726700  0.846760  1
  C  C836  1  0.857500  0.773300  0.346760  1
  C  C837  1  0.424000  0.256900  0.157450  1
  C  C838  1  0.076000  0.243100  0.657450  1
  C  C839  1  0.576000  0.743100  0.842550  1
  C  C840  1  0.924000  0.756900  0.342550  1
  C  C841  1  0.437800  0.231200  0.186800  1
  C  C842  1  0.062200  0.268800  0.686800  1
  C  C843  1  0.562200  0.768800  0.813200  1
  C  C844  1  0.937800  0.731200  0.313200  1
  C  C845  1  0.385000  0.222000  0.211900  1
  C  C846  1  0.115000  0.278000  0.711900  1
  C  C847  1  0.615000  0.778000  0.788100  1
  C  C848  1  0.885000  0.722000  0.288100  1
  C  C849  1  0.318500  0.238500  0.207700  1
  C  C850  1  0.181500  0.261500  0.707700  1
  C  C851  1  0.681500  0.761500  0.792300  1
  C  C852  1  0.818500  0.738500  0.292300  1
  C  C853  1  0.179600  0.418600  0.175500  1
  C  C854  1  0.320400  0.081400  0.675500  1
  C  C855  1  0.820400  0.581400  0.824500  1
  C  C856  1  0.679600  0.918600  0.324500  1
  C  C857  1  0.181800  0.418300  0.213200  1
  C  C858  1  0.318200  0.081700  0.713200  1
  C  C859  1  0.818200  0.581700  0.786800  1
  C  C860  1  0.681800  0.918300  0.286800  1
  C  C861  1  0.126900  0.434900  0.233030  1
  C  C862  1  0.373100  0.065100  0.733030  1
  C  C863  1  0.873100  0.565100  0.766970  1
  C  C864  1  0.626900  0.934900  0.266970  1
  C  C865  1  0.069800  0.451700  0.215100  1
  C  C866  1  0.430200  0.048300  0.715100  1
  C  C867  1  0.930200  0.548300  0.784900  1
  C  C868  1  0.569800  0.951700  0.284900  1
  C  C869  1  0.067700  0.451900  0.177400  1
  C  C870  1  0.432300  0.048100  0.677400  1
  C  C871  1  0.932300  0.548100  0.822600  1
  C  C872  1  0.567700  0.951900  0.322600  1
  C  C873  1  0.232100  0.405100  0.154800  1
  C  C874  1  0.267900  0.094900  0.654800  1
  C  C875  1  0.767900  0.594900  0.845200  1
  C  C876  1  0.732100  0.905100  0.345200  1
  C  C877  1  0.299200  0.388800  0.162780  1
  C  C878  1  0.200800  0.111200  0.662780  1
  C  C879  1  0.700800  0.611200  0.837220  1
  C  C880  1  0.799200  0.888800  0.337220  1
  C  C881  1  0.330400  0.376500  0.129600  1
  C  C882  1  0.169600  0.123500  0.629600  1
  C  C883  1  0.669600  0.623500  0.870400  1
  C  C884  1  0.830400  0.876500  0.370400  1
  C  C885  1  0.290800  0.379300  0.063900  1
  C  C886  1  0.209200  0.120700  0.563900  1
  C  C887  1  0.709200  0.620700  0.936100  1
  C  C888  1  0.790800  0.879300  0.436100  1
  C  C889  1  0.360800  0.362300  0.748320  1
  C  C890  1  0.139200  0.137700  0.248320  1
  C  C891  1  0.639200  0.637700  0.251680  1
  C  C892  1  0.860800  0.862300  0.751680  1
  C  C893  1  0.364100  0.370900  0.711400  1
  C  C894  1  0.135900  0.129100  0.211400  1
  C  C895  1  0.635900  0.629100  0.288600  1
  C  C896  1  0.864100  0.870900  0.788600  1
  C  C897  1  0.380000  0.339800  0.686860  1
  C  C898  1  0.120000  0.160200  0.186860  1
  C  C899  1  0.620000  0.660200  0.313140  1
  C  C900  1  0.880000  0.839800  0.813140  1
  C  C901  1  0.392500  0.300100  0.699290  1
  C  C902  1  0.107500  0.199900  0.199290  1
  C  C903  1  0.607500  0.699900  0.300710  1
  C  C904  1  0.892500  0.800100  0.800710  1
  C  C905  1  0.389100  0.291400  0.736230  1
  C  C906  1  0.110900  0.208600  0.236230  1
  C  C907  1  0.610900  0.708600  0.263770  1
  C  C908  1  0.889100  0.791400  0.763770  1
  C  C909  1  0.344600  0.390400  0.773650  1
  C  C910  1  0.155400  0.109600  0.273650  1
  C  C911  1  0.655400  0.609600  0.226350  1
  C  C912  1  0.844600  0.890400  0.726350  1
  C  C913  1  0.332200  0.433400  0.770950  1
  C  C914  1  0.167800  0.066600  0.270950  1
  C  C915  1  0.667800  0.566600  0.229050  1
  C  C916  1  0.832200  0.933400  0.729050  1
  C  C917  1  0.310300  0.447500  0.805600  1
  C  C918  1  0.189700  0.052500  0.305600  1
  C  C919  1  0.689700  0.552500  0.194400  1
  C  C920  1  0.810300  0.947500  0.694400  1
  C  C921  1  0.292700  0.410900  0.865900  1
  C  C922  1  0.207300  0.089100  0.365900  1
  C  C923  1  0.707300  0.589100  0.134100  1
  C  C924  1  0.792700  0.910900  0.634100  1
  C  C925  1  0.375900  0.445200  0.990030  1
  C  C926  1  0.124100  0.054800  0.490030  1
  C  C927  1  0.624100  0.554800  0.009970  1
  C  C928  1  0.875900  0.945200  0.509970  1
  C  C929  1  0.340200  0.413600  0.008600  1
  C  C930  1  0.159800  0.086400  0.508600  1
  C  C931  1  0.659800  0.586400  0.991400  1
  C  C932  1  0.840200  0.913600  0.491400  1
  C  C933  1  0.326900  0.417500  0.045500  1
  C  C934  1  0.173100  0.082500  0.545500  1
  C  C935  1  0.673100  0.582500  0.954500  1
  C  C936  1  0.826900  0.917500  0.454500  1
  C  C937  1  0.349200  0.453000  0.063900  1
  C  C938  1  0.150800  0.047000  0.563900  1
  C  C939  1  0.650800  0.547000  0.936100  1
  C  C940  1  0.849200  0.953000  0.436100  1
  C  C941  1  0.384900  0.484600  0.045400  1
  C  C942  1  0.115100  0.015400  0.545400  1
  C  C943  1  0.615100  0.515400  0.954600  1
  C  C944  1  0.884900  0.984600  0.454600  1
  C  C945  1  0.398200  0.480700  0.008400  1
  C  C946  1  0.101800  0.019300  0.508400  1
  C  C947  1  0.601800  0.519300  0.991600  1
  C  C948  1  0.898200  0.980700  0.491600  1
  C  C949  1  0.393200  0.440600  0.951080  1
  C  C950  1  0.106800  0.059400  0.451080  1
  C  C951  1  0.606800  0.559400  0.048920  1
  C  C952  1  0.893200  0.940600  0.548920  1
  C  C953  1  0.340900  0.425900  0.927700  1
  C  C954  1  0.159100  0.074100  0.427700  1
  C  C955  1  0.659100  0.574100  0.072300  1
  C  C956  1  0.840900  0.925900  0.572300  1
  C  C957  1  0.354000  0.423600  0.890600  1
  C  C958  1  0.146000  0.076400  0.390600  1
  C  C959  1  0.646000  0.576400  0.109400  1
  C  C960  1  0.854000  0.923600  0.609400  1
  C  C961  1  0.419400  0.436000  0.876950  1
  C  C962  1  0.080600  0.064000  0.376950  1
  C  C963  1  0.580600  0.564000  0.123050  1
  C  C964  1  0.919400  0.936000  0.623050  1
  C  C965  1  0.471700  0.450800  0.900400  1
  C  C966  1  0.028300  0.049200  0.400400  1
  C  C967  1  0.528300  0.549200  0.099600  1
  C  C968  1  0.971700  0.950800  0.599600  1
  C  C969  1  0.458600  0.453100  0.937420  1
  C  C970  1  0.041400  0.046900  0.437420  1
  C  C971  1  0.541400  0.546900  0.062580  1
  C  C972  1  0.958600  0.953100  0.562580  1
  C  C973  1  0.210100  0.506800  0.065830  1
  C  C974  1  0.289900  0.993200  0.565830  1
  C  C975  1  0.789900  0.493200  0.934170  1
  C  C976  1  0.710100  0.006800  0.434170  1
  C  C977  1  0.244700  0.545100  0.062330  1
  C  C978  1  0.255300  0.954900  0.562330  1
  C  C979  1  0.755300  0.454900  0.937670  1
  C  C980  1  0.744700  0.045100  0.437670  1
  C  C981  1  0.255700  0.569900  0.092700  1
  C  C982  1  0.244300  0.930100  0.592700  1
  C  C983  1  0.744300  0.430100  0.907300  1
  C  C984  1  0.755700  0.069900  0.407300  1
  C  C985  1  0.232200  0.556600  0.126570  1
  C  C986  1  0.267800  0.943400  0.626570  1
  C  C987  1  0.767800  0.443400  0.873430  1
  C  C988  1  0.732200  0.056600  0.373430  1
  C  C989  1  0.197600  0.518300  0.130070  1
  C  C990  1  0.302400  0.981700  0.630070  1
  C  C991  1  0.802400  0.481700  0.869930  1
  C  C992  1  0.697600  0.018300  0.369930  1
  C  C993  1  0.192800  0.482800  0.037700  1
  C  C994  1  0.307200  0.017200  0.537700  1
  C  C995  1  0.807200  0.517200  0.962300  1
  C  C996  1  0.692800  0.982800  0.462300  1
  C  C997  1  0.205500  0.486100  0.999800  1
  C  C998  1  0.294500  0.013900  0.499800  1
  C  C999  1  0.794500  0.513900  0.000200  1
  C  C1000  1  0.705500  0.986100  0.500200  1
  C  C1001  1  0.178600  0.449500  0.982960  1
  C  C1002  1  0.321400  0.050500  0.482960  1
  C  C1003  1  0.821400  0.550500  0.017040  1
  C  C1004  1  0.678600  0.949500  0.517040  1
  C  C1005  1  0.114200  0.386300  0.006300  1
  C  C1006  1  0.385800  0.113700  0.506300  1
  C  C1007  1  0.885800  0.613700  0.993700  1
  C  C1008  1  0.614200  0.886300  0.493700  1
  C  C1009  1  0.776400  0.084000  0.002000  1
  C  C1010  1  0.723600  0.416000  0.502000  1
  C  C1011  1  0.223600  0.916000  0.998000  1
  C  C1012  1  0.276400  0.584000  0.498000  1
  C  C1013  1  0.720900  0.055100  0.003100  1
  C  C1014  1  0.779100  0.444900  0.503100  1
  C  C1015  1  0.279100  0.944900  0.996900  1
  C  C1016  1  0.220900  0.555100  0.496900  1
  C  C1017  1  0.717600  0.023100  0.977900  1
  C  C1018  1  0.782400  0.476900  0.477900  1
  C  C1019  1  0.282400  0.976900  0.022100  1
  C  C1020  1  0.217600  0.523100  0.522100  1
  C  C1021  1  0.769700  0.020000  0.951600  1
  C  C1022  1  0.730300  0.480000  0.451600  1
  C  C1023  1  0.230300  0.980000  0.048400  1
  C  C1024  1  0.269700  0.520000  0.548400  1
  C  C1025  1  0.825100  0.048900  0.950500  1
  C  C1026  1  0.674900  0.451100  0.450500  1
  C  C1027  1  0.174900  0.951100  0.049500  1
  C  C1028  1  0.325100  0.548900  0.549500  1
  C  C1029  1  0.782900  0.117000  0.024800  1
  C  C1030  1  0.717100  0.383000  0.524800  1
  C  C1031  1  0.217100  0.883000  0.975200  1
  C  C1032  1  0.282900  0.617000  0.475200  1
  C  C1033  1  0.742600  0.130200  0.054900  1
  C  C1034  1  0.757400  0.369800  0.554900  1
  C  C1035  1  0.257400  0.869800  0.945100  1
  C  C1036  1  0.242600  0.630200  0.445100  1
  C  C1037  1  0.774000  0.167500  0.068300  1
  C  C1038  1  0.726000  0.332500  0.568300  1
  C  C1039  1  0.226000  0.832500  0.931700  1
  C  C1040  1  0.274000  0.667500  0.431700  1
  C  C1041  1  0.878000  0.210900  0.046000  1
  C  C1042  1  0.622000  0.289100  0.546000  1
  C  C1043  1  0.122000  0.789100  0.954000  1
  C  C1044  1  0.378000  0.710900  0.454000  1
  C  C1045  1  0.919900  0.356100  0.002600  1
  C  C1046  1  0.580100  0.143900  0.502600  1
  C  C1047  1  0.080100  0.643900  0.997400  1
  C  C1048  1  0.419900  0.856100  0.497400  1
  C  C1049  1  0.992800  0.354100  0.004700  1
  C  C1050  1  0.507200  0.145900  0.504700  1
  C  C1051  1  0.007200  0.645900  0.995300  1
  C  C1052  1  0.492800  0.854100  0.495300  1
  C  C1053  1  0.033900  0.390300  0.005400  1
  C  C1054  1  0.466100  0.109700  0.505400  1
  C  C1055  1  0.966100  0.609700  0.994600  1
  C  C1056  1  0.533900  0.890300  0.494600  1
  C  C1057  1  0.002000  0.428500  0.003900  1
  C  C1058  1  0.498000  0.071500  0.503900  1
  C  C1059  1  0.998000  0.571500  0.996100  1
  C  C1060  1  0.502000  0.928500  0.496100  1
  C  C1061  1  0.929000  0.430500  0.001800  1
  C  C1062  1  0.571000  0.069500  0.501800  1
  C  C1063  1  0.071000  0.569500  0.998200  1
  C  C1064  1  0.429000  0.930500  0.498200  1
  C  C1065  1  0.887900  0.394300  0.001100  1
  C  C1066  1  0.612100  0.105700  0.501100  1
  C  C1067  1  0.112100  0.605700  0.998900  1
  C  C1068  1  0.387900  0.894300  0.498900  1
  C  C1069  1  0.877100  0.315800  0.002200  1
  C  C1070  1  0.622900  0.184200  0.502200  1
  C  C1071  1  0.122900  0.684200  0.997800  1
  C  C1072  1  0.377100  0.815800  0.497800  1
  C  C1073  1  0.897600  0.282200  0.022800  1
  C  C1074  1  0.602400  0.217800  0.522800  1
  C  C1075  1  0.102400  0.717800  0.977200  1
  C  C1076  1  0.397600  0.782200  0.477200  1
  C  C1077  1  0.856500  0.246000  0.023000  1
  C  C1078  1  0.643500  0.254000  0.523000  1
  C  C1079  1  0.143500  0.754000  0.977000  1
  C  C1080  1  0.356500  0.746000  0.477000  1
  C  C1081  1  0.795000  0.243500  0.002600  1
  C  C1082  1  0.705000  0.256500  0.502600  1
  C  C1083  1  0.205000  0.756500  0.997400  1
  C  C1084  1  0.295000  0.743500  0.497400  1
  C  C1085  1  0.774500  0.277100  0.982000  1
  C  C1086  1  0.725500  0.222900  0.482000  1
  C  C1087  1  0.225500  0.722900  0.018000  1
  C  C1088  1  0.274500  0.777100  0.518000  1
  C  C1089  1  0.815600  0.313300  0.981800  1
  C  C1090  1  0.684400  0.186700  0.481800  1
  C  C1091  1  0.184400  0.686700  0.018200  1
  C  C1092  1  0.315600  0.813300  0.518200  1
  C  C1093  1  0.370800  0.145300  0.147080  1
  C  C1094  1  0.129200  0.354700  0.647080  1
  C  C1095  1  0.629200  0.854700  0.852920  1
  C  C1096  1  0.870800  0.645300  0.352920  1
  C  C1097  1  0.325700  0.134000  0.175300  1
  C  C1098  1  0.174300  0.366000  0.675300  1
  C  C1099  1  0.674300  0.866000  0.824700  1
  C  C1100  1  0.825700  0.634000  0.324700  1
  C  C1101  1  0.350600  0.111000  0.204290  1
  C  C1102  1  0.149400  0.389000  0.704290  1
  C  C1103  1  0.649400  0.889000  0.795710  1
  C  C1104  1  0.850600  0.611000  0.295710  1
  C  C1105  1  0.420500  0.099200  0.205000  1
  C  C1106  1  0.079500  0.400800  0.705000  1
  C  C1107  1  0.579500  0.900800  0.795000  1
  C  C1108  1  0.920500  0.599200  0.295000  1
  C  C1109  1  0.465600  0.110500  0.176800  1
  C  C1110  1  0.034400  0.389500  0.676800  1
  C  C1111  1  0.534400  0.889500  0.823200  1
  C  C1112  1  0.965600  0.610500  0.323200  1
  C  C1113  1  0.348700  0.167100  0.118750  1
  C  C1114  1  0.151300  0.332900  0.618750  1
  C  C1115  1  0.651300  0.832900  0.881250  1
  C  C1116  1  0.848700  0.667100  0.381250  1
  C  C1117  1  0.282100  0.181900  0.108000  1
  C  C1118  1  0.217900  0.318100  0.608000  1
  C  C1119  1  0.717900  0.818100  0.892000  1
  C  C1120  1  0.782100  0.681900  0.392000  1
  C  C1121  1  0.292200  0.206300  0.076200  1
  C  C1122  1  0.207800  0.293700  0.576200  1
  C  C1123  1  0.707800  0.793700  0.923800  1
  C  C1124  1  0.792200  0.706300  0.423800  1
  C  C1125  1  0.398000  0.230300  0.039800  1
  C  C1126  1  0.102000  0.269700  0.539800  1
  C  C1127  1  0.602000  0.769700  0.960200  1
  C  C1128  1  0.898000  0.730300  0.460200  1
  C  C1129  1  0.264100  0.245000  0.806100  1
  C  C1130  1  0.235900  0.255000  0.306100  1
  C  C1131  1  0.735900  0.755000  0.193900  1
  C  C1132  1  0.764100  0.745000  0.693900  1
  C  C1133  1  0.200300  0.225700  0.796800  1
  C  C1134  1  0.299700  0.274300  0.296800  1
  C  C1135  1  0.799700  0.774300  0.203200  1
  C  C1136  1  0.700300  0.725700  0.703200  1
  C  C1137  1  0.139400  0.248600  0.794900  1
  C  C1138  1  0.360600  0.251400  0.294900  1
  C  C1139  1  0.860600  0.751400  0.205100  1
  C  C1140  1  0.639400  0.748600  0.705100  1
  C  C1141  1  0.142200  0.290800  0.802300  1
  C  C1142  1  0.357800  0.209200  0.302300  1
  C  C1143  1  0.857800  0.709200  0.197700  1
  C  C1144  1  0.642200  0.790800  0.697700  1
  C  C1145  1  0.206000  0.310100  0.811600  1
  C  C1146  1  0.294000  0.189900  0.311600  1
  C  C1147  1  0.794000  0.689900  0.188400  1
  C  C1148  1  0.706000  0.810100  0.688400  1
  C  C1149  1  0.323600  0.223300  0.806800  1
  C  C1150  1  0.176400  0.276700  0.306800  1
  C  C1151  1  0.676400  0.776700  0.193200  1
  C  C1152  1  0.823600  0.723300  0.693200  1
  C  C1153  1  0.340700  0.181300  0.801300  1
  C  C1154  1  0.159300  0.318700  0.301300  1
  C  C1155  1  0.659300  0.818700  0.198700  1
  C  C1156  1  0.840700  0.681300  0.698700  1
  C  C1157  1  0.415100  0.178300  0.803300  1
  C  C1158  1  0.084900  0.321700  0.303300  1
  C  C1159  1  0.584900  0.821700  0.196700  1
  C  C1160  1  0.915100  0.678300  0.696700  1
  C  C1161  1  0.516900  0.228400  0.813900  1
  C  C1162  1  0.983100  0.271600  0.313900  1
  C  C1163  1  0.483100  0.771600  0.186100  1
  C  C1164  1  0.016900  0.728400  0.686100  1
  C  C1165  1  0.464400  0.203400  0.946700  1
  C  C1166  1  0.035600  0.296600  0.446700  1
  C  C1167  1  0.535600  0.796600  0.053300  1
  C  C1168  1  0.964400  0.703400  0.553300  1
  C  C1169  1  0.451100  0.223700  0.979100  1
  C  C1170  1  0.048900  0.276300  0.479100  1
  C  C1171  1  0.548900  0.776300  0.020900  1
  C  C1172  1  0.951100  0.723700  0.520900  1
  C  C1173  1  0.411600  0.204100  0.006130  1
  C  C1174  1  0.088400  0.295900  0.506130  1
  C  C1175  1  0.588400  0.795900  0.993870  1
  C  C1176  1  0.911600  0.704100  0.493870  1
  C  C1177  1  0.385500  0.164000  0.000730  1
  C  C1178  1  0.114500  0.336000  0.500730  1
  C  C1179  1  0.614500  0.836000  0.999270  1
  C  C1180  1  0.885500  0.664000  0.499270  1
  C  C1181  1  0.398900  0.143600  0.968300  1
  C  C1182  1  0.101100  0.356400  0.468300  1
  C  C1183  1  0.601100  0.856400  0.031700  1
  C  C1184  1  0.898900  0.643600  0.531700  1
  C  C1185  1  0.438300  0.163300  0.941300  1
  C  C1186  1  0.061700  0.336700  0.441300  1
  C  C1187  1  0.561700  0.836700  0.058700  1
  C  C1188  1  0.938300  0.663300  0.558700  1
  C  C1189  1  0.507700  0.225000  0.917590  1
  C  C1190  1  0.992300  0.275000  0.417590  1
  C  C1191  1  0.492300  0.775000  0.082410  1
  C  C1192  1  0.007700  0.725000  0.582410  1
  C  C1193  1  0.490100  0.218400  0.881400  1
  C  C1194  1  0.009900  0.281600  0.381400  1
  C  C1195  1  0.509900  0.781600  0.118600  1
  C  C1196  1  0.990100  0.718400  0.618600  1
  C  C1197  1  0.531000  0.236500  0.854080  1
  C  C1198  1  0.969000  0.263500  0.354080  1
  C  C1199  1  0.469000  0.763500  0.145920  1
  C  C1200  1  0.031000  0.736500  0.645920  1
  C  C1201  1  0.589400  0.261200  0.863010  1
  C  C1202  1  0.910600  0.238800  0.363010  1
  C  C1203  1  0.410600  0.738800  0.136990  1
  C  C1204  1  0.089400  0.761200  0.636990  1
  C  C1205  1  0.607000  0.267900  0.899200  1
  C  C1206  1  0.893000  0.232100  0.399200  1
  C  C1207  1  0.393000  0.732100  0.100800  1
  C  C1208  1  0.107000  0.767900  0.600800  1
  C  C1209  1  0.566100  0.249800  0.926510  1
  C  C1210  1  0.933900  0.250200  0.426510  1
  C  C1211  1  0.433900  0.750200  0.073490  1
  C  C1212  1  0.066100  0.749800  0.573490  1
  C  C1213  1  0.555900  0.143100  0.027400  1
  C  C1214  1  0.944100  0.356900  0.527400  1
  C  C1215  1  0.444100  0.856900  0.972600  1
  C  C1216  1  0.055900  0.643100  0.472600  1
  C  C1217  1  0.593200  0.151200  0.995640  1
  C  C1218  1  0.906800  0.348800  0.495640  1
  C  C1219  1  0.406800  0.848800  0.004360  1
  C  C1220  1  0.093200  0.651200  0.504360  1
  C  C1221  1  0.626100  0.189700  0.990460  1
  C  C1222  1  0.873900  0.310300  0.490460  1
  C  C1223  1  0.373900  0.810300  0.009540  1
  C  C1224  1  0.126100  0.689700  0.509540  1
  C  C1225  1  0.621800  0.220000  0.017100  1
  C  C1226  1  0.878200  0.280000  0.517100  1
  C  C1227  1  0.378200  0.780000  0.982900  1
  C  C1228  1  0.121800  0.720000  0.482900  1
  C  C1229  1  0.584600  0.211800  0.048910  1
  C  C1230  1  0.915400  0.288200  0.548910  1
  C  C1231  1  0.415400  0.788200  0.951090  1
  C  C1232  1  0.084600  0.711800  0.451090  1
  C  C1233  1  0.523200  0.107000  0.034000  1
  C  C1234  1  0.976800  0.393000  0.534000  1
  C  C1235  1  0.476800  0.893000  0.966000  1
  C  C1236  1  0.023200  0.607000  0.466000  1
  C  C1237  1  0.516500  0.069500  0.014070  1
  C  C1238  1  0.983500  0.430500  0.514070  1
  C  C1239  1  0.483500  0.930500  0.985930  1
  C  C1240  1  0.016500  0.569500  0.485930  1
  C  C1241  1  0.477100  0.040700  0.035500  1
  C  C1242  1  0.022900  0.459300  0.535500  1
  C  C1243  1  0.522900  0.959300  0.964500  1
  C  C1244  1  0.977100  0.540700  0.464500  1
  C  C1245  1  0.419600  0.044900  0.096900  1
  C  C1246  1  0.080400  0.455100  0.596900  1
  C  C1247  1  0.580400  0.955100  0.903100  1
  C  C1248  1  0.919600  0.544900  0.403100  1
  C  C1249  1  0.882300  0.204500  0.930000  1
  C  C1250  1  0.617700  0.295500  0.430000  1
  C  C1251  1  0.117700  0.795500  0.070000  1
  C  C1252  1  0.382300  0.704500  0.570000  1
  C  C1253  1  0.846700  0.232600  0.908700  1
  C  C1254  1  0.653300  0.267400  0.408700  1
  C  C1255  1  0.153300  0.767400  0.091300  1
  C  C1256  1  0.346700  0.732600  0.591300  1
  C  C1257  1  0.779900  0.222500  0.895400  1
  C  C1258  1  0.720100  0.277500  0.395400  1
  C  C1259  1  0.220100  0.777500  0.104600  1
  C  C1260  1  0.279900  0.722500  0.604600  1
  C  C1261  1  0.748800  0.184200  0.903400  1
  C  C1262  1  0.751200  0.315800  0.403400  1
  C  C1263  1  0.251200  0.815800  0.096600  1
  C  C1264  1  0.248800  0.684200  0.596600  1
  C  C1265  1  0.784500  0.156000  0.924700  1
  C  C1266  1  0.715500  0.344000  0.424700  1
  C  C1267  1  0.215500  0.844000  0.075300  1
  C  C1268  1  0.284500  0.656000  0.575300  1
  C  C1269  1  0.944300  0.213800  0.945700  1
  C  C1270  1  0.555700  0.286200  0.445700  1
  C  C1271  1  0.055700  0.786200  0.054300  1
  C  C1272  1  0.444300  0.713800  0.554300  1
  C  C1273  1  0.993600  0.247200  0.941500  1
  C  C1274  1  0.506400  0.252800  0.441500  1
  C  C1275  1  0.006400  0.752800  0.058500  1
  C  C1276  1  0.493600  0.747200  0.558500  1
  C  C1277  1  0.051700  0.239900  0.964800  1
  C  C1278  1  0.448300  0.260100  0.464800  1
  C  C1279  1  0.948300  0.760100  0.035200  1
  C  C1280  1  0.551700  0.739900  0.535200  1
  C  C1281  1  0.072500  0.188600  0.013500  1
  C  C1282  1  0.427500  0.311400  0.513500  1
  C  C1283  1  0.927500  0.811400  0.986500  1
  C  C1284  1  0.572500  0.688600  0.486500  1
  C  C1285  1  0.243000  0.088100  0.065380  1
  C  C1286  1  0.257000  0.411900  0.565380  1
  C  C1287  1  0.757000  0.911900  0.934620  1
  C  C1288  1  0.743000  0.588100  0.434620  1
  C  C1289  1  0.312900  0.076200  0.064780  1
  C  C1290  1  0.187100  0.423800  0.564780  1
  C  C1291  1  0.687100  0.923800  0.935220  1
  C  C1292  1  0.812900  0.576200  0.435220  1
  C  C1293  1  0.342300  0.058000  0.095200  1
  C  C1294  1  0.157700  0.442000  0.595200  1
  C  C1295  1  0.657700  0.942000  0.904800  1
  C  C1296  1  0.842300  0.558000  0.404800  1
  C  C1297  1  0.301800  0.051700  0.126300  1
  C  C1298  1  0.198200  0.448300  0.626300  1
  C  C1299  1  0.698200  0.948300  0.873700  1
  C  C1300  1  0.801800  0.551700  0.373700  1
  C  C1301  1  0.232000  0.063700  0.126910  1
  C  C1302  1  0.268000  0.436300  0.626910  1
  C  C1303  1  0.768000  0.936300  0.873090  1
  C  C1304  1  0.732000  0.563700  0.373090  1
  C  C1305  1  0.202600  0.081900  0.096500  1
  C  C1306  1  0.297400  0.418100  0.596500  1
  C  C1307  1  0.797400  0.918100  0.903500  1
  C  C1308  1  0.702600  0.581900  0.403500  1
  C  C1309  1  0.209100  0.107200  0.032320  1
  C  C1310  1  0.290900  0.392800  0.532320  1
  C  C1311  1  0.790900  0.892800  0.967680  1
  C  C1312  1  0.709100  0.607200  0.467680  1
  C  C1313  1  0.158200  0.137000  0.036650  1
  C  C1314  1  0.341800  0.363000  0.536650  1
  C  C1315  1  0.841800  0.863000  0.963350  1
  C  C1316  1  0.658200  0.637000  0.463350  1
  C  C1317  1  0.127200  0.154600  0.006300  1
  C  C1318  1  0.372800  0.345400  0.506300  1
  C  C1319  1  0.872800  0.845400  0.993700  1
  C  C1320  1  0.627200  0.654600  0.493700  1
  C  C1321  1  0.147100  0.142400  0.971710  1
  C  C1322  1  0.352900  0.357600  0.471710  1
  C  C1323  1  0.852900  0.857600  0.028290  1
  C  C1324  1  0.647100  0.642400  0.528290  1
  C  C1325  1  0.197900  0.112600  0.967390  1
  C  C1326  1  0.302100  0.387400  0.467390  1
  C  C1327  1  0.802100  0.887400  0.032610  1
  C  C1328  1  0.697900  0.612600  0.532610  1
  C  C1329  1  0.228900  0.095000  0.997690  1
  C  C1330  1  0.271100  0.405000  0.497690  1
  C  C1331  1  0.771100  0.905000  0.002310  1
  C  C1332  1  0.728900  0.595000  0.502310  1
  C  C1333  1  0.487400  0.342500  0.864490  1
  C  C1334  1  0.012600  0.157500  0.364490  1
  C  C1335  1  0.512600  0.657500  0.135510  1
  C  C1336  1  0.987400  0.842500  0.635510  1
  C  C1337  1  0.552300  0.360500  0.873560  1
  C  C1338  1  0.947700  0.139500  0.373560  1
  C  C1339  1  0.447700  0.639500  0.126440  1
  C  C1340  1  0.052300  0.860500  0.626440  1
  C  C1341  1  0.600000  0.371600  0.846410  1
  C  C1342  1  0.900000  0.128400  0.346410  1
  C  C1343  1  0.400000  0.628400  0.153590  1
  C  C1344  1  0.100000  0.871600  0.653590  1
  C  C1345  1  0.582900  0.364600  0.810200  1
  C  C1346  1  0.917100  0.135400  0.310200  1
  C  C1347  1  0.417100  0.635400  0.189800  1
  C  C1348  1  0.082900  0.864600  0.689800  1
  C  C1349  1  0.518100  0.346500  0.801130  1
  C  C1350  1  0.981900  0.153500  0.301130  1
  C  C1351  1  0.481900  0.653500  0.198870  1
  C  C1352  1  0.018100  0.846500  0.698870  1
  C  C1353  1  0.440200  0.328900  0.889580  1
  C  C1354  1  0.059800  0.171100  0.389580  1
  C  C1355  1  0.559800  0.671100  0.110420  1
  C  C1356  1  0.940200  0.828900  0.610420  1
  C  C1357  1  0.440400  0.328100  0.928130  1
  C  C1358  1  0.059600  0.171900  0.428130  1
  C  C1359  1  0.559600  0.671900  0.071870  1
  C  C1360  1  0.940400  0.828100  0.571870  1
  C  C1361  1  0.372100  0.315200  0.939960  1
  C  C1362  1  0.127900  0.184800  0.439960  1
  C  C1363  1  0.627900  0.684800  0.060040  1
  C  C1364  1  0.872100  0.815200  0.560040  1
  C  C1365  1  0.258900  0.297900  0.907700  1
  C  C1366  1  0.241100  0.202100  0.407700  1
  C  C1367  1  0.741100  0.702100  0.092300  1
  C  C1368  1  0.758900  0.797900  0.592300  1
  C  C1369  1  0.019400  0.066800  0.996130  1
  C  C1370  1  0.480600  0.433200  0.496130  1
  C  C1371  1  0.980600  0.933200  0.003870  1
  C  C1372  1  0.519400  0.566800  0.503870  1
  C  C1373  1  0.058800  0.041400  0.018320  1
  C  C1374  1  0.441200  0.458600  0.518320  1
  C  C1375  1  0.941200  0.958600  0.981680  1
  C  C1376  1  0.558800  0.541400  0.481680  1
  C  C1377  1  0.053800  0.044700  0.055850  1
  C  C1378  1  0.446200  0.455300  0.555850  1
  C  C1379  1  0.946200  0.955300  0.944150  1
  C  C1380  1  0.553800  0.544700  0.444150  1
  C  C1381  1  0.009400  0.073400  0.071200  1
  C  C1382  1  0.490600  0.426600  0.571200  1
  C  C1383  1  0.990600  0.926600  0.928800  1
  C  C1384  1  0.509400  0.573400  0.428800  1
  C  C1385  1  0.970000  0.098900  0.049010  1
  C  C1386  1  0.530000  0.401100  0.549010  1
  C  C1387  1  0.030000  0.901100  0.950990  1
  C  C1388  1  0.470000  0.598900  0.450990  1
  C  C1389  1  0.018800  0.066000  0.960640  1
  C  C1390  1  0.481200  0.434000  0.460640  1
  C  C1391  1  0.981200  0.934000  0.039360  1
  C  C1392  1  0.518800  0.566000  0.539360  1
  C  C1393  1  0.054800  0.040600  0.935600  1
  C  C1394  1  0.445200  0.459400  0.435600  1
  C  C1395  1  0.945200  0.959400  0.064400  1
  C  C1396  1  0.554800  0.540600  0.564400  1
  C  C1397  1  0.031000  0.050300  0.900150  1
  C  C1398  1  0.469000  0.449700  0.400150  1
  C  C1399  1  0.969000  0.949700  0.099850  1
  C  C1400  1  0.531000  0.550300  0.599850  1
  C  C1401  1  0.944100  0.102800  0.876900  1
  C  C1402  1  0.555900  0.397200  0.376900  1
  C  C1403  1  0.055900  0.897200  0.123100  1
  C  C1404  1  0.444100  0.602800  0.623100  1
  C  C1405  1  0.150800  0.203200  0.881900  1
  C  C1406  1  0.349200  0.296800  0.381900  1
  C  C1407  1  0.849200  0.796800  0.118100  1
  C  C1408  1  0.650800  0.703200  0.618100  1
  C  C1409  1  0.171700  0.243600  0.890400  1
  C  C1410  1  0.328300  0.256400  0.390400  1
  C  C1411  1  0.828300  0.756400  0.109600  1
  C  C1412  1  0.671700  0.743600  0.609600  1
  C  C1413  1  0.241700  0.252800  0.898800  1
  C  C1414  1  0.258300  0.247200  0.398800  1
  C  C1415  1  0.758300  0.747200  0.101200  1
  C  C1416  1  0.741700  0.752800  0.601200  1
  C  C1417  1  0.290900  0.221700  0.898700  1
  C  C1418  1  0.209100  0.278300  0.398700  1
  C  C1419  1  0.709100  0.778300  0.101300  1
  C  C1420  1  0.790900  0.721700  0.601300  1
  C  C1421  1  0.270100  0.181300  0.890200  1
  C  C1422  1  0.229900  0.318700  0.390200  1
  C  C1423  1  0.729900  0.818700  0.109800  1
  C  C1424  1  0.770100  0.681300  0.609800  1
  C  C1425  1  0.200000  0.172100  0.881800  1
  C  C1426  1  0.300000  0.327900  0.381800  1
  C  C1427  1  0.800000  0.827900  0.118200  1
  C  C1428  1  0.700000  0.672100  0.618200  1
  C  C1429  1  0.074900  0.193700  0.872200  1
  C  C1430  1  0.425100  0.306300  0.372200  1
  C  C1431  1  0.925100  0.806300  0.127800  1
  C  C1432  1  0.574900  0.693700  0.627800  1
  C  C1433  1  0.046700  0.154200  0.878200  1
  C  C1434  1  0.453300  0.345800  0.378200  1
  C  C1435  1  0.953300  0.845800  0.121800  1
  C  C1436  1  0.546700  0.654200  0.621800  1
  C  C1437  1  0.977700  0.144700  0.868100  1
  C  C1438  1  0.522300  0.355300  0.368100  1
  C  C1439  1  0.022300  0.855300  0.131900  1
  C  C1440  1  0.477700  0.644700  0.631900  1
  C  C1441  1  0.936800  0.174600  0.851900  1
  C  C1442  1  0.563200  0.325400  0.351900  1
  C  C1443  1  0.063200  0.825400  0.148100  1
  C  C1444  1  0.436800  0.674600  0.648100  1
  C  C1445  1  0.964900  0.214200  0.845900  1
  C  C1446  1  0.535100  0.285800  0.345900  1
  C  C1447  1  0.035100  0.785800  0.154100  1
  C  C1448  1  0.464900  0.714200  0.654100  1
  C  C1449  1  0.034000  0.223700  0.856000  1
  C  C1450  1  0.466000  0.276300  0.356000  1
  C  C1451  1  0.966000  0.776300  0.144000  1
  C  C1452  1  0.534000  0.723700  0.644000  1
  C  C1453  1  0.528800  0.373300  0.036100  1
  C  C1454  1  0.971200  0.126700  0.536100  1
  C  C1455  1  0.471200  0.626700  0.963900  1
  C  C1456  1  0.028800  0.873300  0.463900  1
  C  C1457  1  0.603100  0.949600  0.093900  1
  C  C1458  1  0.896900  0.550400  0.593900  1
  C  C1459  1  0.396900  0.050400  0.906100  1
  C  C1460  1  0.103100  0.449600  0.406100  1
  C  C1461  1  0.147300  0.914400  0.890700  1
  C  C1462  1  0.352700  0.585600  0.390700  1
  C  C1463  1  0.852700  0.085600  0.109300  1
  C  C1464  1  0.647300  0.414400  0.609300  1
  C  C1465  1  0.105200  0.729300  0.817800  1
  C  C1466  1  0.394800  0.770700  0.317800  1
  C  C1467  1  0.894800  0.270700  0.182200  1
  C  C1468  1  0.605200  0.229300  0.682200  1
  C  C1469  1  0.279200  0.627300  0.794500  1
  C  C1470  1  0.220800  0.872700  0.294500  1
  C  C1471  1  0.720800  0.372700  0.205500  1
  C  C1472  1  0.779200  0.127300  0.705500  1
  C  C1473  1  0.490100  0.044000  0.812600  1
  C  C1474  1  0.009900  0.456000  0.312600  1
  C  C1475  1  0.509900  0.956000  0.187400  1
  C  C1476  1  0.990100  0.544000  0.687400  1
  C  C1477  1  0.138300  0.447500  0.836400  1
  C  C1478  1  0.361700  0.052500  0.336400  1
  C  C1479  1  0.861700  0.552500  0.163600  1
  C  C1480  1  0.638300  0.947500  0.663600  1
  C  C1481  1  0.098600  0.097500  0.799600  1
  C  C1482  1  0.401400  0.402500  0.299600  1
  C  C1483  1  0.901400  0.902500  0.200400  1
  C  C1484  1  0.598600  0.597500  0.700400  1
  C  C1485  1  0.275600  0.674700  0.929500  1
  C  C1486  1  0.224400  0.825300  0.429500  1
  C  C1487  1  0.724400  0.325300  0.070500  1
  C  C1488  1  0.775600  0.174700  0.570500  1
  N  N1489  1  0.031100  0.465500  0.092700  1
  N  N1490  1  0.468900  0.034500  0.592700  1
  N  N1491  1  0.968900  0.534500  0.907300  1
  N  N1492  1  0.531100  0.965500  0.407300  1
  N  N1493  1  0.054500  0.341500  0.098100  1
  N  N1494  1  0.445500  0.158500  0.598100  1
  N  N1495  1  0.945500  0.658500  0.901900  1
  N  N1496  1  0.554500  0.841500  0.401900  1
  N  N1497  1  0.056100  0.385400  0.095300  1
  N  N1498  1  0.443900  0.114600  0.595300  1
  N  N1499  1  0.943900  0.614600  0.904700  1
  N  N1500  1  0.556100  0.885400  0.404700  1
  N  N1501  1  0.597600  0.128300  0.124300  1
  N  N1502  1  0.902400  0.371700  0.624300  1
  N  N1503  1  0.402400  0.871700  0.875700  1
  N  N1504  1  0.097600  0.628300  0.375700  1
  N  N1505  1  0.545100  0.249500  0.136200  1
  N  N1506  1  0.954900  0.250500  0.636200  1
  N  N1507  1  0.454900  0.750500  0.863800  1
  N  N1508  1  0.045100  0.749500  0.363800  1
  N  N1509  1  0.553000  0.206300  0.131800  1
  N  N1510  1  0.947000  0.293700  0.631800  1
  N  N1511  1  0.447000  0.793700  0.868200  1
  N  N1512  1  0.053000  0.706300  0.368200  1
  N  N1513  1  0.122600  0.435400  0.157580  1
  N  N1514  1  0.377400  0.064600  0.657580  1
  N  N1515  1  0.877400  0.564600  0.842420  1
  N  N1516  1  0.622600  0.935400  0.342420  1
  N  N1517  1  0.282500  0.385000  0.101060  1
  N  N1518  1  0.217500  0.115000  0.601060  1
  N  N1519  1  0.717500  0.615000  0.898940  1
  N  N1520  1  0.782500  0.885000  0.398940  1
  N  N1521  1  0.221800  0.402700  0.116600  1
  N  N1522  1  0.278200  0.097300  0.616600  1
  N  N1523  1  0.778200  0.597300  0.883400  1
  N  N1524  1  0.721800  0.902700  0.383400  1
  N  N1525  1  0.373300  0.322500  0.760740  1
  N  N1526  1  0.126700  0.177500  0.260740  1
  N  N1527  1  0.626700  0.677500  0.239260  1
  N  N1528  1  0.873300  0.822500  0.739260  1
  N  N1529  1  0.309100  0.413200  0.829660  1
  N  N1530  1  0.190900  0.086800  0.329660  1
  N  N1531  1  0.690900  0.586800  0.170340  1
  N  N1532  1  0.809100  0.913200  0.670340  1
  N  N1533  1  0.330300  0.377900  0.809900  1
  N  N1534  1  0.169700  0.122100  0.309900  1
  N  N1535  1  0.669700  0.622100  0.190100  1
  N  N1536  1  0.830300  0.877900  0.690100  1
  N  N1537  1  0.186600  0.493500  0.099700  1
  N  N1538  1  0.313400  0.006500  0.599700  1
  N  N1539  1  0.813400  0.506500  0.900300  1
  N  N1540  1  0.686600  0.993500  0.400300  1
  N  N1541  1  0.149300  0.423600  0.010400  1
  N  N1542  1  0.350700  0.076400  0.510400  1
  N  N1543  1  0.850700  0.576400  0.989600  1
  N  N1544  1  0.649300  0.923600  0.489600  1
  N  N1545  1  0.158100  0.444100  0.044270  1
  N  N1546  1  0.341900  0.055900  0.544270  1
  N  N1547  1  0.841900  0.555900  0.955730  1
  N  N1548  1  0.658100  0.944100  0.455730  1
  N  N1549  1  0.828500  0.080900  0.975700  1
  N  N1550  1  0.671500  0.419100  0.475700  1
  N  N1551  1  0.171500  0.919100  0.024300  1
  N  N1552  1  0.328500  0.580900  0.524300  1
  N  N1553  1  0.833700  0.177300  0.046400  1
  N  N1554  1  0.666300  0.322700  0.546400  1
  N  N1555  1  0.166300  0.822700  0.953600  1
  N  N1556  1  0.333700  0.677300  0.453600  1
  N  N1557  1  0.839200  0.146100  0.019500  1
  N  N1558  1  0.660800  0.353900  0.519500  1
  N  N1559  1  0.160800  0.853900  0.980500  1
  N  N1560  1  0.339200  0.646100  0.480500  1
  N  N1561  1  0.440800  0.133500  0.147790  1
  N  N1562  1  0.059200  0.366500  0.647790  1
  N  N1563  1  0.559200  0.866500  0.852210  1
  N  N1564  1  0.940800  0.633500  0.352210  1
  N  N1565  1  0.365000  0.206500  0.067400  1
  N  N1566  1  0.135000  0.293500  0.567400  1
  N  N1567  1  0.635000  0.793500  0.932600  1
  N  N1568  1  0.865000  0.706500  0.432600  1
  N  N1569  1  0.400000  0.182300  0.093700  1
  N  N1570  1  0.100000  0.317700  0.593700  1
  N  N1571  1  0.600000  0.817700  0.906300  1
  N  N1572  1  0.900000  0.682300  0.406300  1
  N  N1573  1  0.266900  0.287200  0.813600  1
  N  N1574  1  0.233100  0.212800  0.313600  1
  N  N1575  1  0.733100  0.712800  0.186400  1
  N  N1576  1  0.766900  0.787200  0.686400  1
  N  N1577  1  0.444000  0.218500  0.810100  1
  N  N1578  1  0.056000  0.281500  0.310100  1
  N  N1579  1  0.556000  0.781500  0.189900  1
  N  N1580  1  0.944000  0.718500  0.689900  1
  N  N1581  1  0.387400  0.246300  0.812300  1
  N  N1582  1  0.112600  0.253700  0.312300  1
  N  N1583  1  0.612600  0.753700  0.187700  1
  N  N1584  1  0.887400  0.746300  0.687700  1
  N  N1585  1  0.551600  0.173400  0.054090  1
  N  N1586  1  0.948400  0.326600  0.554090  1
  N  N1587  1  0.448400  0.826600  0.945910  1
  N  N1588  1  0.051600  0.673400  0.445910  1
  N  N1589  1  0.459500  0.060300  0.068640  1
  N  N1590  1  0.040500  0.439700  0.568640  1
  N  N1591  1  0.540500  0.939700  0.931360  1
  N  N1592  1  0.959500  0.560300  0.431360  1
  N  N1593  1  0.488000  0.101400  0.067710  1
  N  N1594  1  0.012000  0.398600  0.567710  1
  N  N1595  1  0.512000  0.898600  0.932290  1
  N  N1596  1  0.988000  0.601400  0.432290  1
  N  N1597  1  0.851200  0.166200  0.938020  1
  N  N1598  1  0.648800  0.333800  0.438020  1
  N  N1599  1  0.148800  0.833800  0.061980  1
  N  N1600  1  0.351200  0.666200  0.561980  1
  N  N1601  1  0.038300  0.202000  0.983260  1
  N  N1602  1  0.461700  0.298000  0.483260  1
  N  N1603  1  0.961700  0.798000  0.016740  1
  N  N1604  1  0.538300  0.702000  0.516740  1
  N  N1605  1  0.971900  0.185800  0.971500  1
  N  N1606  1  0.528100  0.314200  0.471500  1
  N  N1607  1  0.028100  0.814200  0.028500  1
  N  N1608  1  0.471900  0.685800  0.528500  1
  N  N1609  1  0.470300  0.335400  0.828280  1
  N  N1610  1  0.029700  0.164600  0.328280  1
  N  N1611  1  0.529700  0.664600  0.171720  1
  N  N1612  1  0.970300  0.835400  0.671720  1
  N  N1613  1  0.329700  0.308000  0.908720  1
  N  N1614  1  0.170300  0.192000  0.408720  1
  N  N1615  1  0.670300  0.692000  0.091280  1
  N  N1616  1  0.829700  0.808000  0.591280  1
  N  N1617  1  0.371700  0.316500  0.877590  1
  N  N1618  1  0.128300  0.183500  0.377590  1
  N  N1619  1  0.628300  0.683500  0.122410  1
  N  N1620  1  0.871700  0.816500  0.622410  1
  N  N1621  1  0.975100  0.095600  0.011480  1
  N  N1622  1  0.524900  0.404400  0.511480  1
  N  N1623  1  0.024900  0.904400  0.988520  1
  N  N1624  1  0.475100  0.595600  0.488520  1
  N  N1625  1  0.980300  0.081700  0.903240  1
  N  N1626  1  0.519700  0.418300  0.403240  1
  N  N1627  1  0.019700  0.918300  0.096760  1
  N  N1628  1  0.480300  0.581700  0.596760  1
  N  N1629  1  0.972700  0.091400  0.940630  1
  N  N1630  1  0.527300  0.408600  0.440630  1
  N  N1631  1  0.027300  0.908600  0.059370  1
  N  N1632  1  0.472700  0.591400  0.559370  1
  N  N1633  1  0.498100  0.335000  0.051700  1
  N  N1634  1  0.001900  0.165000  0.551700  1
  N  N1635  1  0.501900  0.665000  0.948300  1
  N  N1636  1  0.998100  0.835000  0.448300  1
  N  N1637  1  0.621300  0.978700  0.064300  1
  N  N1638  1  0.878700  0.521300  0.564300  1
  N  N1639  1  0.378700  0.021300  0.935700  1
  N  N1640  1  0.121300  0.478700  0.435700  1
  N  N1641  1  0.161400  0.958700  0.897700  1
  N  N1642  1  0.338600  0.541300  0.397700  1
  N  N1643  1  0.838600  0.041300  0.102300  1
  N  N1644  1  0.661400  0.458700  0.602300  1
  N  N1645  1  0.144100  0.749500  0.847900  1
  N  N1646  1  0.355900  0.750500  0.347900  1
  N  N1647  1  0.855900  0.250500  0.152100  1
  N  N1648  1  0.644100  0.249500  0.652100  1
  N  N1649  1  0.254400  0.637900  0.831200  1
  N  N1650  1  0.245600  0.862100  0.331200  1
  N  N1651  1  0.745600  0.362100  0.168800  1
  N  N1652  1  0.754400  0.137900  0.668800  1
  N  N1653  1  0.471800  0.004200  0.814900  1
  N  N1654  1  0.028200  0.495800  0.314900  1
  N  N1655  1  0.528200  0.995800  0.185100  1
  N  N1656  1  0.971800  0.504200  0.685100  1
  N  N1657  1  0.103700  0.416200  0.812900  1
  N  N1658  1  0.396300  0.083800  0.312900  1
  N  N1659  1  0.896300  0.583800  0.187100  1
  N  N1660  1  0.603700  0.916200  0.687100  1
  N  N1661  1  0.131600  0.102900  0.763600  1
  N  N1662  1  0.368400  0.397100  0.263600  1
  N  N1663  1  0.868400  0.897100  0.236400  1
  N  N1664  1  0.631600  0.602900  0.736400  1
  N  N1665  1  0.242800  0.711100  0.913300  1
  N  N1666  1  0.257200  0.788900  0.413300  1
  N  N1667  1  0.757200  0.288900  0.086700  1
  N  N1668  1  0.742800  0.211100  0.586700  1
  O  O1669  1  0.538400  0.307300  0.058600  1
  O  O1670  1  0.961600  0.192700  0.558600  1
  O  O1671  1  0.461600  0.692700  0.941400  1
  O  O1672  1  0.038400  0.807300  0.441400  1
  O  O1673  1  0.434700  0.334400  0.059000  1
  O  O1674  1  0.065300  0.165600  0.559000  1
  O  O1675  1  0.565300  0.665600  0.941000  1
  O  O1676  1  0.934700  0.834400  0.441000  1
  O  O1677  1  0.627000  0.015200  0.072100  1
  O  O1678  1  0.873000  0.484800  0.572100  1
  O  O1679  1  0.373000  0.984800  0.927900  1
  O  O1680  1  0.127000  0.515200  0.427900  1
  O  O1681  1  0.625100  0.964500  0.033300  1
  O  O1682  1  0.874900  0.535500  0.533300  1
  O  O1683  1  0.374900  0.035500  0.966700  1
  O  O1684  1  0.125100  0.464500  0.466700  1
  O  O1685  1  0.160000  0.982000  0.871700  1
  O  O1686  1  0.340000  0.518000  0.371700  1
  O  O1687  1  0.840000  0.018000  0.128300  1
  O  O1688  1  0.660000  0.482000  0.628300  1
  O  O1689  1  0.170400  0.969600  0.929400  1
  O  O1690  1  0.329600  0.530400  0.429400  1
  O  O1691  1  0.829600  0.030400  0.070600  1
  O  O1692  1  0.670400  0.469600  0.570600  1
  O  O1693  1  0.144400  0.731500  0.877000  1
  O  O1694  1  0.355600  0.768500  0.377000  1
  O  O1695  1  0.855600  0.268500  0.123000  1
  O  O1696  1  0.644400  0.231500  0.623000  1
  O  O1697  1  0.174000  0.782900  0.841600  1
  O  O1698  1  0.326000  0.717100  0.341600  1
  O  O1699  1  0.826000  0.217100  0.158400  1
  O  O1700  1  0.674000  0.282900  0.658400  1
  O  O1701  1  0.252300  0.674500  0.838800  1
  O  O1702  1  0.247700  0.825500  0.338800  1
  O  O1703  1  0.747700  0.325500  0.161200  1
  O  O1704  1  0.752300  0.174500  0.661200  1
  O  O1705  1  0.232600  0.609400  0.850600  1
  O  O1706  1  0.267400  0.890600  0.350600  1
  O  O1707  1  0.767400  0.390600  0.149400  1
  O  O1708  1  0.732600  0.109400  0.649400  1
  O  O1709  1  0.470800  0.984100  0.843400  1
  O  O1710  1  0.029200  0.515900  0.343400  1
  O  O1711  1  0.529200  0.015900  0.156600  1
  O  O1712  1  0.970800  0.484100  0.656600  1
  O  O1713  1  0.453900  0.988500  0.787000  1
  O  O1714  1  0.046100  0.511500  0.287000  1
  O  O1715  1  0.546100  0.011500  0.213000  1
  O  O1716  1  0.953900  0.488500  0.713000  1
  O  O1717  1  0.141300  0.397500  0.792100  1
  O  O1718  1  0.358700  0.102500  0.292100  1
  O  O1719  1  0.858700  0.602500  0.207900  1
  O  O1720  1  0.641300  0.897500  0.707900  1
  O  O1721  1  0.040400  0.408900  0.817600  1
  O  O1722  1  0.459600  0.091100  0.317600  1
  O  O1723  1  0.959600  0.591100  0.182400  1
  O  O1724  1  0.540400  0.908900  0.682400  1
  O  O1725  1  0.166400  0.134500  0.758500  1
  O  O1726  1  0.333600  0.365500  0.258500  1
  O  O1727  1  0.833600  0.865500  0.241500  1
  O  O1728  1  0.666400  0.634500  0.741500  1
  O  O1729  1  0.125600  0.074000  0.742000  1
  O  O1730  1  0.374400  0.426000  0.242000  1
  O  O1731  1  0.874400  0.926000  0.258000  1
  O  O1732  1  0.625600  0.574000  0.758000  1
  O  O1733  1  0.277500  0.743300  0.913000  1
  O  O1734  1  0.222500  0.756700  0.413000  1
  O  O1735  1  0.722500  0.256700  0.087000  1
  O  O1736  1  0.777500  0.243300  0.587000  1
  O  O1737  1  0.182300  0.706800  0.901500  1
  O  O1738  1  0.317700  0.793200  0.401500  1
  O  O1739  1  0.817700  0.293200  0.098500  1
  O  O1740  1  0.682300  0.206800  0.598500  1
  F  F1741  1  0.249900  0.289300  0.049800  1
  F  F1742  1  0.250100  0.210700  0.549800  1
  F  F1743  1  0.750100  0.710700  0.950200  1
  F  F1744  1  0.749900  0.789300  0.450200  1
  F  F1745  1  0.245500  0.325500  0.996400  1
  F  F1746  1  0.254500  0.174500  0.496400  1
  F  F1747  1  0.754500  0.674500  0.003600  1
  F  F1748  1  0.745500  0.825500  0.503600  1
  F  F1749  1  0.148900  0.291000  0.017600  1
  F  F1750  1  0.351100  0.209000  0.517600  1
  F  F1751  1  0.851100  0.709000  0.982400  1
  F  F1752  1  0.648900  0.791000  0.482400  1
  F  F1753  1  0.242100  0.256100  0.996800  1
  F  F1754  1  0.257900  0.243900  0.496800  1
  F  F1755  1  0.757900  0.743900  0.003200  1
  F  F1756  1  0.742100  0.756100  0.503200  1
  F  F1757  1  0.432700  0.945500  0.066300  1
  F  F1758  1  0.067300  0.554500  0.566300  1
  F  F1759  1  0.567300  0.054500  0.933700  1
  F  F1760  1  0.932700  0.445500  0.433700  1
  F  F1761  1  0.354000  0.894100  0.077800  1
  F  F1762  1  0.146000  0.605900  0.577800  1
  F  F1763  1  0.646000  0.105900  0.922200  1
  F  F1764  1  0.854000  0.394100  0.422200  1
  F  F1765  1  0.364600  0.949900  0.116700  1
  F  F1766  1  0.135400  0.550100  0.616700  1
  F  F1767  1  0.635400  0.050100  0.883300  1
  F  F1768  1  0.864600  0.449900  0.383300  1
  F  F1769  1  0.449000  0.901300  0.113800  1
  F  F1770  1  0.051000  0.598700  0.613800  1
  F  F1771  1  0.551000  0.098700  0.886200  1
  F  F1772  1  0.949000  0.401300  0.386200  1
  F  F1773  1  0.988000  0.009100  0.824500  1
  F  F1774  1  0.512000  0.490900  0.324500  1
  F  F1775  1  0.012000  0.990900  0.175500  1
  F  F1776  1  0.488000  0.509100  0.675500  1
  F  F1777  1  0.885900  0.978800  0.806000  1
  F  F1778  1  0.614100  0.521200  0.306000  1
  F  F1779  1  0.114100  0.021200  0.194000  1
  F  F1780  1  0.385900  0.478800  0.694000  1
  F  F1781  1  0.951600  0.945500  0.845400  1
  F  F1782  1  0.548400  0.554500  0.345400  1
  F  F1783  1  0.048400  0.054500  0.154600  1
  F  F1784  1  0.451600  0.445500  0.654600  1
  F  F1785  1  0.898100  0.004300  0.863100  1
  F  F1786  1  0.601900  0.495700  0.363100  1
  F  F1787  1  0.101900  0.995700  0.136900  1
  F  F1788  1  0.398100  0.504300  0.636900  1
  F  F1789  1  0.997100  0.827400  0.902100  1
  F  F1790  1  0.502900  0.672600  0.402100  1
  F  F1791  1  0.002900  0.172600  0.097900  1
  F  F1792  1  0.497100  0.327400  0.597900  1
  F  F1793  1  0.979300  0.762200  0.922500  1
  F  F1794  1  0.520700  0.737800  0.422500  1
  F  F1795  1  0.020700  0.237800  0.077500  1
  F  F1796  1  0.479300  0.262200  0.577500  1
  F  F1797  1  0.994100  0.774400  0.862600  1
  F  F1798  1  0.505900  0.725600  0.362600  1
  F  F1799  1  0.005900  0.225600  0.137400  1
  F  F1800  1  0.494100  0.274400  0.637400  1
  F  F1801  1  0.895200  0.794700  0.890500  1
  F  F1802  1  0.604800  0.705300  0.390500  1
  F  F1803  1  0.104800  0.205300  0.109500  1
  F  F1804  1  0.395200  0.294700  0.609500  1
  F  F1805  1  0.685200  0.383500  0.996600  1
  F  F1806  1  0.814800  0.116500  0.496600  1
  F  F1807  1  0.314800  0.616500  0.003400  1
  F  F1808  1  0.185200  0.883500  0.503400  1
  F  F1809  1  0.587800  0.387300  0.961600  1
  F  F1810  1  0.912200  0.112700  0.461600  1
  F  F1811  1  0.412200  0.612700  0.038400  1
  F  F1812  1  0.087800  0.887300  0.538400  1
  F  F1813  1  0.613700  0.327700  0.987800  1
  F  F1814  1  0.886300  0.172300  0.487800  1
  F  F1815  1  0.386300  0.672300  0.012200  1
  F  F1816  1  0.113700  0.827700  0.512200  1
  F  F1817  1  0.680600  0.350000  0.941900  1
  F  F1818  1  0.819400  0.150000  0.441900  1
  F  F1819  1  0.319400  0.650000  0.058100  1
  F  F1820  1  0.180600  0.850000  0.558100  1
  F  F1821  1  0.099800  0.327900  0.929700  1
  F  F1822  1  0.400200  0.172100  0.429700  1
  F  F1823  1  0.900200  0.672100  0.070300  1
  F  F1824  1  0.599800  0.827900  0.570300  1
  F  F1825  1  0.149600  0.391300  0.917100  1
  F  F1826  1  0.350400  0.108700  0.417100  1
  F  F1827  1  0.850400  0.608700  0.082900  1
  F  F1828  1  0.649600  0.891300  0.582900  1
  F  F1829  1  0.034500  0.376500  0.904000  1
  F  F1830  1  0.465500  0.123500  0.404000  1
  F  F1831  1  0.965500  0.623500  0.096000  1
  F  F1832  1  0.534500  0.876500  0.596000  1
  F  F1833  1  0.118800  0.347800  0.871300  1
  F  F1834  1  0.381200  0.152200  0.371300  1
  F  F1835  1  0.881200  0.652200  0.128700  1
  F  F1836  1  0.618800  0.847800  0.628700  1
  F  F1837  1  0.352900  0.090000  0.835500  1
  F  F1838  1  0.147100  0.410000  0.335500  1
  F  F1839  1  0.647100  0.910000  0.164500  1
  F  F1840  1  0.852900  0.590000  0.664500  1
  F  F1841  1  0.260100  0.078400  0.798400  1
  F  F1842  1  0.239900  0.421600  0.298400  1
  F  F1843  1  0.739900  0.921600  0.201600  1
  F  F1844  1  0.760100  0.578400  0.701600  1
  F  F1845  1  0.245400  0.076100  0.859100  1
  F  F1846  1  0.254600  0.423900  0.359100  1
  F  F1847  1  0.754600  0.923900  0.140900  1
  F  F1848  1  0.745400  0.576100  0.640900  1
  F  F1849  1  0.304500  0.025900  0.830600  1
  F  F1850  1  0.195500  0.474100  0.330600  1
  F  F1851  1  0.695500  0.974100  0.169400  1
  F  F1852  1  0.804500  0.525900  0.669400  1
  F  F1853  1  0.233700  0.067700  0.854000  1
  F  F1854  1  0.266300  0.432300  0.354000  1
  F  F1855  1  0.766300  0.932300  0.146000  1
  F  F1856  1  0.733700  0.567700  0.646000  1
  F  F1857  1  0.239700  0.050000  0.794900  1
  F  F1858  1  0.260300  0.450000  0.294900  1
  F  F1859  1  0.760300  0.950000  0.205100  1
  F  F1860  1  0.739700  0.550000  0.705100  1
  F  F1861  1  0.324700  0.091000  0.819700  1
  F  F1862  1  0.175300  0.409000  0.319700  1
  F  F1863  1  0.675300  0.909000  0.180300  1
  F  F1864  1  0.824700  0.591000  0.680300  1
  F  F1865  1  0.316000  0.023600  0.835100  1
  F  F1866  1  0.184000  0.476400  0.335100  1
  F  F1867  1  0.684000  0.976400  0.164900  1
  F  F1868  1  0.816000  0.523600  0.664900  1
