
#######################################################################
#
#                 Cambridge Crystallographic Data Centre
#                                CCDC 
#
#######################################################################
#
# If this CIF has been generated from an entry in the Cambridge 
# Structural Database, then it will include bibliographic, chemical, 
# crystal, experimental, refinement or atomic coordinate data resulting 
# from the CCDC's data processing and validation procedures.
#
#######################################################################

data_BALGIG
_chemical_formula_moiety         
'C180 H144 N36 Zn4 8+,5(C1 H3 N1 O2),8(B1 F4 1-)'
_chemical_name_systematic        
"hexakis(\m~2~-2,2'-(biphenyl-3,3'-diylbis(methylene-1H-pyrazole-1,3-diyl))dipyridine)-tetra-zinc(ii) octakis(tetrafluoroborate) nitromethane solvate"
_symmetry_cell_setting           monoclinic
_symmetry_space_group_name_H-M   'P 21/n'
_symmetry_Int_Tables_number      14
_space_group_name_Hall           '-P 2yn'
loop_
_symmetry_equiv_pos_site_id
_symmetry_equiv_pos_as_xyz
1 x,y,z
2 1/2-x,1/2+y,1/2-z
3 -x,-y,-z
4 1/2+x,1/2-y,1/2+z
_cell_length_a                   18.976(5)
_cell_length_b                   36.829(10)
_cell_length_c                   32.327(10)
_cell_angle_alpha                90
_cell_angle_beta                 91.42(2)
_cell_angle_gamma                90
_cell_volume                     22585.3
_exptl_crystal_colour            colorless
_exptl_crystal_description       block
_cell_formula_units_Z            4
loop_
_atom_site_label
_atom_site_type_symbol
_atom_site_fract_x
_atom_site_fract_y
_atom_site_fract_z
Zn1 Zn 0.86988(9) 0.90073(4) 0.56496(5)
Zn2 Zn 0.49870(8) 0.89700(4) 0.84438(5)
Zn3 Zn 0.63255(8) 1.18086(4) 0.68704(5)
Zn4 Zn 1.09065(8) 1.02423(4) 0.87019(5)
N1 N 0.9689(4) 0.9073(2) 0.5345(3)
C1 C 1.0278(5) 0.9053(2) 0.5608(2)
C2 C 1.0950(4) 0.9066(2) 0.5448(3)
H1 H 1.1352 0.9053 0.5628
C3 C 1.1034(4) 0.9099(2) 0.5024(3)
H2 H 1.1494 0.9108 0.4914
C4 C 1.0446(5) 0.9119(3) 0.4760(2)
H3 H 1.0503 0.9142 0.4470
C5 C 0.9773(4) 0.9106(2) 0.4920(2)
H4 H 0.9371 0.9120 0.4740
N2 N 0.9455(4) 0.9019(2) 0.6585(2)
N3 N 0.9439(4) 0.9047(2) 0.6146(2)
C6 C 1.0144(4) 0.9029(3) 0.6010(2)
C7 C 1.0596(3) 0.8991(3) 0.6365(3)
H5 H 1.1095 0.8973 0.6364
C8 C 1.0170(4) 0.8984(2) 0.6719(2)
H6 H 1.0334 0.8961 0.6998
C9 C 0.8853(7) 0.9001(3) 0.6817(5)
H7 H 0.8479 0.9146 0.6676
H8 H 0.8954 0.9115 0.7089
N4 N 0.4024(3) 0.8757(2) 0.8717(3)
C10 C 0.3582(4) 0.8575(2) 0.8438(2)
C11 C 0.2979(4) 0.8403(2) 0.8575(2)
H9 H 0.2677 0.8279 0.8384
C12 C 0.2818(4) 0.8414(2) 0.8992(3)
H10 H 0.2405 0.8297 0.9086
C13 C 0.3259(4) 0.8597(2) 0.9271(2)
H11 H 0.3149 0.8604 0.9556
C14 C 0.3863(4) 0.8768(2) 0.9134(2)
H12 H 0.4165 0.8893 0.9325
N5 N 0.4549(4) 0.8638(2) 0.7505(2)
N6 N 0.4470(4) 0.8682(2) 0.7937(2)
C15 C 0.3795(4) 0.8548(3) 0.8040(2)
C16 C 0.3457(3) 0.8421(3) 0.7671(3)
H13 H 0.2999 0.8317 0.7649
C17 C 0.3923(5) 0.8476(2) 0.7340(2)
H14 H 0.3832 0.8416 0.7058
C18 C 0.5198(7) 0.8701(4) 0.7305(5)
H15 H 0.5369 0.8948 0.7375
H16 H 0.5117 0.8690 0.7002
C19 C 0.7656(4) 0.8252(2) 0.7156(3)
C20 C 0.7939(4) 0.85938(16) 0.7086(3)
H17 H 0.7697 0.8805 0.7175
C21 C 0.8576(4) 0.86275(15) 0.6887(3)
C22 C 0.8931(4) 0.8319(2) 0.6757(3)
H18 H 0.9366 0.8342 0.6621
C23 C 0.8648(4) 0.79770(16) 0.6827(3)
H19 H 0.8890 0.7766 0.6738
C24 C 0.8011(4) 0.79433(15) 0.7026(3)
H20 H 0.7818 0.7710 0.7074
C25 C 0.6953(3) 0.8216(2) 0.7359(3)
C26 C 0.6425(4) 0.84676(19) 0.7267(3)
H21 H 0.6519 0.8668 0.7092
C27 C 0.5760(4) 0.84255(19) 0.7431(3)
C28 C 0.5622(3) 0.8132(2) 0.7688(3)
H22 H 0.5168 0.8104 0.7800
C29 C 0.6150(4) 0.78810(18) 0.7780(3)
H23 H 0.6056 0.7681 0.7955
C30 C 0.6815(4) 0.79230(19) 0.7615(3)
H24 H 0.7176 0.7751 0.7678
N7 N 0.8774(5) 0.84242(15) 0.5646(3)
C31 C 0.8204(4) 0.8245(2) 0.5814(3)
C32 C 0.8182(4) 0.7868(2) 0.5817(3)
H25 H 0.7792 0.7745 0.5932
C33 C 0.8731(5) 0.76697(15) 0.5651(3)
H26 H 0.8716 0.7412 0.5653
C34 C 0.9302(4) 0.7849(2) 0.5483(3)
H27 H 0.9677 0.7713 0.5370
C35 C 0.9323(4) 0.8226(2) 0.5481(3)
H28 H 0.9714 0.8348 0.5366
N8 N 0.7175(5) 0.89894(16) 0.6150(3)
N9 N 0.7782(4) 0.8834(2) 0.5973(3)
C36 C 0.7679(5) 0.8452(2) 0.5949(3)
C37 C 0.7008(5) 0.83722(17) 0.6112(4)
H29 H 0.6803 0.8138 0.6134
C38 C 0.6696(4) 0.8704(2) 0.6235(3)
H30 H 0.6247 0.8731 0.6355
C39 C 0.7092(8) 0.9361(4) 0.6207(5)
H31 H 0.7560 0.9473 0.6259
H32 H 0.6804 0.9404 0.6453
N10 N 0.6267(5) 1.23926(14) 0.6775(3)
C40 C 0.6392(5) 1.25168(18) 0.6377(2)
C41 C 0.6359(5) 1.2886(2) 0.6291(2)
H33 H 0.6444 1.2971 0.6019
C42 C 0.6200(5) 1.31314(14) 0.6602(3)
H34 H 0.6177 1.3384 0.6543
C43 C 0.6075(5) 1.30071(18) 0.6999(2)
H35 H 0.5967 1.3175 0.7212
C44 C 0.6109(5) 1.26377(19) 0.7086(2)
H36 H 0.6023 1.2553 0.7357
N11 N 0.6909(5) 1.17034(16) 0.5868(3)
N12 N 0.6697(5) 1.1901(2) 0.6221(2)
C45 C 0.6554(6) 1.22635(18) 0.6096(3)
C46 C 0.6678(6) 1.22905(18) 0.5666(3)
H37 H 0.6623 1.2503 0.5501
C47 C 0.6897(5) 1.1944(2) 0.5525(2)
H38 H 0.7015 1.1884 0.5249
C48 C 0.7073(8) 1.1341(4) 0.5891(5)
H39 H 0.7225 1.1282 0.6178
H40 H 0.7474 1.1292 0.5709
C49 C 0.6241(5) 1.00997(16) 0.5548(3)
C50 C 0.6598(6) 0.9914(2) 0.5864(3)
H41 H 0.6750 1.0040 0.6106
C51 C 0.6731(5) 0.9545(2) 0.5825(3)
C52 C 0.6508(5) 0.93610(16) 0.5470(3)
H42 H 0.6599 0.9109 0.5443
C53 C 0.6151(5) 0.9546(2) 0.5154(3)
H43 H 0.5999 0.9420 0.4911
C54 C 0.6018(5) 0.9916(2) 0.5193(3)
H44 H 0.5774 1.0042 0.4977
C55 C 0.6068(5) 1.04892(16) 0.5594(4)
C56 C 0.6591(4) 1.0723(2) 0.5741(4)
H45 H 0.7039 1.0630 0.5826
C57 C 0.6460(4) 1.10940(19) 0.5764(4)
C58 C 0.5806(5) 1.12305(16) 0.5640(4)
H46 H 0.5716 1.1484 0.5656
C59 C 0.5283(4) 1.0996(2) 0.5492(4)
H47 H 0.4835 1.1090 0.5407
C60 C 0.5414(4) 1.06258(19) 0.5469(4)
H48 H 0.5057 1.0466 0.5368
N13 N 0.8134(5) 0.9003(2) 0.5065(2)
C61 C 0.7899(5) 0.93417(18) 0.4932(3)
C62 C 0.7553(5) 0.93767(18) 0.4549(3)
H49 H 0.7392 0.9608 0.4458
C63 C 0.7443(6) 0.9073(2) 0.4301(2)
H50 H 0.7206 0.9097 0.4040
C64 C 0.7678(6) 0.87343(19) 0.4434(3)
H51 H 0.7602 0.8527 0.4265
C65 C 0.8024(5) 0.86993(17) 0.4817(3)
H52 H 0.8184 0.8468 0.4908
N14 N 0.8507(5) 0.9896(2) 0.5764(2)
N15 N 0.8419(5) 0.95573(16) 0.5559(3)
C66 C 0.8072(6) 0.9623(2) 0.5172(2)
C67 C 0.7945(6) 1.0002(2) 0.5139(3)
H53 H 0.7719 1.0122 0.4911
C68 C 0.8214(5) 1.01704(16) 0.5505(3)
H54 H 0.8200 1.0423 0.5565
C69 C 0.8858(7) 0.9937(4) 0.6137(5)
H55 H 0.8731 0.9733 0.6321
H56 H 0.8701 1.0165 0.6268
N16 N 1.1715(4) 1.0243(2) 0.9191(2)
C70 C 1.2236(4) 0.9980(2) 0.9160(2)
C71 C 1.2791(4) 0.9969(2) 0.9449(3)
H57 H 1.3147 0.9789 0.9428
C72 C 1.2824(4) 1.0221(2) 0.9769(3)
H58 H 1.3204 1.0213 0.9966
C73 C 1.2303(5) 1.0484(2) 0.9800(2)
H59 H 1.2326 1.0656 1.0018
C74 C 1.1749(4) 1.0495(2) 0.9511(3)
H60 H 1.1393 1.0675 0.9532
N17 N 1.1663(4) 0.9536(2) 0.8227(2)
N18 N 1.1608(4) 0.9805(2) 0.8539(3)
C75 C 1.2171(5) 0.9752(2) 0.8830(2)
C76 C 1.2574(4) 0.9451(2) 0.8698(3)
H61 H 1.2982 0.9355 0.8835
C77 C 1.2260(4) 0.9317(2) 0.8325(3)
H62 H 1.2421 0.9116 0.8169
C78 C 1.1220(7) 0.9540(4) 0.7891(4)
H63 H 1.0752 0.9624 0.7980
H64 H 1.1163 0.9288 0.7790
C79 C 1.0801(4) 0.9974(2) 0.6439(2)
C80 C 1.0072(4) 0.9953(2) 0.6459(2)
H65 H 0.9853 0.9943 0.6720
C81 C 0.9661(3) 0.9946(2) 0.6097(2)
C82 C 0.9980(4) 0.9961(2) 0.5715(2)
H66 H 0.9700 0.9956 0.5468
C83 C 1.0710(4) 0.9982(2) 0.5695(2)
H67 H 1.0928 0.9992 0.5434
C84 C 1.1121(3) 0.9989(2) 0.6057(2)
H68 H 1.1619 1.0003 0.6044
C85 C 1.1229(4) 0.9978(2) 0.6842(2)
C86 C 1.1024(4) 0.9772(2) 0.7178(3)
H69 H 1.0604 0.9632 0.7160
C87 C 1.1435(4) 0.9770(2) 0.7540(2)
C88 C 1.2050(4) 0.9974(2) 0.7565(2)
H70 H 1.2331 0.9973 0.7813
C89 C 1.2255(4) 1.0180(2) 0.7229(3)
H71 H 1.2675 1.0320 0.7247
C90 C 1.1844(4) 1.0182(2) 0.6867(2)
H72 H 1.1984 1.0324 0.6637
N19 N 0.5592(4) 0.85221(17) 0.8665(3)
C91 C 0.6292(4) 0.85292(18) 0.8547(3)
C92 C 0.6743(3) 0.8247(2) 0.8660(3)
H73 H 0.7221 0.8252 0.8579
C93 C 0.6494(4) 0.79571(18) 0.8890(3)
H74 H 0.6802 0.7764 0.8967
C94 C 0.5795(4) 0.79500(18) 0.9008(3)
H75 H 0.5625 0.7752 0.9165
C95 C 0.5344(3) 0.8232(2) 0.8895(3)
H76 H 0.4866 0.8228 0.8976
N20 N 0.6350(4) 0.93260(18) 0.7935(3)
N21 N 0.6000(3) 0.9063(2) 0.8177(3)
C96 C 0.6513(4) 0.88125(19) 0.8329(3)
C97 C 0.7179(3) 0.8920(2) 0.8181(3)
H77 H 0.7616 0.8801 0.8235
C98 C 0.7078(4) 0.9238(2) 0.7937(3)
H78 H 0.7436 0.9368 0.7799
C99 C 0.6020(8) 0.9602(3) 0.7697(5)
H79 H 0.5567 0.9510 0.7580
H80 H 0.6324 0.9668 0.7464
N22 N 0.7331(4) 1.1864(2) 0.7128(3)
C100 C 0.7359(4) 1.1939(2) 0.7550(3)
C101 C 0.7997(5) 1.2032(2) 0.7743(2)
H81 H 0.8016 1.2083 0.8031
C102 C 0.8606(4) 1.2051(2) 0.7514(3)
H82 H 0.9042 1.2115 0.7645
C103 C 0.8578(4) 1.1977(2) 0.7092(3)
H83 H 0.8994 1.1990 0.6936
C104 C 0.7940(5) 1.1884(2) 0.6899(2)
H84 H 0.7921 1.1833 0.6611
N23 N 0.5560(3) 1.1899(2) 0.7815(3)
N24 N 0.6126(5) 1.1877(2) 0.7537(2)
C105 C 0.6764(4) 1.1932(2) 0.7767(3)
C106 C 0.6593(4) 1.1987(3) 0.8187(3)
H85 H 0.6920 1.2030 0.8409
C107 C 0.5849(5) 1.1967(2) 0.8217(2)
H86 H 0.5590 1.1994 0.8463
C108 C 0.4831(8) 1.1861(3) 0.7716(5)
H87 H 0.4705 1.2006 0.7467
H88 H 0.4546 1.1947 0.7948
C109 C 0.5356(5) 1.05330(18) 0.7966(3)
C110 C 0.5489(5) 1.0209(2) 0.7763(2)
H89 H 0.5311 1.0172 0.7489
C111 C 0.5884(5) 0.99387(17) 0.7959(3)
C112 C 0.6145(5) 0.99927(18) 0.8360(3)
H90 H 0.6414 0.9808 0.8495
C113 C 0.6011(5) 1.0317(2) 0.8564(2)
H91 H 0.6190 1.0354 0.8838
C114 C 0.5617(5) 1.05870(17) 0.8367(3)
H92 H 0.5526 1.0809 0.8507
C115 C 0.4923(5) 1.08241(17) 0.7750(3)
C116 C 0.5099(4) 1.1186(2) 0.7816(3)
H93 H 0.5498 1.1247 0.7985
C117 C 0.4690(5) 1.14592(15) 0.7635(3)
C118 C 0.4106(5) 1.13699(17) 0.7388(3)
H94 H 0.3827 1.1556 0.7264
C119 C 0.3930(4) 1.1008(2) 0.7321(3)
H95 H 0.3531 1.0947 0.7152
C120 C 0.4339(5) 1.07349(15) 0.7502(3)
H96 H 0.4219 1.0487 0.7457
N25 N 0.4484(4) 0.94591(15) 0.8266(2)
C121 C 0.4441(4) 0.9726(2) 0.8569(2)
C122 C 0.4068(4) 1.00436(18) 0.8488(2)
H97 H 0.4039 1.0226 0.8695
C123 C 0.3739(4) 1.00954(16) 0.8103(3)
H98 H 0.3484 1.0313 0.8048
C124 C 0.3782(5) 0.9829(2) 0.7800(2)
H99 H 0.3556 0.9864 0.7538
C125 C 0.4154(4) 0.95109(18) 0.7882(2)
H100 H 0.4183 0.9329 0.7675
N26 N 0.5405(4) 0.93136(17) 0.9397(2)
N27 N 0.5120(4) 0.93229(18) 0.8986(2)
C126 C 0.4768(5) 0.9660(2) 0.8930(2)
C127 C 0.4835(5) 0.98593(17) 0.9305(3)
H101 H 0.4650 1.0094 0.9354
C128 C 0.5229(5) 0.9645(2) 0.9593(2)
H102 H 0.5353 0.9712 0.9870
C129 C 0.5804(7) 0.9031(3) 0.9551(5)
H103 H 0.5594 0.8799 0.9455
H104 H 0.5789 0.9035 0.9857
N28 N 1.1488(4) 1.06198(19) 0.8338(2)
C130 C 1.1177(3) 1.0700(2) 0.7955(2)
C131 C 1.1533(4) 1.0913(2) 0.7674(2)
H105 H 1.1321 1.0968 0.7412
C132 C 1.2201(4) 1.1046(2) 0.7775(2)
H106 H 1.2444 1.1192 0.7583
C133 C 1.2512(3) 1.0966(2) 0.8158(2)
H107 H 1.2968 1.1058 0.8228
C134 C 1.2155(4) 1.0753(2) 0.8440(2)
H108 H 1.2368 1.0699 0.8702
N29 N 0.9617(4) 1.01674(19) 0.7980(2)
N30 N 1.0281(4) 1.0285(2) 0.8142(2)
C135 C 1.0557(3) 1.0543(2) 0.7862(3)
C136 C 1.0064(4) 1.0585(2) 0.7528(2)
H109 H 1.0115 1.0740 0.7296
C137 C 0.9483(4) 1.0352(2) 0.7601(2)
H110 H 0.9076 1.0326 0.7426
C138 C 0.9275(7) 0.9865(3) 0.8114(4)
H111 H 0.9629 0.9690 0.8223
H112 H 0.9030 0.9749 0.7874
C139 C 0.7570(4) 0.93462(17) 0.9119(3)
C140 C 0.6871(4) 0.93522(16) 0.9238(3)
H113 H 0.6595 0.9565 0.9195
C141 C 0.6577(3) 0.9048(2) 0.9420(3)
C142 C 0.6982(4) 0.87370(17) 0.9483(3)
H114 H 0.6781 0.8529 0.9607
C143 C 0.7680(4) 0.87309(16) 0.9363(3)
H115 H 0.7957 0.8519 0.9406
C144 C 0.7974(3) 0.9035(2) 0.9181(3)
H116 H 0.8452 0.9031 0.9100
C145 C 0.7909(4) 0.96768(16) 0.8928(3)
C146 C 0.8418(4) 0.96335(14) 0.8630(3)
H117 H 0.8553 0.9397 0.8546
C147 C 0.8728(4) 0.9937(2) 0.8454(2)
C148 C 0.8529(4) 1.02829(16) 0.8576(3)
H118 H 0.8741 1.0490 0.8456
C149 C 0.8021(4) 1.03261(14) 0.8874(3)
H119 H 0.7885 1.0563 0.8958
C150 C 0.7711(4) 1.00231(19) 0.9050(2)
H120 H 0.7363 1.0053 0.9254
N31 N 0.5297(3) 1.17172(18) 0.6646(3)
C151 C 0.5126(4) 1.13551(16) 0.6575(3)
C152 C 0.4477(4) 1.12644(14) 0.6395(3)
H121 H 0.4360 1.1017 0.6346
C153 C 0.4000(4) 1.15359(19) 0.6284(3)
H122 H 0.3557 1.1474 0.6160
C154 C 0.4171(4) 1.18980(17) 0.6354(3)
H123 H 0.3844 1.2084 0.6279
C155 C 0.4819(4) 1.19887(13) 0.6535(3)
H124 H 0.4936 1.2236 0.6583
N32 N 0.6703(3) 1.09128(18) 0.6920(3)
N33 N 0.6283(4) 1.12241(13) 0.6835(3)
C156 C 0.5598(4) 1.11042(18) 0.6711(3)
C157 C 0.5596(4) 1.07187(18) 0.6719(3)
H125 H 0.5206 1.0567 0.6650
C158 C 0.6279(4) 1.06004(13) 0.6848(3)
H126 H 0.6426 1.0355 0.6881
C159 C 0.7411(7) 1.0923(3) 0.7021(5)
H127 H 0.7639 1.1106 0.6844
H128 H 0.7620 1.0684 0.6956
N34 N 1.0249(4) 0.98852(17) 0.9044(2)
C160 C 0.9806(4) 1.00387(13) 0.9332(2)
C161 C 0.9412(4) 0.98168(19) 0.9586(2)
H129 H 0.9109 0.9922 0.9783
C162 C 0.9462(4) 0.94415(18) 0.9553(2)
H130 H 0.9193 0.9290 0.9727
C163 C 0.9906(4) 0.92880(13) 0.9266(3)
H131 H 0.9941 0.9031 0.9243
C164 C 1.0300(4) 0.95099(18) 0.9011(2)
H132 H 1.0603 0.9405 0.8815
N35 N 1.0197(4) 1.09676(16) 0.9183(2)
N36 N 1.0273(4) 1.05937(18) 0.9086(2)
C165 C 0.9812(4) 1.03936(14) 0.9340(3)
C166 C 0.9452(4) 1.0644(2) 0.9594(2)
H133 H 0.9111 1.0584 0.9793
C167 C 0.9690(4) 1.09985(17) 0.9497(3)
H134 H 0.9537 1.1218 0.9620
C168 C 1.0559(7) 1.1231(3) 0.8972(5)
H135 H 1.1048 1.1148 0.8932
H136 H 1.0579 1.1455 0.9141
C169 C 0.8492(3) 1.1181(2) 0.7968(3)
C170 C 0.8283(4) 1.1096(2) 0.7564(2)
H137 H 0.8620 1.1095 0.7351
C171 C 0.7583(4) 1.1012(2) 0.7472(2)
C172 C 0.7091(3) 1.1013(2) 0.7783(3)
H138 H 0.6612 1.0956 0.7720
C173 C 0.7299(4) 1.1098(2) 0.8187(2)
H139 H 0.6963 1.1098 0.8400
C174 C 0.8000(4) 1.1182(2) 0.8279(2)
H140 H 0.8142 1.1240 0.8555
C175 C 0.9251(3) 1.1278(2) 0.8063(3)
C176 C 0.9533(4) 1.1218(2) 0.8458(2)
H141 H 0.9253 1.1108 0.8662
C177 C 1.0223(4) 1.1319(2) 0.8553(2)
C178 C 1.0632(3) 1.1481(2) 0.8254(3)
H142 H 1.1104 1.1550 0.8319
C179 C 1.0351(4) 1.1541(2) 0.7858(2)
H143 H 1.0631 1.1652 0.7654
C180 C 0.9660(4) 1.1440(2) 0.7763(2)
H144 H 0.9468 1.1481 0.7493
B1 B 0.7774(10) 0.9853(5) 0.7104(6)
F1 F 0.7501(4) 0.9502(2) 0.7107(3)
F2 F 0.7545(4) 1.0036(2) 0.6745(3)
F3 F 0.8511(4) 0.9824(2) 0.7090(3)
F4 F 0.7579(4) 1.0032(2) 0.7439(3)
B2 B 0.6005(14) 0.9040(7) 0.0807(8)
F5 F 0.5673(6) 0.9337(3) 0.0545(4)
F6 F 0.6460(6) 0.9222(3) 0.1059(4)
F7 F 0.6354(6) 0.8833(3) 0.0501(4)
F8 F 0.5510(6) 0.8862(3) 0.0987(4)
B3 B 0.0678(13) 0.1650(7) 0.0151(8)
F9 F 0.0120(6) 0.1755(3) -0.0091(4)
F10 F 0.1141(6) 0.1940(3) 0.0212(3)
F11 F 0.0484(6) 0.1546(3) 0.0545(4)
F12 F 0.1019(6) 0.1369(3) -0.0043(3)
B4 B 0.0352(9) 0.1058(5) 0.2095(6)
F13 F 0.0029(4) 0.0979(2) 0.1726(3)
F14 F 0.0207(4) 0.0775(2) 0.2378(2)
F15 F 0.0059(4) 0.1374(2) 0.2256(3)
F16 F 0.1048(4) 0.1095(2) 0.2053(3)
B5 B 0.3577(12) 0.0264(6) 0.6388(7)
F17 F 0.3148(5) 0.0034(3) 0.6165(3)
F18 F 0.4122(5) 0.0384(3) 0.6127(3)
F19 F 0.3863(5) 0.0122(3) 0.6723(3)
F20 F 0.3194(5) 0.0581(3) 0.6500(3)
B6 B 0.9019(11) 0.0956(6) 0.6380(7)
F21 F 0.9002(5) 0.0703(2) 0.6721(3)
F22 F 0.8504(5) 0.0829(2) 0.6087(3)
F23 F 0.9655(5) 0.0960(2) 0.6235(3)
F24 F 0.8812(5) 0.1287(2) 0.6522(3)
B7 B 0.7093(7) 0.1691(3) 0.9324(4)
F25 F 0.6471(8) 0.1645(5) 0.9100(6)
F26 F 0.7399(10) 0.2016(4) 0.9216(7)
F27 F 0.7546(9) 0.1409(4) 0.9239(7)
F28 F 0.6955(12) 0.1694(6) 0.9741(4)
O1 O 0.4616(10) 0.9414(6) 0.6927(6)
O2 O 0.5653(9) 0.9410(8) 0.6656(8)
N37 N 0.5019(9) 0.9483(7) 0.6650(6)
C181 C 0.4712(15) 0.9639(10) 0.6267(7)
H145 H 0.4266 0.9517 0.6198
H146 H 0.5040 0.9605 0.6040
H147 H 0.4626 0.9899 0.6306
O3 O 0.3730(9) 0.9279(4) -0.0152(3)
O4 O 0.3749(8) 0.9667(3) 0.0355(4)
N38 N 0.3787(8) 0.9357(3) 0.0213(3)
C182 C 0.3969(11) 0.9061(3) 0.0504(4)
H148 H 0.4044 0.8837 0.0349
H149 H 0.3583 0.9026 0.0696
H150 H 0.4401 0.9124 0.0660
O5 O 0.840(2) 0.1283(5) 0.0180(6)
O6 O 0.8296(12) 0.0706(4) 0.0304(6)
N39 N 0.8386(11) 0.1023(4) 0.0413(4)
C183 C 0.8527(13) 0.1093(5) 0.0856(5)
H151 H 0.9009 0.1016 0.0930
H152 H 0.8192 0.0955 0.1020
H153 H 0.8475 0.1352 0.0912
O7 O 0.8556(10) 0.1230(3) 0.2685(5)
O8 O 0.8260(10) 0.1584(4) 0.2171(4)
N40 N 0.8559(9) 0.1521(3) 0.2505(4)
C184 C 0.8948(12) 0.1822(4) 0.2707(6)
H154 H 0.8860 0.1819 0.3005
H155 H 0.8789 0.2053 0.2588
H156 H 0.9454 0.1792 0.2663
O9 O 0.7477(13) 0.1612(6) 0.3255(5)
O10 O 0.7674(11) 0.1494(5) 0.3906(5)
N41 N 0.7456(12) 0.1688(4) 0.3621(5)
C185 C 0.7208(17) 0.2055(5) 0.3727(8)
H157 H 0.7546 0.2236 0.3630
H158 H 0.7167 0.2075 0.4028
H159 H 0.6747 0.2099 0.3593
O11 O 0.5292(9) 0.1566(5) 1.0159(6)
O12 O 0.5461(11) 0.2130(5) 1.0115(7)
N42 N 0.5282(11) 0.1851(5) 0.9958(7)
C186 C 0.5099(14) 0.1874(7) 0.9560(8)
H160 H 0.4616 0.1966 0.9532
H161 H 0.5126 0.1633 0.9432
H162 H 0.5421 0.2040 0.9421
O13 O 0.8587(8) 0.2079(4) 0.6025(5)
O14 O 0.9596(7) 0.1824(7) 0.5911(9)
N43 N 0.8963(7) 0.1871(4) 0.5838(5)
C187 C 0.8617(11) 0.1636(6) 0.5525(6)
H163 H 0.8271 0.1480 0.5658
H164 H 0.8973 0.1484 0.5394
H165 H 0.8379 0.1787 0.5314
O15 O 0.8336(11) 0.2415(5) 0.8655(5)
O16 O 0.8744(9) 0.2580(4) 0.9260(4)
N44 N 0.8684(9) 0.2364(3) 0.8971(4)
C188 C 0.9014(13) 0.2004(4) 0.9025(7)
H166 H 0.8653 0.1815 0.8991
H167 H 0.9232 0.1987 0.9302
H168 H 0.9374 0.1971 0.8816
B8? B 0.7215(12) 0.1741(6) 0.9419(8)
C189? C 0.7244(17) 0.0705(11) 0.3253(8)
F29? F 0.7663(18) 0.1460(8) 0.9323(13)
F30? F 0.7603(18) 0.2051(7) 0.9500(14)
F31? F 0.6753(19) 0.1803(11) 0.9090(11)
F32? F 0.684(2) 0.1649(12) 0.9764(10)
H169? H 0.6758 0.0793 0.3273
H170? H 0.7513 0.0773 0.3504
H171? H 0.7241 0.0440 0.3226
N45? N 0.7572(11) 0.0867(9) 0.2889(6)
O17? O 0.7225(13) 0.0870(8) 0.2567(7)
O18? O 0.8177(11) 0.0985(9) 0.2932(9)
loop_
_geom_bond_atom_site_label_1
_geom_bond_atom_site_label_2
_geom_bond_site_symmetry_1
_geom_bond_site_symmetry_2
Zn1 N1 1_555 1_555
Zn2 N4 1_555 1_555
Zn3 N10 1_555 1_555
Zn4 N16 1_555 1_555
N1 C1 1_555 1_555
C1 C2 1_555 1_555
C2 H1 1_555 1_555
C3 C2 1_555 1_555
H2 C3 1_555 1_555
C4 C3 1_555 1_555
H3 C4 1_555 1_555
C5 N1 1_555 1_555
H4 C5 1_555 1_555
N2 N3 1_555 1_555
N3 Zn1 1_555 1_555
C6 C1 1_555 1_555
C7 C6 1_555 1_555
H5 C7 1_555 1_555
C8 N2 1_555 1_555
H6 C8 1_555 1_555
C9 N2 1_555 1_555
H7 C9 1_555 1_555
H8 C9 1_555 1_555
N4 C10 1_555 1_555
C10 C11 1_555 1_555
C11 H9 1_555 1_555
C12 C11 1_555 1_555
H10 C12 1_555 1_555
C13 C12 1_555 1_555
H11 C13 1_555 1_555
C14 N4 1_555 1_555
H12 C14 1_555 1_555
N5 N6 1_555 1_555
N6 Zn2 1_555 1_555
C15 C10 1_555 1_555
C16 C15 1_555 1_555
H13 C16 1_555 1_555
C17 N5 1_555 1_555
H14 C17 1_555 1_555
C18 N5 1_555 1_555
H15 C18 1_555 1_555
H16 C18 1_555 1_555
C19 C20 1_555 1_555
C20 H17 1_555 1_555
C21 C9 1_555 1_555
C22 C21 1_555 1_555
H18 C22 1_555 1_555
C23 C22 1_555 1_555
H19 C23 1_555 1_555
C24 C19 1_555 1_555
H20 C24 1_555 1_555
C25 C19 1_555 1_555
C26 C25 1_555 1_555
H21 C26 1_555 1_555
C27 C18 1_555 1_555
C28 C27 1_555 1_555
H22 C28 1_555 1_555
C29 C28 1_555 1_555
H23 C29 1_555 1_555
C30 C25 1_555 1_555
H24 C30 1_555 1_555
N7 Zn1 1_555 1_555
C31 N7 1_555 1_555
C32 C31 1_555 1_555
H25 C32 1_555 1_555
C33 C32 1_555 1_555
H26 C33 1_555 1_555
C34 C33 1_555 1_555
H27 C34 1_555 1_555
C35 N7 1_555 1_555
H28 C35 1_555 1_555
N8 N9 1_555 1_555
N9 Zn1 1_555 1_555
C36 C31 1_555 1_555
C37 C36 1_555 1_555
H29 C37 1_555 1_555
C38 N8 1_555 1_555
H30 C38 1_555 1_555
C39 N8 1_555 1_555
H31 C39 1_555 1_555
H32 C39 1_555 1_555
N10 C40 1_555 1_555
C40 C41 1_555 1_555
C41 H33 1_555 1_555
C42 C41 1_555 1_555
H34 C42 1_555 1_555
C43 C42 1_555 1_555
H35 C43 1_555 1_555
C44 N10 1_555 1_555
H36 C44 1_555 1_555
N11 N12 1_555 1_555
N12 Zn3 1_555 1_555
C45 C40 1_555 1_555
C46 C45 1_555 1_555
H37 C46 1_555 1_555
C47 N11 1_555 1_555
H38 C47 1_555 1_555
C48 N11 1_555 1_555
H39 C48 1_555 1_555
H40 C48 1_555 1_555
C49 C50 1_555 1_555
C50 H41 1_555 1_555
C51 C39 1_555 1_555
C52 C51 1_555 1_555
H42 C52 1_555 1_555
C53 C52 1_555 1_555
H43 C53 1_555 1_555
C54 C49 1_555 1_555
H44 C54 1_555 1_555
C55 C49 1_555 1_555
C56 C55 1_555 1_555
H45 C56 1_555 1_555
C57 C48 1_555 1_555
C58 C57 1_555 1_555
H46 C58 1_555 1_555
C59 C58 1_555 1_555
H47 C59 1_555 1_555
C60 C55 1_555 1_555
H48 C60 1_555 1_555
N13 Zn1 1_555 1_555
C61 N13 1_555 1_555
C62 C61 1_555 1_555
H49 C62 1_555 1_555
C63 C62 1_555 1_555
H50 C63 1_555 1_555
C64 C63 1_555 1_555
H51 C64 1_555 1_555
C65 N13 1_555 1_555
H52 C65 1_555 1_555
N14 N15 1_555 1_555
N15 Zn1 1_555 1_555
C66 C61 1_555 1_555
C67 C66 1_555 1_555
H53 C67 1_555 1_555
C68 N14 1_555 1_555
H54 C68 1_555 1_555
C69 N14 1_555 1_555
H55 C69 1_555 1_555
H56 C69 1_555 1_555
N16 C70 1_555 1_555
C70 C71 1_555 1_555
C71 H57 1_555 1_555
C72 C71 1_555 1_555
H58 C72 1_555 1_555
C73 C72 1_555 1_555
H59 C73 1_555 1_555
C74 N16 1_555 1_555
H60 C74 1_555 1_555
N17 N18 1_555 1_555
N18 Zn4 1_555 1_555
C75 C70 1_555 1_555
C76 C75 1_555 1_555
H61 C76 1_555 1_555
C77 N17 1_555 1_555
H62 C77 1_555 1_555
C78 N17 1_555 1_555
H63 C78 1_555 1_555
H64 C78 1_555 1_555
C79 C80 1_555 1_555
C80 H65 1_555 1_555
C81 C69 1_555 1_555
C82 C81 1_555 1_555
H66 C82 1_555 1_555
C83 C82 1_555 1_555
H67 C83 1_555 1_555
C84 C79 1_555 1_555
H68 C84 1_555 1_555
C85 C79 1_555 1_555
C86 C85 1_555 1_555
H69 C86 1_555 1_555
C87 C78 1_555 1_555
C88 C87 1_555 1_555
H70 C88 1_555 1_555
C89 C88 1_555 1_555
H71 C89 1_555 1_555
C90 C85 1_555 1_555
H72 C90 1_555 1_555
N19 Zn2 1_555 1_555
C91 N19 1_555 1_555
C92 C91 1_555 1_555
H73 C92 1_555 1_555
C93 C92 1_555 1_555
H74 C93 1_555 1_555
C94 C93 1_555 1_555
H75 C94 1_555 1_555
C95 N19 1_555 1_555
H76 C95 1_555 1_555
N20 N21 1_555 1_555
N21 Zn2 1_555 1_555
C96 C91 1_555 1_555
C97 C96 1_555 1_555
H77 C97 1_555 1_555
C98 N20 1_555 1_555
H78 C98 1_555 1_555
C99 N20 1_555 1_555
H79 C99 1_555 1_555
H80 C99 1_555 1_555
N22 Zn3 1_555 1_555
C100 N22 1_555 1_555
C101 C100 1_555 1_555
H81 C101 1_555 1_555
C102 C101 1_555 1_555
H82 C102 1_555 1_555
C103 C102 1_555 1_555
H83 C103 1_555 1_555
C104 N22 1_555 1_555
H84 C104 1_555 1_555
N23 N24 1_555 1_555
N24 Zn3 1_555 1_555
C105 C100 1_555 1_555
C106 C105 1_555 1_555
H85 C106 1_555 1_555
C107 N23 1_555 1_555
H86 C107 1_555 1_555
C108 N23 1_555 1_555
H87 C108 1_555 1_555
H88 C108 1_555 1_555
C109 C110 1_555 1_555
C110 H89 1_555 1_555
C111 C99 1_555 1_555
C112 C111 1_555 1_555
H90 C112 1_555 1_555
C113 C112 1_555 1_555
H91 C113 1_555 1_555
C114 C109 1_555 1_555
H92 C114 1_555 1_555
C115 C109 1_555 1_555
C116 C115 1_555 1_555
H93 C116 1_555 1_555
C117 C108 1_555 1_555
C118 C117 1_555 1_555
H94 C118 1_555 1_555
C119 C118 1_555 1_555
H95 C119 1_555 1_555
C120 C115 1_555 1_555
H96 C120 1_555 1_555
N25 Zn2 1_555 1_555
C121 N25 1_555 1_555
C122 C121 1_555 1_555
H97 C122 1_555 1_555
C123 C122 1_555 1_555
H98 C123 1_555 1_555
C124 C123 1_555 1_555
H99 C124 1_555 1_555
C125 N25 1_555 1_555
H100 C125 1_555 1_555
N26 N27 1_555 1_555
N27 Zn2 1_555 1_555
C126 C121 1_555 1_555
C127 C126 1_555 1_555
H101 C127 1_555 1_555
C128 N26 1_555 1_555
H102 C128 1_555 1_555
C129 N26 1_555 1_555
H103 C129 1_555 1_555
H104 C129 1_555 1_555
N28 Zn4 1_555 1_555
C130 N28 1_555 1_555
C131 C130 1_555 1_555
H105 C131 1_555 1_555
C132 C131 1_555 1_555
H106 C132 1_555 1_555
C133 C132 1_555 1_555
H107 C133 1_555 1_555
C134 N28 1_555 1_555
H108 C134 1_555 1_555
N29 N30 1_555 1_555
N30 Zn4 1_555 1_555
C135 C130 1_555 1_555
C136 C135 1_555 1_555
H109 C136 1_555 1_555
C137 N29 1_555 1_555
H110 C137 1_555 1_555
C138 N29 1_555 1_555
H111 C138 1_555 1_555
H112 C138 1_555 1_555
C139 C140 1_555 1_555
C140 H113 1_555 1_555
C141 C129 1_555 1_555
C142 C141 1_555 1_555
H114 C142 1_555 1_555
C143 C142 1_555 1_555
H115 C143 1_555 1_555
C144 C139 1_555 1_555
H116 C144 1_555 1_555
C145 C139 1_555 1_555
C146 C145 1_555 1_555
H117 C146 1_555 1_555
C147 C138 1_555 1_555
C148 C147 1_555 1_555
H118 C148 1_555 1_555
C149 C148 1_555 1_555
H119 C149 1_555 1_555
C150 C145 1_555 1_555
H120 C150 1_555 1_555
N31 Zn3 1_555 1_555
C151 N31 1_555 1_555
C152 C151 1_555 1_555
H121 C152 1_555 1_555
C153 C152 1_555 1_555
H122 C153 1_555 1_555
C154 C153 1_555 1_555
H123 C154 1_555 1_555
C155 N31 1_555 1_555
H124 C155 1_555 1_555
N32 N33 1_555 1_555
N33 Zn3 1_555 1_555
C156 C151 1_555 1_555
C157 C156 1_555 1_555
H125 C157 1_555 1_555
C158 N32 1_555 1_555
H126 C158 1_555 1_555
C159 N32 1_555 1_555
H127 C159 1_555 1_555
H128 C159 1_555 1_555
N34 Zn4 1_555 1_555
C160 N34 1_555 1_555
C161 C160 1_555 1_555
H129 C161 1_555 1_555
C162 C161 1_555 1_555
H130 C162 1_555 1_555
C163 C162 1_555 1_555
H131 C163 1_555 1_555
C164 N34 1_555 1_555
H132 C164 1_555 1_555
N35 N36 1_555 1_555
N36 Zn4 1_555 1_555
C165 C160 1_555 1_555
C166 C165 1_555 1_555
H133 C166 1_555 1_555
C167 N35 1_555 1_555
H134 C167 1_555 1_555
C168 N35 1_555 1_555
H135 C168 1_555 1_555
H136 C168 1_555 1_555
C169 C170 1_555 1_555
C170 H137 1_555 1_555
C171 C159 1_555 1_555
C172 C171 1_555 1_555
H138 C172 1_555 1_555
C173 C172 1_555 1_555
H139 C173 1_555 1_555
C174 C169 1_555 1_555
H140 C174 1_555 1_555
C175 C169 1_555 1_555
C176 C175 1_555 1_555
H141 C176 1_555 1_555
C177 C168 1_555 1_555
C178 C177 1_555 1_555
H142 C178 1_555 1_555
C179 C178 1_555 1_555
H143 C179 1_555 1_555
C180 C175 1_555 1_555
H144 C180 1_555 1_555
B1 F1 1_555 1_555
F2 B1 1_555 1_555
F3 B1 1_555 1_555
F4 B1 1_555 1_555
B2 F5 1_555 1_555
F6 B2 1_555 1_555
F7 B2 1_555 1_555
F8 B2 1_555 1_555
B3 F9 1_555 1_555
F10 B3 1_555 1_555
F11 B3 1_555 1_555
F12 B3 1_555 1_555
B4 F13 1_555 1_555
F14 B4 1_555 1_555
F15 B4 1_555 1_555
F16 B4 1_555 1_555
B5 F17 1_555 1_555
F18 B5 1_555 1_555
F19 B5 1_555 1_555
F20 B5 1_555 1_555
B6 F21 1_555 1_555
F22 B6 1_555 1_555
F23 B6 1_555 1_555
F24 B6 1_555 1_555
B7 F25 1_555 1_555
F26 B7 1_555 1_555
F27 B7 1_555 1_555
F28 B7 1_555 1_555
O1 N37 1_555 1_555
O2 N37 1_555 1_555
N37 C181 1_555 1_555
C181 H145 1_555 1_555
H146 C181 1_555 1_555
H147 C181 1_555 1_555
O3 N38 1_555 1_555
O4 N38 1_555 1_555
N38 C182 1_555 1_555
C182 H148 1_555 1_555
H149 C182 1_555 1_555
H150 C182 1_555 1_555
O5 N39 1_555 1_555
O6 N39 1_555 1_555
N39 C183 1_555 1_555
C183 H151 1_555 1_555
H152 C183 1_555 1_555
H153 C183 1_555 1_555
O7 N40 1_555 1_555
O8 N40 1_555 1_555
N40 C184 1_555 1_555
C184 H154 1_555 1_555
H155 C184 1_555 1_555
H156 C184 1_555 1_555
O9 N41 1_555 1_555
O10 N41 1_555 1_555
N41 C185 1_555 1_555
C185 H157 1_555 1_555
H158 C185 1_555 1_555
H159 C185 1_555 1_555
O11 N42 1_555 1_555
O12 N42 1_555 1_555
N42 C186 1_555 1_555
C186 H160 1_555 1_555
H161 C186 1_555 1_555
H162 C186 1_555 1_555
O13 N43 1_555 1_555
O14 N43 1_555 1_555
N43 C187 1_555 1_555
C187 H163 1_555 1_555
H164 C187 1_555 1_555
H165 C187 1_555 1_555
O15 N44 1_555 1_555
O16 N44 1_555 1_555
N44 C188 1_555 1_555
C188 H166 1_555 1_555
H167 C188 1_555 1_555
H168 C188 1_555 1_555
C4 C5 1_555 1_555
N3 C6 1_555 1_555
C7 C8 1_555 1_555
C13 C14 1_555 1_555
N6 C15 1_555 1_555
C16 C17 1_555 1_555
C20 C21 1_555 1_555
C23 C24 1_555 1_555
C26 C27 1_555 1_555
C29 C30 1_555 1_555
C34 C35 1_555 1_555
N9 C36 1_555 1_555
C37 C38 1_555 1_555
C43 C44 1_555 1_555
N12 C45 1_555 1_555
C46 C47 1_555 1_555
C50 C51 1_555 1_555
C53 C54 1_555 1_555
C56 C57 1_555 1_555
C59 C60 1_555 1_555
C64 C65 1_555 1_555
N15 C66 1_555 1_555
C67 C68 1_555 1_555
C73 C74 1_555 1_555
N18 C75 1_555 1_555
C76 C77 1_555 1_555
C80 C81 1_555 1_555
C83 C84 1_555 1_555
C86 C87 1_555 1_555
C89 C90 1_555 1_555
C94 C95 1_555 1_555
N21 C96 1_555 1_555
C97 C98 1_555 1_555
C103 C104 1_555 1_555
N24 C105 1_555 1_555
C106 C107 1_555 1_555
C110 C111 1_555 1_555
C113 C114 1_555 1_555
C116 C117 1_555 1_555
C119 C120 1_555 1_555
C124 C125 1_555 1_555
N27 C126 1_555 1_555
C127 C128 1_555 1_555
C133 C134 1_555 1_555
N30 C135 1_555 1_555
C136 C137 1_555 1_555
C140 C141 1_555 1_555
C143 C144 1_555 1_555
C146 C147 1_555 1_555
C149 C150 1_555 1_555
C154 C155 1_555 1_555
N33 C156 1_555 1_555
C157 C158 1_555 1_555
C163 C164 1_555 1_555
N36 C165 1_555 1_555
C166 C167 1_555 1_555
C170 C171 1_555 1_555
C173 C174 1_555 1_555
C176 C177 1_555 1_555
C179 C180 1_555 1_555

#END
