
#######################################################################
#
#                 Cambridge Crystallographic Data Centre
#                                CCDC 
#
#######################################################################
#
# If this CIF has been generated from an entry in the Cambridge 
# Structural Database, then it will include bibliographic, chemical, 
# crystal, experimental, refinement or atomic coordinate data resulting 
# from the CCDC's data processing and validation procedures.
#
#######################################################################

data_BALGOM
_chemical_formula_moiety         
'C180 H144 Cd4 N36 8+,5(C1 H3 N1 O2),8(B1 F4 1-)'
_chemical_name_systematic        
"hexakis(\m~2~-2,2'-(biphenyl-3,3'-diylbis(methylene-1H-pyrazole-1,3-diyl))dipyridine)-tetra-cadmium(ii) octakis(tetrafluoroborate) nitromethane solvate"
_symmetry_cell_setting           triclinic
_symmetry_space_group_name_H-M   'P -1'
_symmetry_Int_Tables_number      2
_space_group_name_Hall           '-P 1'
loop_
_symmetry_equiv_pos_site_id
_symmetry_equiv_pos_as_xyz
1 x,y,z
2 -x,-y,-z
_cell_length_a                   18.9821(6)
_cell_length_b                   19.2984(7)
_cell_length_c                   30.8148(10)
_cell_angle_alpha                86.206(2)
_cell_angle_beta                 86.115(2)
_cell_angle_gamma                65.108(2)
_cell_volume                     10207.2
_exptl_crystal_colour            colorless
_exptl_crystal_description       block
_cell_formula_units_Z            2
loop_
_atom_site_label
_atom_site_type_symbol
_atom_site_fract_x
_atom_site_fract_y
_atom_site_fract_z
Cd1 Cd 0.88218(2) 0.83778(2) 0.472204(13)
Cd2 Cd 1.05947(3) 1.03614(4) 0.128473(15)
Cd3 Cd 0.43139(2) 1.38427(3) 0.293709(17)
Cd4 Cd 0.58325(3) 0.76022(3) 0.171271(15)
N1 N 0.8162(3) 0.8889(3) 0.53899(18)
C1 C 0.7732(4) 0.9647(4) 0.5384(2)
C2 C 0.7253(4) 0.9990(4) 0.5764(2)
H1 H 0.6940 1.0525 0.5762
C3 C 0.7251(4) 0.9554(4) 0.6120(2)
H2 H 0.6946 0.9782 0.6372
C4 C 0.7692(4) 0.8771(4) 0.6122(2)
H3 H 0.7687 0.8450 0.6369
C5 C 0.8143(4) 0.8477(4) 0.5747(2)
H4 H 0.8458 0.7942 0.5747
N2 N 0.8118(3) 1.0260(3) 0.43432(18)
N3 N 0.8189(3) 0.9712(3) 0.46406(18)
C6 C 0.7765(4) 1.0085(4) 0.5005(2)
C7 C 0.7437(4) 1.0880(4) 0.4908(2)
H5 H 0.7118 1.1275 0.5095
C8 C 0.7675(4) 1.0955(4) 0.4493(2)
H6 H 0.7550 1.1426 0.4332
C9 C 0.8560(4) 1.0092(4) 0.3934(2)
H7 H 0.8298 1.0512 0.3719
H8 H 0.8564 0.9618 0.3827
N4 N 1.1588(3) 1.0365(3) 0.07757(17)
C10 C 1.2312(3) 0.9751(3) 0.08040(18)
C11 C 1.2923(3) 0.9721(3) 0.0519(2)
H9 H 1.3418 0.9301 0.0538
C12 C 1.2810(3) 1.0306(4) 0.02059(19)
H10 H 1.3228 1.0286 0.0011
C13 C 1.2086(4) 1.0921(3) 0.01777(18)
H11 H 1.2009 1.1320 -0.0036
C14 C 1.1475(3) 1.0950(3) 0.0463(2)
H12 H 1.0981 1.1370 0.0443
N5 N 1.2051(5) 0.8764(5) 0.1733(3)
N6 N 1.1794(4) 0.9329(5) 0.1448(3)
C15 C 1.2382(6) 0.9220(6) 0.1155(3)
C16 C 1.3021(6) 0.8600(6) 0.1287(3)
H13 H 1.3525 0.8416 0.1148
C17 C 1.2818(6) 0.8304(6) 0.1643(3)
H14 H 1.3138 0.7859 0.1806
C18 C 1.1559(5) 0.8754(6) 0.2123(3)
H15 H 1.1794 0.8246 0.2276
H16 H 1.1040 0.8831 0.2031
C19 C 1.0519(4) 0.9968(5) 0.3569(2)
C20 C 0.9753(4) 1.0036(5) 0.3573(2)
H17 H 0.9493 1.0112 0.3309
C21 C 0.9392(4) 0.9991(4) 0.3964(2)
C22 C 0.9727(4) 0.9979(4) 0.4346(2)
H18 H 0.9431 1.0023 0.4612
C23 C 1.0482(4) 0.9904(5) 0.4357(2)
H19 H 1.0718 0.9859 0.4625
C24 C 1.0877(4) 0.9897(5) 0.3967(2)
H20 H 1.1399 0.9843 0.3965
C25 C 1.0958(3) 0.9946(3) 0.31485(14)
C26 C 1.1021(3) 0.9433(3) 0.28362(17)
H21 H 1.0763 0.9104 0.2885
C27 C 1.1460(3) 0.9401(3) 0.24522(16)
C28 C 1.1836(3) 0.9882(4) 0.23803(14)
H22 H 1.2137 0.9860 0.2118
C29 C 1.1774(3) 1.0395(3) 0.26925(17)
H23 H 1.2031 1.0724 0.2643
C30 C 1.1335(3) 1.0427(3) 0.30766(16)
H24 H 1.1292 1.0778 0.3290
N7 N 0.9070(3) 0.7106(3) 0.49603(17)
C31 C 0.8581(4) 0.6834(4) 0.4832(2)
C32 C 0.8656(4) 0.6089(4) 0.4963(2)
H25 H 0.8314 0.5894 0.4863
C33 C 0.9239(4) 0.5655(4) 0.5238(2)
H26 H 0.9285 0.5166 0.5345
C34 C 0.9761(4) 0.5937(4) 0.5359(2)
H27 H 1.0185 0.5634 0.5535
C35 C 0.9647(4) 0.6647(4) 0.5219(2)
H28 H 0.9996 0.6842 0.5308
N8 N 0.7962(3) 0.7328(3) 0.45627(15)
N9 N 0.7872(2) 0.8052(3) 0.44665(14)
C36 C 0.7233(3) 0.8372(3) 0.42231(16)
C37 C 0.6919(3) 0.7886(3) 0.41763(17)
H29 H 0.6458 0.7997 0.4028
C38 C 0.7364(3) 0.7200(3) 0.43754(18)
H30 H 0.7291 0.6741 0.4386
C39 C 0.6902(3) 0.9195(3) 0.41083(16)
H31 H 0.6580 0.9294 0.3852
H32 H 0.7332 0.9347 0.4024
N10 N 0.3496(4) 1.5195(4) 0.2962(2)
C40 C 0.3552(5) 1.5568(5) 0.3296(3)
C41 C 0.3125(5) 1.6322(5) 0.3326(3)
H33 H 0.3214 1.6582 0.3553
C42 C 0.2588(5) 1.6706(6) 0.3050(3)
H34 H 0.2255 1.7228 0.3093
C43 C 0.2513(5) 1.6378(6) 0.2722(3)
H35 H 0.2147 1.6667 0.2512
C44 C 0.2975(5) 1.5574(5) 0.2667(3)
H36 H 0.2910 1.5324 0.2427
N11 N 0.5026(3) 1.4130(3) 0.38988(19)
N12 N 0.4552(3) 1.4363(3) 0.3559(2)
C45 C 0.4128(4) 1.5122(4) 0.3597(3)
C46 C 0.4359(4) 1.5356(4) 0.3981(3)
H37 H 0.4158 1.5852 0.4093
C47 C 0.4929(4) 1.4702(4) 0.4144(2)
H38 H 0.5211 1.4664 0.4395
C48 C 0.5503(3) 1.3324(4) 0.3983(2)
H39 H 0.5952 1.3267 0.4151
H40 H 0.5706 1.3076 0.3703
C49 C 0.5509(3) 1.0947(3) 0.46957(17)
C50 C 0.5986(3) 1.0449(3) 0.43774(17)
H41 H 0.6015 1.0645 0.4089
C51 C 0.6409(3) 0.9685(3) 0.44741(16)
C52 C 0.6352(3) 0.9386(3) 0.48969(16)
H42 H 0.6633 0.8855 0.4964
C53 C 0.5888(3) 0.9862(3) 0.52139(17)
H43 H 0.5858 0.9663 0.5502
C54 C 0.5465(3) 1.0630(3) 0.51134(17)
H44 H 0.5137 1.0951 0.5333
C55 C 0.5085(3) 1.1759(3) 0.45850(18)
C56 C 0.5428(3) 1.2157(4) 0.43308(18)
H45 H 0.5945 1.1887 0.4218
C57 C 0.5059(3) 1.2920(4) 0.4235(2)
C58 C 0.4278(3) 1.3337(4) 0.4382(2)
H46 H 0.4003 1.3867 0.4310
C59 C 0.3931(3) 1.2930(4) 0.4638(2)
H47 H 0.3405 1.3192 0.4737
C60 C 0.4313(3) 1.2182(4) 0.47500(19)
H48 H 0.4065 1.1937 0.4940
N13 N 1.0007(3) 0.8228(3) 0.49983(18)
C61 C 1.0609(4) 0.8032(4) 0.4708(2)
C62 C 1.1363(4) 0.7832(4) 0.4848(2)
H49 H 1.1792 0.7702 0.4643
C63 C 1.1472(4) 0.7829(4) 0.5295(2)
H50 H 1.1979 0.7676 0.5397
C64 C 1.0852(4) 0.8043(4) 0.5576(2)
H51 H 1.0912 0.8056 0.5879
C65 C 1.0122(4) 0.8245(4) 0.5416(2)
H52 H 0.9684 0.8403 0.5615
N14 N 1.0481(2) 0.8007(3) 0.42788(10)
N15 N 0.97334(18) 0.8097(3) 0.41656(11)
C66 C 0.9758(2) 0.8006(3) 0.37104(11)
C67 C 1.0520(2) 0.7861(3) 0.35424(10)
H53 H 1.0700 0.7777 0.3247
C68 C 1.09669(17) 0.7861(3) 0.38937(13)
H54 H 1.1498 0.7778 0.3874
C69 C 0.9162(3) 0.7946(4) 0.3510(2)
H55 H 0.9206 0.8065 0.3194
H56 H 0.8662 0.8335 0.3625
N16 N 0.5116(3) 0.7004(3) 0.14223(14)
C70 C 0.4784(3) 0.6631(3) 0.17117(10)
C71 C 0.4394(3) 0.6237(3) 0.15554(14)
H57 H 0.4167 0.5982 0.1753
C72 C 0.4335(3) 0.6216(3) 0.11097(15)
H58 H 0.4068 0.5947 0.1003
C73 C 0.4667(3) 0.6589(3) 0.08203(11)
H59 H 0.4627 0.6575 0.0516
C74 C 0.5058(3) 0.6983(3) 0.09766(13)
H60 H 0.5285 0.7238 0.0779
N17 N 0.5344(3) 0.6922(3) 0.27166(17)
N18 N 0.5329(3) 0.7019(3) 0.22798(18)
C75 C 0.4903(4) 0.6667(4) 0.2162(2)
C76 C 0.4648(4) 0.6338(4) 0.2517(2)
H61 H 0.4347 0.6050 0.2518
C77 C 0.4935(4) 0.6525(4) 0.2869(2)
H62 H 0.4858 0.6396 0.3166
C78 C 0.5853(3) 0.7133(4) 0.2962(2)
H63 H 0.5672 0.7175 0.3272
H64 H 0.5814 0.7641 0.2852
C79 C 0.8570(3) 0.6334(4) 0.3397(2)
C80 C 0.8595(3) 0.7037(4) 0.33703(19)
H65 H 0.8216 0.7442 0.3208
C81 C 0.9147(3) 0.7180(4) 0.3568(2)
C82 C 0.9698(4) 0.6577(4) 0.3814(2)
H66 H 1.0086 0.6657 0.3954
C83 C 0.9675(4) 0.5876(4) 0.3852(2)
H67 H 1.0047 0.5474 0.4019
C84 C 0.9113(4) 0.5746(4) 0.3649(2)
H68 H 0.9097 0.5259 0.3680
C85 C 0.7999(3) 0.6176(4) 0.3159(2)
C86 C 0.7220(3) 0.6708(4) 0.31504(19)
H69 H 0.7058 0.7170 0.3299
C87 C 0.6681(3) 0.6571(4) 0.2929(2)
C88 C 0.6924(4) 0.5900(4) 0.2709(2)
H70 H 0.6561 0.5806 0.2551
C89 C 0.7700(4) 0.5358(4) 0.2715(2)
H71 H 0.7863 0.4892 0.2570
C90 C 0.8234(4) 0.5516(4) 0.2940(2)
H72 H 0.8764 0.5159 0.2940
N19 N 1.0302(4) 0.9481(5) 0.09278(18)
C91 C 0.9727(4) 0.9802(6) 0.0631(2)
C92 C 0.9498(5) 0.9331(6) 0.0406(2)
H73 H 0.9092 0.9551 0.0207
C93 C 0.9849(5) 0.8571(6) 0.0470(2)
H74 H 0.9697 0.8247 0.0317
C94 C 1.0441(5) 0.8260(6) 0.0764(2)
H75 H 1.0718 0.7722 0.0806
C95 C 1.0613(5) 0.8753(6) 0.0989(2)
H76 H 1.0988 0.8541 0.1205
N20 N 0.9236(3) 1.1815(3) 0.06349(16)
N21 N 0.9658(2) 1.1042(3) 0.07777(14)
C96 C 0.9388(3) 1.0584(3) 0.05567(17)
C97 C 0.8799(3) 1.1074(4) 0.02773(16)
H77 H 0.8518 1.0919 0.0091
C98 C 0.8705(3) 1.1835(3) 0.03257(17)
H78 H 0.8350 1.2279 0.0177
C99 C 0.9321(5) 1.2390(6) 0.0820(3)
H79 H 0.9166 1.2835 0.0610
H80 H 0.9879 1.2224 0.0872
N22 N 0.3374(2) 1.3549(2) 0.32999(14)
C100 C 0.3613(2) 1.2790(2) 0.34447(16)
C101 C 0.3119(3) 1.2570(2) 0.37144(17)
H81 H 0.3283 1.2052 0.3813
C102 C 0.2385(2) 1.3110(3) 0.38393(17)
H82 H 0.2048 1.2960 0.4024
C103 C 0.2146(2) 1.3869(3) 0.36944(18)
H83 H 0.1644 1.4238 0.3780
C104 C 0.2640(2) 1.4089(2) 0.34247(17)
H84 H 0.2476 1.4607 0.3326
N23 N 0.5554(3) 1.1909(3) 0.30510(18)
N24 N 0.4888(3) 1.2543(3) 0.31372(18)
C105 C 0.4383(4) 1.2271(4) 0.3311(2)
C106 C 0.4705(4) 1.1481(4) 0.3338(2)
H85 H 0.4466 1.1156 0.3446
C107 C 0.5462(4) 1.1274(4) 0.3170(2)
H86 H 0.5848 1.0766 0.3144
C108 C 0.6280(4) 1.1981(4) 0.2915(2)
H87 H 0.6724 1.1502 0.3003
H88 H 0.6302 1.2399 0.3075
C109 C 0.7809(5) 1.2684(5) 0.1744(3)
C110 C 0.8230(5) 1.2454(5) 0.1345(3)
H89 H 0.8085 1.2177 0.1152
C111 C 0.8874(5) 1.2637(6) 0.1230(3)
C112 C 0.9051(5) 1.3066(5) 0.1512(3)
H90 H 0.9453 1.3225 0.1428
C113 C 0.8672(5) 1.3268(5) 0.1904(3)
H91 H 0.8839 1.3520 0.2101
C114 C 0.8024(5) 1.3098(5) 0.2014(3)
H92 H 0.7732 1.3272 0.2279
C115 C 0.7143(4) 1.2465(5) 0.1872(2)
C116 C 0.6983(4) 1.2340(4) 0.2306(2)
H93 H 0.7291 1.2392 0.2521
C117 C 0.6379(4) 1.2140(4) 0.2431(2)
C118 C 0.5932(4) 1.2054(4) 0.2117(2)
H94 H 0.5534 1.1888 0.2197
C119 C 0.6078(4) 1.2215(5) 0.1689(2)
H95 H 0.5755 1.2186 0.1475
C120 C 0.6674(4) 1.2417(5) 0.1559(3)
H96 H 0.6764 1.2522 0.1260
N25 N 1.0724(3) 1.1281(3) 0.16665(14)
C121 C 1.0259(3) 1.1501(3) 0.20450(15)
C122 C 1.0350(3) 1.2002(4) 0.23162(14)
H97 H 1.0032 1.2153 0.2575
C123 C 1.0908(3) 1.2283(3) 0.22089(16)
H98 H 1.0970 1.2625 0.2394
C124 C 1.1373(3) 1.2062(3) 0.18304(17)
H99 H 1.1754 1.2254 0.1757
C125 C 1.1282(3) 1.1561(3) 0.15592(13)
H100 H 1.1600 1.1410 0.1300
N26 N 0.9271(3) 1.0323(4) 0.21114(18)
N27 N 0.9812(3) 1.0529(4) 0.19271(18)
C126 C 0.9749(4) 1.1130(5) 0.2156(2)
C127 C 0.9180(4) 1.1284(5) 0.2484(2)
H101 H 0.9031 1.1668 0.2692
C128 C 0.8877(4) 1.0764(5) 0.2445(2)
H102 H 0.8465 1.0721 0.2620
C129 C 0.9208(4) 0.9622(5) 0.1987(2)
H103 H 0.9043 0.9393 0.2250
H104 H 0.9730 0.9248 0.1889
N28 N 0.4763(3) 0.8753(4) 0.17911(17)
C130 C 0.4585(4) 0.9261(5) 0.1446(2)
C131 C 0.3939(4) 0.9940(5) 0.1457(2)
H105 H 0.3810 1.0280 0.1208
C132 C 0.3476(5) 1.0126(5) 0.1837(2)
H106 H 0.3046 1.0610 0.1858
C133 C 0.3648(4) 0.9593(5) 0.2187(2)
H107 H 0.3320 0.9694 0.2443
C134 C 0.4302(4) 0.8921(5) 0.2152(2)
H108 H 0.4431 0.8562 0.2392
N29 N 0.6052(4) 0.8317(4) 0.06582(18)
N30 N 0.5696(4) 0.8360(4) 0.10599(17)
C135 C 0.5105(4) 0.9033(5) 0.1062(2)
C136 C 0.5076(5) 0.9416(5) 0.0655(2)
H109 H 0.4705 0.9909 0.0567
C137 C 0.5687(5) 0.8937(5) 0.0416(2)
H110 H 0.5829 0.9031 0.0124
C138 C 0.6769(4) 0.7679(5) 0.0542(2)
H111 H 0.6842 0.7676 0.0221
H112 H 0.6729 0.7199 0.0643
C139 C 0.8143(4) 0.9094(5) 0.1175(2)
C140 C 0.8627(4) 0.9077(5) 0.1497(2)
H113 H 0.8951 0.8598 0.1628
C141 C 0.8655(4) 0.9740(5) 0.1637(2)
C142 C 0.8172(4) 1.0439(5) 0.1448(2)
H114 H 0.8181 1.0895 0.1540
C143 C 0.7679(4) 1.0479(5) 0.1130(2)
H115 H 0.7341 1.0963 0.1009
C144 C 0.7672(4) 0.9822(5) 0.0985(2)
H116 H 0.7347 0.9856 0.0756
C145 C 0.8147(4) 0.8390(5) 0.1028(2)
C146 C 0.7476(4) 0.8354(5) 0.0870(2)
H117 H 0.7008 0.8808 0.0859
C147 C 0.7475(4) 0.7698(5) 0.0733(2)
C148 C 0.8162(5) 0.7016(5) 0.0746(2)
H118 H 0.8167 0.6553 0.0656
C149 C 0.8817(5) 0.7031(5) 0.0891(2)
H119 H 0.9283 0.6575 0.0890
C150 C 0.8829(4) 0.7692(5) 0.1040(2)
H120 H 0.9291 0.7676 0.1150
N31 N 0.5290(4) 1.4074(4) 0.2553(2)
C151 C 0.5230(5) 1.4173(5) 0.2118(3)
C152 C 0.5748(5) 1.4401(5) 0.1868(3)
H121 H 0.5710 1.4479 0.1561
C153 C 0.6320(5) 1.4509(5) 0.2078(3)
H122 H 0.6677 1.4660 0.1913
C154 C 0.6367(4) 1.4401(5) 0.2517(3)
H123 H 0.6753 1.4473 0.2665
C155 C 0.5836(4) 1.4186(5) 0.2737(3)
H124 H 0.5864 1.4112 0.3044
N32 N 0.3562(4) 1.3866(5) 0.1924(2)
N33 N 0.4085(4) 1.3899(4) 0.2184(2)
C156 C 0.4600(5) 1.4044(5) 0.1933(3)
C157 C 0.4426(5) 1.4072(6) 0.1486(3)
H125 H 0.4702 1.4156 0.1234
C158 C 0.3790(5) 1.3954(6) 0.1510(3)
H126 H 0.3524 1.3934 0.1264
C159 C 0.2923(5) 1.3703(6) 0.2109(3)
H127 H 0.2523 1.3845 0.1889
H128 H 0.2684 1.4030 0.2361
N34 N 0.7016(4) 0.6545(4) 0.1581(2)
C160 C 0.7643(5) 0.6577(5) 0.1760(2)
C161 C 0.8371(5) 0.5961(6) 0.1731(3)
H129 H 0.8814 0.5974 0.1850
C162 C 0.8420(5) 0.5315(6) 0.1517(3)
H130 H 0.8909 0.4887 0.1490
C163 C 0.7803(5) 0.5289(6) 0.1351(3)
H131 H 0.7840 0.4850 0.1211
C164 C 0.7080(5) 0.5949(5) 0.1394(3)
H132 H 0.6631 0.5944 0.1278
N35 N 0.6884(4) 0.8356(4) 0.22686(18)
N36 N 0.6792(4) 0.7796(4) 0.20654(18)
C165 C 0.7514(4) 0.7275(5) 0.1966(2)
C166 C 0.8067(5) 0.7497(5) 0.2102(2)
H133 H 0.8616 0.7235 0.2067
C167 C 0.7648(4) 0.8177(5) 0.2298(2)
H134 H 0.7859 0.8473 0.2431
C168 C 0.6237(4) 0.8982(5) 0.2457(2)
H135 H 0.6422 0.9160 0.2701
H136 H 0.5853 0.8791 0.2581
C169 C 0.4029(4) 1.1506(5) 0.2242(2)
C170 C 0.3827(4) 1.2267(5) 0.2097(2)
H137 H 0.4154 1.2378 0.1884
C171 C 0.3153(4) 1.2874(6) 0.2259(3)
C172 C 0.2661(5) 1.2668(6) 0.2558(3)
H138 H 0.2193 1.3059 0.2668
C173 C 0.2837(4) 1.1954(6) 0.2687(3)
H139 H 0.2482 1.1845 0.2880
C174 C 0.3529(4) 1.1346(5) 0.2550(2)
H140 H 0.3656 1.0839 0.2663
C175 C 0.4755(4) 1.0879(5) 0.2059(2)
C176 C 0.5148(4) 1.0240(5) 0.2310(2)
H141 H 0.4955 1.0192 0.2598
C177 C 0.5827(4) 0.9657(5) 0.2152(2)
C178 C 0.6109(4) 0.9734(5) 0.1727(2)
H142 H 0.6579 0.9346 0.1616
C179 C 0.5703(4) 1.0373(5) 0.1469(2)
H143 H 0.5884 1.0415 0.1178
C180 C 0.5028(4) 1.0958(5) 0.1634(2)
H144 H 0.4756 1.1405 0.1459
B1 B 0.6501(6) 0.3456(6) 0.5002(3)
F1 F 0.6633(3) 0.2775(3) 0.48296(17)
F2 F 0.6831(4) 0.3851(4) 0.4729(2)
F3 F 0.5713(3) 0.3909(3) 0.50621(18)
F4 F 0.6827(3) 0.3290(3) 0.54155(16)
B2 B 0.7803(5) 0.2432(6) 0.3436(3)
F5 F 0.8524(3) 0.2458(3) 0.33863(17)
F6 F 0.7877(3) 0.1743(3) 0.32783(15)
F7 F 0.7236(3) 0.3038(3) 0.32243(17)
F8 F 0.7593(3) 0.2448(3) 0.38717(16)
B3 B 0.7585(5) 0.9730(5) 0.3044(3)
F9 F 0.8389(2) 0.9562(3) 0.30027(14)
F10 F 0.7532(2) 0.9035(2) 0.31507(12)
F11 F 0.7246(2) 1.0232(2) 0.33717(12)
F12 F 0.7247(3) 1.0044(3) 0.26553(16)
B4 B 0.4846(3) 0.9151(3) 0.35023(12)
F13 F 0.5617(3) 0.8640(4) 0.3474(2)
F14 F 0.4448(4) 0.8856(4) 0.3796(2)
F15 F 0.4537(4) 0.9263(5) 0.30982(16)
F16 F 0.4794(5) 0.9835(3) 0.3645(3)
B5 B 0.0336(8) 0.7576(8) 0.2264(4)
F17 F 0.0830(5) 0.6801(5) 0.2309(3)
F18 F 0.0425(4) 0.7826(4) 0.18338(19)
F19 F -0.0422(4) 0.7711(5) 0.2359(2)
F20 F 0.0563(4) 0.7961(4) 0.2544(2)
B6 B 0.3162(7) 0.1921(7) 0.0796(4)
F21 F 0.2779(4) 0.1653(4) 0.1100(2)
F22 F 0.3762(5) 0.1324(5) 0.0607(3)
F23 F 0.2669(5) 0.2405(6) 0.0486(3)
F24 F 0.3468(7) 0.2367(6) 0.1005(3)
O1 O 0.4455(8) 0.8214(8) 1.0191(4)
O2 O 0.4228(8) 0.9131(7) 0.9708(4)
N37 N 0.4509(6) 0.8438(8) 0.9806(5)
C181 C 0.4904(12) 0.7878(10) 0.9492(6)
H145 H 0.4545 0.7917 0.9268
H146 H 0.5093 0.7367 0.9636
H147 H 0.5345 0.7963 0.9358
O3 O 0.8734(7) 0.4277(8) 0.5520(4)
O4 O 0.7629(7) 0.5277(6) 0.5404(4)
N38 N 0.8030(8) 0.4596(8) 0.5500(3)
C182 C 0.7616(10) 0.4123(10) 0.5589(6)
H148 H 0.7864 0.3659 0.5423
H149 H 0.7076 0.4406 0.5505
H150 H 0.7624 0.3983 0.5901
O5 O 0.8595(7) 0.4085(8) 0.4486(4)
O6 O 0.7747(6) 0.5136(6) 0.4243(4)
N39 N 0.8113(6) 0.4460(7) 0.4214(4)
C183 C 0.7981(11) 0.4060(10) 0.3865(5)
H151 H 0.7425 0.4282 0.3808
H152 H 0.8155 0.3517 0.3951
H153 H 0.8275 0.4112 0.3600
O7 O 0.3973(4) 0.4328(4) 0.6230(2)
O8 O 0.3845(4) 0.3392(4) 0.5953(2)
N40 N 0.3916(3) 0.3999(4) 0.5920(3)
C184 C 0.3932(6) 0.4335(6) 0.5480(3)
H154 H 0.3984 0.4816 0.5498
H155 H 0.3449 0.4434 0.5340
H156 H 0.4375 0.3979 0.5308
O9 O 0.5694(4) 0.2880(4) 0.6104(2)
O10 O 0.6710(4) 0.1941(4) 0.5831(2)
N41 N 0.6003(5) 0.2396(4) 0.5842(2)
C185 C 0.5519(5) 0.2324(6) 0.5507(3)
H157 H 0.4969 0.2626 0.5585
H158 H 0.5616 0.1786 0.5490
H159 H 0.5652 0.2513 0.5224
O11 O 0.2356(6) 0.8190(7) 0.3247(4)
O12 O 0.3167(7) 0.8071(7) 0.2699(3)
N42 N 0.2902(6) 0.8297(5) 0.3049(4)
C186 C 0.3222(9) 0.8728(10) 0.3286(5)
H160 H 0.3745 0.8631 0.3166
H161 H 0.3250 0.8564 0.3595
H162 H 0.2886 0.9276 0.3256
O13 O 0.0794(11) 0.2577(10) 0.0176(6)
O14 O 0.0987(11) 0.2764(10) 0.0835(5)
N43 N 0.0925(7) 0.2932(10) 0.0452(6)
C187 C 0.1002(16) 0.3634(12) 0.0285(8)
H163 H 0.1039 0.3914 0.0530
H164 H 0.0546 0.3957 0.0120
H165 H 0.1472 0.3496 0.0095
O15 O 0.2115(10) 0.6996(9) 0.1301(6)
O16 O 0.2739(10) 0.5940(10) 0.1664(6)
N44 N 0.2196(10) 0.6361(11) 0.1442(5)
C188 C 0.1599(13) 0.6106(14) 0.1338(9)
H166 H 0.1642 0.6011 0.1026
H167 H 0.1082 0.6503 0.1410
H168 H 0.1674 0.5633 0.1507
F25? F 0.5616(4) 0.9035(7) 0.3488(3)
F26? F 0.4690(6) 0.8793(5) 0.3874(2)
F27? F 0.4712(6) 0.8849(6) 0.3139(2)
F28? F 0.4381(6) 0.9926(3) 0.3504(3)
F29? F 0.3910(9) 0.1438(15) 0.0713(9)
F30? F 0.2749(15) 0.203(2) 0.0406(5)
F31? F 0.308(2) 0.2633(12) 0.0917(9)
loop_
_geom_bond_atom_site_label_1
_geom_bond_atom_site_label_2
_geom_bond_site_symmetry_1
_geom_bond_site_symmetry_2
Cd1 N1 1_555 1_555
Cd2 N4 1_555 1_555
Cd3 N10 1_555 1_555
Cd4 N16 1_555 1_555
N1 C1 1_555 1_555
C1 C2 1_555 1_555
C2 H1 1_555 1_555
C3 C2 1_555 1_555
H2 C3 1_555 1_555
C4 C3 1_555 1_555
H3 C4 1_555 1_555
C5 N1 1_555 1_555
H4 C5 1_555 1_555
N2 N3 1_555 1_555
N3 Cd1 1_555 1_555
C6 C1 1_555 1_555
C7 C6 1_555 1_555
H5 C7 1_555 1_555
C8 N2 1_555 1_555
H6 C8 1_555 1_555
C9 N2 1_555 1_555
H7 C9 1_555 1_555
H8 C9 1_555 1_555
N4 C10 1_555 1_555
C10 C11 1_555 1_555
C11 H9 1_555 1_555
C12 C11 1_555 1_555
H10 C12 1_555 1_555
C13 C12 1_555 1_555
H11 C13 1_555 1_555
C14 N4 1_555 1_555
H12 C14 1_555 1_555
N5 N6 1_555 1_555
N6 Cd2 1_555 1_555
C15 C10 1_555 1_555
C16 C15 1_555 1_555
H13 C16 1_555 1_555
C17 N5 1_555 1_555
H14 C17 1_555 1_555
C18 N5 1_555 1_555
H15 C18 1_555 1_555
H16 C18 1_555 1_555
C19 C20 1_555 1_555
C20 H17 1_555 1_555
C21 C9 1_555 1_555
C22 C21 1_555 1_555
H18 C22 1_555 1_555
C23 C22 1_555 1_555
H19 C23 1_555 1_555
C24 C19 1_555 1_555
H20 C24 1_555 1_555
C25 C19 1_555 1_555
C26 C25 1_555 1_555
H21 C26 1_555 1_555
C27 C18 1_555 1_555
C28 C27 1_555 1_555
H22 C28 1_555 1_555
C29 C28 1_555 1_555
H23 C29 1_555 1_555
C30 C25 1_555 1_555
H24 C30 1_555 1_555
N7 Cd1 1_555 1_555
C31 N7 1_555 1_555
C32 C31 1_555 1_555
H25 C32 1_555 1_555
C33 C32 1_555 1_555
H26 C33 1_555 1_555
C34 C33 1_555 1_555
H27 C34 1_555 1_555
C35 N7 1_555 1_555
H28 C35 1_555 1_555
N8 C31 1_555 1_555
N9 Cd1 1_555 1_555
C36 N9 1_555 1_555
C37 C36 1_555 1_555
H29 C37 1_555 1_555
C38 N8 1_555 1_555
H30 C38 1_555 1_555
C39 C36 1_555 1_555
H31 C39 1_555 1_555
H32 C39 1_555 1_555
N10 C40 1_555 1_555
C40 C41 1_555 1_555
C41 H33 1_555 1_555
C42 C41 1_555 1_555
H34 C42 1_555 1_555
C43 C42 1_555 1_555
H35 C43 1_555 1_555
C44 N10 1_555 1_555
H36 C44 1_555 1_555
N11 N12 1_555 1_555
N12 Cd3 1_555 1_555
C45 C40 1_555 1_555
C46 C45 1_555 1_555
H37 C46 1_555 1_555
C47 N11 1_555 1_555
H38 C47 1_555 1_555
C48 N11 1_555 1_555
H39 C48 1_555 1_555
H40 C48 1_555 1_555
C49 C50 1_555 1_555
C50 H41 1_555 1_555
C51 C39 1_555 1_555
C52 C51 1_555 1_555
H42 C52 1_555 1_555
C53 C52 1_555 1_555
H43 C53 1_555 1_555
C54 C49 1_555 1_555
H44 C54 1_555 1_555
C55 C49 1_555 1_555
C56 C55 1_555 1_555
H45 C56 1_555 1_555
C57 C48 1_555 1_555
C58 C57 1_555 1_555
H46 C58 1_555 1_555
C59 C58 1_555 1_555
H47 C59 1_555 1_555
C60 C55 1_555 1_555
H48 C60 1_555 1_555
N13 Cd1 1_555 1_555
C61 N13 1_555 1_555
C62 C61 1_555 1_555
H49 C62 1_555 1_555
C63 C62 1_555 1_555
H50 C63 1_555 1_555
C64 C63 1_555 1_555
H51 C64 1_555 1_555
C65 N13 1_555 1_555
H52 C65 1_555 1_555
N14 C61 1_555 1_555
N15 Cd1 1_555 1_555
C66 N15 1_555 1_555
C67 C66 1_555 1_555
H53 C67 1_555 1_555
C68 N14 1_555 1_555
H54 C68 1_555 1_555
C69 C66 1_555 1_555
H55 C69 1_555 1_555
H56 C69 1_555 1_555
N16 C70 1_555 1_555
C70 C71 1_555 1_555
C71 H57 1_555 1_555
C72 C71 1_555 1_555
H58 C72 1_555 1_555
C73 C72 1_555 1_555
H59 C73 1_555 1_555
C74 N16 1_555 1_555
H60 C74 1_555 1_555
N17 N18 1_555 1_555
N18 Cd4 1_555 1_555
C75 C70 1_555 1_555
C76 C75 1_555 1_555
H61 C76 1_555 1_555
C77 N17 1_555 1_555
H62 C77 1_555 1_555
C78 N17 1_555 1_555
H63 C78 1_555 1_555
H64 C78 1_555 1_555
C79 C80 1_555 1_555
C80 H65 1_555 1_555
C81 C69 1_555 1_555
C82 C81 1_555 1_555
H66 C82 1_555 1_555
C83 C82 1_555 1_555
H67 C83 1_555 1_555
C84 C79 1_555 1_555
H68 C84 1_555 1_555
C85 C79 1_555 1_555
C86 C85 1_555 1_555
H69 C86 1_555 1_555
C87 C78 1_555 1_555
C88 C87 1_555 1_555
H70 C88 1_555 1_555
C89 C88 1_555 1_555
H71 C89 1_555 1_555
C90 C85 1_555 1_555
H72 C90 1_555 1_555
N19 Cd2 1_555 1_555
C91 N19 1_555 1_555
C92 C91 1_555 1_555
H73 C92 1_555 1_555
C93 C92 1_555 1_555
H74 C93 1_555 1_555
C94 C93 1_555 1_555
H75 C94 1_555 1_555
C95 N19 1_555 1_555
H76 C95 1_555 1_555
N20 N21 1_555 1_555
N21 Cd2 1_555 1_555
C96 C91 1_555 1_555
C97 C96 1_555 1_555
H77 C97 1_555 1_555
C98 N20 1_555 1_555
H78 C98 1_555 1_555
C99 N20 1_555 1_555
H79 C99 1_555 1_555
H80 C99 1_555 1_555
N22 Cd3 1_555 1_555
C100 N22 1_555 1_555
C101 C100 1_555 1_555
H81 C101 1_555 1_555
C102 C101 1_555 1_555
H82 C102 1_555 1_555
C103 C102 1_555 1_555
H83 C103 1_555 1_555
C104 N22 1_555 1_555
H84 C104 1_555 1_555
N23 N24 1_555 1_555
N24 Cd3 1_555 1_555
C105 C100 1_555 1_555
C106 C105 1_555 1_555
H85 C106 1_555 1_555
C107 N23 1_555 1_555
H86 C107 1_555 1_555
C108 N23 1_555 1_555
H87 C108 1_555 1_555
H88 C108 1_555 1_555
C109 C110 1_555 1_555
C110 H89 1_555 1_555
C111 C99 1_555 1_555
C112 C111 1_555 1_555
H90 C112 1_555 1_555
C113 C112 1_555 1_555
H91 C113 1_555 1_555
C114 C109 1_555 1_555
H92 C114 1_555 1_555
C115 C109 1_555 1_555
C116 C115 1_555 1_555
H93 C116 1_555 1_555
C117 C108 1_555 1_555
C118 C117 1_555 1_555
H94 C118 1_555 1_555
C119 C118 1_555 1_555
H95 C119 1_555 1_555
C120 C115 1_555 1_555
H96 C120 1_555 1_555
N25 Cd2 1_555 1_555
C121 N25 1_555 1_555
C122 C121 1_555 1_555
H97 C122 1_555 1_555
C123 C122 1_555 1_555
H98 C123 1_555 1_555
C124 C123 1_555 1_555
H99 C124 1_555 1_555
C125 N25 1_555 1_555
H100 C125 1_555 1_555
N26 N27 1_555 1_555
N27 Cd2 1_555 1_555
C126 C121 1_555 1_555
C127 C126 1_555 1_555
H101 C127 1_555 1_555
C128 N26 1_555 1_555
H102 C128 1_555 1_555
C129 N26 1_555 1_555
H103 C129 1_555 1_555
H104 C129 1_555 1_555
N28 Cd4 1_555 1_555
C130 N28 1_555 1_555
C131 C130 1_555 1_555
H105 C131 1_555 1_555
C132 C131 1_555 1_555
H106 C132 1_555 1_555
C133 C132 1_555 1_555
H107 C133 1_555 1_555
C134 N28 1_555 1_555
H108 C134 1_555 1_555
N29 N30 1_555 1_555
N30 Cd4 1_555 1_555
C135 C130 1_555 1_555
C136 C135 1_555 1_555
H109 C136 1_555 1_555
C137 N29 1_555 1_555
H110 C137 1_555 1_555
C138 N29 1_555 1_555
H111 C138 1_555 1_555
H112 C138 1_555 1_555
C139 C140 1_555 1_555
C140 H113 1_555 1_555
C141 C129 1_555 1_555
C142 C141 1_555 1_555
H114 C142 1_555 1_555
C143 C142 1_555 1_555
H115 C143 1_555 1_555
C144 C139 1_555 1_555
H116 C144 1_555 1_555
C145 C139 1_555 1_555
C146 C145 1_555 1_555
H117 C146 1_555 1_555
C147 C138 1_555 1_555
C148 C147 1_555 1_555
H118 C148 1_555 1_555
C149 C148 1_555 1_555
H119 C149 1_555 1_555
C150 C145 1_555 1_555
H120 C150 1_555 1_555
N31 Cd3 1_555 1_555
C151 N31 1_555 1_555
C152 C151 1_555 1_555
H121 C152 1_555 1_555
C153 C152 1_555 1_555
H122 C153 1_555 1_555
C154 C153 1_555 1_555
H123 C154 1_555 1_555
C155 N31 1_555 1_555
H124 C155 1_555 1_555
N32 N33 1_555 1_555
N33 Cd3 1_555 1_555
C156 C151 1_555 1_555
C157 C156 1_555 1_555
H125 C157 1_555 1_555
C158 N32 1_555 1_555
H126 C158 1_555 1_555
C159 N32 1_555 1_555
H127 C159 1_555 1_555
H128 C159 1_555 1_555
N34 Cd4 1_555 1_555
C160 N34 1_555 1_555
C161 C160 1_555 1_555
H129 C161 1_555 1_555
C162 C161 1_555 1_555
H130 C162 1_555 1_555
C163 C162 1_555 1_555
H131 C163 1_555 1_555
C164 N34 1_555 1_555
H132 C164 1_555 1_555
N35 N36 1_555 1_555
N36 Cd4 1_555 1_555
C165 C160 1_555 1_555
C166 C165 1_555 1_555
H133 C166 1_555 1_555
C167 N35 1_555 1_555
H134 C167 1_555 1_555
C168 N35 1_555 1_555
H135 C168 1_555 1_555
H136 C168 1_555 1_555
C169 C170 1_555 1_555
C170 H137 1_555 1_555
C171 C159 1_555 1_555
C172 C171 1_555 1_555
H138 C172 1_555 1_555
C173 C172 1_555 1_555
H139 C173 1_555 1_555
C174 C169 1_555 1_555
H140 C174 1_555 1_555
C175 C169 1_555 1_555
C176 C175 1_555 1_555
H141 C176 1_555 1_555
C177 C168 1_555 1_555
C178 C177 1_555 1_555
H142 C178 1_555 1_555
C179 C178 1_555 1_555
H143 C179 1_555 1_555
C180 C175 1_555 1_555
H144 C180 1_555 1_555
B1 F1 1_555 1_555
F2 B1 1_555 1_555
F3 B1 1_555 1_555
F4 B1 1_555 1_555
B2 F5 1_555 1_555
F6 B2 1_555 1_555
F7 B2 1_555 1_555
F8 B2 1_555 1_555
B3 F9 1_555 1_555
F10 B3 1_555 1_555
F11 B3 1_555 1_555
F12 B3 1_555 1_555
B4 F13 1_555 1_555
F14 B4 1_555 1_555
F15 B4 1_555 1_555
F16 B4 1_555 1_555
B5 F17 1_555 1_555
F18 B5 1_555 1_555
F19 B5 1_555 1_555
F20 B5 1_555 1_555
B6 F21 1_555 1_555
F22 B6 1_555 1_555
F23 B6 1_555 1_555
F24 B6 1_555 1_555
O1 N37 1_555 1_555
O2 N37 1_555 1_555
N37 C181 1_555 1_555
C181 H145 1_555 1_555
H146 C181 1_555 1_555
H147 C181 1_555 1_555
O3 N38 1_555 1_555
O4 N38 1_555 1_555
N38 C182 1_555 1_555
C182 H148 1_555 1_555
H149 C182 1_555 1_555
H150 C182 1_555 1_555
O5 N39 1_555 1_555
O6 N39 1_555 1_555
N39 C183 1_555 1_555
C183 H151 1_555 1_555
H152 C183 1_555 1_555
H153 C183 1_555 1_555
O7 N40 1_555 1_555
O8 N40 1_555 1_555
N40 C184 1_555 1_555
C184 H154 1_555 1_555
H155 C184 1_555 1_555
H156 C184 1_555 1_555
O9 N41 1_555 1_555
O10 N41 1_555 1_555
N41 C185 1_555 1_555
C185 H157 1_555 1_555
H158 C185 1_555 1_555
H159 C185 1_555 1_555
O11 N42 1_555 1_555
O12 N42 1_555 1_555
N42 C186 1_555 1_555
C186 H160 1_555 1_555
H161 C186 1_555 1_555
H162 C186 1_555 1_555
O13 N43 1_555 1_555
O14 N43 1_555 1_555
N43 C187 1_555 1_555
C187 H163 1_555 1_555
H164 C187 1_555 1_555
H165 C187 1_555 1_555
O15 N44 1_555 1_555
O16 N44 1_555 1_555
N44 C188 1_555 1_555
C188 H166 1_555 1_555
H167 C188 1_555 1_555
H168 C188 1_555 1_555
C4 C5 1_555 1_555
N3 C6 1_555 1_555
C7 C8 1_555 1_555
C13 C14 1_555 1_555
N6 C15 1_555 1_555
C16 C17 1_555 1_555
C20 C21 1_555 1_555
C23 C24 1_555 1_555
C26 C27 1_555 1_555
C29 C30 1_555 1_555
C34 C35 1_555 1_555
N8 N9 1_555 1_555
C37 C38 1_555 1_555
C43 C44 1_555 1_555
N12 C45 1_555 1_555
C46 C47 1_555 1_555
C50 C51 1_555 1_555
C53 C54 1_555 1_555
C56 C57 1_555 1_555
C59 C60 1_555 1_555
C64 C65 1_555 1_555
N14 N15 1_555 1_555
C67 C68 1_555 1_555
C73 C74 1_555 1_555
N18 C75 1_555 1_555
C76 C77 1_555 1_555
C80 C81 1_555 1_555
C83 C84 1_555 1_555
C86 C87 1_555 1_555
C89 C90 1_555 1_555
C94 C95 1_555 1_555
N21 C96 1_555 1_555
C97 C98 1_555 1_555
C103 C104 1_555 1_555
N24 C105 1_555 1_555
C106 C107 1_555 1_555
C110 C111 1_555 1_555
C113 C114 1_555 1_555
C116 C117 1_555 1_555
C119 C120 1_555 1_555
C124 C125 1_555 1_555
N27 C126 1_555 1_555
C127 C128 1_555 1_555
C133 C134 1_555 1_555
N30 C135 1_555 1_555
C136 C137 1_555 1_555
C140 C141 1_555 1_555
C143 C144 1_555 1_555
C146 C147 1_555 1_555
C149 C150 1_555 1_555
C154 C155 1_555 1_555
N33 C156 1_555 1_555
C157 C158 1_555 1_555
C163 C164 1_555 1_555
N36 C165 1_555 1_555
C166 C167 1_555 1_555
C170 C171 1_555 1_555
C173 C174 1_555 1_555
C176 C177 1_555 1_555
C179 C180 1_555 1_555

#END
