# generated using pymatgen
data_Cd4H175C191(N8O5)6
_symmetry_space_group_name_H-M   'P 1'
_cell_length_a   19.07100000
_cell_length_b   19.35660000
_cell_length_c   30.20410000
_cell_angle_alpha   87.17900000
_cell_angle_beta   88.03100000
_cell_angle_gamma   64.27800000
_symmetry_Int_Tables_number   1
_chemical_formula_structural   Cd4H175C191(N8O5)6
_chemical_formula_sum   'Cd8 H350 C382 N96 O60'
_cell_volume   10031.78298755
_cell_formula_units_Z   2
loop_
 _symmetry_equiv_pos_site_id
 _symmetry_equiv_pos_as_xyz
  1  'x, y, z'
loop_
 _atom_site_type_symbol
 _atom_site_label
 _atom_site_symmetry_multiplicity
 _atom_site_fract_x
 _atom_site_fract_y
 _atom_site_fract_z
 _atom_site_occupancy
  Cd  Cd1  1  0.374240  0.341895  0.474289  1
  Cd  Cd2  1  0.625760  0.658105  0.525711  1
  Cd  Cd3  1  0.947420  0.878480  0.305667  1
  Cd  Cd4  1  0.052580  0.121520  0.694333  1
  Cd  Cd5  1  0.585410  0.507390  0.131022  1
  Cd  Cd6  1  0.414590  0.492610  0.868978  1
  Cd  Cd7  1  0.103000  0.240890  0.168552  1
  Cd  Cd8  1  0.897000  0.759110  0.831448  1
  H  H9  1  0.324500  0.095900  0.479800  1
  H  H10  1  0.675500  0.904100  0.520200  1
  H  H11  1  0.422700  0.018400  0.527700  1
  H  H12  1  0.577300  0.981600  0.472300  1
  H  H13  1  0.507800  0.063200  0.553800  1
  H  H14  1  0.492200  0.936800  0.446200  1
  H  H15  1  0.492000  0.186400  0.531900  1
  H  H16  1  0.508000  0.813600  0.468100  1
  H  H17  1  0.222300  0.183700  0.431400  1
  H  H18  1  0.777700  0.816300  0.568600  1
  H  H19  1  0.139300  0.310100  0.394100  1
  H  H20  1  0.860700  0.689900  0.605900  1
  H  H21  1  0.144000  0.443400  0.386200  1
  H  H22  1  0.856000  0.556600  0.613800  1
  H  H23  1  0.220800  0.446300  0.403900  1
  H  H24  1  0.779200  0.553700  0.596100  1
  H  H25  1  0.822700  0.161600  0.361700  1
  H  H26  1  0.177300  0.838400  0.638300  1
  H  H27  1  0.725900  0.220200  0.305800  1
  H  H28  1  0.274100  0.779800  0.694200  1
  H  H29  1  0.720200  0.149400  0.248500  1
  H  H30  1  0.279800  0.850600  0.751500  1
  H  H31  1  0.804200  0.020400  0.248000  1
  H  H32  1  0.195800  0.979600  0.752000  1
  H  H33  1  0.922800  0.092600  0.415200  1
  H  H34  1  0.077200  0.907400  0.584800  1
  H  H35  1  0.027300  0.975700  0.452600  1
  H  H36  1  0.972700  0.024300  0.547400  1
  H  H37  1  0.100800  0.831000  0.434900  1
  H  H38  1  0.899200  0.169000  0.565100  1
  H  H39  1  0.083500  0.808600  0.387500  1
  H  H40  1  0.916500  0.191400  0.612500  1
  H  H41  1  0.096000  0.577900  0.417100  1
  H  H42  1  0.904000  0.422100  0.582900  1
  H  H43  1  0.152800  0.387700  0.497400  1
  H  H44  1  0.847200  0.612300  0.502600  1
  H  H45  1  0.078300  0.463000  0.553800  1
  H  H46  1  0.921700  0.537000  0.446200  1
  H  H47  1  0.011500  0.597800  0.542600  1
  H  H48  1  0.988500  0.402200  0.457400  1
  H  H49  1  0.097100  0.693100  0.436200  1
  H  H50  1  0.902900  0.306900  0.563800  1
  H  H51  1  0.906300  0.895100  0.444200  1
  H  H52  1  0.093700  0.104900  0.555800  1
  H  H53  1  0.841500  0.833700  0.482500  1
  H  H54  1  0.158500  0.166300  0.517500  1
  H  H55  1  0.903100  0.703200  0.499800  1
  H  H56  1  0.096900  0.296800  0.500200  1
  H  H57  1  0.189800  0.581900  0.562500  1
  H  H58  1  0.810200  0.418100  0.437500  1
  H  H59  1  0.171400  0.520200  0.626300  1
  H  H60  1  0.828600  0.479800  0.373700  1
  H  H61  1  0.234800  0.387500  0.634400  1
  H  H62  1  0.765200  0.612500  0.365600  1
  H  H63  1  0.316400  0.318300  0.576800  1
  H  H64  1  0.683600  0.681700  0.423200  1
  H  H65  1  0.217500  0.641100  0.493300  1
  H  H66  1  0.782500  0.358900  0.506700  1
  H  H67  1  0.267000  0.641400  0.417800  1
  H  H68  1  0.733000  0.358600  0.582200  1
  H  H69  1  0.343700  0.534000  0.360800  1
  H  H70  1  0.656300  0.466000  0.639200  1
  H  H71  1  0.367900  0.447100  0.377600  1
  H  H72  1  0.632100  0.552900  0.622400  1
  H  H73  1  0.866100  0.404100  0.058100  1
  H  H74  1  0.133900  0.595900  0.941900  1
  H  H75  1  0.839700  0.497200  0.999900  1
  H  H76  1  0.160300  0.502800  0.000100  1
  H  H77  1  0.718300  0.599600  0.995600  1
  H  H78  1  0.281700  0.400400  0.004400  1
  H  H79  1  0.617500  0.603800  0.043400  1
  H  H80  1  0.382500  0.396200  0.956600  1
  H  H81  1  0.884500  0.316800  0.121800  1
  H  H82  1  0.115500  0.683200  0.878200  1
  H  H83  1  0.846900  0.260900  0.189300  1
  H  H84  1  0.153100  0.739100  0.810700  1
  H  H85  1  0.712800  0.292500  0.231900  1
  H  H86  1  0.287200  0.707500  0.768100  1
  H  H87  1  0.637100  0.351900  0.206200  1
  H  H88  1  0.362900  0.648100  0.793800  1
  H  H89  1  0.476200  0.476300  0.327900  1
  H  H90  1  0.523800  0.523700  0.672100  1
  H  H91  1  0.447800  0.487800  0.460500  1
  H  H92  1  0.552200  0.512200  0.539500  1
  H  H93  1  0.574600  0.472900  0.466600  1
  H  H94  1  0.425400  0.527100  0.533400  1
  H  H95  1  0.652500  0.459800  0.405100  1
  H  H96  1  0.347500  0.540200  0.594900  1
  H  H97  1  0.602600  0.379100  0.288700  1
  H  H98  1  0.397400  0.620900  0.711300  1
  H  H99  1  0.749300  0.445900  0.220800  1
  H  H100  1  0.250700  0.554100  0.779200  1
  H  H101  1  0.731800  0.536600  0.273600  1
  H  H102  1  0.268200  0.463400  0.726400  1
  H  H103  1  0.652700  0.545600  0.336200  1
  H  H104  1  0.347300  0.454400  0.663800  1
  H  H105  1  0.673700  0.262100  0.482200  1
  H  H106  1  0.326300  0.737900  0.517800  1
  H  H107  1  0.679300  0.274400  0.560500  1
  H  H108  1  0.320700  0.725600  0.439500  1
  H  H109  1  0.569000  0.320100  0.603700  1
  H  H110  1  0.431000  0.679900  0.396300  1
  H  H111  1  0.450100  0.352900  0.570400  1
  H  H112  1  0.549900  0.647100  0.429600  1
  H  H113  1  0.650000  0.266000  0.402100  1
  H  H114  1  0.350000  0.734000  0.597900  1
  H  H115  1  0.576200  0.263900  0.335000  1
  H  H116  1  0.423800  0.736100  0.665000  1
  H  H117  1  0.429400  0.294300  0.321100  1
  H  H118  1  0.570600  0.705700  0.678900  1
  H  H119  1  0.370400  0.324600  0.362300  1
  H  H120  1  0.629600  0.675400  0.637700  1
  H  H121  1  0.950500  0.072000  0.160400  1
  H  H122  1  0.049500  0.928000  0.839600  1
  H  H123  1  0.941800  0.070000  0.082900  1
  H  H124  1  0.058200  0.930000  0.917100  1
  H  H125  1  0.995400  0.135200  0.038100  1
  H  H126  1  0.004600  0.864800  0.961900  1
  H  H127  1  0.047300  0.209200  0.069800  1
  H  H128  1  0.952700  0.790800  0.930200  1
  H  H129  1  0.952700  0.086200  0.239400  1
  H  H130  1  0.047300  0.913800  0.760600  1
  H  H131  1  0.999400  0.119300  0.307300  1
  H  H132  1  0.000600  0.880700  0.692700  1
  H  H133  1  0.080200  0.198700  0.323600  1
  H  H134  1  0.919800  0.801300  0.676400  1
  H  H135  1  0.095200  0.243700  0.281100  1
  H  H136  1  0.904800  0.756300  0.718900  1
  H  H137  1  0.329500  0.232600  0.321800  1
  H  H138  1  0.670500  0.767400  0.678200  1
  H  H139  1  0.517000  0.159300  0.400700  1
  H  H140  1  0.483000  0.840700  0.599300  1
  H  H141  1  0.524200  0.035700  0.403800  1
  H  H142  1  0.475800  0.964300  0.596200  1
  H  H143  1  0.427200  0.013300  0.370300  1
  H  H144  1  0.572800  0.986700  0.629700  1
  H  H145  1  0.216200  0.199600  0.330900  1
  H  H146  1  0.783800  0.800400  0.669100  1
  H  H147  1  0.177400  0.056500  0.253000  1
  H  H148  1  0.822600  0.943500  0.747000  1
  H  H149  1  0.307600  0.972300  0.254800  1
  H  H150  1  0.692400  0.027700  0.745200  1
  H  H151  1  0.394300  0.998700  0.294200  1
  H  H152  1  0.605700  0.001300  0.705800  1
  H  H153  1  0.859600  0.684500  0.384900  1
  H  H154  1  0.140400  0.315500  0.615100  1
  H  H155  1  0.739500  0.767700  0.408300  1
  H  H156  1  0.260500  0.232300  0.591700  1
  H  H157  1  0.686100  0.898800  0.380600  1
  H  H158  1  0.313900  0.101200  0.619400  1
  H  H159  1  0.770300  0.941000  0.345600  1
  H  H160  1  0.229700  0.059000  0.654400  1
  H  H161  1  0.985400  0.598800  0.345900  1
  H  H162  1  0.014600  0.401200  0.654100  1
  H  H163  1  0.119900  0.569000  0.319300  1
  H  H164  1  0.880100  0.431000  0.680700  1
  H  H165  1  0.198100  0.654600  0.315600  1
  H  H166  1  0.801900  0.345400  0.684400  1
  H  H167  1  0.147400  0.745300  0.316400  1
  H  H168  1  0.852600  0.254700  0.683600  1
  H  H169  1  0.418800  0.437300  0.023700  1
  H  H170  1  0.581200  0.562700  0.976300  1
  H  H171  1  0.480600  0.304100  0.033300  1
  H  H172  1  0.519400  0.695900  0.966700  1
  H  H173  1  0.586100  0.247000  0.081700  1
  H  H174  1  0.413900  0.753000  0.918300  1
  H  H175  1  0.622600  0.326300  0.120600  1
  H  H176  1  0.377400  0.673700  0.879400  1
  H  H177  1  0.361700  0.574700  0.015200  1
  H  H178  1  0.638300  0.425300  0.984800  1
  H  H179  1  0.351700  0.705300  0.024300  1
  H  H180  1  0.648300  0.294700  0.975700  1
  H  H181  1  0.439000  0.760500  0.065400  1
  H  H182  1  0.561000  0.239500  0.934600  1
  H  H183  1  0.512200  0.698300  0.091800  1
  H  H184  1  0.487800  0.301700  0.908200  1
  H  H185  1  0.260700  0.723600  0.262300  1
  H  H186  1  0.739300  0.276400  0.737700  1
  H  H187  1  0.076900  0.685900  0.230200  1
  H  H188  1  0.923100  0.314100  0.769800  1
  H  H189  1  0.106300  0.696200  0.155600  1
  H  H190  1  0.893700  0.303800  0.844400  1
  H  H191  1  0.207300  0.727100  0.133900  1
  H  H192  1  0.792700  0.272900  0.866100  1
  H  H193  1  0.336700  0.693500  0.123700  1
  H  H194  1  0.663300  0.306500  0.876300  1
  H  H195  1  0.476200  0.794400  0.148000  1
  H  H196  1  0.523800  0.205600  0.852000  1
  H  H197  1  0.409200  0.837600  0.215600  1
  H  H198  1  0.590800  0.162400  0.784400  1
  H  H199  1  0.309800  0.803500  0.238600  1
  H  H200  1  0.690200  0.196500  0.761400  1
  H  H201  1  0.091500  0.920200  0.164500  1
  H  H202  1  0.908500  0.079800  0.835500  1
  H  H203  1  0.192000  0.934800  0.199600  1
  H  H204  1  0.808000  0.065200  0.800400  1
  H  H205  1  0.200100  0.923700  0.276500  1
  H  H206  1  0.799900  0.076300  0.723500  1
  H  H207  1  0.108100  0.898600  0.317300  1
  H  H208  1  0.891900  0.101400  0.682700  1
  H  H209  1  0.985900  0.898000  0.131900  1
  H  H210  1  0.014100  0.102000  0.868100  1
  H  H211  1  0.862700  0.881800  0.135300  1
  H  H212  1  0.137300  0.118200  0.864700  1
  H  H213  1  0.768800  0.873900  0.197000  1
  H  H214  1  0.231200  0.126100  0.803000  1
  H  H215  1  0.786100  0.890500  0.245800  1
  H  H216  1  0.213900  0.109500  0.754200  1
  H  H217  1  0.399600  0.082600  0.187000  1
  H  H218  1  0.600400  0.917400  0.813000  1
  H  H219  1  0.414400  0.970200  0.150900  1
  H  H220  1  0.585600  0.029800  0.849100  1
  H  H221  1  0.305200  0.964200  0.121300  1
  H  H222  1  0.694800  0.035800  0.878700  1
  H  H223  1  0.187200  0.068400  0.125900  1
  H  H224  1  0.812800  0.931600  0.874100  1
  H  H225  1  0.379500  0.209700  0.209700  1
  H  H226  1  0.620500  0.790300  0.790300  1
  H  H227  1  0.301300  0.333100  0.246700  1
  H  H228  1  0.698700  0.666900  0.753300  1
  H  H229  1  0.156600  0.393100  0.277300  1
  H  H230  1  0.843400  0.606900  0.722700  1
  H  H231  1  0.100200  0.359900  0.259200  1
  H  H232  1  0.899800  0.640100  0.740800  1
  H  H233  1  0.934500  0.729700  0.199100  1
  H  H234  1  0.065500  0.270300  0.800900  1
  H  H235  1  0.737300  0.797600  0.272300  1
  H  H236  1  0.262700  0.202400  0.727700  1
  H  H237  1  0.770000  0.672200  0.293900  1
  H  H238  1  0.230000  0.327800  0.706100  1
  H  H239  1  0.886200  0.573400  0.270900  1
  H  H240  1  0.113800  0.426600  0.729100  1
  H  H241  1  0.017400  0.504400  0.267000  1
  H  H242  1  0.982600  0.495600  0.733000  1
  H  H243  1  0.173300  0.418700  0.166700  1
  H  H244  1  0.826700  0.581300  0.833300  1
  H  H245  1  0.105100  0.531100  0.124000  1
  H  H246  1  0.894900  0.468900  0.876000  1
  H  H247  1  0.993400  0.630100  0.152600  1
  H  H248  1  0.006600  0.369900  0.847400  1
  H  H249  1  0.532300  0.679500  0.265500  1
  H  H250  1  0.467700  0.320500  0.734500  1
  H  H251  1  0.619600  0.732600  0.249700  1
  H  H252  1  0.380400  0.267400  0.750300  1
  H  H253  1  0.693900  0.699900  0.184100  1
  H  H254  1  0.306100  0.300100  0.815900  1
  H  H255  1  0.679400  0.616400  0.136700  1
  H  H256  1  0.320600  0.383600  0.863300  1
  H  H257  1  0.426100  0.637600  0.272600  1
  H  H258  1  0.573900  0.362400  0.727400  1
  H  H259  1  0.372500  0.543300  0.263000  1
  H  H260  1  0.627500  0.456700  0.737000  1
  H  H261  1  0.441000  0.405200  0.225600  1
  H  H262  1  0.559000  0.594800  0.774400  1
  H  H263  1  0.502400  0.397600  0.186700  1
  H  H264  1  0.497600  0.602400  0.813300  1
  H  H265  1  0.898200  0.517600  0.125500  1
  H  H266  1  0.101800  0.482400  0.874500  1
  H  H267  1  0.825600  0.544500  0.191200  1
  H  H268  1  0.174400  0.455500  0.808800  1
  H  H269  1  0.864700  0.454400  0.250800  1
  H  H270  1  0.135300  0.545600  0.749200  1
  H  H271  1  0.971400  0.338300  0.242000  1
  H  H272  1  0.028600  0.661700  0.758000  1
  H  H273  1  0.982500  0.482800  0.058700  1
  H  H274  1  0.017500  0.517200  0.941300  1
  H  H275  1  0.090000  0.395400  0.010800  1
  H  H276  1  0.910000  0.604600  0.989200  1
  H  H277  1  0.194100  0.252600  0.018000  1
  H  H278  1  0.805900  0.747400  0.982000  1
  H  H279  1  0.183500  0.204900  0.060300  1
  H  H280  1  0.816500  0.795100  0.939700  1
  H  H281  1  0.419400  0.332000  0.163100  1
  H  H282  1  0.580600  0.668000  0.836900  1
  H  H283  1  0.342800  0.561300  0.158700  1
  H  H284  1  0.657200  0.438700  0.841300  1
  H  H285  1  0.250600  0.573000  0.106100  1
  H  H286  1  0.749400  0.427000  0.893900  1
  H  H287  1  0.244400  0.465600  0.081000  1
  H  H288  1  0.755600  0.534400  0.919000  1
  H  H289  1  0.214300  0.364200  0.084800  1
  H  H290  1  0.785700  0.635800  0.915200  1
  H  H291  1  0.325400  0.137200  0.061200  1
  H  H292  1  0.674600  0.862800  0.938800  1
  H  H293  1  0.441500  0.134000  0.087000  1
  H  H294  1  0.558500  0.866000  0.913000  1
  H  H295  1  0.442600  0.242300  0.114400  1
  H  H296  1  0.557400  0.757700  0.885600  1
  H  H297  1  0.226400  0.251000  0.964800  1
  H  H298  1  0.773600  0.749000  0.035200  1
  H  H299  1  0.223700  0.227200  0.915100  1
  H  H300  1  0.776300  0.772800  0.084900  1
  H  H301  1  0.146300  0.258900  0.945200  1
  H  H302  1  0.853700  0.741100  0.054800  1
  H  H303  1  0.434700  0.845900  0.354000  1
  H  H304  1  0.565300  0.154100  0.646000  1
  H  H305  1  0.458400  0.786700  0.314800  1
  H  H306  1  0.541600  0.213300  0.685200  1
  H  H307  1  0.474700  0.861100  0.309500  1
  H  H308  1  0.525300  0.138900  0.690500  1
  H  H309  1  0.390300  0.898000  0.387200  1
  H  H310  1  0.609700  0.102000  0.612800  1
  H  H311  1  0.382100  0.865200  0.435800  1
  H  H312  1  0.617900  0.134800  0.564200  1
  H  H313  1  0.404100  0.936100  0.429900  1
  H  H314  1  0.595900  0.063900  0.570100  1
  H  H315  1  0.788300  0.259100  0.427100  1
  H  H316  1  0.211700  0.740900  0.572900  1
  H  H317  1  0.740500  0.210000  0.439200  1
  H  H318  1  0.259500  0.790000  0.560800  1
  H  H319  1  0.824200  0.170400  0.415500  1
  H  H320  1  0.175800  0.829600  0.584500  1
  H  H321  1  0.017200  0.281300  0.904400  1
  H  H322  1  0.982800  0.718700  0.095600  1
  H  H323  1  0.012500  0.215800  0.937000  1
  H  H324  1  0.987500  0.784200  0.063000  1
  H  H325  1  0.077800  0.245100  0.944000  1
  H  H326  1  0.922200  0.754900  0.056000  1
  H  H327  1  0.544400  0.929900  0.141200  1
  H  H328  1  0.455600  0.070100  0.858800  1
  H  H329  1  0.498500  0.880000  0.155800  1
  H  H330  1  0.501500  0.120000  0.844200  1
  H  H331  1  0.591200  0.839200  0.150100  1
  H  H332  1  0.408800  0.160800  0.849900  1
  H  H333  1  0.918000  0.333400  0.384000  1
  H  H334  1  0.082000  0.666600  0.616000  1
  H  H335  1  0.868200  0.288800  0.402800  1
  H  H336  1  0.131800  0.711200  0.597200  1
  H  H337  1  0.035300  0.242200  0.423700  1
  H  H338  1  0.964700  0.757800  0.576300  1
  H  H339  1  0.984100  0.200400  0.444700  1
  H  H340  1  0.015900  0.799600  0.555300  1
  H  H341  1  0.888600  0.326800  0.311200  1
  H  H342  1  0.111400  0.673200  0.688800  1
  H  H343  1  0.809500  0.333800  0.334800  1
  H  H344  1  0.190500  0.666200  0.665200  1
  H  H345  1  0.875000  0.251600  0.321400  1
  H  H346  1  0.125000  0.748400  0.678600  1
  H  H347  1  0.072800  0.103500  0.387100  1
  H  H348  1  0.927200  0.896500  0.612900  1
  H  H349  1  0.088800  0.094300  0.439200  1
  H  H350  1  0.911200  0.905700  0.560800  1
  H  H351  1  0.130400  0.133900  0.407100  1
  H  H352  1  0.869600  0.866100  0.592900  1
  H  H353  1  0.341800  0.985000  0.412100  1
  H  H354  1  0.658200  0.015000  0.587900  1
  H  H355  1  0.397800  0.896900  0.403300  1
  H  H356  1  0.602200  0.103100  0.596700  1
  H  H357  1  0.360800  0.921700  0.451600  1
  H  H358  1  0.639200  0.078300  0.548400  1
  C  C359  1  0.350500  0.187700  0.480650  1
  C  C360  1  0.649500  0.812300  0.519350  1
  C  C361  1  0.358800  0.114000  0.491470  1
  C  C362  1  0.641200  0.886000  0.508530  1
  C  C363  1  0.416900  0.068500  0.519100  1
  C  C364  1  0.583100  0.931500  0.480900  1
  C  C365  1  0.466800  0.094700  0.534600  1
  C  C366  1  0.533200  0.905300  0.465400  1
  C  C367  1  0.456500  0.168400  0.521730  1
  C  C368  1  0.543500  0.831600  0.478270  1
  C  C369  1  0.286900  0.241000  0.452660  1
  C  C370  1  0.713100  0.759000  0.547340  1
  C  C371  1  0.228900  0.229600  0.431610  1
  C  C372  1  0.771100  0.770400  0.568390  1
  C  C373  1  0.183800  0.298700  0.411500  1
  C  C374  1  0.816200  0.701300  0.588500  1
  C  C375  1  0.178900  0.430500  0.411900  1
  C  C376  1  0.821100  0.569500  0.588100  1
  C  C377  1  0.864800  0.055600  0.335200  1
  C  C378  1  0.135200  0.944400  0.664800  1
  C  C379  1  0.817800  0.132900  0.338400  1
  C  C380  1  0.182200  0.867100  0.661600  1
  C  C381  1  0.761100  0.167400  0.304700  1
  C  C382  1  0.238900  0.832600  0.695300  1
  C  C383  1  0.757000  0.126300  0.271500  1
  C  C384  1  0.243000  0.873700  0.728500  1
  C  C385  1  0.807700  0.049600  0.271500  1
  C  C386  1  0.192300  0.950400  0.728500  1
  C  C387  1  0.923100  0.014000  0.369910  1
  C  C388  1  0.076900  0.986000  0.630090  1
  C  C389  1  0.943500  0.041100  0.406100  1
  C  C390  1  0.056500  0.958900  0.593900  1
  C  C391  1  0.001100  0.976600  0.426300  1
  C  C392  1  0.998900  0.023400  0.573700  1
  C  C393  1  0.058800  0.836300  0.414690  1
  C  C394  1  0.941200  0.163700  0.585310  1
  C  C395  1  0.047800  0.600200  0.478190  1
  C  C396  1  0.952200  0.399800  0.521810  1
  C  C397  1  0.092700  0.554500  0.444990  1
  C  C398  1  0.907300  0.445500  0.555010  1
  C  C399  1  0.133400  0.475000  0.450710  1
  C  C400  1  0.866600  0.525000  0.549290  1
  C  C401  1  0.126400  0.441800  0.492530  1
  C  C402  1  0.873600  0.558200  0.507470  1
  C  C403  1  0.082100  0.486300  0.525950  1
  C  C404  1  0.917900  0.513700  0.474050  1
  C  C405  1  0.042000  0.566800  0.519360  1
  C  C406  1  0.958000  0.433200  0.480640  1
  C  C407  1  0.007100  0.683800  0.469440  1
  C  C408  1  0.992900  0.316200  0.530560  1
  C  C409  1  0.045000  0.721900  0.446140  1
  C  C410  1  0.955000  0.278100  0.553860  1
  C  C411  1  0.010000  0.799700  0.437030  1
  C  C412  1  0.990000  0.200300  0.562970  1
  C  C413  1  0.932300  0.841500  0.450740  1
  C  C414  1  0.067700  0.158500  0.549260  1
  C  C415  1  0.894000  0.805000  0.473400  1
  C  C416  1  0.106000  0.195000  0.526600  1
  C  C417  1  0.930300  0.727300  0.483410  1
  C  C418  1  0.069700  0.272700  0.516590  1
  C  C419  1  0.263400  0.483500  0.532270  1
  C  C420  1  0.736600  0.516500  0.467730  1
  C  C421  1  0.215000  0.527500  0.565800  1
  C  C422  1  0.785000  0.472500  0.434200  1
  C  C423  1  0.204700  0.491000  0.603300  1
  C  C424  1  0.795300  0.509000  0.396700  1
  C  C425  1  0.241700  0.413300  0.608200  1
  C  C426  1  0.758300  0.586700  0.391800  1
  C  C427  1  0.289800  0.372600  0.573700  1
  C  C428  1  0.710200  0.627400  0.426300  1
  C  C429  1  0.275200  0.518900  0.491240  1
  C  C430  1  0.724800  0.481100  0.508760  1
  C  C431  1  0.248500  0.597400  0.476800  1
  C  C432  1  0.751500  0.402600  0.523200  1
  C  C433  1  0.275200  0.597300  0.436100  1
  C  C434  1  0.724800  0.402700  0.563900  1
  C  C435  1  0.366400  0.496600  0.385830  1
  C  C436  1  0.633600  0.503400  0.614170  1
  C  C437  1  0.755000  0.450600  0.083790  1
  C  C438  1  0.245000  0.549400  0.916210  1
  C  C439  1  0.815600  0.445000  0.054800  1
  C  C440  1  0.184400  0.555000  0.945200  1
  C  C441  1  0.800100  0.500600  0.020800  1
  C  C442  1  0.199900  0.499400  0.979200  1
  C  C443  1  0.728100  0.560000  0.017700  1
  C  C444  1  0.271900  0.440000  0.982300  1
  C  C445  1  0.668200  0.563200  0.046860  1
  C  C446  1  0.331800  0.436800  0.953140  1
  C  C447  1  0.767000  0.395200  0.120710  1
  C  C448  1  0.233000  0.604800  0.879290  1
  C  C449  1  0.834100  0.334200  0.135000  1
  C  C450  1  0.165900  0.665800  0.865000  1
  C  C451  1  0.813300  0.304100  0.171900  1
  C  C452  1  0.186700  0.695900  0.828100  1
  C  C453  1  0.688600  0.343900  0.216940  1
  C  C454  1  0.311400  0.656100  0.783060  1
  C  C455  1  0.570500  0.469600  0.359550  1
  C  C456  1  0.429500  0.530400  0.640450  1
  C  C457  1  0.495800  0.477200  0.356310  1
  C  C458  1  0.504200  0.522800  0.643690  1
  C  C459  1  0.448800  0.486000  0.392940  1
  C  C460  1  0.551200  0.514000  0.607060  1
  C  C461  1  0.479000  0.483300  0.434580  1
  C  C462  1  0.521000  0.516700  0.565420  1
  C  C463  1  0.554500  0.474100  0.438070  1
  C  C464  1  0.445500  0.525900  0.561930  1
  C  C465  1  0.600400  0.466800  0.401930  1
  C  C466  1  0.399600  0.533200  0.598070  1
  C  C467  1  0.620500  0.461900  0.319370  1
  C  C468  1  0.379500  0.538100  0.680630  1
  C  C469  1  0.629700  0.410300  0.286190  1
  C  C470  1  0.370300  0.589700  0.713810  1
  C  C471  1  0.677500  0.404500  0.250240  1
  C  C472  1  0.322500  0.595500  0.749760  1
  C  C473  1  0.715900  0.450600  0.245710  1
  C  C474  1  0.284100  0.549400  0.754290  1
  C  C475  1  0.706300  0.504100  0.277300  1
  C  C476  1  0.293700  0.495900  0.722700  1
  C  C477  1  0.659000  0.509600  0.314340  1
  C  C478  1  0.341000  0.490400  0.685660  1
  C  C479  1  0.553400  0.301500  0.483450  1
  C  C480  1  0.446600  0.698500  0.516550  1
  C  C481  1  0.628100  0.280300  0.500500  1
  C  C482  1  0.371900  0.719700  0.499500  1
  C  C483  1  0.630400  0.288300  0.547200  1
  C  C484  1  0.369600  0.711700  0.452800  1
  C  C485  1  0.566300  0.314700  0.572800  1
  C  C486  1  0.433700  0.685300  0.427200  1
  C  C487  1  0.496300  0.333600  0.552650  1
  C  C488  1  0.503700  0.666400  0.447350  1
  C  C489  1  0.544100  0.293400  0.436170  1
  C  C490  1  0.455900  0.706600  0.563830  1
  C  C491  1  0.596800  0.275700  0.401100  1
  C  C492  1  0.403200  0.724300  0.598900  1
  C  C493  1  0.556000  0.275100  0.364300  1
  C  C494  1  0.444000  0.724900  0.635700  1
  C  C495  1  0.422100  0.285300  0.353140  1
  C  C496  1  0.577900  0.714700  0.646860  1
  C  C497  1  0.005900  0.140000  0.158200  1
  C  C498  1  0.994100  0.860000  0.841800  1
  C  C499  1  0.971100  0.099200  0.141300  1
  C  C500  1  0.028900  0.900800  0.858700  1
  C  C501  1  0.966200  0.097900  0.095600  1
  C  C502  1  0.033800  0.902100  0.904400  1
  C  C503  1  0.996400  0.136900  0.069500  1
  C  C504  1  0.003600  0.863100  0.930500  1
  C  C505  1  0.028900  0.179500  0.088500  1
  C  C506  1  0.971100  0.820500  0.911500  1
  C  C507  1  0.013800  0.142200  0.206430  1
  C  C508  1  0.986200  0.857800  0.793570  1
  C  C509  1  0.984100  0.112900  0.241100  1
  C  C510  1  0.015900  0.887100  0.758900  1
  C  C511  1  0.010100  0.131100  0.277700  1
  C  C512  1  0.989900  0.868900  0.722300  1
  C  C513  1  0.100100  0.193000  0.292620  1
  C  C514  1  0.899900  0.807000  0.707380  1
  C  C515  1  0.370600  0.118800  0.341900  1
  C  C516  1  0.629400  0.881200  0.658100  1
  C  C517  1  0.368500  0.192600  0.338740  1
  C  C518  1  0.631500  0.807400  0.661260  1
  C  C519  1  0.424000  0.206200  0.360550  1
  C  C520  1  0.576000  0.793800  0.639450  1
  C  C521  1  0.480300  0.148900  0.385330  1
  C  C522  1  0.519700  0.851100  0.614670  1
  C  C523  1  0.483700  0.076100  0.388000  1
  C  C524  1  0.516300  0.923900  0.612000  1
  C  C525  1  0.426800  0.062600  0.367000  1
  C  C526  1  0.573200  0.937400  0.633000  1
  C  C527  1  0.314700  0.102200  0.316840  1
  C  C528  1  0.685300  0.897800  0.683160  1
  C  C529  1  0.235000  0.153300  0.315480  1
  C  C530  1  0.765000  0.846700  0.684520  1
  C  C531  1  0.184100  0.136400  0.291870  1
  C  C532  1  0.815900  0.863600  0.708130  1
  C  C533  1  0.212200  0.068400  0.269400  1
  C  C534  1  0.787800  0.931600  0.730600  1
  C  C535  1  0.289400  0.018400  0.270500  1
  C  C536  1  0.710600  0.981600  0.729500  1
  C  C537  1  0.340900  0.034000  0.293700  1
  C  C538  1  0.659100  0.966000  0.706300  1
  C  C539  1  0.887300  0.764400  0.352140  1
  C  C540  1  0.112700  0.235600  0.647860  1
  C  C541  1  0.840400  0.737600  0.377000  1
  C  C542  1  0.159600  0.262400  0.623000  1
  C  C543  1  0.769800  0.785400  0.389600  1
  C  C544  1  0.230200  0.214600  0.610400  1
  C  C545  1  0.738800  0.864300  0.374900  1
  C  C546  1  0.261200  0.135700  0.625100  1
  C  C547  1  0.788000  0.887700  0.352500  1
  C  C548  1  0.212000  0.112300  0.647500  1
  C  C549  1  0.966200  0.714000  0.337930  1
  C  C550  1  0.033800  0.286000  0.662070  1
  C  C551  1  0.005700  0.634700  0.337640  1
  C  C552  1  0.994300  0.365300  0.662360  1
  C  C553  1  0.078900  0.618600  0.323240  1
  C  C554  1  0.921100  0.381400  0.676760  1
  C  C555  1  0.151900  0.698000  0.302870  1
  C  C556  1  0.848100  0.302000  0.697130  1
  C  C557  1  0.489100  0.457400  0.065670  1
  C  C558  1  0.510900  0.542600  0.934330  1
  C  C559  1  0.461800  0.413500  0.042990  1
  C  C560  1  0.538200  0.586500  0.957010  1
  C  C561  1  0.498000  0.335100  0.048900  1
  C  C562  1  0.502000  0.664900  0.951100  1
  C  C563  1  0.559700  0.301200  0.077600  1
  C  C564  1  0.440300  0.698800  0.922400  1
  C  C565  1  0.581600  0.348900  0.099940  1
  C  C566  1  0.418400  0.651100  0.900060  1
  C  C567  1  0.455200  0.540200  0.060070  1
  C  C568  1  0.544800  0.459800  0.939930  1
  C  C569  1  0.393200  0.588600  0.033120  1
  C  C570  1  0.606800  0.411400  0.966880  1
  C  C571  1  0.388200  0.659400  0.038400  1
  C  C572  1  0.611800  0.340600  0.961600  1
  C  C573  1  0.455900  0.715900  0.086700  1
  C  C574  1  0.544100  0.284100  0.913300  1
  C  C575  1  0.244700  0.728800  0.196320  1
  C  C576  1  0.755300  0.271200  0.803680  1
  C  C577  1  0.228300  0.719600  0.240350  1
  C  C578  1  0.771700  0.280400  0.759650  1
  C  C579  1  0.165600  0.704500  0.253400  1
  C  C580  1  0.834400  0.295500  0.746600  1
  C  C581  1  0.119800  0.696300  0.221680  1
  C  C582  1  0.880200  0.303700  0.778320  1
  C  C583  1  0.136900  0.703400  0.177500  1
  C  C584  1  0.863100  0.296600  0.822500  1
  C  C585  1  0.197500  0.720700  0.164550  1
  C  C586  1  0.802500  0.279300  0.835450  1
  C  C587  1  0.311800  0.746600  0.183600  1
  C  C588  1  0.688200  0.253400  0.816400  1
  C  C589  1  0.351500  0.722600  0.142600  1
  C  C590  1  0.648500  0.277400  0.857400  1
  C  C591  1  0.411900  0.741400  0.130100  1
  C  C592  1  0.588100  0.258600  0.869900  1
  C  C593  1  0.434200  0.782500  0.156700  1
  C  C594  1  0.565800  0.217500  0.843300  1
  C  C595  1  0.394800  0.807400  0.197300  1
  C  C596  1  0.605200  0.192600  0.802700  1
  C  C597  1  0.334900  0.788100  0.210700  1
  C  C598  1  0.665100  0.211900  0.789300  1
  C  C599  1  0.041300  0.901300  0.222190  1
  C  C600  1  0.958700  0.098700  0.777810  1
  C  C601  1  0.095200  0.916000  0.195900  1
  C  C602  1  0.904800  0.084000  0.804100  1
  C  C603  1  0.154600  0.924500  0.216800  1
  C  C604  1  0.845400  0.075500  0.783200  1
  C  C605  1  0.159600  0.918000  0.261900  1
  C  C606  1  0.840400  0.082000  0.738100  1
  C  C607  1  0.104800  0.903200  0.285900  1
  C  C608  1  0.895200  0.096800  0.714100  1
  C  C609  1  0.978000  0.890000  0.203480  1
  C  C610  1  0.022000  0.110000  0.796520  1
  C  C611  1  0.958700  0.891800  0.157600  1
  C  C612  1  0.041300  0.108200  0.842400  1
  C  C613  1  0.891900  0.882500  0.160000  1
  C  C614  1  0.108100  0.117500  0.840000  1
  C  C615  1  0.809400  0.858700  0.219800  1
  C  C616  1  0.190600  0.141300  0.780200  1
  C  C617  1  0.284300  0.139600  0.175400  1
  C  C618  1  0.715700  0.860400  0.824600  1
  C  C619  1  0.356300  0.079700  0.174100  1
  C  C620  1  0.643700  0.920300  0.825900  1
  C  C621  1  0.364600  0.012600  0.152900  1
  C  C622  1  0.635400  0.987400  0.847100  1
  C  C623  1  0.300500  0.009000  0.135300  1
  C  C624  1  0.699500  0.991000  0.864700  1
  C  C625  1  0.231200  0.070700  0.138300  1
  C  C626  1  0.768800  0.929300  0.861700  1
  C  C627  1  0.271300  0.209900  0.198220  1
  C  C628  1  0.728700  0.790100  0.801780  1
  C  C629  1  0.324400  0.234700  0.213000  1
  C  C630  1  0.675600  0.765300  0.787000  1
  C  C631  1  0.281600  0.302000  0.233200  1
  C  C632  1  0.718400  0.698000  0.766800  1
  C  C633  1  0.139300  0.378900  0.250120  1
  C  C634  1  0.860700  0.621100  0.749880  1
  C  C635  1  0.922300  0.640900  0.230720  1
  C  C636  1  0.077700  0.359100  0.769280  1
  C  C637  1  0.901000  0.717500  0.218570  1
  C  C638  1  0.099000  0.282500  0.781430  1
  C  C639  1  0.833900  0.776300  0.233300  1
  C  C640  1  0.166100  0.223700  0.766700  1
  C  C641  1  0.784600  0.758100  0.261900  1
  C  C642  1  0.215400  0.241900  0.738100  1
  C  C643  1  0.804200  0.683800  0.274700  1
  C  C644  1  0.195800  0.316200  0.725300  1
  C  C645  1  0.872700  0.624700  0.260540  1
  C  C646  1  0.127300  0.375300  0.739460  1
  C  C647  1  0.994300  0.577800  0.212110  1
  C  C648  1  0.005700  0.422200  0.787890  1
  C  C649  1  0.035000  0.509600  0.237750  1
  C  C650  1  0.965000  0.490400  0.762250  1
  C  C651  1  0.100000  0.450500  0.220720  1
  C  C652  1  0.900000  0.549500  0.779280  1
  C  C653  1  0.127400  0.458700  0.178290  1
  C  C654  1  0.872600  0.541300  0.821710  1
  C  C655  1  0.087200  0.525600  0.153100  1
  C  C656  1  0.912800  0.474400  0.846900  1
  C  C657  1  0.020700  0.584600  0.170200  1
  C  C658  1  0.979300  0.415400  0.829800  1
  C  C659  1  0.554000  0.620600  0.209690  1
  C  C660  1  0.446000  0.379400  0.790310  1
  C  C661  1  0.562400  0.667900  0.238900  1
  C  C662  1  0.437600  0.332100  0.761100  1
  C  C663  1  0.614100  0.698700  0.229900  1
  C  C664  1  0.385900  0.301300  0.770100  1
  C  C665  1  0.657800  0.679300  0.191300  1
  C  C666  1  0.342200  0.320700  0.808700  1
  C  C667  1  0.648800  0.629800  0.163200  1
  C  C668  1  0.351200  0.370200  0.836800  1
  C  C669  1  0.502100  0.583600  0.219010  1
  C  C670  1  0.497900  0.416400  0.780990  1
  C  C671  1  0.442600  0.598700  0.251380  1
  C  C672  1  0.557400  0.401300  0.748620  1
  C  C673  1  0.414000  0.547000  0.246340  1
  C  C674  1  0.586000  0.453000  0.753660  1
  C  C675  1  0.451000  0.432100  0.199190  1
  C  C676  1  0.549000  0.567900  0.800810  1
  C  C677  1  0.977600  0.410200  0.145970  1
  C  C678  1  0.022400  0.589800  0.854030  1
  C  C679  1  0.912700  0.481000  0.149620  1
  C  C680  1  0.087300  0.519000  0.850380  1
  C  C681  1  0.870300  0.497000  0.188420  1
  C  C682  1  0.129700  0.503000  0.811580  1
  C  C683  1  0.892800  0.443600  0.223480  1
  C  C684  1  0.107200  0.556400  0.776520  1
  C  C685  1  0.956300  0.375100  0.217970  1
  C  C686  1  0.043700  0.624900  0.782030  1
  C  C687  1  0.026300  0.389700  0.106780  1
  C  C688  1  0.973700  0.610300  0.893220  1
  C  C689  1  0.019600  0.432000  0.066130  1
  C  C690  1  0.980400  0.568000  0.933870  1
  C  C691  1  0.078200  0.383700  0.040210  1
  C  C692  1  0.921800  0.616300  0.959790  1
  C  C693  1  0.188100  0.252400  0.050700  1
  C  C694  1  0.811900  0.747600  0.949300  1
  C  C695  1  0.331100  0.386300  0.118860  1
  C  C696  1  0.668900  0.613700  0.881140  1
  C  C697  1  0.385300  0.381000  0.151040  1
  C  C698  1  0.614700  0.619000  0.848960  1
  C  C699  1  0.389500  0.445700  0.165250  1
  C  C700  1  0.610500  0.554300  0.834750  1
  C  C701  1  0.339900  0.516800  0.148740  1
  C  C702  1  0.660100  0.483200  0.851260  1
  C  C703  1  0.285400  0.523600  0.117370  1
  C  C704  1  0.714600  0.476400  0.882630  1
  C  C705  1  0.281600  0.459900  0.102710  1
  C  C706  1  0.718400  0.540100  0.897290  1
  C  C707  1  0.329700  0.315300  0.102810  1
  C  C708  1  0.670300  0.684700  0.897190  1
  C  C709  1  0.260600  0.317600  0.085820  1
  C  C710  1  0.739400  0.682400  0.914180  1
  C  C711  1  0.261000  0.250100  0.070500  1
  C  C712  1  0.739000  0.749900  0.929500  1
  C  C713  1  0.326500  0.182400  0.071300  1
  C  C714  1  0.673500  0.817600  0.928700  1
  C  C715  1  0.395000  0.180400  0.087100  1
  C  C716  1  0.605000  0.819600  0.912900  1
  C  C717  1  0.395500  0.245200  0.102900  1
  C  C718  1  0.604500  0.754800  0.897100  1
  C  C719  1  0.194800  0.263200  0.938100  1
  C  C720  1  0.805200  0.736800  0.061900  1
  C  C721  1  0.473100  0.821500  0.330400  1
  C  C722  1  0.526900  0.178500  0.669600  1
  C  C723  1  0.373700  0.911600  0.417900  1
  C  C724  1  0.626300  0.088400  0.582100  1
  C  C725  1  0.792500  0.208400  0.436900  1
  C  C726  1  0.207500  0.791600  0.563100  1
  C  C727  1  0.024000  0.260500  0.935000  1
  C  C728  1  0.976000  0.739500  0.065000  1
  C  C729  1  0.546500  0.885700  0.159400  1
  C  C730  1  0.453500  0.114300  0.840600  1
  C  C731  1  0.903900  0.291000  0.378700  1
  C  C732  1  0.096100  0.709000  0.621300  1
  C  C733  1  0.017000  0.202500  0.419000  1
  C  C734  1  0.983000  0.797500  0.581000  1
  C  C735  1  0.865600  0.301800  0.332100  1
  C  C736  1  0.134400  0.698200  0.667900  1
  C  C737  1  0.082700  0.127300  0.412600  1
  C  C738  1  0.917300  0.872700  0.587400  1
  C  C739  1  0.351700  0.932000  0.419700  1
  C  C740  1  0.648300  0.068000  0.580300  1
  N  N741  1  0.398700  0.214800  0.495620  1
  N  N742  1  0.601300  0.785200  0.504380  1
  N  N743  1  0.213500  0.347600  0.420640  1
  N  N744  1  0.786500  0.652400  0.579360  1
  N  N745  1  0.277600  0.313500  0.445810  1
  N  N746  1  0.722400  0.686500  0.554190  1
  N  N747  1  0.860800  0.013700  0.301890  1
  N  N748  1  0.139200  0.986300  0.698110  1
  N  N749  1  0.013200  0.917100  0.402970  1
  N  N750  1  0.986800  0.082900  0.597030  1
  N  N751  1  0.965600  0.937500  0.367540  1
  N  N752  1  0.034400  0.062500  0.632460  1
  N  N753  1  0.299900  0.408100  0.535900  1
  N  N754  1  0.700100  0.591900  0.464100  1
  N  N755  1  0.316400  0.523700  0.424930  1
  N  N756  1  0.683600  0.476300  0.575070  1
  N  N757  1  0.318500  0.474900  0.458610  1
  N  N758  1  0.681500  0.525100  0.541390  1
  N  N759  1  0.681600  0.509500  0.079790  1
  N  N760  1  0.318400  0.490500  0.920210  1
  N  N761  1  0.737100  0.346300  0.179310  1
  N  N762  1  0.262900  0.653700  0.820690  1
  N  N763  1  0.707200  0.404400  0.147610  1
  N  N764  1  0.292800  0.595600  0.852390  1
  N  N765  1  0.489900  0.326200  0.508950  1
  N  N766  1  0.510100  0.673800  0.491050  1
  N  N767  1  0.482000  0.293600  0.377790  1
  N  N768  1  0.518000  0.706400  0.622210  1
  N  N769  1  0.473500  0.304400  0.422120  1
  N  N770  1  0.526500  0.695600  0.577880  1
  N  N771  1  0.035100  0.180300  0.131930  1
  N  N772  1  0.964900  0.819700  0.868070  1
  N  N773  1  0.053300  0.168400  0.265780  1
  N  N774  1  0.946700  0.831600  0.734220  1
  N  N775  1  0.054900  0.177300  0.221450  1
  N  N776  1  0.945100  0.822700  0.778550  1
  N  N777  1  0.860400  0.839800  0.339430  1
  N  N778  1  0.139600  0.160200  0.660570  1
  N  N779  1  0.083100  0.686500  0.315520  1
  N  N780  1  0.916900  0.313500  0.684480  1
  N  N781  1  0.014300  0.746000  0.323770  1
  N  N782  1  0.985700  0.254000  0.676230  1
  N  N783  1  0.548800  0.423700  0.094270  1
  N  N784  1  0.451200  0.576300  0.905730  1
  N  N785  1  0.444200  0.654800  0.067290  1
  N  N786  1  0.555800  0.345200  0.932710  1
  N  N787  1  0.485000  0.580200  0.080600  1
  N  N788  1  0.515000  0.419800  0.919400  1
  N  N789  1  0.046400  0.895000  0.266400  1
  N  N790  1  0.953600  0.105000  0.733600  1
  N  N791  1  0.873900  0.874400  0.202090  1
  N  N792  1  0.126100  0.125600  0.797910  1
  N  N793  1  0.927600  0.877800  0.228960  1
  N  N794  1  0.072400  0.122200  0.771040  1
  N  N795  1  0.220800  0.136500  0.158200  1
  N  N796  1  0.779200  0.863500  0.841800  1
  N  N797  1  0.206000  0.316300  0.230290  1
  N  N798  1  0.794000  0.683700  0.769710  1
  N  N799  1  0.197000  0.260600  0.207940  1
  N  N800  1  0.803000  0.739400  0.792060  1
  N  N801  1  0.597600  0.600100  0.172450  1
  N  N802  1  0.402400  0.399900  0.827550  1
  N  N803  1  0.455000  0.501300  0.213240  1
  N  N804  1  0.545000  0.498700  0.786760  1
  N  N805  1  0.510500  0.522800  0.195760  1
  N  N806  1  0.489500  0.477200  0.804240  1
  N  N807  1  0.998400  0.357400  0.180300  1
  N  N808  1  0.001600  0.642600  0.819700  1
  N  N809  1  0.116600  0.317700  0.062480  1
  N  N810  1  0.883400  0.682300  0.937520  1
  N  N811  1  0.086000  0.320400  0.104470  1
  N  N812  1  0.914000  0.679600  0.895530  1
  N  N813  1  0.994200  0.417900  0.344400  1
  N  N814  1  0.005800  0.582100  0.655600  1
  N  N815  1  0.716000  0.541100  0.701800  1
  N  N816  1  0.284000  0.458900  0.298200  1
  N  N817  1  0.445800  0.752300  0.772400  1
  N  N818  1  0.554200  0.247700  0.227600  1
  N  N819  1  0.289400  0.750000  0.346570  1
  N  N820  1  0.710600  0.250000  0.653430  1
  N  N821  1  0.304200  0.948400  0.544300  1
  N  N822  1  0.695800  0.051600  0.455700  1
  N  N823  1  0.177000  0.340800  0.922200  1
  N  N824  1  0.823000  0.659200  0.077800  1
  N  N825  1  0.550600  0.777800  0.350100  1
  N  N826  1  0.449400  0.222200  0.649900  1
  N  N827  1  0.299000  0.959700  0.418900  1
  N  N828  1  0.701000  0.040300  0.581100  1
  N  N829  1  0.829800  0.186900  0.480800  1
  N  N830  1  0.170200  0.813100  0.519200  1
  N  N831  1  0.971600  0.318300  0.963900  1
  N  N832  1  0.028400  0.681700  0.036100  1
  N  N833  1  0.554900  0.898400  0.207700  1
  N  N834  1  0.445100  0.101600  0.792300  1
  N  N835  1  0.284300  0.919500  0.408000  1
  N  N836  1  0.715700  0.080500  0.592000  1
  O  O837  1  0.933700  0.445600  0.322230  1
  O  O838  1  0.066300  0.554400  0.677770  1
  O  O839  1  0.009400  0.458800  0.366790  1
  O  O840  1  0.990600  0.541200  0.633210  1
  O  O841  1  0.041400  0.350000  0.340690  1
  O  O842  1  0.958600  0.650000  0.659310  1
  O  O843  1  0.734100  0.469700  0.702730  1
  O  O844  1  0.265900  0.530300  0.297270  1
  O  O845  1  0.656100  0.582900  0.720730  1
  O  O846  1  0.343900  0.417100  0.279270  1
  O  O847  1  0.756500  0.568100  0.683220  1
  O  O848  1  0.243500  0.431900  0.316780  1
  O  O849  1  0.415500  0.756100  0.808000  1
  O  O850  1  0.584500  0.243900  0.192000  1
  O  O851  1  0.506300  0.759500  0.765900  1
  O  O852  1  0.493700  0.240500  0.234100  1
  O  O853  1  0.420900  0.733200  0.741050  1
  O  O854  1  0.579100  0.266800  0.258950  1
  O  O855  1  0.230000  0.776700  0.370010  1
  O  O856  1  0.770000  0.223300  0.629990  1
  O  O857  1  0.326100  0.681200  0.344490  1
  O  O858  1  0.673900  0.318800  0.655510  1
  O  O859  1  0.314100  0.794100  0.326870  1
  O  O860  1  0.685900  0.205900  0.673130  1
  O  O861  1  0.370300  0.907900  0.534500  1
  O  O862  1  0.629700  0.092100  0.465500  1
  O  O863  1  0.264800  0.009400  0.519900  1
  O  O864  1  0.735200  0.990600  0.480100  1
  O  O865  1  0.264900  0.933000  0.576500  1
  O  O866  1  0.735100  0.067000  0.423500  1
  O  O867  1  0.123600  0.389900  0.936400  1
  O  O868  1  0.876400  0.610100  0.063600  1
  O  O869  1  0.214800  0.348500  0.888500  1
  O  O870  1  0.785200  0.651500  0.111500  1
  O  O871  1  0.586000  0.708900  0.340200  1
  O  O872  1  0.414000  0.291100  0.659800  1
  O  O873  1  0.574100  0.806700  0.377600  1
  O  O874  1  0.425900  0.193300  0.622400  1
  O  O875  1  0.270400  0.025500  0.430100  1
  O  O876  1  0.729600  0.974500  0.569900  1
  O  O877  1  0.242300  0.932300  0.411200  1
  O  O878  1  0.757700  0.067700  0.588800  1
  O  O879  1  0.848800  0.233500  0.490000  1
  O  O880  1  0.151200  0.766500  0.510000  1
  O  O881  1  0.845800  0.123200  0.496500  1
  O  O882  1  0.154200  0.876800  0.503500  1
  O  O883  1  0.934900  0.381600  0.948000  1
  O  O884  1  0.065100  0.618400  0.052000  1
  O  O885  1  0.971900  0.306600  0.004000  1
  O  O886  1  0.028100  0.693400  0.996000  1
  O  O887  1  0.500800  0.901500  0.229800  1
  O  O888  1  0.499200  0.098500  0.770200  1
  O  O889  1  0.620500  0.888700  0.214900  1
  O  O890  1  0.379500  0.111300  0.785100  1
  O  O891  1  0.973000  0.218300  0.376200  1
  O  O892  1  0.027000  0.781700  0.623800  1
  O  O893  1  0.249600  0.951300  0.374600  1
  O  O894  1  0.750400  0.048700  0.625400  1
  O  O895  1  0.257600  0.888100  0.436700  1
  O  O896  1  0.742400  0.111900  0.563300  1
