
#######################################################################
#
#                 Cambridge Crystallographic Data Centre
#                                CCDC 
#
#######################################################################
#
# If this CIF has been generated from an entry in the Cambridge 
# Structural Database, then it will include bibliographic, chemical, 
# crystal, experimental, refinement or atomic coordinate data resulting 
# from the CCDC's data processing and validation procedures.
#
#######################################################################

data_BALGUS
_chemical_formula_moiety         
'C180 H144 Cd4 N36 8+,C4 H10 O1,4(C1 H3 N1 O2),8(N1 O3 1-)'
_chemical_name_systematic        
"hexakis(\m~2~-2,2'-(biphenyl-3,3'-diylbis(methylene-1H-pyrazole-1,3-diyl))dipyridine)-tetra-cadmium(ii) octakis(nitrate) nitromethane diethyl ether solvate"
_symmetry_cell_setting           triclinic
_symmetry_space_group_name_H-M   'P -1'
_symmetry_Int_Tables_number      2
_space_group_name_Hall           '-P 1'
loop_
_symmetry_equiv_pos_site_id
_symmetry_equiv_pos_as_xyz
1 x,y,z
2 -x,-y,-z
_cell_length_a                   19.0710(5)
_cell_length_b                   19.3566(5)
_cell_length_c                   30.2041(8)
_cell_angle_alpha                87.1790(10)
_cell_angle_beta                 88.0310(10)
_cell_angle_gamma                64.2780(10)
_cell_volume                     10031.8
_exptl_crystal_colour            colorless
_exptl_crystal_description       block
_cell_formula_units_Z            2
loop_
_atom_site_label
_atom_site_type_symbol
_atom_site_fract_x
_atom_site_fract_y
_atom_site_fract_z
Cd1 Cd 0.37424(2) 0.341895(19) 0.474289(11)
Cd2 Cd -0.05258(2) 0.87848(2) 0.305667(13)
Cd3 Cd 0.58541(2) 0.50739(2) 0.131022(11)
Cd4 Cd 0.10300(2) 0.24089(2) 0.168552(13)
N1 N 0.3987(3) 0.2148(2) 0.49562(14)
C1 C 0.3505(3) 0.1877(3) 0.48065(15)
C2 C 0.3588(3) 0.1140(3) 0.49147(18)
H1 H 0.3245 0.0959 0.4798
C3 C 0.4169(4) 0.0685(3) 0.5191(2)
H2 H 0.4227 0.0184 0.5277
C4 C 0.4668(4) 0.0947(3) 0.5346(2)
H3 H 0.5078 0.0632 0.5538
C5 C 0.4565(3) 0.1684(3) 0.52173(18)
H4 H 0.4920 0.1864 0.5319
N2 N 0.2135(2) 0.3476(2) 0.42064(13)
N3 N 0.2776(2) 0.3135(2) 0.44581(13)
C6 C 0.2869(3) 0.2410(3) 0.45266(16)
C7 C 0.2289(3) 0.2296(3) 0.43161(16)
H5 H 0.2223 0.1837 0.4314
C8 C 0.1838(3) 0.2987(3) 0.41150(16)
H6 H 0.1393 0.3101 0.3941
C9 C 0.1789(3) 0.4305(3) 0.41190(16)
H7 H 0.1440 0.4434 0.3862
H8 H 0.2208 0.4463 0.4039
N4 N -0.1392(3) 1.0137(3) 0.30189(18)
C10 C -0.1352(3) 1.0556(3) 0.3352(2)
C11 C -0.1822(4) 1.1329(3) 0.3384(2)
H9 H -0.1773 1.1616 0.3617
C12 C -0.2389(4) 1.1674(4) 0.3047(3)
H10 H -0.2741 1.2202 0.3058
C13 C -0.2430(4) 1.1263(4) 0.2715(3)
H11 H -0.2798 1.1494 0.2485
C14 C -0.1923(4) 1.0496(4) 0.2715(3)
H12 H -0.1958 1.0204 0.2480
N5 N 0.0132(2) 0.9171(2) 0.40297(14)
N6 N -0.0344(2) 0.9375(2) 0.36754(14)
C15 C -0.0769(3) 1.0140(3) 0.36991(19)
C16 C -0.0565(4) 1.0411(3) 0.4061(2)
H13 H -0.0772 1.0926 0.4152
C17 C 0.0011(4) 0.9766(3) 0.4263(2)
H14 H 0.0273 0.9757 0.4526
C18 C 0.0588(3) 0.8363(3) 0.41469(18)
H15 H 0.1008 0.8310 0.4349
H16 H 0.0835 0.8086 0.3875
C19 C 0.0478(3) 0.6002(3) 0.47819(15)
C20 C 0.0927(3) 0.5545(3) 0.44499(15)
H17 H 0.0960 0.5779 0.4171
C21 C 0.1334(3) 0.4750(3) 0.45071(15)
C22 C 0.1264(3) 0.4418(3) 0.49253(16)
H18 H 0.1528 0.3877 0.4974
C23 C 0.0821(3) 0.4863(3) 0.52595(15)
H19 H 0.0783 0.4630 0.5538
C24 C 0.0420(3) 0.5668(3) 0.51936(15)
H20 H 0.0115 0.5978 0.5426
C25 C 0.0071(3) 0.6838(3) 0.46944(15)
C26 C 0.0450(3) 0.7219(3) 0.44614(15)
H21 H 0.0971 0.6931 0.4362
C27 C 0.0100(3) 0.7997(3) 0.43703(16)
C28 C -0.0677(3) 0.8415(3) 0.45074(18)
H22 H -0.0937 0.8951 0.4442
C29 C -0.1060(3) 0.8050(3) 0.4734(2)
H23 H -0.1585 0.8337 0.4825
C30 C -0.0697(3) 0.7273(3) 0.48341(18)
H24 H -0.0969 0.7032 0.4998
N7 N 0.2999(3) 0.4081(3) 0.53590(14)
C31 C 0.2634(3) 0.4835(3) 0.53227(19)
C32 C 0.2150(3) 0.5275(4) 0.5658(2)
H25 H 0.1898 0.5819 0.5625
C33 C 0.2047(4) 0.4910(5) 0.6033(2)
H26 H 0.1714 0.5202 0.6263
C34 C 0.2417(4) 0.4133(5) 0.6082(2)
H27 H 0.2348 0.3875 0.6344
C35 C 0.2898(4) 0.3726(4) 0.5737(2)
H28 H 0.3164 0.3183 0.5768
N8 N 0.3164(2) 0.5237(2) 0.42493(15)
N9 N 0.3185(2) 0.4749(2) 0.45861(15)
C36 C 0.2752(3) 0.5189(3) 0.49124(19)
C37 C 0.2485(3) 0.5974(3) 0.4768(2)
H29 H 0.2175 0.6411 0.4933
C38 C 0.2752(3) 0.5973(3) 0.4361(2)
H30 H 0.2670 0.6414 0.4178
C39 C 0.3664(3) 0.4966(3) 0.38583(18)
H31 H 0.3437 0.5340 0.3608
H32 H 0.3679 0.4471 0.3776
N10 N 0.6816(3) 0.5095(3) 0.07979(14)
C40 C 0.7550(4) 0.4506(5) 0.08379(18)
C41 C 0.8156(4) 0.4450(6) 0.0548(2)
H33 H 0.8661 0.4041 0.0581
C42 C 0.8001(5) 0.5006(6) 0.0208(2)
H34 H 0.8397 0.4972 -0.0001
C43 C 0.7281(5) 0.5600(6) 0.0177(2)
H35 H 0.7183 0.5996 -0.0044
C44 C 0.6682(4) 0.5632(5) 0.04686(17)
H36 H 0.6175 0.6038 0.0434
N11 N 0.7371(3) 0.3463(3) 0.17931(15)
N12 N 0.7072(2) 0.4044(3) 0.14761(14)
C45 C 0.7670(3) 0.3952(4) 0.12071(18)
C46 C 0.8341(4) 0.3342(5) 0.1350(2)
H37 H 0.8845 0.3168 0.1218
C47 C 0.8133(3) 0.3041(4) 0.1719(2)
H38 H 0.8469 0.2609 0.1893
C48 C 0.6886(3) 0.3439(3) 0.21694(18)
H39 H 0.7128 0.2925 0.2319
H40 H 0.6371 0.3519 0.2062
C49 C 0.5705(3) 0.4696(3) 0.35955(17)
C50 C 0.4958(3) 0.4772(3) 0.35631(16)
H41 H 0.4762 0.4763 0.3279
C51 C 0.4488(3) 0.4860(3) 0.39294(17)
C52 C 0.4790(3) 0.4833(3) 0.43458(16)
H42 H 0.4478 0.4878 0.4605
C53 C 0.5545(3) 0.4741(3) 0.43807(18)
H43 H 0.5746 0.4729 0.4666
C54 C 0.6004(3) 0.4668(3) 0.40193(17)
H44 H 0.6525 0.4598 0.4051
C55 C 0.6205(3) 0.4619(3) 0.31937(16)
C56 C 0.6297(3) 0.4103(3) 0.28619(17)
H45 H 0.6026 0.3791 0.2887
C57 C 0.6775(3) 0.4045(3) 0.25024(16)
C58 C 0.7159(3) 0.4506(3) 0.24571(17)
H46 H 0.7493 0.4459 0.2208
C59 C 0.7063(3) 0.5041(3) 0.27730(18)
H47 H 0.7318 0.5366 0.2736
C60 C 0.6590(3) 0.5096(3) 0.31434(18)
H48 H 0.6527 0.5456 0.3362
N13 N 0.4899(3) 0.3262(2) 0.50895(14)
C61 C 0.5534(3) 0.3015(3) 0.48345(19)
C62 C 0.6281(3) 0.2803(3) 0.5005(2)
H49 H 0.6737 0.2621 0.4822
C63 C 0.6304(4) 0.2883(4) 0.5472(2)
H50 H 0.6793 0.2744 0.5605
C64 C 0.5663(4) 0.3147(3) 0.5728(2)
H51 H 0.5690 0.3201 0.6037
C65 C 0.4963(4) 0.3336(3) 0.55265(18)
H52 H 0.4501 0.3529 0.5704
N14 N 0.4820(2) 0.2936(2) 0.37779(13)
N15 N 0.4735(2) 0.3044(2) 0.42212(13)
C66 C 0.5441(3) 0.2934(3) 0.43617(18)
C67 C 0.5968(3) 0.2757(3) 0.4011(2)
H53 H 0.6500 0.2660 0.4021
C68 C 0.5560(3) 0.2751(3) 0.3643(2)
H54 H 0.5762 0.2639 0.3350
C69 C 0.4221(3) 0.2853(3) 0.35314(17)
H55 H 0.4294 0.2943 0.3211
H56 H 0.3704 0.3246 0.3623
N16 N 0.0351(3) 0.1803(3) 0.13193(15)
C70 C 0.0059(4) 0.1400(3) 0.1582(2)
C71 C -0.0289(4) 0.0992(4) 0.1413(3)
H57 H -0.0495 0.0720 0.1604
C72 C -0.0338(5) 0.0979(5) 0.0956(3)
H58 H -0.0582 0.0700 0.0829
C73 C -0.0036(6) 0.1369(5) 0.0695(3)
H59 H -0.0046 0.1352 0.0381
C74 C 0.0289(4) 0.1795(4) 0.0885(2)
H60 H 0.0473 0.2092 0.0698
N17 N 0.0533(3) 0.1684(3) 0.26578(15)
N18 N 0.0549(3) 0.1773(3) 0.22145(15)
C75 C 0.0138(3) 0.1422(4) 0.20643(19)
C76 C -0.0159(4) 0.1129(5) 0.2411(2)
H61 H -0.0473 0.0862 0.2394
C77 C 0.0101(5) 0.1311(5) 0.2777(2)
H62 H -0.0006 0.1193 0.3073
C78 C 0.1001(3) 0.1930(4) 0.29262(18)
H63 H 0.0802 0.1987 0.3236
H64 H 0.0952 0.2437 0.2811
C79 C 0.3706(4) 0.1188(3) 0.34190(18)
C80 C 0.3685(3) 0.1926(3) 0.33874(16)
H65 H 0.3295 0.2326 0.3218
C81 C 0.4240(3) 0.2062(3) 0.36055(15)
C82 C 0.4803(3) 0.1489(3) 0.38533(17)
H66 H 0.5170 0.1593 0.4007
C83 C 0.4837(4) 0.0761(4) 0.3880(2)
H67 H 0.5242 0.0357 0.4038
C84 C 0.4268(4) 0.0626(3) 0.3670(2)
H68 H 0.4272 0.0133 0.3703
C85 C 0.3147(3) 0.1022(3) 0.31684(18)
C86 C 0.2350(3) 0.1533(3) 0.31548(18)
H69 H 0.2162 0.1996 0.3309
C87 C 0.1841(3) 0.1364(3) 0.29187(17)
C88 C 0.2122(4) 0.0684(4) 0.2694(2)
H70 H 0.1774 0.0565 0.2530
C89 C 0.2894(4) 0.0184(4) 0.2705(2)
H71 H 0.3076 -0.0277 0.2548
C90 C 0.3409(4) 0.0340(4) 0.2937(2)
H72 H 0.3943 -0.0013 0.2942
N19 N -0.1396(3) 0.8398(3) 0.33943(16)
C91 C -0.1127(3) 0.7644(3) 0.35214(18)
C92 C -0.1596(4) 0.7376(4) 0.3770(2)
H73 H -0.1404 0.6845 0.3849
C93 C -0.2302(5) 0.7854(5) 0.3896(3)
H74 H -0.2605 0.7677 0.4083
C94 C -0.2612(5) 0.8643(6) 0.3749(3)
H75 H -0.3139 0.8988 0.3806
C95 C -0.2120(4) 0.8877(4) 0.3525(3)
H76 H -0.2297 0.9410 0.3456
N20 N 0.0831(2) 0.6865(2) 0.31552(13)
N21 N 0.0143(2) 0.7460(2) 0.32377(13)
C96 C -0.0338(3) 0.7140(3) 0.33793(15)
C97 C 0.0057(3) 0.6347(3) 0.33764(16)
H77 H -0.0146 0.5988 0.3459
C98 C 0.0789(3) 0.6186(3) 0.32324(17)
H78 H 0.1199 0.5690 0.3193
C99 C 0.1519(3) 0.6980(3) 0.30287(16)
H79 H 0.1981 0.6546 0.3156
H80 H 0.1474 0.7453 0.3164
N22 N 0.5488(3) 0.4237(3) 0.09427(14)
C100 C 0.4891(3) 0.4574(4) 0.06567(16)
C101 C 0.4618(4) 0.4135(5) 0.04299(19)
H81 H 0.4188 0.4373 0.0237
C102 C 0.4980(5) 0.3351(5) 0.0489(2)
H82 H 0.4806 0.3041 0.0333
C103 C 0.5597(4) 0.3012(5) 0.0776(2)
H83 H 0.5861 0.2470 0.0817
C104 C 0.5816(4) 0.3489(4) 0.09994(19)
H84 H 0.6226 0.3263 0.1206
N23 N 0.4442(3) 0.6548(3) 0.06729(15)
N24 N 0.4850(3) 0.5802(3) 0.08060(15)
C105 C 0.4552(3) 0.5402(4) 0.06007(17)
C106 C 0.3932(4) 0.5886(5) 0.03312(19)
H85 H 0.3617 0.5747 0.0152
C107 C 0.3882(4) 0.6594(5) 0.0384(2)
H86 H 0.3517 0.7053 0.0243
C108 C 0.4559(4) 0.7159(4) 0.0867(2)
H87 H 0.4390 0.7605 0.0654
H88 H 0.5122 0.6983 0.0918
C109 C 0.2447(3) 0.7288(3) 0.19632(17)
C110 C 0.2283(3) 0.7196(3) 0.24035(17)
H89 H 0.2607 0.7236 0.2623
C111 C 0.1656(3) 0.7045(3) 0.25340(17)
C112 C 0.1198(3) 0.6963(3) 0.22168(17)
H90 H 0.0769 0.6859 0.2302
C113 C 0.1369(3) 0.7034(4) 0.17750(19)
H91 H 0.1063 0.6962 0.1556
C114 C 0.1975(3) 0.7207(3) 0.16455(18)
H92 H 0.2073 0.7271 0.1339
C115 C 0.3118(3) 0.7466(3) 0.18360(18)
C116 C 0.3515(3) 0.7226(3) 0.14260(19)
H93 H 0.3367 0.6935 0.1237
C117 C 0.4119(3) 0.7414(4) 0.1301(2)
C118 C 0.4342(3) 0.7825(4) 0.1567(2)
H94 H 0.4762 0.7944 0.1480
C119 C 0.3948(3) 0.8074(4) 0.1973(2)
H95 H 0.4092 0.8376 0.2156
C120 C 0.3349(3) 0.7881(3) 0.2107(2)
H96 H 0.3098 0.8035 0.2386
N25 N 0.0464(3) 0.8950(3) 0.26640(15)
C121 C 0.0413(3) 0.9013(3) 0.22219(19)
C122 C 0.0952(4) 0.9160(3) 0.1959(2)
H97 H 0.0915 0.9202 0.1645
C123 C 0.1546(4) 0.9245(4) 0.2168(2)
H98 H 0.1920 0.9348 0.1996
C124 C 0.1596(4) 0.9180(3) 0.2619(2)
H99 H 0.2001 0.9237 0.2765
C125 C 0.1048(3) 0.9032(3) 0.2859(2)
H100 H 0.1081 0.8986 0.3173
N26 N -0.1261(3) 0.8744(3) 0.20209(17)
N27 N -0.0724(3) 0.8778(3) 0.22896(16)
C126 C -0.0220(3) 0.8900(3) 0.20348(18)
C127 C -0.0413(4) 0.8918(4) 0.1576(2)
H101 H -0.0141 0.8980 0.1319
C128 C -0.1081(5) 0.8825(4) 0.1600(2)
H102 H -0.1373 0.8818 0.1353
C129 C -0.1906(4) 0.8587(4) 0.2198(2)
H103 H -0.2312 0.8739 0.1970
H104 H -0.2139 0.8905 0.2458
N28 N 0.2208(3) 0.1365(3) 0.15820(17)
C130 C 0.2843(4) 0.1396(3) 0.1754(2)
C131 C 0.3563(4) 0.0797(4) 0.1741(3)
H105 H 0.3996 0.0826 0.1870
C132 C 0.3646(5) 0.0126(4) 0.1529(3)
H106 H 0.4144 -0.0298 0.1509
C133 C 0.3005(6) 0.0090(5) 0.1353(3)
H107 H 0.3052 -0.0358 0.1213
C134 C 0.2312(5) 0.0707(4) 0.1383(3)
H108 H 0.1872 0.0684 0.1259
N29 N 0.2060(3) 0.3163(3) 0.23029(15)
N30 N 0.1970(3) 0.2606(3) 0.20794(15)
C135 C 0.2713(3) 0.2099(3) 0.19822(19)
C136 C 0.3244(4) 0.2347(4) 0.2130(2)
H109 H 0.3795 0.2097 0.2097
C137 C 0.2816(4) 0.3020(4) 0.2332(2)
H110 H 0.3013 0.3331 0.2467
C138 C 0.1393(3) 0.3789(3) 0.25012(18)
H111 H 0.1566 0.3931 0.2773
H112 H 0.1002 0.3599 0.2592
C139 C -0.0777(3) 0.6409(3) 0.23072(18)
C140 C -0.0990(3) 0.7175(3) 0.21857(19)
H113 H -0.0655 0.7297 0.1991
C141 C -0.1661(3) 0.7763(3) 0.2333(2)
C142 C -0.2154(4) 0.7581(4) 0.2619(2)
H114 H -0.2627 0.7976 0.2723
C143 C -0.1958(4) 0.6838(4) 0.2747(2)
H115 H -0.2300 0.6722 0.2939
C144 C -0.1273(3) 0.6247(4) 0.26054(18)
H116 H -0.1138 0.5734 0.2709
C145 C -0.0057(3) 0.5778(3) 0.21211(17)
C146 C 0.0350(3) 0.5096(3) 0.23775(17)
H117 H 0.0174 0.5044 0.2670
C147 C 0.1000(3) 0.4505(3) 0.22072(18)
C148 C 0.1274(4) 0.4587(4) 0.17829(19)
H118 H 0.1733 0.4187 0.1667
C149 C 0.0872(4) 0.5256(4) 0.1531(2)
H119 H 0.1051 0.5311 0.1240
C150 C 0.0207(3) 0.5846(3) 0.17020(19)
H120 H -0.0066 0.6301 0.1526
N31 N 0.5976(3) 0.6001(3) 0.17245(14)
C151 C 0.5540(3) 0.6206(4) 0.20969(17)
C152 C 0.5624(3) 0.6679(4) 0.2389(2)
H121 H 0.5323 0.6795 0.2655
C153 C 0.6141(4) 0.6987(4) 0.2299(2)
H122 H 0.6196 0.7326 0.2497
C154 C 0.6578(4) 0.6793(4) 0.1913(2)
H123 H 0.6939 0.6999 0.1841
C155 C 0.6488(3) 0.6298(4) 0.1632(2)
H124 H 0.6794 0.6164 0.1367
N32 N 0.4550(2) 0.5013(3) 0.21324(14)
N33 N 0.5105(2) 0.5228(3) 0.19576(14)
C156 C 0.5021(3) 0.5836(3) 0.21901(16)
C157 C 0.4426(3) 0.5987(4) 0.25138(18)
H125 H 0.4261 0.6376 0.2726
C158 C 0.4140(3) 0.5470(4) 0.24634(17)
H126 H 0.3725 0.5433 0.2630
C159 C 0.4510(3) 0.4321(4) 0.19919(19)
H127 H 0.4410 0.4052 0.2256
H128 H 0.5024 0.3976 0.1867
N34 N -0.0016(3) 0.3574(3) 0.18030(14)
C160 C -0.0224(3) 0.4102(3) 0.14597(16)
C161 C -0.0873(3) 0.4810(3) 0.14962(18)
H129 H -0.1018 0.5176 0.1255
C162 C -0.1297(3) 0.4970(4) 0.18842(18)
H130 H -0.1744 0.5445 0.1912
C163 C -0.1072(3) 0.4436(3) 0.22348(18)
H131 H -0.1353 0.4544 0.2508
C164 C -0.0437(3) 0.3751(3) 0.21797(16)
H132 H -0.0286 0.3383 0.2420
N35 N 0.1166(3) 0.3177(3) 0.06248(15)
N36 N 0.0860(3) 0.3204(3) 0.10447(15)
C165 C 0.0263(3) 0.3897(3) 0.10678(18)
C166 C 0.0196(4) 0.4320(4) 0.06613(19)
H133 H -0.0175 0.4828 0.0587
C167 C 0.0782(4) 0.3837(4) 0.04021(18)
H134 H 0.0900 0.3954 0.0108
C168 C 0.1881(4) 0.2524(4) 0.0507(2)
H135 H 0.1941 0.2526 0.0180
H136 H 0.1835 0.2049 0.0603
C169 C 0.3311(3) 0.3863(3) 0.11886(17)
C170 C 0.3853(3) 0.3810(3) 0.15104(17)
H137 H 0.4194 0.3320 0.1631
C171 C 0.3895(3) 0.4457(3) 0.16525(17)
C172 C 0.3399(3) 0.5168(3) 0.14874(18)
H138 H 0.3428 0.5613 0.1587
C173 C 0.2854(3) 0.5236(3) 0.11737(18)
H139 H 0.2506 0.5730 0.1061
C174 C 0.2816(3) 0.4599(3) 0.10271(17)
H140 H 0.2444 0.4656 0.0810
C175 C 0.3297(3) 0.3153(3) 0.10281(18)
C176 C 0.2606(3) 0.3176(3) 0.08582(17)
H141 H 0.2143 0.3642 0.0848
C177 C 0.2610(4) 0.2501(4) 0.0705(2)
C178 C 0.3265(4) 0.1824(4) 0.0713(3)
H142 H 0.3254 0.1372 0.0612
C179 C 0.3950(4) 0.1804(4) 0.0871(3)
H143 H 0.4415 0.1340 0.0870
C180 C 0.3955(4) 0.2452(4) 0.1029(2)
H144 H 0.4426 0.2423 0.1144
O1 O 0.9337(3) 0.4456(3) 0.32223(18)
O2 O 1.0094(3) 0.4588(3) 0.36679(19)
O3 O 1.0414(3) 0.3500(3) 0.34069(19)
N37 N 0.9942(4) 0.4179(4) 0.3444(2)
O4 O 0.7341(3) 0.4697(3) 0.70273(17)
O5 O 0.6561(3) 0.5829(3) 0.72073(17)
O6 O 0.7565(3) 0.5681(3) 0.68322(17)
N38 N 0.7160(4) 0.5411(4) 0.7018(2)
O7 O 0.4155(3) 0.7561(4) 0.8080(2)
O8 O 0.5063(4) 0.7595(4) 0.7659(2)
O9 O 0.4209(3) 0.7332(3) 0.74105(18)
N39 N 0.4458(4) 0.7523(4) 0.7724(2)
O10 O 0.2300(3) 0.7767(3) 0.37001(16)
O11 O 0.3261(3) 0.6812(3) 0.34449(15)
O12 O 0.3141(3) 0.7941(3) 0.32687(17)
N40 N 0.2894(3) 0.7500(3) 0.34657(19)
O13 O 0.3703(6) 0.9079(6) 0.5345(3)
O14 O 0.2648(6) 1.0094(6) 0.5199(3)
O15 O 0.2649(6) 0.9330(6) 0.5765(3)
N41 N 0.3042(7) 0.9484(7) 0.5443(4)
O16 O 0.1236(5) 0.3899(5) -0.0636(3)
O17 O 0.2148(6) 0.3485(5) -0.1115(3)
N42 N 0.1770(6) 0.3408(6) -0.0778(4)
C181 C 0.1948(8) 0.2632(6) -0.0619(5)
H145 H 0.2264 0.2510 -0.0352
H146 H 0.2237 0.2272 -0.0849
H147 H 0.1463 0.2589 -0.0548
O18 O 0.5860(5) 0.7089(5) 0.3402(3)
O19 O 0.5741(5) 0.8067(5) 0.3776(3)
N43 N 0.5506(6) 0.7778(6) 0.3501(3)
C182 C 0.4731(6) 0.8215(7) 0.3304(4)
H148 H 0.4347 0.8459 0.3540
H149 H 0.4584 0.7867 0.3148
H150 H 0.4747 0.8611 0.3095
O20 O 0.2704(6) 1.0255(6) 0.4301(3)
O21 O 0.2423(6) 0.9323(6) 0.4112(4)
N44 N 0.2990(7) 0.9597(7) 0.4189(4)
C183 C 0.3737(7) 0.9116(9) 0.4179(6)
H151 H 0.3903 0.8980 0.3872
H152 H 0.3821 0.8652 0.4358
H153 H 0.4041 0.9361 0.4299
O22 O 0.8488(6) 0.2335(6) 0.4900(3)
O23 O 0.8458(6) 0.1232(5) 0.4965(3)
N45 N 0.8298(7) 0.1869(7) 0.4808(4)
C184 C 0.7925(8) 0.2084(8) 0.4369(4)
H154 H 0.7883 0.2591 0.4271
H155 H 0.7405 0.2100 0.4392
H156 H 0.8242 0.1704 0.4155
O24 O -0.0651(6) 0.3816(6) -0.0520(3)
O25 O -0.0281(6) 0.3066(6) 0.0040(3)
N46 N -0.0284(7) 0.3183(7) -0.0361(4)
C185 C 0.0240(9) 0.2605(8) -0.0650(5)
H157 H 0.0172 0.2813 -0.0956
H158 H 0.0125 0.2158 -0.0630
H159 H 0.0778 0.2451 -0.0560
O26 O 0.5008(7) 0.9015(7) 0.2298(4)
O27 O 0.6205(7) 0.8887(8) 0.2149(4)
N47 N 0.5549(9) 0.8984(9) 0.2077(5)
C186 C 0.5465(11) 0.8857(12) 0.1594(4)
H160 H 0.5444 0.9299 0.1412
H161 H 0.4985 0.8800 0.1558
H162 H 0.5912 0.8392 0.1501
O28 O 0.9730(4) 0.2183(4) 0.3762(2)
C187 C 0.9039(6) 0.2910(6) 0.3787(3)
H163 H 0.9180 0.3334 0.3840
H164 H 0.8682 0.2888 0.4028
C188 C 1.0170(6) 0.2025(6) 0.4190(3)
H165 H 1.0353 0.2422 0.4237
H166 H 0.9841 0.2004 0.4447
C189 C 0.8656(6) 0.3018(6) 0.3321(3)
H167 H 0.8886 0.3268 0.3112
H168 H 0.8095 0.3338 0.3348
H169 H 0.8750 0.2516 0.3214
C190 C 1.0827(6) 0.1273(6) 0.4126(4)
H170 H 1.0728 0.1035 0.3871
H171 H 1.0888 0.0943 0.4392
H172 H 1.1304 0.1339 0.4071
loop_
_geom_bond_atom_site_label_1
_geom_bond_atom_site_label_2
_geom_bond_site_symmetry_1
_geom_bond_site_symmetry_2
Cd1 N1 1_555 1_555
Cd2 N4 1_555 1_555
Cd3 N10 1_555 1_555
Cd4 N16 1_555 1_555
N1 C1 1_555 1_555
C1 C2 1_555 1_555
C2 H1 1_555 1_555
C3 C2 1_555 1_555
H2 C3 1_555 1_555
C4 C3 1_555 1_555
H3 C4 1_555 1_555
C5 N1 1_555 1_555
H4 C5 1_555 1_555
N2 N3 1_555 1_555
N3 Cd1 1_555 1_555
C6 C1 1_555 1_555
C7 C6 1_555 1_555
H5 C7 1_555 1_555
C8 N2 1_555 1_555
H6 C8 1_555 1_555
C9 N2 1_555 1_555
H7 C9 1_555 1_555
H8 C9 1_555 1_555
N4 C10 1_555 1_555
C10 C11 1_555 1_555
C11 H9 1_555 1_555
C12 C11 1_555 1_555
H10 C12 1_555 1_555
C13 C12 1_555 1_555
H11 C13 1_555 1_555
C14 N4 1_555 1_555
H12 C14 1_555 1_555
N5 N6 1_555 1_555
N6 Cd2 1_555 1_555
C15 C10 1_555 1_555
C16 C15 1_555 1_555
H13 C16 1_555 1_555
C17 N5 1_555 1_555
H14 C17 1_555 1_555
C18 N5 1_555 1_555
H15 C18 1_555 1_555
H16 C18 1_555 1_555
C19 C20 1_555 1_555
C20 H17 1_555 1_555
C21 C9 1_555 1_555
C22 C21 1_555 1_555
H18 C22 1_555 1_555
C23 C22 1_555 1_555
H19 C23 1_555 1_555
C24 C19 1_555 1_555
H20 C24 1_555 1_555
C25 C19 1_555 1_555
C26 C25 1_555 1_555
H21 C26 1_555 1_555
C27 C18 1_555 1_555
C28 C27 1_555 1_555
H22 C28 1_555 1_555
C29 C28 1_555 1_555
H23 C29 1_555 1_555
C30 C25 1_555 1_555
H24 C30 1_555 1_555
N7 Cd1 1_555 1_555
C31 N7 1_555 1_555
C32 C31 1_555 1_555
H25 C32 1_555 1_555
C33 C32 1_555 1_555
H26 C33 1_555 1_555
C34 C33 1_555 1_555
H27 C34 1_555 1_555
C35 N7 1_555 1_555
H28 C35 1_555 1_555
N8 N9 1_555 1_555
N9 Cd1 1_555 1_555
C36 C31 1_555 1_555
C37 C36 1_555 1_555
H29 C37 1_555 1_555
C38 N8 1_555 1_555
H30 C38 1_555 1_555
C39 N8 1_555 1_555
H31 C39 1_555 1_555
H32 C39 1_555 1_555
N10 C40 1_555 1_555
C40 C41 1_555 1_555
C41 H33 1_555 1_555
C42 C41 1_555 1_555
H34 C42 1_555 1_555
C43 C42 1_555 1_555
H35 C43 1_555 1_555
C44 N10 1_555 1_555
H36 C44 1_555 1_555
N11 N12 1_555 1_555
N12 Cd3 1_555 1_555
C45 C40 1_555 1_555
C46 C45 1_555 1_555
H37 C46 1_555 1_555
C47 N11 1_555 1_555
H38 C47 1_555 1_555
C48 N11 1_555 1_555
H39 C48 1_555 1_555
H40 C48 1_555 1_555
C49 C50 1_555 1_555
C50 H41 1_555 1_555
C51 C39 1_555 1_555
C52 C51 1_555 1_555
H42 C52 1_555 1_555
C53 C52 1_555 1_555
H43 C53 1_555 1_555
C54 C49 1_555 1_555
H44 C54 1_555 1_555
C55 C49 1_555 1_555
C56 C55 1_555 1_555
H45 C56 1_555 1_555
C57 C48 1_555 1_555
C58 C57 1_555 1_555
H46 C58 1_555 1_555
C59 C58 1_555 1_555
H47 C59 1_555 1_555
C60 C55 1_555 1_555
H48 C60 1_555 1_555
N13 Cd1 1_555 1_555
C61 N13 1_555 1_555
C62 C61 1_555 1_555
H49 C62 1_555 1_555
C63 C62 1_555 1_555
H50 C63 1_555 1_555
C64 C63 1_555 1_555
H51 C64 1_555 1_555
C65 N13 1_555 1_555
H52 C65 1_555 1_555
N14 N15 1_555 1_555
N15 Cd1 1_555 1_555
C66 C61 1_555 1_555
C67 C66 1_555 1_555
H53 C67 1_555 1_555
C68 N14 1_555 1_555
H54 C68 1_555 1_555
C69 N14 1_555 1_555
H55 C69 1_555 1_555
H56 C69 1_555 1_555
N16 C70 1_555 1_555
C70 C71 1_555 1_555
C71 H57 1_555 1_555
C72 C71 1_555 1_555
H58 C72 1_555 1_555
C73 C72 1_555 1_555
H59 C73 1_555 1_555
C74 N16 1_555 1_555
H60 C74 1_555 1_555
N17 N18 1_555 1_555
N18 Cd4 1_555 1_555
C75 C70 1_555 1_555
C76 C75 1_555 1_555
H61 C76 1_555 1_555
C77 N17 1_555 1_555
H62 C77 1_555 1_555
C78 N17 1_555 1_555
H63 C78 1_555 1_555
H64 C78 1_555 1_555
C79 C80 1_555 1_555
C80 H65 1_555 1_555
C81 C69 1_555 1_555
C82 C81 1_555 1_555
H66 C82 1_555 1_555
C83 C82 1_555 1_555
H67 C83 1_555 1_555
C84 C79 1_555 1_555
H68 C84 1_555 1_555
C85 C79 1_555 1_555
C86 C85 1_555 1_555
H69 C86 1_555 1_555
C87 C78 1_555 1_555
C88 C87 1_555 1_555
H70 C88 1_555 1_555
C89 C88 1_555 1_555
H71 C89 1_555 1_555
C90 C85 1_555 1_555
H72 C90 1_555 1_555
N19 Cd2 1_555 1_555
C91 N19 1_555 1_555
C92 C91 1_555 1_555
H73 C92 1_555 1_555
C93 C92 1_555 1_555
H74 C93 1_555 1_555
C94 C93 1_555 1_555
H75 C94 1_555 1_555
C95 N19 1_555 1_555
H76 C95 1_555 1_555
N20 N21 1_555 1_555
N21 Cd2 1_555 1_555
C96 C91 1_555 1_555
C97 C96 1_555 1_555
H77 C97 1_555 1_555
C98 N20 1_555 1_555
H78 C98 1_555 1_555
C99 N20 1_555 1_555
H79 C99 1_555 1_555
H80 C99 1_555 1_555
N22 Cd3 1_555 1_555
C100 N22 1_555 1_555
C101 C100 1_555 1_555
H81 C101 1_555 1_555
C102 C101 1_555 1_555
H82 C102 1_555 1_555
C103 C102 1_555 1_555
H83 C103 1_555 1_555
C104 N22 1_555 1_555
H84 C104 1_555 1_555
N23 N24 1_555 1_555
N24 Cd3 1_555 1_555
C105 C100 1_555 1_555
C106 C105 1_555 1_555
H85 C106 1_555 1_555
C107 N23 1_555 1_555
H86 C107 1_555 1_555
C108 N23 1_555 1_555
H87 C108 1_555 1_555
H88 C108 1_555 1_555
C109 C110 1_555 1_555
C110 H89 1_555 1_555
C111 C99 1_555 1_555
C112 C111 1_555 1_555
H90 C112 1_555 1_555
C113 C112 1_555 1_555
H91 C113 1_555 1_555
C114 C109 1_555 1_555
H92 C114 1_555 1_555
C115 C109 1_555 1_555
C116 C115 1_555 1_555
H93 C116 1_555 1_555
C117 C108 1_555 1_555
C118 C117 1_555 1_555
H94 C118 1_555 1_555
C119 C118 1_555 1_555
H95 C119 1_555 1_555
C120 C115 1_555 1_555
H96 C120 1_555 1_555
N25 Cd2 1_555 1_555
C121 N25 1_555 1_555
C122 C121 1_555 1_555
H97 C122 1_555 1_555
C123 C122 1_555 1_555
H98 C123 1_555 1_555
C124 C123 1_555 1_555
H99 C124 1_555 1_555
C125 N25 1_555 1_555
H100 C125 1_555 1_555
N26 N27 1_555 1_555
N27 Cd2 1_555 1_555
C126 C121 1_555 1_555
C127 C126 1_555 1_555
H101 C127 1_555 1_555
C128 N26 1_555 1_555
H102 C128 1_555 1_555
C129 N26 1_555 1_555
H103 C129 1_555 1_555
H104 C129 1_555 1_555
N28 Cd4 1_555 1_555
C130 N28 1_555 1_555
C131 C130 1_555 1_555
H105 C131 1_555 1_555
C132 C131 1_555 1_555
H106 C132 1_555 1_555
C133 C132 1_555 1_555
H107 C133 1_555 1_555
C134 N28 1_555 1_555
H108 C134 1_555 1_555
N29 N30 1_555 1_555
N30 Cd4 1_555 1_555
C135 C130 1_555 1_555
C136 C135 1_555 1_555
H109 C136 1_555 1_555
C137 N29 1_555 1_555
H110 C137 1_555 1_555
C138 N29 1_555 1_555
H111 C138 1_555 1_555
H112 C138 1_555 1_555
C139 C140 1_555 1_555
C140 H113 1_555 1_555
C141 C129 1_555 1_555
C142 C141 1_555 1_555
H114 C142 1_555 1_555
C143 C142 1_555 1_555
H115 C143 1_555 1_555
C144 C139 1_555 1_555
H116 C144 1_555 1_555
C145 C139 1_555 1_555
C146 C145 1_555 1_555
H117 C146 1_555 1_555
C147 C138 1_555 1_555
C148 C147 1_555 1_555
H118 C148 1_555 1_555
C149 C148 1_555 1_555
H119 C149 1_555 1_555
C150 C145 1_555 1_555
H120 C150 1_555 1_555
N31 Cd3 1_555 1_555
C151 N31 1_555 1_555
C152 C151 1_555 1_555
H121 C152 1_555 1_555
C153 C152 1_555 1_555
H122 C153 1_555 1_555
C154 C153 1_555 1_555
H123 C154 1_555 1_555
C155 N31 1_555 1_555
H124 C155 1_555 1_555
N32 N33 1_555 1_555
N33 Cd3 1_555 1_555
C156 C151 1_555 1_555
C157 C156 1_555 1_555
H125 C157 1_555 1_555
C158 N32 1_555 1_555
H126 C158 1_555 1_555
C159 N32 1_555 1_555
H127 C159 1_555 1_555
H128 C159 1_555 1_555
N34 Cd4 1_555 1_555
C160 N34 1_555 1_555
C161 C160 1_555 1_555
H129 C161 1_555 1_555
C162 C161 1_555 1_555
H130 C162 1_555 1_555
C163 C162 1_555 1_555
H131 C163 1_555 1_555
C164 N34 1_555 1_555
H132 C164 1_555 1_555
N35 N36 1_555 1_555
N36 Cd4 1_555 1_555
C165 C160 1_555 1_555
C166 C165 1_555 1_555
H133 C166 1_555 1_555
C167 N35 1_555 1_555
H134 C167 1_555 1_555
C168 N35 1_555 1_555
H135 C168 1_555 1_555
H136 C168 1_555 1_555
C169 C170 1_555 1_555
C170 H137 1_555 1_555
C171 C159 1_555 1_555
C172 C171 1_555 1_555
H138 C172 1_555 1_555
C173 C172 1_555 1_555
H139 C173 1_555 1_555
C174 C169 1_555 1_555
H140 C174 1_555 1_555
C175 C169 1_555 1_555
C176 C175 1_555 1_555
H141 C176 1_555 1_555
C177 C168 1_555 1_555
C178 C177 1_555 1_555
H142 C178 1_555 1_555
C179 C178 1_555 1_555
H143 C179 1_555 1_555
C180 C175 1_555 1_555
H144 C180 1_555 1_555
O1 N37 1_555 1_555
O2 N37 1_555 1_555
O3 N37 1_555 1_555
O4 N38 1_555 1_555
O5 N38 1_555 1_555
O6 N38 1_555 1_555
O7 N39 1_555 1_555
O8 N39 1_555 1_555
O9 N39 1_555 1_555
O10 N40 1_555 1_555
O11 N40 1_555 1_555
O12 N40 1_555 1_555
O13 N41 1_555 1_555
O14 N41 1_555 1_555
O15 N41 1_555 1_555
O16 N42 1_555 1_555
O17 N42 1_555 1_555
N42 C181 1_555 1_555
C181 H145 1_555 1_555
H146 C181 1_555 1_555
H147 C181 1_555 1_555
O18 N43 1_555 1_555
O19 N43 1_555 1_555
N43 C182 1_555 1_555
C182 H148 1_555 1_555
H149 C182 1_555 1_555
H150 C182 1_555 1_555
O20 N44 1_555 1_555
O21 N44 1_555 1_555
N44 C183 1_555 1_555
C183 H151 1_555 1_555
H152 C183 1_555 1_555
H153 C183 1_555 1_555
O22 N45 1_555 1_555
O23 N45 1_555 1_555
N45 C184 1_555 1_555
C184 H154 1_555 1_555
H155 C184 1_555 1_555
H156 C184 1_555 1_555
O24 N46 1_555 1_555
O25 N46 1_555 1_555
N46 C185 1_555 1_555
C185 H157 1_555 1_555
H158 C185 1_555 1_555
H159 C185 1_555 1_555
O26 N47 1_555 1_555
O27 N47 1_555 1_555
N47 C186 1_555 1_555
C186 H160 1_555 1_555
H161 C186 1_555 1_555
H162 C186 1_555 1_555
O28 C187 1_555 1_555
C187 H163 1_555 1_555
H164 C187 1_555 1_555
C188 O28 1_555 1_555
H165 C188 1_555 1_555
H166 C188 1_555 1_555
C189 C187 1_555 1_555
H167 C189 1_555 1_555
H168 C189 1_555 1_555
H169 C189 1_555 1_555
C190 C188 1_555 1_555
H170 C190 1_555 1_555
H171 C190 1_555 1_555
H172 C190 1_555 1_555
C4 C5 1_555 1_555
N3 C6 1_555 1_555
C7 C8 1_555 1_555
C13 C14 1_555 1_555
N6 C15 1_555 1_555
C16 C17 1_555 1_555
C20 C21 1_555 1_555
C23 C24 1_555 1_555
C26 C27 1_555 1_555
C29 C30 1_555 1_555
C34 C35 1_555 1_555
N9 C36 1_555 1_555
C37 C38 1_555 1_555
C43 C44 1_555 1_555
N12 C45 1_555 1_555
C46 C47 1_555 1_555
C50 C51 1_555 1_555
C53 C54 1_555 1_555
C56 C57 1_555 1_555
C59 C60 1_555 1_555
C64 C65 1_555 1_555
N15 C66 1_555 1_555
C67 C68 1_555 1_555
C73 C74 1_555 1_555
N18 C75 1_555 1_555
C76 C77 1_555 1_555
C80 C81 1_555 1_555
C83 C84 1_555 1_555
C86 C87 1_555 1_555
C89 C90 1_555 1_555
C94 C95 1_555 1_555
N21 C96 1_555 1_555
C97 C98 1_555 1_555
C103 C104 1_555 1_555
N24 C105 1_555 1_555
C106 C107 1_555 1_555
C110 C111 1_555 1_555
C113 C114 1_555 1_555
C116 C117 1_555 1_555
C119 C120 1_555 1_555
C124 C125 1_555 1_555
N27 C126 1_555 1_555
C127 C128 1_555 1_555
C133 C134 1_555 1_555
N30 C135 1_555 1_555
C136 C137 1_555 1_555
C140 C141 1_555 1_555
C143 C144 1_555 1_555
C146 C147 1_555 1_555
C149 C150 1_555 1_555
C154 C155 1_555 1_555
N33 C156 1_555 1_555
C157 C158 1_555 1_555
C163 C164 1_555 1_555
N36 C165 1_555 1_555
C166 C167 1_555 1_555
C170 C171 1_555 1_555
C173 C174 1_555 1_555
C176 C177 1_555 1_555
C179 C180 1_555 1_555

#END
