# generated using pymatgen
data_Co4B6H167C206S2N39(O5F16)2
_symmetry_space_group_name_H-M   'P 1'
_cell_length_a   18.79770000
_cell_length_b   19.77260000
_cell_length_c   32.58100000
_cell_angle_alpha   82.61700000
_cell_angle_beta   84.76200000
_cell_angle_gamma   65.01200000
_symmetry_Int_Tables_number   1
_chemical_formula_structural   Co4B6H167C206S2N39(O5F16)2
_chemical_formula_sum   'Co8 B12 H334 C412 S4 N78 O20 F64'
_cell_volume   10875.94444403
_cell_formula_units_Z   2
loop_
 _symmetry_equiv_pos_site_id
 _symmetry_equiv_pos_as_xyz
  1  'x, y, z'
loop_
 _atom_site_type_symbol
 _atom_site_label
 _atom_site_symmetry_multiplicity
 _atom_site_fract_x
 _atom_site_fract_y
 _atom_site_fract_z
 _atom_site_occupancy
  Co  Co1  1  0.983070  0.394020  0.382000  1
  Co  Co2  1  0.016930  0.605980  0.618000  1
  Co  Co3  1  0.659580  0.000920  0.269980  1
  Co  Co4  1  0.340420  0.999080  0.730020  1
  Co  Co5  1  0.468680  0.648270  0.324140  1
  Co  Co6  1  0.531320  0.351730  0.675860  1
  Co  Co7  1  0.251340  0.469260  0.051330  1
  Co  Co8  1  0.748660  0.530740  0.948670  1
  B  B9  1  0.041000  0.608200  0.253400  1
  B  B10  1  0.959000  0.391800  0.746600  1
  B  B11  1  0.721200  0.282200  0.461100  1
  B  B12  1  0.278800  0.717800  0.538900  1
  B  B13  1  0.061700  0.069200  0.226300  1
  B  B14  1  0.938300  0.930800  0.773700  1
  B  B15  1  0.574700  0.454800  0.174400  1
  B  B16  1  0.425300  0.545200  0.825600  1
  B  B17  1  0.321200  0.401000  0.223200  1
  B  B18  1  0.678800  0.599000  0.776800  1
  B  B19  1  0.587500  0.487600  0.173500  1
  B  B20  1  0.412500  0.512400  0.826500  1
  H  H21  1  0.934100  0.573600  0.364400  1
  H  H22  1  0.065900  0.426400  0.635600  1
  H  H23  1  0.948900  0.664600  0.397600  1
  H  H24  1  0.051100  0.335400  0.602400  1
  H  H25  1  0.027400  0.628900  0.455200  1
  H  H26  1  0.972600  0.371100  0.544800  1
  H  H27  1  0.091000  0.502000  0.479500  1
  H  H28  1  0.909000  0.498000  0.520500  1
  H  H29  1  0.152100  0.366000  0.502000  1
  H  H30  1  0.847900  0.634000  0.498000  1
  H  H31  1  0.170800  0.230800  0.504100  1
  H  H32  1  0.829200  0.769200  0.495900  1
  H  H33  1  0.038000  0.218900  0.431700  1
  H  H34  1  0.962000  0.781100  0.568300  1
  H  H35  1  0.098200  0.167300  0.466300  1
  H  H36  1  0.901800  0.832700  0.533700  1
  H  H37  1  0.848800  0.920500  0.251500  1
  H  H38  1  0.151200  0.079500  0.748500  1
  H  H39  1  0.941100  0.952800  0.210800  1
  H  H40  1  0.058900  0.047200  0.789200  1
  H  H41  1  0.903400  0.073700  0.176800  1
  H  H42  1  0.096600  0.926300  0.823200  1
  H  H43  1  0.773400  0.162300  0.183500  1
  H  H44  1  0.226600  0.837700  0.816500  1
  H  H45  1  0.640700  0.254400  0.205100  1
  H  H46  1  0.359300  0.745600  0.794900  1
  H  H47  1  0.497100  0.291600  0.226700  1
  H  H48  1  0.502900  0.708400  0.773300  1
  H  H49  1  0.464000  0.122600  0.245900  1
  H  H50  1  0.536000  0.877400  0.754100  1
  H  H51  1  0.417500  0.211700  0.240000  1
  H  H52  1  0.582500  0.788300  0.760000  1
  H  H53  1  0.342700  0.143400  0.293200  1
  H  H54  1  0.657300  0.856600  0.706800  1
  H  H55  1  0.361500  0.171400  0.412100  1
  H  H56  1  0.638500  0.828600  0.587900  1
  H  H57  1  0.471100  0.197200  0.392400  1
  H  H58  1  0.528900  0.802800  0.607600  1
  H  H59  1  0.516400  0.196100  0.323100  1
  H  H60  1  0.483600  0.803900  0.676900  1
  H  H61  1  0.288200  0.066600  0.323600  1
  H  H62  1  0.711800  0.933400  0.676400  1
  H  H63  1  0.175400  0.045400  0.341600  1
  H  H64  1  0.824600  0.954600  0.658400  1
  H  H65  1  0.088700  0.106700  0.394700  1
  H  H66  1  0.911300  0.893300  0.605300  1
  H  H67  1  0.227500  0.210500  0.411900  1
  H  H68  1  0.772500  0.789500  0.588100  1
  H  H69  1  0.869400  0.306800  0.397600  1
  H  H70  1  0.130600  0.693200  0.602400  1
  H  H71  1  0.856100  0.210800  0.368400  1
  H  H72  1  0.143900  0.789200  0.631600  1
  H  H73  1  0.945200  0.149800  0.316000  1
  H  H74  1  0.054800  0.850200  0.684000  1
  H  H75  1  0.047600  0.184700  0.292800  1
  H  H76  1  0.952400  0.815300  0.707200  1
  H  H77  1  0.159500  0.222100  0.276900  1
  H  H78  1  0.840500  0.777900  0.723100  1
  H  H79  1  0.223300  0.313300  0.272100  1
  H  H80  1  0.776700  0.686700  0.727900  1
  H  H81  1  0.086300  0.480600  0.320300  1
  H  H82  1  0.913700  0.519400  0.679700  1
  H  H83  1  0.164400  0.453100  0.291200  1
  H  H84  1  0.835600  0.546900  0.708800  1
  H  H85  1  0.606100  0.557800  0.259900  1
  H  H86  1  0.393900  0.442200  0.740100  1
  H  H87  1  0.720500  0.446200  0.262800  1
  H  H88  1  0.279500  0.553800  0.737200  1
  H  H89  1  0.752100  0.367900  0.324900  1
  H  H90  1  0.247900  0.632100  0.675100  1
  H  H91  1  0.669400  0.401300  0.384000  1
  H  H92  1  0.330600  0.598700  0.616000  1
  H  H93  1  0.575500  0.448400  0.444300  1
  H  H94  1  0.424500  0.551600  0.555700  1
  H  H95  1  0.457600  0.543100  0.481100  1
  H  H96  1  0.542400  0.456900  0.518900  1
  H  H97  1  0.365100  0.716100  0.412900  1
  H  H98  1  0.634900  0.283900  0.587100  1
  H  H99  1  0.354800  0.680200  0.458800  1
  H  H100  1  0.645200  0.319800  0.541200  1
  H  H101  1  0.220900  0.773400  0.414200  1
  H  H102  1  0.779100  0.226600  0.585800  1
  H  H103  1  0.108000  0.766100  0.394400  1
  H  H104  1  0.892000  0.233900  0.605600  1
  H  H105  1  0.111000  0.649900  0.384400  1
  H  H106  1  0.889000  0.350100  0.615600  1
  H  H107  1  0.339800  0.548100  0.414000  1
  H  H108  1  0.660200  0.451900  0.586000  1
  H  H109  1  0.154400  0.552500  0.343700  1
  H  H110  1  0.845600  0.447500  0.656300  1
  H  H111  1  0.234300  0.327900  0.373100  1
  H  H112  1  0.765700  0.672100  0.626900  1
  H  H113  1  0.307300  0.334800  0.425600  1
  H  H114  1  0.692700  0.665200  0.574400  1
  H  H115  1  0.303900  0.450500  0.437100  1
  H  H116  1  0.696100  0.549500  0.562900  1
  H  H117  1  0.935700  0.348700  0.476600  1
  H  H118  1  0.064300  0.651300  0.523400  1
  H  H119  1  0.822000  0.383100  0.519700  1
  H  H120  1  0.178000  0.616900  0.480300  1
  H  H121  1  0.702700  0.474500  0.495000  1
  H  H122  1  0.297300  0.525500  0.505000  1
  H  H123  1  0.697100  0.531600  0.427100  1
  H  H124  1  0.302900  0.468400  0.572900  1
  H  H125  1  0.703800  0.589300  0.355100  1
  H  H126  1  0.296200  0.410700  0.644900  1
  H  H127  1  0.766000  0.600200  0.283600  1
  H  H128  1  0.234000  0.399800  0.716400  1
  H  H129  1  0.979900  0.485600  0.286200  1
  H  H130  1  0.020100  0.514400  0.713800  1
  H  H131  1  0.915900  0.540400  0.254100  1
  H  H132  1  0.084100  0.459600  0.745900  1
  H  H133  1  0.319900  0.527300  0.966500  1
  H  H134  1  0.680100  0.472700  0.033500  1
  H  H135  1  0.416600  0.473900  0.915300  1
  H  H136  1  0.583400  0.526100  0.084700  1
  H  H137  1  0.497600  0.345400  0.922700  1
  H  H138  1  0.502400  0.654600  0.077300  1
  H  H139  1  0.482100  0.270200  0.981300  1
  H  H140  1  0.517900  0.729800  0.018700  1
  H  H141  1  0.457000  0.200600  0.046900  1
  H  H142  1  0.543000  0.799400  0.953100  1
  H  H143  1  0.392800  0.187100  0.117600  1
  H  H144  1  0.607200  0.812900  0.882400  1
  H  H145  1  0.253100  0.375500  0.145500  1
  H  H146  1  0.746900  0.624500  0.854500  1
  H  H147  1  0.295100  0.291500  0.166600  1
  H  H148  1  0.704900  0.708500  0.833400  1
  H  H149  1  0.223800  0.263300  0.082400  1
  H  H150  1  0.776200  0.736700  0.917600  1
  H  H151  1  0.108700  0.245900  0.079600  1
  H  H152  1  0.891300  0.754100  0.920400  1
  H  H153  1  0.011400  0.282900  0.132600  1
  H  H154  1  0.988600  0.717100  0.867400  1
  H  H155  1  0.144300  0.354500  0.191100  1
  H  H156  1  0.855700  0.645500  0.808900  1
  H  H157  1  0.964900  0.267200  0.197800  1
  H  H158  1  0.035100  0.732800  0.802200  1
  H  H159  1  0.868800  0.304900  0.249100  1
  H  H160  1  0.131200  0.695100  0.750900  1
  H  H161  1  0.850800  0.405600  0.285600  1
  H  H162  1  0.149200  0.594400  0.714400  1
  H  H163  1  0.027500  0.432900  0.214700  1
  H  H164  1  0.972500  0.567100  0.785300  1
  H  H165  1  0.513100  0.967300  0.248400  1
  H  H166  1  0.486900  0.032700  0.751600  1
  H  H167  1  0.415200  0.939700  0.286300  1
  H  H168  1  0.584800  0.060300  0.713700  1
  H  H169  1  0.403600  0.941100  0.358400  1
  H  H170  1  0.596400  0.058900  0.641600  1
  H  H171  1  0.489900  0.970200  0.392500  1
  H  H172  1  0.510100  0.029800  0.607500  1
  H  H173  1  0.587300  0.997600  0.423900  1
  H  H174  1  0.412700  0.002400  0.576100  1
  H  H175  1  0.709300  0.022000  0.424600  1
  H  H176  1  0.290700  0.978000  0.575400  1
  H  H177  1  0.810400  0.005200  0.324400  1
  H  H178  1  0.189600  0.994800  0.675600  1
  H  H179  1  0.811900  0.033200  0.368200  1
  H  H180  1  0.188100  0.966800  0.631800  1
  H  H181  1  0.402200  0.817200  0.349900  1
  H  H182  1  0.597800  0.182800  0.650100  1
  H  H183  1  0.282300  0.923200  0.346200  1
  H  H184  1  0.717700  0.076800  0.653800  1
  H  H185  1  0.172000  0.915900  0.322800  1
  H  H186  1  0.828000  0.084100  0.677200  1
  H  H187  1  0.181400  0.802600  0.303100  1
  H  H188  1  0.818600  0.197400  0.696900  1
  H  H189  1  0.199100  0.674400  0.291700  1
  H  H190  1  0.800900  0.325600  0.708300  1
  H  H191  1  0.279200  0.543100  0.270800  1
  H  H192  1  0.720800  0.456900  0.729200  1
  H  H193  1  0.485700  0.512500  0.260900  1
  H  H194  1  0.514300  0.487500  0.739100  1
  H  H195  1  0.429800  0.475300  0.250300  1
  H  H196  1  0.570200  0.524700  0.749700  1
  H  H197  1  0.398800  0.472000  0.353000  1
  H  H198  1  0.601200  0.528000  0.647000  1
  H  H199  1  0.461200  0.372500  0.403000  1
  H  H200  1  0.538800  0.627500  0.597000  1
  H  H201  1  0.580200  0.274000  0.386000  1
  H  H202  1  0.419800  0.726000  0.614000  1
  H  H203  1  0.574200  0.374300  0.269000  1
  H  H204  1  0.425800  0.625700  0.731000  1
  H  H205  1  0.704100  0.312300  0.271100  1
  H  H206  1  0.295900  0.687700  0.728900  1
  H  H207  1  0.822800  0.213600  0.254000  1
  H  H208  1  0.177200  0.786400  0.746000  1
  H  H209  1  0.854700  0.092900  0.287400  1
  H  H210  1  0.145300  0.907100  0.712600  1
  H  H211  1  0.649200  0.169700  0.354900  1
  H  H212  1  0.350800  0.830300  0.645100  1
  H  H213  1  0.760700  0.881500  0.345000  1
  H  H214  1  0.239300  0.118500  0.655000  1
  H  H215  1  0.841000  0.753100  0.355200  1
  H  H216  1  0.159000  0.246900  0.644800  1
  H  H217  1  0.861600  0.676900  0.302000  1
  H  H218  1  0.138400  0.323100  0.698000  1
  H  H219  1  0.801700  0.729100  0.238800  1
  H  H220  1  0.198300  0.270900  0.761200  1
  H  H221  1  0.726000  0.791100  0.176800  1
  H  H222  1  0.274000  0.208900  0.823200  1
  H  H223  1  0.632700  0.899600  0.130400  1
  H  H224  1  0.367300  0.100400  0.869600  1
  H  H225  1  0.550100  0.071300  0.184700  1
  H  H226  1  0.449900  0.928700  0.815300  1
  H  H227  1  0.540100  0.042000  0.143000  1
  H  H228  1  0.459900  0.958000  0.857000  1
  H  H229  1  0.118400  0.567200  0.986000  1
  H  H230  1  0.881600  0.432800  0.014000  1
  H  H231  1  0.063900  0.690900  0.955200  1
  H  H232  1  0.936100  0.309100  0.044800  1
  H  H233  1  0.109100  0.777400  0.971600  1
  H  H234  1  0.890900  0.222600  0.028400  1
  H  H235  1  0.208900  0.740200  0.018600  1
  H  H236  1  0.791100  0.259800  0.981400  1
  H  H237  1  0.319100  0.687900  0.069400  1
  H  H238  1  0.680900  0.312100  0.930600  1
  H  H239  1  0.416100  0.586800  0.117700  1
  H  H240  1  0.583900  0.413200  0.882300  1
  H  H241  1  0.378500  0.417300  0.128800  1
  H  H242  1  0.621500  0.582700  0.871200  1
  H  H243  1  0.434700  0.448700  0.145800  1
  H  H244  1  0.565300  0.551300  0.854200  1
  H  H245  1  0.473000  0.474200  0.044200  1
  H  H246  1  0.527000  0.525800  0.955800  1
  H  H247  1  0.579300  0.395800  0.004700  1
  H  H248  1  0.420700  0.604200  0.995300  1
  H  H249  1  0.650300  0.270300  0.029600  1
  H  H250  1  0.349700  0.729700  0.970400  1
  H  H251  1  0.508900  0.301600  0.133500  1
  H  H252  1  0.491100  0.698400  0.866500  1
  H  H253  1  0.738800  0.177600  0.075000  1
  H  H254  1  0.261200  0.822400  0.925000  1
  H  H255  1  0.804300  0.051100  0.099600  1
  H  H256  1  0.195700  0.948900  0.900400  1
  H  H257  1  0.735200  0.989100  0.138900  1
  H  H258  1  0.264800  0.010900  0.861100  1
  H  H259  1  0.534900  0.180000  0.129100  1
  H  H260  1  0.465100  0.820000  0.870900  1
  H  H261  1  0.535000  0.670100  0.410000  1
  H  H262  1  0.465000  0.329900  0.590000  1
  H  H263  1  0.609800  0.730400  0.427700  1
  H  H264  1  0.390200  0.269600  0.572300  1
  H  H265  1  0.658000  0.795900  0.376200  1
  H  H266  1  0.342000  0.204100  0.623800  1
  H  H267  1  0.631400  0.801100  0.306800  1
  H  H268  1  0.368600  0.198900  0.693200  1
  H  H269  1  0.593300  0.805600  0.235800  1
  H  H270  1  0.406700  0.194400  0.764200  1
  H  H271  1  0.532300  0.772900  0.179300  1
  H  H272  1  0.467700  0.227100  0.820700  1
  H  H273  1  0.452800  0.635400  0.224800  1
  H  H274  1  0.547200  0.364600  0.775200  1
  H  H275  1  0.471200  0.670600  0.180300  1
  H  H276  1  0.528800  0.329400  0.819700  1
  H  H277  1  0.244700  0.384100  0.973300  1
  H  H278  1  0.755300  0.615900  0.026700  1
  H  H279  1  0.155400  0.346000  0.949100  1
  H  H280  1  0.844600  0.654000  0.050900  1
  H  H281  1  0.034800  0.369900  0.984900  1
  H  H282  1  0.965200  0.630100  0.015100  1
  H  H283  1  0.003600  0.432000  0.044900  1
  H  H284  1  0.996400  0.568000  0.955100  1
  H  H285  1  0.978200  0.501900  0.105800  1
  H  H286  1  0.021800  0.498100  0.894200  1
  H  H287  1  0.015100  0.554800  0.163200  1
  H  H288  1  0.984900  0.445200  0.836800  1
  H  H289  1  0.228200  0.517200  0.147000  1
  H  H290  1  0.771800  0.482800  0.853000  1
  H  H291  1  0.162300  0.537600  0.183700  1
  H  H292  1  0.837700  0.462400  0.816300  1
  H  H293  1  0.076100  0.659600  0.100600  1
  H  H294  1  0.923900  0.340400  0.899400  1
  H  H295  1  0.058400  0.784800  0.087700  1
  H  H296  1  0.941600  0.215200  0.912300  1
  H  H297  1  0.128800  0.829200  0.124200  1
  H  H298  1  0.871200  0.170800  0.875800  1
  H  H299  1  0.234400  0.623300  0.186600  1
  H  H300  1  0.765600  0.376700  0.813400  1
  H  H301  1  0.336300  0.661500  0.179300  1
  H  H302  1  0.663700  0.338500  0.820700  1
  H  H303  1  0.361200  0.826900  0.229700  1
  H  H304  1  0.638800  0.173100  0.770300  1
  H  H305  1  0.228900  0.905500  0.218800  1
  H  H306  1  0.771100  0.094500  0.781200  1
  H  H307  1  0.150300  0.862000  0.188300  1
  H  H308  1  0.849700  0.138000  0.811700  1
  H  H309  1  0.061700  0.027200  0.569200  1
  H  H310  1  0.938300  0.972800  0.430800  1
  H  H311  1  0.013600  0.954400  0.617700  1
  H  H312  1  0.986400  0.045600  0.382300  1
  H  H313  1  0.974700  0.987900  0.683600  1
  H  H314  1  0.025300  0.012100  0.316400  1
  H  H315  1  0.948600  0.075200  0.735700  1
  H  H316  1  0.051400  0.924800  0.264300  1
  H  H317  1  0.946500  0.186200  0.754500  1
  H  H318  1  0.053500  0.813800  0.245500  1
  H  H319  1  0.991000  0.260700  0.707100  1
  H  H320  1  0.009000  0.739300  0.292900  1
  H  H321  1  0.037500  0.224200  0.640800  1
  H  H322  1  0.962500  0.775800  0.359200  1
  H  H323  1  0.534600  0.908300  0.012600  1
  H  H324  1  0.465400  0.091700  0.987400  1
  H  H325  1  0.459700  0.955900  0.953900  1
  H  H326  1  0.540300  0.044100  0.046100  1
  H  H327  1  0.341400  0.949100  0.955100  1
  H  H328  1  0.658600  0.050900  0.044900  1
  H  H329  1  0.243700  0.910800  0.986400  1
  H  H330  1  0.756300  0.089200  0.013600  1
  H  H331  1  0.189100  0.865500  0.044900  1
  H  H332  1  0.810900  0.134500  0.955100  1
  H  H333  1  0.254500  0.827900  0.107200  1
  H  H334  1  0.745500  0.172100  0.892800  1
  H  H335  1  0.374500  0.835700  0.110900  1
  H  H336  1  0.625500  0.164300  0.889100  1
  H  H337  1  0.944600  0.758100  0.156300  1
  H  H338  1  0.055400  0.241900  0.843700  1
  H  H339  1  0.872800  0.809500  0.184600  1
  H  H340  1  0.127200  0.190500  0.815400  1
  H  H341  1  0.960400  0.797500  0.192200  1
  H  H342  1  0.039600  0.202500  0.807800  1
  H  H343  1  0.435100  0.420900  0.519800  1
  H  H344  1  0.564900  0.579100  0.480200  1
  H  H345  1  0.365500  0.406600  0.503400  1
  H  H346  1  0.634500  0.593400  0.496600  1
  H  H347  1  0.423600  0.428500  0.471100  1
  H  H348  1  0.576400  0.571500  0.528900  1
  H  H349  1  0.785600  0.437200  0.178600  1
  H  H350  1  0.214400  0.562800  0.821400  1
  H  H351  1  0.753900  0.525800  0.166500  1
  H  H352  1  0.246100  0.474200  0.833500  1
  H  H353  1  0.838400  0.480000  0.185700  1
  H  H354  1  0.161600  0.520000  0.814300  1
  C  C355  1  0.965900  0.559000  0.387750  1
  C  C356  1  0.034100  0.441000  0.612250  1
  C  C357  1  0.974700  0.613150  0.407510  1
  C  C358  1  0.025300  0.386850  0.592490  1
  C  C359  1  0.021300  0.591900  0.441700  1
  C  C360  1  0.978700  0.408100  0.558300  1
  C  C361  1  0.059200  0.516600  0.456130  1
  C  C362  1  0.940800  0.483400  0.543870  1
  C  C363  1  0.050400  0.462460  0.436370  1
  C  C364  1  0.949600  0.537540  0.563630  1
  C  C365  1  0.081300  0.388690  0.450430  1
  C  C366  1  0.918700  0.611310  0.549570  1
  C  C367  1  0.130200  0.346800  0.483730  1
  C  C368  1  0.869800  0.653200  0.516270  1
  C  C369  1  0.140700  0.271100  0.484900  1
  C  C370  1  0.859300  0.728900  0.515100  1
  C  C371  1  0.091600  0.203400  0.441400  1
  C  C372  1  0.908400  0.796600  0.558600  1
  C  C373  1  0.833500  0.969600  0.237720  1
  C  C374  1  0.166500  0.030400  0.762280  1
  C  C375  1  0.888300  0.988800  0.213600  1
  C  C376  1  0.111700  0.011200  0.786400  1
  C  C377  1  0.865900  0.060600  0.193360  1
  C  C378  1  0.134100  0.939400  0.806640  1
  C  C379  1  0.788700  0.113300  0.197330  1
  C  C380  1  0.211300  0.886700  0.802670  1
  C  C381  1  0.733800  0.094100  0.221490  1
  C  C382  1  0.266200  0.905900  0.778510  1
  C  C383  1  0.658700  0.142700  0.226680  1
  C  C384  1  0.341300  0.857300  0.773320  1
  C  C385  1  0.618100  0.221400  0.217300  1
  C  C386  1  0.381900  0.778600  0.782700  1
  C  C387  1  0.537700  0.242220  0.229410  1
  C  C388  1  0.462300  0.757780  0.770590  1
  C  C389  1  0.459400  0.169800  0.255700  1
  C  C390  1  0.540600  0.830200  0.744300  1
  C  C391  1  0.433810  0.169700  0.301620  1
  C  C392  1  0.566190  0.830300  0.698380  1
  C  C393  1  0.368730  0.154330  0.313310  1
  C  C394  1  0.631270  0.845670  0.686690  1
  C  C395  1  0.341790  0.154980  0.354500  1
  C  C396  1  0.658210  0.845020  0.645500  1
  C  C397  1  0.379940  0.170960  0.383990  1
  C  C398  1  0.620060  0.829040  0.616010  1
  C  C399  1  0.445020  0.186300  0.372290  1
  C  C400  1  0.554980  0.813700  0.627710  1
  C  C401  1  0.471960  0.185600  0.331100  1
  C  C402  1  0.528040  0.814400  0.668900  1
  C  C403  1  0.268430  0.140580  0.366070  1
  C  C404  1  0.731570  0.859420  0.633930  1
  C  C405  1  0.252950  0.091530  0.345200  1
  C  C406  1  0.747050  0.908470  0.654800  1
  C  C407  1  0.185950  0.078920  0.355860  1
  C  C408  1  0.814050  0.921080  0.644140  1
  C  C409  1  0.134440  0.115370  0.387410  1
  C  C410  1  0.865560  0.884630  0.612590  1
  C  C411  1  0.149920  0.164420  0.408280  1
  C  C412  1  0.850080  0.835580  0.591720  1
  C  C413  1  0.216920  0.177020  0.397610  1
  C  C414  1  0.783080  0.822980  0.602390  1
  C  C415  1  0.905560  0.282020  0.376300  1
  C  C416  1  0.094440  0.717980  0.623700  1
  C  C417  1  0.897670  0.225020  0.358960  1
  C  C418  1  0.102330  0.774980  0.641040  1
  C  C419  1  0.950610  0.188760  0.327830  1
  C  C420  1  0.049390  0.811240  0.672170  1
  C  C421  1  0.011430  0.209500  0.314070  1
  C  C422  1  0.988570  0.790500  0.685930  1
  C  C423  1  0.019320  0.266500  0.331410  1
  C  C424  1  0.980680  0.733500  0.668590  1
  C  C425  1  0.075800  0.290700  0.319210  1
  C  C426  1  0.924200  0.709300  0.680790  1
  C  C427  1  0.142100  0.265500  0.291260  1
  C  C428  1  0.857900  0.734500  0.708740  1
  C  C429  1  0.177800  0.316600  0.288600  1
  C  C430  1  0.822200  0.683400  0.711400  1
  C  C431  1  0.139800  0.440400  0.317500  1
  C  C432  1  0.860200  0.559600  0.682500  1
  C  C433  1  0.619000  0.526100  0.285050  1
  C  C434  1  0.381000  0.473900  0.714950  1
  C  C435  1  0.686900  0.459700  0.286800  1
  C  C436  1  0.313100  0.540300  0.713200  1
  C  C437  1  0.705700  0.413200  0.323660  1
  C  C438  1  0.294300  0.586800  0.676340  1
  C  C439  1  0.656600  0.433100  0.358790  1
  C  C440  1  0.343400  0.566900  0.641210  1
  C  C441  1  0.588700  0.499400  0.357040  1
  C  C442  1  0.411300  0.500600  0.642960  1
  C  C443  1  0.537900  0.521900  0.389420  1
  C  C444  1  0.462100  0.478100  0.610580  1
  C  C445  1  0.537900  0.494300  0.431860  1
  C  C446  1  0.462100  0.505700  0.568140  1
  C  C447  1  0.471900  0.547300  0.452440  1
  C  C448  1  0.528100  0.452700  0.547560  1
  C  C449  1  0.361600  0.671700  0.429200  1
  C  C450  1  0.638400  0.328300  0.570800  1
  C  C451  1  0.290970  0.661440  0.415960  1
  C  C452  1  0.709030  0.338560  0.584040  1
  C  C453  1  0.222120  0.726180  0.410150  1
  C  C454  1  0.777880  0.273820  0.589850  1
  C  C455  1  0.155050  0.721860  0.398370  1
  C  C456  1  0.844950  0.278140  0.601630  1
  C  C457  1  0.156810  0.652800  0.392410  1
  C  C458  1  0.843190  0.347200  0.607590  1
  C  C459  1  0.225660  0.588060  0.398220  1
  C  C460  1  0.774340  0.411940  0.601780  1
  C  C461  1  0.292740  0.592380  0.410000  1
  C  C462  1  0.707260  0.407620  0.590000  1
  C  C463  1  0.228840  0.512420  0.391520  1
  C  C464  1  0.771160  0.487580  0.608480  1
  C  C465  1  0.185450  0.508340  0.360330  1
  C  C466  1  0.814550  0.491660  0.639670  1
  C  C467  1  0.187490  0.439600  0.353450  1
  C  C468  1  0.812510  0.560400  0.646550  1
  C  C469  1  0.232920  0.374930  0.377760  1
  C  C470  1  0.767080  0.625070  0.622240  1
  C  C471  1  0.276300  0.379000  0.408950  1
  C  C472  1  0.723700  0.621000  0.591050  1
  C  C473  1  0.274260  0.447750  0.415830  1
  C  C474  1  0.725740  0.552250  0.584170  1
  C  C475  1  0.887270  0.385850  0.466530  1
  C  C476  1  0.112730  0.614150  0.533470  1
  C  C477  1  0.819720  0.406300  0.492150  1
  C  C478  1  0.180280  0.593700  0.507850  1
  C  C479  1  0.748870  0.460600  0.477460  1
  C  C480  1  0.251130  0.539400  0.522540  1
  C  C481  1  0.745550  0.494500  0.437150  1
  C  C482  1  0.254450  0.505500  0.562850  1
  C  C483  1  0.813090  0.474070  0.411520  1
  C  C484  1  0.186910  0.525930  0.588480  1
  C  C485  1  0.814800  0.503600  0.371760  1
  C  C486  1  0.185200  0.496400  0.628240  1
  C  C487  1  0.756670  0.560400  0.346620  1
  C  C488  1  0.243330  0.439600  0.653380  1
  C  C489  1  0.791500  0.566500  0.306580  1
  C  C490  1  0.208500  0.433500  0.693420  1
  C  C491  1  0.928800  0.496100  0.274800  1
  C  C492  1  0.071200  0.503900  0.725200  1
  C  C493  1  0.352900  0.475100  0.969500  1
  C  C494  1  0.647100  0.524900  0.030500  1
  C  C495  1  0.410300  0.443400  0.939070  1
  C  C496  1  0.589700  0.556600  0.060930  1
  C  C497  1  0.458400  0.367100  0.943500  1
  C  C498  1  0.541600  0.632900  0.056500  1
  C  C499  1  0.449200  0.322400  0.978300  1
  C  C500  1  0.550800  0.677600  0.021700  1
  C  C501  1  0.391800  0.354100  0.008690  1
  C  C502  1  0.608200  0.645900  0.991310  1
  C  C503  1  0.379600  0.316200  0.043930  1
  C  C504  1  0.620400  0.683800  0.956070  1
  C  C505  1  0.415900  0.239800  0.060200  1
  C  C506  1  0.584100  0.760200  0.939800  1
  C  C507  1  0.379900  0.232200  0.099700  1
  C  C508  1  0.620100  0.767800  0.900300  1
  C  C509  1  0.268600  0.322300  0.141500  1
  C  C510  1  0.731400  0.677700  0.858500  1
  C  C511  1  0.194900  0.310500  0.136970  1
  C  C512  1  0.805100  0.689500  0.863030  1
  C  C513  1  0.184300  0.278300  0.103860  1
  C  C514  1  0.815700  0.721700  0.896140  1
  C  C515  1  0.115900  0.268000  0.102220  1
  C  C516  1  0.884100  0.732000  0.897780  1
  C  C517  1  0.058200  0.289900  0.133680  1
  C  C518  1  0.941800  0.710100  0.866320  1
  C  C519  1  0.068700  0.322200  0.166790  1
  C  C520  1  0.931300  0.677800  0.833210  1
  C  C521  1  0.137100  0.332500  0.168430  1
  C  C522  1  0.862900  0.667500  0.831570  1
  C  C523  1  0.006800  0.346000  0.200300  1
  C  C524  1  0.993200  0.654000  0.799700  1
  C  C525  1  0.958200  0.308900  0.211700  1
  C  C526  1  0.041800  0.691100  0.788300  1
  C  C527  1  0.901300  0.331100  0.242400  1
  C  C528  1  0.098700  0.668900  0.757600  1
  C  C529  1  0.890000  0.391100  0.264000  1
  C  C530  1  0.110000  0.608900  0.736000  1
  C  C531  1  0.937200  0.429900  0.253400  1
  C  C532  1  0.062800  0.570100  0.746600  1
  C  C533  1  0.995100  0.406600  0.221800  1
  C  C534  1  0.004900  0.593400  0.778200  1
  C  C535  1  0.508400  0.967900  0.277620  1
  C  C536  1  0.491600  0.032100  0.722380  1
  C  C537  1  0.450200  0.951500  0.300200  1
  C  C538  1  0.549800  0.048500  0.699800  1
  C  C539  1  0.443300  0.952300  0.343000  1
  C  C540  1  0.556700  0.047700  0.657000  1
  C  C541  1  0.494600  0.969600  0.363210  1
  C  C542  1  0.505400  0.030400  0.636790  1
  C  C543  1  0.552700  0.986000  0.340650  1
  C  C544  1  0.447300  0.014000  0.659350  1
  C  C545  1  0.603400  0.003600  0.358460  1
  C  C546  1  0.396600  0.996400  0.641540  1
  C  C547  1  0.617900  0.004700  0.400330  1
  C  C548  1  0.382100  0.995300  0.599670  1
  C  C549  1  0.686200  0.018400  0.400690  1
  C  C550  1  0.313800  0.981600  0.599310  1
  C  C551  1  0.778600  0.041000  0.344600  1
  C  C552  1  0.221400  0.959000  0.655400  1
  C  C553  1  0.357400  0.814300  0.340400  1
  C  C554  1  0.642600  0.185700  0.659600  1
  C  C555  1  0.286200  0.877200  0.338200  1
  C  C556  1  0.713800  0.122800  0.661800  1
  C  C557  1  0.220600  0.872900  0.324300  1
  C  C558  1  0.779400  0.127100  0.675700  1
  C  C559  1  0.226200  0.805500  0.312600  1
  C  C560  1  0.773800  0.194500  0.687400  1
  C  C561  1  0.297400  0.742600  0.314780  1
  C  C562  1  0.702600  0.257400  0.685220  1
  C  C563  1  0.307500  0.676000  0.303490  1
  C  C564  1  0.692500  0.324000  0.696510  1
  C  C565  1  0.254680  0.648300  0.291720  1
  C  C566  1  0.745320  0.351700  0.708280  1
  C  C567  1  0.299500  0.574800  0.280030  1
  C  C568  1  0.700500  0.425200  0.719970  1
  C  C569  1  0.444900  0.495500  0.272700  1
  C  C570  1  0.555100  0.504500  0.727300  1
  C  C571  1  0.480620  0.432480  0.306330  1
  C  C572  1  0.519380  0.567520  0.693670  1
  C  C573  1  0.447060  0.431960  0.346120  1
  C  C574  1  0.552940  0.568040  0.653880  1
  C  C575  1  0.484180  0.372880  0.375830  1
  C  C576  1  0.515820  0.627120  0.624170  1
  C  C577  1  0.554860  0.314340  0.365740  1
  C  C578  1  0.445140  0.685660  0.634260  1
  C  C579  1  0.588420  0.314860  0.325940  1
  C  C580  1  0.411580  0.685140  0.674060  1
  C  C581  1  0.551310  0.373930  0.296240  1
  C  C582  1  0.448690  0.626070  0.703760  1
  C  C583  1  0.665450  0.250320  0.314610  1
  C  C584  1  0.334550  0.749680  0.685390  1
  C  C585  1  0.717020  0.263330  0.284650  1
  C  C586  1  0.282980  0.736670  0.715350  1
  C  C587  1  0.787550  0.204680  0.274480  1
  C  C588  1  0.212450  0.795320  0.725520  1
  C  C589  1  0.806530  0.133000  0.294300  1
  C  C590  1  0.193470  0.867000  0.705700  1
  C  C591  1  0.754970  0.119980  0.324260  1
  C  C592  1  0.245030  0.880020  0.675740  1
  C  C593  1  0.684440  0.178630  0.334420  1
  C  C594  1  0.315560  0.821370  0.665580  1
  C  C595  1  0.769000  0.850590  0.323480  1
  C  C596  1  0.231000  0.149410  0.676520  1
  C  C597  1  0.816700  0.774300  0.329500  1
  C  C598  1  0.183300  0.225700  0.670500  1
  C  C599  1  0.828970  0.729010  0.297930  1
  C  C600  1  0.171030  0.270990  0.702070  1
  C  C601  1  0.793410  0.760020  0.260350  1
  C  C602  1  0.206590  0.239980  0.739650  1
  C  C603  1  0.745660  0.836310  0.254330  1
  C  C604  1  0.254340  0.163690  0.745670  1
  C  C605  1  0.707500  0.870300  0.219370  1
  C  C606  1  0.292500  0.129700  0.780630  1
  C  C607  1  0.700300  0.841800  0.182820  1
  C  C608  1  0.299700  0.158200  0.817180  1
  C  C609  1  0.648100  0.902600  0.156870  1
  C  C610  1  0.351900  0.097400  0.843130  1
  C  C611  1  0.579200  0.041600  0.161600  1
  C  C612  1  0.420800  0.958400  0.838400  1
  C  C613  1  0.136800  0.602300  0.992600  1
  C  C614  1  0.863200  0.397700  0.007400  1
  C  C615  1  0.104400  0.675800  0.974400  1
  C  C616  1  0.895600  0.324200  0.025600  1
  C  C617  1  0.131300  0.727200  0.984100  1
  C  C618  1  0.868700  0.272800  0.015900  1
  C  C619  1  0.190500  0.705100  0.012000  1
  C  C620  1  0.809500  0.294900  0.988000  1
  C  C621  1  0.222900  0.631600  0.030260  1
  C  C622  1  0.777100  0.368400  0.969740  1
  C  C623  1  0.281500  0.605300  0.057450  1
  C  C624  1  0.718500  0.394700  0.942550  1
  C  C625  1  0.325100  0.637400  0.074850  1
  C  C626  1  0.674900  0.362600  0.925150  1
  C  C627  1  0.379500  0.580900  0.101890  1
  C  C628  1  0.620500  0.419100  0.898110  1
  C  C629  1  0.413200  0.443300  0.120400  1
  C  C630  1  0.586800  0.556700  0.879600  1
  C  C631  1  0.480980  0.395260  0.092570  1
  C  C632  1  0.519020  0.604740  0.907430  1
  C  C633  1  0.501900  0.423230  0.054300  1
  C  C634  1  0.498100  0.576770  0.945700  1
  C  C635  1  0.565000  0.376680  0.030810  1
  C  C636  1  0.435000  0.623320  0.969190  1
  C  C637  1  0.607150  0.302160  0.045600  1
  C  C638  1  0.392850  0.697840  0.954400  1
  C  C639  1  0.586250  0.274190  0.083880  1
  C  C640  1  0.413750  0.725810  0.916120  1
  C  C641  1  0.523160  0.320740  0.107360  1
  C  C642  1  0.476840  0.679260  0.892640  1
  C  C643  1  0.630690  0.190720  0.099750  1
  C  C644  1  0.369310  0.809280  0.900250  1
  C  C645  1  0.710700  0.152430  0.090970  1
  C  C646  1  0.289300  0.847570  0.909030  1
  C  C647  1  0.749630  0.077290  0.105550  1
  C  C648  1  0.250370  0.922710  0.894450  1
  C  C649  1  0.708600  0.040440  0.128910  1
  C  C650  1  0.291400  0.959560  0.871090  1
  C  C651  1  0.628500  0.078720  0.137700  1
  C  C652  1  0.371500  0.921280  0.862300  1
  C  C653  1  0.589620  0.153860  0.123110  1
  C  C654  1  0.410380  0.846140  0.876890  1
  C  C655  1  0.554600  0.696710  0.389010  1
  C  C656  1  0.445400  0.303290  0.610990  1
  C  C657  1  0.599000  0.732510  0.399570  1
  C  C658  1  0.401000  0.267490  0.600430  1
  C  C659  1  0.627600  0.771400  0.368930  1
  C  C660  1  0.372400  0.228600  0.631070  1
  C  C661  1  0.611800  0.774510  0.327710  1
  C  C662  1  0.388200  0.225490  0.672290  1
  C  C663  1  0.567360  0.738710  0.317140  1
  C  C664  1  0.432640  0.261290  0.682860  1
  C  C665  1  0.548000  0.741000  0.278050  1
  C  C666  1  0.452000  0.259000  0.721950  1
  C  C667  1  0.564500  0.775500  0.239600  1
  C  C668  1  0.435500  0.224500  0.760400  1
  C  C669  1  0.530300  0.757200  0.208020  1
  C  C670  1  0.469700  0.242800  0.791980  1
  C  C671  1  0.448600  0.682700  0.208500  1
  C  C672  1  0.551400  0.317300  0.791500  1
  C  C673  1  0.195800  0.393800  0.987830  1
  C  C674  1  0.804200  0.606200  0.012170  1
  C  C675  1  0.142700  0.371200  0.973450  1
  C  C676  1  0.857300  0.628800  0.026550  1
  C  C677  1  0.071100  0.385400  0.994700  1
  C  C678  1  0.928900  0.614600  0.005300  1
  C  C679  1  0.052500  0.422200  0.030400  1
  C  C680  1  0.947500  0.577800  0.969600  1
  C  C681  1  0.105600  0.444900  0.044780  1
  C  C682  1  0.894400  0.555100  0.955220  1
  C  C683  1  0.092700  0.478400  0.079470  1
  C  C684  1  0.907300  0.521600  0.920530  1
  C  C685  1  0.027200  0.504100  0.107900  1
  C  C686  1  0.972800  0.495900  0.892100  1
  C  C687  1  0.047900  0.533700  0.140080  1
  C  C688  1  0.952100  0.466300  0.859920  1
  C  C689  1  0.172100  0.548200  0.153700  1
  C  C690  1  0.827900  0.451800  0.846300  1
  C  C691  1  0.156900  0.629700  0.144770  1
  C  C692  1  0.843100  0.370300  0.855230  1
  C  C693  1  0.104600  0.677700  0.115400  1
  C  C694  1  0.895400  0.322300  0.884600  1
  C  C695  1  0.094100  0.752000  0.107750  1
  C  C696  1  0.905900  0.248000  0.892250  1
  C  C697  1  0.135900  0.778390  0.129470  1
  C  C698  1  0.864100  0.221610  0.870530  1
  C  C699  1  0.188200  0.730410  0.158840  1
  C  C700  1  0.811800  0.269590  0.841160  1
  C  C701  1  0.198700  0.656060  0.166490  1
  C  C702  1  0.801300  0.343940  0.833510  1
  C  C703  1  0.235950  0.757660  0.180870  1
  C  C704  1  0.764050  0.242340  0.819130  1
  C  C705  1  0.314530  0.711000  0.187300  1
  C  C706  1  0.685470  0.289000  0.812700  1
  C  C707  1  0.361200  0.736800  0.205480  1
  C  C708  1  0.638800  0.263200  0.794520  1
  C  C709  1  0.329300  0.809300  0.217240  1
  C  C710  1  0.670700  0.190700  0.782760  1
  C  C711  1  0.250700  0.855900  0.210810  1
  C  C712  1  0.749300  0.144100  0.789190  1
  C  C713  1  0.204000  0.830110  0.192640  1
  C  C714  1  0.796000  0.169890  0.807360  1
  C  C715  1  0.047200  0.105600  0.608200  1
  C  C716  1  0.952800  0.894400  0.391800  1
  C  C717  1  0.044600  0.041500  0.596400  1
  C  C718  1  0.955400  0.958500  0.403600  1
  C  C719  1  0.016200  0.997900  0.625500  1
  C  C720  1  0.983800  0.002100  0.374500  1
  C  C721  1  0.992700  0.018200  0.664400  1
  C  C722  1  0.007300  0.981800  0.335600  1
  C  C723  1  0.966600  0.105400  0.716420  1
  C  C724  1  0.033400  0.894600  0.283580  1
  C  C725  1  0.965400  0.171400  0.727640  1
  C  C726  1  0.034600  0.828600  0.272360  1
  C  C727  1  0.991800  0.215600  0.699500  1
  C  C728  1  0.008200  0.784400  0.300500  1
  C  C729  1  0.019500  0.193900  0.660100  1
  C  C730  1  0.980500  0.806100  0.339900  1
  C  C731  1  0.020700  0.127900  0.648880  1
  C  C732  1  0.979300  0.872100  0.351120  1
  C  C733  1  0.994300  0.083700  0.677050  1
  C  C734  1  0.005700  0.916300  0.322950  1
  C  C735  1  0.453700  0.882800  0.051700  1
  C  C736  1  0.546300  0.117200  0.948300  1
  C  C737  1  0.483600  0.909100  0.013400  1
  C  C738  1  0.516400  0.090900  0.986600  1
  C  C739  1  0.440700  0.935300  0.978100  1
  C  C740  1  0.559300  0.064700  0.021900  1
  C  C741  1  0.371600  0.930700  0.979100  1
  C  C742  1  0.628400  0.069300  0.020900  1
  C  C743  1  0.270300  0.895500  0.011600  1
  C  C744  1  0.729700  0.104500  0.988400  1
  C  C745  1  0.237800  0.868600  0.046400  1
  C  C746  1  0.762200  0.131400  0.953600  1
  C  C747  1  0.276700  0.846300  0.083400  1
  C  C748  1  0.723300  0.153700  0.916600  1
  C  C749  1  0.348000  0.851000  0.085600  1
  C  C750  1  0.652000  0.149000  0.914400  1
  C  C751  1  0.380400  0.877900  0.050800  1
  C  C752  1  0.619600  0.122100  0.949200  1
  C  C753  1  0.341500  0.900200  0.013800  1
  C  C754  1  0.658500  0.099800  0.986200  1
  C  C755  1  0.913500  0.872300  0.140400  1
  C  C756  1  0.086500  0.127700  0.859600  1
  C  C757  1  0.923700  0.803000  0.171200  1
  C  C758  1  0.076300  0.197000  0.828800  1
  C  C759  1  0.474700  0.317200  0.496500  1
  C  C760  1  0.525300  0.682800  0.503500  1
  C  C761  1  0.419700  0.400900  0.497800  1
  C  C762  1  0.580300  0.599100  0.502200  1
  C  C763  1  0.838500  0.464200  0.123800  1
  C  C764  1  0.161500  0.535800  0.876200  1
  C  C765  1  0.800700  0.478000  0.167600  1
  C  C766  1  0.199300  0.522000  0.832400  1
  S  S767  1  0.087760  0.155750  0.570670  1
  S  S768  1  0.912240  0.844250  0.429330  1
  S  S769  1  0.511700  0.852000  0.095450  1
  S  S770  1  0.488300  0.148000  0.904550  1
  N  N771  1  0.003800  0.483700  0.402180  1
  N  N772  1  0.996200  0.516300  0.597820  1
  N  N773  1  0.098300  0.266200  0.452330  1
  N  N774  1  0.901700  0.733800  0.547670  1
  N  N775  1  0.061600  0.338900  0.431030  1
  N  N776  1  0.938400  0.661100  0.568970  1
  N  N777  1  0.756200  0.022300  0.241690  1
  N  N778  1  0.243800  0.977700  0.758310  1
  N  N779  1  0.528600  0.176300  0.246280  1
  N  N780  1  0.471400  0.823700  0.753720  1
  N  N781  1  0.603300  0.114810  0.244590  1
  N  N782  1  0.396700  0.885190  0.755410  1
  N  N783  1  0.966380  0.302760  0.362530  1
  N  N784  1  0.033620  0.697240  0.637470  1
  N  N785  1  0.133500  0.373400  0.314920  1
  N  N786  1  0.866500  0.626600  0.685080  1
  N  N787  1  0.070500  0.357400  0.333830  1
  N  N788  1  0.929500  0.642600  0.666170  1
  N  N789  1  0.569900  0.545900  0.320170  1
  N  N790  1  0.430100  0.454100  0.679830  1
  N  N791  1  0.431100  0.607700  0.422710  1
  N  N792  1  0.568900  0.392300  0.577290  1
  N  N793  1  0.471900  0.592000  0.383760  1
  N  N794  1  0.528100  0.408000  0.616240  1
  N  N795  1  0.883930  0.419760  0.426200  1
  N  N796  1  0.116070  0.580240  0.573800  1
  N  N797  1  0.871200  0.513400  0.306970  1
  N  N798  1  0.128800  0.486600  0.693030  1
  N  N799  1  0.885600  0.474600  0.347250  1
  N  N800  1  0.114400  0.525400  0.652750  1
  N  N801  1  0.343600  0.430400  0.004300  1
  N  N802  1  0.656400  0.569600  0.995700  1
  N  N803  1  0.321400  0.303900  0.107910  1
  N  N804  1  0.678600  0.696100  0.892090  1
  N  N805  1  0.321200  0.355800  0.073420  1
  N  N806  1  0.678800  0.644200  0.926580  1
  N  N807  1  0.559600  0.985200  0.297860  1
  N  N808  1  0.440400  0.014800  0.702140  1
  N  N809  1  0.713800  0.025700  0.359050  1
  N  N810  1  0.286200  0.974300  0.640950  1
  N  N811  1  0.662700  0.016600  0.332950  1
  N  N812  1  0.337300  0.983400  0.667050  1
  N  N813  1  0.363000  0.747000  0.328660  1
  N  N814  1  0.637000  0.253000  0.671340  1
  N  N815  1  0.380100  0.557100  0.284580  1
  N  N816  1  0.619900  0.442900  0.715420  1
  N  N817  1  0.385000  0.619700  0.299080  1
  N  N818  1  0.615000  0.380300  0.700920  1
  N  N819  1  0.733440  0.881600  0.285890  1
  N  N820  1  0.266560  0.118400  0.714110  1
  N  N821  1  0.622900  0.968500  0.177380  1
  N  N822  1  0.377100  0.031500  0.822620  1
  N  N823  1  0.659600  0.948600  0.216010  1
  N  N824  1  0.340400  0.051400  0.783990  1
  N  N825  1  0.196000  0.580200  0.020550  1
  N  N826  1  0.804000  0.419800  0.979450  1
  N  N827  1  0.369400  0.513800  0.101200  1
  N  N828  1  0.630600  0.486200  0.898800  1
  N  N829  1  0.308800  0.528900  0.073730  1
  N  N830  1  0.691200  0.471100  0.926270  1
  N  N831  1  0.538740  0.699810  0.347780  1
  N  N832  1  0.461260  0.300190  0.652220  1
  N  N833  1  0.492700  0.711400  0.226870  1
  N  N834  1  0.507300  0.288600  0.773130  1
  N  N835  1  0.503600  0.701400  0.270150  1
  N  N836  1  0.496400  0.298600  0.729850  1
  N  N837  1  0.177200  0.430700  0.023500  1
  N  N838  1  0.822800  0.569300  0.976500  1
  N  N839  1  0.126100  0.526300  0.131540  1
  N  N840  1  0.873900  0.473700  0.868460  1
  N  N841  1  0.153900  0.492100  0.094090  1
  N  N842  1  0.846100  0.507900  0.905910  1
  N  N843  1  0.913800  0.918400  0.115700  1
  N  N844  1  0.086200  0.081600  0.884300  1
  N  N845  1  0.519000  0.258200  0.490600  1
  N  N846  1  0.481000  0.741800  0.509400  1
  N  N847  1  0.871300  0.451200  0.092700  1
  N  N848  1  0.128700  0.548800  0.907300  1
  O  O849  1  0.149000  0.163400  0.590400  1
  O  O850  1  0.851000  0.836600  0.409600  1
  O  O851  1  0.119500  0.110300  0.536300  1
  O  O852  1  0.880500  0.889700  0.463700  1
  O  O853  1  0.022600  0.226400  0.559200  1
  O  O854  1  0.977400  0.773600  0.440800  1
  O  O855  1  0.524800  0.773500  0.108500  1
  O  O856  1  0.475200  0.226500  0.891500  1
  O  O857  1  0.462300  0.904200  0.126600  1
  O  O858  1  0.537700  0.095800  0.873400  1
  O  O859  1  0.587000  0.860000  0.082400  1
  O  O860  1  0.413000  0.140000  0.917600  1
  O  O861  1  0.264300  0.210900  0.565700  1
  O  O862  1  0.735700  0.789100  0.434300  1
  O  O863  1  0.226900  0.363400  0.555900  1
  O  O864  1  0.773100  0.636600  0.444100  1
  O  O865  1  0.930800  0.205600  0.500500  1
  O  O866  1  0.069200  0.794400  0.499500  1
  O  O867  1  0.814700  0.107600  0.430000  1
  O  O868  1  0.185300  0.892400  0.570000  1
  F  F869  1  0.005000  0.605800  0.291700  1
  F  F870  1  0.995000  0.394200  0.708300  1
  F  F871  1  0.058000  0.543000  0.234600  1
  F  F872  1  0.942000  0.457000  0.765400  1
  F  F873  1  0.997800  0.670600  0.228900  1
  F  F874  1  0.002200  0.329400  0.771100  1
  F  F875  1  0.116200  0.609300  0.258700  1
  F  F876  1  0.883800  0.390700  0.741300  1
  F  F877  1  0.766200  0.247800  0.494800  1
  F  F878  1  0.233800  0.752200  0.505200  1
  F  F879  1  0.648900  0.336400  0.472000  1
  F  F880  1  0.351100  0.663600  0.528000  1
  F  F881  1  0.759400  0.305900  0.430500  1
  F  F882  1  0.240600  0.694100  0.569500  1
  F  F883  1  0.701000  0.226700  0.445700  1
  F  F884  1  0.299000  0.773300  0.554300  1
  F  F885  1  0.086000  0.118600  0.202300  1
  F  F886  1  0.914000  0.881400  0.797700  1
  F  F887  1  0.114100  0.035600  0.258700  1
  F  F888  1  0.885900  0.964400  0.741300  1
  F  F889  1  0.987800  0.103900  0.242300  1
  F  F890  1  0.012200  0.896100  0.757700  1
  F  F891  1  0.064400  0.012900  0.203800  1
  F  F892  1  0.935600  0.987100  0.796200  1
  F  F893  1  0.545100  0.403500  0.192100  1
  F  F894  1  0.454900  0.596500  0.807900  1
  F  F895  1  0.620700  0.431000  0.140500  1
  F  F896  1  0.379300  0.569000  0.859500  1
  F  F897  1  0.618900  0.460100  0.206500  1
  F  F898  1  0.381100  0.539900  0.793500  1
  F  F899  1  0.514800  0.526400  0.166600  1
  F  F900  1  0.485200  0.473600  0.833400  1
  F  F901  1  0.345500  0.382000  0.263580  1
  F  F902  1  0.654500  0.618000  0.736420  1
  F  F903  1  0.373100  0.346100  0.199030  1
  F  F904  1  0.626900  0.653900  0.800970  1
  F  F905  1  0.322900  0.469100  0.208180  1
  F  F906  1  0.677100  0.530900  0.791820  1
  F  F907  1  0.246800  0.404600  0.221500  1
  F  F908  1  0.753200  0.595400  0.778500  1
  F  F909  1  0.012300  0.612400  0.294900  1
  F  F910  1  0.987700  0.387600  0.705100  1
  F  F911  1  0.071300  0.534000  0.242700  1
  F  F912  1  0.928700  0.466000  0.757300  1
  F  F913  1  0.967300  0.647000  0.228400  1
  F  F914  1  0.032700  0.353000  0.771600  1
  F  F915  1  0.085100  0.646000  0.242000  1
  F  F916  1  0.914900  0.354000  0.758000  1
  F  F917  1  0.715000  0.225800  0.490900  1
  F  F918  1  0.285000  0.774200  0.509100  1
  F  F919  1  0.669000  0.354600  0.472000  1
  F  F920  1  0.331000  0.645400  0.528000  1
  F  F921  1  0.801200  0.277000  0.461100  1
  F  F922  1  0.198800  0.723000  0.538900  1
  F  F923  1  0.709000  0.271000  0.421000  1
  F  F924  1  0.291000  0.729000  0.579000  1
  F  F925  1  0.515700  0.520900  0.156000  1
  F  F926  1  0.484300  0.479100  0.844000  1
  F  F927  1  0.603300  0.411600  0.190300  1
  F  F928  1  0.396700  0.588400  0.809700  1
  F  F929  1  0.591000  0.526200  0.205300  1
  F  F930  1  0.409000  0.473800  0.794700  1
  F  F931  1  0.647900  0.484700  0.143900  1
  F  F932  1  0.352100  0.515300  0.856100  1
