
#######################################################################
#
#                 Cambridge Crystallographic Data Centre
#                                CCDC 
#
#######################################################################
#
# If this CIF has been generated from an entry in the Cambridge 
# Structural Database, then it will include bibliographic, chemical, 
# crystal, experimental, refinement or atomic coordinate data resulting 
# from the CCDC's data processing and validation procedures.
#
#######################################################################

data_BALHAZ
_chemical_formula_moiety         
'C180 H144 Cd4 N36 8+,6.5(B1 F4 1-),1.5(C24 H20 B1 1-)'
_chemical_name_systematic        
"hexakis(\m~2~-2,2'-(biphenyl-3,3'-diylbis(methylene-1H-pyrazole-1,3-diyl))dipyridine)-tetra-cadmium(ii) tetrafluoroborate tetraphenylborate unknow solvate"
_symmetry_cell_setting           cubic
_symmetry_space_group_name_H-M   'I 2 3'
_symmetry_Int_Tables_number      197
_space_group_name_Hall           'I 2 2 3'
loop_
_symmetry_equiv_pos_site_id
_symmetry_equiv_pos_as_xyz
1 x,y,z
2 -x,-y,z
3 -x,y,-z
4 x,-y,-z
5 z,x,y
6 z,-x,-y
7 -z,-x,y
8 -z,x,-y
9 y,z,x
10 -y,z,-x
11 y,-z,-x
12 -y,-z,x
13 1/2+x,1/2+y,1/2+z
14 1/2-x,1/2-y,1/2+z
15 1/2-x,1/2+y,1/2-z
16 1/2+x,1/2-y,1/2-z
17 1/2+z,1/2+x,1/2+y
18 1/2+z,1/2-x,1/2-y
19 1/2-z,1/2-x,1/2+y
20 1/2-z,1/2+x,1/2-y
21 1/2+y,1/2+z,1/2+x
22 1/2-y,1/2+z,1/2-x
23 1/2+y,1/2-z,1/2-x
24 1/2-y,1/2-z,1/2+x
_cell_length_a                   35.7585(7)
_cell_length_b                   35.7585(7)
_cell_length_c                   35.7585(7)
_cell_angle_alpha                90
_cell_angle_beta                 90
_cell_angle_gamma                90
_cell_volume                     45723.3
_exptl_crystal_colour            colorless
_exptl_crystal_description       needle
_cell_formula_units_Z            8
loop_
_atom_site_label
_atom_site_type_symbol
_atom_site_fract_x
_atom_site_fract_y
_atom_site_fract_z
Cd1 Cd 0.63797(3) 0.63797(3) 0.36203(3)
Cd2 Cd 0.66969(3) 0.93764(2) 0.22840(2)
N1 N 0.6634(2) 0.5918(2) 0.4011(2)
C1 C 0.69540(19) 0.6017(3) 0.4209(3)
C2 C 0.7127(3) 0.5757(3) 0.4441(2)
H1 H 0.7345 0.5825 0.4576
C3 C 0.6981(2) 0.5399(3) 0.4474(3)
H2 H 0.7099 0.5221 0.4632
C4 C 0.6662(2) 0.5300(3) 0.4276(3)
H3 H 0.6562 0.5055 0.4298
C5 C 0.6488(3) 0.5560(3) 0.4044(2)
H4 H 0.6270 0.5492 0.3909
N2 N 0.7108(2) 0.69571(18) 0.39124(19)
N3 N 0.68995(17) 0.6619(2) 0.39173(19)
C6 C 0.7070(2) 0.63734(18) 0.4178(2)
C7 C 0.7384(2) 0.6560(2) 0.43350(18)
H5 H 0.7550 0.6461 0.4518
C8 C 0.74072(19) 0.6920(2) 0.4171(2)
H6 H 0.7591 0.7105 0.4224
C9 C 0.6988(3) 0.7261(4) 0.3703(3)
H7 H 0.6878 0.7167 0.3467
H8 H 0.7210 0.7413 0.3637
N4 N 0.6385(2) 0.99423(16) 0.21560(17)
C10 C 0.5998(2) 0.99161(17) 0.2137(2)
C11 C 0.57892(18) 1.0214(2) 0.2000(3)
H9 H 0.5524 1.0196 0.1987
C12 C 0.5968(2) 1.05388(18) 0.1882(2)
H10 H 0.5826 1.0743 0.1789
C13 C 0.6356(2) 1.05650(16) 0.1902(2)
H11 H 0.6478 1.0787 0.1821
C14 C 0.65639(18) 1.0267(2) 0.2039(2)
H12 H 0.6829 1.0285 0.2052
N5 N 0.5812(2) 0.90129(15) 0.2510(2)
N6 N 0.60501(17) 0.9301(2) 0.2375(2)
C15 C 0.5822(3) 0.96066(17) 0.2265(2)
C16 C 0.5444(2) 0.9508(2) 0.2331(3)
H13 H 0.5232 0.9661 0.2283
C17 C 0.54371(19) 0.9141(2) 0.2483(3)
H14 H 0.5220 0.9005 0.2554
C18 C 0.5951(4) 0.8682(3) 0.2658(3)
H15 H 0.6194 0.8623 0.2539
H16 H 0.5776 0.8475 0.2601
C19 C 0.6312(2) 0.80698(18) 0.3869(2)
C20 C 0.6574(2) 0.7835(2) 0.37035(18)
H17 H 0.6668 0.7890 0.3461
C21 C 0.6699(2) 0.7519(2) 0.3893(2)
C22 C 0.6562(2) 0.74388(18) 0.4248(2)
H18 H 0.6647 0.7223 0.4378
C23 C 0.6300(2) 0.7674(2) 0.44130(18)
H19 H 0.6207 0.7619 0.4655
C24 C 0.6175(2) 0.7989(2) 0.4223(2)
H20 H 0.5996 0.8150 0.4336
C25 C 0.6181(2) 0.84071(18) 0.3658(2)
C26 C 0.6129(2) 0.83940(17) 0.3273(2)
H21 H 0.6178 0.8170 0.3139
C27 C 0.6004(2) 0.8709(2) 0.30827(16)
C28 C 0.5931(2) 0.90377(17) 0.3278(2)
H22 H 0.5846 0.9253 0.3148
C29 C 0.5984(2) 0.90508(17) 0.3663(2)
H23 H 0.5934 0.9275 0.3796
C30 C 0.6109(2) 0.8736(2) 0.38525(16)
H24 H 0.6145 0.8745 0.4116
N7 N 0.6594(2) 0.91205(16) 0.16977(15)
C31 C 0.68513(17) 0.92179(17) 0.1423(2)
C32 C 0.6792(2) 0.9111(2) 0.10542(18)
H25 H 0.6968 0.9177 0.0866
C33 C 0.6475(2) 0.89059(19) 0.09599(15)
H26 H 0.6434 0.8833 0.0708
C34 C 0.62178(18) 0.88085(18) 0.1235(2)
H27 H 0.6001 0.8669 0.1170
C35 C 0.62772(18) 0.89158(18) 0.16034(18)
H28 H 0.6101 0.8849 0.1791
N8 N 0.7539(2) 0.97614(18) 0.19145(17)
N9 N 0.71905(19) 0.9571(2) 0.18995(18)
C36 C 0.71482(19) 0.9421(2) 0.1534(2)
C37 C 0.7470(2) 0.9519(2) 0.13235(15)
H29 H 0.7516 0.9455 0.1070
C38 C 0.77118(18) 0.9729(2) 0.1559(2)
H30 H 0.7948 0.9830 0.1490
C39 C 0.7663(3) 0.99651(17) 0.22212(18)
H31 H 0.7459 1.0130 0.2311
H32 H 0.7876 1.0125 0.2146
N10 N 0.9570(3) 0.7120(2) 0.3170(2)
C40 C 0.9300(4) 0.6874(3) 0.3034(3)
C41 C 0.9373(3) 0.6509(3) 0.2992(3)
H33 H 0.9180 0.6345 0.2912
C42 C 0.9728(4) 0.6368(3) 0.3063(3)
H34 H 0.9782 0.6110 0.3027
C43 C 0.9987(3) 0.6602(3) 0.3183(3)
H35 H 1.0233 0.6512 0.3226
C44 C 0.9912(4) 0.6965(3) 0.3247(3)
H36 H 1.0103 0.7120 0.3348
N11 N 0.84784(13) 0.74589(12) 0.29856(13)
N12 N 0.88561(17) 0.73884(13) 0.30859(16)
C45 C 0.8949(2) 0.70222(15) 0.29640(17)
C46 C 0.8629(2) 0.68665(19) 0.27880(14)
H37 H 0.8613 0.6624 0.2680
C47 C 0.8338(2) 0.71363(14) 0.28010(16)
H38 H 0.8093 0.7106 0.2704
C48 C 0.8307(2) 0.77926(19) 0.30710(16)
H39 H 0.8386 0.7866 0.3326
H40 H 0.8034 0.7749 0.3079
C49 C 0.80928(19) 0.91412(14) 0.2749(2)
C50 C 0.7957(2) 0.93629(19) 0.24603(16)
H41 H 0.7981 0.9282 0.2208
C51 C 0.7786(2) 0.97028(17) 0.25399(18)
C52 C 0.77509(19) 0.98210(15) 0.2909(2)
H42 H 0.7634 1.0053 0.2963
C53 C 0.7887(2) 0.95993(19) 0.31976(16)
H43 H 0.7862 0.9680 0.3450
C54 C 0.8057(2) 0.92593(17) 0.31180(18)
H44 H 0.8150 0.9108 0.3316
C55 C 0.82670(19) 0.87634(17) 0.26684(15)
C56 C 0.82202(15) 0.84587(17) 0.29051(19)
H45 H 0.8079 0.8485 0.3129
C57 C 0.83793(17) 0.81158(18) 0.28144(16)
C58 C 0.85853(18) 0.80776(17) 0.24870(15)
H46 H 0.8694 0.7843 0.2425
C59 C 0.86321(15) 0.83823(16) 0.22502(19)
H47 H 0.8773 0.8356 0.2026
C60 C 0.84730(17) 0.87252(18) 0.23409(16)
H48 H 0.8505 0.8933 0.2179
Cd2G Cd 0.77160(2) 0.66969(3) 0.06236(2)
Cd2J Cd 0.93764(2) 0.77160(2) 0.33031(3)
N1G N 0.5989(2) 0.6634(2) 0.4082(2)
N1J N 0.5918(2) 0.5989(2) 0.3366(2)
C1G C 0.5791(3) 0.69540(19) 0.3983(3)
C1J C 0.6017(3) 0.5791(3) 0.30460(19)
C2G C 0.5559(2) 0.7127(3) 0.4243(3)
C2J C 0.5757(3) 0.5559(2) 0.2873(3)
H1G H 0.5424 0.7345 0.4175
H1J H 0.5825 0.5424 0.2655
C3G C 0.5526(3) 0.6981(2) 0.4601(3)
C3J C 0.5399(3) 0.5526(3) 0.3019(2)
H2G H 0.5368 0.7099 0.4779
H2J H 0.5221 0.5368 0.2901
C4G C 0.5724(3) 0.6662(2) 0.4700(3)
C4J C 0.5300(3) 0.5724(3) 0.3338(2)
H3G H 0.5702 0.6562 0.4945
H3J H 0.5055 0.5702 0.3438
C5G C 0.5956(2) 0.6488(3) 0.4440(3)
C5J C 0.5560(3) 0.5956(2) 0.3512(3)
H4G H 0.6091 0.6270 0.4508
H4J H 0.5492 0.6091 0.3730
N2G N 0.60876(19) 0.7108(2) 0.30429(18)
N2J N 0.69571(18) 0.60876(19) 0.2892(2)
N3G N 0.60827(19) 0.68995(17) 0.3381(2)
N3J N 0.6619(2) 0.60827(19) 0.31005(17)
C6G C 0.5822(2) 0.7070(2) 0.36266(18)
C6J C 0.63734(18) 0.5822(2) 0.2930(2)
C7G C 0.56650(18) 0.7384(2) 0.3440(2)
C7J C 0.6560(2) 0.56650(18) 0.2616(2)
H5G H 0.5482 0.7550 0.3539
H5J H 0.6461 0.5482 0.2450
C8G C 0.5829(2) 0.74072(19) 0.3080(2)
C8J C 0.6920(2) 0.5829(2) 0.25928(19)
H6G H 0.5776 0.7591 0.2895
H6J H 0.7105 0.5776 0.2409
C9G C 0.6297(3) 0.6988(3) 0.2739(4)
C9J C 0.7261(4) 0.6297(3) 0.3012(3)
H7G H 0.6533 0.6878 0.2833
H7J H 0.7167 0.6533 0.3122
H8G H 0.6363 0.7210 0.2587
H8J H 0.7413 0.6363 0.2790
N4G N 0.78440(17) 0.6385(2) 0.00577(16)
N4J N 0.99423(16) 0.78440(17) 0.3615(2)
C10G C 0.7863(2) 0.5998(2) 0.00839(17)
C10J C 0.99161(17) 0.7863(2) 0.4002(2)
C11G C 0.8000(3) 0.57892(18) -0.0214(2)
C11J C 1.0214(2) 0.8000(3) 0.42108(18)
H9G H 0.8013 0.5524 -0.0196
H9J H 1.0196 0.8013 0.4476
C12G C 0.8118(2) 0.5968(2) -0.05388(18)
C12J C 1.05388(18) 0.8118(2) 0.4032(2)
H10G H 0.8211 0.5826 -0.0743
H10J H 1.0743 0.8211 0.4174
C13G C 0.8098(2) 0.6356(2) -0.05650(16)
C13J C 1.05650(16) 0.8098(2) 0.3644(2)
H11G H 0.8179 0.6478 -0.0787
H11J H 1.0787 0.8179 0.3522
C14G C 0.7961(2) 0.65639(18) -0.0267(2)
C14J C 1.0267(2) 0.7961(2) 0.34361(18)
H12G H 0.7948 0.6829 -0.0285
H12J H 1.0285 0.7948 0.3171
N5G N 0.7490(2) 0.5812(2) 0.09871(15)
N5J N 0.90129(15) 0.7490(2) 0.4188(2)
N6G N 0.7625(2) 0.60501(17) 0.0699(2)
N6J N 0.9301(2) 0.7625(2) 0.39499(17)
C15G C 0.7735(2) 0.5822(3) 0.03934(17)
C15J C 0.96066(17) 0.7735(2) 0.4178(3)
C16G C 0.7669(3) 0.5444(2) 0.0492(2)
C16J C 0.9508(2) 0.7669(3) 0.4556(2)
H13G H 0.7717 0.5232 0.0339
H13J H 0.9661 0.7717 0.4768
C17G C 0.7517(3) 0.54371(19) 0.0859(2)
C17J C 0.9141(2) 0.7517(3) 0.45629(19)
H14G H 0.7446 0.5220 0.0995
H14J H 0.9005 0.7446 0.4780
C18G C 0.7342(3) 0.5951(4) 0.1318(3)
C18J C 0.8682(3) 0.7342(3) 0.4049(4)
H15G H 0.7461 0.6194 0.1377
H15J H 0.8623 0.7461 0.3806
H16G H 0.7399 0.5776 0.1525
H16J H 0.8475 0.7399 0.4224
C19G C 0.6131(2) 0.6312(2) 0.19302(18)
C19J C 0.80698(18) 0.6131(2) 0.3688(2)
C20G C 0.62965(18) 0.6574(2) 0.2165(2)
C20J C 0.7835(2) 0.62965(18) 0.3426(2)
H17G H 0.6539 0.6668 0.2110
H17J H 0.7890 0.6539 0.3332
C21G C 0.6107(2) 0.6699(2) 0.2481(2)
C21J C 0.7519(2) 0.6107(2) 0.3301(2)
C22G C 0.5752(2) 0.6562(2) 0.25612(18)
C22J C 0.74388(18) 0.5752(2) 0.3438(2)
H18G H 0.5622 0.6647 0.2777
H18J H 0.7223 0.5622 0.3353
C23G C 0.55870(18) 0.6300(2) 0.2326(2)
C23J C 0.7674(2) 0.55870(18) 0.3700(2)
H19G H 0.5345 0.6207 0.2381
H19J H 0.7619 0.5345 0.3793
C24G C 0.5777(2) 0.6175(2) 0.2011(2)
C24J C 0.7989(2) 0.5777(2) 0.3825(2)
H20G H 0.5664 0.5996 0.1850
H20J H 0.8150 0.5664 0.4004
C25G C 0.6342(2) 0.6181(2) 0.15929(18)
C25J C 0.84071(18) 0.6342(2) 0.3819(2)
C26G C 0.6727(2) 0.6129(2) 0.16060(17)
C26J C 0.83940(17) 0.6727(2) 0.3871(2)
H21G H 0.6861 0.6178 0.1830
H21J H 0.8170 0.6861 0.3822
C27G C 0.69173(16) 0.6004(2) 0.1291(2)
C27J C 0.8709(2) 0.69173(16) 0.3996(2)
C28G C 0.6722(2) 0.5931(2) 0.09623(17)
C28J C 0.90377(17) 0.6722(2) 0.4069(2)
H22G H 0.6852 0.5846 0.0747
H22J H 0.9253 0.6852 0.4154
C29G C 0.6337(2) 0.5984(2) 0.09492(17)
C29J C 0.90508(17) 0.6337(2) 0.4016(2)
H23G H 0.6204 0.5934 0.0725
H23J H 0.9275 0.6204 0.4066
C30G C 0.61475(16) 0.6109(2) 0.1264(2)
C30J C 0.8736(2) 0.61475(16) 0.3891(2)
H24G H 0.5884 0.6145 0.1255
H24J H 0.8745 0.5884 0.3855
N7G N 0.83023(15) 0.6594(2) 0.08795(16)
N7J N 0.91205(16) 0.83023(15) 0.3406(2)
C31G C 0.8577(2) 0.68513(17) 0.07821(17)
C31J C 0.92179(17) 0.8577(2) 0.31487(17)
C32G C 0.89458(18) 0.6792(2) 0.0889(2)
C32J C 0.9111(2) 0.89458(18) 0.3208(2)
H25G H 0.9134 0.6968 0.0823
H25J H 0.9177 0.9134 0.3032
C33G C 0.90401(15) 0.6475(2) 0.10941(19)
C33J C 0.89059(19) 0.90401(15) 0.3525(2)
H26G H 0.9292 0.6434 0.1167
H26J H 0.8833 0.9292 0.3566
C34G C 0.8765(2) 0.62178(18) 0.11915(18)
C34J C 0.88085(18) 0.8765(2) 0.37822(18)
H27G H 0.8830 0.6001 0.1331
H27J H 0.8669 0.8830 0.3999
C35G C 0.83966(18) 0.62772(18) 0.10842(18)
C35J C 0.89158(18) 0.83966(18) 0.37228(18)
H28G H 0.8209 0.6101 0.1151
H28J H 0.8849 0.8209 0.3899
N8G N 0.80855(17) 0.7539(2) 0.02386(18)
N8J N 0.97614(18) 0.80855(17) 0.2461(2)
N9G N 0.81005(18) 0.71905(19) 0.0429(2)
N9J N 0.9571(2) 0.81005(18) 0.28095(19)
C36G C 0.8466(2) 0.71482(19) 0.0579(2)
C36J C 0.9421(2) 0.8466(2) 0.28518(19)
C37G C 0.86765(15) 0.7470(2) 0.0481(2)
C37J C 0.9519(2) 0.86765(15) 0.2530(2)
H29G H 0.8930 0.7516 0.0545
H29J H 0.9455 0.8930 0.2484
C38G C 0.8441(2) 0.77118(18) 0.0271(2)
C38J C 0.9729(2) 0.8441(2) 0.22882(18)
H30G H 0.8510 0.7948 0.0170
H30J H 0.9830 0.8510 0.2052
C39G C 0.77788(18) 0.7663(3) 0.00349(17)
C39J C 0.99651(17) 0.77788(18) 0.2337(3)
H31G H 0.7689 0.7459 -0.0130
H31J H 1.0130 0.7689 0.2541
H32G H 0.7854 0.7876 -0.0125
H32J H 1.0125 0.7854 0.2124
N10G N 0.6830(2) 0.9570(3) 0.2880(2)
N10J N 0.7120(2) 0.6830(2) 0.0430(3)
C40G C 0.6966(3) 0.9300(4) 0.3126(3)
C40J C 0.6874(3) 0.6966(3) 0.0700(4)
C41G C 0.7008(3) 0.9373(3) 0.3491(3)
C41J C 0.6509(3) 0.7008(3) 0.0627(3)
H33G H 0.7088 0.9180 0.3655
H33J H 0.6345 0.7088 0.0820
C42G C 0.6937(3) 0.9728(4) 0.3632(3)
C42J C 0.6368(3) 0.6937(3) 0.0272(4)
H34G H 0.6973 0.9782 0.3890
H34J H 0.6110 0.6973 0.0218
C43G C 0.6817(3) 0.9987(3) 0.3398(3)
C43J C 0.6602(3) 0.6817(3) 0.0013(3)
H35G H 0.6774 1.0233 0.3488
H35J H 0.6512 0.6774 -0.0233
C44G C 0.6753(3) 0.9912(4) 0.3035(3)
C44J C 0.6965(3) 0.6753(3) 0.0088(4)
H36G H 0.6652 1.0103 0.2880
H36J H 0.7120 0.6652 -0.0103
N11G N 0.70144(13) 0.84784(13) 0.25411(12)
N11J N 0.74589(12) 0.70144(13) 0.15216(13)
N12G N 0.69141(16) 0.88561(17) 0.26116(13)
N12J N 0.73884(13) 0.69141(16) 0.11439(17)
C45G C 0.70360(17) 0.8949(2) 0.29778(15)
C45J C 0.70222(15) 0.70360(17) 0.1051(2)
C46G C 0.72120(14) 0.8629(2) 0.31335(19)
C46J C 0.68665(19) 0.72120(14) 0.1371(2)
H37G H 0.7320 0.8613 0.3376
H37J H 0.6624 0.7320 0.1387
C47G C 0.71990(16) 0.8338(2) 0.28637(14)
C47J C 0.71363(14) 0.71990(16) 0.1662(2)
H38G H 0.7296 0.8093 0.2894
H38J H 0.7106 0.7296 0.1907
C48G C 0.69290(16) 0.8307(2) 0.22074(19)
C48J C 0.77926(19) 0.69290(16) 0.1693(2)
H39G H 0.6674 0.8386 0.2134
H39J H 0.7866 0.6674 0.1614
H40G H 0.6921 0.8034 0.2251
H40J H 0.7749 0.6921 0.1966
C49G C 0.7251(2) 0.80928(19) 0.08588(14)
C49J C 0.91412(14) 0.7251(2) 0.19072(19)
C50G C 0.75397(16) 0.7957(2) 0.06371(19)
C50J C 0.93629(19) 0.75397(16) 0.2043(2)
H41G H 0.7792 0.7981 0.0718
H41J H 0.9282 0.7792 0.2019
C51G C 0.74601(18) 0.7786(2) 0.02972(17)
C51J C 0.97028(17) 0.74601(18) 0.2214(2)
C52G C 0.7091(2) 0.77509(19) 0.01790(15)
C52J C 0.98210(15) 0.7091(2) 0.22491(19)
H42G H 0.7037 0.7634 -0.0053
H42J H 1.0053 0.7037 0.2366
C53G C 0.68024(16) 0.7887(2) 0.04007(19)
C53J C 0.95993(19) 0.68024(16) 0.2113(2)
H43G H 0.6550 0.7862 0.0320
H43J H 0.9680 0.6550 0.2138
C54G C 0.68820(18) 0.8057(2) 0.07407(17)
C54J C 0.92593(17) 0.68820(18) 0.1943(2)
H44G H 0.6684 0.8150 0.0892
H44J H 0.9108 0.6684 0.1850
C55G C 0.73316(15) 0.82670(19) 0.12366(17)
C55J C 0.87634(17) 0.73316(15) 0.17330(19)
C56G C 0.70949(19) 0.82202(15) 0.15413(17)
C56J C 0.84587(17) 0.70949(19) 0.17798(15)
H45G H 0.6871 0.8079 0.1515
H45J H 0.8485 0.6871 0.1921
C57G C 0.71856(16) 0.83793(17) 0.18842(18)
C57J C 0.81158(18) 0.71856(16) 0.16207(17)
C58G C 0.75130(15) 0.85853(18) 0.19224(17)
C58J C 0.80776(17) 0.75130(15) 0.14147(18)
H46G H 0.7575 0.8694 0.2157
H46J H 0.7843 0.7575 0.1306
C59G C 0.77498(19) 0.86321(15) 0.16177(16)
C59J C 0.83823(16) 0.77498(19) 0.13679(15)
H47G H 0.7974 0.8773 0.1644
H47J H 0.8356 0.7974 0.1227
C60G C 0.76591(16) 0.84730(17) 0.12748(18)
C60J C 0.87252(18) 0.76591(16) 0.15270(17)
H48G H 0.7821 0.8505 0.1067
H48J H 0.8933 0.7821 0.1495
B1 B 0.5000 0.8365(4) 0.5000
C61 C 0.5385(2) 0.8644(3) 0.4931(3)
C62 C 0.5345(2) 0.8972(3) 0.4727(3)
H49 H 0.5108 0.9039 0.4628
C63 C 0.5653(3) 0.9201(3) 0.4666(3)
H50 H 0.5626 0.9426 0.4526
C64 C 0.6001(2) 0.9103(3) 0.4809(3)
H51 H 0.6211 0.9260 0.4768
C65 C 0.6040(2) 0.8774(3) 0.5014(3)
H52 H 0.6278 0.8707 0.5112
C66 C 0.5733(3) 0.8545(3) 0.5075(3)
H53 H 0.5760 0.8321 0.5214
C67 C 0.5035(3) 0.8105(3) 0.5392(2)
C68 C 0.5229(3) 0.7768(3) 0.5392(2)
H54 H 0.5316 0.7665 0.5164
C69 C 0.5296(2) 0.7583(2) 0.5728(3)
H55 H 0.5428 0.7353 0.5728
C70 C 0.5168(3) 0.7735(3) 0.6062(2)
H56 H 0.5214 0.7609 0.6291
C71 C 0.4974(3) 0.8072(3) 0.6061(2)
H57 H 0.4887 0.8175 0.6290
C72 C 0.4907(2) 0.8257(2) 0.5726(3)
H58 H 0.4774 0.8487 0.5725
C61B C 0.4615(2) 0.8644(3) 0.5069(3)
C62B C 0.4655(2) 0.8972(3) 0.5273(3)
H49B H 0.4892 0.9039 0.5372
C63B C 0.4347(3) 0.9201(3) 0.5334(3)
H50B H 0.4374 0.9426 0.5474
C64B C 0.3999(2) 0.9103(3) 0.5191(3)
H51B H 0.3789 0.9260 0.5232
C65B C 0.3960(2) 0.8774(3) 0.4986(3)
H52B H 0.3722 0.8707 0.4888
C66B C 0.4267(3) 0.8545(3) 0.4925(3)
H53B H 0.4240 0.8321 0.4786
C67B C 0.4965(3) 0.8105(3) 0.4608(2)
C68B C 0.4771(3) 0.7768(3) 0.4608(2)
H54B H 0.4684 0.7665 0.4836
C69B C 0.4704(2) 0.7583(2) 0.4272(3)
H55B H 0.4572 0.7353 0.4272
C70B C 0.4832(3) 0.7735(3) 0.3938(2)
H56B H 0.4786 0.7609 0.3709
C71B C 0.5026(3) 0.8072(3) 0.3939(2)
H57B H 0.5113 0.8175 0.3710
C72B C 0.5093(2) 0.8257(2) 0.4274(3)
H58B H 0.5226 0.8487 0.4275
B2 B 0.7295(3) 0.7295(3) 0.2705(3)
F1 F 0.69917(16) 0.74992(16) 0.28314(17)
F2 F 0.7524(2) 0.7524(2) 0.2476(2)
F1G F 0.71686(17) 0.69917(16) 0.25008(16)
F1J F 0.74992(16) 0.71686(17) 0.30083(16)
B3 B 0.7830(5) 0.7922(5) 0.4016(5)
F3 F 0.7621(4) 0.8134(4) 0.3780(4)
F4 F 0.8165(5) 0.8080(6) 0.4097(7)
F5 F 0.7631(6) 0.7841(5) 0.4342(4)
F6 F 0.7888(4) 0.7566(3) 0.3838(4)
loop_
_geom_bond_atom_site_label_1
_geom_bond_atom_site_label_2
_geom_bond_site_symmetry_1
_geom_bond_site_symmetry_2
Cd1 N1 1_555 1_555
Cd2 N4 1_555 1_555
N1 C1 1_555 1_555
C1 C2 1_555 1_555
C2 H1 1_555 1_555
C3 C2 1_555 1_555
H2 C3 1_555 1_555
C4 C3 1_555 1_555
H3 C4 1_555 1_555
C5 N1 1_555 1_555
H4 C5 1_555 1_555
N2 N3 1_555 1_555
N3 Cd1 1_555 1_555
C6 C1 1_555 1_555
C7 C6 1_555 1_555
H5 C7 1_555 1_555
C8 N2 1_555 1_555
H6 C8 1_555 1_555
C9 N2 1_555 1_555
H7 C9 1_555 1_555
H8 C9 1_555 1_555
N4 C10 1_555 1_555
C10 C11 1_555 1_555
C11 H9 1_555 1_555
C12 C11 1_555 1_555
H10 C12 1_555 1_555
C13 C12 1_555 1_555
H11 C13 1_555 1_555
C14 N4 1_555 1_555
H12 C14 1_555 1_555
N5 N6 1_555 1_555
N6 Cd2 1_555 1_555
C15 C10 1_555 1_555
C16 C15 1_555 1_555
H13 C16 1_555 1_555
C17 N5 1_555 1_555
H14 C17 1_555 1_555
C18 N5 1_555 1_555
H15 C18 1_555 1_555
H16 C18 1_555 1_555
C19 C20 1_555 1_555
C20 H17 1_555 1_555
C21 C9 1_555 1_555
C22 C21 1_555 1_555
H18 C22 1_555 1_555
C23 C22 1_555 1_555
H19 C23 1_555 1_555
C24 C19 1_555 1_555
H20 C24 1_555 1_555
C25 C19 1_555 1_555
C26 C25 1_555 1_555
H21 C26 1_555 1_555
C27 C18 1_555 1_555
C28 C27 1_555 1_555
H22 C28 1_555 1_555
C29 C28 1_555 1_555
H23 C29 1_555 1_555
C30 C25 1_555 1_555
H24 C30 1_555 1_555
N7 Cd2 1_555 1_555
C31 N7 1_555 1_555
C32 C31 1_555 1_555
H25 C32 1_555 1_555
C33 C32 1_555 1_555
H26 C33 1_555 1_555
C34 C33 1_555 1_555
H27 C34 1_555 1_555
C35 N7 1_555 1_555
H28 C35 1_555 1_555
N8 N9 1_555 1_555
N9 Cd2 1_555 1_555
C36 C31 1_555 1_555
C37 C36 1_555 1_555
H29 C37 1_555 1_555
C38 N8 1_555 1_555
H30 C38 1_555 1_555
C39 N8 1_555 1_555
H31 C39 1_555 1_555
H32 C39 1_555 1_555
N10 C40 1_555 1_555
C40 C41 1_555 1_555
C41 H33 1_555 1_555
C42 C41 1_555 1_555
H34 C42 1_555 1_555
C43 C42 1_555 1_555
H35 C43 1_555 1_555
C44 N10 1_555 1_555
H36 C44 1_555 1_555
N11 N12 1_555 1_555
N12 C45 1_555 1_555
C45 C40 1_555 1_555
C46 C45 1_555 1_555
H37 C46 1_555 1_555
C47 N11 1_555 1_555
H38 C47 1_555 1_555
C48 N11 1_555 1_555
H39 C48 1_555 1_555
H40 C48 1_555 1_555
C49 C50 1_555 1_555
C50 H41 1_555 1_555
C51 C39 1_555 1_555
C52 C51 1_555 1_555
H42 C52 1_555 1_555
C53 C52 1_555 1_555
H43 C53 1_555 1_555
C54 C49 1_555 1_555
H44 C54 1_555 1_555
C55 C49 1_555 1_555
C56 C55 1_555 1_555
H45 C56 1_555 1_555
C57 C48 1_555 1_555
C58 C57 1_555 1_555
H46 C58 1_555 1_555
C59 C58 1_555 1_555
H47 C59 1_555 1_555
C60 C55 1_555 1_555
H48 C60 1_555 1_555
B1 C61 1_555 1_555
C61 C62 1_555 1_555
C62 H49 1_555 1_555
C63 C62 1_555 1_555
H50 C63 1_555 1_555
C64 C63 1_555 1_555
H51 C64 1_555 1_555
C65 C64 1_555 1_555
H52 C65 1_555 1_555
C66 C61 1_555 1_555
H53 C66 1_555 1_555
C67 B1 1_555 1_555
C68 C67 1_555 1_555
H54 C68 1_555 1_555
C69 C68 1_555 1_555
H55 C69 1_555 1_555
C70 C69 1_555 1_555
H56 C70 1_555 1_555
C71 C70 1_555 1_555
H57 C71 1_555 1_555
C72 C67 1_555 1_555
H58 C72 1_555 1_555
B2 F1 1_555 1_555
F2 B2 1_555 1_555
B3 F3 1_555 1_555
F4 B3 1_555 1_555
F5 B3 1_555 1_555
F6 B3 1_555 1_555
Cd2G N4G 1_555 1_555
Cd2J N10 1_555 1_555
N1G Cd1 1_555 1_555
N1J Cd1 1_555 1_555
C1G N1G 1_555 1_555
C1J N1J 1_555 1_555
C2G C1G 1_555 1_555
C2J C1J 1_555 1_555
H1G C2G 1_555 1_555
H1J C2J 1_555 1_555
C3G C2G 1_555 1_555
C3J C2J 1_555 1_555
H2G C3G 1_555 1_555
H2J C3J 1_555 1_555
C4G C3G 1_555 1_555
C4J C3J 1_555 1_555
H3G C4G 1_555 1_555
H3J C4J 1_555 1_555
C5G N1G 1_555 1_555
C5J N1J 1_555 1_555
H4G C5G 1_555 1_555
H4J C5J 1_555 1_555
N2G N3G 1_555 1_555
N2J N3J 1_555 1_555
N3G Cd1 1_555 1_555
N3J Cd1 1_555 1_555
C6G C1G 1_555 1_555
C6J C1J 1_555 1_555
C7G C6G 1_555 1_555
C7J C6J 1_555 1_555
H5G C7G 1_555 1_555
H5J C7J 1_555 1_555
C8G N2G 1_555 1_555
C8J N2J 1_555 1_555
H6G C8G 1_555 1_555
H6J C8J 1_555 1_555
C9G N2G 1_555 1_555
C9J N2J 1_555 1_555
H7G C9G 1_555 1_555
H7J C9J 1_555 1_555
H8G C9G 1_555 1_555
H8J C9J 1_555 1_555
N4G C10G 1_555 1_555
N4J Cd2J 1_555 1_555
C10G C11G 1_555 1_555
C10J N4J 1_555 1_555
C11G H9G 1_555 1_555
C11J C10J 1_555 1_555
H9J C11J 1_555 1_555
C12G C11G 1_555 1_555
C12J C11J 1_555 1_555
H10G C12G 1_555 1_555
H10J C12J 1_555 1_555
C13G C12G 1_555 1_555
C13J C12J 1_555 1_555
H11G C13G 1_555 1_555
H11J C13J 1_555 1_555
C14G N4G 1_555 1_555
C14J N4J 1_555 1_555
H12G C14G 1_555 1_555
H12J C14J 1_555 1_555
N5G N6G 1_555 1_555
N5J N6J 1_555 1_555
N6G Cd2G 1_555 1_555
N6J Cd2J 1_555 1_555
C15G C10G 1_555 1_555
C15J C10J 1_555 1_555
C16G C15G 1_555 1_555
C16J C15J 1_555 1_555
H13G C16G 1_555 1_555
H13J C16J 1_555 1_555
C17G N5G 1_555 1_555
C17J N5J 1_555 1_555
H14G C17G 1_555 1_555
H14J C17J 1_555 1_555
C18G N5G 1_555 1_555
C18J N5J 1_555 1_555
H15G C18G 1_555 1_555
H15J C18J 1_555 1_555
H16G C18G 1_555 1_555
H16J C18J 1_555 1_555
C19G C20G 1_555 1_555
C19J C20J 1_555 1_555
C20G H17G 1_555 1_555
C20J H17J 1_555 1_555
C21G C9G 1_555 1_555
C21J C9J 1_555 1_555
C22G C21G 1_555 1_555
C22J C21J 1_555 1_555
H18G C22G 1_555 1_555
H18J C22J 1_555 1_555
C23G C22G 1_555 1_555
C23J C22J 1_555 1_555
H19G C23G 1_555 1_555
H19J C23J 1_555 1_555
C24G C19G 1_555 1_555
C24J C19J 1_555 1_555
H20G C24G 1_555 1_555
H20J C24J 1_555 1_555
C25G C19G 1_555 1_555
C25J C19J 1_555 1_555
C26G C25G 1_555 1_555
C26J C25J 1_555 1_555
H21G C26G 1_555 1_555
H21J C26J 1_555 1_555
C27G C18G 1_555 1_555
C27J C18J 1_555 1_555
C28G C27G 1_555 1_555
C28J C27J 1_555 1_555
H22G C28G 1_555 1_555
H22J C28J 1_555 1_555
C29G C28G 1_555 1_555
C29J C28J 1_555 1_555
H23G C29G 1_555 1_555
H23J C29J 1_555 1_555
C30G C25G 1_555 1_555
C30J C25J 1_555 1_555
H24G C30G 1_555 1_555
H24J C30J 1_555 1_555
N7G Cd2G 1_555 1_555
N7J Cd2J 1_555 1_555
C31G N7G 1_555 1_555
C31J N7J 1_555 1_555
C32G C31G 1_555 1_555
C32J C31J 1_555 1_555
H25G C32G 1_555 1_555
H25J C32J 1_555 1_555
C33G C32G 1_555 1_555
C33J C32J 1_555 1_555
H26G C33G 1_555 1_555
H26J C33J 1_555 1_555
C34G C33G 1_555 1_555
C34J C33J 1_555 1_555
H27G C34G 1_555 1_555
H27J C34J 1_555 1_555
C35G N7G 1_555 1_555
C35J N7J 1_555 1_555
H28G C35G 1_555 1_555
H28J C35J 1_555 1_555
N8G N9G 1_555 1_555
N8J N9J 1_555 1_555
N9G Cd2G 1_555 1_555
N9J Cd2J 1_555 1_555
C36G C31G 1_555 1_555
C36J C31J 1_555 1_555
C37G C36G 1_555 1_555
C37J C36J 1_555 1_555
H29G C37G 1_555 1_555
H29J C37J 1_555 1_555
C38G N8G 1_555 1_555
C38J N8J 1_555 1_555
H30G C38G 1_555 1_555
H30J C38J 1_555 1_555
C39G N8G 1_555 1_555
C39J N8J 1_555 1_555
H31G C39G 1_555 1_555
H31J C39J 1_555 1_555
H32G C39G 1_555 1_555
H32J C39J 1_555 1_555
N10G Cd2 1_555 1_555
N10J Cd2G 1_555 1_555
C40G N10G 1_555 1_555
C40J N10J 1_555 1_555
C41G C40G 1_555 1_555
C41J C40J 1_555 1_555
H33G C41G 1_555 1_555
H33J C41J 1_555 1_555
C42G C41G 1_555 1_555
C42J C41J 1_555 1_555
H34G C42G 1_555 1_555
H34J C42J 1_555 1_555
C43G C42G 1_555 1_555
C43J C42J 1_555 1_555
H35G C43G 1_555 1_555
H35J C43J 1_555 1_555
C44G N10G 1_555 1_555
C44J N10J 1_555 1_555
H36G C44G 1_555 1_555
H36J C44J 1_555 1_555
N11G N12G 1_555 1_555
N11J N12J 1_555 1_555
N12G Cd2 1_555 1_555
N12J Cd2G 1_555 1_555
C45G C40G 1_555 1_555
C45J C40J 1_555 1_555
C46G C45G 1_555 1_555
C46J C45J 1_555 1_555
H37G C46G 1_555 1_555
H37J C46J 1_555 1_555
C47G N11G 1_555 1_555
C47J N11J 1_555 1_555
H38G C47G 1_555 1_555
H38J C47J 1_555 1_555
C48G N11G 1_555 1_555
C48J N11J 1_555 1_555
H39G C48G 1_555 1_555
H39J C48J 1_555 1_555
H40G C48G 1_555 1_555
H40J C48J 1_555 1_555
C49G C50G 1_555 1_555
C49J C50J 1_555 1_555
C50G H41G 1_555 1_555
C50J H41J 1_555 1_555
C51G C39G 1_555 1_555
C51J C39J 1_555 1_555
C52G C51G 1_555 1_555
C52J C51J 1_555 1_555
H42G C52G 1_555 1_555
H42J C52J 1_555 1_555
C53G C52G 1_555 1_555
C53J C52J 1_555 1_555
H43G C53G 1_555 1_555
H43J C53J 1_555 1_555
C54G C49G 1_555 1_555
C54J C49J 1_555 1_555
H44G C54G 1_555 1_555
H44J C54J 1_555 1_555
C55G C49G 1_555 1_555
C55J C49J 1_555 1_555
C56G C55G 1_555 1_555
C56J C55J 1_555 1_555
H45G C56G 1_555 1_555
H45J C56J 1_555 1_555
C57G C48G 1_555 1_555
C57J C48J 1_555 1_555
C58G C57G 1_555 1_555
C58J C57J 1_555 1_555
H46G C58G 1_555 1_555
H46J C58J 1_555 1_555
C59G C58G 1_555 1_555
C59J C58J 1_555 1_555
H47G C59G 1_555 1_555
H47J C59J 1_555 1_555
C60G C55G 1_555 1_555
C60J C55J 1_555 1_555
H48G C60G 1_555 1_555
H48J C60J 1_555 1_555
C61B B1 1_555 1_555
C62B C61B 1_555 1_555
H49B C62B 1_555 1_555
C63B C62B 1_555 1_555
H50B C63B 1_555 1_555
C64B C63B 1_555 1_555
H51B C64B 1_555 1_555
C65B C64B 1_555 1_555
H52B C65B 1_555 1_555
C66B C61B 1_555 1_555
H53B C66B 1_555 1_555
C67B B1 1_555 1_555
C68B C67B 1_555 1_555
H54B C68B 1_555 1_555
C69B C68B 1_555 1_555
H55B C69B 1_555 1_555
C70B C69B 1_555 1_555
H56B C70B 1_555 1_555
C71B C70B 1_555 1_555
H57B C71B 1_555 1_555
C72B C67B 1_555 1_555
H58B C72B 1_555 1_555
F1G B2 1_555 1_555
F1J B2 1_555 1_555
C4 C5 1_555 1_555
N3 C6 1_555 1_555
C7 C8 1_555 1_555
C13 C14 1_555 1_555
N6 C15 1_555 1_555
C16 C17 1_555 1_555
C20 C21 1_555 1_555
C23 C24 1_555 1_555
C26 C27 1_555 1_555
C29 C30 1_555 1_555
C34 C35 1_555 1_555
N9 C36 1_555 1_555
C37 C38 1_555 1_555
C43 C44 1_555 1_555
N12 Cd2J 1_555 1_555
C46 C47 1_555 1_555
C50 C51 1_555 1_555
C53 C54 1_555 1_555
C56 C57 1_555 1_555
C59 C60 1_555 1_555
C65 C66 1_555 1_555
C71 C72 1_555 1_555
C4G C5G 1_555 1_555
C4J C5J 1_555 1_555
N3G C6G 1_555 1_555
N3J C6J 1_555 1_555
C7G C8G 1_555 1_555
C7J C8J 1_555 1_555
C13G C14G 1_555 1_555
C13J C14J 1_555 1_555
N6G C15G 1_555 1_555
N6J C15J 1_555 1_555
C16G C17G 1_555 1_555
C16J C17J 1_555 1_555
C20G C21G 1_555 1_555
C20J C21J 1_555 1_555
C23G C24G 1_555 1_555
C23J C24J 1_555 1_555
C26G C27G 1_555 1_555
C26J C27J 1_555 1_555
C29G C30G 1_555 1_555
C29J C30J 1_555 1_555
C34G C35G 1_555 1_555
C34J C35J 1_555 1_555
N9G C36G 1_555 1_555
N9J C36J 1_555 1_555
C37G C38G 1_555 1_555
C37J C38J 1_555 1_555
C43G C44G 1_555 1_555
C43J C44J 1_555 1_555
N12G C45G 1_555 1_555
N12J C45J 1_555 1_555
C46G C47G 1_555 1_555
C46J C47J 1_555 1_555
C50G C51G 1_555 1_555
C50J C51J 1_555 1_555
C53G C54G 1_555 1_555
C53J C54J 1_555 1_555
C56G C57G 1_555 1_555
C56J C57J 1_555 1_555
C59G C60G 1_555 1_555
C59J C60J 1_555 1_555
C65B C66B 1_555 1_555
C71B C72B 1_555 1_555

#END
