
#######################################################################
#
#                 Cambridge Crystallographic Data Centre
#                                CCDC 
#
#######################################################################
#
# If this CIF has been generated from an entry in the Cambridge 
# Structural Database, then it will include bibliographic, chemical, 
# crystal, experimental, refinement or atomic coordinate data resulting 
# from the CCDC's data processing and validation procedures.
#
#######################################################################

data_BALHED
_chemical_formula_moiety         
'C180 H144 N36 Ni4 8+,6(C1 H3 N1 O2),8(B1 F4 1-)'
_chemical_name_systematic        
"hexakis(\m~2~-2,2'-(biphenyl-3,3'-diylbis(methylene-1H-pyrazole-1,3-diyl))dipyridine)-tetra-nickel(ii) octakis(tetrafluoroborate) nitromethane solvate"
_symmetry_cell_setting           monoclinic
_symmetry_space_group_name_H-M   'P 21/c'
_symmetry_Int_Tables_number      14
_space_group_name_Hall           '-P 2ybc'
loop_
_symmetry_equiv_pos_site_id
_symmetry_equiv_pos_as_xyz
1 x,y,z
2 -x,1/2+y,1/2-z
3 -x,-y,-z
4 x,1/2-y,1/2+z
_cell_length_a                   37.1159(12)
_cell_length_b                   37.0889(11)
_cell_length_c                   37.9740(12)
_cell_angle_alpha                90
_cell_angle_beta                 118.119(2)
_cell_angle_gamma                90
_cell_volume                     46104.6
_exptl_crystal_colour            violet
_exptl_crystal_description       block
_cell_formula_units_Z            8
loop_
_atom_site_label
_atom_site_type_symbol
_atom_site_fract_x
_atom_site_fract_y
_atom_site_fract_z
Ni1 Ni 0.27940(3) 0.60266(2) 0.84271(3)
Ni2 Ni 0.32662(3) 0.60082(2) 1.16884(3)
Ni3 Ni 0.34412(3) 0.32110(2) 1.01855(3)
Ni4 Ni 0.01932(3) 0.47933(3) 0.88644(3)
N1 N 0.24608(11) 0.59307(12) 0.78129(9)
C1 C 0.20395(12) 0.59506(13) 0.76605(11)
C2 C 0.17841(9) 0.59004(14) 0.72545(12)
H1 H 0.1496 0.5914 0.7150
C3 C 0.19500(12) 0.58302(14) 0.70010(9)
H2 H 0.1775 0.5796 0.6724
C4 C 0.23712(13) 0.58103(14) 0.71535(11)
H3 H 0.2485 0.5762 0.6980
C5 C 0.26266(10) 0.58605(13) 0.75594(12)
H4 H 0.2915 0.5847 0.7664
N2 N 0.19812(12) 0.60238(12) 0.85656(9)
N3 N 0.21968(9) 0.59857(12) 0.83426(12)
C6 C 0.19082(13) 0.59978(14) 0.79307(10)
C7 C 0.15142(11) 0.60434(14) 0.78992(10)
H5 H 0.1264 0.6060 0.7658
C8 C 0.15593(11) 0.60595(14) 0.82915(13)
H6 H 0.1345 0.6089 0.8359
C9 C 0.2166(2) 0.60331(19) 0.8966(2)
H7 H 0.2422 0.5892 0.9069
H8 H 0.1987 0.5912 0.9057
N4 N 0.35897(12) 0.61942(12) 1.22797(10)
C10 C 0.39477(13) 0.63799(13) 1.23677(12)
C11 C 0.41714(12) 0.65390(13) 1.27403(13)
H9 H 0.4416 0.6666 1.2800
C12 C 0.40373(13) 0.65125(13) 1.30248(11)
H10 H 0.4190 0.6621 1.3279
C13 C 0.36793(14) 0.63268(14) 1.29368(11)
H11 H 0.3588 0.6309 1.3131
C14 C 0.34556(11) 0.61677(12) 1.25642(13)
H12 H 0.3211 0.6041 1.2504
N5 N 0.39303(12) 0.63405(13) 1.14273(10)
N6 N 0.37545(10) 0.62899(12) 1.16846(12)
C15 C 0.40441(14) 0.64025(14) 1.20737(11)
C16 C 0.43990(12) 0.65227(14) 1.20570(12)
H13 H 0.4641 0.6613 1.2275
C17 C 0.43286(12) 0.64844(14) 1.16575(13)
H14 H 0.4515 0.6544 1.1561
C18 C 0.3718(2) 0.63024(19) 1.1024(2)
H15 H 0.3593 0.6059 1.0963
H16 H 0.3911 0.6317 1.0914
C19 C 0.25903(6) 0.67676(5) 0.97464(6)
C20 C 0.24831(8) 0.64318(6) 0.95633(6)
H17 H 0.2557 0.6219 0.9721
C21 C 0.22678(8) 0.64075(7) 0.91495(6)
C22 C 0.21597(6) 0.67191(7) 0.89188(6)
H18 H 0.2012 0.6702 0.8636
C23 C 0.22669(6) 0.70549(6) 0.91019(6)
H19 H 0.2193 0.7268 0.8944
C24 C 0.24822(6) 0.70791(5) 0.95157(6)
H20 H 0.2555 0.7309 0.9641
C25 C 0.28370(7) 0.67944(6) 1.01999(5)
C26 C 0.31444(8) 0.65447(7) 1.04072(6)
H21 H 0.3189 0.6351 1.0268
C27 C 0.33870(9) 0.65783(9) 1.08175(6)
C28 C 0.33222(9) 0.68616(9) 1.10207(5)
H22 H 0.3488 0.6885 1.1301
C29 C 0.30149(10) 0.71113(8) 1.08135(6)
H23 H 0.2971 0.7305 1.0952
C30 C 0.27723(8) 0.70777(7) 1.04031(6)
H24 H 0.2562 0.7248 1.0262
N7 N 0.27263(9) 0.65858(7) 0.83674(6)
C31 C 0.29338(7) 0.67782(7) 0.87212(6)
C32 C 0.29380(8) 0.71528(7) 0.87138(6)
H25 H 0.3080 0.7284 0.8956
C33 C 0.27348(10) 0.73350(7) 0.83526(7)
H26 H 0.2738 0.7591 0.8347
C34 C 0.25274(10) 0.71426(8) 0.79988(6)
H27 H 0.2388 0.7267 0.7752
C35 C 0.25231(9) 0.67680(8) 0.80062(6)
H28 H 0.2381 0.6636 0.7764
N8 N 0.33138(14) 0.60455(8) 0.94063(12)
N9 N 0.30882(13) 0.61958(10) 0.90187(10)
C36 C 0.31249(15) 0.65768(10) 0.90542(12)
C37 C 0.33733(16) 0.66620(9) 0.94637(14)
H29 H 0.3448 0.6897 0.9573
C38 C 0.34900(14) 0.63336(12) 0.96813(10)
H30 H 0.3657 0.6311 0.9962
C39 C 0.3335(2) 0.56835(19) 0.9476(2)
H31 H 0.3089 0.5567 0.9262
H32 H 0.3332 0.5641 0.9732
N10 N 0.35063(15) 0.26460(8) 1.01718(14)
C40 C 0.36200(16) 0.25263(11) 0.98914(14)
C41 C 0.36814(17) 0.21606(12) 0.98595(14)
H33 H 0.3759 0.2079 0.9668
C42 C 0.36292(17) 0.19147(9) 1.01079(16)
H34 H 0.3671 0.1665 1.0086
C43 C 0.35155(17) 0.20344(11) 1.03883(15)
H35 H 0.3480 0.1866 1.0558
C44 C 0.34541(16) 0.24001(12) 1.04202(13)
H36 H 0.3376 0.2482 1.0612
N11 N 0.35980(15) 0.33480(9) 0.94007(14)
N12 N 0.35495(15) 0.31373(12) 0.96877(13)
C45 C 0.36563(17) 0.27760(10) 0.96542(15)
C46 C 0.37708(18) 0.27634(10) 0.93466(16)
H37 H 0.3857 0.2555 0.9261
C47 C 0.37348(17) 0.31170(13) 0.91898(14)
H38 H 0.3792 0.3187 0.8981
C48 C 0.3500(2) 0.3705(2) 0.9343(2)
H39 H 0.3307 0.3760 0.9447
H40 H 0.3359 0.3756 0.9053
C49 C 0.40998(6) 0.49583(5) 0.95809(6)
C50 C 0.37634(8) 0.51345(6) 0.95682(7)
H41 H 0.3567 0.5003 0.9609
C51 C 0.37148(9) 0.55032(6) 0.94956(8)
C52 C 0.40026(9) 0.56957(5) 0.94357(6)
H42 H 0.3969 0.5948 0.9386
C53 C 0.43391(6) 0.55195(5) 0.94484(7)
H43 H 0.4536 0.5651 0.9407
C54 C 0.43877(6) 0.51508(5) 0.95210(6)
H44 H 0.4618 0.5030 0.9530
C55 C 0.41552(7) 0.45560(5) 0.96646(7)
C56 C 0.38216(8) 0.43257(5) 0.94841(8)
H45 H 0.3557 0.4421 0.9317
C57 C 0.38747(10) 0.39561(5) 0.95477(9)
C58 C 0.42613(11) 0.38167(5) 0.97918(10)
H46 H 0.4298 0.3564 0.9835
C59 C 0.45949(9) 0.40469(6) 0.99722(9)
H47 H 0.4859 0.3952 1.0139
C60 C 0.45418(7) 0.44166(6) 0.99087(8)
H48 H 0.4770 0.4574 1.0032
N13 N 0.33548(8) 0.60530(6) 0.84151(8)
C61 C 0.35394(7) 0.57207(6) 0.84424(6)
C62 C 0.39093(9) 0.57020(6) 0.84339(7)
H49 H 0.4035 0.5475 0.8453
C63 C 0.40945(10) 0.60156(7) 0.83979(9)
H50 H 0.4347 0.6003 0.8392
C64 C 0.39098(10) 0.63479(7) 0.83706(9)
H51 H 0.4036 0.6562 0.8346
C65 C 0.35400(9) 0.63666(6) 0.83792(9)
H52 H 0.3414 0.6594 0.8360
N14 N 0.28347(11) 0.51546(11) 0.85676(14)
N15 N 0.29787(12) 0.54932(9) 0.85114(15)
C66 C 0.33430(13) 0.54326(11) 0.84850(17)
C67 C 0.34241(12) 0.50565(12) 0.85249(17)
H53 H 0.3649 0.4940 0.8519
C68 C 0.31100(14) 0.48847(8) 0.85760(16)
H54 H 0.3088 0.4633 0.8610
C69 C 0.2469(2) 0.5105(2) 0.8575(2)
H55 H 0.2430 0.5310 0.8721
H56 H 0.2490 0.4883 0.8728
N16 N -0.04252(9) 0.47777(12) 0.87467(14)
C70 C -0.06740(13) 0.50410(12) 0.84842(14)
C71 C -0.10862(12) 0.50555(12) 0.83812(15)
H57 H -0.1256 0.5235 0.8202
C72 C -0.12496(10) 0.48066(14) 0.85406(15)
H58 H -0.1531 0.4817 0.8470
C73 C -0.10008(13) 0.45433(12) 0.88030(15)
H59 H -0.1113 0.4373 0.8912
C74 C -0.05887(12) 0.45288(12) 0.89061(14)
H60 H -0.0419 0.4349 0.9085
N17 N 0.00573(10) 0.54955(12) 0.82829(14)
N18 N -0.00677(12) 0.52169(11) 0.84581(14)
C75 C -0.04894(12) 0.52662(13) 0.83374(16)
C76 C -0.06249(10) 0.55752(14) 0.80876(16)
H61 H -0.0894 0.5670 0.7965
C77 C -0.02871(14) 0.57169(11) 0.80539(15)
H62 H -0.0291 0.5924 0.7904
C78 C 0.0439(2) 0.5507(2) 0.8326(2)
H63 H 0.0633 0.5430 0.8600
H64 H 0.0505 0.5760 0.8293
C79 C 0.13590(6) 0.50567(6) 0.77834(6)
C80 C 0.17090(6) 0.50870(6) 0.81498(6)
H65 H 0.1686 0.5115 0.8387
C81 C 0.20920(6) 0.50760(8) 0.81687(7)
C82 C 0.21251(7) 0.50347(9) 0.78213(7)
H66 H 0.2387 0.5027 0.7834
C83 C 0.17752(7) 0.50043(8) 0.74549(7)
H67 H 0.1798 0.4976 0.7217
C84 C 0.13921(7) 0.50153(7) 0.74360(6)
H68 H 0.1153 0.4995 0.7186
C85 C 0.09474(6) 0.50633(6) 0.77692(6)
C86 C 0.08838(6) 0.52623(6) 0.80452(6)
H69 H 0.1102 0.5395 0.8247
C87 C 0.05003(5) 0.52671(8) 0.80257(7)
C88 C 0.01805(6) 0.50728(9) 0.77302(7)
H70 H -0.0082 0.5076 0.7717
C89 C 0.02440(6) 0.48738(8) 0.74543(7)
H71 H 0.0025 0.4741 0.7252
C90 C 0.06275(6) 0.48690(7) 0.74738(6)
H72 H 0.0671 0.4733 0.7285
N19 N 0.28751(8) 0.64531(7) 1.15153(6)
C91 C 0.25793(8) 0.64499(7) 1.11165(6)
C92 C 0.23022(8) 0.67326(7) 1.09624(6)
H73 H 0.2100 0.6730 1.0690
C93 C 0.23210(9) 0.70185(7) 1.12070(7)
H74 H 0.2132 0.7212 1.1102
C94 C 0.26169(9) 0.70218(8) 1.16058(7)
H75 H 0.2630 0.7217 1.1773
C95 C 0.28939(9) 0.67391(8) 1.17600(6)
H76 H 0.3096 0.6741 1.2033
N20 N 0.28549(12) 0.56606(10) 1.07751(12)
N21 N 0.29101(11) 0.59215(11) 1.10700(10)
C96 C 0.25845(14) 0.61735(10) 1.08972(13)
C97 C 0.23281(12) 0.60683(12) 1.04955(12)
H77 H 0.2087 0.6189 1.0310
C98 C 0.24952(13) 0.57513(12) 1.04200(10)
H78 H 0.2386 0.5623 1.0175
C99 C 0.3140(2) 0.53962(19) 1.0826(2)
H79 H 0.3415 0.5495 1.1002
H80 H 0.3125 0.5348 1.0562
N22 N 0.28154(11) 0.31599(12) 0.98431(13)
C100 C 0.25992(14) 0.30942(13) 1.00519(10)
C101 C 0.21856(14) 0.30107(14) 0.98462(14)
H81 H 0.2038 0.2966 0.9989
C102 C 0.19882(11) 0.29929(13) 0.94317(14)
H82 H 0.1706 0.2936 0.9291
C103 C 0.22044(14) 0.30587(14) 0.92228(10)
H83 H 0.2069 0.3047 0.8939
C104 C 0.26179(14) 0.31422(13) 0.94285(13)
H84 H 0.2766 0.3187 0.9286
N23 N 0.34156(11) 0.31144(13) 1.10448(12)
N24 N 0.32462(14) 0.31528(13) 1.06245(13)
C105 C 0.28170(13) 0.31044(14) 1.04532(11)
C106 C 0.27211(12) 0.30361(15) 1.07676(16)
H85 H 0.2456 0.2994 1.0738
C107 C 0.30911(15) 0.30423(14) 1.11332(12)
H86 H 0.3117 0.3005 1.1392
C108 C 0.3824(2) 0.3172(2) 1.1322(2)
H87 H 0.4001 0.3058 1.1223
H88 H 0.3882 0.3055 1.1577
C109 C 0.33914(6) 0.44648(5) 1.12697(6)
C110 C 0.34149(7) 0.47942(5) 1.11069(5)
H89 H 0.3646 0.4849 1.1071
C111 C 0.31006(7) 0.50437(6) 1.09964(6)
C112 C 0.27629(6) 0.49640(7) 1.10487(8)
H90 H 0.2548 0.5135 1.0973
C113 C 0.27395(6) 0.46346(7) 1.12114(10)
H91 H 0.2509 0.4580 1.1247
C114 C 0.30537(6) 0.43851(6) 1.13219(8)
H92 H 0.3038 0.4160 1.1433
C115 C 0.37256(7) 0.41863(5) 1.13658(7)
C116 C 0.36235(8) 0.38228(5) 1.13057(9)
H93 H 0.3347 0.3750 1.1205
C117 C 0.39262(10) 0.35653(5) 1.13936(10)
C118 C 0.43310(9) 0.36714(7) 1.15415(11)
H94 H 0.4538 0.3495 1.1602
C119 C 0.44331(7) 0.40349(7) 1.16016(10)
H95 H 0.4710 0.4107 1.1703
C120 C 0.41304(6) 0.42924(6) 1.15138(8)
H96 H 0.4200 0.4541 1.1555
N25 N 0.36204(8) 0.55390(5) 1.18397(9)
C121 C 0.34889(8) 0.52720(6) 1.20096(8)
C122 C 0.37185(8) 0.49598(6) 1.21583(6)
H97 H 0.3629 0.4777 1.2274
C123 C 0.40796(7) 0.49147(6) 1.21372(6)
H98 H 0.4236 0.4701 1.2239
C124 C 0.42110(6) 0.51817(6) 1.19673(8)
H99 H 0.4458 0.5151 1.1953
C125 C 0.39815(8) 0.54939(5) 1.18185(9)
H100 H 0.4071 0.5676 1.1702
N26 N 0.25771(12) 0.56602(10) 1.19170(14)
N27 N 0.29280(13) 0.56586(10) 1.18588(14)
C126 C 0.31356(12) 0.53266(12) 1.20064(16)
C127 C 0.29130(15) 0.51231(10) 1.21559(16)
H101 H 0.2983 0.4890 1.2272
C128 C 0.25678(13) 0.53293(12) 1.21007(16)
H102 H 0.2366 0.5258 1.2174
C129 C 0.2297(2) 0.5941(2) 1.1800(2)
H103 H 0.2448 0.6171 1.1855
H104 H 0.2158 0.5934 1.1968
N28 N 0.00770(12) 0.44388(12) 0.83953(12)
C130 C 0.04145(10) 0.43547(13) 0.83444(13)
C131 C 0.03677(11) 0.41421(13) 0.80241(15)
H105 H 0.0598 0.4085 0.7989
C132 C -0.00166(14) 0.40136(13) 0.77548(13)
H106 H -0.0049 0.3868 0.7536
C133 C -0.03540(10) 0.40978(13) 0.78058(13)
H107 H -0.0617 0.4010 0.7622
C134 C -0.03072(10) 0.43104(13) 0.81260(14)
H108 H -0.0538 0.4368 0.8161
N29 N 0.11810(12) 0.48743(11) 0.91218(12)
N30 N 0.07730(10) 0.47539(12) 0.88862(14)
C135 C 0.07710(11) 0.44984(13) 0.86068(14)
C136 C 0.11778(14) 0.44609(13) 0.86697(15)
H109 H 0.1265 0.4307 0.8524
C137 C 0.14312(9) 0.46932(13) 0.89880(15)
H110 H 0.1718 0.4722 0.9093
C138 C 0.1288(2) 0.5163(2) 0.9381(2)
H111 H 0.1058 0.5337 0.9276
H112 H 0.1525 0.5286 0.9381
C139 C 0.16327(6) 0.56459(6) 1.07228(7)
C140 C 0.19249(7) 0.56383(6) 1.11229(7)
H113 H 0.2090 0.5430 1.1231
C141 C 0.19752(8) 0.59351(8) 1.13654(8)
C142 C 0.17333(8) 0.62394(7) 1.12077(9)
H114 H 0.1768 0.6442 1.1373
C143 C 0.14410(7) 0.62470(6) 1.08077(9)
H115 H 0.1276 0.6455 1.0700
C144 C 0.13907(7) 0.59502(6) 1.05652(8)
H116 H 0.1191 0.5955 1.0292
C145 C 0.15644(6) 0.53191(6) 1.04556(7)
C146 C 0.14553(6) 0.53721(7) 1.00554(7)
H117 H 0.1422 0.5610 0.9951
C147 C 0.13952(6) 0.50774(8) 0.98077(7)
C148 C 0.14443(5) 0.47296(7) 0.99602(8)
H118 H 0.1403 0.4528 0.9791
C149 C 0.15534(6) 0.46767(6) 1.03604(9)
H119 H 0.1587 0.4439 1.0465
C150 C 0.16134(6) 0.49714(6) 1.06081(8)
H120 H 0.1688 0.4935 1.0882
N31 N 0.40654(8) 0.32904(7) 1.05520(9)
C151 C 0.41853(7) 0.36496(7) 1.06237(8)
C152 C 0.45972(7) 0.37368(7) 1.08382(10)
H121 H 0.4679 0.3982 1.0887
C153 C 0.48893(7) 0.34649(8) 1.09810(10)
H122 H 0.5171 0.3524 1.1128
C154 C 0.47694(8) 0.31057(8) 1.09093(10)
H123 H 0.4969 0.2920 1.1007
C155 C 0.43574(8) 0.30185(7) 1.06948(10)
H124 H 0.4275 0.2773 1.0646
N32 N 0.32256(9) 0.40881(10) 1.00767(13)
N33 N 0.34817(12) 0.37795(8) 1.02120(14)
C156 C 0.38852(10) 0.38979(11) 1.04718(15)
C157 C 0.38785(11) 0.42797(11) 1.04971(15)
H125 H 0.4107 0.4430 1.0650
C158 C 0.34709(13) 0.43972(8) 1.02529(15)
H126 H 0.3378 0.4640 1.0214
C159 C 0.2824(2) 0.4086(2) 0.9774(2)
H127 H 0.2802 0.3910 0.9569
H128 H 0.2762 0.4327 0.9646
N34 N 0.03471(14) 0.51482(12) 0.93469(12)
C160 C 0.04232(15) 0.49790(10) 0.97019(14)
C161 C 0.04831(16) 0.51838(13) 1.00317(12)
H129 H 0.0535 0.5068 1.0274
C162 C 0.04668(16) 0.55578(13) 1.00065(12)
H130 H 0.0508 0.5698 1.0232
C163 C 0.03907(16) 0.57271(10) 0.96515(15)
H131 H 0.0380 0.5983 0.9634
C164 C 0.03308(15) 0.55223(12) 0.93217(12)
H132 H 0.0279 0.5638 0.9079
N35 N 0.03226(16) 0.40634(11) 0.94083(14)
N36 N 0.03419(16) 0.44382(13) 0.93430(13)
C165 C 0.04247(18) 0.46223(10) 0.97011(16)
C166 C 0.04565(18) 0.43612(15) 0.99879(12)
H133 H 0.0511 0.4409 1.0254
C167 C 0.03934(18) 0.40158(12) 0.98069(15)
H134 H 0.0398 0.3792 0.9931
C168 C 0.0265(2) 0.3796(2) 0.9127(3)
H135 H 0.0044 0.3872 0.8864
H136 H 0.0177 0.3571 0.9204
C169 C 0.17973(7) 0.38407(6) 0.96827(7)
C170 C 0.21092(7) 0.39245(9) 0.95920(9)
H137 H 0.2056 0.3932 0.9322
C171 C 0.24998(7) 0.39968(11) 0.98970(10)
C172 C 0.25783(8) 0.39854(10) 1.02927(9)
H138 H 0.2845 0.4035 1.0501
C173 C 0.22664(9) 0.39017(11) 1.03835(8)
H139 H 0.2320 0.3894 1.0654
C174 C 0.18758(8) 0.38293(10) 1.00785(7)
H140 H 0.1663 0.3772 1.0140
C175 C 0.13740(7) 0.37554(6) 0.93404(7)
C176 C 0.10309(7) 0.38144(10) 0.93902(10)
H141 H 0.1059 0.3920 0.9630
C177 C 0.06462(7) 0.37195(12) 0.90889(11)
C178 C 0.06045(8) 0.35656(11) 0.87379(10)
H142 H 0.0342 0.3501 0.8532
C179 C 0.09476(10) 0.35066(11) 0.86882(9)
H143 H 0.0919 0.3401 0.8448
C180 C 0.13323(9) 0.36014(10) 0.89894(8)
H144 H 0.1567 0.3561 0.8955
Ni5 Ni 0.21094(3) 0.39592(3) 0.64206(3)
Ni6 Ni 0.18018(3) 0.39503(2) 0.32661(3)
Ni7 Ni 0.47948(3) 0.52475(2) 0.61871(3)
Ni8 Ni 0.15737(3) 0.67968(2) 0.47558(3)
N37 N 0.23793(13) 0.40347(13) 0.70343(10)
C181 C 0.28037(13) 0.40241(14) 0.72276(13)
C182 C 0.30191(10) 0.40523(15) 0.76411(13)
H145 H 0.3309 0.4045 0.7773
C183 C 0.28101(14) 0.40910(15) 0.78612(10)
H146 H 0.2957 0.4110 0.8144
C184 C 0.23857(14) 0.41016(15) 0.76678(13)
H147 H 0.2243 0.4128 0.7818
C185 C 0.21703(11) 0.40734(14) 0.72544(13)
H148 H 0.1880 0.4081 0.7122
N38 N 0.29783(13) 0.39944(13) 0.63837(10)
N39 N 0.27261(10) 0.40095(13) 0.65714(13)
C186 C 0.29831(14) 0.40004(15) 0.69909(12)
C187 C 0.33941(12) 0.39796(15) 0.70624(11)
H149 H 0.3630 0.3970 0.7317
C188 C 0.33911(11) 0.39759(14) 0.66872(14)
H150 H 0.3624 0.3963 0.6646
C189 C 0.2826(2) 0.39716(19) 0.5975(2)
H151 H 0.3019 0.4094 0.5902
H152 H 0.2564 0.4103 0.5844
N40 N 0.14723(14) 0.37719(13) 0.26691(11)
C190 C 0.11162(15) 0.35832(14) 0.25809(13)
C191 C 0.08940(13) 0.34239(14) 0.22081(15)
H153 H 0.0651 0.3295 0.2148
C192 C 0.10279(15) 0.34534(14) 0.19237(11)
H154 H 0.0876 0.3344 0.1669
C193 C 0.13841(16) 0.36421(15) 0.20120(13)
H155 H 0.1476 0.3662 0.1818
C194 C 0.16063(13) 0.38014(13) 0.23847(14)
H156 H 0.1850 0.3930 0.2445
N41 N 0.11490(14) 0.36065(14) 0.35331(11)
N42 N 0.13160(12) 0.36635(13) 0.32694(14)
C195 C 0.10228(16) 0.35491(16) 0.28824(12)
C196 C 0.06746(13) 0.34214(16) 0.29070(13)
H157 H 0.0432 0.3328 0.2692
C197 C 0.07527(14) 0.34568(15) 0.33091(15)
H158 H 0.0571 0.3392 0.3411
C198 C 0.1367(3) 0.3653(2) 0.3937(2)
H159 H 0.1175 0.3645 0.4050
H160 H 0.1492 0.3896 0.3991
C199 C 0.24751(6) 0.32138(6) 0.52301(7)
C200 C 0.25552(6) 0.35550(6) 0.54017(7)
H161 H 0.2471 0.3763 0.5237
C201 C 0.27587(6) 0.35915(8) 0.58147(7)
C202 C 0.28820(7) 0.32868(9) 0.60562(7)
H162 H 0.3021 0.3312 0.6338
C203 C 0.28019(8) 0.29456(8) 0.58846(7)
H163 H 0.2886 0.2737 0.6050
C204 C 0.25985(8) 0.29090(6) 0.54716(7)
H164 H 0.2544 0.2676 0.5354
C205 C 0.22488(7) 0.31754(6) 0.47794(7)
C206 C 0.19396(8) 0.34207(7) 0.45626(6)
H165 H 0.1891 0.3617 0.4695
C207 C 0.17018(9) 0.33781(9) 0.41527(6)
C208 C 0.17732(10) 0.30901(10) 0.39595(7)
H166 H 0.1611 0.3061 0.3679
C209 C 0.20824(9) 0.28448(8) 0.41762(7)
H167 H 0.2131 0.2648 0.4044
C210 C 0.23202(8) 0.28874(7) 0.45861(7)
H168 H 0.2532 0.2720 0.4734
N43 N 0.15078(9) 0.39460(8) 0.63625(8)
C211 C 0.13374(10) 0.42827(9) 0.63491(10)
C212 C 0.09500(11) 0.43086(10) 0.63184(11)
H169 H 0.0834 0.4539 0.6309
C213 C 0.07331(10) 0.39978(12) 0.63012(11)
H170 H 0.0468 0.4015 0.6280
C214 C 0.09036(10) 0.36610(11) 0.63147(11)
H171 H 0.0755 0.3449 0.6303
C215 C 0.12909(9) 0.36351(9) 0.63454(9)
H172 H 0.1407 0.3405 0.6355
N44 N 0.20890(12) 0.48428(12) 0.63117(16)
N45 N 0.19279(14) 0.45032(10) 0.63403(17)
C216 C 0.15537(14) 0.45649(13) 0.63472(19)
C217 C 0.14835(14) 0.49427(14) 0.63228(19)
H173 H 0.1255 0.5060 0.6321
C218 C 0.18143(16) 0.51144(10) 0.63010(18)
H174 H 0.1846 0.5367 0.6282
C219 C 0.2480(2) 0.4881(2) 0.6331(2)
H175 H 0.2479 0.5099 0.6180
H176 H 0.2531 0.4670 0.6201
N46 N 0.54157(10) 0.52679(12) 0.63343(14)
C220 C 0.56523(13) 0.49911(11) 0.65823(14)
C221 C 0.60626(12) 0.49632(12) 0.66812(15)
H177 H 0.6224 0.4774 0.6851
C222 C 0.62364(10) 0.52119(13) 0.65320(16)
H178 H 0.6517 0.5193 0.6600
C223 C 0.59998(13) 0.54887(12) 0.62840(15)
H179 H 0.6119 0.5659 0.6182
C224 C 0.55894(12) 0.55167(11) 0.61851(14)
H180 H 0.5428 0.5706 0.6016
N47 N 0.49047(10) 0.45324(12) 0.67425(14)
N48 N 0.50415(12) 0.48110(11) 0.65777(13)
C225 C 0.54658(12) 0.47602(13) 0.67135(16)
C226 C 0.55914(10) 0.44502(13) 0.69623(16)
H181 H 0.5860 0.4354 0.7094
C227 C 0.52446(14) 0.43094(11) 0.69802(15)
H182 H 0.5241 0.4102 0.7126
C228 C 0.4506(2) 0.4517(2) 0.6687(2)
H183 H 0.4439 0.4264 0.6715
H184 H 0.4315 0.4597 0.6413
C229 C 0.35482(6) 0.49445(5) 0.71749(7)
C230 C 0.32151(6) 0.49211(5) 0.67957(7)
H185 H 0.3257 0.4912 0.6567
C231 C 0.28211(6) 0.49114(5) 0.67505(9)
C232 C 0.27603(7) 0.49251(6) 0.70845(10)
H186 H 0.2491 0.4918 0.7054
C233 C 0.30935(9) 0.49485(7) 0.74637(10)
H187 H 0.3052 0.4958 0.7692
C234 C 0.34875(8) 0.49582(6) 0.75090(8)
H188 H 0.3715 0.4974 0.7768
C235 C 0.39764(6) 0.49413(6) 0.72172(7)
C236 C 0.40518(7) 0.47580(6) 0.69393(8)
H189 H 0.3835 0.4639 0.6721
C237 C 0.44445(8) 0.47492(8) 0.69813(10)
C238 C 0.47618(7) 0.49235(8) 0.73012(11)
H190 H 0.5030 0.4917 0.7330
C239 C 0.46864(7) 0.51067(7) 0.75791(9)
H191 H 0.4903 0.5226 0.7798
C240 C 0.42937(7) 0.51156(6) 0.75371(8)
H192 H 0.4242 0.5241 0.7727
N49 N 0.21687(8) 0.33985(7) 0.64686(9)
C241 C 0.19902(9) 0.32157(7) 0.61062(10)
C242 C 0.19871(10) 0.28410(7) 0.61003(12)
H193 H 0.1865 0.2716 0.5853
C243 C 0.21625(10) 0.26490(7) 0.64567(13)
H194 H 0.2160 0.2393 0.6453
C244 C 0.23410(10) 0.28318(7) 0.68190(12)
H195 H 0.2461 0.2701 0.7063
C245 C 0.23441(9) 0.32065(7) 0.68250(10)
H196 H 0.2466 0.3331 0.7073
N50 N 0.16801(16) 0.39647(9) 0.54487(14)
N51 N 0.18735(15) 0.38035(12) 0.58332(12)
C246 C 0.18168(18) 0.34247(11) 0.57837(14)
C247 C 0.15883(19) 0.33517(10) 0.53687(16)
H197 H 0.1506 0.3120 0.5250
C248 C 0.15038(17) 0.36854(13) 0.51616(11)
H198 H 0.1355 0.3716 0.4880
C249 C 0.1664(3) 0.4343(2) 0.5391(3)
H199 H 0.1687 0.4395 0.5147
H200 H 0.1901 0.4454 0.5619
N52 N 0.15064(17) 0.73658(9) 0.47565(15)
C250 C 0.13371(18) 0.74878(11) 0.49923(15)
C251 C 0.12683(18) 0.78541(12) 0.50106(16)
H201 H 0.1153 0.7938 0.5172
C252 C 0.13689(19) 0.80983(9) 0.47932(17)
H202 H 0.1322 0.8349 0.4806
C253 C 0.15382(18) 0.79762(11) 0.45574(16)
H203 H 0.1607 0.8143 0.4409
C254 C 0.16069(17) 0.76100(12) 0.45390(15)
H204 H 0.1723 0.7527 0.4378
N53 N 0.13007(18) 0.66711(10) 0.54683(16)
N54 N 0.13970(17) 0.68812(13) 0.52112(16)
C255 C 0.1257(2) 0.72382(11) 0.52075(17)
C256 C 0.1074(2) 0.72487(12) 0.54622(18)
H205 H 0.0955 0.7454 0.5515
C257 C 0.11011(19) 0.68982(14) 0.56234(17)
H206 H 0.1003 0.6828 0.5803
C258 C 0.1404(3) 0.6306(2) 0.5555(3)
H207 H 0.1490 0.6263 0.5842
H208 H 0.1639 0.6250 0.5509
C259 C 0.08828(8) 0.50483(7) 0.52331(7)
C260 C 0.12402(8) 0.48783(7) 0.52905(6)
H209 H 0.1455 0.5015 0.5287
C261 C 0.12836(10) 0.45081(7) 0.53529(7)
C262 C 0.09696(12) 0.43077(7) 0.53580(9)
H210 H 0.0999 0.4055 0.5401
C263 C 0.06122(11) 0.44776(7) 0.53006(9)
H211 H 0.0398 0.4341 0.5304
C264 C 0.05688(9) 0.48479(7) 0.52382(8)
H212 H 0.0324 0.4964 0.5199
C265 C 0.08193(8) 0.54417(6) 0.51506(7)
C266 C 0.11269(9) 0.56861(7) 0.53739(7)
H213 H 0.1385 0.5602 0.5572
C267 C 0.10565(12) 0.60541(7) 0.53081(9)
C268 C 0.06785(13) 0.61777(6) 0.50189(10)
H214 H 0.0630 0.6429 0.4974
C269 C 0.03709(11) 0.59332(7) 0.47955(9)
H215 H 0.0113 0.6018 0.4598
C270 C 0.04413(8) 0.55652(7) 0.48614(8)
H216 H 0.0231 0.5398 0.4709
N55 N 0.14522(10) 0.44254(8) 0.31153(8)
C271 C 0.15868(10) 0.46904(8) 0.29460(8)
C272 C 0.13559(10) 0.50008(8) 0.27895(8)
H217 H 0.1448 0.5182 0.2674
C273 C 0.09905(10) 0.50460(8) 0.28023(7)
H218 H 0.0833 0.5258 0.2695
C274 C 0.08560(9) 0.47809(8) 0.29717(6)
H219 H 0.0606 0.4812 0.2980
C275 C 0.10869(9) 0.44706(7) 0.31282(7)
H220 H 0.0995 0.4289 0.3244
N56 N 0.25160(12) 0.43025(10) 0.30648(14)
N57 N 0.21584(13) 0.43045(10) 0.31117(14)
C276 C 0.19479(12) 0.46330(12) 0.29517(16)
C277 C 0.21754(15) 0.48340(10) 0.28058(16)
H221 H 0.2105 0.5065 0.2683
C278 C 0.25265(13) 0.46297(12) 0.28758(16)
H222 H 0.2732 0.4700 0.2808
C279 C 0.2805(2) 0.4018(2) 0.3208(2)
H223 H 0.2953 0.4010 0.3048
H224 H 0.2659 0.3786 0.3169
N58 N 0.48711(13) 0.55795(12) 0.66649(12)
C280 C 0.45148(11) 0.56621(13) 0.66829(13)
C281 C 0.45341(12) 0.58616(14) 0.70013(15)
H225 H 0.4291 0.5918 0.7014
C282 C 0.49095(15) 0.59784(13) 0.73016(13)
H226 H 0.4923 0.6115 0.7519
C283 C 0.52657(11) 0.58958(14) 0.72836(13)
H227 H 0.5522 0.5976 0.7489
C284 C 0.52465(11) 0.56963(13) 0.69652(14)
H228 H 0.5490 0.5640 0.6953
N59 N 0.37992(12) 0.51463(11) 0.58612(12)
N60 N 0.42002(10) 0.52662(12) 0.61272(14)
C285 C 0.41720(12) 0.55180(13) 0.63949(13)
C286 C 0.37536(14) 0.55537(13) 0.62943(15)
H229 H 0.3647 0.5705 0.6425
C287 C 0.35232(10) 0.53240(13) 0.59645(14)
H230 H 0.3235 0.5294 0.5836
C288 C 0.3717(2) 0.4855(2) 0.5603(2)
H231 H 0.3483 0.4720 0.5595
H232 H 0.3956 0.4692 0.5718
C289 C 0.34280(6) 0.43681(5) 0.42782(6)
C290 C 0.31475(7) 0.43627(5) 0.38743(6)
H233 H 0.2979 0.4567 0.3754
C291 C 0.31132(8) 0.40589(6) 0.36463(6)
C292 C 0.33594(7) 0.37604(6) 0.38222(8)
H234 H 0.3336 0.3553 0.3666
C293 C 0.36400(6) 0.37657(6) 0.42262(9)
H235 H 0.3808 0.3562 0.4346
C294 C 0.36743(6) 0.40695(6) 0.44542(7)
H236 H 0.3866 0.4073 0.4730
C295 C 0.34808(7) 0.47000(5) 0.45354(6)
C296 C 0.35681(8) 0.46464(6) 0.49299(6)
H237 H 0.3592 0.4409 0.5031
C297 C 0.36205(10) 0.49409(7) 0.51760(8)
C298 C 0.35858(10) 0.52889(7) 0.50275(9)
H238 H 0.3622 0.5490 0.5196
C299 C 0.34986(9) 0.53424(5) 0.46329(9)
H239 H 0.3475 0.5580 0.4531
C300 C 0.34461(8) 0.50480(5) 0.43869(8)
H240 H 0.3387 0.5085 0.4117
N61 N 0.21899(7) 0.34981(7) 0.34328(9)
C301 C 0.24890(7) 0.35011(6) 0.38304(8)
C302 C 0.27705(9) 0.32212(5) 0.39802(8)
H241 H 0.2975 0.3223 0.4252
C303 C 0.27529(9) 0.29384(5) 0.37323(9)
H242 H 0.2945 0.2747 0.3835
C304 C 0.24538(9) 0.29355(6) 0.33348(9)
H243 H 0.2442 0.2742 0.3165
C305 C 0.21723(9) 0.32153(7) 0.31850(9)
H244 H 0.1968 0.3213 0.2913
N62 N 0.22074(13) 0.42930(10) 0.41751(13)
N63 N 0.21573(13) 0.40368(12) 0.38776(10)
C306 C 0.24830(15) 0.37850(11) 0.40503(13)
C307 C 0.27344(13) 0.38856(13) 0.44545(13)
H245 H 0.2974 0.3764 0.4641
C308 C 0.25640(15) 0.41995(12) 0.45317(11)
H246 H 0.2670 0.4325 0.4779
C309 C 0.1919(2) 0.4550(2) 0.4121(2)
H247 H 0.1920 0.4594 0.4378
H248 H 0.1646 0.4456 0.3931
N64 N 0.21791(11) 0.68538(12) 0.51492(13)
C310 C 0.24332(14) 0.69153(13) 0.49792(11)
C311 C 0.28413(13) 0.70035(14) 0.52203(15)
H249 H 0.3015 0.7046 0.5104
C312 C 0.29952(11) 0.70301(14) 0.56313(14)
H250 H 0.3274 0.7090 0.5796
C313 C 0.27411(15) 0.69686(14) 0.58013(11)
H251 H 0.2846 0.6987 0.6082
C314 C 0.23330(14) 0.68804(13) 0.55602(14)
H252 H 0.2159 0.6838 0.5676
N65 N 0.17076(11) 0.68532(13) 0.39472(12)
N66 N 0.18260(13) 0.68364(13) 0.43611(13)
C315 C 0.22550(14) 0.68900(15) 0.45763(11)
C316 C 0.24018(11) 0.69399(15) 0.42954(16)
H253 H 0.2678 0.6981 0.4357
C317 C 0.20634(15) 0.69172(15) 0.39066(12)
H254 H 0.2073 0.6941 0.3662
C318 C 0.1322(3) 0.6811(2) 0.3663(3)
H255 H 0.1284 0.6938 0.3419
H256 H 0.1137 0.6922 0.3752
C319 C 0.17218(6) 0.55029(6) 0.37058(6)
C320 C 0.16789(6) 0.51683(6) 0.38469(8)
H257 H 0.1438 0.5114 0.3866
C321 C 0.19880(6) 0.49131(5) 0.39606(9)
C322 C 0.23400(6) 0.49923(5) 0.39332(7)
H258 H 0.2551 0.4818 0.4011
C323 C 0.23829(6) 0.53269(6) 0.37922(6)
H259 H 0.2624 0.5381 0.3774
C324 C 0.20738(6) 0.55821(6) 0.36785(6)
H260 H 0.2103 0.5811 0.3582
C325 C 0.13907(6) 0.57829(6) 0.35949(7)
C326 C 0.15025(7) 0.61439(6) 0.36665(9)
H261 H 0.1783 0.6210 0.3787
C327 C 0.12042(7) 0.64085(6) 0.35619(10)
C328 C 0.07941(7) 0.63121(7) 0.33855(10)
H262 H 0.0590 0.6493 0.3314
C329 C 0.06823(6) 0.59512(8) 0.33138(8)
H263 H 0.0402 0.5885 0.3193
C330 C 0.09806(6) 0.56866(7) 0.34185(8)
H264 H 0.0904 0.5440 0.3369
N67 N 0.46715(6) 0.49308(9) 0.56930(9)
C331 C 0.46021(6) 0.51231(8) 0.53525(10)
C332 C 0.45414(6) 0.49408(9) 0.50091(10)
H265 H 0.4494 0.5072 0.4776
C333 C 0.45503(7) 0.45662(9) 0.50061(9)
H266 H 0.4509 0.4442 0.4771
C334 C 0.46198(7) 0.43739(8) 0.53466(10)
H267 H 0.4626 0.4118 0.5345
C335 C 0.46805(7) 0.45562(9) 0.56900(9)
H268 H 0.4728 0.4425 0.5923
N68 N 0.47228(15) 0.60236(10) 0.57317(13)
N69 N 0.46724(15) 0.56458(11) 0.57507(13)
C336 C 0.46240(17) 0.54911(9) 0.53889(15)
C337 C 0.46445(18) 0.57733(14) 0.51463(12)
H269 H 0.4621 0.5747 0.4888
C338 C 0.47055(17) 0.61024(10) 0.53581(15)
H270 H 0.4730 0.6335 0.5266
C339 C 0.4752(2) 0.6261(2) 0.6022(3)
H271 H 0.4863 0.6493 0.5985
H272 H 0.4947 0.6164 0.6287
N70 N 0.09577(11) 0.67266(12) 0.43469(14)
C340 C 0.08407(12) 0.63676(10) 0.42639(16)
C341 C 0.04357(14) 0.62808(10) 0.40074(17)
H273 H 0.0356 0.6035 0.3951
C342 C 0.01477(11) 0.65529(13) 0.38339(16)
H274 H -0.0129 0.6494 0.3659
C343 C 0.02646(12) 0.69120(11) 0.39169(17)
H275 H 0.0068 0.7098 0.3798
C344 C 0.06696(14) 0.69988(9) 0.41734(16)
H276 H 0.0750 0.7244 0.4230
N71 N 0.17776(10) 0.59188(11) 0.48741(13)
N72 N 0.15279(13) 0.62299(8) 0.47247(14)
C345 C 0.11343(11) 0.61166(11) 0.44320(15)
C346 C 0.11406(12) 0.57354(11) 0.44005(15)
H277 H 0.0918 0.5588 0.4227
C347 C 0.15382(14) 0.56132(8) 0.46737(15)
H278 H 0.1628 0.5370 0.4715
C348 C 0.2167(2) 0.5924(2) 0.5186(2)
H279 H 0.2221 0.5688 0.5322
H280 H 0.2178 0.6109 0.5379
C349 C 0.36192(7) 0.62713(6) 0.57025(7)
C350 C 0.39854(7) 0.62213(9) 0.56925(10)
H281 H 0.3986 0.6113 0.5466
C351 C 0.43511(7) 0.63294(11) 0.60142(11)
C352 C 0.43505(9) 0.64875(10) 0.63458(10)
H282 H 0.4600 0.6561 0.6566
C353 C 0.39843(10) 0.65374(11) 0.63557(9)
H283 H 0.3984 0.6645 0.6582
C354 C 0.36186(9) 0.64293(9) 0.60341(8)
H284 H 0.3368 0.6464 0.6041
C355 C 0.32122(7) 0.61722(6) 0.53417(7)
C356 C 0.28833(7) 0.60870(9) 0.54061(9)
H285 H 0.2915 0.6088 0.5670
C357 C 0.25075(7) 0.59999(11) 0.50853(10)
C358 C 0.24607(8) 0.59981(10) 0.46999(9)
H286 H 0.2204 0.5939 0.4481
C359 C 0.27897(10) 0.60833(11) 0.46354(7)
H287 H 0.2758 0.6082 0.4372
C360 C 0.31654(8) 0.61704(9) 0.49563(7)
H288 H 0.3390 0.6229 0.4912
B1 B 0.2580(3) 0.5163(3) 0.9639(3)
F1 F 0.22211(15) 0.51934(14) 0.92892(15)
F2 F 0.28632(14) 0.49900(13) 0.95547(14)
F3 F 0.25276(17) 0.49843(15) 0.99240(16)
F4 F 0.27207(14) 0.55167(12) 0.97770(14)
B2 B 0.1209(3) 0.6101(3) 0.9111(3)
F5 F 0.15370(15) 0.61278(14) 0.94944(15)
F6 F 0.12868(13) 0.58237(11) 0.89079(13)
F7 F 0.08628(16) 0.60178(14) 0.91382(16)
F8 F 0.11549(15) 0.64182(13) 0.89070(15)
B3 B 0.2271(3) 0.4082(3) 0.8624(3)
F9 F 0.26227(16) 0.42076(14) 0.86250(16)
F10 F 0.21580(15) 0.43234(13) 0.88331(15)
F11 F 0.23618(16) 0.37531(14) 0.88236(16)
F12 F 0.19647(17) 0.40413(15) 0.82419(16)
B4 B 0.2456(3) 0.4820(3) 0.5291(3)
F13 F 0.23307(15) 0.44738(13) 0.51566(14)
F14 F 0.27778(15) 0.48006(13) 0.56856(14)
F15 F 0.21471(16) 0.50119(15) 0.53202(16)
F16 F 0.25876(19) 0.49929(16) 0.50547(18)
B5 B 0.2616(3) 0.5907(3) 0.6275(3)
F17 F 0.25994(17) 0.62482(15) 0.61207(16)
F18 F 0.22256(17) 0.58120(15) 0.62025(17)
F19 F 0.28698(18) 0.59075(16) 0.66841(17)
F20 F 0.27466(17) 0.56547(15) 0.60857(17)
B6 B 0.3824(3) 0.3897(3) 0.5856(3)
F21 F 0.41767(16) 0.40267(14) 0.58663(17)
F22 F 0.35157(17) 0.38786(15) 0.54736(17)
F23 F 0.38921(17) 0.35679(15) 0.60473(17)
F24 F 0.37095(15) 0.41499(13) 0.60596(14)
B7 B 0.4928(3) 0.5254(3) 0.8661(3)
F25 F 0.46248(17) 0.50004(15) 0.85874(17)
F26 F 0.50895(18) 0.53819(16) 0.90491(17)
F27 F 0.52322(17) 0.50929(15) 0.86047(17)
F28 F 0.47656(16) 0.55381(13) 0.83973(15)
B8 B 0.0041(4) 0.4700(4) 0.6404(4)
F29 F 0.0222(2) 0.44162(17) 0.66551(19)
F30 F -0.0265(2) 0.4833(2) 0.6465(2)
F31 F 0.0329(2) 0.49646(19) 0.6495(2)
F32 F -0.0105(2) 0.4595(2) 0.6019(2)
B9 B 0.3523(4) 0.2546(4) 0.7140(4)
F33 F 0.3463(2) 0.29154(18) 0.7086(2)
F34 F 0.3164(2) 0.2378(2) 0.6866(2)
F35 F 0.3843(2) 0.2435(2) 0.7085(2)
F36 F 0.3584(2) 0.24487(19) 0.7519(2)
B10 B 0.4861(4) 0.7274(3) 0.5726(4)
F37 F 0.4864(2) 0.69548(17) 0.5543(2)
F38 F 0.45622(19) 0.74943(16) 0.54576(19)
F39 F 0.5231(2) 0.74381(18) 0.5865(2)
F40 F 0.4786(2) 0.72078(19) 0.6044(2)
B11 B 0.1590(3) 0.5868(3) 0.2326(3)
F41 F 0.15608(18) 0.61307(15) 0.20584(17)
F42 F 0.18329(16) 0.55910(14) 0.23202(16)
F43 F 0.12087(18) 0.57283(16) 0.22332(18)
F44 F 0.17402(19) 0.60205(16) 0.26965(18)
B12 B 0.3455(3) 0.4071(3) 0.2606(3)
F45 F 0.32101(16) 0.43527(14) 0.26100(16)
F46 F 0.38236(17) 0.42134(16) 0.26741(18)
F47 F 0.32745(19) 0.38957(16) 0.22469(18)
F48 F 0.35080(18) 0.38312(15) 0.29019(17)
O1 O 0.5000(2) 0.6822(2) 0.9839(2)
O2 O 0.4514(2) 0.6466(2) 0.9435(2)
N73 N 0.4637(3) 0.6738(2) 0.9640(2)
C361 C 0.4342(3) 0.6988(3) 0.9664(3)
H289 H 0.4277 0.6908 0.9873
H290 H 0.4092 0.6992 0.9407
H291 H 0.4461 0.7230 0.9727
O3 O 0.0209(4) 0.5769(4) 0.7012(4)
O4 O 0.0755(4) 0.5913(3) 0.6962(4)
N74 N 0.0379(4) 0.5894(2) 0.6813(3)
C362 C 0.0132(4) 0.6013(4) 0.6415(4)
H292 H 0.0171 0.6273 0.6398
H293 H -0.0156 0.5966 0.6336
H294 H 0.0209 0.5884 0.6236
O5 O 0.4638(3) 0.6578(3) 0.7981(3)
O6 O 0.4436(3) 0.6825(3) 0.7405(3)
N75 N 0.4609(2) 0.6832(3) 0.7773(3)
C363 C 0.4798(4) 0.7179(3) 0.7975(3)
H295 H 0.5087 0.7181 0.8043
H296 H 0.4772 0.7203 0.8219
H297 H 0.4658 0.7381 0.7795
O7 O 0.4201(3) 0.4152(3) 0.7951(3)
O8 O 0.4433(3) 0.4016(2) 0.7533(3)
N76 N 0.4488(3) 0.41321(18) 0.7876(3)
C364 C 0.4891(3) 0.4235(3) 0.8167(3)
H298 H 0.4884 0.4478 0.8264
H299 H 0.5072 0.4233 0.8045
H300 H 0.4993 0.4065 0.8390
O9 O 0.1233(3) 0.4378(3) 0.4420(3)
O10 O 0.0843(3) 0.4420(2) 0.3799(2)
N77 N 0.0900(3) 0.44564(17) 0.4144(3)
C365 C 0.0586(3) 0.4582(3) 0.4241(3)
H301 H 0.0645 0.4493 0.4506
H302 H 0.0319 0.4491 0.4042
H303 H 0.0582 0.4846 0.4241
O11 O 0.4402(2) 0.3500(2) 0.4054(2)
O12 O 0.4044(2) 0.30446(19) 0.4072(2)
N78 N 0.4185(2) 0.3237(2) 0.3900(2)
C366 C 0.4092(3) 0.3154(3) 0.3490(3)
H304 H 0.4073 0.3378 0.3346
H305 H 0.3832 0.3024 0.3357
H306 H 0.4310 0.3002 0.3492
O13 O 0.4372(2) 0.5525(2) 0.4174(2)
O14 O 0.4474(3) 0.5940(2) 0.3834(3)
N79 N 0.4304(2) 0.5824(3) 0.4024(2)
C367 C 0.4017(3) 0.6062(3) 0.4066(4)
H307 H 0.3975 0.5980 0.4289
H308 H 0.3756 0.6057 0.3819
H309 H 0.4125 0.6308 0.4117
O15 O 0.2769(2) 0.7094(2) 0.2669(2)
O16 O 0.26845(19) 0.65299(16) 0.25015(18)
N80 N 0.2594(2) 0.6801(2) 0.26302(16)
C368 C 0.2273(3) 0.6782(2) 0.2740(3)
H310 H 0.2035 0.6662 0.2527
H311 H 0.2198 0.7026 0.2780
H312 H 0.2368 0.6644 0.2989
O17 O 0.2035(3) 0.4637(2) 0.1559(3)
O18 O 0.1881(3) 0.4346(2) 0.1957(3)
N81 N 0.20625(19) 0.43797(19) 0.17622(19)
C369 C 0.2338(3) 0.4088(2) 0.1780(3)
H313 H 0.2427 0.4130 0.1578
H314 H 0.2195 0.3857 0.1729
H315 H 0.2577 0.4084 0.2046
O19 O 0.2201(3) 0.2910(3) 0.2286(3)
O20 O 0.2412(2) 0.34626(18) 0.2480(2)
N82 N 0.2440(3) 0.3165(3) 0.2342(2)
C370 C 0.2770(3) 0.3120(3) 0.2248(4)
H316 H 0.3026 0.3086 0.2495
H317 H 0.2791 0.3335 0.2109
H318 H 0.2717 0.2909 0.2076
O21 O 0.3788(3) 0.7596(3) 0.1544(3)
O22 O 0.4095(3) 0.7319(3) 0.2106(3)
N83 N 0.4097(3) 0.7481(2) 0.1827(3)
C371 C 0.4492(3) 0.7541(3) 0.1828(4)
H319 H 0.4497 0.7784 0.1729
H320 H 0.4526 0.7363 0.1654
H321 H 0.4716 0.7516 0.2101
O23 O 0.4628(2) 0.3129(2) 0.2941(2)
O24 O 0.4559(2) 0.3173(2) 0.2351(2)
N84 N 0.4437(2) 0.32053(14) 0.2592(2)
C372 C 0.4020(2) 0.3349(2) 0.2455(3)
H322 H 0.3854 0.3305 0.2168
H323 H 0.4034 0.3609 0.2507
H324 H 0.3894 0.3228 0.2599
loop_
_geom_bond_atom_site_label_1
_geom_bond_atom_site_label_2
_geom_bond_site_symmetry_1
_geom_bond_site_symmetry_2
Ni1 N1 1_555 1_555
Ni2 N4 1_555 1_555
Ni3 N10 1_555 1_555
Ni4 N16 1_555 1_555
N1 C1 1_555 1_555
C1 C2 1_555 1_555
C2 H1 1_555 1_555
C3 C2 1_555 1_555
H2 C3 1_555 1_555
C4 C3 1_555 1_555
H3 C4 1_555 1_555
C5 N1 1_555 1_555
H4 C5 1_555 1_555
N2 N3 1_555 1_555
N3 Ni1 1_555 1_555
C6 C1 1_555 1_555
C7 C6 1_555 1_555
H5 C7 1_555 1_555
C8 N2 1_555 1_555
H6 C8 1_555 1_555
C9 N2 1_555 1_555
H7 C9 1_555 1_555
H8 C9 1_555 1_555
N4 C10 1_555 1_555
C10 C11 1_555 1_555
C11 H9 1_555 1_555
C12 C11 1_555 1_555
H10 C12 1_555 1_555
C13 C12 1_555 1_555
H11 C13 1_555 1_555
C14 N4 1_555 1_555
H12 C14 1_555 1_555
N5 N6 1_555 1_555
N6 Ni2 1_555 1_555
C15 C10 1_555 1_555
C16 C15 1_555 1_555
H13 C16 1_555 1_555
C17 N5 1_555 1_555
H14 C17 1_555 1_555
C18 N5 1_555 1_555
H15 C18 1_555 1_555
H16 C18 1_555 1_555
C19 C20 1_555 1_555
C20 H17 1_555 1_555
C21 C9 1_555 1_555
C22 C21 1_555 1_555
H18 C22 1_555 1_555
C23 C22 1_555 1_555
H19 C23 1_555 1_555
C24 C19 1_555 1_555
H20 C24 1_555 1_555
C25 C19 1_555 1_555
C26 C25 1_555 1_555
H21 C26 1_555 1_555
C27 C18 1_555 1_555
C28 C27 1_555 1_555
H22 C28 1_555 1_555
C29 C28 1_555 1_555
H23 C29 1_555 1_555
C30 C25 1_555 1_555
H24 C30 1_555 1_555
N7 Ni1 1_555 1_555
C31 N7 1_555 1_555
C32 C31 1_555 1_555
H25 C32 1_555 1_555
C33 C32 1_555 1_555
H26 C33 1_555 1_555
C34 C33 1_555 1_555
H27 C34 1_555 1_555
C35 N7 1_555 1_555
H28 C35 1_555 1_555
N8 N9 1_555 1_555
N9 Ni1 1_555 1_555
C36 C31 1_555 1_555
C37 C36 1_555 1_555
H29 C37 1_555 1_555
C38 N8 1_555 1_555
H30 C38 1_555 1_555
C39 N8 1_555 1_555
H31 C39 1_555 1_555
H32 C39 1_555 1_555
N10 C40 1_555 1_555
C40 C41 1_555 1_555
C41 H33 1_555 1_555
C42 C41 1_555 1_555
H34 C42 1_555 1_555
C43 C42 1_555 1_555
H35 C43 1_555 1_555
C44 N10 1_555 1_555
H36 C44 1_555 1_555
N11 N12 1_555 1_555
N12 Ni3 1_555 1_555
C45 C40 1_555 1_555
C46 C45 1_555 1_555
H37 C46 1_555 1_555
C47 N11 1_555 1_555
H38 C47 1_555 1_555
C48 N11 1_555 1_555
H39 C48 1_555 1_555
H40 C48 1_555 1_555
C49 C50 1_555 1_555
C50 H41 1_555 1_555
C51 C39 1_555 1_555
C52 C51 1_555 1_555
H42 C52 1_555 1_555
C53 C52 1_555 1_555
H43 C53 1_555 1_555
C54 C49 1_555 1_555
H44 C54 1_555 1_555
C55 C49 1_555 1_555
C56 C55 1_555 1_555
H45 C56 1_555 1_555
C57 C48 1_555 1_555
C58 C57 1_555 1_555
H46 C58 1_555 1_555
C59 C58 1_555 1_555
H47 C59 1_555 1_555
C60 C55 1_555 1_555
H48 C60 1_555 1_555
N13 Ni1 1_555 1_555
C61 N13 1_555 1_555
C62 C61 1_555 1_555
H49 C62 1_555 1_555
C63 C62 1_555 1_555
H50 C63 1_555 1_555
C64 C63 1_555 1_555
H51 C64 1_555 1_555
C65 N13 1_555 1_555
H52 C65 1_555 1_555
N14 N15 1_555 1_555
N15 Ni1 1_555 1_555
C66 C61 1_555 1_555
C67 C66 1_555 1_555
H53 C67 1_555 1_555
C68 N14 1_555 1_555
H54 C68 1_555 1_555
C69 N14 1_555 1_555
H55 C69 1_555 1_555
H56 C69 1_555 1_555
N16 C70 1_555 1_555
C70 C71 1_555 1_555
C71 H57 1_555 1_555
C72 C71 1_555 1_555
H58 C72 1_555 1_555
C73 C72 1_555 1_555
H59 C73 1_555 1_555
C74 N16 1_555 1_555
H60 C74 1_555 1_555
N17 N18 1_555 1_555
N18 Ni4 1_555 1_555
C75 C70 1_555 1_555
C76 C75 1_555 1_555
H61 C76 1_555 1_555
C77 N17 1_555 1_555
H62 C77 1_555 1_555
C78 N17 1_555 1_555
H63 C78 1_555 1_555
H64 C78 1_555 1_555
C79 C80 1_555 1_555
C80 H65 1_555 1_555
C81 C69 1_555 1_555
C82 C81 1_555 1_555
H66 C82 1_555 1_555
C83 C82 1_555 1_555
H67 C83 1_555 1_555
C84 C79 1_555 1_555
H68 C84 1_555 1_555
C85 C79 1_555 1_555
C86 C85 1_555 1_555
H69 C86 1_555 1_555
C87 C78 1_555 1_555
C88 C87 1_555 1_555
H70 C88 1_555 1_555
C89 C88 1_555 1_555
H71 C89 1_555 1_555
C90 C85 1_555 1_555
H72 C90 1_555 1_555
N19 Ni2 1_555 1_555
C91 N19 1_555 1_555
C92 C91 1_555 1_555
H73 C92 1_555 1_555
C93 C92 1_555 1_555
H74 C93 1_555 1_555
C94 C93 1_555 1_555
H75 C94 1_555 1_555
C95 N19 1_555 1_555
H76 C95 1_555 1_555
N20 N21 1_555 1_555
N21 Ni2 1_555 1_555
C96 C91 1_555 1_555
C97 C96 1_555 1_555
H77 C97 1_555 1_555
C98 N20 1_555 1_555
H78 C98 1_555 1_555
C99 N20 1_555 1_555
H79 C99 1_555 1_555
H80 C99 1_555 1_555
N22 Ni3 1_555 1_555
C100 N22 1_555 1_555
C101 C100 1_555 1_555
H81 C101 1_555 1_555
C102 C101 1_555 1_555
H82 C102 1_555 1_555
C103 C102 1_555 1_555
H83 C103 1_555 1_555
C104 N22 1_555 1_555
H84 C104 1_555 1_555
N23 N24 1_555 1_555
N24 Ni3 1_555 1_555
C105 C100 1_555 1_555
C106 C105 1_555 1_555
H85 C106 1_555 1_555
C107 N23 1_555 1_555
H86 C107 1_555 1_555
C108 N23 1_555 1_555
H87 C108 1_555 1_555
H88 C108 1_555 1_555
C109 C110 1_555 1_555
C110 H89 1_555 1_555
C111 C99 1_555 1_555
C112 C111 1_555 1_555
H90 C112 1_555 1_555
C113 C112 1_555 1_555
H91 C113 1_555 1_555
C114 C109 1_555 1_555
H92 C114 1_555 1_555
C115 C109 1_555 1_555
C116 C115 1_555 1_555
H93 C116 1_555 1_555
C117 C108 1_555 1_555
C118 C117 1_555 1_555
H94 C118 1_555 1_555
C119 C118 1_555 1_555
H95 C119 1_555 1_555
C120 C115 1_555 1_555
H96 C120 1_555 1_555
N25 Ni2 1_555 1_555
C121 N25 1_555 1_555
C122 C121 1_555 1_555
H97 C122 1_555 1_555
C123 C122 1_555 1_555
H98 C123 1_555 1_555
C124 C123 1_555 1_555
H99 C124 1_555 1_555
C125 N25 1_555 1_555
H100 C125 1_555 1_555
N26 N27 1_555 1_555
N27 Ni2 1_555 1_555
C126 C121 1_555 1_555
C127 C126 1_555 1_555
H101 C127 1_555 1_555
C128 N26 1_555 1_555
H102 C128 1_555 1_555
C129 N26 1_555 1_555
H103 C129 1_555 1_555
H104 C129 1_555 1_555
N28 Ni4 1_555 1_555
C130 N28 1_555 1_555
C131 C130 1_555 1_555
H105 C131 1_555 1_555
C132 C131 1_555 1_555
H106 C132 1_555 1_555
C133 C132 1_555 1_555
H107 C133 1_555 1_555
C134 N28 1_555 1_555
H108 C134 1_555 1_555
N29 N30 1_555 1_555
N30 Ni4 1_555 1_555
C135 C130 1_555 1_555
C136 C135 1_555 1_555
H109 C136 1_555 1_555
C137 N29 1_555 1_555
H110 C137 1_555 1_555
C138 N29 1_555 1_555
H111 C138 1_555 1_555
H112 C138 1_555 1_555
C139 C140 1_555 1_555
C140 H113 1_555 1_555
C141 C129 1_555 1_555
C142 C141 1_555 1_555
H114 C142 1_555 1_555
C143 C142 1_555 1_555
H115 C143 1_555 1_555
C144 C139 1_555 1_555
H116 C144 1_555 1_555
C145 C139 1_555 1_555
C146 C145 1_555 1_555
H117 C146 1_555 1_555
C147 C138 1_555 1_555
C148 C147 1_555 1_555
H118 C148 1_555 1_555
C149 C148 1_555 1_555
H119 C149 1_555 1_555
C150 C145 1_555 1_555
H120 C150 1_555 1_555
N31 Ni3 1_555 1_555
C151 N31 1_555 1_555
C152 C151 1_555 1_555
H121 C152 1_555 1_555
C153 C152 1_555 1_555
H122 C153 1_555 1_555
C154 C153 1_555 1_555
H123 C154 1_555 1_555
C155 N31 1_555 1_555
H124 C155 1_555 1_555
N32 N33 1_555 1_555
N33 Ni3 1_555 1_555
C156 C151 1_555 1_555
C157 C156 1_555 1_555
H125 C157 1_555 1_555
C158 N32 1_555 1_555
H126 C158 1_555 1_555
C159 N32 1_555 1_555
H127 C159 1_555 1_555
H128 C159 1_555 1_555
N34 Ni4 1_555 1_555
C160 N34 1_555 1_555
C161 C160 1_555 1_555
H129 C161 1_555 1_555
C162 C161 1_555 1_555
H130 C162 1_555 1_555
C163 C162 1_555 1_555
H131 C163 1_555 1_555
C164 N34 1_555 1_555
H132 C164 1_555 1_555
N35 N36 1_555 1_555
N36 Ni4 1_555 1_555
C165 C160 1_555 1_555
C166 C165 1_555 1_555
H133 C166 1_555 1_555
C167 N35 1_555 1_555
H134 C167 1_555 1_555
C168 N35 1_555 1_555
H135 C168 1_555 1_555
H136 C168 1_555 1_555
C169 C170 1_555 1_555
C170 H137 1_555 1_555
C171 C159 1_555 1_555
C172 C171 1_555 1_555
H138 C172 1_555 1_555
C173 C172 1_555 1_555
H139 C173 1_555 1_555
C174 C169 1_555 1_555
H140 C174 1_555 1_555
C175 C169 1_555 1_555
C176 C175 1_555 1_555
H141 C176 1_555 1_555
C177 C168 1_555 1_555
C178 C177 1_555 1_555
H142 C178 1_555 1_555
C179 C178 1_555 1_555
H143 C179 1_555 1_555
C180 C175 1_555 1_555
H144 C180 1_555 1_555
Ni5 N37 1_555 1_555
Ni6 N40 1_555 1_555
Ni7 N46 1_555 1_555
Ni8 N52 1_555 1_555
N37 C181 1_555 1_555
C181 C182 1_555 1_555
C182 H145 1_555 1_555
C183 C182 1_555 1_555
H146 C183 1_555 1_555
C184 C183 1_555 1_555
H147 C184 1_555 1_555
C185 N37 1_555 1_555
H148 C185 1_555 1_555
N38 N39 1_555 1_555
N39 Ni5 1_555 1_555
C186 C181 1_555 1_555
C187 C186 1_555 1_555
H149 C187 1_555 1_555
C188 N38 1_555 1_555
H150 C188 1_555 1_555
C189 N38 1_555 1_555
H151 C189 1_555 1_555
H152 C189 1_555 1_555
N40 C190 1_555 1_555
C190 C191 1_555 1_555
C191 H153 1_555 1_555
C192 C191 1_555 1_555
H154 C192 1_555 1_555
C193 C192 1_555 1_555
H155 C193 1_555 1_555
C194 N40 1_555 1_555
H156 C194 1_555 1_555
N41 N42 1_555 1_555
N42 Ni6 1_555 1_555
C195 C190 1_555 1_555
C196 C195 1_555 1_555
H157 C196 1_555 1_555
C197 N41 1_555 1_555
H158 C197 1_555 1_555
C198 N41 1_555 1_555
H159 C198 1_555 1_555
H160 C198 1_555 1_555
C199 C200 1_555 1_555
C200 H161 1_555 1_555
C201 C189 1_555 1_555
C202 C201 1_555 1_555
H162 C202 1_555 1_555
C203 C202 1_555 1_555
H163 C203 1_555 1_555
C204 C199 1_555 1_555
H164 C204 1_555 1_555
C205 C199 1_555 1_555
C206 C205 1_555 1_555
H165 C206 1_555 1_555
C207 C198 1_555 1_555
C208 C207 1_555 1_555
H166 C208 1_555 1_555
C209 C208 1_555 1_555
H167 C209 1_555 1_555
C210 C205 1_555 1_555
H168 C210 1_555 1_555
N43 Ni5 1_555 1_555
C211 N43 1_555 1_555
C212 C211 1_555 1_555
H169 C212 1_555 1_555
C213 C212 1_555 1_555
H170 C213 1_555 1_555
C214 C213 1_555 1_555
H171 C214 1_555 1_555
C215 N43 1_555 1_555
H172 C215 1_555 1_555
N44 N45 1_555 1_555
N45 Ni5 1_555 1_555
C216 C211 1_555 1_555
C217 C216 1_555 1_555
H173 C217 1_555 1_555
C218 N44 1_555 1_555
H174 C218 1_555 1_555
C219 N44 1_555 1_555
H175 C219 1_555 1_555
H176 C219 1_555 1_555
N46 C220 1_555 1_555
C220 C221 1_555 1_555
C221 H177 1_555 1_555
C222 C221 1_555 1_555
H178 C222 1_555 1_555
C223 C222 1_555 1_555
H179 C223 1_555 1_555
C224 N46 1_555 1_555
H180 C224 1_555 1_555
N47 N48 1_555 1_555
N48 Ni7 1_555 1_555
C225 C220 1_555 1_555
C226 C225 1_555 1_555
H181 C226 1_555 1_555
C227 N47 1_555 1_555
H182 C227 1_555 1_555
C228 N47 1_555 1_555
H183 C228 1_555 1_555
H184 C228 1_555 1_555
C229 C230 1_555 1_555
C230 H185 1_555 1_555
C231 C219 1_555 1_555
C232 C231 1_555 1_555
H186 C232 1_555 1_555
C233 C232 1_555 1_555
H187 C233 1_555 1_555
C234 C229 1_555 1_555
H188 C234 1_555 1_555
C235 C229 1_555 1_555
C236 C235 1_555 1_555
H189 C236 1_555 1_555
C237 C228 1_555 1_555
C238 C237 1_555 1_555
H190 C238 1_555 1_555
C239 C238 1_555 1_555
H191 C239 1_555 1_555
C240 C235 1_555 1_555
H192 C240 1_555 1_555
N49 Ni5 1_555 1_555
C241 N49 1_555 1_555
C242 C241 1_555 1_555
H193 C242 1_555 1_555
C243 C242 1_555 1_555
H194 C243 1_555 1_555
C244 C243 1_555 1_555
H195 C244 1_555 1_555
C245 N49 1_555 1_555
H196 C245 1_555 1_555
N50 N51 1_555 1_555
N51 Ni5 1_555 1_555
C246 C241 1_555 1_555
C247 C246 1_555 1_555
H197 C247 1_555 1_555
C248 N50 1_555 1_555
H198 C248 1_555 1_555
C249 N50 1_555 1_555
H199 C249 1_555 1_555
H200 C249 1_555 1_555
N52 C250 1_555 1_555
C250 C251 1_555 1_555
C251 H201 1_555 1_555
C252 C251 1_555 1_555
H202 C252 1_555 1_555
C253 C252 1_555 1_555
H203 C253 1_555 1_555
C254 N52 1_555 1_555
H204 C254 1_555 1_555
N53 N54 1_555 1_555
N54 Ni8 1_555 1_555
C255 C250 1_555 1_555
C256 C255 1_555 1_555
H205 C256 1_555 1_555
C257 N53 1_555 1_555
H206 C257 1_555 1_555
C258 N53 1_555 1_555
H207 C258 1_555 1_555
H208 C258 1_555 1_555
C259 C260 1_555 1_555
C260 H209 1_555 1_555
C261 C249 1_555 1_555
C262 C261 1_555 1_555
H210 C262 1_555 1_555
C263 C262 1_555 1_555
H211 C263 1_555 1_555
C264 C259 1_555 1_555
H212 C264 1_555 1_555
C265 C259 1_555 1_555
C266 C265 1_555 1_555
H213 C266 1_555 1_555
C267 C258 1_555 1_555
C268 C267 1_555 1_555
H214 C268 1_555 1_555
C269 C268 1_555 1_555
H215 C269 1_555 1_555
C270 C265 1_555 1_555
H216 C270 1_555 1_555
N55 Ni6 1_555 1_555
C271 N55 1_555 1_555
C272 C271 1_555 1_555
H217 C272 1_555 1_555
C273 C272 1_555 1_555
H218 C273 1_555 1_555
C274 C273 1_555 1_555
H219 C274 1_555 1_555
C275 N55 1_555 1_555
H220 C275 1_555 1_555
N56 N57 1_555 1_555
N57 Ni6 1_555 1_555
C276 C271 1_555 1_555
C277 C276 1_555 1_555
H221 C277 1_555 1_555
C278 N56 1_555 1_555
H222 C278 1_555 1_555
C279 N56 1_555 1_555
H223 C279 1_555 1_555
H224 C279 1_555 1_555
N58 Ni7 1_555 1_555
C280 N58 1_555 1_555
C281 C280 1_555 1_555
H225 C281 1_555 1_555
C282 C281 1_555 1_555
H226 C282 1_555 1_555
C283 C282 1_555 1_555
H227 C283 1_555 1_555
C284 N58 1_555 1_555
H228 C284 1_555 1_555
N59 N60 1_555 1_555
N60 Ni7 1_555 1_555
C285 C280 1_555 1_555
C286 C285 1_555 1_555
H229 C286 1_555 1_555
C287 N59 1_555 1_555
H230 C287 1_555 1_555
C288 N59 1_555 1_555
H231 C288 1_555 1_555
H232 C288 1_555 1_555
C289 C290 1_555 1_555
C290 H233 1_555 1_555
C291 C279 1_555 1_555
C292 C291 1_555 1_555
H234 C292 1_555 1_555
C293 C292 1_555 1_555
H235 C293 1_555 1_555
C294 C289 1_555 1_555
H236 C294 1_555 1_555
C295 C289 1_555 1_555
C296 C295 1_555 1_555
H237 C296 1_555 1_555
C297 C288 1_555 1_555
C298 C297 1_555 1_555
H238 C298 1_555 1_555
C299 C298 1_555 1_555
H239 C299 1_555 1_555
C300 C295 1_555 1_555
H240 C300 1_555 1_555
N61 Ni6 1_555 1_555
C301 N61 1_555 1_555
C302 C301 1_555 1_555
H241 C302 1_555 1_555
C303 C302 1_555 1_555
H242 C303 1_555 1_555
C304 C303 1_555 1_555
H243 C304 1_555 1_555
C305 N61 1_555 1_555
H244 C305 1_555 1_555
N62 N63 1_555 1_555
N63 Ni6 1_555 1_555
C306 C301 1_555 1_555
C307 C306 1_555 1_555
H245 C307 1_555 1_555
C308 N62 1_555 1_555
H246 C308 1_555 1_555
C309 N62 1_555 1_555
H247 C309 1_555 1_555
H248 C309 1_555 1_555
N64 Ni8 1_555 1_555
C310 N64 1_555 1_555
C311 C310 1_555 1_555
H249 C311 1_555 1_555
C312 C311 1_555 1_555
H250 C312 1_555 1_555
C313 C312 1_555 1_555
H251 C313 1_555 1_555
C314 N64 1_555 1_555
H252 C314 1_555 1_555
N65 N66 1_555 1_555
N66 Ni8 1_555 1_555
C315 C310 1_555 1_555
C316 C315 1_555 1_555
H253 C316 1_555 1_555
C317 N65 1_555 1_555
H254 C317 1_555 1_555
C318 N65 1_555 1_555
H255 C318 1_555 1_555
H256 C318 1_555 1_555
C319 C320 1_555 1_555
C320 H257 1_555 1_555
C321 C309 1_555 1_555
C322 C321 1_555 1_555
H258 C322 1_555 1_555
C323 C322 1_555 1_555
H259 C323 1_555 1_555
C324 C319 1_555 1_555
H260 C324 1_555 1_555
C325 C319 1_555 1_555
C326 C325 1_555 1_555
H261 C326 1_555 1_555
C327 C318 1_555 1_555
C328 C327 1_555 1_555
H262 C328 1_555 1_555
C329 C328 1_555 1_555
H263 C329 1_555 1_555
C330 C325 1_555 1_555
H264 C330 1_555 1_555
N67 Ni7 1_555 1_555
C331 N67 1_555 1_555
C332 C331 1_555 1_555
H265 C332 1_555 1_555
C333 C332 1_555 1_555
H266 C333 1_555 1_555
C334 C333 1_555 1_555
H267 C334 1_555 1_555
C335 N67 1_555 1_555
H268 C335 1_555 1_555
N68 N69 1_555 1_555
N69 Ni7 1_555 1_555
C336 C331 1_555 1_555
C337 C336 1_555 1_555
H269 C337 1_555 1_555
C338 N68 1_555 1_555
H270 C338 1_555 1_555
C339 N68 1_555 1_555
H271 C339 1_555 1_555
H272 C339 1_555 1_555
N70 Ni8 1_555 1_555
C340 N70 1_555 1_555
C341 C340 1_555 1_555
H273 C341 1_555 1_555
C342 C341 1_555 1_555
H274 C342 1_555 1_555
C343 C342 1_555 1_555
H275 C343 1_555 1_555
C344 N70 1_555 1_555
H276 C344 1_555 1_555
N71 N72 1_555 1_555
N72 Ni8 1_555 1_555
C345 C340 1_555 1_555
C346 C345 1_555 1_555
H277 C346 1_555 1_555
C347 N71 1_555 1_555
H278 C347 1_555 1_555
C348 N71 1_555 1_555
H279 C348 1_555 1_555
H280 C348 1_555 1_555
C349 C350 1_555 1_555
C350 H281 1_555 1_555
C351 C339 1_555 1_555
C352 C351 1_555 1_555
H282 C352 1_555 1_555
C353 C352 1_555 1_555
H283 C353 1_555 1_555
C354 C349 1_555 1_555
H284 C354 1_555 1_555
C355 C349 1_555 1_555
C356 C355 1_555 1_555
H285 C356 1_555 1_555
C357 C348 1_555 1_555
C358 C357 1_555 1_555
H286 C358 1_555 1_555
C359 C358 1_555 1_555
H287 C359 1_555 1_555
C360 C355 1_555 1_555
H288 C360 1_555 1_555
B1 F1 1_555 1_555
F2 B1 1_555 1_555
F3 B1 1_555 1_555
F4 B1 1_555 1_555
B2 F5 1_555 1_555
F6 B2 1_555 1_555
F7 B2 1_555 1_555
F8 B2 1_555 1_555
B3 F9 1_555 1_555
F10 B3 1_555 1_555
F11 B3 1_555 1_555
F12 B3 1_555 1_555
B4 F13 1_555 1_555
F14 B4 1_555 1_555
F15 B4 1_555 1_555
F16 B4 1_555 1_555
B5 F17 1_555 1_555
F18 B5 1_555 1_555
F19 B5 1_555 1_555
F20 B5 1_555 1_555
B6 F21 1_555 1_555
F22 B6 1_555 1_555
F23 B6 1_555 1_555
F24 B6 1_555 1_555
B7 F25 1_555 1_555
F26 B7 1_555 1_555
F27 B7 1_555 1_555
F28 B7 1_555 1_555
B8 F29 1_555 1_555
F30 B8 1_555 1_555
F31 B8 1_555 1_555
F32 B8 1_555 1_555
B9 F33 1_555 1_555
F34 B9 1_555 1_555
F35 B9 1_555 1_555
F36 B9 1_555 1_555
B10 F37 1_555 1_555
F38 B10 1_555 1_555
F39 B10 1_555 1_555
F40 B10 1_555 1_555
B11 F41 1_555 1_555
F42 B11 1_555 1_555
F43 B11 1_555 1_555
F44 B11 1_555 1_555
B12 F45 1_555 1_555
F46 B12 1_555 1_555
F47 B12 1_555 1_555
F48 B12 1_555 1_555
O1 N73 1_555 1_555
O2 N73 1_555 1_555
N73 C361 1_555 1_555
C361 H289 1_555 1_555
H290 C361 1_555 1_555
H291 C361 1_555 1_555
O3 N74 1_555 1_555
O4 N74 1_555 1_555
N74 C362 1_555 1_555
C362 H292 1_555 1_555
H293 C362 1_555 1_555
H294 C362 1_555 1_555
O5 N75 1_555 1_555
O6 N75 1_555 1_555
N75 C363 1_555 1_555
C363 H295 1_555 1_555
H296 C363 1_555 1_555
H297 C363 1_555 1_555
O7 N76 1_555 1_555
O8 N76 1_555 1_555
N76 C364 1_555 1_555
C364 H298 1_555 1_555
H299 C364 1_555 1_555
H300 C364 1_555 1_555
O9 N77 1_555 1_555
O10 N77 1_555 1_555
N77 C365 1_555 1_555
C365 H301 1_555 1_555
H302 C365 1_555 1_555
H303 C365 1_555 1_555
O11 N78 1_555 1_555
O12 N78 1_555 1_555
N78 C366 1_555 1_555
C366 H304 1_555 1_555
H305 C366 1_555 1_555
H306 C366 1_555 1_555
O13 N79 1_555 1_555
O14 N79 1_555 1_555
N79 C367 1_555 1_555
C367 H307 1_555 1_555
H308 C367 1_555 1_555
H309 C367 1_555 1_555
O15 N80 1_555 1_555
O16 N80 1_555 1_555
N80 C368 1_555 1_555
C368 H310 1_555 1_555
H311 C368 1_555 1_555
H312 C368 1_555 1_555
O17 N81 1_555 1_555
O18 N81 1_555 1_555
N81 C369 1_555 1_555
C369 H313 1_555 1_555
H314 C369 1_555 1_555
H315 C369 1_555 1_555
O19 N82 1_555 1_555
O20 N82 1_555 1_555
N82 C370 1_555 1_555
C370 H316 1_555 1_555
H317 C370 1_555 1_555
H318 C370 1_555 1_555
O21 N83 1_555 1_555
O22 N83 1_555 1_555
N83 C371 1_555 1_555
C371 H319 1_555 1_555
H320 C371 1_555 1_555
H321 C371 1_555 1_555
O23 N84 1_555 1_555
O24 N84 1_555 1_555
N84 C372 1_555 1_555
C372 H322 1_555 1_555
H323 C372 1_555 1_555
H324 C372 1_555 1_555
C4 C5 1_555 1_555
N3 C6 1_555 1_555
C7 C8 1_555 1_555
C13 C14 1_555 1_555
N6 C15 1_555 1_555
C16 C17 1_555 1_555
C20 C21 1_555 1_555
C23 C24 1_555 1_555
C26 C27 1_555 1_555
C29 C30 1_555 1_555
C34 C35 1_555 1_555
N9 C36 1_555 1_555
C37 C38 1_555 1_555
C43 C44 1_555 1_555
N12 C45 1_555 1_555
C46 C47 1_555 1_555
C50 C51 1_555 1_555
C53 C54 1_555 1_555
C56 C57 1_555 1_555
C59 C60 1_555 1_555
C64 C65 1_555 1_555
N15 C66 1_555 1_555
C67 C68 1_555 1_555
C73 C74 1_555 1_555
N18 C75 1_555 1_555
C76 C77 1_555 1_555
C80 C81 1_555 1_555
C83 C84 1_555 1_555
C86 C87 1_555 1_555
C89 C90 1_555 1_555
C94 C95 1_555 1_555
N21 C96 1_555 1_555
C97 C98 1_555 1_555
C103 C104 1_555 1_555
N24 C105 1_555 1_555
C106 C107 1_555 1_555
C110 C111 1_555 1_555
C113 C114 1_555 1_555
C116 C117 1_555 1_555
C119 C120 1_555 1_555
C124 C125 1_555 1_555
N27 C126 1_555 1_555
C127 C128 1_555 1_555
C133 C134 1_555 1_555
N30 C135 1_555 1_555
C136 C137 1_555 1_555
C140 C141 1_555 1_555
C143 C144 1_555 1_555
C146 C147 1_555 1_555
C149 C150 1_555 1_555
C154 C155 1_555 1_555
N33 C156 1_555 1_555
C157 C158 1_555 1_555
C163 C164 1_555 1_555
N36 C165 1_555 1_555
C166 C167 1_555 1_555
C170 C171 1_555 1_555
C173 C174 1_555 1_555
C176 C177 1_555 1_555
C179 C180 1_555 1_555
C184 C185 1_555 1_555
N39 C186 1_555 1_555
C187 C188 1_555 1_555
C193 C194 1_555 1_555
N42 C195 1_555 1_555
C196 C197 1_555 1_555
C200 C201 1_555 1_555
C203 C204 1_555 1_555
C206 C207 1_555 1_555
C209 C210 1_555 1_555
C214 C215 1_555 1_555
N45 C216 1_555 1_555
C217 C218 1_555 1_555
C223 C224 1_555 1_555
N48 C225 1_555 1_555
C226 C227 1_555 1_555
C230 C231 1_555 1_555
C233 C234 1_555 1_555
C236 C237 1_555 1_555
C239 C240 1_555 1_555
C244 C245 1_555 1_555
N51 C246 1_555 1_555
C247 C248 1_555 1_555
C253 C254 1_555 1_555
N54 C255 1_555 1_555
C256 C257 1_555 1_555
C260 C261 1_555 1_555
C263 C264 1_555 1_555
C266 C267 1_555 1_555
C269 C270 1_555 1_555
C274 C275 1_555 1_555
N57 C276 1_555 1_555
C277 C278 1_555 1_555
C283 C284 1_555 1_555
N60 C285 1_555 1_555
C286 C287 1_555 1_555
C290 C291 1_555 1_555
C293 C294 1_555 1_555
C296 C297 1_555 1_555
C299 C300 1_555 1_555
C304 C305 1_555 1_555
N63 C306 1_555 1_555
C307 C308 1_555 1_555
C313 C314 1_555 1_555
N66 C315 1_555 1_555
C316 C317 1_555 1_555
C320 C321 1_555 1_555
C323 C324 1_555 1_555
C326 C327 1_555 1_555
C329 C330 1_555 1_555
C334 C335 1_555 1_555
N69 C336 1_555 1_555
C337 C338 1_555 1_555
C343 C344 1_555 1_555
N72 C345 1_555 1_555
C346 C347 1_555 1_555
C350 C351 1_555 1_555
C353 C354 1_555 1_555
C356 C357 1_555 1_555
C359 C360 1_555 1_555

#END
