# generated using pymatgen
data_Ni2B3H81C93N21(OF2)6
_symmetry_space_group_name_H-M   'P 1'
_cell_length_a   37.08890000
_cell_length_b   37.11590000
_cell_length_c   37.97400000
_cell_angle_alpha   118.11900000
_cell_angle_beta   90.00000000
_cell_angle_gamma   90.00000000
_symmetry_Int_Tables_number   1
_chemical_formula_structural   Ni2B3H81C93N21(OF2)6
_chemical_formula_sum   'Ni32 B48 H1296 C1488 N336 O96 F192'
_cell_volume   46104.61664640
_cell_formula_units_Z   16
loop_
 _symmetry_equiv_pos_site_id
 _symmetry_equiv_pos_as_xyz
  1  'x, y, z'
loop_
 _atom_site_type_symbol
 _atom_site_label
 _atom_site_symmetry_multiplicity
 _atom_site_fract_x
 _atom_site_fract_y
 _atom_site_fract_z
 _atom_site_occupancy
  Ni  Ni1  1  0.397340  0.720600  0.157290  1
  Ni  Ni2  1  0.897340  0.279400  0.342710  1
  Ni  Ni3  1  0.602660  0.279400  0.842710  1
  Ni  Ni4  1  0.102660  0.720600  0.657290  1
  Ni  Ni5  1  0.399180  0.673380  0.831160  1
  Ni  Ni6  1  0.899180  0.326620  0.668840  1
  Ni  Ni7  1  0.600820  0.326620  0.168840  1
  Ni  Ni8  1  0.100820  0.673380  0.331160  1
  Ni  Ni9  1  0.678900  0.655880  0.981450  1
  Ni  Ni10  1  0.178900  0.344120  0.518550  1
  Ni  Ni11  1  0.321100  0.344120  0.018550  1
  Ni  Ni12  1  0.821100  0.655880  0.481450  1
  Ni  Ni13  1  0.520670  0.980680  0.113560  1
  Ni  Ni14  1  0.020670  0.019320  0.386440  1
  Ni  Ni15  1  0.479330  0.019320  0.886440  1
  Ni  Ni16  1  0.979330  0.980680  0.613560  1
  Ni  Ni17  1  0.604080  0.789060  0.357940  1
  Ni  Ni18  1  0.104080  0.210940  0.142060  1
  Ni  Ni19  1  0.395920  0.210940  0.642060  1
  Ni  Ni20  1  0.895920  0.789060  0.857940  1
  Ni  Ni21  1  0.604970  0.819820  0.673390  1
  Ni  Ni22  1  0.104970  0.180180  0.826610  1
  Ni  Ni23  1  0.395030  0.180180  0.326610  1
  Ni  Ni24  1  0.895030  0.819820  0.173390  1
  Ni  Ni25  1  0.475250  0.520520  0.381290  1
  Ni  Ni26  1  0.975250  0.479480  0.118710  1
  Ni  Ni27  1  0.524750  0.479480  0.618710  1
  Ni  Ni28  1  0.024750  0.520520  0.881290  1
  Ni  Ni29  1  0.320320  0.842630  0.524420  1
  Ni  Ni30  1  0.820320  0.157370  0.975580  1
  Ni  Ni31  1  0.679680  0.157370  0.475580  1
  Ni  Ni32  1  0.179680  0.842630  0.024420  1
  B  B33  1  0.483700  0.742000  0.036100  1
  B  B34  1  0.983700  0.258000  0.463900  1
  B  B35  1  0.516300  0.258000  0.963900  1
  B  B36  1  0.016300  0.742000  0.536100  1
  B  B37  1  0.389900  0.879100  0.088900  1
  B  B38  1  0.889900  0.120900  0.411100  1
  B  B39  1  0.610100  0.120900  0.911100  1
  B  B40  1  0.110100  0.879100  0.588900  1
  B  B41  1  0.591800  0.772900  0.137600  1
  B  B42  1  0.091800  0.227100  0.362400  1
  B  B43  1  0.408200  0.227100  0.862400  1
  B  B44  1  0.908200  0.772900  0.637600  1
  B  B45  1  0.518000  0.754400  0.470900  1
  B  B46  1  0.018000  0.245600  0.029100  1
  B  B47  1  0.482000  0.245600  0.529100  1
  B  B48  1  0.982000  0.754400  0.970900  1
  B  B49  1  0.409300  0.738400  0.372500  1
  B  B50  1  0.909300  0.261600  0.127500  1
  B  B51  1  0.590700  0.261600  0.627500  1
  B  B52  1  0.090700  0.738400  0.872500  1
  B  B53  1  0.610300  0.617600  0.414400  1
  B  B54  1  0.110300  0.382400  0.085600  1
  B  B55  1  0.389700  0.382400  0.585600  1
  B  B56  1  0.889700  0.617600  0.914400  1
  B  B57  1  0.474600  0.507200  0.133900  1
  B  B58  1  0.974600  0.492800  0.366100  1
  B  B59  1  0.525400  0.492800  0.866100  1
  B  B60  1  0.025400  0.507200  0.633900  1
  B  B61  1  0.530000  0.995900  0.359600  1
  B  B62  1  0.030000  0.004100  0.140400  1
  B  B63  1  0.470000  0.004100  0.640400  1
  B  B64  1  0.970000  0.995900  0.859600  1
  B  B65  1  0.745400  0.647700  0.286000  1
  B  B66  1  0.245400  0.352300  0.214000  1
  B  B67  1  0.254600  0.352300  0.714000  1
  B  B68  1  0.754600  0.647700  0.786000  1
  B  B69  1  0.272600  0.513900  0.427400  1
  B  B70  1  0.772600  0.486100  0.072600  1
  B  B71  1  0.727400  0.486100  0.572600  1
  B  B72  1  0.227400  0.513900  0.927400  1
  B  B73  1  0.413200  0.841000  0.767400  1
  B  B74  1  0.913200  0.159000  0.732600  1
  B  B75  1  0.586800  0.159000  0.232600  1
  B  B76  1  0.086800  0.841000  0.267400  1
  B  B77  1  0.592900  0.654500  0.739400  1
  B  B78  1  0.092900  0.345500  0.760600  1
  B  B79  1  0.407100  0.345500  0.260600  1
  B  B80  1  0.907100  0.654500  0.239400  1
  H  H81  1  0.408600  0.850400  0.285000  1
  H  H82  1  0.908600  0.149600  0.215000  1
  H  H83  1  0.591400  0.149600  0.715000  1
  H  H84  1  0.091400  0.850400  0.785000  1
  H  H85  1  0.420400  0.822500  0.327600  1
  H  H86  1  0.920400  0.177500  0.172400  1
  H  H87  1  0.579600  0.177500  0.672400  1
  H  H88  1  0.079600  0.822500  0.827600  1
  H  H89  1  0.423800  0.751500  0.302000  1
  H  H90  1  0.923800  0.248500  0.198000  1
  H  H91  1  0.576200  0.248500  0.698000  1
  H  H92  1  0.076200  0.751500  0.802000  1
  H  H93  1  0.415300  0.708500  0.233600  1
  H  H94  1  0.915300  0.291500  0.266400  1
  H  H95  1  0.584700  0.291500  0.766400  1
  H  H96  1  0.084700  0.708500  0.733600  1
  H  H97  1  0.394000  0.873600  0.234200  1
  H  H98  1  0.894000  0.126400  0.265800  1
  H  H99  1  0.606000  0.126400  0.765800  1
  H  H100  1  0.106000  0.873600  0.734200  1
  H  H101  1  0.391100  0.865500  0.164100  1
  H  H102  1  0.891100  0.134500  0.335900  1
  H  H103  1  0.608900  0.134500  0.835900  1
  H  H104  1  0.108900  0.865500  0.664100  1
  H  H105  1  0.410800  0.757800  0.093100  1
  H  H106  1  0.910800  0.242200  0.406900  1
  H  H107  1  0.589200  0.242200  0.906900  1
  H  H108  1  0.089200  0.757800  0.593100  1
  H  H109  1  0.408800  0.801300  0.094300  1
  H  H110  1  0.908800  0.198700  0.405700  1
  H  H111  1  0.591200  0.198700  0.905700  1
  H  H112  1  0.091200  0.801300  0.594300  1
  H  H113  1  0.333333  0.558400  0.720000  1
  H  H114  1  0.833333  0.441600  0.780000  1
  H  H115  1  0.666667  0.441600  0.280000  1
  H  H116  1  0.166667  0.558400  0.220000  1
  H  H117  1  0.337900  0.581000  0.672100  1
  H  H118  1  0.837900  0.419000  0.827900  1
  H  H119  1  0.662100  0.419000  0.327900  1
  H  H120  1  0.162100  0.581000  0.172100  1
  H  H121  1  0.369100  0.641200  0.686900  1
  H  H122  1  0.869100  0.358800  0.813100  1
  H  H123  1  0.630900  0.358800  0.313100  1
  H  H124  1  0.130900  0.641200  0.186900  1
  H  H125  1  0.395900  0.678900  0.749600  1
  H  H126  1  0.895900  0.321100  0.750400  1
  H  H127  1  0.604100  0.321100  0.250400  1
  H  H128  1  0.104100  0.678900  0.249600  1
  H  H129  1  0.338700  0.535900  0.772500  1
  H  H130  1  0.838700  0.464100  0.727500  1
  H  H131  1  0.661300  0.464100  0.227500  1
  H  H132  1  0.161300  0.535900  0.272500  1
  H  H133  1  0.345600  0.548500  0.843900  1
  H  H134  1  0.845600  0.451500  0.656100  1
  H  H135  1  0.654400  0.451500  0.156100  1
  H  H136  1  0.154400  0.548500  0.343900  1
  H  H137  1  0.394100  0.640700  0.903700  1
  H  H138  1  0.894100  0.359300  0.596300  1
  H  H139  1  0.605900  0.359300  0.096300  1
  H  H140  1  0.105900  0.640700  0.403700  1
  H  H141  1  0.368300  0.608900  0.908600  1
  H  H142  1  0.868300  0.391100  0.591400  1
  H  H143  1  0.631700  0.391100  0.091400  1
  H  H144  1  0.131700  0.608900  0.408600  1
  H  H145  1  0.378100  0.744300  0.027900  1
  H  H146  1  0.878100  0.255700  0.472100  1
  H  H147  1  0.621900  0.255700  0.972100  1
  H  H148  1  0.121900  0.744300  0.527900  1
  H  H149  1  0.329800  0.798800  0.136400  1
  H  H150  1  0.829800  0.201200  0.363600  1
  H  H151  1  0.670200  0.201200  0.863600  1
  H  H152  1  0.170200  0.798800  0.636400  1
  H  H153  1  0.273200  0.780700  0.105600  1
  H  H154  1  0.773200  0.219300  0.394400  1
  H  H155  1  0.726800  0.219300  0.894400  1
  H  H156  1  0.226800  0.780700  0.605600  1
  H  H157  1  0.269100  0.744500  0.035900  1
  H  H158  1  0.769100  0.255500  0.464100  1
  H  H159  1  0.730900  0.255500  0.964100  1
  H  H160  1  0.230900  0.744500  0.535900  1
  H  H161  1  0.364900  0.681100  0.973200  1
  H  H162  1  0.864900  0.318900  0.526800  1
  H  H163  1  0.635100  0.318900  0.026800  1
  H  H164  1  0.135100  0.681100  0.473200  1
  H  H165  1  0.311500  0.651200  0.869900  1
  H  H166  1  0.811500  0.348800  0.630100  1
  H  H167  1  0.688500  0.348800  0.130100  1
  H  H168  1  0.188500  0.651200  0.369900  1
  H  H169  1  0.269500  0.702900  0.904800  1
  H  H170  1  0.769500  0.297100  0.595200  1
  H  H171  1  0.730500  0.297100  0.095200  1
  H  H172  1  0.230500  0.702900  0.404800  1
  H  H173  1  0.275200  0.743800  0.973800  1
  H  H174  1  0.775200  0.256200  0.526200  1
  H  H175  1  0.724800  0.256200  0.026200  1
  H  H176  1  0.224800  0.743800  0.473800  1
  H  H177  1  0.271600  0.692000  0.104400  1
  H  H178  1  0.771600  0.308000  0.395600  1
  H  H179  1  0.728400  0.308000  0.895600  1
  H  H180  1  0.228400  0.692000  0.604400  1
  H  H181  1  0.240900  0.726200  0.165300  1
  H  H182  1  0.740900  0.273800  0.334700  1
  H  H183  1  0.759100  0.273800  0.834700  1
  H  H184  1  0.259100  0.726200  0.665300  1
  H  H185  1  0.273300  0.761200  0.224800  1
  H  H186  1  0.773300  0.238800  0.275200  1
  H  H187  1  0.726700  0.238800  0.775200  1
  H  H188  1  0.226700  0.761200  0.724800  1
  H  H189  1  0.336400  0.761900  0.223600  1
  H  H190  1  0.836400  0.238100  0.276400  1
  H  H191  1  0.663600  0.238100  0.776400  1
  H  H192  1  0.163600  0.761900  0.723600  1
  H  H193  1  0.310300  0.655200  0.042700  1
  H  H194  1  0.810300  0.344800  0.457300  1
  H  H195  1  0.689700  0.344800  0.957300  1
  H  H196  1  0.189700  0.655200  0.542700  1
  H  H197  1  0.368900  0.634300  0.003800  1
  H  H198  1  0.868900  0.365700  0.496200  1
  H  H199  1  0.631100  0.365700  0.996200  1
  H  H200  1  0.131100  0.634300  0.503800  1
  H  H201  1  0.443300  0.691100  0.073800  1
  H  H202  1  0.943300  0.308900  0.426200  1
  H  H203  1  0.556700  0.308900  0.926200  1
  H  H204  1  0.056700  0.691100  0.573800  1
  H  H205  1  0.435900  0.666800  0.026800  1
  H  H206  1  0.935900  0.333200  0.473200  1
  H  H207  1  0.564100  0.333200  0.973200  1
  H  H208  1  0.064100  0.666800  0.526800  1
  H  H209  1  0.792100  0.624100  0.033200  1
  H  H210  1  0.292100  0.375900  0.466800  1
  H  H211  1  0.207900  0.375900  0.966800  1
  H  H212  1  0.707900  0.624100  0.533200  1
  H  H213  1  0.833500  0.632900  0.991400  1
  H  H214  1  0.333500  0.367100  0.508600  1
  H  H215  1  0.166500  0.367100  0.008600  1
  H  H216  1  0.666500  0.632900  0.491400  1
  H  H217  1  0.813400  0.652000  0.944200  1
  H  H218  1  0.313400  0.348000  0.555800  1
  H  H219  1  0.186600  0.348000  0.055800  1
  H  H220  1  0.686600  0.652000  0.444200  1
  H  H221  1  0.751800  0.662400  0.938800  1
  H  H222  1  0.251800  0.337600  0.561200  1
  H  H223  1  0.248200  0.337600  0.061200  1
  H  H224  1  0.748200  0.662400  0.438800  1
  H  H225  1  0.744500  0.614300  0.073900  1
  H  H226  1  0.244500  0.385700  0.426100  1
  H  H227  1  0.255500  0.385700  0.926100  1
  H  H228  1  0.755500  0.614300  0.573900  1
  H  H229  1  0.681300  0.620800  0.101900  1
  H  H230  1  0.181300  0.379200  0.398100  1
  H  H231  1  0.318700  0.379200  0.898100  1
  H  H232  1  0.818700  0.620800  0.601900  1
  H  H233  1  0.624000  0.669300  0.055300  1
  H  H234  1  0.124000  0.330700  0.444700  1
  H  H235  1  0.376000  0.330700  0.944700  1
  H  H236  1  0.876000  0.669300  0.555300  1
  H  H237  1  0.624400  0.664100  0.094700  1
  H  H238  1  0.124400  0.335900  0.405300  1
  H  H239  1  0.375600  0.335900  0.905300  1
  H  H240  1  0.875600  0.664100  0.594700  1
  H  H241  1  0.499700  0.643300  0.039100  1
  H  H242  1  0.999700  0.356700  0.460900  1
  H  H243  1  0.500300  0.356700  0.960900  1
  H  H244  1  0.000300  0.643300  0.539100  1
  H  H245  1  0.405200  0.603100  0.061400  1
  H  H246  1  0.905200  0.396900  0.438600  1
  H  H247  1  0.594800  0.396900  0.938600  1
  H  H248  1  0.094800  0.603100  0.561400  1
  H  H249  1  0.434900  0.546400  0.059300  1
  H  H250  1  0.934900  0.453600  0.440700  1
  H  H251  1  0.565100  0.453600  0.940700  1
  H  H252  1  0.065100  0.546400  0.559300  1
  H  H253  1  0.497000  0.538200  0.047000  1
  H  H254  1  0.997000  0.461800  0.453000  1
  H  H255  1  0.503000  0.461800  0.953000  1
  H  H256  1  0.003000  0.538200  0.547000  1
  H  H257  1  0.557900  0.644300  0.068300  1
  H  H258  1  0.057900  0.355700  0.431700  1
  H  H259  1  0.442100  0.355700  0.931700  1
  H  H260  1  0.942100  0.644300  0.568300  1
  H  H261  1  0.643600  0.570200  0.016500  1
  H  H262  1  0.143600  0.429800  0.483500  1
  H  H263  1  0.356400  0.429800  0.983500  1
  H  H264  1  0.856400  0.570200  0.516500  1
  H  H265  1  0.604800  0.514100  0.986100  1
  H  H266  1  0.104800  0.485900  0.513900  1
  H  H267  1  0.395200  0.485900  0.013900  1
  H  H268  1  0.895200  0.514100  0.486100  1
  H  H269  1  0.542600  0.523000  0.996800  1
  H  H270  1  0.042600  0.477000  0.503200  1
  H  H271  1  0.457400  0.477000  0.003200  1
  H  H272  1  0.957400  0.523000  0.496800  1
  H  H273  1  0.452500  0.596500  0.154700  1
  H  H274  1  0.952500  0.403500  0.345300  1
  H  H275  1  0.547500  0.403500  0.845300  1
  H  H276  1  0.047500  0.596500  0.654700  1
  H  H277  1  0.399700  0.565300  0.160800  1
  H  H278  1  0.899700  0.434700  0.339200  1
  H  H279  1  0.600300  0.434700  0.839200  1
  H  H280  1  0.100300  0.565300  0.660800  1
  H  H281  1  0.343800  0.596400  0.165400  1
  H  H282  1  0.843800  0.403600  0.334600  1
  H  H283  1  0.656200  0.403600  0.834600  1
  H  H284  1  0.156200  0.596400  0.665400  1
  H  H285  1  0.340600  0.658600  0.164000  1
  H  H286  1  0.840600  0.341400  0.336000  1
  H  H287  1  0.659400  0.341400  0.836000  1
  H  H288  1  0.159400  0.658600  0.664000  1
  H  H289  1  0.506000  0.635100  0.148100  1
  H  H290  1  0.006000  0.364900  0.351900  1
  H  H291  1  0.494000  0.364900  0.851900  1
  H  H292  1  0.994000  0.635100  0.648100  1
  H  H293  1  0.536700  0.691200  0.139000  1
  H  H294  1  0.036700  0.308800  0.361000  1
  H  H295  1  0.463300  0.308800  0.861000  1
  H  H296  1  0.963300  0.691200  0.639000  1
  H  H297  1  0.469000  0.757000  0.127900  1
  H  H298  1  0.969000  0.243000  0.372100  1
  H  H299  1  0.531000  0.243000  0.872100  1
  H  H300  1  0.031000  0.757000  0.627900  1
  H  H301  1  0.511700  0.751000  0.127200  1
  H  H302  1  0.011700  0.249000  0.372800  1
  H  H303  1  0.488300  0.249000  0.872800  1
  H  H304  1  0.988300  0.751000  0.627200  1
  H  H305  1  0.476500  0.125600  0.179800  1
  H  H306  1  0.976500  0.874400  0.320200  1
  H  H307  1  0.523500  0.874400  0.820200  1
  H  H308  1  0.023500  0.125600  0.679800  1
  H  H309  1  0.518300  0.153100  0.153000  1
  H  H310  1  0.018300  0.846900  0.347000  1
  H  H311  1  0.481700  0.846900  0.847000  1
  H  H312  1  0.981700  0.153100  0.653000  1
  H  H313  1  0.562700  0.111300  0.108800  1
  H  H314  1  0.062700  0.888700  0.391200  1
  H  H315  1  0.437300  0.888700  0.891200  1
  H  H316  1  0.937300  0.111300  0.608800  1
  H  H317  1  0.565100  0.041900  0.091500  1
  H  H318  1  0.065100  0.958100  0.408500  1
  H  H319  1  0.434900  0.958100  0.908500  1
  H  H320  1  0.934900  0.041900  0.591500  1
  H  H321  1  0.433000  0.089400  0.203500  1
  H  H322  1  0.933000  0.910600  0.296500  1
  H  H323  1  0.567000  0.910600  0.796500  1
  H  H324  1  0.067000  0.089400  0.703500  1
  H  H325  1  0.407600  0.029100  0.209600  1
  H  H326  1  0.907600  0.970900  0.290400  1
  H  H327  1  0.592400  0.970900  0.790400  1
  H  H328  1  0.092400  0.029100  0.709600  1
  H  H329  1  0.457000  0.936700  0.140000  1
  H  H330  1  0.957000  0.063300  0.360000  1
  H  H331  1  0.543000  0.063300  0.860000  1
  H  H332  1  0.043000  0.936700  0.640000  1
  H  H333  1  0.424000  0.949500  0.170700  1
  H  H334  1  0.924000  0.050500  0.329300  1
  H  H335  1  0.576000  0.050500  0.829300  1
  H  H336  1  0.076000  0.949500  0.670700  1
  H  H337  1  0.488500  0.831400  0.161300  1
  H  H338  1  0.988500  0.168600  0.338700  1
  H  H339  1  0.511500  0.168600  0.838700  1
  H  H340  1  0.011500  0.831400  0.661300  1
  H  H341  1  0.497300  0.761300  0.216600  1
  H  H342  1  0.997300  0.238700  0.283400  1
  H  H343  1  0.502700  0.238700  0.783400  1
  H  H344  1  0.002700  0.761300  0.716600  1
  H  H345  1  0.502400  0.820200  0.278300  1
  H  H346  1  0.002400  0.179800  0.221700  1
  H  H347  1  0.497600  0.179800  0.721700  1
  H  H348  1  0.997600  0.820200  0.778300  1
  H  H349  1  0.500500  0.884700  0.281400  1
  H  H350  1  0.000500  0.115300  0.218600  1
  H  H351  1  0.499500  0.115300  0.718600  1
  H  H352  1  0.999500  0.884700  0.781400  1
  H  H353  1  0.460500  0.889800  0.175300  1
  H  H354  1  0.960500  0.110200  0.324700  1
  H  H355  1  0.539500  0.110200  0.824700  1
  H  H356  1  0.039500  0.889800  0.675300  1
  H  H357  1  0.492400  0.008200  0.228300  1
  H  H358  1  0.992400  0.991800  0.271700  1
  H  H359  1  0.507600  0.991800  0.771700  1
  H  H360  1  0.007600  0.008200  0.728300  1
  H  H361  1  0.525900  0.997500  0.274800  1
  H  H362  1  0.025900  0.002500  0.225200  1
  H  H363  1  0.474100  0.002500  0.725200  1
  H  H364  1  0.974100  0.997500  0.774800  1
  H  H365  1  0.526700  0.932900  0.271500  1
  H  H366  1  0.026700  0.067100  0.228500  1
  H  H367  1  0.473300  0.067100  0.728500  1
  H  H368  1  0.973300  0.932900  0.771500  1
  H  H369  1  0.327000  0.790000  0.931000  1
  H  H370  1  0.827000  0.210000  0.569000  1
  H  H371  1  0.673000  0.210000  0.069000  1
  H  H372  1  0.173000  0.790000  0.431000  1
  H  H373  1  0.278800  0.786800  0.889800  1
  H  H374  1  0.778800  0.213200  0.610200  1
  H  H375  1  0.721200  0.213200  0.110200  1
  H  H376  1  0.221200  0.786800  0.389800  1
  H  H377  1  0.278300  0.737000  0.822700  1
  H  H378  1  0.778300  0.263000  0.677300  1
  H  H379  1  0.721700  0.263000  0.177300  1
  H  H380  1  0.221700  0.737000  0.322700  1
  H  H381  1  0.325900  0.690400  0.796700  1
  H  H382  1  0.825900  0.309600  0.703300  1
  H  H383  1  0.674100  0.309600  0.203300  1
  H  H384  1  0.174100  0.690400  0.296700  1
  H  H385  1  0.381100  0.791300  0.969000  1
  H  H386  1  0.881100  0.208700  0.531000  1
  H  H387  1  0.618900  0.208700  0.031000  1
  H  H388  1  0.118900  0.791300  0.469000  1
  H  H389  1  0.437700  0.761400  0.982500  1
  H  H390  1  0.937700  0.238600  0.517500  1
  H  H391  1  0.562300  0.238600  0.017500  1
  H  H392  1  0.062300  0.761400  0.482500  1
  H  H393  1  0.450500  0.658500  0.899800  1
  H  H394  1  0.950500  0.341500  0.600200  1
  H  H395  1  0.549500  0.341500  0.100200  1
  H  H396  1  0.049500  0.658500  0.399800  1
  H  H397  1  0.465200  0.687500  0.943800  1
  H  H398  1  0.965200  0.312500  0.556200  1
  H  H399  1  0.534800  0.312500  0.056200  1
  H  H400  1  0.034800  0.687500  0.443800  1
  H  H401  1  0.703400  0.796200  0.001100  1
  H  H402  1  0.203400  0.203800  0.498900  1
  H  H403  1  0.296600  0.203800  0.998900  1
  H  H404  1  0.796600  0.796200  0.501100  1
  H  H405  1  0.706400  0.829400  0.070900  1
  H  H406  1  0.206400  0.170600  0.429100  1
  H  H407  1  0.293600  0.170600  0.929100  1
  H  H408  1  0.793600  0.829400  0.570900  1
  H  H409  1  0.695300  0.793100  0.106100  1
  H  H410  1  0.195300  0.206900  0.393900  1
  H  H411  1  0.304700  0.206900  0.893900  1
  H  H412  1  0.804700  0.793100  0.606100  1
  H  H413  1  0.681300  0.723400  0.071400  1
  H  H414  1  0.181300  0.276600  0.428600  1
  H  H415  1  0.318700  0.276600  0.928600  1
  H  H416  1  0.818700  0.723400  0.571400  1
  H  H417  1  0.700600  0.754400  0.926200  1
  H  H418  1  0.200600  0.245600  0.573800  1
  H  H419  1  0.299400  0.245600  0.073800  1
  H  H420  1  0.799400  0.754400  0.426200  1
  H  H421  1  0.699500  0.688300  0.860800  1
  H  H422  1  0.199500  0.311700  0.639200  1
  H  H423  1  0.300500  0.311700  0.139200  1
  H  H424  1  0.800500  0.688300  0.360800  1
  H  H425  1  0.694200  0.599900  0.877700  1
  H  H426  1  0.194200  0.400100  0.622300  1
  H  H427  1  0.305800  0.400100  0.122300  1
  H  H428  1  0.805800  0.599900  0.377700  1
  H  H429  1  0.694500  0.611800  0.842300  1
  H  H430  1  0.194500  0.388200  0.657700  1
  H  H431  1  0.305500  0.388200  0.157700  1
  H  H432  1  0.805500  0.611800  0.342300  1
  H  H433  1  0.515100  0.635400  0.892900  1
  H  H434  1  0.015100  0.364600  0.607100  1
  H  H435  1  0.484900  0.364600  0.107100  1
  H  H436  1  0.984900  0.635400  0.392900  1
  H  H437  1  0.486500  0.745200  0.902700  1
  H  H438  1  0.986500  0.254800  0.597300  1
  H  H439  1  0.513500  0.254800  0.097300  1
  H  H440  1  0.013500  0.745200  0.402700  1
  H  H441  1  0.542000  0.749100  0.875300  1
  H  H442  1  0.042000  0.250900  0.624700  1
  H  H443  1  0.458000  0.250900  0.124700  1
  H  H444  1  0.958000  0.749100  0.375300  1
  H  H445  1  0.584000  0.696200  0.856700  1
  H  H446  1  0.084000  0.303800  0.643300  1
  H  H447  1  0.416000  0.303800  0.143300  1
  H  H448  1  0.916000  0.696200  0.356700  1
  H  H449  1  0.625000  0.665300  0.879500  1
  H  H450  1  0.125000  0.334700  0.620500  1
  H  H451  1  0.375000  0.334700  0.120500  1
  H  H452  1  0.875000  0.665300  0.379500  1
  H  H453  1  0.650500  0.546200  0.839800  1
  H  H454  1  0.150500  0.453800  0.660200  1
  H  H455  1  0.349500  0.453800  0.160200  1
  H  H456  1  0.849500  0.546200  0.339800  1
  H  H457  1  0.589300  0.529000  0.829700  1
  H  H458  1  0.089300  0.471000  0.670300  1
  H  H459  1  0.410700  0.471000  0.170300  1
  H  H460  1  0.910700  0.529000  0.329700  1
  H  H461  1  0.545900  0.580000  0.844500  1
  H  H462  1  0.045900  0.420000  0.655500  1
  H  H463  1  0.454100  0.420000  0.155500  1
  H  H464  1  0.954100  0.580000  0.344500  1
  H  H465  1  0.522300  0.637100  0.772600  1
  H  H466  1  0.022300  0.362900  0.727400  1
  H  H467  1  0.477700  0.362900  0.227400  1
  H  H468  1  0.977700  0.637100  0.272600  1
  H  H469  1  0.529900  0.576400  0.776100  1
  H  H470  1  0.029900  0.423600  0.723900  1
  H  H471  1  0.470100  0.423600  0.223900  1
  H  H472  1  0.970100  0.576400  0.276100  1
  H  H473  1  0.484900  0.554200  0.804700  1
  H  H474  1  0.984900  0.445800  0.695300  1
  H  H475  1  0.515100  0.445800  0.195300  1
  H  H476  1  0.015100  0.554200  0.304700  1
  H  H477  1  0.432400  0.592900  0.829800  1
  H  H478  1  0.932400  0.407100  0.670200  1
  H  H479  1  0.567600  0.407100  0.170200  1
  H  H480  1  0.067600  0.592900  0.329800  1
  H  H481  1  0.511000  0.701700  0.772800  1
  H  H482  1  0.011000  0.298300  0.727200  1
  H  H483  1  0.489000  0.298300  0.227200  1
  H  H484  1  0.989000  0.701700  0.272800  1
  H  H485  1  0.474200  0.763400  0.782600  1
  H  H486  1  0.974200  0.236600  0.717400  1
  H  H487  1  0.525800  0.236600  0.217400  1
  H  H488  1  0.025800  0.763400  0.282600  1
  H  H489  1  0.382900  0.755200  0.814500  1
  H  H490  1  0.882900  0.244800  0.685500  1
  H  H491  1  0.617100  0.244800  0.185500  1
  H  H492  1  0.117100  0.755200  0.314500  1
  H  H493  1  0.406600  0.784200  0.803200  1
  H  H494  1  0.906600  0.215800  0.696800  1
  H  H495  1  0.593400  0.215800  0.196800  1
  H  H496  1  0.093400  0.784200  0.303200  1
  H  H497  1  0.591500  0.940200  0.201100  1
  H  H498  1  0.091500  0.059800  0.298900  1
  H  H499  1  0.408500  0.059800  0.798900  1
  H  H500  1  0.908500  0.940200  0.701100  1
  H  H501  1  0.613200  0.004900  0.246400  1
  H  H502  1  0.113200  0.995100  0.253600  1
  H  H503  1  0.386800  0.995100  0.753600  1
  H  H504  1  0.886800  0.004900  0.746400  1
  H  H505  1  0.599000  0.061700  0.237800  1
  H  H506  1  0.099000  0.938300  0.262200  1
  H  H507  1  0.401000  0.938300  0.762200  1
  H  H508  1  0.901000  0.061700  0.737800  1
  H  H509  1  0.563200  0.053800  0.183900  1
  H  H510  1  0.063200  0.946200  0.316100  1
  H  H511  1  0.436800  0.946200  0.816100  1
  H  H512  1  0.936800  0.053800  0.683900  1
  H  H513  1  0.569300  0.873500  0.147600  1
  H  H514  1  0.069300  0.126500  0.352400  1
  H  H515  1  0.430700  0.126500  0.852400  1
  H  H516  1  0.930700  0.873500  0.647600  1
  H  H517  1  0.527800  0.828200  0.090700  1
  H  H518  1  0.027800  0.171800  0.409300  1
  H  H519  1  0.472200  0.171800  0.909300  1
  H  H520  1  0.972200  0.828200  0.590700  1
  H  H521  1  0.466300  0.894200  0.072400  1
  H  H522  1  0.966300  0.105800  0.427600  1
  H  H523  1  0.533700  0.105800  0.927600  1
  H  H524  1  0.033700  0.894200  0.572400  1
  H  H525  1  0.471400  0.847500  0.061900  1
  H  H526  1  0.971400  0.152500  0.438100  1
  H  H527  1  0.528600  0.152500  0.938100  1
  H  H528  1  0.028600  0.847500  0.561900  1
  H  H529  1  0.457000  0.791000  0.876900  1
  H  H530  1  0.957000  0.209000  0.623100  1
  H  H531  1  0.543000  0.209000  0.123100  1
  H  H532  1  0.043000  0.791000  0.376900  1
  H  H533  1  0.355800  0.823200  0.862700  1
  H  H534  1  0.855800  0.176800  0.637300  1
  H  H535  1  0.644200  0.176800  0.137300  1
  H  H536  1  0.144200  0.823200  0.362700  1
  H  H537  1  0.354500  0.872400  0.930000  1
  H  H538  1  0.854500  0.127600  0.570000  1
  H  H539  1  0.645500  0.127600  0.070000  1
  H  H540  1  0.145500  0.872400  0.430000  1
  H  H541  1  0.404500  0.880900  0.970800  1
  H  H542  1  0.904500  0.119100  0.529200  1
  H  H543  1  0.595500  0.119100  0.029200  1
  H  H544  1  0.095500  0.880900  0.470800  1
  H  H545  1  0.439000  0.857800  0.004900  1
  H  H546  1  0.939000  0.142200  0.495100  1
  H  H547  1  0.561000  0.142200  0.995100  1
  H  H548  1  0.061000  0.857800  0.504900  1
  H  H549  1  0.547200  0.859700  0.020900  1
  H  H550  1  0.047200  0.140300  0.479100  1
  H  H551  1  0.452800  0.140300  0.979100  1
  H  H552  1  0.952800  0.859700  0.520900  1
  H  H553  1  0.556100  0.841300  0.953500  1
  H  H554  1  0.056100  0.158700  0.546500  1
  H  H555  1  0.443900  0.158700  0.046500  1
  H  H556  1  0.943900  0.841300  0.453500  1
  H  H557  1  0.506500  0.831200  0.911800  1
  H  H558  1  0.006500  0.168800  0.588200  1
  H  H559  1  0.493500  0.168800  0.088200  1
  H  H560  1  0.993500  0.831200  0.411800  1
  H  H561  1  0.601800  0.532100  0.911300  1
  H  H562  1  0.101800  0.467900  0.588700  1
  H  H563  1  0.398200  0.467900  0.088700  1
  H  H564  1  0.898200  0.532100  0.411300  1
  H  H565  1  0.647600  0.482900  0.887200  1
  H  H566  1  0.147600  0.517100  0.612800  1
  H  H567  1  0.352400  0.517100  0.112800  1
  H  H568  1  0.852400  0.482900  0.387200  1
  H  H569  1  0.708000  0.503100  0.899300  1
  H  H570  1  0.208000  0.496900  0.600700  1
  H  H571  1  0.292000  0.496900  0.100700  1
  H  H572  1  0.792000  0.503100  0.399300  1
  H  H573  1  0.722700  0.572500  0.935400  1
  H  H574  1  0.222700  0.427500  0.564600  1
  H  H575  1  0.277300  0.427500  0.064600  1
  H  H576  1  0.777300  0.572500  0.435400  1
  H  H577  1  0.557000  0.589300  0.935000  1
  H  H578  1  0.057000  0.410700  0.565000  1
  H  H579  1  0.443000  0.410700  0.065000  1
  H  H580  1  0.943000  0.589300  0.435000  1
  H  H581  1  0.536000  0.662200  0.978600  1
  H  H582  1  0.036000  0.337800  0.521400  1
  H  H583  1  0.464000  0.337800  0.021400  1
  H  H584  1  0.964000  0.662200  0.478600  1
  H  H585  1  0.609000  0.719800  0.043100  1
  H  H586  1  0.109000  0.280200  0.456900  1
  H  H587  1  0.391000  0.280200  0.956900  1
  H  H588  1  0.891000  0.719800  0.543100  1
  H  H589  1  0.567300  0.723800  0.035400  1
  H  H590  1  0.067300  0.276200  0.464600  1
  H  H591  1  0.432700  0.276200  0.964600  1
  H  H592  1  0.932700  0.723800  0.535400  1
  H  H593  1  0.493200  0.946500  0.972600  1
  H  H594  1  0.993200  0.053500  0.527400  1
  H  H595  1  0.506800  0.053500  0.027400  1
  H  H596  1  0.006800  0.946500  0.472600  1
  H  H597  1  0.430200  0.949200  0.976800  1
  H  H598  1  0.930200  0.050800  0.523200  1
  H  H599  1  0.569800  0.050800  0.023200  1
  H  H600  1  0.069800  0.949200  0.476800  1
  H  H601  1  0.401700  0.962000  0.036600  1
  H  H602  1  0.901700  0.038000  0.463400  1
  H  H603  1  0.598300  0.038000  0.963400  1
  H  H604  1  0.098300  0.962000  0.536600  1
  H  H605  1  0.436200  0.972100  0.092100  1
  H  H606  1  0.936200  0.027900  0.407900  1
  H  H607  1  0.563800  0.027900  0.907900  1
  H  H608  1  0.063800  0.972100  0.592100  1
  H  H609  1  0.559100  0.948900  0.974600  1
  H  H610  1  0.059100  0.051100  0.525400  1
  H  H611  1  0.440900  0.051100  0.025400  1
  H  H612  1  0.940900  0.948900  0.474600  1
  H  H613  1  0.620800  0.960200  0.006900  1
  H  H614  1  0.120800  0.039800  0.493100  1
  H  H615  1  0.379200  0.039800  0.993100  1
  H  H616  1  0.879200  0.960200  0.506900  1
  H  H617  1  0.612800  0.995600  0.113600  1
  H  H618  1  0.112800  0.004400  0.386400  1
  H  H619  1  0.387200  0.004400  0.886400  1
  H  H620  1  0.887200  0.995600  0.613600  1
  H  H621  1  0.642900  0.982300  0.079600  1
  H  H622  1  0.142900  0.017700  0.420400  1
  H  H623  1  0.357100  0.017700  0.920400  1
  H  H624  1  0.857100  0.982300  0.579600  1
  H  H625  1  0.606800  0.794400  0.067800  1
  H  H626  1  0.106800  0.205600  0.432200  1
  H  H627  1  0.393200  0.205600  0.932200  1
  H  H628  1  0.893200  0.794400  0.567800  1
  H  H629  1  0.596500  0.715500  0.949900  1
  H  H630  1  0.096500  0.284500  0.550100  1
  H  H631  1  0.403500  0.284500  0.050100  1
  H  H632  1  0.903500  0.715500  0.449900  1
  H  H633  1  0.610600  0.768000  0.934600  1
  H  H634  1  0.110600  0.232000  0.565400  1
  H  H635  1  0.389400  0.232000  0.065400  1
  H  H636  1  0.889400  0.768000  0.434600  1
  H  H637  1  0.622800  0.833700  0.986000  1
  H  H638  1  0.122800  0.166300  0.514000  1
  H  H639  1  0.377200  0.166300  0.014000  1
  H  H640  1  0.877200  0.833700  0.486000  1
  H  H641  1  0.608000  0.894100  0.037000  1
  H  H642  1  0.108000  0.105900  0.463000  1
  H  H643  1  0.392000  0.105900  0.963000  1
  H  H644  1  0.892000  0.894100  0.537000  1
  H  H645  1  0.649900  0.965800  0.146800  1
  H  H646  1  0.149900  0.034200  0.353200  1
  H  H647  1  0.350100  0.034200  0.853200  1
  H  H648  1  0.850100  0.965800  0.646800  1
  H  H649  1  0.659900  0.908100  0.155200  1
  H  H650  1  0.159900  0.091900  0.344800  1
  H  H651  1  0.340100  0.091900  0.844800  1
  H  H652  1  0.840100  0.908100  0.655200  1
  H  H653  1  0.643900  0.843300  0.104500  1
  H  H654  1  0.143900  0.156700  0.395500  1
  H  H655  1  0.356100  0.156700  0.895500  1
  H  H656  1  0.856100  0.843300  0.604500  1
  H  H657  1  0.595500  0.669100  0.222700  1
  H  H658  1  0.095500  0.330900  0.277300  1
  H  H659  1  0.404500  0.330900  0.777300  1
  H  H660  1  0.904500  0.669100  0.722700  1
  H  H661  1  0.589000  0.704300  0.185600  1
  H  H662  1  0.089000  0.295700  0.314400  1
  H  H663  1  0.411000  0.295700  0.814400  1
  H  H664  1  0.911000  0.704300  0.685600  1
  H  H665  1  0.587200  0.775700  0.218200  1
  H  H666  1  0.087200  0.224300  0.281800  1
  H  H667  1  0.412800  0.224300  0.781800  1
  H  H668  1  0.912800  0.775700  0.718200  1
  H  H669  1  0.591900  0.812000  0.287800  1
  H  H670  1  0.091900  0.188000  0.212200  1
  H  H671  1  0.408100  0.188000  0.712200  1
  H  H672  1  0.908100  0.812000  0.787800  1
  H  H673  1  0.603000  0.637000  0.268300  1
  H  H674  1  0.103000  0.363000  0.231700  1
  H  H675  1  0.397000  0.363000  0.731700  1
  H  H676  1  0.897000  0.637000  0.768300  1
  H  H677  1  0.603700  0.637600  0.335400  1
  H  H678  1  0.103700  0.362400  0.164600  1
  H  H679  1  0.396300  0.362400  0.664600  1
  H  H680  1  0.896300  0.637600  0.835400  1
  H  H681  1  0.590600  0.698100  0.409800  1
  H  H682  1  0.090600  0.301900  0.090200  1
  H  H683  1  0.409400  0.301900  0.590200  1
  H  H684  1  0.909400  0.698100  0.909800  1
  H  H685  1  0.589700  0.743600  0.415600  1
  H  H686  1  0.089700  0.256400  0.084400  1
  H  H687  1  0.410300  0.256400  0.584400  1
  H  H688  1  0.910300  0.743600  0.915600  1
  H  H689  1  0.670500  0.934900  0.785200  1
  H  H690  1  0.170500  0.065100  0.714800  1
  H  H691  1  0.329500  0.065100  0.214800  1
  H  H692  1  0.829500  0.934900  0.285200  1
  H  H693  1  0.665600  0.912400  0.833100  1
  H  H694  1  0.165600  0.087600  0.666900  1
  H  H695  1  0.334400  0.087600  0.166900  1
  H  H696  1  0.834400  0.912400  0.333100  1
  H  H697  1  0.633800  0.852400  0.818200  1
  H  H698  1  0.133800  0.147600  0.681800  1
  H  H699  1  0.366200  0.147600  0.181800  1
  H  H700  1  0.866200  0.852400  0.318200  1
  H  H701  1  0.607000  0.815000  0.755500  1
  H  H702  1  0.107000  0.185000  0.744500  1
  H  H703  1  0.393000  0.185000  0.244500  1
  H  H704  1  0.893000  0.815000  0.255500  1
  H  H705  1  0.667200  0.956800  0.730800  1
  H  H706  1  0.167200  0.043200  0.769200  1
  H  H707  1  0.332800  0.043200  0.269200  1
  H  H708  1  0.832800  0.956800  0.230800  1
  H  H709  1  0.660800  0.942900  0.658900  1
  H  H710  1  0.160800  0.057100  0.841100  1
  H  H711  1  0.339200  0.057100  0.341100  1
  H  H712  1  0.839200  0.942900  0.158900  1
  H  H713  1  0.635500  0.882500  0.595000  1
  H  H714  1  0.135500  0.117500  0.905000  1
  H  H715  1  0.364500  0.117500  0.405000  1
  H  H716  1  0.864500  0.882500  0.095000  1
  H  H717  1  0.610400  0.850800  0.600900  1
  H  H718  1  0.110400  0.149200  0.899100  1
  H  H719  1  0.389600  0.149200  0.399100  1
  H  H720  1  0.889600  0.850800  0.100900  1
  H  H721  1  0.623700  0.752900  0.476300  1
  H  H722  1  0.123700  0.247100  0.023700  1
  H  H723  1  0.376300  0.247100  0.523700  1
  H  H724  1  0.876300  0.752900  0.976300  1
  H  H725  1  0.668800  0.697900  0.366200  1
  H  H726  1  0.168800  0.302100  0.133800  1
  H  H727  1  0.331200  0.302100  0.633800  1
  H  H728  1  0.831200  0.697900  0.866200  1
  H  H729  1  0.726300  0.711400  0.395000  1
  H  H730  1  0.226300  0.288600  0.105000  1
  H  H731  1  0.273700  0.288600  0.605000  1
  H  H732  1  0.773700  0.711400  0.895000  1
  H  H733  1  0.732400  0.745600  0.464600  1
  H  H734  1  0.232400  0.254400  0.035400  1
  H  H735  1  0.267600  0.254400  0.535400  1
  H  H736  1  0.767600  0.745600  0.964600  1
  H  H737  1  0.638300  0.810900  0.530500  1
  H  H738  1  0.138300  0.189100  0.969500  1
  H  H739  1  0.361700  0.189100  0.469500  1
  H  H740  1  0.861700  0.810900  0.030500  1
  H  H741  1  0.693900  0.838900  0.632100  1
  H  H742  1  0.193900  0.161100  0.867900  1
  H  H743  1  0.306100  0.161100  0.367900  1
  H  H744  1  0.806100  0.838900  0.132100  1
  H  H745  1  0.735200  0.786900  0.595600  1
  H  H746  1  0.235200  0.213100  0.904400  1
  H  H747  1  0.264800  0.213100  0.404400  1
  H  H748  1  0.764800  0.786900  0.095600  1
  H  H749  1  0.728000  0.746800  0.526600  1
  H  H750  1  0.228000  0.253200  0.973400  1
  H  H751  1  0.272000  0.253200  0.473400  1
  H  H752  1  0.772000  0.746800  0.026600  1
  H  H753  1  0.546100  0.916600  0.369100  1
  H  H754  1  0.046100  0.083400  0.130900  1
  H  H755  1  0.453900  0.083400  0.630900  1
  H  H756  1  0.953900  0.916600  0.869100  1
  H  H757  1  0.598500  0.953200  0.372000  1
  H  H758  1  0.098500  0.046800  0.128000  1
  H  H759  1  0.401500  0.046800  0.628000  1
  H  H760  1  0.901500  0.953200  0.872000  1
  H  H761  1  0.655100  0.924500  0.369700  1
  H  H762  1  0.155100  0.075500  0.130300  1
  H  H763  1  0.344900  0.075500  0.630300  1
  H  H764  1  0.844900  0.924500  0.869700  1
  H  H765  1  0.659500  0.859300  0.364500  1
  H  H766  1  0.159500  0.140700  0.135500  1
  H  H767  1  0.340500  0.140700  0.635500  1
  H  H768  1  0.840500  0.859300  0.864500  1
  H  H769  1  0.494000  0.874500  0.367900  1
  H  H770  1  0.994000  0.125500  0.132100  1
  H  H771  1  0.506000  0.125500  0.632100  1
  H  H772  1  0.006000  0.874500  0.867900  1
  H  H773  1  0.463300  0.815400  0.371800  1
  H  H774  1  0.963300  0.184600  0.128200  1
  H  H775  1  0.536700  0.184600  0.628200  1
  H  H776  1  0.036700  0.815400  0.871800  1
  H  H777  1  0.490100  0.752100  0.382000  1
  H  H778  1  0.990100  0.247900  0.118000  1
  H  H779  1  0.509900  0.247900  0.618000  1
  H  H780  1  0.009900  0.752100  0.882000  1
  H  H781  1  0.533000  0.746900  0.379900  1
  H  H782  1  0.033000  0.253100  0.120100  1
  H  H783  1  0.467000  0.253100  0.620100  1
  H  H784  1  0.967000  0.746900  0.879900  1
  H  H785  1  0.522600  0.377600  0.314900  1
  H  H786  1  0.022600  0.622400  0.185100  1
  H  H787  1  0.477400  0.622400  0.685100  1
  H  H788  1  0.977400  0.377600  0.814900  1
  H  H789  1  0.480700  0.348300  0.340000  1
  H  H790  1  0.980700  0.651700  0.160000  1
  H  H791  1  0.519300  0.651700  0.660000  1
  H  H792  1  0.019300  0.348300  0.840000  1
  H  H793  1  0.434100  0.388100  0.381800  1
  H  H794  1  0.934100  0.611900  0.118200  1
  H  H795  1  0.565900  0.611900  0.618200  1
  H  H796  1  0.065900  0.388100  0.881800  1
  H  H797  1  0.429400  0.457200  0.398400  1
  H  H798  1  0.929400  0.542800  0.101600  1
  H  H799  1  0.570600  0.542800  0.601600  1
  H  H800  1  0.070600  0.457200  0.898400  1
  H  H801  1  0.564600  0.414000  0.290600  1
  H  H802  1  0.064600  0.586000  0.209400  1
  H  H803  1  0.435400  0.586000  0.709400  1
  H  H804  1  0.935400  0.414000  0.790600  1
  H  H805  1  0.589800  0.475900  0.287400  1
  H  H806  1  0.089800  0.524100  0.212600  1
  H  H807  1  0.410200  0.524100  0.712600  1
  H  H808  1  0.910200  0.475900  0.787400  1
  H  H809  1  0.573600  0.556100  0.328500  1
  H  H810  1  0.073600  0.443900  0.171500  1
  H  H811  1  0.426400  0.443900  0.671500  1
  H  H812  1  0.926400  0.556100  0.828500  1
  H  H813  1  0.540300  0.568500  0.358700  1
  H  H814  1  0.040300  0.431500  0.141300  1
  H  H815  1  0.459700  0.431500  0.641300  1
  H  H816  1  0.959700  0.568500  0.858700  1
  H  H817  1  0.508800  0.674300  0.343300  1
  H  H818  1  0.008800  0.325700  0.156700  1
  H  H819  1  0.491200  0.325700  0.656700  1
  H  H820  1  0.991200  0.674300  0.843300  1
  H  H821  1  0.508200  0.750900  0.294600  1
  H  H822  1  0.008200  0.249100  0.205400  1
  H  H823  1  0.491800  0.249100  0.705400  1
  H  H824  1  0.991800  0.750900  0.794600  1
  H  H825  1  0.504200  0.694800  0.230800  1
  H  H826  1  0.004200  0.305200  0.269200  1
  H  H827  1  0.495800  0.305200  0.769200  1
  H  H828  1  0.995800  0.694800  0.730800  1
  H  H829  1  0.502600  0.628500  0.223200  1
  H  H830  1  0.002600  0.371500  0.276800  1
  H  H831  1  0.497400  0.371500  0.776800  1
  H  H832  1  0.997400  0.628500  0.723200  1
  H  H833  1  0.536100  0.616500  0.327900  1
  H  H834  1  0.036100  0.383500  0.172100  1
  H  H835  1  0.463900  0.383500  0.672100  1
  H  H836  1  0.963900  0.616500  0.827900  1
  H  H837  1  0.508300  0.497000  0.267000  1
  H  H838  1  0.008300  0.503000  0.233000  1
  H  H839  1  0.491700  0.503000  0.733000  1
  H  H840  1  0.991700  0.497000  0.767000  1
  H  H841  1  0.477400  0.509700  0.220200  1
  H  H842  1  0.977400  0.490300  0.279800  1
  H  H843  1  0.522600  0.490300  0.779800  1
  H  H844  1  0.022600  0.509700  0.720200  1
  H  H845  1  0.475900  0.575800  0.227300  1
  H  H846  1  0.975900  0.424200  0.272700  1
  H  H847  1  0.524100  0.424200  0.772700  1
  H  H848  1  0.024100  0.575800  0.727300  1
  H  H849  1  0.728400  0.813500  0.414700  1
  H  H850  1  0.228400  0.186500  0.085300  1
  H  H851  1  0.271600  0.186500  0.585300  1
  H  H852  1  0.771600  0.813500  0.914700  1
  H  H853  1  0.760700  0.784000  0.354700  1
  H  H854  1  0.260700  0.216000  0.145300  1
  H  H855  1  0.239300  0.216000  0.645300  1
  H  H856  1  0.739300  0.784000  0.854700  1
  H  H857  1  0.729900  0.753900  0.293700  1
  H  H858  1  0.229900  0.246100  0.206300  1
  H  H859  1  0.270100  0.246100  0.706300  1
  H  H860  1  0.770100  0.753900  0.793700  1
  H  H861  1  0.666900  0.753400  0.292700  1
  H  H862  1  0.166900  0.246600  0.207300  1
  H  H863  1  0.333100  0.246600  0.707300  1
  H  H864  1  0.833100  0.753400  0.792700  1
  H  H865  1  0.688000  0.849400  0.475000  1
  H  H866  1  0.188000  0.150600  0.025000  1
  H  H867  1  0.312000  0.150600  0.525000  1
  H  H868  1  0.812000  0.849400  0.975000  1
  H  H869  1  0.628400  0.864500  0.512000  1
  H  H870  1  0.128400  0.135500  0.988000  1
  H  H871  1  0.371600  0.135500  0.488000  1
  H  H872  1  0.871600  0.864500  0.012000  1
  H  H873  1  0.560500  0.831300  0.485300  1
  H  H874  1  0.060500  0.168700  0.014700  1
  H  H875  1  0.439500  0.168700  0.514700  1
  H  H876  1  0.939500  0.831300  0.985300  1
  H  H877  1  0.554600  0.809900  0.438100  1
  H  H878  1  0.054600  0.190100  0.061900  1
  H  H879  1  0.445400  0.190100  0.561900  1
  H  H880  1  0.945400  0.809900  0.938100  1
  H  H881  1  0.206200  0.884700  0.482800  1
  H  H882  1  0.706200  0.115300  0.017200  1
  H  H883  1  0.793800  0.115300  0.517200  1
  H  H884  1  0.293800  0.884700  0.982800  1
  H  H885  1  0.165100  0.867800  0.519400  1
  H  H886  1  0.665100  0.132200  0.980600  1
  H  H887  1  0.834900  0.132200  0.480600  1
  H  H888  1  0.334900  0.867800  0.019400  1
  H  H889  1  0.185700  0.839300  0.559100  1
  H  H890  1  0.685700  0.160700  0.940900  1
  H  H891  1  0.814300  0.160700  0.440900  1
  H  H892  1  0.314300  0.839300  0.059100  1
  H  H893  1  0.247300  0.827700  0.562200  1
  H  H894  1  0.747300  0.172300  0.937800  1
  H  H895  1  0.752700  0.172300  0.437800  1
  H  H896  1  0.252700  0.827700  0.062200  1
  H  H897  1  0.254600  0.904500  0.448500  1
  H  H898  1  0.754600  0.095500  0.051500  1
  H  H899  1  0.745400  0.095500  0.551500  1
  H  H900  1  0.245400  0.904500  0.948500  1
  H  H901  1  0.317200  0.899700  0.419700  1
  H  H902  1  0.817200  0.100300  0.080300  1
  H  H903  1  0.682800  0.100300  0.580300  1
  H  H904  1  0.182800  0.899700  0.919700  1
  H  H905  1  0.373700  0.851000  0.415800  1
  H  H906  1  0.873700  0.149000  0.084200  1
  H  H907  1  0.626300  0.149000  0.584200  1
  H  H908  1  0.126300  0.851000  0.915800  1
  H  H909  1  0.375000  0.836100  0.449100  1
  H  H910  1  0.875000  0.163900  0.050900  1
  H  H911  1  0.625000  0.163900  0.550900  1
  H  H912  1  0.125000  0.836100  0.949100  1
  H  H913  1  0.498500  0.854500  0.471300  1
  H  H914  1  0.998500  0.145500  0.028700  1
  H  H915  1  0.501500  0.145500  0.528700  1
  H  H916  1  0.001500  0.854500  0.971300  1
  H  H917  1  0.594500  0.900100  0.459900  1
  H  H918  1  0.094500  0.099900  0.040100  1
  H  H919  1  0.405500  0.099900  0.540100  1
  H  H920  1  0.905500  0.900100  0.959900  1
  H  H921  1  0.565900  0.960200  0.469600  1
  H  H922  1  0.065900  0.039800  0.030400  1
  H  H923  1  0.434100  0.039800  0.530400  1
  H  H924  1  0.934100  0.960200  0.969600  1
  H  H925  1  0.503600  0.967600  0.480100  1
  H  H926  1  0.003600  0.032400  0.019900  1
  H  H927  1  0.496400  0.032400  0.519900  1
  H  H928  1  0.996400  0.967600  0.980100  1
  H  H929  1  0.439800  0.861500  0.442800  1
  H  H930  1  0.939800  0.138500  0.057200  1
  H  H931  1  0.560200  0.138500  0.557200  1
  H  H932  1  0.060200  0.861500  0.942800  1
  H  H933  1  0.357100  0.937000  0.502600  1
  H  H934  1  0.857100  0.063000  0.997400  1
  H  H935  1  0.642900  0.063000  0.497400  1
  H  H936  1  0.142900  0.937000  0.002600  1
  H  H937  1  0.398200  0.988700  0.540200  1
  H  H938  1  0.898200  0.011300  0.959800  1
  H  H939  1  0.601800  0.011300  0.459800  1
  H  H940  1  0.101800  0.988700  0.040200  1
  H  H941  1  0.460200  0.976900  0.529100  1
  H  H942  1  0.960200  0.023100  0.970900  1
  H  H943  1  0.539800  0.023100  0.470900  1
  H  H944  1  0.039800  0.976900  0.029100  1
  H  H945  1  0.481800  0.855200  0.732600  1
  H  H946  1  0.981800  0.144800  0.767400  1
  H  H947  1  0.518200  0.144800  0.267400  1
  H  H948  1  0.018200  0.855200  0.232600  1
  H  H949  1  0.474200  0.916700  0.730500  1
  H  H950  1  0.974200  0.083300  0.769500  1
  H  H951  1  0.525800  0.083300  0.269500  1
  H  H952  1  0.025800  0.916700  0.230500  1
  H  H953  1  0.518800  0.939400  0.702000  1
  H  H954  1  0.018800  0.060600  0.798000  1
  H  H955  1  0.481200  0.060600  0.298000  1
  H  H956  1  0.981200  0.939400  0.202000  1
  H  H957  1  0.571100  0.900500  0.675600  1
  H  H958  1  0.071100  0.099500  0.824400  1
  H  H959  1  0.428900  0.099500  0.324400  1
  H  H960  1  0.928900  0.900500  0.175600  1
  H  H961  1  0.493500  0.789500  0.731700  1
  H  H962  1  0.993500  0.210500  0.768300  1
  H  H963  1  0.506500  0.210500  0.268300  1
  H  H964  1  0.006500  0.789500  0.231700  1
  H  H965  1  0.530000  0.726800  0.719200  1
  H  H966  1  0.030000  0.273200  0.780800  1
  H  H967  1  0.470000  0.273200  0.280800  1
  H  H968  1  0.970000  0.726800  0.219200  1
  H  H969  1  0.599000  0.704700  0.695200  1
  H  H970  1  0.099000  0.295300  0.804800  1
  H  H971  1  0.401000  0.295300  0.304800  1
  H  H972  1  0.901000  0.704700  0.195200  1
  H  H973  1  0.621400  0.734100  0.683100  1
  H  H974  1  0.121400  0.265900  0.816900  1
  H  H975  1  0.378600  0.265900  0.316900  1
  H  H976  1  0.878600  0.734100  0.183100  1
  H  H977  1  0.408200  0.570900  0.298600  1
  H  H978  1  0.908200  0.429100  0.201400  1
  H  H979  1  0.591800  0.429100  0.701400  1
  H  H980  1  0.091800  0.570900  0.798600  1
  H  H981  1  0.388500  0.507700  0.248100  1
  H  H982  1  0.888500  0.492300  0.251900  1
  H  H983  1  0.611500  0.492300  0.751900  1
  H  H984  1  0.111500  0.507700  0.748100  1
  H  H985  1  0.402400  0.447800  0.251100  1
  H  H986  1  0.902400  0.552200  0.248900  1
  H  H987  1  0.597600  0.552200  0.748900  1
  H  H988  1  0.097600  0.447800  0.751100  1
  H  H989  1  0.436000  0.451000  0.304700  1
  H  H990  1  0.936000  0.549000  0.195300  1
  H  H991  1  0.564000  0.549000  0.695300  1
  H  H992  1  0.064000  0.451000  0.804700  1
  H  H993  1  0.429500  0.635300  0.357500  1
  H  H994  1  0.929500  0.364700  0.142500  1
  H  H995  1  0.570500  0.364700  0.642500  1
  H  H996  1  0.070500  0.635300  0.857500  1
  H  H997  1  0.470600  0.676500  0.416400  1
  H  H998  1  0.970600  0.323500  0.083600  1
  H  H999  1  0.529400  0.323500  0.583600  1
  H  H1000  1  0.029400  0.676500  0.916400  1
  H  H1001  1  0.528000  0.651700  0.440500  1
  H  H1002  1  0.028000  0.348300  0.059500  1
  H  H1003  1  0.472000  0.348300  0.559500  1
  H  H1004  1  0.972000  0.651700  0.940500  1
  H  H1005  1  0.530800  0.604400  0.428200  1
  H  H1006  1  0.030800  0.395600  0.071800  1
  H  H1007  1  0.469200  0.395600  0.571800  1
  H  H1008  1  0.969200  0.604400  0.928200  1
  H  H1009  1  0.543300  0.702100  0.624600  1
  H  H1010  1  0.043300  0.297900  0.875400  1
  H  H1011  1  0.456700  0.297900  0.375400  1
  H  H1012  1  0.956700  0.702100  0.124600  1
  H  H1013  1  0.644700  0.666400  0.633400  1
  H  H1014  1  0.144700  0.333600  0.866600  1
  H  H1015  1  0.355300  0.333600  0.366600  1
  H  H1016  1  0.855300  0.666400  0.133400  1
  H  H1017  1  0.643800  0.619200  0.565400  1
  H  H1018  1  0.143800  0.380800  0.934600  1
  H  H1019  1  0.356200  0.380800  0.434600  1
  H  H1020  1  0.856200  0.619200  0.065400  1
  H  H1021  1  0.592700  0.613400  0.527000  1
  H  H1022  1  0.092700  0.386600  0.973000  1
  H  H1023  1  0.407300  0.386600  0.473000  1
  H  H1024  1  0.907300  0.613400  0.027000  1
  H  H1025  1  0.559100  0.640800  0.496900  1
  H  H1026  1  0.059100  0.359200  0.003100  1
  H  H1027  1  0.440900  0.359200  0.503100  1
  H  H1028  1  0.940900  0.640800  0.996900  1
  H  H1029  1  0.451000  0.637800  0.480400  1
  H  H1030  1  0.951000  0.362200  0.019600  1
  H  H1031  1  0.549000  0.362200  0.519600  1
  H  H1032  1  0.049000  0.637800  0.980400  1
  H  H1033  1  0.442000  0.652500  0.546900  1
  H  H1034  1  0.942000  0.347500  0.953100  1
  H  H1035  1  0.558000  0.347500  0.453100  1
  H  H1036  1  0.058000  0.652500  0.046900  1
  H  H1037  1  0.491500  0.661300  0.588300  1
  H  H1038  1  0.991500  0.338700  0.911700  1
  H  H1039  1  0.508500  0.338700  0.411700  1
  H  H1040  1  0.008500  0.661300  0.088300  1
  H  H1041  1  0.677700  0.702500  0.574800  1
  H  H1042  1  0.177700  0.297500  0.925200  1
  H  H1043  1  0.322300  0.297500  0.425200  1
  H  H1044  1  0.822300  0.702500  0.074800  1
  H  H1045  1  0.725300  0.705500  0.616500  1
  H  H1046  1  0.225300  0.294500  0.883500  1
  H  H1047  1  0.274700  0.294500  0.383500  1
  H  H1048  1  0.774700  0.705500  0.116500  1
  H  H1049  1  0.725800  0.755800  0.683500  1
  H  H1050  1  0.225800  0.244200  0.816500  1
  H  H1051  1  0.274200  0.244200  0.316500  1
  H  H1052  1  0.774200  0.755800  0.183500  1
  H  H1053  1  0.678700  0.803200  0.708700  1
  H  H1054  1  0.178700  0.196800  0.791300  1
  H  H1055  1  0.321300  0.196800  0.291300  1
  H  H1056  1  0.821300  0.803200  0.208700  1
  H  H1057  1  0.623600  0.702600  0.535900  1
  H  H1058  1  0.123600  0.297400  0.964100  1
  H  H1059  1  0.376400  0.297400  0.464100  1
  H  H1060  1  0.876400  0.702600  0.035900  1
  H  H1061  1  0.567500  0.733000  0.522100  1
  H  H1062  1  0.067500  0.267000  0.977900  1
  H  H1063  1  0.432500  0.267000  0.477900  1
  H  H1064  1  0.932500  0.733000  0.022100  1
  H  H1065  1  0.540600  0.808000  0.562200  1
  H  H1066  1  0.040600  0.192000  0.937800  1
  H  H1067  1  0.459400  0.192000  0.437800  1
  H  H1068  1  0.959400  0.808000  0.062200  1
  H  H1069  1  0.554400  0.835400  0.606900  1
  H  H1070  1  0.054400  0.164600  0.893100  1
  H  H1071  1  0.445600  0.164600  0.393100  1
  H  H1072  1  0.945600  0.835400  0.106900  1
  H  H1073  1  0.295400  0.698500  0.489600  1
  H  H1074  1  0.795400  0.301500  0.010400  1
  H  H1075  1  0.704600  0.301500  0.510400  1
  H  H1076  1  0.204600  0.698500  0.989600  1
  H  H1077  1  0.291000  0.672600  0.420400  1
  H  H1078  1  0.791000  0.327400  0.079600  1
  H  H1079  1  0.709000  0.327400  0.579600  1
  H  H1080  1  0.209000  0.672600  0.920400  1
  H  H1081  1  0.301300  0.715400  0.391800  1
  H  H1082  1  0.801300  0.284600  0.108200  1
  H  H1083  1  0.698700  0.284600  0.608200  1
  H  H1084  1  0.198700  0.715400  0.891800  1
  H  H1085  1  0.316200  0.784100  0.432400  1
  H  H1086  1  0.816200  0.215900  0.067600  1
  H  H1087  1  0.683800  0.215900  0.567600  1
  H  H1088  1  0.183800  0.784100  0.932400  1
  H  H1089  1  0.301900  0.732200  0.564300  1
  H  H1090  1  0.801900  0.267800  0.935700  1
  H  H1091  1  0.698100  0.267800  0.435700  1
  H  H1092  1  0.198100  0.732200  0.064300  1
  H  H1093  1  0.305900  0.792700  0.633800  1
  H  H1094  1  0.805900  0.207300  0.866200  1
  H  H1095  1  0.694100  0.207300  0.366200  1
  H  H1096  1  0.194100  0.792700  0.133800  1
  H  H1097  1  0.306200  0.871600  0.658100  1
  H  H1098  1  0.806200  0.128400  0.841900  1
  H  H1099  1  0.693800  0.128400  0.341900  1
  H  H1100  1  0.193800  0.871600  0.158100  1
  H  H1101  1  0.307800  0.886300  0.624800  1
  H  H1102  1  0.807800  0.113700  0.875200  1
  H  H1103  1  0.692200  0.113700  0.375200  1
  H  H1104  1  0.192200  0.886300  0.124800  1
  H  H1105  1  0.488600  0.856200  0.613400  1
  H  H1106  1  0.988600  0.143800  0.886600  1
  H  H1107  1  0.511400  0.143800  0.386600  1
  H  H1108  1  0.011400  0.856200  0.113400  1
  H  H1109  1  0.518200  0.744900  0.598900  1
  H  H1110  1  0.018200  0.255100  0.901100  1
  H  H1111  1  0.481800  0.255100  0.401100  1
  H  H1112  1  0.981800  0.744900  0.098900  1
  H  H1113  1  0.461900  0.737600  0.622600  1
  H  H1114  1  0.961900  0.262400  0.877400  1
  H  H1115  1  0.538100  0.262400  0.377400  1
  H  H1116  1  0.038100  0.737600  0.122600  1
  H  H1117  1  0.418900  0.789700  0.641800  1
  H  H1118  1  0.918900  0.210300  0.858200  1
  H  H1119  1  0.581100  0.210300  0.358200  1
  H  H1120  1  0.081100  0.789700  0.141800  1
  H  H1121  1  0.379000  0.821700  0.621300  1
  H  H1122  1  0.879000  0.178300  0.878700  1
  H  H1123  1  0.621000  0.178300  0.378700  1
  H  H1124  1  0.121000  0.821700  0.121300  1
  H  H1125  1  0.350700  0.941000  0.668600  1
  H  H1126  1  0.850700  0.059000  0.831400  1
  H  H1127  1  0.649300  0.059000  0.331400  1
  H  H1128  1  0.149300  0.941000  0.168600  1
  H  H1129  1  0.411500  0.959800  0.680700  1
  H  H1130  1  0.911500  0.040200  0.819300  1
  H  H1131  1  0.588500  0.040200  0.319300  1
  H  H1132  1  0.088500  0.959800  0.180700  1
  H  H1133  1  0.456000  0.909600  0.663100  1
  H  H1134  1  0.956000  0.090400  0.836900  1
  H  H1135  1  0.544000  0.090400  0.336900  1
  H  H1136  1  0.044000  0.909600  0.163100  1
  H  H1137  1  0.492800  0.550600  0.522400  1
  H  H1138  1  0.992800  0.449400  0.977600  1
  H  H1139  1  0.507200  0.449400  0.477600  1
  H  H1140  1  0.007200  0.550600  0.022400  1
  H  H1141  1  0.555800  0.549100  0.522900  1
  H  H1142  1  0.055800  0.450900  0.977100  1
  H  H1143  1  0.444200  0.450900  0.477100  1
  H  H1144  1  0.944200  0.549100  0.022900  1
  H  H1145  1  0.588200  0.537400  0.465500  1
  H  H1146  1  0.088200  0.462600  0.034500  1
  H  H1147  1  0.411800  0.462600  0.534500  1
  H  H1148  1  0.911800  0.537400  0.965500  1
  H  H1149  1  0.557500  0.527200  0.407700  1
  H  H1150  1  0.057500  0.472800  0.092300  1
  H  H1151  1  0.442500  0.472800  0.592300  1
  H  H1152  1  0.942500  0.527200  0.907700  1
  H  H1153  1  0.425300  0.537900  0.511200  1
  H  H1154  1  0.925300  0.462100  0.988800  1
  H  H1155  1  0.574700  0.462100  0.488800  1
  H  H1156  1  0.074700  0.537900  0.011200  1
  H  H1157  1  0.366500  0.527000  0.473400  1
  H  H1158  1  0.866500  0.473000  0.026600  1
  H  H1159  1  0.633500  0.473000  0.526600  1
  H  H1160  1  0.133500  0.527000  0.973400  1
  H  H1161  1  0.350700  0.513700  0.401500  1
  H  H1162  1  0.850700  0.486300  0.098500  1
  H  H1163  1  0.649300  0.486300  0.598500  1
  H  H1164  1  0.149300  0.513700  0.901500  1
  H  H1165  1  0.383600  0.505300  0.371300  1
  H  H1166  1  0.883600  0.494700  0.128700  1
  H  H1167  1  0.616400  0.494700  0.628700  1
  H  H1168  1  0.116400  0.505300  0.871300  1
  H  H1169  1  0.396500  0.964400  0.604900  1
  H  H1170  1  0.896500  0.035600  0.895100  1
  H  H1171  1  0.603500  0.035600  0.395100  1
  H  H1172  1  0.103500  0.964400  0.104900  1
  H  H1173  1  0.350600  0.012900  0.634100  1
  H  H1174  1  0.850600  0.987100  0.865900  1
  H  H1175  1  0.649400  0.987100  0.365900  1
  H  H1176  1  0.149400  0.012900  0.134100  1
  H  H1177  1  0.290200  0.993200  0.620200  1
  H  H1178  1  0.790200  0.006800  0.879800  1
  H  H1179  1  0.709800  0.006800  0.379800  1
  H  H1180  1  0.209800  0.993200  0.120200  1
  H  H1181  1  0.275600  0.925000  0.577000  1
  H  H1182  1  0.775600  0.075000  0.923000  1
  H  H1183  1  0.724400  0.075000  0.423000  1
  H  H1184  1  0.224400  0.925000  0.077000  1
  H  H1185  1  0.441200  0.908200  0.577300  1
  H  H1186  1  0.941200  0.091800  0.922700  1
  H  H1187  1  0.558800  0.091800  0.422700  1
  H  H1188  1  0.058800  0.908200  0.077300  1
  H  H1189  1  0.463000  0.837200  0.528500  1
  H  H1190  1  0.963000  0.162800  0.971500  1
  H  H1191  1  0.537000  0.162800  0.471500  1
  H  H1192  1  0.037000  0.837200  0.028500  1
  H  H1193  1  0.431200  0.777900  0.467800  1
  H  H1194  1  0.931200  0.222100  0.032200  1
  H  H1195  1  0.568800  0.222100  0.532200  1
  H  H1196  1  0.068800  0.777900  0.967800  1
  H  H1197  1  0.389100  0.782200  0.462100  1
  H  H1198  1  0.889100  0.217800  0.037900  1
  H  H1199  1  0.610900  0.217800  0.537900  1
  H  H1200  1  0.110900  0.782200  0.962100  1
  H  H1201  1  0.388700  0.601400  0.453400  1
  H  H1202  1  0.888700  0.398600  0.046600  1
  H  H1203  1  0.611300  0.398600  0.546600  1
  H  H1204  1  0.111300  0.601400  0.953400  1
  H  H1205  1  0.343900  0.540000  0.343400  1
  H  H1206  1  0.843900  0.460000  0.156600  1
  H  H1207  1  0.656100  0.460000  0.656600  1
  H  H1208  1  0.156100  0.540000  0.843400  1
  H  H1209  1  0.335500  0.601600  0.341800  1
  H  H1210  1  0.835500  0.398400  0.158200  1
  H  H1211  1  0.664500  0.398400  0.658200  1
  H  H1212  1  0.164500  0.601600  0.841800  1
  H  H1213  1  0.353600  0.663200  0.395900  1
  H  H1214  1  0.853600  0.336800  0.104100  1
  H  H1215  1  0.646400  0.336800  0.604100  1
  H  H1216  1  0.146400  0.663200  0.895900  1
  H  H1217  1  0.391200  0.708500  0.433000  1
  H  H1218  1  0.891200  0.291500  0.067000  1
  H  H1219  1  0.608800  0.291500  0.567000  1
  H  H1220  1  0.108800  0.708500  0.933000  1
  H  H1221  1  0.406100  0.779600  0.551900  1
  H  H1222  1  0.906100  0.220400  0.948100  1
  H  H1223  1  0.593900  0.220400  0.448100  1
  H  H1224  1  0.093900  0.779600  0.051900  1
  H  H1225  1  0.391800  0.724200  0.562800  1
  H  H1226  1  0.891800  0.275800  0.937200  1
  H  H1227  1  0.608200  0.275800  0.437200  1
  H  H1228  1  0.108200  0.724200  0.062800  1
  H  H1229  1  0.377100  0.661000  0.508800  1
  H  H1230  1  0.877100  0.339000  0.991200  1
  H  H1231  1  0.622900  0.339000  0.491200  1
  H  H1232  1  0.122900  0.661000  0.008800  1
  H  H1233  1  0.309200  0.572300  0.012700  1
  H  H1234  1  0.809200  0.427700  0.487300  1
  H  H1235  1  0.690800  0.427700  0.987300  1
  H  H1236  1  0.190800  0.572300  0.512700  1
  H  H1237  1  0.300800  0.590800  0.059300  1
  H  H1238  1  0.800800  0.409200  0.440700  1
  H  H1239  1  0.699200  0.409200  0.940700  1
  H  H1240  1  0.199200  0.590800  0.559300  1
  H  H1241  1  0.277000  0.553900  0.027300  1
  H  H1242  1  0.777000  0.446100  0.472700  1
  H  H1243  1  0.723000  0.446100  0.972700  1
  H  H1244  1  0.223000  0.553900  0.527300  1
  H  H1245  1  0.372700  0.982900  0.360200  1
  H  H1246  1  0.872700  0.017100  0.139800  1
  H  H1247  1  0.627300  0.017100  0.639800  1
  H  H1248  1  0.127300  0.982900  0.860200  1
  H  H1249  1  0.403400  0.015600  0.366400  1
  H  H1250  1  0.903400  0.984400  0.133600  1
  H  H1251  1  0.596600  0.984400  0.633600  1
  H  H1252  1  0.096600  0.015600  0.866400  1
  H  H1253  1  0.411600  0.979100  0.376400  1
  H  H1254  1  0.911600  0.020900  0.123600  1
  H  H1255  1  0.588400  0.020900  0.623600  1
  H  H1256  1  0.088400  0.979100  0.876400  1
  H  H1257  1  0.281900  0.491300  0.195700  1
  H  H1258  1  0.781900  0.508700  0.304300  1
  H  H1259  1  0.718100  0.508700  0.804300  1
  H  H1260  1  0.218100  0.491300  0.695700  1
  H  H1261  1  0.279700  0.522800  0.178100  1
  H  H1262  1  0.779700  0.477200  0.321900  1
  H  H1263  1  0.720300  0.477200  0.821900  1
  H  H1264  1  0.220300  0.522800  0.678100  1
  H  H1265  1  0.261900  0.534200  0.220500  1
  H  H1266  1  0.761900  0.465800  0.279500  1
  H  H1267  1  0.738100  0.465800  0.779500  1
  H  H1268  1  0.238100  0.534200  0.720500  1
  H  H1269  1  0.552200  0.511600  0.173600  1
  H  H1270  1  0.052200  0.488400  0.326400  1
  H  H1271  1  0.447800  0.488400  0.826400  1
  H  H1272  1  0.947800  0.511600  0.673600  1
  H  H1273  1  0.576700  0.492800  0.195500  1
  H  H1274  1  0.076700  0.507200  0.304500  1
  H  H1275  1  0.423300  0.507200  0.804500  1
  H  H1276  1  0.923300  0.492800  0.695500  1
  H  H1277  1  0.593500  0.500700  0.161000  1
  H  H1278  1  0.093500  0.499300  0.339000  1
  H  H1279  1  0.406500  0.499300  0.839000  1
  H  H1280  1  0.906500  0.500700  0.661000  1
  H  H1281  1  0.550700  0.935500  0.549400  1
  H  H1282  1  0.050700  0.064500  0.950600  1
  H  H1283  1  0.449300  0.064500  0.450600  1
  H  H1284  1  0.949300  0.935500  0.049400  1
  H  H1285  1  0.550900  0.968100  0.595800  1
  H  H1286  1  0.050900  0.031900  0.904200  1
  H  H1287  1  0.449100  0.031900  0.404200  1
  H  H1288  1  0.949100  0.968100  0.095800  1
  H  H1289  1  0.515400  0.941800  0.575900  1
  H  H1290  1  0.015400  0.058200  0.924100  1
  H  H1291  1  0.484600  0.058200  0.424100  1
  H  H1292  1  0.984600  0.941800  0.075900  1
  H  H1293  1  0.662200  0.592700  0.665400  1
  H  H1294  1  0.162200  0.407300  0.834600  1
  H  H1295  1  0.337800  0.407300  0.334600  1
  H  H1296  1  0.837800  0.592700  0.165400  1
  H  H1297  1  0.697600  0.616800  0.664300  1
  H  H1298  1  0.197600  0.383200  0.835700  1
  H  H1299  1  0.302400  0.383200  0.335700  1
  H  H1300  1  0.802400  0.616800  0.164300  1
  H  H1301  1  0.699800  0.569000  0.650800  1
  H  H1302  1  0.199800  0.431000  0.849200  1
  H  H1303  1  0.300200  0.431000  0.349200  1
  H  H1304  1  0.800200  0.569000  0.150800  1
  H  H1305  1  0.402000  0.602500  0.571100  1
  H  H1306  1  0.902000  0.397500  0.928900  1
  H  H1307  1  0.598000  0.397500  0.428900  1
  H  H1308  1  0.098000  0.602500  0.071100  1
  H  H1309  1  0.394300  0.624400  0.618100  1
  H  H1310  1  0.894300  0.375600  0.881900  1
  H  H1311  1  0.605700  0.375600  0.381900  1
  H  H1312  1  0.105700  0.624400  0.118100  1
  H  H1313  1  0.369200  0.587500  0.588300  1
  H  H1314  1  0.869200  0.412500  0.911700  1
  H  H1315  1  0.630800  0.412500  0.411700  1
  H  H1316  1  0.130800  0.587500  0.088300  1
  H  H1317  1  0.333800  0.796500  0.747300  1
  H  H1318  1  0.833800  0.203500  0.752700  1
  H  H1319  1  0.666200  0.203500  0.252700  1
  H  H1320  1  0.166200  0.796500  0.247300  1
  H  H1321  1  0.297400  0.780200  0.722000  1
  H  H1322  1  0.797400  0.219800  0.778000  1
  H  H1323  1  0.702600  0.219800  0.278000  1
  H  H1324  1  0.202600  0.780200  0.222000  1
  H  H1325  1  0.335600  0.763200  0.701100  1
  H  H1326  1  0.835600  0.236800  0.798900  1
  H  H1327  1  0.664400  0.236800  0.298900  1
  H  H1328  1  0.164400  0.763200  0.201100  1
  H  H1329  1  0.587000  0.757300  0.842200  1
  H  H1330  1  0.087000  0.242700  0.657800  1
  H  H1331  1  0.413000  0.242700  0.157800  1
  H  H1332  1  0.913000  0.757300  0.342200  1
  H  H1333  1  0.614300  0.780500  0.827100  1
  H  H1334  1  0.114300  0.219500  0.672900  1
  H  H1335  1  0.385700  0.219500  0.172900  1
  H  H1336  1  0.885700  0.780500  0.327100  1
  H  H1337  1  0.591600  0.742300  0.795400  1
  H  H1338  1  0.091600  0.257700  0.704600  1
  H  H1339  1  0.408400  0.257700  0.204600  1
  H  H1340  1  0.908400  0.742300  0.295400  1
  H  H1341  1  0.691400  0.697400  0.750500  1
  H  H1342  1  0.191400  0.302600  0.749500  1
  H  H1343  1  0.308600  0.302600  0.249500  1
  H  H1344  1  0.808600  0.697400  0.250500  1
  H  H1345  1  0.666500  0.720900  0.789100  1
  H  H1346  1  0.166500  0.279100  0.710900  1
  H  H1347  1  0.333500  0.279100  0.210900  1
  H  H1348  1  0.833500  0.720900  0.289100  1
  H  H1349  1  0.709100  0.728300  0.792400  1
  H  H1350  1  0.209100  0.271700  0.707600  1
  H  H1351  1  0.290900  0.271700  0.207600  1
  H  H1352  1  0.790900  0.728300  0.292400  1
  H  H1353  1  0.221600  0.550300  0.827100  1
  H  H1354  1  0.721600  0.449700  0.672900  1
  H  H1355  1  0.778400  0.449700  0.172900  1
  H  H1356  1  0.278400  0.550300  0.327100  1
  H  H1357  1  0.263700  0.547400  0.834600  1
  H  H1358  1  0.763700  0.452600  0.665400  1
  H  H1359  1  0.736300  0.452600  0.165400  1
  H  H1360  1  0.236300  0.547400  0.334600  1
  H  H1361  1  0.248400  0.528400  0.789900  1
  H  H1362  1  0.748400  0.471600  0.710100  1
  H  H1363  1  0.751600  0.471600  0.210100  1
  H  H1364  1  0.251600  0.528400  0.289900  1
  H  H1365  1  0.669500  0.614600  0.783200  1
  H  H1366  1  0.169500  0.385400  0.716800  1
  H  H1367  1  0.330500  0.385400  0.216800  1
  H  H1368  1  0.830500  0.614600  0.283200  1
  H  H1369  1  0.639100  0.596600  0.749300  1
  H  H1370  1  0.139100  0.403400  0.750700  1
  H  H1371  1  0.360900  0.403400  0.250700  1
  H  H1372  1  0.860900  0.596600  0.249300  1
  H  H1373  1  0.677200  0.610600  0.740100  1
  H  H1374  1  0.177200  0.389400  0.759900  1
  H  H1375  1  0.322800  0.389400  0.259900  1
  H  H1376  1  0.822800  0.610600  0.240100  1
  C  C1377  1  0.404940  0.796050  0.233950  1
  C  C1378  1  0.904940  0.203950  0.266050  1
  C  C1379  1  0.595060  0.203950  0.766050  1
  C  C1380  1  0.095060  0.796050  0.733950  1
  C  C1381  1  0.409960  0.821590  0.274550  1
  C  C1382  1  0.909960  0.178410  0.225450  1
  C  C1383  1  0.590040  0.178410  0.725450  1
  C  C1384  1  0.090040  0.821590  0.774550  1
  C  C1385  1  0.416980  0.805000  0.299900  1
  C  C1386  1  0.916980  0.195000  0.200100  1
  C  C1387  1  0.583020  0.195000  0.700100  1
  C  C1388  1  0.083020  0.805000  0.799900  1
  C  C1389  1  0.418970  0.762880  0.284650  1
  C  C1390  1  0.918970  0.237120  0.215350  1
  C  C1391  1  0.581030  0.237120  0.715350  1
  C  C1392  1  0.081030  0.762880  0.784650  1
  C  C1393  1  0.413950  0.737340  0.244060  1
  C  C1394  1  0.913950  0.262660  0.255940  1
  C  C1395  1  0.586050  0.262660  0.755940  1
  C  C1396  1  0.086050  0.737340  0.744060  1
  C  C1397  1  0.400220  0.809180  0.206930  1
  C  C1398  1  0.900220  0.190820  0.293070  1
  C  C1399  1  0.599780  0.190820  0.793070  1
  C  C1400  1  0.099780  0.809180  0.706930  1
  C  C1401  1  0.395660  0.848580  0.210080  1
  C  C1402  1  0.895660  0.151420  0.289920  1
  C  C1403  1  0.604340  0.151420  0.789920  1
  C  C1404  1  0.104340  0.848580  0.710080  1
  C  C1405  1  0.394050  0.844070  0.170850  1
  C  C1406  1  0.894050  0.155930  0.329150  1
  C  C1407  1  0.605950  0.155930  0.829150  1
  C  C1408  1  0.105950  0.844070  0.670850  1
  C  C1409  1  0.396690  0.783400  0.103400  1
  C  C1410  1  0.896690  0.216600  0.396600  1
  C  C1411  1  0.603310  0.216600  0.896600  1
  C  C1412  1  0.103310  0.783400  0.603400  1
  C  C1413  1  0.362010  0.605230  0.763230  1
  C  C1414  1  0.862010  0.394770  0.736770  1
  C  C1415  1  0.637990  0.394770  0.236770  1
  C  C1416  1  0.137990  0.605230  0.263230  1
  C  C1417  1  0.346100  0.582860  0.725970  1
  C  C1418  1  0.846100  0.417140  0.774030  1
  C  C1419  1  0.653900  0.417140  0.274030  1
  C  C1420  1  0.153900  0.582860  0.225970  1
  C  C1421  1  0.348750  0.596270  0.697520  1
  C  C1422  1  0.848750  0.403730  0.802480  1
  C  C1423  1  0.651250  0.403730  0.302480  1
  C  C1424  1  0.151250  0.596270  0.197520  1
  C  C1425  1  0.367320  0.632070  0.706320  1
  C  C1426  1  0.867320  0.367930  0.793680  1
  C  C1427  1  0.632680  0.367930  0.293680  1
  C  C1428  1  0.132680  0.632070  0.206320  1
  C  C1429  1  0.383230  0.654440  0.743580  1
  C  C1430  1  0.883230  0.345560  0.756420  1
  C  C1431  1  0.616770  0.345560  0.256420  1
  C  C1432  1  0.116770  0.654440  0.243580  1
  C  C1433  1  0.359750  0.595590  0.792630  1
  C  C1434  1  0.859750  0.404410  0.707370  1
  C  C1435  1  0.640250  0.404410  0.207370  1
  C  C1436  1  0.140250  0.595590  0.292630  1
  C  C1437  1  0.347730  0.560100  0.794300  1
  C  C1438  1  0.847730  0.439900  0.705700  1
  C  C1439  1  0.652270  0.439900  0.205700  1
  C  C1440  1  0.152270  0.560100  0.294300  1
  C  C1441  1  0.351560  0.567140  0.834250  1
  C  C1442  1  0.851560  0.432860  0.665750  1
  C  C1443  1  0.648440  0.432860  0.165750  1
  C  C1444  1  0.148440  0.567140  0.334250  1
  C  C1445  1  0.369760  0.628200  0.897600  1
  C  C1446  1  0.869760  0.371800  0.602400  1
  C  C1447  1  0.630240  0.371800  0.102400  1
  C  C1448  1  0.130240  0.628200  0.397600  1
  C  C1449  1  0.323240  0.740970  0.025360  1
  C  C1450  1  0.823240  0.259030  0.474640  1
  C  C1451  1  0.676760  0.259030  0.974640  1
  C  C1452  1  0.176760  0.740970  0.525360  1
  C  C1453  1  0.356820  0.751690  0.043670  1
  C  C1454  1  0.856820  0.248310  0.456330  1
  C  C1455  1  0.643180  0.248310  0.956330  1
  C  C1456  1  0.143180  0.751690  0.543670  1
  C  C1457  1  0.359250  0.773220  0.085050  1
  C  C1458  1  0.859250  0.226780  0.414950  1
  C  C1459  1  0.640750  0.226780  0.914950  1
  C  C1460  1  0.140750  0.773220  0.585050  1
  C  C1461  1  0.328090  0.784030  0.108120  1
  C  C1462  1  0.828090  0.215970  0.391880  1
  C  C1463  1  0.671910  0.215970  0.891880  1
  C  C1464  1  0.171910  0.784030  0.608120  1
  C  C1465  1  0.294510  0.773310  0.089810  1
  C  C1466  1  0.794510  0.226690  0.410190  1
  C  C1467  1  0.705490  0.226690  0.910190  1
  C  C1468  1  0.205490  0.773310  0.589810  1
  C  C1469  1  0.292090  0.751780  0.048430  1
  C  C1470  1  0.792090  0.248220  0.451570  1
  C  C1471  1  0.707910  0.248220  0.951570  1
  C  C1472  1  0.207910  0.751780  0.548430  1
  C  C1473  1  0.320560  0.716300  0.980010  1
  C  C1474  1  0.820560  0.283700  0.519990  1
  C  C1475  1  0.679440  0.283700  0.019990  1
  C  C1476  1  0.179440  0.716300  0.480010  1
  C  C1477  1  0.345530  0.685560  0.959280  1
  C  C1478  1  0.845530  0.314440  0.540720  1
  C  C1479  1  0.654470  0.314440  0.040720  1
  C  C1480  1  0.154470  0.685560  0.459280  1
  C  C1481  1  0.342170  0.661300  0.918250  1
  C  C1482  1  0.842170  0.338700  0.581750  1
  C  C1483  1  0.657830  0.338700  0.081750  1
  C  C1484  1  0.157830  0.661300  0.418250  1
  C  C1485  1  0.313840  0.667780  0.897930  1
  C  C1486  1  0.813840  0.332220  0.602070  1
  C  C1487  1  0.686160  0.332220  0.102070  1
  C  C1488  1  0.186160  0.667780  0.397930  1
  C  C1489  1  0.288870  0.698510  0.918650  1
  C  C1490  1  0.788870  0.301490  0.581350  1
  C  C1491  1  0.711130  0.301490  0.081350  1
  C  C1492  1  0.211130  0.698510  0.418650  1
  C  C1493  1  0.292230  0.722770  0.959690  1
  C  C1494  1  0.792230  0.277230  0.540310  1
  C  C1495  1  0.707770  0.277230  0.040310  1
  C  C1496  1  0.207770  0.722770  0.459690  1
  C  C1497  1  0.322180  0.706620  0.127880  1
  C  C1498  1  0.822180  0.293380  0.372120  1
  C  C1499  1  0.677820  0.293380  0.872120  1
  C  C1500  1  0.177820  0.706620  0.627880  1
  C  C1501  1  0.284720  0.706200  0.128620  1
  C  C1502  1  0.784720  0.293800  0.371380  1
  C  C1503  1  0.715280  0.293800  0.871380  1
  C  C1504  1  0.215280  0.706200  0.628620  1
  C  C1505  1  0.266500  0.726520  0.164740  1
  C  C1506  1  0.766500  0.273480  0.335260  1
  C  C1507  1  0.733500  0.273480  0.835260  1
  C  C1508  1  0.233500  0.726520  0.664740  1
  C  C1509  1  0.285740  0.747260  0.200120  1
  C  C1510  1  0.785740  0.252740  0.299880  1
  C  C1511  1  0.714260  0.252740  0.799880  1
  C  C1512  1  0.214260  0.747260  0.700120  1
  C  C1513  1  0.323200  0.747690  0.199380  1
  C  C1514  1  0.823200  0.252310  0.300620  1
  C  C1515  1  0.676800  0.252310  0.800620  1
  C  C1516  1  0.176800  0.747690  0.699380  1
  C  C1517  1  0.342320  0.687510  0.094580  1
  C  C1518  1  0.842320  0.312490  0.405420  1
  C  C1519  1  0.657680  0.312490  0.905420  1
  C  C1520  1  0.157680  0.687510  0.594580  1
  C  C1521  1  0.333800  0.662670  0.053630  1
  C  C1522  1  0.833800  0.337330  0.446370  1
  C  C1523  1  0.666200  0.337330  0.946370  1
  C  C1524  1  0.166200  0.662670  0.553630  1
  C  C1525  1  0.366640  0.651000  0.031870  1
  C  C1526  1  0.866640  0.349000  0.468130  1
  C  C1527  1  0.633360  0.349000  0.968130  1
  C  C1528  1  0.133360  0.651000  0.531870  1
  C  C1529  1  0.431650  0.666500  0.052400  1
  C  C1530  1  0.931650  0.333500  0.447600  1
  C  C1531  1  0.568350  0.333500  0.947600  1
  C  C1532  1  0.068350  0.666500  0.552400  1
  C  C1533  1  0.747370  0.638000  0.010860  1
  C  C1534  1  0.247370  0.362000  0.489140  1
  C  C1535  1  0.252630  0.362000  0.989140  1
  C  C1536  1  0.752630  0.638000  0.510860  1
  C  C1537  1  0.783940  0.631860  0.014050  1
  C  C1538  1  0.283940  0.368140  0.485950  1
  C  C1539  1  0.216060  0.368140  0.985950  1
  C  C1540  1  0.716060  0.631860  0.514050  1
  C  C1541  1  0.808530  0.637080  0.989210  1
  C  C1542  1  0.308530  0.362920  0.510790  1
  C  C1543  1  0.191470  0.362920  0.010790  1
  C  C1544  1  0.691470  0.637080  0.489210  1
  C  C1545  1  0.796560  0.648450  0.961170  1
  C  C1546  1  0.296560  0.351550  0.538830  1
  C  C1547  1  0.203440  0.351550  0.038830  1
  C  C1548  1  0.703440  0.648450  0.461170  1
  C  C1549  1  0.759990  0.654590  0.957980  1
  C  C1550  1  0.259990  0.345410  0.542020  1
  C  C1551  1  0.240010  0.345410  0.042020  1
  C  C1552  1  0.740010  0.654590  0.457980  1
  C  C1553  1  0.722400  0.634370  0.034580  1
  C  C1554  1  0.222400  0.365630  0.465420  1
  C  C1555  1  0.277600  0.365630  0.965420  1
  C  C1556  1  0.777600  0.634370  0.534580  1
  C  C1557  1  0.723660  0.622920  0.065340  1
  C  C1558  1  0.223660  0.377080  0.434660  1
  C  C1559  1  0.276340  0.377080  0.934660  1
  C  C1560  1  0.776340  0.622920  0.565340  1
  C  C1561  1  0.688300  0.626520  0.081020  1
  C  C1562  1  0.188300  0.373480  0.418980  1
  C  C1563  1  0.311700  0.373480  0.918980  1
  C  C1564  1  0.811700  0.626520  0.581020  1
  C  C1565  1  0.629500  0.650000  0.065700  1
  C  C1566  1  0.129500  0.350000  0.434300  1
  C  C1567  1  0.370500  0.350000  0.934300  1
  C  C1568  1  0.870500  0.650000  0.565700  1
  C  C1569  1  0.504170  0.590020  0.041910  1
  C  C1570  1  0.004170  0.409980  0.458090  1
  C  C1571  1  0.495830  0.409980  0.958090  1
  C  C1572  1  0.995830  0.590020  0.541910  1
  C  C1573  1  0.486550  0.623660  0.043180  1
  C  C1574  1  0.986550  0.376340  0.456820  1
  C  C1575  1  0.513450  0.376340  0.956820  1
  C  C1576  1  0.013450  0.623660  0.543180  1
  C  C1577  1  0.449680  0.628520  0.050440  1
  C  C1578  1  0.949680  0.371480  0.449560  1
  C  C1579  1  0.550320  0.371480  0.949560  1
  C  C1580  1  0.050320  0.628520  0.550440  1
  C  C1581  1  0.430430  0.599740  0.056430  1
  C  C1582  1  0.930430  0.400260  0.443570  1
  C  C1583  1  0.569570  0.400260  0.943570  1
  C  C1584  1  0.069570  0.599740  0.556430  1
  C  C1585  1  0.448050  0.566090  0.055160  1
  C  C1586  1  0.948050  0.433910  0.444840  1
  C  C1587  1  0.551950  0.433910  0.944840  1
  C  C1588  1  0.051950  0.566090  0.555160  1
  C  C1589  1  0.484920  0.561230  0.047900  1
  C  C1590  1  0.984920  0.438770  0.452100  1
  C  C1591  1  0.515080  0.438770  0.952100  1
  C  C1592  1  0.015080  0.561230  0.547900  1
  C  C1593  1  0.544400  0.584480  0.033540  1
  C  C1594  1  0.044400  0.415520  0.466460  1
  C  C1595  1  0.455600  0.415520  0.966460  1
  C  C1596  1  0.955600  0.584480  0.533540  1
  C  C1597  1  0.567430  0.617840  0.051590  1
  C  C1598  1  0.067430  0.382160  0.448410  1
  C  C1599  1  0.432570  0.382160  0.948410  1
  C  C1600  1  0.932570  0.617840  0.551590  1
  C  C1601  1  0.604390  0.612530  0.045230  1
  C  C1602  1  0.104390  0.387470  0.454770  1
  C  C1603  1  0.395610  0.387470  0.954770  1
  C  C1604  1  0.895610  0.612530  0.545230  1
  C  C1605  1  0.618330  0.573870  0.020820  1
  C  C1606  1  0.118330  0.426130  0.479180  1
  C  C1607  1  0.381670  0.426130  0.979180  1
  C  C1608  1  0.881670  0.573870  0.520820  1
  C  C1609  1  0.595310  0.540510  0.002780  1
  C  C1610  1  0.095310  0.459490  0.497220  1
  C  C1611  1  0.404690  0.459490  0.997220  1
  C  C1612  1  0.904690  0.540510  0.502780  1
  C  C1613  1  0.558340  0.545820  0.009130  1
  C  C1614  1  0.058340  0.454180  0.490870  1
  C  C1615  1  0.441660  0.454180  0.990870  1
  C  C1616  1  0.941660  0.545820  0.509130  1
  C  C1617  1  0.427930  0.646060  0.155760  1
  C  C1618  1  0.927930  0.353940  0.344240  1
  C  C1619  1  0.572070  0.353940  0.844240  1
  C  C1620  1  0.072070  0.646060  0.655760  1
  C  C1621  1  0.429800  0.609070  0.156610  1
  C  C1622  1  0.929800  0.390930  0.343390  1
  C  C1623  1  0.570200  0.390930  0.843390  1
  C  C1624  1  0.070200  0.609070  0.656610  1
  C  C1625  1  0.398440  0.590550  0.160210  1
  C  C1626  1  0.898440  0.409450  0.339790  1
  C  C1627  1  0.601560  0.409450  0.839790  1
  C  C1628  1  0.101560  0.590550  0.660210  1
  C  C1629  1  0.365210  0.609020  0.162940  1
  C  C1630  1  0.865210  0.390980  0.337060  1
  C  C1631  1  0.634790  0.390980  0.837060  1
  C  C1632  1  0.134790  0.609020  0.662940  1
  C  C1633  1  0.363340  0.646000  0.162080  1
  C  C1634  1  0.863340  0.354000  0.337920  1
  C  C1635  1  0.636660  0.354000  0.837920  1
  C  C1636  1  0.136660  0.646000  0.662080  1
  C  C1637  1  0.456740  0.665700  0.151500  1
  C  C1638  1  0.956740  0.334300  0.348500  1
  C  C1639  1  0.543260  0.334300  0.848500  1
  C  C1640  1  0.043260  0.665700  0.651500  1
  C  C1641  1  0.494350  0.657590  0.147510  1
  C  C1642  1  0.994350  0.342410  0.352490  1
  C  C1643  1  0.505650  0.342410  0.852490  1
  C  C1644  1  0.005650  0.657590  0.647510  1
  C  C1645  1  0.511530  0.689000  0.142400  1
  C  C1646  1  0.011530  0.311000  0.357600  1
  C  C1647  1  0.488470  0.311000  0.857600  1
  C  C1648  1  0.988470  0.689000  0.642400  1
  C  C1649  1  0.489500  0.753100  0.142500  1
  C  C1650  1  0.989500  0.246900  0.357500  1
  C  C1651  1  0.510500  0.246900  0.857500  1
  C  C1652  1  0.010500  0.753100  0.642500  1
  C  C1653  1  0.495900  0.067400  0.151580  1
  C  C1654  1  0.995900  0.932600  0.348420  1
  C  C1655  1  0.504100  0.932600  0.848420  1
  C  C1656  1  0.004100  0.067400  0.651580  1
  C  C1657  1  0.494450  0.108620  0.161880  1
  C  C1658  1  0.994450  0.891380  0.338120  1
  C  C1659  1  0.505550  0.891380  0.838120  1
  C  C1660  1  0.005550  0.108620  0.661880  1
  C  C1661  1  0.519340  0.124960  0.145940  1
  C  C1662  1  0.019340  0.875040  0.354060  1
  C  C1663  1  0.480660  0.875040  0.854060  1
  C  C1664  1  0.980660  0.124960  0.645940  1
  C  C1665  1  0.545670  0.100080  0.119700  1
  C  C1666  1  0.045670  0.899920  0.380300  1
  C  C1667  1  0.454330  0.899920  0.880300  1
  C  C1668  1  0.954330  0.100080  0.619700  1
  C  C1669  1  0.547120  0.058870  0.109390  1
  C  C1670  1  0.047120  0.941130  0.390610  1
  C  C1671  1  0.452880  0.941130  0.890610  1
  C  C1672  1  0.952880  0.058870  0.609390  1
  C  C1673  1  0.473380  0.048940  0.166260  1
  C  C1674  1  0.973380  0.951060  0.333740  1
  C  C1675  1  0.526620  0.951060  0.833740  1
  C  C1676  1  0.026620  0.048940  0.666260  1
  C  C1677  1  0.442480  0.062490  0.191240  1
  C  C1678  1  0.942480  0.937510  0.308760  1
  C  C1679  1  0.557520  0.937510  0.808760  1
  C  C1680  1  0.057520  0.062490  0.691240  1
  C  C1681  1  0.428310  0.028710  0.194610  1
  C  C1682  1  0.928310  0.971290  0.305390  1
  C  C1683  1  0.571690  0.971290  0.805390  1
  C  C1684  1  0.071690  0.028710  0.694610  1
  C  C1685  1  0.449300  0.956100  0.167400  1
  C  C1686  1  0.949300  0.043900  0.332600  1
  C  C1687  1  0.550700  0.043900  0.832600  1
  C  C1688  1  0.050700  0.956100  0.667400  1
  C  C1689  1  0.494330  0.864100  0.221660  1
  C  C1690  1  0.994330  0.135900  0.278340  1
  C  C1691  1  0.505670  0.135900  0.778340  1
  C  C1692  1  0.005670  0.864100  0.721660  1
  C  C1693  1  0.491300  0.829100  0.185020  1
  C  C1694  1  0.991300  0.170900  0.314980  1
  C  C1695  1  0.508700  0.170900  0.814980  1
  C  C1696  1  0.008700  0.829100  0.685020  1
  C  C1697  1  0.492400  0.790800  0.183130  1
  C  C1698  1  0.992400  0.209200  0.316870  1
  C  C1699  1  0.507600  0.209200  0.816870  1
  C  C1700  1  0.007600  0.790800  0.683130  1
  C  C1701  1  0.496530  0.787490  0.217870  1
  C  C1702  1  0.996530  0.212510  0.282130  1
  C  C1703  1  0.503470  0.212510  0.782130  1
  C  C1704  1  0.003470  0.787490  0.717870  1
  C  C1705  1  0.499570  0.822480  0.254510  1
  C  C1706  1  0.999570  0.177520  0.245490  1
  C  C1707  1  0.500430  0.177520  0.745490  1
  C  C1708  1  0.000430  0.822480  0.754510  1
  C  C1709  1  0.498470  0.860790  0.256400  1
  C  C1710  1  0.998470  0.139210  0.243600  1
  C  C1711  1  0.501530  0.139210  0.743600  1
  C  C1712  1  0.001530  0.860790  0.756400  1
  C  C1713  1  0.493670  0.905260  0.223080  1
  C  C1714  1  0.993670  0.094740  0.276920  1
  C  C1715  1  0.506330  0.094740  0.776920  1
  C  C1716  1  0.006330  0.905260  0.723080  1
  C  C1717  1  0.473770  0.911620  0.195480  1
  C  C1718  1  0.973770  0.088380  0.304520  1
  C  C1719  1  0.526230  0.088380  0.804520  1
  C  C1720  1  0.026230  0.911620  0.695480  1
  C  C1721  1  0.473290  0.949970  0.197430  1
  C  C1722  1  0.973290  0.050030  0.302570  1
  C  C1723  1  0.526710  0.050030  0.802570  1
  C  C1724  1  0.026710  0.949970  0.697430  1
  C  C1725  1  0.492720  0.981950  0.226980  1
  C  C1726  1  0.992720  0.018050  0.273020  1
  C  C1727  1  0.507280  0.018050  0.773020  1
  C  C1728  1  0.007280  0.981950  0.726980  1
  C  C1729  1  0.512620  0.975600  0.254570  1
  C  C1730  1  0.012620  0.024400  0.245430  1
  C  C1731  1  0.487380  0.024400  0.745430  1
  C  C1732  1  0.987380  0.975600  0.754570  1
  C  C1733  1  0.513100  0.937250  0.252620  1
  C  C1734  1  0.013100  0.062750  0.247380  1
  C  C1735  1  0.486900  0.062750  0.747380  1
  C  C1736  1  0.986900  0.937250  0.752620  1
  C  C1737  1  0.355010  0.742070  0.888350  1
  C  C1738  1  0.855010  0.257930  0.611650  1
  C  C1739  1  0.644990  0.257930  0.111650  1
  C  C1740  1  0.144990  0.742070  0.388350  1
  C  C1741  1  0.326740  0.769780  0.903760  1
  C  C1742  1  0.826740  0.230220  0.596240  1
  C  C1743  1  0.673260  0.230220  0.096240  1
  C  C1744  1  0.173260  0.769780  0.403760  1
  C  C1745  1  0.298150  0.767900  0.879300  1
  C  C1746  1  0.798150  0.232100  0.620700  1
  C  C1747  1  0.701850  0.232100  0.120700  1
  C  C1748  1  0.201850  0.767900  0.379300  1
  C  C1749  1  0.297820  0.738310  0.839420  1
  C  C1750  1  0.797820  0.261690  0.660580  1
  C  C1751  1  0.702180  0.261690  0.160580  1
  C  C1752  1  0.202180  0.738310  0.339420  1
  C  C1753  1  0.326090  0.710610  0.824000  1
  C  C1754  1  0.826090  0.289390  0.676000  1
  C  C1755  1  0.673910  0.289390  0.176000  1
  C  C1756  1  0.173910  0.710610  0.324000  1
  C  C1757  1  0.382650  0.741550  0.910280  1
  C  C1758  1  0.882650  0.258450  0.589720  1
  C  C1759  1  0.617350  0.258450  0.089720  1
  C  C1760  1  0.117350  0.741550  0.410280  1
  C  C1761  1  0.393170  0.767190  0.950450  1
  C  C1762  1  0.893170  0.232810  0.549550  1
  C  C1763  1  0.606830  0.232810  0.049550  1
  C  C1764  1  0.106830  0.767190  0.450450  1
  C  C1765  1  0.424870  0.750480  0.958000  1
  C  C1766  1  0.924870  0.249520  0.542000  1
  C  C1767  1  0.575130  0.249520  0.042000  1
  C  C1768  1  0.075130  0.750480  0.458000  1
  C  C1769  1  0.460380  0.686000  0.917400  1
  C  C1770  1  0.960380  0.314000  0.582600  1
  C  C1771  1  0.539620  0.314000  0.082600  1
  C  C1772  1  0.039620  0.686000  0.417400  1
  C  C1773  1  0.690580  0.740080  0.994810  1
  C  C1774  1  0.190580  0.259920  0.505190  1
  C  C1775  1  0.309420  0.259920  0.005190  1
  C  C1776  1  0.809420  0.740080  0.494810  1
  C  C1777  1  0.698930  0.781440  0.015380  1
  C  C1778  1  0.198930  0.218560  0.484620  1
  C  C1779  1  0.301070  0.218560  0.984620  1
  C  C1780  1  0.801070  0.781440  0.515380  1
  C  C1781  1  0.700710  0.801180  0.056830  1
  C  C1782  1  0.200710  0.198820  0.443170  1
  C  C1783  1  0.299290  0.198820  0.943170  1
  C  C1784  1  0.799290  0.801180  0.556830  1
  C  C1785  1  0.694130  0.779560  0.077720  1
  C  C1786  1  0.194130  0.220440  0.422280  1
  C  C1787  1  0.305870  0.220440  0.922280  1
  C  C1788  1  0.805870  0.779560  0.577720  1
  C  C1789  1  0.685780  0.738210  0.057150  1
  C  C1790  1  0.185780  0.261790  0.442850  1
  C  C1791  1  0.314220  0.261790  0.942850  1
  C  C1792  1  0.814220  0.738210  0.557150  1
  C  C1793  1  0.689560  0.718300  0.954680  1
  C  C1794  1  0.189560  0.281700  0.545320  1
  C  C1795  1  0.310440  0.281700  0.045320  1
  C  C1796  1  0.810440  0.718300  0.454680  1
  C  C1797  1  0.696390  0.727890  0.923240  1
  C  C1798  1  0.196390  0.272110  0.576760  1
  C  C1799  1  0.303610  0.272110  0.076760  1
  C  C1800  1  0.803610  0.727890  0.423240  1
  C  C1801  1  0.695770  0.690890  0.886680  1
  C  C1802  1  0.195770  0.309110  0.613320  1
  C  C1803  1  0.304230  0.309110  0.113320  1
  C  C1804  1  0.804230  0.690890  0.386680  1
  C  C1805  1  0.682800  0.617600  0.867800  1
  C  C1806  1  0.182800  0.382400  0.632200  1
  C  C1807  1  0.317200  0.382400  0.132200  1
  C  C1808  1  0.817200  0.617600  0.367800  1
  C  C1809  1  0.553520  0.660860  0.873030  1
  C  C1810  1  0.053520  0.339140  0.626970  1
  C  C1811  1  0.446480  0.339140  0.126970  1
  C  C1812  1  0.946480  0.660860  0.373030  1
  C  C1813  1  0.520580  0.658510  0.889310  1
  C  C1814  1  0.020580  0.341490  0.610690  1
  C  C1815  1  0.479420  0.341490  0.110690  1
  C  C1816  1  0.979420  0.658510  0.389310  1
  C  C1817  1  0.495630  0.689940  0.900360  1
  C  C1818  1  0.995630  0.310060  0.599640  1
  C  C1819  1  0.504370  0.310060  0.099640  1
  C  C1820  1  0.004370  0.689940  0.400360  1
  C  C1821  1  0.503600  0.723710  0.895130  1
  C  C1822  1  0.003600  0.276290  0.604870  1
  C  C1823  1  0.496400  0.276290  0.104870  1
  C  C1824  1  0.996400  0.723710  0.395130  1
  C  C1825  1  0.536540  0.726050  0.878860  1
  C  C1826  1  0.036540  0.273950  0.621140  1
  C  C1827  1  0.463460  0.273950  0.121140  1
  C  C1828  1  0.963460  0.726050  0.378860  1
  C  C1829  1  0.561490  0.694630  0.867810  1
  C  C1830  1  0.061490  0.305370  0.632190  1
  C  C1831  1  0.438510  0.305370  0.132190  1
  C  C1832  1  0.938510  0.694630  0.367810  1
  C  C1833  1  0.581370  0.627440  0.863420  1
  C  C1834  1  0.081370  0.372560  0.636580  1
  C  C1835  1  0.418630  0.372560  0.136580  1
  C  C1836  1  0.918630  0.627440  0.363420  1
  C  C1837  1  0.617720  0.637650  0.869430  1
  C  C1838  1  0.117720  0.362350  0.630570  1
  C  C1839  1  0.382280  0.362350  0.130570  1
  C  C1840  1  0.882280  0.637650  0.369430  1
  C  C1841  1  0.643470  0.607380  0.860640  1
  C  C1842  1  0.143470  0.392620  0.639360  1
  C  C1843  1  0.356530  0.392620  0.139360  1
  C  C1844  1  0.856530  0.607380  0.360640  1
  C  C1845  1  0.632860  0.566900  0.845850  1
  C  C1846  1  0.132860  0.433100  0.654150  1
  C  C1847  1  0.367140  0.433100  0.154150  1
  C  C1848  1  0.867140  0.566900  0.345850  1
  C  C1849  1  0.596510  0.556690  0.839840  1
  C  C1850  1  0.096510  0.443310  0.660160  1
  C  C1851  1  0.403490  0.443310  0.160160  1
  C  C1852  1  0.903490  0.556690  0.339840  1
  C  C1853  1  0.570760  0.586960  0.848620  1
  C  C1854  1  0.070760  0.413040  0.651380  1
  C  C1855  1  0.429240  0.413040  0.151380  1
  C  C1856  1  0.929240  0.586960  0.348620  1
  C  C1857  1  0.472800  0.651110  0.799040  1
  C  C1858  1  0.972800  0.348890  0.700960  1
  C  C1859  1  0.527200  0.348890  0.200960  1
  C  C1860  1  0.027200  0.651110  0.299040  1
  C  C1861  1  0.504020  0.628150  0.784170  1
  C  C1862  1  0.004020  0.371850  0.715830  1
  C  C1863  1  0.495980  0.371850  0.215830  1
  C  C1864  1  0.995980  0.628150  0.284170  1
  C  C1865  1  0.508530  0.592040  0.786280  1
  C  C1866  1  0.008530  0.407960  0.713720  1
  C  C1867  1  0.491470  0.407960  0.213720  1
  C  C1868  1  0.991470  0.592040  0.286280  1
  C  C1869  1  0.481830  0.578900  0.803270  1
  C  C1870  1  0.981830  0.421100  0.696730  1
  C  C1871  1  0.518170  0.421100  0.196730  1
  C  C1872  1  0.018170  0.578900  0.303270  1
  C  C1873  1  0.450610  0.601850  0.818150  1
  C  C1874  1  0.950610  0.398150  0.681850  1
  C  C1875  1  0.549390  0.398150  0.181850  1
  C  C1876  1  0.049390  0.601850  0.318150  1
  C  C1877  1  0.467340  0.686440  0.799360  1
  C  C1878  1  0.967340  0.313560  0.700640  1
  C  C1879  1  0.532660  0.313560  0.200640  1
  C  C1880  1  0.032660  0.686440  0.299360  1
  C  C1881  1  0.487690  0.708700  0.784410  1
  C  C1882  1  0.987690  0.291300  0.715590  1
  C  C1883  1  0.512310  0.291300  0.215590  1
  C  C1884  1  0.012310  0.708700  0.284410  1
  C  C1885  1  0.467070  0.743220  0.789930  1
  C  C1886  1  0.967070  0.256780  0.710070  1
  C  C1887  1  0.532930  0.256780  0.210070  1
  C  C1888  1  0.032930  0.743220  0.289930  1
  C  C1889  1  0.405900  0.770300  0.820000  1
  C  C1890  1  0.905900  0.229700  0.680000  1
  C  C1891  1  0.594100  0.229700  0.180000  1
  C  C1892  1  0.094100  0.770300  0.320000  1
  C  C1893  1  0.564530  0.958550  0.165560  1
  C  C1894  1  0.064530  0.041450  0.334440  1
  C  C1895  1  0.435470  0.041450  0.834440  1
  C  C1896  1  0.935470  0.958550  0.665560  1
  C  C1897  1  0.585790  0.963230  0.197590  1
  C  C1898  1  0.085790  0.036770  0.302410  1
  C  C1899  1  0.414210  0.036770  0.802410  1
  C  C1900  1  0.914210  0.963230  0.697590  1
  C  C1901  1  0.598640  0.001660  0.224520  1
  C  C1902  1  0.098640  0.998340  0.275480  1
  C  C1903  1  0.401360  0.998340  0.775480  1
  C  C1904  1  0.901360  0.001660  0.724520  1
  C  C1905  1  0.590220  0.035400  0.219420  1
  C  C1906  1  0.090220  0.964600  0.280580  1
  C  C1907  1  0.409780  0.964600  0.780580  1
  C  C1908  1  0.909780  0.035400  0.719420  1
  C  C1909  1  0.568960  0.030720  0.187400  1
  C  C1910  1  0.068960  0.969280  0.312600  1
  C  C1911  1  0.431040  0.969280  0.812600  1
  C  C1912  1  0.931040  0.030720  0.687400  1
  C  C1913  1  0.550160  0.922900  0.139320  1
  C  C1914  1  0.050160  0.077100  0.360680  1
  C  C1915  1  0.449840  0.077100  0.860680  1
  C  C1916  1  0.949840  0.922900  0.639320  1
  C  C1917  1  0.553910  0.882220  0.133030  1
  C  C1918  1  0.053910  0.117780  0.366970  1
  C  C1919  1  0.446090  0.117780  0.866970  1
  C  C1920  1  0.946090  0.882220  0.633030  1
  C  C1921  1  0.530680  0.856880  0.101200  1
  C  C1922  1  0.030680  0.143120  0.398800  1
  C  C1923  1  0.469320  0.143120  0.898800  1
  C  C1924  1  0.969320  0.856880  0.601200  1
  C  C1925  1  0.483700  0.871200  0.061900  1
  C  C1926  1  0.983700  0.128800  0.438100  1
  C  C1927  1  0.516300  0.128800  0.938100  1
  C  C1928  1  0.016300  0.871200  0.561900  1
  C  C1929  1  0.435410  0.836730  0.927720  1
  C  C1930  1  0.935410  0.163270  0.572280  1
  C  C1931  1  0.564590  0.163270  0.072280  1
  C  C1932  1  0.064590  0.836730  0.427720  1
  C  C1933  1  0.436170  0.807510  0.887710  1
  C  C1934  1  0.936170  0.192490  0.612290  1
  C  C1935  1  0.563830  0.192490  0.112290  1
  C  C1936  1  0.063830  0.807510  0.387710  1
  C  C1937  1  0.406490  0.802480  0.863460  1
  C  C1938  1  0.906490  0.197520  0.636540  1
  C  C1939  1  0.593510  0.197520  0.136540  1
  C  C1940  1  0.093510  0.802480  0.363460  1
  C  C1941  1  0.376060  0.826670  0.879230  1
  C  C1942  1  0.876060  0.173330  0.620770  1
  C  C1943  1  0.623940  0.173330  0.120770  1
  C  C1944  1  0.123940  0.826670  0.379230  1
  C  C1945  1  0.375300  0.855900  0.919230  1
  C  C1946  1  0.875300  0.144100  0.580770  1
  C  C1947  1  0.624700  0.144100  0.080770  1
  C  C1948  1  0.124700  0.855900  0.419230  1
  C  C1949  1  0.404980  0.860930  0.943480  1
  C  C1950  1  0.904980  0.139070  0.556520  1
  C  C1951  1  0.595020  0.139070  0.056520  1
  C  C1952  1  0.095020  0.860930  0.443480  1
  C  C1953  1  0.468090  0.843560  0.954440  1
  C  C1954  1  0.968090  0.156440  0.545560  1
  C  C1955  1  0.531910  0.156440  0.045560  1
  C  C1956  1  0.031910  0.843560  0.454440  1
  C  C1957  1  0.462790  0.854470  0.994460  1
  C  C1958  1  0.962790  0.145530  0.505540  1
  C  C1959  1  0.537210  0.145530  0.005540  1
  C  C1960  1  0.037210  0.854470  0.494460  1
  C  C1961  1  0.492260  0.860480  0.019230  1
  C  C1962  1  0.992260  0.139520  0.480770  1
  C  C1963  1  0.507740  0.139520  0.980770  1
  C  C1964  1  0.007740  0.860480  0.519230  1
  C  C1965  1  0.527040  0.855570  0.003980  1
  C  C1966  1  0.027040  0.144430  0.496020  1
  C  C1967  1  0.472960  0.144430  0.996020  1
  C  C1968  1  0.972960  0.855570  0.503980  1
  C  C1969  1  0.532330  0.844660  0.963960  1
  C  C1970  1  0.032330  0.155340  0.536040  1
  C  C1971  1  0.467670  0.155340  0.036040  1
  C  C1972  1  0.967670  0.844660  0.463960  1
  C  C1973  1  0.502860  0.838660  0.939190  1
  C  C1974  1  0.002860  0.161340  0.560810  1
  C  C1975  1  0.497140  0.161340  0.060810  1
  C  C1976  1  0.997140  0.838660  0.439190  1
  C  C1977  1  0.635040  0.581470  0.937630  1
  C  C1978  1  0.135040  0.418530  0.562370  1
  C  C1979  1  0.364960  0.418530  0.062370  1
  C  C1980  1  0.864960  0.581470  0.437630  1
  C  C1981  1  0.626320  0.540280  0.916180  1
  C  C1982  1  0.126320  0.459720  0.583820  1
  C  C1983  1  0.373680  0.459720  0.083820  1
  C  C1984  1  0.873680  0.540280  0.416180  1
  C  C1985  1  0.653510  0.511070  0.901900  1
  C  C1986  1  0.153510  0.488930  0.598100  1
  C  C1987  1  0.346490  0.488930  0.098100  1
  C  C1988  1  0.846490  0.511070  0.401900  1
  C  C1989  1  0.689430  0.523060  0.909070  1
  C  C1990  1  0.189430  0.476940  0.590930  1
  C  C1991  1  0.310570  0.476940  0.090930  1
  C  C1992  1  0.810570  0.523060  0.409070  1
  C  C1993  1  0.698150  0.564260  0.930520  1
  C  C1994  1  0.198150  0.435740  0.569480  1
  C  C1995  1  0.301850  0.435740  0.069480  1
  C  C1996  1  0.801850  0.564260  0.430520  1
  C  C1997  1  0.610210  0.611480  0.952820  1
  C  C1998  1  0.110210  0.388520  0.547180  1
  C  C1999  1  0.389790  0.388520  0.047180  1
  C  C2000  1  0.889790  0.611480  0.452820  1
  C  C2001  1  0.572030  0.612150  0.950290  1
  C  C2002  1  0.072030  0.387850  0.549710  1
  C  C2003  1  0.427970  0.387850  0.049710  1
  C  C2004  1  0.927970  0.612150  0.450290  1
  C  C2005  1  0.560280  0.652910  0.974710  1
  C  C2006  1  0.060280  0.347090  0.525290  1
  C  C2007  1  0.439720  0.347090  0.025290  1
  C  C2008  1  0.939720  0.652910  0.474710  1
  C  C2009  1  0.591400  0.717600  0.022600  1
  C  C2010  1  0.091400  0.282400  0.477400  1
  C  C2011  1  0.408600  0.282400  0.977400  1
  C  C2012  1  0.908600  0.717600  0.522600  1
  C  C2013  1  0.502100  0.957680  0.029810  1
  C  C2014  1  0.002100  0.042320  0.470190  1
  C  C2015  1  0.497900  0.042320  0.970190  1
  C  C2016  1  0.997900  0.957680  0.529810  1
  C  C2017  1  0.481620  0.951690  0.996830  1
  C  C2018  1  0.981620  0.048310  0.503170  1
  C  C2019  1  0.518380  0.048310  0.003170  1
  C  C2020  1  0.018380  0.951690  0.496830  1
  C  C2021  1  0.444220  0.953320  0.999350  1
  C  C2022  1  0.944220  0.046680  0.500650  1
  C  C2023  1  0.555780  0.046680  0.000650  1
  C  C2024  1  0.055780  0.953320  0.499350  1
  C  C2025  1  0.427290  0.960930  0.034850  1
  C  C2026  1  0.927290  0.039070  0.465150  1
  C  C2027  1  0.572710  0.039070  0.965150  1
  C  C2028  1  0.072710  0.960930  0.534850  1
  C  C2029  1  0.447770  0.966920  0.067830  1
  C  C2030  1  0.947770  0.033080  0.432170  1
  C  C2031  1  0.552230  0.033080  0.932170  1
  C  C2032  1  0.052230  0.966920  0.567830  1
  C  C2033  1  0.537770  0.957530  0.029890  1
  C  C2034  1  0.037770  0.042470  0.470110  1
  C  C2035  1  0.462230  0.042470  0.970110  1
  C  C2036  1  0.962230  0.957530  0.529890  1
  C  C2037  1  0.563880  0.954350  0.001210  1
  C  C2038  1  0.063880  0.045650  0.498790  1
  C  C2039  1  0.436120  0.045650  0.998790  1
  C  C2040  1  0.936120  0.954350  0.501210  1
  C  C2041  1  0.598420  0.960660  0.019310  1
  C  C2042  1  0.098420  0.039340  0.480690  1
  C  C2043  1  0.401580  0.039340  0.980690  1
  C  C2044  1  0.901580  0.960660  0.519310  1
  C  C2045  1  0.620400  0.973500  0.087300  1
  C  C2046  1  0.120400  0.026500  0.412700  1
  C  C2047  1  0.379600  0.026500  0.912700  1
  C  C2048  1  0.879600  0.973500  0.587300  1
  C  C2049  1  0.615930  0.820270  0.031730  1
  C  C2050  1  0.115930  0.179730  0.468270  1
  C  C2051  1  0.384070  0.179730  0.968270  1
  C  C2052  1  0.884070  0.820270  0.531730  1
  C  C2053  1  0.607550  0.789080  0.040800  1
  C  C2054  1  0.107550  0.210920  0.459200  1
  C  C2055  1  0.392450  0.210920  0.959200  1
  C  C2056  1  0.892450  0.789080  0.540800  1
  C  C2057  1  0.600320  0.750020  0.010300  1
  C  C2058  1  0.100320  0.249980  0.489700  1
  C  C2059  1  0.399680  0.249980  0.989700  1
  C  C2060  1  0.899680  0.750020  0.510300  1
  C  C2061  1  0.601460  0.742170  0.970730  1
  C  C2062  1  0.101460  0.257830  0.529270  1
  C  C2063  1  0.398540  0.257830  0.029270  1
  C  C2064  1  0.898540  0.742170  0.470730  1
  C  C2065  1  0.609830  0.773360  0.961650  1
  C  C2066  1  0.109830  0.226640  0.538350  1
  C  C2067  1  0.390170  0.226640  0.038350  1
  C  C2068  1  0.890170  0.773360  0.461650  1
  C  C2069  1  0.617070  0.812420  0.992150  1
  C  C2070  1  0.117070  0.187580  0.507850  1
  C  C2071  1  0.382930  0.187580  0.007850  1
  C  C2072  1  0.882930  0.812420  0.492150  1
  C  C2073  1  0.624460  0.862600  0.065960  1
  C  C2074  1  0.124460  0.137400  0.434040  1
  C  C2075  1  0.375540  0.137400  0.934040  1
  C  C2076  1  0.875540  0.862600  0.565960  1
  C  C2077  1  0.618560  0.896910  0.060980  1
  C  C2078  1  0.118560  0.103090  0.439020  1
  C  C2079  1  0.381440  0.103090  0.939020  1
  C  C2080  1  0.881440  0.896910  0.560980  1
  C  C2081  1  0.628050  0.935380  0.091110  1
  C  C2082  1  0.128050  0.064620  0.408890  1
  C  C2083  1  0.371950  0.064620  0.908890  1
  C  C2084  1  0.871950  0.935380  0.591110  1
  C  C2085  1  0.643440  0.939550  0.126210  1
  C  C2086  1  0.143440  0.060450  0.373790  1
  C  C2087  1  0.356560  0.060450  0.873790  1
  C  C2088  1  0.856560  0.939550  0.626210  1
  C  C2089  1  0.649340  0.905240  0.131180  1
  C  C2090  1  0.149340  0.094760  0.368820  1
  C  C2091  1  0.350660  0.094760  0.868820  1
  C  C2092  1  0.850660  0.905240  0.631180  1
  C  C2093  1  0.639860  0.866770  0.101060  1
  C  C2094  1  0.139860  0.133230  0.398940  1
  C  C2095  1  0.360140  0.133230  0.898940  1
  C  C2096  1  0.860140  0.866770  0.601060  1
  C  C2097  1  0.597590  0.719630  0.277240  1
  C  C2098  1  0.097590  0.280370  0.222760  1
  C  C2099  1  0.402410  0.280370  0.722760  1
  C  C2100  1  0.902410  0.719630  0.777240  1
  C  C2101  1  0.594770  0.698090  0.235890  1
  C  C2102  1  0.094770  0.301910  0.264110  1
  C  C2103  1  0.405230  0.301910  0.764110  1
  C  C2104  1  0.905230  0.698090  0.735890  1
  C  C2105  1  0.590900  0.718990  0.213880  1
  C  C2106  1  0.090900  0.281010  0.286120  1
  C  C2107  1  0.409100  0.281010  0.786120  1
  C  C2108  1  0.909100  0.718990  0.713880  1
  C  C2109  1  0.589840  0.761430  0.233220  1
  C  C2110  1  0.089840  0.238570  0.266780  1
  C  C2111  1  0.410160  0.238570  0.766780  1
  C  C2112  1  0.910160  0.761430  0.733220  1
  C  C2113  1  0.592660  0.782970  0.274560  1
  C  C2114  1  0.092660  0.217030  0.225440  1
  C  C2115  1  0.407340  0.217030  0.725440  1
  C  C2116  1  0.907340  0.782970  0.774560  1
  C  C2117  1  0.599960  0.701690  0.300910  1
  C  C2118  1  0.099960  0.298310  0.199090  1
  C  C2119  1  0.400040  0.298310  0.699090  1
  C  C2120  1  0.900040  0.701690  0.800910  1
  C  C2121  1  0.602040  0.660590  0.293760  1
  C  C2122  1  0.102040  0.339410  0.206240  1
  C  C2123  1  0.397960  0.339410  0.706240  1
  C  C2124  1  0.897960  0.660590  0.793760  1
  C  C2125  1  0.602410  0.660890  0.331280  1
  C  C2126  1  0.102410  0.339110  0.168720  1
  C  C2127  1  0.397590  0.339110  0.668720  1
  C  C2128  1  0.897590  0.660890  0.831280  1
  C  C2129  1  0.602840  0.717400  0.402500  1
  C  C2130  1  0.102840  0.282600  0.097500  1
  C  C2131  1  0.397160  0.282600  0.597500  1
  C  C2132  1  0.897160  0.717400  0.902500  1
  C  C2133  1  0.641680  0.888380  0.741910  1
  C  C2134  1  0.141680  0.111620  0.758090  1
  C  C2135  1  0.358320  0.111620  0.258090  1
  C  C2136  1  0.858320  0.888380  0.241910  1
  C  C2137  1  0.657610  0.910600  0.779190  1
  C  C2138  1  0.157610  0.089400  0.720810  1
  C  C2139  1  0.342390  0.089400  0.220810  1
  C  C2140  1  0.842390  0.910600  0.279190  1
  C  C2141  1  0.654660  0.897210  0.807630  1
  C  C2142  1  0.154660  0.102790  0.692370  1
  C  C2143  1  0.345340  0.102790  0.192370  1
  C  C2144  1  0.845340  0.897210  0.307630  1
  C  C2145  1  0.635790  0.861590  0.798800  1
  C  C2146  1  0.135790  0.138410  0.701200  1
  C  C2147  1  0.364210  0.138410  0.201200  1
  C  C2148  1  0.864210  0.861590  0.298800  1
  C  C2149  1  0.619860  0.839370  0.761530  1
  C  C2150  1  0.119860  0.160630  0.738470  1
  C  C2151  1  0.380140  0.160630  0.238470  1
  C  C2152  1  0.880140  0.839370  0.261530  1
  C  C2153  1  0.645090  0.897720  0.711760  1
  C  C2154  1  0.145090  0.102280  0.788240  1
  C  C2155  1  0.354910  0.102280  0.288240  1
  C  C2156  1  0.854910  0.897720  0.211760  1
  C  C2157  1  0.657860  0.932540  0.709300  1
  C  C2158  1  0.157860  0.067460  0.790700  1
  C  C2159  1  0.342140  0.067460  0.290700  1
  C  C2160  1  0.842140  0.932540  0.209300  1
  C  C2161  1  0.654320  0.924730  0.669090  1
  C  C2162  1  0.154320  0.075270  0.830910  1
  C  C2163  1  0.345680  0.075270  0.330910  1
  C  C2164  1  0.845680  0.924730  0.169090  1
  C  C2165  1  0.634700  0.863300  0.606300  1
  C  C2166  1  0.134700  0.136700  0.893700  1
  C  C2167  1  0.365300  0.136700  0.393700  1
  C  C2168  1  0.865300  0.863300  0.106300  1
  C  C2169  1  0.678620  0.752490  0.476990  1
  C  C2170  1  0.178620  0.247510  0.023010  1
  C  C2171  1  0.321380  0.247510  0.523010  1
  C  C2172  1  0.821380  0.752490  0.976990  1
  C  C2173  1  0.644500  0.744480  0.459830  1
  C  C2174  1  0.144500  0.255520  0.040170  1
  C  C2175  1  0.355500  0.255520  0.540170  1
  C  C2176  1  0.855500  0.744480  0.959830  1
  C  C2177  1  0.640850  0.724130  0.418530  1
  C  C2178  1  0.140850  0.275870  0.081470  1
  C  C2179  1  0.359150  0.275870  0.581470  1
  C  C2180  1  0.859150  0.724130  0.918530  1
  C  C2181  1  0.671320  0.711800  0.394380  1
  C  C2182  1  0.171320  0.288200  0.105620  1
  C  C2183  1  0.328680  0.288200  0.605620  1
  C  C2184  1  0.828680  0.711800  0.894380  1
  C  C2185  1  0.705440  0.719810  0.411540  1
  C  C2186  1  0.205440  0.280190  0.088460  1
  C  C2187  1  0.294560  0.280190  0.588460  1
  C  C2188  1  0.794560  0.719810  0.911540  1
  C  C2189  1  0.709100  0.740150  0.452840  1
  C  C2190  1  0.209100  0.259850  0.047160  1
  C  C2191  1  0.290900  0.259850  0.547160  1
  C  C2192  1  0.790900  0.740150  0.952840  1
  C  C2193  1  0.682460  0.775120  0.522060  1
  C  C2194  1  0.182460  0.224880  0.977940  1
  C  C2195  1  0.317540  0.224880  0.477940  1
  C  C2196  1  0.817540  0.775120  0.022060  1
  C  C2197  1  0.657930  0.806040  0.543740  1
  C  C2198  1  0.157930  0.193960  0.956260  1
  C  C2199  1  0.342070  0.193960  0.456260  1
  C  C2200  1  0.842070  0.806040  0.043740  1
  C  C2201  1  0.662190  0.829820  0.584730  1
  C  C2202  1  0.162190  0.170180  0.915270  1
  C  C2203  1  0.337810  0.170180  0.415270  1
  C  C2204  1  0.837810  0.829820  0.084730  1
  C  C2205  1  0.690990  0.822680  0.604050  1
  C  C2206  1  0.190990  0.177320  0.895950  1
  C  C2207  1  0.309010  0.177320  0.395950  1
  C  C2208  1  0.809010  0.822680  0.104050  1
  C  C2209  1  0.715520  0.791760  0.582380  1
  C  C2210  1  0.215520  0.208240  0.917620  1
  C  C2211  1  0.284480  0.208240  0.417620  1
  C  C2212  1  0.784480  0.791760  0.082380  1
  C  C2213  1  0.711260  0.767980  0.541390  1
  C  C2214  1  0.211260  0.232020  0.958610  1
  C  C2215  1  0.288740  0.232020  0.458610  1
  C  C2216  1  0.788740  0.767980  0.041390  1
  C  C2217  1  0.571730  0.866260  0.365090  1
  C  C2218  1  0.071730  0.133740  0.134910  1
  C  C2219  1  0.428270  0.133740  0.634910  1
  C  C2220  1  0.928270  0.866260  0.865090  1
  C  C2221  1  0.569140  0.905000  0.368160  1
  C  C2222  1  0.069140  0.095000  0.131840  1
  C  C2223  1  0.430860  0.095000  0.631840  1
  C  C2224  1  0.930860  0.905000  0.868160  1
  C  C2225  1  0.600220  0.926690  0.369880  1
  C  C2226  1  0.100220  0.073310  0.130120  1
  C  C2227  1  0.399780  0.073310  0.630120  1
  C  C2228  1  0.899780  0.926690  0.869880  1
  C  C2229  1  0.633900  0.909640  0.368530  1
  C  C2230  1  0.133900  0.090360  0.131470  1
  C  C2231  1  0.366100  0.090360  0.631470  1
  C  C2232  1  0.866100  0.909640  0.868530  1
  C  C2233  1  0.636490  0.870910  0.365460  1
  C  C2234  1  0.136490  0.129090  0.134540  1
  C  C2235  1  0.363510  0.129090  0.634540  1
  C  C2236  1  0.863510  0.870910  0.865460  1
  C  C2237  1  0.543510  0.844630  0.365280  1
  C  C2238  1  0.043510  0.155370  0.134720  1
  C  C2239  1  0.456490  0.155370  0.634720  1
  C  C2240  1  0.956490  0.844630  0.865280  1
  C  C2241  1  0.505730  0.851650  0.367720  1
  C  C2242  1  0.005730  0.148350  0.132280  1
  C  C2243  1  0.494270  0.148350  0.632280  1
  C  C2244  1  0.994270  0.851650  0.867720  1
  C  C2245  1  0.488560  0.818570  0.369900  1
  C  C2246  1  0.988560  0.181430  0.130100  1
  C  C2247  1  0.511440  0.181430  0.630100  1
  C  C2248  1  0.011440  0.818570  0.869900  1
  C  C2249  1  0.511900  0.752000  0.366900  1
  C  C2250  1  0.011900  0.248000  0.133100  1
  C  C2251  1  0.488100  0.248000  0.633100  1
  C  C2252  1  0.988100  0.752000  0.866900  1
  C  C2253  1  0.500890  0.434770  0.341770  1
  C  C2254  1  0.000890  0.565230  0.158230  1
  C  C2255  1  0.499110  0.565230  0.658230  1
  C  C2256  1  0.999110  0.434770  0.841770  1
  C  C2257  1  0.503680  0.393740  0.331880  1
  C  C2258  1  0.003680  0.606260  0.168120  1
  C  C2259  1  0.496320  0.606260  0.668120  1
  C  C2260  1  0.996320  0.393740  0.831880  1
  C  C2261  1  0.478810  0.376360  0.346800  1
  C  C2262  1  0.978810  0.623640  0.153200  1
  C  C2263  1  0.521190  0.623640  0.653200  1
  C  C2264  1  0.021190  0.376360  0.846800  1
  C  C2265  1  0.451130  0.400020  0.371600  1
  C  C2266  1  0.951130  0.599980  0.128400  1
  C  C2267  1  0.548870  0.599980  0.628400  1
  C  C2268  1  0.048870  0.400020  0.871600  1
  C  C2269  1  0.448330  0.441060  0.381490  1
  C  C2270  1  0.948330  0.558940  0.118510  1
  C  C2271  1  0.551670  0.558940  0.618510  1
  C  C2272  1  0.051670  0.441060  0.881490  1
  C  C2273  1  0.523980  0.453420  0.328650  1
  C  C2274  1  0.023980  0.546580  0.171350  1
  C  C2275  1  0.476020  0.546580  0.671350  1
  C  C2276  1  0.976020  0.453420  0.828650  1
  C  C2277  1  0.554980  0.440860  0.303770  1
  C  C2278  1  0.054980  0.559140  0.196230  1
  C  C2279  1  0.445020  0.559140  0.696230  1
  C  C2280  1  0.945020  0.440860  0.803770  1
  C  C2281  1  0.569060  0.475540  0.301980  1
  C  C2282  1  0.069060  0.524460  0.198020  1
  C  C2283  1  0.430940  0.524460  0.698020  1
  C  C2284  1  0.930940  0.475540  0.801980  1
  C  C2285  1  0.548300  0.549400  0.331300  1
  C  C2286  1  0.048300  0.450600  0.168700  1
  C  C2287  1  0.451700  0.450600  0.668700  1
  C  C2288  1  0.951700  0.549400  0.831300  1
  C  C2289  1  0.505550  0.645180  0.282510  1
  C  C2290  1  0.005550  0.354820  0.217490  1
  C  C2291  1  0.494450  0.354820  0.717490  1
  C  C2292  1  0.994450  0.645180  0.782510  1
  C  C2293  1  0.507890  0.678490  0.320430  1
  C  C2294  1  0.007890  0.321510  0.179570  1
  C  C2295  1  0.492110  0.321510  0.679570  1
  C  C2296  1  0.992110  0.678490  0.820430  1
  C  C2297  1  0.508860  0.717890  0.324950  1
  C  C2298  1  0.008860  0.282110  0.175050  1
  C  C2299  1  0.491140  0.282110  0.675050  1
  C  C2300  1  0.991140  0.717890  0.824950  1
  C  C2301  1  0.507490  0.723970  0.291550  1
  C  C2302  1  0.007490  0.276030  0.208450  1
  C  C2303  1  0.492510  0.276030  0.708450  1
  C  C2304  1  0.992510  0.723970  0.791550  1
  C  C2305  1  0.505150  0.690650  0.253630  1
  C  C2306  1  0.005150  0.309350  0.246370  1
  C  C2307  1  0.494850  0.309350  0.746370  1
  C  C2308  1  0.994850  0.690650  0.753630  1
  C  C2309  1  0.504180  0.651250  0.249100  1
  C  C2310  1  0.004180  0.348750  0.250900  1
  C  C2311  1  0.495820  0.348750  0.750900  1
  C  C2312  1  0.995820  0.651250  0.749100  1
  C  C2313  1  0.505870  0.602360  0.278280  1
  C  C2314  1  0.005870  0.397640  0.221720  1
  C  C2315  1  0.494130  0.397640  0.721720  1
  C  C2316  1  0.994130  0.602360  0.778280  1
  C  C2317  1  0.524200  0.594820  0.306070  1
  C  C2318  1  0.024200  0.405180  0.193930  1
  C  C2319  1  0.475800  0.405180  0.693930  1
  C  C2320  1  0.975800  0.594820  0.806070  1
  C  C2321  1  0.525080  0.555550  0.301870  1
  C  C2322  1  0.025080  0.444450  0.198130  1
  C  C2323  1  0.474920  0.444450  0.698130  1
  C  C2324  1  0.974920  0.555550  0.801870  1
  C  C2325  1  0.507650  0.523820  0.269880  1
  C  C2326  1  0.007650  0.476180  0.230120  1
  C  C2327  1  0.492350  0.476180  0.730120  1
  C  C2328  1  0.992350  0.523820  0.769880  1
  C  C2329  1  0.489330  0.531360  0.242090  1
  C  C2330  1  0.989330  0.468640  0.257910  1
  C  C2331  1  0.510670  0.468640  0.757910  1
  C  C2332  1  0.010670  0.531360  0.742090  1
  C  C2333  1  0.488440  0.570630  0.246290  1
  C  C2334  1  0.988440  0.429370  0.253710  1
  C  C2335  1  0.511560  0.429370  0.753710  1
  C  C2336  1  0.011560  0.570630  0.746290  1
  C  C2337  1  0.678430  0.800980  0.389380  1
  C  C2338  1  0.178430  0.199020  0.110620  1
  C  C2339  1  0.321570  0.199020  0.610620  1
  C  C2340  1  0.821570  0.800980  0.889380  1
  C  C2341  1  0.715900  0.801290  0.389970  1
  C  C2342  1  0.215900  0.198710  0.110030  1
  C  C2343  1  0.284100  0.198710  0.610030  1
  C  C2344  1  0.784100  0.801290  0.889970  1
  C  C2345  1  0.735100  0.783750  0.354330  1
  C  C2346  1  0.235100  0.216250  0.145670  1
  C  C2347  1  0.264900  0.216250  0.645670  1
  C  C2348  1  0.764900  0.783750  0.854330  1
  C  C2349  1  0.716820  0.765900  0.318100  1
  C  C2350  1  0.216820  0.234100  0.181900  1
  C  C2351  1  0.283180  0.234100  0.681900  1
  C  C2352  1  0.783180  0.765900  0.818100  1
  C  C2353  1  0.679350  0.765590  0.317500  1
  C  C2354  1  0.179350  0.234410  0.182500  1
  C  C2355  1  0.320650  0.234410  0.682500  1
  C  C2356  1  0.820650  0.765590  0.817500  1
  C  C2357  1  0.657530  0.818320  0.421630  1
  C  C2358  1  0.157530  0.181680  0.078370  1
  C  C2359  1  0.342470  0.181680  0.578370  1
  C  C2360  1  0.842470  0.818320  0.921630  1
  C  C2361  1  0.664830  0.841170  0.463130  1
  C  C2362  1  0.164830  0.158830  0.036870  1
  C  C2363  1  0.335170  0.158830  0.536870  1
  C  C2364  1  0.835170  0.841170  0.963130  1
  C  C2365  1  0.631460  0.849620  0.483840  1
  C  C2366  1  0.131460  0.150380  0.016160  1
  C  C2367  1  0.368540  0.150380  0.516160  1
  C  C2368  1  0.868540  0.849620  0.983840  1
  C  C2369  1  0.565700  0.833600  0.460900  1
  C  C2370  1  0.065700  0.166400  0.039100  1
  C  C2371  1  0.434300  0.166400  0.539100  1
  C  C2372  1  0.934300  0.833600  0.960900  1
  C  C2373  1  0.251220  0.866290  0.500770  1
  C  C2374  1  0.751220  0.133710  0.999230  1
  C  C2375  1  0.748780  0.133710  0.499230  1
  C  C2376  1  0.248780  0.866290  0.000770  1
  C  C2377  1  0.214590  0.873170  0.498940  1
  C  C2378  1  0.714590  0.126830  0.001060  1
  C  C2379  1  0.785410  0.126830  0.501060  1
  C  C2380  1  0.285410  0.873170  0.998940  1
  C  C2381  1  0.190170  0.863110  0.520680  1
  C  C2382  1  0.690170  0.136890  0.979320  1
  C  C2383  1  0.809830  0.136890  0.479320  1
  C  C2384  1  0.309830  0.863110  0.020680  1
  C  C2385  1  0.202380  0.846180  0.544260  1
  C  C2386  1  0.702380  0.153820  0.955740  1
  C  C2387  1  0.797620  0.153820  0.455740  1
  C  C2388  1  0.297620  0.846180  0.044260  1
  C  C2389  1  0.239000  0.839310  0.546100  1
  C  C2390  1  0.739000  0.160690  0.953900  1
  C  C2391  1  0.761000  0.160690  0.453900  1
  C  C2392  1  0.261000  0.839310  0.046100  1
  C  C2393  1  0.276180  0.874300  0.479250  1
  C  C2394  1  0.776180  0.125700  0.020750  1
  C  C2395  1  0.723820  0.125700  0.520750  1
  C  C2396  1  0.223820  0.874300  0.979250  1
  C  C2397  1  0.275130  0.892600  0.453780  1
  C  C2398  1  0.775130  0.107400  0.046220  1
  C  C2399  1  0.724870  0.107400  0.546220  1
  C  C2400  1  0.224870  0.892600  0.953780  1
  C  C2401  1  0.310180  0.889890  0.437660  1
  C  C2402  1  0.810180  0.110110  0.062340  1
  C  C2403  1  0.689820  0.110110  0.562340  1
  C  C2404  1  0.189820  0.889890  0.937660  1
  C  C2405  1  0.369400  0.859600  0.444500  1
  C  C2406  1  0.869400  0.140400  0.055500  1
  C  C2407  1  0.630600  0.140400  0.555500  1
  C  C2408  1  0.130600  0.859600  0.944500  1
  C  C2409  1  0.495170  0.911720  0.476690  1
  C  C2410  1  0.995170  0.088280  0.023310  1
  C  C2411  1  0.504830  0.088280  0.523310  1
  C  C2412  1  0.004830  0.911720  0.976690  1
  C  C2413  1  0.512170  0.875980  0.470950  1
  C  C2414  1  0.012170  0.124020  0.029050  1
  C  C2415  1  0.487830  0.124020  0.529050  1
  C  C2416  1  0.987830  0.875980  0.970950  1
  C  C2417  1  0.549190  0.871640  0.464710  1
  C  C2418  1  0.049190  0.128360  0.035290  1
  C  C2419  1  0.450810  0.128360  0.535290  1
  C  C2420  1  0.950810  0.871640  0.964710  1
  C  C2421  1  0.569230  0.903040  0.464200  1
  C  C2422  1  0.069230  0.096960  0.035800  1
  C  C2423  1  0.430770  0.096960  0.535800  1
  C  C2424  1  0.930770  0.903040  0.964200  1
  C  C2425  1  0.552240  0.938780  0.469940  1
  C  C2426  1  0.052240  0.061220  0.030060  1
  C  C2427  1  0.447760  0.061220  0.530060  1
  C  C2428  1  0.947760  0.938780  0.969940  1
  C  C2429  1  0.515210  0.943120  0.476180  1
  C  C2430  1  0.015210  0.056880  0.023820  1
  C  C2431  1  0.484790  0.056880  0.523820  1
  C  C2432  1  0.984790  0.943120  0.976180  1
  C  C2433  1  0.455830  0.918070  0.484940  1
  C  C2434  1  0.955830  0.081930  0.015060  1
  C  C2435  1  0.544170  0.081930  0.515060  1
  C  C2436  1  0.044170  0.918070  0.984940  1
  C  C2437  1  0.431390  0.887310  0.462610  1
  C  C2438  1  0.931390  0.112690  0.037390  1
  C  C2439  1  0.568610  0.112690  0.537390  1
  C  C2440  1  0.068610  0.887310  0.962610  1
  C  C2441  1  0.394590  0.894350  0.469190  1
  C  C2442  1  0.894590  0.105650  0.030810  1
  C  C2443  1  0.605410  0.105650  0.530810  1
  C  C2444  1  0.105410  0.894350  0.969190  1
  C  C2445  1  0.382230  0.932150  0.498110  1
  C  C2446  1  0.882230  0.067850  0.001890  1
  C  C2447  1  0.617770  0.067850  0.501890  1
  C  C2448  1  0.117770  0.932150  0.998110  1
  C  C2449  1  0.406680  0.962910  0.520450  1
  C  C2450  1  0.906680  0.037090  0.979550  1
  C  C2451  1  0.593320  0.037090  0.479550  1
  C  C2452  1  0.093320  0.962910  0.020450  1
  C  C2453  1  0.443480  0.955870  0.513860  1
  C  C2454  1  0.943480  0.044130  0.986140  1
  C  C2455  1  0.556520  0.044130  0.486140  1
  C  C2456  1  0.056520  0.955870  0.013860  1
  C  C2457  1  0.530960  0.841320  0.705400  1
  C  C2458  1  0.030960  0.158680  0.794600  1
  C  C2459  1  0.469040  0.158680  0.294600  1
  C  C2460  1  0.969040  0.841320  0.205400  1
  C  C2461  1  0.499920  0.864410  0.721050  1
  C  C2462  1  0.999920  0.135590  0.778950  1
  C  C2463  1  0.500080  0.135590  0.278950  1
  C  C2464  1  0.000080  0.864410  0.221050  1
  C  C2465  1  0.495400  0.900950  0.719770  1
  C  C2466  1  0.995400  0.099050  0.780230  1
  C  C2467  1  0.504600  0.099050  0.280230  1
  C  C2468  1  0.004600  0.900950  0.219770  1
  C  C2469  1  0.521910  0.914400  0.702830  1
  C  C2470  1  0.021910  0.085600  0.797170  1
  C  C2471  1  0.478090  0.085600  0.297170  1
  C  C2472  1  0.978090  0.914400  0.202830  1
  C  C2473  1  0.552940  0.891310  0.687180  1
  C  C2474  1  0.052940  0.108690  0.812820  1
  C  C2475  1  0.447060  0.108690  0.312820  1
  C  C2476  1  0.947060  0.891310  0.187180  1
  C  C2477  1  0.536700  0.805210  0.704830  1
  C  C2478  1  0.036700  0.194790  0.795170  1
  C  C2479  1  0.463300  0.194790  0.295170  1
  C  C2480  1  0.963300  0.805210  0.204830  1
  C  C2481  1  0.516600  0.782460  0.719420  1
  C  C2482  1  0.016600  0.217540  0.780580  1
  C  C2483  1  0.483400  0.217540  0.280580  1
  C  C2484  1  0.983400  0.782460  0.219420  1
  C  C2485  1  0.537030  0.747350  0.712420  1
  C  C2486  1  0.037030  0.252650  0.787580  1
  C  C2487  1  0.462970  0.252650  0.287580  1
  C  C2488  1  0.962970  0.747350  0.212420  1
  C  C2489  1  0.598200  0.719500  0.679200  1
  C  C2490  1  0.098200  0.280500  0.820800  1
  C  C2491  1  0.401800  0.280500  0.320800  1
  C  C2492  1  0.901800  0.719500  0.179200  1
  C  C2493  1  0.433790  0.548520  0.331710  1
  C  C2494  1  0.933790  0.451480  0.168290  1
  C  C2495  1  0.566210  0.451480  0.668290  1
  C  C2496  1  0.066210  0.548520  0.831710  1
  C  C2497  1  0.413840  0.546590  0.299870  1
  C  C2498  1  0.913840  0.453410  0.200130  1
  C  C2499  1  0.586160  0.453410  0.700130  1
  C  C2500  1  0.086160  0.546590  0.799870  1
  C  C2501  1  0.402160  0.509050  0.269840  1
  C  C2502  1  0.902160  0.490950  0.230160  1
  C  C2503  1  0.597840  0.490950  0.730160  1
  C  C2504  1  0.097840  0.509050  0.769840  1
  C  C2505  1  0.410420  0.473430  0.271640  1
  C  C2506  1  0.910420  0.526570  0.228360  1
  C  C2507  1  0.589580  0.526570  0.728360  1
  C  C2508  1  0.089580  0.473430  0.771640  1
  C  C2509  1  0.430370  0.475350  0.303480  1
  C  C2510  1  0.930370  0.524650  0.196520  1
  C  C2511  1  0.569630  0.524650  0.696520  1
  C  C2512  1  0.069630  0.475350  0.803480  1
  C  C2513  1  0.448200  0.582800  0.360510  1
  C  C2514  1  0.948200  0.417200  0.139490  1
  C  C2515  1  0.551800  0.417200  0.639490  1
  C  C2516  1  0.051800  0.582800  0.860510  1
  C  C2517  1  0.444630  0.624640  0.370570  1
  C  C2518  1  0.944630  0.375360  0.129430  1
  C  C2519  1  0.555370  0.375360  0.629430  1
  C  C2520  1  0.055370  0.624640  0.870570  1
  C  C2521  1  0.467600  0.647680  0.403550  1
  C  C2522  1  0.967600  0.352320  0.096450  1
  C  C2523  1  0.532400  0.352320  0.596450  1
  C  C2524  1  0.032400  0.647680  0.903550  1
  C  C2525  1  0.514500  0.628300  0.439700  1
  C  C2526  1  0.014500  0.371700  0.060300  1
  C  C2527  1  0.485500  0.371700  0.560300  1
  C  C2528  1  0.985500  0.628300  0.939700  1
  C  C2529  1  0.563190  0.657200  0.572180  1
  C  C2530  1  0.063190  0.342800  0.927820  1
  C  C2531  1  0.436810  0.342800  0.427820  1
  C  C2532  1  0.936810  0.657200  0.072180  1
  C  C2533  1  0.563730  0.685250  0.612570  1
  C  C2534  1  0.063730  0.314750  0.887430  1
  C  C2535  1  0.436270  0.314750  0.387430  1
  C  C2536  1  0.936270  0.685250  0.112570  1
  C  C2537  1  0.594110  0.688680  0.635370  1
  C  C2538  1  0.094110  0.311320  0.864630  1
  C  C2539  1  0.405890  0.311320  0.364630  1
  C  C2540  1  0.905890  0.688680  0.135370  1
  C  C2541  1  0.623960  0.664060  0.617780  1
  C  C2542  1  0.123960  0.335940  0.882220  1
  C  C2543  1  0.376040  0.335940  0.382220  1
  C  C2544  1  0.876040  0.664060  0.117780  1
  C  C2545  1  0.623430  0.636000  0.577380  1
  C  C2546  1  0.123430  0.364000  0.922620  1
  C  C2547  1  0.376570  0.364000  0.422620  1
  C  C2548  1  0.876570  0.636000  0.077380  1
  C  C2549  1  0.593050  0.632570  0.554580  1
  C  C2550  1  0.093050  0.367430  0.945420  1
  C  C2551  1  0.406950  0.367430  0.445420  1
  C  C2552  1  0.906950  0.632570  0.054580  1
  C  C2553  1  0.530000  0.651920  0.546460  1
  C  C2554  1  0.030000  0.348080  0.953540  1
  C  C2555  1  0.470000  0.348080  0.453540  1
  C  C2556  1  0.970000  0.651920  0.046460  1
  C  C2557  1  0.535360  0.643190  0.507010  1
  C  C2558  1  0.035360  0.356810  0.992990  1
  C  C2559  1  0.464640  0.356810  0.492990  1
  C  C2560  1  0.964640  0.643190  0.007010  1
  C  C2561  1  0.505910  0.637950  0.482400  1
  C  C2562  1  0.005910  0.362050  0.017600  1
  C  C2563  1  0.494090  0.362050  0.517600  1
  C  C2564  1  0.994090  0.637950  0.982400  1
  C  C2565  1  0.471110  0.641420  0.497250  1
  C  C2566  1  0.971110  0.358580  0.002750  1
  C  C2567  1  0.528890  0.358580  0.502750  1
  C  C2568  1  0.028890  0.641420  0.997250  1
  C  C2569  1  0.465760  0.650140  0.536710  1
  C  C2570  1  0.965760  0.349860  0.963290  1
  C  C2571  1  0.534240  0.349860  0.463290  1
  C  C2572  1  0.034240  0.650140  0.036710  1
  C  C2573  1  0.495200  0.655390  0.561310  1
  C  C2574  1  0.995200  0.344610  0.938690  1
  C  C2575  1  0.504800  0.344610  0.438690  1
  C  C2576  1  0.004800  0.655390  0.061310  1
  C  C2577  1  0.649890  0.751100  0.616960  1
  C  C2578  1  0.149890  0.248900  0.883040  1
  C  C2579  1  0.350110  0.248900  0.383040  1
  C  C2580  1  0.850110  0.751100  0.116960  1
  C  C2581  1  0.677880  0.722950  0.601980  1
  C  C2582  1  0.177880  0.277050  0.898020  1
  C  C2583  1  0.322120  0.277050  0.398020  1
  C  C2584  1  0.822120  0.722950  0.101980  1
  C  C2585  1  0.706160  0.724710  0.626770  1
  C  C2586  1  0.206160  0.275290  0.873230  1
  C  C2587  1  0.293840  0.275290  0.373230  1
  C  C2588  1  0.793840  0.724710  0.126770  1
  C  C2589  1  0.706450  0.754620  0.666520  1
  C  C2590  1  0.206450  0.245380  0.833480  1
  C  C2591  1  0.293550  0.245380  0.333480  1
  C  C2592  1  0.793550  0.754620  0.166520  1
  C  C2593  1  0.678470  0.782770  0.681500  1
  C  C2594  1  0.178470  0.217230  0.818500  1
  C  C2595  1  0.321530  0.217230  0.318500  1
  C  C2596  1  0.821530  0.782770  0.181500  1
  C  C2597  1  0.621500  0.751700  0.594970  1
  C  C2598  1  0.121500  0.248300  0.905030  1
  C  C2599  1  0.378500  0.248300  0.405030  1
  C  C2600  1  0.878500  0.751700  0.094970  1
  C  C2601  1  0.611440  0.726560  0.554550  1
  C  C2602  1  0.111440  0.273440  0.945450  1
  C  C2603  1  0.388560  0.273440  0.445450  1
  C  C2604  1  0.888560  0.726560  0.054550  1
  C  C2605  1  0.580050  0.743600  0.546830  1
  C  C2606  1  0.080050  0.256400  0.953170  1
  C  C2607  1  0.419950  0.256400  0.453170  1
  C  C2608  1  0.919950  0.743600  0.046830  1
  C  C2609  1  0.545000  0.808100  0.587900  1
  C  C2610  1  0.045000  0.191900  0.912100  1
  C  C2611  1  0.455000  0.191900  0.412100  1
  C  C2612  1  0.955000  0.808100  0.087900  1
  C  C2613  1  0.308470  0.756680  0.502080  1
  C  C2614  1  0.808470  0.243320  0.997920  1
  C  C2615  1  0.691530  0.243320  0.497920  1
  C  C2616  1  0.191530  0.756680  0.002080  1
  C  C2617  1  0.299650  0.715870  0.477970  1
  C  C2618  1  0.799650  0.284130  0.022030  1
  C  C2619  1  0.700350  0.284130  0.522030  1
  C  C2620  1  0.200350  0.715870  0.977970  1
  C  C2621  1  0.296990  0.700480  0.436870  1
  C  C2622  1  0.796990  0.299520  0.063130  1
  C  C2623  1  0.703010  0.299520  0.563130  1
  C  C2624  1  0.203010  0.700480  0.936870  1
  C  C2625  1  0.303140  0.725890  0.419870  1
  C  C2626  1  0.803140  0.274110  0.080130  1
  C  C2627  1  0.696860  0.274110  0.580130  1
  C  C2628  1  0.196860  0.725890  0.919870  1
  C  C2629  1  0.311960  0.766700  0.443980  1
  C  C2630  1  0.811960  0.233300  0.056020  1
  C  C2631  1  0.688040  0.233300  0.556020  1
  C  C2632  1  0.188040  0.766700  0.943980  1
  C  C2633  1  0.311000  0.774500  0.542370  1
  C  C2634  1  0.811000  0.225500  0.957630  1
  C  C2635  1  0.689000  0.225500  0.457630  1
  C  C2636  1  0.189000  0.774500  0.042370  1
  C  C2637  1  0.306010  0.759820  0.570460  1
  C  C2638  1  0.806010  0.240180  0.929540  1
  C  C2639  1  0.693990  0.240180  0.429540  1
  C  C2640  1  0.193990  0.759820  0.070460  1
  C  C2641  1  0.308280  0.793660  0.609340  1
  C  C2642  1  0.808280  0.206340  0.890660  1
  C  C2643  1  0.691720  0.206340  0.390660  1
  C  C2644  1  0.191720  0.793660  0.109340  1
  C  C2645  1  0.318900  0.867800  0.633700  1
  C  C2646  1  0.818900  0.132200  0.866300  1
  C  C2647  1  0.681100  0.132200  0.366300  1
  C  C2648  1  0.181100  0.867800  0.133700  1
  C  C2649  1  0.449710  0.827820  0.629420  1
  C  C2650  1  0.949710  0.172180  0.870580  1
  C  C2651  1  0.550290  0.172180  0.370580  1
  C  C2652  1  0.050290  0.827820  0.129420  1
  C  C2653  1  0.483170  0.832110  0.615310  1
  C  C2654  1  0.983170  0.167890  0.884690  1
  C  C2655  1  0.516830  0.167890  0.384690  1
  C  C2656  1  0.016830  0.832110  0.115310  1
  C  C2657  1  0.508690  0.801200  0.603940  1
  C  C2658  1  0.008690  0.198800  0.896060  1
  C  C2659  1  0.491310  0.198800  0.396060  1
  C  C2660  1  0.991310  0.801200  0.103940  1
  C  C2661  1  0.500770  0.766000  0.606680  1
  C  C2662  1  0.000770  0.234000  0.893320  1
  C  C2663  1  0.499230  0.234000  0.393320  1
  C  C2664  1  0.999230  0.766000  0.106680  1
  C  C2665  1  0.467310  0.761710  0.620780  1
  C  C2666  1  0.967310  0.238290  0.879220  1
  C  C2667  1  0.532690  0.238290  0.379220  1
  C  C2668  1  0.032690  0.761710  0.120780  1
  C  C2669  1  0.441790  0.792620  0.632150  1
  C  C2670  1  0.941790  0.207380  0.867850  1
  C  C2671  1  0.558210  0.207380  0.367850  1
  C  C2672  1  0.058210  0.792620  0.132150  1
  C  C2673  1  0.421710  0.860930  0.640510  1
  C  C2674  1  0.921710  0.139070  0.859490  1
  C  C2675  1  0.578290  0.139070  0.359490  1
  C  C2676  1  0.078290  0.860930  0.140510  1
  C  C2677  1  0.385610  0.849750  0.633350  1
  C  C2678  1  0.885610  0.150250  0.866650  1
  C  C2679  1  0.614390  0.150250  0.366650  1
  C  C2680  1  0.114390  0.849750  0.133350  1
  C  C2681  1  0.359150  0.879580  0.643810  1
  C  C2682  1  0.859150  0.120420  0.856190  1
  C  C2683  1  0.640850  0.120420  0.356190  1
  C  C2684  1  0.140850  0.879580  0.143810  1
  C  C2685  1  0.368790  0.920590  0.661450  1
  C  C2686  1  0.868790  0.079410  0.838550  1
  C  C2687  1  0.631210  0.079410  0.338550  1
  C  C2688  1  0.131210  0.920590  0.161450  1
  C  C2689  1  0.404880  0.931770  0.668620  1
  C  C2690  1  0.904880  0.068230  0.831380  1
  C  C2691  1  0.595120  0.068230  0.331380  1
  C  C2692  1  0.095120  0.931770  0.168620  1
  C  C2693  1  0.431340  0.901940  0.658150  1
  C  C2694  1  0.931340  0.098060  0.841850  1
  C  C2695  1  0.568660  0.098060  0.341850  1
  C  C2696  1  0.068660  0.901940  0.158150  1
  C  C2697  1  0.487690  0.539790  0.464750  1
  C  C2698  1  0.987690  0.460210  0.035250  1
  C  C2699  1  0.512310  0.460210  0.535250  1
  C  C2700  1  0.012310  0.539790  0.964750  1
  C  C2701  1  0.505920  0.545860  0.499090  1
  C  C2702  1  0.005920  0.454140  0.000910  1
  C  C2703  1  0.494080  0.454140  0.500910  1
  C  C2704  1  0.994080  0.545860  0.999090  1
  C  C2705  1  0.543380  0.544970  0.499390  1
  C  C2706  1  0.043380  0.455030  0.000610  1
  C  C2707  1  0.456620  0.455030  0.500610  1
  C  C2708  1  0.956620  0.544970  0.999390  1
  C  C2709  1  0.562610  0.538020  0.465340  1
  C  C2710  1  0.062610  0.461980  0.034660  1
  C  C2711  1  0.437390  0.461980  0.534660  1
  C  C2712  1  0.937390  0.538020  0.965340  1
  C  C2713  1  0.544380  0.531950  0.431000  1
  C  C2714  1  0.044380  0.468050  0.069000  1
  C  C2715  1  0.455620  0.468050  0.569000  1
  C  C2716  1  0.955620  0.531950  0.931000  1
  C  C2717  1  0.450890  0.537600  0.461110  1
  C  C2718  1  0.950890  0.462400  0.038890  1
  C  C2719  1  0.549110  0.462400  0.538890  1
  C  C2720  1  0.049110  0.537600  0.961110  1
  C  C2721  1  0.422670  0.535550  0.485370  1
  C  C2722  1  0.922670  0.464450  0.014630  1
  C  C2723  1  0.577330  0.464450  0.514630  1
  C  C2724  1  0.077330  0.535550  0.985370  1
  C  C2725  1  0.389760  0.529450  0.464190  1
  C  C2726  1  0.889760  0.470550  0.035810  1
  C  C2727  1  0.610240  0.470550  0.535810  1
  C  C2728  1  0.110240  0.529450  0.964190  1
  C  C2729  1  0.373900  0.524800  0.397800  1
  C  C2730  1  0.873900  0.475200  0.102200  1
  C  C2731  1  0.626100  0.475200  0.602200  1
  C  C2732  1  0.126100  0.524800  0.897800  1
  C  C2733  1  0.363240  0.915930  0.573610  1
  C  C2734  1  0.863240  0.084070  0.926390  1
  C  C2735  1  0.636760  0.084070  0.426390  1
  C  C2736  1  0.136760  0.915930  0.073610  1
  C  C2737  1  0.371920  0.956430  0.599260  1
  C  C2738  1  0.871920  0.043570  0.900740  1
  C  C2739  1  0.628080  0.043570  0.400740  1
  C  C2740  1  0.128080  0.956430  0.099260  1
  C  C2741  1  0.344710  0.985230  0.616610  1
  C  C2742  1  0.844710  0.014770  0.883390  1
  C  C2743  1  0.655290  0.014770  0.383390  1
  C  C2744  1  0.155290  0.985230  0.116610  1
  C  C2745  1  0.308800  0.973540  0.608310  1
  C  C2746  1  0.808800  0.026460  0.891690  1
  C  C2747  1  0.691200  0.026460  0.391690  1
  C  C2748  1  0.191200  0.973540  0.108310  1
  C  C2749  1  0.300120  0.933040  0.582660  1
  C  C2750  1  0.800120  0.066960  0.917340  1
  C  C2751  1  0.699880  0.066960  0.417340  1
  C  C2752  1  0.199880  0.933040  0.082660  1
  C  C2753  1  0.388340  0.886570  0.556800  1
  C  C2754  1  0.888340  0.113430  0.943200  1
  C  C2755  1  0.611660  0.113430  0.443200  1
  C  C2756  1  0.111660  0.886570  0.056800  1
  C  C2757  1  0.426460  0.885940  0.559950  1
  C  C2758  1  0.926460  0.114060  0.940050  1
  C  C2759  1  0.573540  0.114060  0.440050  1
  C  C2760  1  0.073540  0.885940  0.059950  1
  C  C2761  1  0.438680  0.846180  0.532630  1
  C  C2762  1  0.938680  0.153820  0.967370  1
  C  C2763  1  0.561320  0.153820  0.467370  1
  C  C2764  1  0.061320  0.846180  0.032630  1
  C  C2765  1  0.407600  0.783300  0.481400  1
  C  C2766  1  0.907600  0.216700  0.018600  1
  C  C2767  1  0.592400  0.216700  0.518600  1
  C  C2768  1  0.092400  0.783300  0.981400  1
  C  C2769  1  0.372870  0.638080  0.429750  1
  C  C2770  1  0.872870  0.361920  0.070250  1
  C  C2771  1  0.627130  0.361920  0.570250  1
  C  C2772  1  0.127130  0.638080  0.929750  1
  C  C2773  1  0.377870  0.601460  0.430750  1
  C  C2774  1  0.877870  0.398540  0.069250  1
  C  C2775  1  0.622130  0.398540  0.569250  1
  C  C2776  1  0.122130  0.601460  0.930750  1
  C  C2777  1  0.367060  0.564890  0.398580  1
  C  C2778  1  0.867060  0.435110  0.101420  1
  C  C2779  1  0.632940  0.435110  0.601420  1
  C  C2780  1  0.132940  0.564890  0.898580  1
  C  C2781  1  0.351250  0.564950  0.365420  1
  C  C2782  1  0.851250  0.435050  0.134580  1
  C  C2783  1  0.648750  0.435050  0.634580  1
  C  C2784  1  0.148750  0.564950  0.865420  1
  C  C2785  1  0.346260  0.601570  0.364430  1
  C  C2786  1  0.846260  0.398430  0.135570  1
  C  C2787  1  0.653740  0.398430  0.635570  1
  C  C2788  1  0.153740  0.601570  0.864430  1
  C  C2789  1  0.357070  0.638140  0.396590  1
  C  C2790  1  0.857070  0.361860  0.103410  1
  C  C2791  1  0.642930  0.361860  0.603410  1
  C  C2792  1  0.142930  0.638140  0.896590  1
  C  C2793  1  0.382780  0.678780  0.465830  1
  C  C2794  1  0.882780  0.321220  0.034170  1
  C  C2795  1  0.617220  0.321220  0.534170  1
  C  C2796  1  0.117220  0.678780  0.965830  1
  C  C2797  1  0.391300  0.711670  0.459390  1
  C  C2798  1  0.891300  0.288330  0.040610  1
  C  C2799  1  0.608700  0.288330  0.540610  1
  C  C2800  1  0.108700  0.711670  0.959390  1
  C  C2801  1  0.400010  0.749250  0.491470  1
  C  C2802  1  0.900010  0.250750  0.008530  1
  C  C2803  1  0.599990  0.250750  0.508530  1
  C  C2804  1  0.099990  0.749250  0.991470  1
  C  C2805  1  0.400190  0.753930  0.530010  1
  C  C2806  1  0.900190  0.246070  0.969990  1
  C  C2807  1  0.599810  0.246070  0.469990  1
  C  C2808  1  0.099810  0.753930  0.030010  1
  C  C2809  1  0.391670  0.721030  0.536460  1
  C  C2810  1  0.891670  0.278970  0.963540  1
  C  C2811  1  0.608330  0.278970  0.463540  1
  C  C2812  1  0.108330  0.721030  0.036460  1
  C  C2813  1  0.382960  0.683460  0.504370  1
  C  C2814  1  0.882960  0.316540  0.995630  1
  C  C2815  1  0.617040  0.316540  0.495630  1
  C  C2816  1  0.117040  0.683460  0.004370  1
  C  C2817  1  0.301200  0.565800  0.033600  1
  C  C2818  1  0.801200  0.434200  0.466400  1
  C  C2819  1  0.698800  0.434200  0.966400  1
  C  C2820  1  0.198800  0.565800  0.533600  1
  C  C2821  1  0.398700  0.986800  0.358500  1
  C  C2822  1  0.898700  0.013200  0.141500  1
  C  C2823  1  0.601300  0.013200  0.641500  1
  C  C2824  1  0.101300  0.986800  0.858500  1
  C  C2825  1  0.282100  0.520200  0.202500  1
  C  C2826  1  0.782100  0.479800  0.297500  1
  C  C2827  1  0.717900  0.479800  0.797500  1
  C  C2828  1  0.217900  0.520200  0.702500  1
  C  C2829  1  0.576500  0.510900  0.183300  1
  C  C2830  1  0.076500  0.489100  0.316700  1
  C  C2831  1  0.423500  0.489100  0.816700  1
  C  C2832  1  0.923500  0.510900  0.683300  1
  C  C2833  1  0.541800  0.941400  0.575900  1
  C  C2834  1  0.041800  0.058600  0.924100  1
  C  C2835  1  0.458200  0.058600  0.424100  1
  C  C2836  1  0.958200  0.941400  0.075900  1
  C  C2837  1  0.684600  0.590800  0.651000  1
  C  C2838  1  0.184600  0.409200  0.849000  1
  C  C2839  1  0.315400  0.409200  0.349000  1
  C  C2840  1  0.815400  0.590800  0.151000  1
  C  C2841  1  0.393800  0.598300  0.593400  1
  C  C2842  1  0.893800  0.401700  0.906600  1
  C  C2843  1  0.606200  0.401700  0.406600  1
  C  C2844  1  0.106200  0.598300  0.093400  1
  C  C2845  1  0.321800  0.772700  0.726000  1
  C  C2846  1  0.821800  0.227300  0.774000  1
  C  C2847  1  0.678200  0.227300  0.274000  1
  C  C2848  1  0.178200  0.772700  0.226000  1
  C  C2849  1  0.591200  0.766200  0.822000  1
  C  C2850  1  0.091200  0.233800  0.678000  1
  C  C2851  1  0.408800  0.233800  0.178000  1
  C  C2852  1  0.908800  0.766200  0.322000  1
  C  C2853  1  0.688000  0.723000  0.775200  1
  C  C2854  1  0.188000  0.277000  0.724800  1
  C  C2855  1  0.312000  0.277000  0.224800  1
  C  C2856  1  0.812000  0.723000  0.275200  1
  C  C2857  1  0.245900  0.550800  0.817200  1
  C  C2858  1  0.745900  0.449200  0.682800  1
  C  C2859  1  0.754100  0.449200  0.182800  1
  C  C2860  1  0.254100  0.550800  0.317200  1
  C  C2861  1  0.665100  0.598000  0.754500  1
  C  C2862  1  0.165100  0.402000  0.745500  1
  C  C2863  1  0.334900  0.402000  0.245500  1
  C  C2864  1  0.834900  0.598000  0.254500  1
  N  N2865  1  0.406930  0.753920  0.218710  1
  N  N2866  1  0.906930  0.246080  0.281290  1
  N  N2867  1  0.593070  0.246080  0.781290  1
  N  N2868  1  0.093070  0.753920  0.718710  1
  N  N2869  1  0.397620  0.801880  0.143440  1
  N  N2870  1  0.897620  0.198120  0.356560  1
  N  N2871  1  0.602380  0.198120  0.856560  1
  N  N2872  1  0.102380  0.801880  0.643440  1
  N  N2873  1  0.401430  0.780320  0.165740  1
  N  N2874  1  0.901430  0.219680  0.334260  1
  N  N2875  1  0.598570  0.219680  0.834260  1
  N  N2876  1  0.098570  0.780320  0.665740  1
  N  N2877  1  0.380580  0.641030  0.772030  1
  N  N2878  1  0.880580  0.358970  0.727970  1
  N  N2879  1  0.619420  0.358970  0.227970  1
  N  N2880  1  0.119420  0.641030  0.272030  1
  N  N2881  1  0.365950  0.606970  0.857270  1
  N  N2882  1  0.865950  0.393030  0.642730  1
  N  N2883  1  0.634050  0.393030  0.142730  1
  N  N2884  1  0.134050  0.606970  0.357270  1
  N  N2885  1  0.371010  0.624550  0.831540  1
  N  N2886  1  0.871010  0.375450  0.668460  1
  N  N2887  1  0.628990  0.375450  0.168460  1
  N  N2888  1  0.128990  0.624550  0.331540  1
  N  N2889  1  0.341420  0.727370  0.163260  1
  N  N2890  1  0.841420  0.272630  0.336740  1
  N  N2891  1  0.658580  0.272630  0.836740  1
  N  N2892  1  0.158580  0.727370  0.663260  1
  N  N2893  1  0.395450  0.668620  0.059370  1
  N  N2894  1  0.895450  0.331380  0.440630  1
  N  N2895  1  0.604550  0.331380  0.940630  1
  N  N2896  1  0.104550  0.668620  0.559370  1
  N  N2897  1  0.380420  0.691180  0.098130  1
  N  N2898  1  0.880420  0.308820  0.401870  1
  N  N2899  1  0.619580  0.308820  0.901870  1
  N  N2900  1  0.119580  0.691180  0.598130  1
  N  N2901  1  0.735400  0.649370  0.982820  1
  N  N2902  1  0.235400  0.350630  0.517180  1
  N  N2903  1  0.264600  0.350630  0.017180  1
  N  N2904  1  0.764600  0.649370  0.482820  1
  N  N2905  1  0.665200  0.640200  0.059930  1
  N  N2906  1  0.165200  0.359800  0.440070  1
  N  N2907  1  0.334800  0.359800  0.940070  1
  N  N2908  1  0.834800  0.640200  0.559930  1
  N  N2909  1  0.686270  0.645050  0.031230  1
  N  N2910  1  0.186270  0.354950  0.468770  1
  N  N2911  1  0.313730  0.354950  0.968770  1
  N  N2912  1  0.813730  0.645050  0.531230  1
  N  N2913  1  0.394700  0.664520  0.158490  1
  N  N2914  1  0.894700  0.335480  0.341510  1
  N  N2915  1  0.605300  0.335480  0.841510  1
  N  N2916  1  0.105300  0.664520  0.658490  1
  N  N2917  1  0.484540  0.716530  0.143240  1
  N  N2918  1  0.984540  0.283470  0.356760  1
  N  N2919  1  0.515460  0.283470  0.856760  1
  N  N2920  1  0.015460  0.716530  0.643240  1
  N  N2921  1  0.450680  0.702130  0.148860  1
  N  N2922  1  0.950680  0.297870  0.351140  1
  N  N2923  1  0.549320  0.297870  0.851140  1
  N  N2924  1  0.049320  0.702130  0.648860  1
  N  N2925  1  0.522230  0.042520  0.125330  1
  N  N2926  1  0.022230  0.957480  0.374670  1
  N  N2927  1  0.477770  0.957480  0.874670  1
  N  N2928  1  0.977770  0.042520  0.625330  1
  N  N2929  1  0.450450  0.994270  0.171710  1
  N  N2930  1  0.950450  0.005730  0.328290  1
  N  N2931  1  0.549550  0.005730  0.828290  1
  N  N2932  1  0.049550  0.994270  0.671710  1
  N  N2933  1  0.478310  0.006770  0.154190  1
  N  N2934  1  0.978310  0.993230  0.345810  1
  N  N2935  1  0.521690  0.993230  0.845810  1
  N  N2936  1  0.021690  0.006770  0.654190  1
  N  N2937  1  0.354690  0.712490  0.848470  1
  N  N2938  1  0.854690  0.287510  0.651530  1
  N  N2939  1  0.645310  0.287510  0.151530  1
  N  N2940  1  0.145310  0.712490  0.348470  1
  N  N2941  1  0.433940  0.714510  0.922490  1
  N  N2942  1  0.933940  0.285490  0.577510  1
  N  N2943  1  0.566060  0.285490  0.077510  1
  N  N2944  1  0.066060  0.714510  0.422490  1
  N  N2945  1  0.407850  0.708990  0.893000  1
  N  N2946  1  0.907850  0.291010  0.607000  1
  N  N2947  1  0.592150  0.291010  0.107000  1
  N  N2948  1  0.092150  0.708990  0.393000  1
  N  N2949  1  0.684010  0.718460  0.015690  1
  N  N2950  1  0.184010  0.281540  0.484310  1
  N  N2951  1  0.315990  0.281540  0.984310  1
  N  N2952  1  0.815990  0.718460  0.515690  1
  N  N2953  1  0.688560  0.658440  0.895520  1
  N  N2954  1  0.188560  0.341560  0.604480  1
  N  N2955  1  0.311440  0.341560  0.104480  1
  N  N2956  1  0.811440  0.658440  0.395520  1
  N  N2957  1  0.684720  0.675380  0.937550  1
  N  N2958  1  0.184720  0.324620  0.562450  1
  N  N2959  1  0.315280  0.324620  0.062450  1
  N  N2960  1  0.815280  0.675380  0.437550  1
  N  N2961  1  0.446100  0.637960  0.816030  1
  N  N2962  1  0.946100  0.362040  0.683970  1
  N  N2963  1  0.553900  0.362040  0.183970  1
  N  N2964  1  0.053900  0.637960  0.316030  1
  N  N2965  1  0.433980  0.742290  0.808300  1
  N  N2966  1  0.933980  0.257710  0.691700  1
  N  N2967  1  0.566020  0.257710  0.191700  1
  N  N2968  1  0.066020  0.742290  0.308300  1
  N  N2969  1  0.434140  0.707200  0.814120  1
  N  N2970  1  0.934140  0.292800  0.685880  1
  N  N2971  1  0.565860  0.292800  0.185880  1
  N  N2972  1  0.065860  0.707200  0.314120  1
  N  N2973  1  0.556120  0.992300  0.160470  1
  N  N2974  1  0.056120  0.007700  0.339530  1
  N  N2975  1  0.443880  0.007700  0.839530  1
  N  N2976  1  0.943880  0.992300  0.660470  1
  N  N2977  1  0.512570  0.881900  0.087820  1
  N  N2978  1  0.012570  0.118100  0.412180  1
  N  N2979  1  0.487430  0.118100  0.912180  1
  N  N2980  1  0.987430  0.881900  0.587820  1
  N  N2981  1  0.524610  0.922700  0.111380  1
  N  N2982  1  0.024610  0.077300  0.388620  1
  N  N2983  1  0.475390  0.077300  0.888620  1
  N  N2984  1  0.975390  0.922700  0.611380  1
  N  N2985  1  0.670960  0.593460  0.944800  1
  N  N2986  1  0.170960  0.406540  0.555200  1
  N  N2987  1  0.329040  0.406540  0.055200  1
  N  N2988  1  0.829040  0.593460  0.444800  1
  N  N2989  1  0.591190  0.677440  0.992330  1
  N  N2990  1  0.091190  0.322560  0.507670  1
  N  N2991  1  0.408810  0.322560  0.007670  1
  N  N2992  1  0.908810  0.677440  0.492330  1
  N  N2993  1  0.622050  0.651830  0.978800  1
  N  N2994  1  0.122050  0.348170  0.521200  1
  N  N2995  1  0.377950  0.348170  0.021200  1
  N  N2996  1  0.877950  0.651830  0.478800  1
  N  N2997  1  0.485180  0.965290  0.065310  1
  N  N2998  1  0.985180  0.034710  0.434690  1
  N  N2999  1  0.514820  0.034710  0.934690  1
  N  N3000  1  0.014820  0.965290  0.565310  1
  N  N3001  1  0.593660  0.967740  0.059170  1
  N  N3002  1  0.093660  0.032260  0.440830  1
  N  N3003  1  0.406340  0.032260  0.940830  1
  N  N3004  1  0.906340  0.967740  0.559170  1
  N  N3005  1  0.556180  0.965810  0.065700  1
  N  N3006  1  0.056180  0.034190  0.434300  1
  N  N3007  1  0.443820  0.034190  0.934300  1
  N  N3008  1  0.943820  0.965810  0.565700  1
  N  N3009  1  0.596530  0.762070  0.296570  1
  N  N3010  1  0.096530  0.237930  0.203430  1
  N  N3011  1  0.403470  0.237930  0.703430  1
  N  N3012  1  0.903470  0.762070  0.796570  1
  N  N3013  1  0.600560  0.702170  0.361630  1
  N  N3014  1  0.100560  0.297830  0.138370  1
  N  N3015  1  0.399440  0.297830  0.638370  1
  N  N3016  1  0.899440  0.702170  0.861630  1
  N  N3017  1  0.599050  0.727390  0.342860  1
  N  N3018  1  0.099050  0.272610  0.157140  1
  N  N3019  1  0.400950  0.272610  0.657140  1
  N  N3020  1  0.900950  0.727390  0.842860  1
  N  N3021  1  0.622810  0.852770  0.733090  1
  N  N3022  1  0.122810  0.147230  0.766910  1
  N  N3023  1  0.377190  0.147230  0.266910  1
  N  N3024  1  0.877190  0.852770  0.233090  1
  N  N3025  1  0.639350  0.885100  0.646690  1
  N  N3026  1  0.139350  0.114900  0.853310  1
  N  N3027  1  0.360650  0.114900  0.353310  1
  N  N3028  1  0.860650  0.885100  0.146690  1
  N  N3029  1  0.633650  0.868400  0.673060  1
  N  N3030  1  0.133650  0.131600  0.826940  1
  N  N3031  1  0.366350  0.131600  0.326940  1
  N  N3032  1  0.866350  0.868400  0.173060  1
  N  N3033  1  0.605400  0.849220  0.363750  1
  N  N3034  1  0.105400  0.150780  0.136250  1
  N  N3035  1  0.394600  0.150780  0.636250  1
  N  N3036  1  0.894600  0.849220  0.863750  1
  N  N3037  1  0.515720  0.791100  0.368830  1
  N  N3038  1  0.015720  0.208900  0.131170  1
  N  N3039  1  0.484280  0.208900  0.631170  1
  N  N3040  1  0.984280  0.791100  0.868830  1
  N  N3041  1  0.549680  0.807210  0.365970  1
  N  N3042  1  0.049680  0.192790  0.134030  1
  N  N3043  1  0.450320  0.192790  0.634030  1
  N  N3044  1  0.950320  0.807210  0.865970  1
  N  N3045  1  0.473210  0.458430  0.366570  1
  N  N3046  1  0.973210  0.541570  0.133430  1
  N  N3047  1  0.526790  0.541570  0.633430  1
  N  N3048  1  0.026790  0.458430  0.866570  1
  N  N3049  1  0.546760  0.509530  0.325750  1
  N  N3050  1  0.046760  0.490470  0.174250  1
  N  N3051  1  0.453240  0.490470  0.674250  1
  N  N3052  1  0.953240  0.509530  0.825750  1
  N  N3053  1  0.518900  0.495850  0.342230  1
  N  N3054  1  0.018900  0.504150  0.157770  1
  N  N3055  1  0.481100  0.504150  0.657770  1
  N  N3056  1  0.981100  0.495850  0.842230  1
  N  N3057  1  0.660150  0.783130  0.353140  1
  N  N3058  1  0.160150  0.216870  0.146860  1
  N  N3059  1  0.339850  0.216870  0.646860  1
  N  N3060  1  0.839850  0.783130  0.853140  1
  N  N3061  1  0.603530  0.831990  0.455130  1
  N  N3062  1  0.103530  0.168010  0.044870  1
  N  N3063  1  0.396470  0.168010  0.544870  1
  N  N3064  1  0.896470  0.831990  0.955130  1
  N  N3065  1  0.619650  0.812650  0.416680  1
  N  N3066  1  0.119650  0.187350  0.083320  1
  N  N3067  1  0.380350  0.187350  0.583320  1
  N  N3068  1  0.880350  0.812650  0.916680  1
  N  N3069  1  0.263420  0.849360  0.524350  1
  N  N3070  1  0.763420  0.150640  0.975650  1
  N  N3071  1  0.736580  0.150640  0.475650  1
  N  N3072  1  0.236580  0.849360  0.024350  1
  N  N3073  1  0.332890  0.869930  0.453170  1
  N  N3074  1  0.832890  0.130070  0.046830  1
  N  N3075  1  0.667110  0.130070  0.546830  1
  N  N3076  1  0.167110  0.869930  0.953170  1
  N  N3077  1  0.311880  0.860300  0.478880  1
  N  N3078  1  0.811880  0.139700  0.021120  1
  N  N3079  1  0.688120  0.139700  0.521120  1
  N  N3080  1  0.188120  0.860300  0.978880  1
  N  N3081  1  0.557460  0.854780  0.688470  1
  N  N3082  1  0.057460  0.145220  0.811530  1
  N  N3083  1  0.442540  0.145220  0.311530  1
  N  N3084  1  0.942540  0.854780  0.188470  1
  N  N3085  1  0.569750  0.748400  0.693520  1
  N  N3086  1  0.069750  0.251600  0.806480  1
  N  N3087  1  0.430250  0.251600  0.306480  1
  N  N3088  1  0.930250  0.748400  0.193520  1
  N  N3089  1  0.569550  0.784160  0.688830  1
  N  N3090  1  0.069550  0.215840  0.811170  1
  N  N3091  1  0.430450  0.215840  0.311170  1
  N  N3092  1  0.930450  0.784160  0.188830  1
  N  N3093  1  0.442050  0.512890  0.333510  1
  N  N3094  1  0.942050  0.487110  0.166490  1
  N  N3095  1  0.557950  0.487110  0.666490  1
  N  N3096  1  0.057950  0.512890  0.833510  1
  N  N3097  1  0.485370  0.620080  0.413880  1
  N  N3098  1  0.985370  0.379920  0.086120  1
  N  N3099  1  0.514630  0.379920  0.586120  1
  N  N3100  1  0.014630  0.620080  0.913880  1
  N  N3101  1  0.473380  0.579980  0.387280  1
  N  N3102  1  0.973380  0.420020  0.112720  1
  N  N3103  1  0.526620  0.420020  0.612720  1
  N  N3104  1  0.026620  0.579980  0.887280  1
  N  N3105  1  0.650190  0.781010  0.656720  1
  N  N3106  1  0.150190  0.218990  0.843280  1
  N  N3107  1  0.349810  0.218990  0.343280  1
  N  N3108  1  0.849810  0.781010  0.156720  1
  N  N3109  1  0.570700  0.779260  0.582490  1
  N  N3110  1  0.070700  0.220740  0.917510  1
  N  N3111  1  0.429300  0.220740  0.417510  1
  N  N3112  1  0.929300  0.779260  0.082490  1
  N  N3113  1  0.596320  0.784270  0.612240  1
  N  N3114  1  0.096320  0.215730  0.887760  1
  N  N3115  1  0.403680  0.215730  0.387760  1
  N  N3116  1  0.903680  0.784270  0.112240  1
  N  N3117  1  0.314620  0.782090  0.485080  1
  N  N3118  1  0.814620  0.217910  0.014920  1
  N  N3119  1  0.685380  0.217910  0.514920  1
  N  N3120  1  0.185380  0.782090  0.985080  1
  N  N3121  1  0.314680  0.829240  0.605280  1
  N  N3122  1  0.814680  0.170760  0.894720  1
  N  N3123  1  0.685320  0.170760  0.394720  1
  N  N3124  1  0.185320  0.829240  0.105280  1
  N  N3125  1  0.316360  0.817400  0.563890  1
  N  N3126  1  0.816360  0.182600  0.936110  1
  N  N3127  1  0.683640  0.182600  0.436110  1
  N  N3128  1  0.183640  0.817400  0.063890  1
  N  N3129  1  0.506920  0.532850  0.430700  1
  N  N3130  1  0.006920  0.467150  0.069300  1
  N  N3131  1  0.493080  0.467150  0.569300  1
  N  N3132  1  0.993080  0.532850  0.930700  1
  N  N3133  1  0.397640  0.527720  0.426830  1
  N  N3134  1  0.897640  0.472280  0.073170  1
  N  N3135  1  0.602360  0.472280  0.573170  1
  N  N3136  1  0.102360  0.527720  0.926830  1
  N  N3137  1  0.435420  0.532760  0.424930  1
  N  N3138  1  0.935420  0.467240  0.075070  1
  N  N3139  1  0.564580  0.467240  0.575070  1
  N  N3140  1  0.064580  0.532760  0.924930  1
  N  N3141  1  0.327340  0.904230  0.565310  1
  N  N3142  1  0.827340  0.095770  0.934690  1
  N  N3143  1  0.672660  0.095770  0.434690  1
  N  N3144  1  0.172660  0.904230  0.065310  1
  N  N3145  1  0.408120  0.822240  0.512590  1
  N  N3146  1  0.908120  0.177760  0.987410  1
  N  N3147  1  0.591880  0.177760  0.487410  1
  N  N3148  1  0.091880  0.822240  0.012590  1
  N  N3149  1  0.377010  0.847210  0.527530  1
  N  N3150  1  0.877010  0.152790  0.972470  1
  N  N3151  1  0.622990  0.152790  0.472470  1
  N  N3152  1  0.122990  0.847210  0.027530  1
  N  N3153  1  0.326200  0.536300  0.036000  1
  N  N3154  1  0.826200  0.463700  0.464000  1
  N  N3155  1  0.673800  0.463700  0.964000  1
  N  N3156  1  0.173800  0.536300  0.536000  1
  N  N3157  1  0.410600  0.962100  0.318700  1
  N  N3158  1  0.910600  0.037900  0.181300  1
  N  N3159  1  0.589400  0.037900  0.681300  1
  N  N3160  1  0.089400  0.962100  0.818700  1
  N  N3161  1  0.316800  0.539100  0.222700  1
  N  N3162  1  0.816800  0.460900  0.277300  1
  N  N3163  1  0.683200  0.460900  0.777300  1
  N  N3164  1  0.183200  0.539100  0.722700  1
  N  N3165  1  0.586790  0.551200  0.212400  1
  N  N3166  1  0.086790  0.448800  0.287600  1
  N  N3167  1  0.413210  0.448800  0.787600  1
  N  N3168  1  0.913210  0.551200  0.712400  1
  N  N3169  1  0.554360  0.910000  0.585600  1
  N  N3170  1  0.054360  0.090000  0.914400  1
  N  N3171  1  0.445640  0.090000  0.414400  1
  N  N3172  1  0.945640  0.910000  0.085600  1
  N  N3173  1  0.676300  0.581500  0.610000  1
  N  N3174  1  0.176300  0.418500  0.890000  1
  N  N3175  1  0.323700  0.418500  0.390000  1
  N  N3176  1  0.823700  0.581500  0.110000  1
  N  N3177  1  0.417600  0.569600  0.597600  1
  N  N3178  1  0.917600  0.430400  0.902400  1
  N  N3179  1  0.582400  0.430400  0.402400  1
  N  N3180  1  0.082400  0.569600  0.097600  1
  N  N3181  1  0.319900  0.740600  0.736980  1
  N  N3182  1  0.819900  0.259400  0.763020  1
  N  N3183  1  0.680100  0.259400  0.263020  1
  N  N3184  1  0.180100  0.740600  0.236980  1
  N  N3185  1  0.562030  0.793750  0.823780  1
  N  N3186  1  0.062030  0.206250  0.676220  1
  N  N3187  1  0.437970  0.206250  0.176220  1
  N  N3188  1  0.937970  0.793750  0.323780  1
  N  N3189  1  0.683500  0.756000  0.765800  1
  N  N3190  1  0.183500  0.244000  0.734200  1
  N  N3191  1  0.316500  0.244000  0.234200  1
  N  N3192  1  0.816500  0.756000  0.265800  1
  N  N3193  1  0.251900  0.590300  0.817300  1
  N  N3194  1  0.751900  0.409700  0.682700  1
  N  N3195  1  0.748100  0.409700  0.182700  1
  N  N3196  1  0.248100  0.590300  0.317300  1
  N  N3197  1  0.679470  0.556300  0.740800  1
  N  N3198  1  0.179470  0.443700  0.759200  1
  N  N3199  1  0.320530  0.443700  0.259200  1
  N  N3200  1  0.820530  0.556300  0.240800  1
  O  O3201  1  0.317800  0.500000  0.016100  1
  O  O3202  1  0.817800  0.500000  0.483900  1
  O  O3203  1  0.682200  0.500000  0.983900  1
  O  O3204  1  0.182200  0.500000  0.516100  1
  O  O3205  1  0.353400  0.548600  0.056500  1
  O  O3206  1  0.853400  0.451400  0.443500  1
  O  O3207  1  0.646600  0.451400  0.943500  1
  O  O3208  1  0.146600  0.548600  0.556500  1
  O  O3209  1  0.423100  0.979100  0.298800  1
  O  O3210  1  0.923100  0.020900  0.201200  1
  O  O3211  1  0.576900  0.020900  0.701200  1
  O  O3212  1  0.076900  0.979100  0.798800  1
  O  O3213  1  0.408700  0.924500  0.303800  1
  O  O3214  1  0.908700  0.075500  0.196200  1
  O  O3215  1  0.591300  0.075500  0.696200  1
  O  O3216  1  0.091300  0.924500  0.803800  1
  O  O3217  1  0.342200  0.536200  0.201900  1
  O  O3218  1  0.842200  0.463800  0.298100  1
  O  O3219  1  0.657800  0.463800  0.798100  1
  O  O3220  1  0.157800  0.536200  0.701900  1
  O  O3221  1  0.317500  0.556400  0.259500  1
  O  O3222  1  0.817500  0.443600  0.240500  1
  O  O3223  1  0.682500  0.443600  0.740500  1
  O  O3224  1  0.182500  0.556400  0.759500  1
  O  O3225  1  0.584800  0.579900  0.204900  1
  O  O3226  1  0.084800  0.420100  0.295100  1
  O  O3227  1  0.415200  0.420100  0.795100  1
  O  O3228  1  0.915200  0.579900  0.704900  1
  O  O3229  1  0.598400  0.556700  0.246700  1
  O  O3230  1  0.098400  0.443300  0.253300  1
  O  O3231  1  0.401600  0.443300  0.753300  1
  O  O3232  1  0.901600  0.556700  0.746700  1
  O  O3233  1  0.562200  0.876700  0.558000  1
  O  O3234  1  0.062200  0.123300  0.942000  1
  O  O3235  1  0.437800  0.123300  0.442000  1
  O  O3236  1  0.937800  0.876700  0.058000  1
  O  O3237  1  0.558000  0.915700  0.620100  1
  O  O3238  1  0.058000  0.084300  0.879900  1
  O  O3239  1  0.442000  0.084300  0.379900  1
  O  O3240  1  0.942000  0.915700  0.120100  1
  O  O3241  1  0.650000  0.559800  0.594600  1
  O  O3242  1  0.150000  0.440200  0.905400  1
  O  O3243  1  0.350000  0.440200  0.405400  1
  O  O3244  1  0.850000  0.559800  0.094600  1
  O  O3245  1  0.695540  0.595600  0.592800  1
  O  O3246  1  0.195540  0.404400  0.907200  1
  O  O3247  1  0.304460  0.404400  0.407200  1
  O  O3248  1  0.804460  0.595600  0.092800  1
  O  O3249  1  0.447500  0.562800  0.582600  1
  O  O3250  1  0.947500  0.437200  0.917400  1
  O  O3251  1  0.552500  0.437200  0.417400  1
  O  O3252  1  0.052500  0.562800  0.082600  1
  O  O3253  1  0.406000  0.552600  0.616600  1
  O  O3254  1  0.906000  0.447400  0.883400  1
  O  O3255  1  0.594000  0.447400  0.383400  1
  O  O3256  1  0.094000  0.552600  0.116600  1
  O  O3257  1  0.290600  0.723100  0.733100  1
  O  O3258  1  0.790600  0.276900  0.766900  1
  O  O3259  1  0.709400  0.276900  0.266900  1
  O  O3260  1  0.209400  0.723100  0.233100  1
  O  O3261  1  0.347010  0.731550  0.749850  1
  O  O3262  1  0.847010  0.268450  0.750150  1
  O  O3263  1  0.652990  0.268450  0.250150  1
  O  O3264  1  0.152990  0.731550  0.249850  1
  O  O3265  1  0.536300  0.796500  0.844100  1
  O  O3266  1  0.036300  0.203500  0.655900  1
  O  O3267  1  0.463700  0.203500  0.155900  1
  O  O3268  1  0.963700  0.796500  0.344100  1
  O  O3269  1  0.565400  0.811900  0.804300  1
  O  O3270  1  0.065400  0.188100  0.695700  1
  O  O3271  1  0.434600  0.188100  0.195700  1
  O  O3272  1  0.934600  0.811900  0.304300  1
  O  O3273  1  0.709000  0.779900  0.771400  1
  O  O3274  1  0.209000  0.220100  0.728600  1
  O  O3275  1  0.291000  0.220100  0.228600  1
  O  O3276  1  0.791000  0.779900  0.271400  1
  O  O3277  1  0.653740  0.758800  0.752000  1
  O  O3278  1  0.153740  0.241200  0.748000  1
  O  O3279  1  0.346260  0.241200  0.248000  1
  O  O3280  1  0.846260  0.758800  0.252000  1
  O  O3281  1  0.240400  0.621200  0.845600  1
  O  O3282  1  0.740400  0.378800  0.654400  1
  O  O3283  1  0.759600  0.378800  0.154400  1
  O  O3284  1  0.259600  0.621200  0.345600  1
  O  O3285  1  0.268100  0.590500  0.789400  1
  O  O3286  1  0.768100  0.409500  0.710600  1
  O  O3287  1  0.731900  0.409500  0.210600  1
  O  O3288  1  0.231900  0.590500  0.289400  1
  O  O3289  1  0.687100  0.537200  0.705900  1
  O  O3290  1  0.187100  0.462800  0.794100  1
  O  O3291  1  0.312900  0.462800  0.294100  1
  O  O3292  1  0.812900  0.537200  0.205900  1
  O  O3293  1  0.682700  0.544100  0.764900  1
  O  O3294  1  0.182700  0.455900  0.735100  1
  O  O3295  1  0.317300  0.455900  0.235100  1
  O  O3296  1  0.817300  0.544100  0.264900  1
  F  F3297  1  0.480660  0.777890  0.071080  1
  F  F3298  1  0.980660  0.222110  0.428920  1
  F  F3299  1  0.519340  0.222110  0.928920  1
  F  F3300  1  0.019340  0.777890  0.571080  1
  F  F3301  1  0.501000  0.713680  0.044530  1
  F  F3302  1  0.001000  0.286320  0.455470  1
  F  F3303  1  0.499000  0.286320  0.955470  1
  F  F3304  1  0.999000  0.713680  0.544530  1
  F  F3305  1  0.501570  0.747240  0.007600  1
  F  F3306  1  0.001570  0.252760  0.492400  1
  F  F3307  1  0.498430  0.252760  0.992400  1
  F  F3308  1  0.998430  0.747240  0.507600  1
  F  F3309  1  0.448330  0.727930  0.022300  1
  F  F3310  1  0.948330  0.272070  0.477700  1
  F  F3311  1  0.551670  0.272070  0.977700  1
  F  F3312  1  0.051670  0.727930  0.522300  1
  F  F3313  1  0.387220  0.846300  0.050560  1
  F  F3314  1  0.887220  0.153700  0.449440  1
  F  F3315  1  0.612780  0.153700  0.949440  1
  F  F3316  1  0.112780  0.846300  0.550560  1
  F  F3317  1  0.417630  0.871320  0.109210  1
  F  F3318  1  0.917630  0.128680  0.390790  1
  F  F3319  1  0.582370  0.128680  0.890790  1
  F  F3320  1  0.082370  0.871320  0.609210  1
  F  F3321  1  0.398220  0.913720  0.086180  1
  F  F3322  1  0.898220  0.086280  0.413820  1
  F  F3323  1  0.601780  0.086280  0.913820  1
  F  F3324  1  0.101780  0.913720  0.586180  1
  F  F3325  1  0.358180  0.884510  0.109300  1
  F  F3326  1  0.858180  0.115490  0.390700  1
  F  F3327  1  0.641820  0.115490  0.890700  1
  F  F3328  1  0.141820  0.884510  0.609300  1
  F  F3329  1  0.579240  0.737730  0.137500  1
  F  F3330  1  0.079240  0.262270  0.362500  1
  F  F3331  1  0.420760  0.262270  0.862500  1
  F  F3332  1  0.920760  0.737730  0.637500  1
  F  F3333  1  0.567660  0.784200  0.116690  1
  F  F3334  1  0.067660  0.215800  0.383310  1
  F  F3335  1  0.432340  0.215800  0.883310  1
  F  F3336  1  0.932340  0.784200  0.616690  1
  F  F3337  1  0.624690  0.763820  0.117640  1
  F  F3338  1  0.124690  0.236180  0.382360  1
  F  F3339  1  0.375310  0.236180  0.882360  1
  F  F3340  1  0.875310  0.763820  0.617640  1
  F  F3341  1  0.595870  0.803530  0.175810  1
  F  F3342  1  0.095870  0.196470  0.324190  1
  F  F3343  1  0.404130  0.196470  0.824190  1
  F  F3344  1  0.904130  0.803530  0.675810  1
  F  F3345  1  0.552620  0.766930  0.484340  1
  F  F3346  1  0.052620  0.233070  0.015660  1
  F  F3347  1  0.447380  0.233070  0.515660  1
  F  F3348  1  0.947380  0.766930  0.984340  1
  F  F3349  1  0.519940  0.722220  0.431440  1
  F  F3350  1  0.019940  0.277780  0.068560  1
  F  F3351  1  0.480060  0.277780  0.568560  1
  F  F3352  1  0.980060  0.722220  0.931440  1
  F  F3353  1  0.498810  0.785290  0.467980  1
  F  F3354  1  0.998810  0.214710  0.032020  1
  F  F3355  1  0.501190  0.214710  0.532020  1
  F  F3356  1  0.001190  0.785290  0.967980  1
  F  F3357  1  0.500710  0.741240  0.494530  1
  F  F3358  1  0.000710  0.258760  0.005470  1
  F  F3359  1  0.499290  0.258760  0.505470  1
  F  F3360  1  0.999290  0.741240  0.994530  1
  F  F3361  1  0.375180  0.740060  0.387930  1
  F  F3362  1  0.875180  0.259940  0.112070  1
  F  F3363  1  0.624820  0.259940  0.612070  1
  F  F3364  1  0.124820  0.740060  0.887930  1
  F  F3365  1  0.418800  0.777440  0.379750  1
  F  F3366  1  0.918800  0.222560  0.120250  1
  F  F3367  1  0.581200  0.222560  0.620250  1
  F  F3368  1  0.081200  0.777440  0.879750  1
  F  F3369  1  0.409250  0.713020  0.331590  1
  F  F3370  1  0.909250  0.286980  0.168410  1
  F  F3371  1  0.590750  0.286980  0.668410  1
  F  F3372  1  0.090750  0.713020  0.831590  1
  F  F3373  1  0.434530  0.725340  0.391430  1
  F  F3374  1  0.934530  0.274660  0.108570  1
  F  F3375  1  0.565470  0.274660  0.608570  1
  F  F3376  1  0.065470  0.725340  0.891430  1
  F  F3377  1  0.597330  0.582330  0.413370  1
  F  F3378  1  0.097330  0.417670  0.086630  1
  F  F3379  1  0.402670  0.417670  0.586630  1
  F  F3380  1  0.902670  0.582330  0.913370  1
  F  F3381  1  0.612140  0.648430  0.452640  1
  F  F3382  1  0.112140  0.351570  0.047360  1
  F  F3383  1  0.387860  0.351570  0.547360  1
  F  F3384  1  0.887860  0.648430  0.952640  1
  F  F3385  1  0.643210  0.610790  0.395270  1
  F  F3386  1  0.143210  0.389210  0.104730  1
  F  F3387  1  0.356790  0.389210  0.604730  1
  F  F3388  1  0.856790  0.610790  0.895270  1
  F  F3389  1  0.585010  0.629050  0.394040  1
  F  F3390  1  0.085010  0.370950  0.105960  1
  F  F3391  1  0.414990  0.370950  0.605960  1
  F  F3392  1  0.914990  0.629050  0.894040  1
  F  F3393  1  0.499960  0.537520  0.141260  1
  F  F3394  1  0.999960  0.462480  0.358740  1
  F  F3395  1  0.500040  0.462480  0.858740  1
  F  F3396  1  0.000040  0.537520  0.641260  1
  F  F3397  1  0.461810  0.491050  0.095090  1
  F  F3398  1  0.961810  0.508950  0.404910  1
  F  F3399  1  0.538190  0.508950  0.904910  1
  F  F3400  1  0.038190  0.491050  0.595090  1
  F  F3401  1  0.490710  0.476780  0.139530  1
  F  F3402  1  0.990710  0.523220  0.360470  1
  F  F3403  1  0.509290  0.523220  0.860470  1
  F  F3404  1  0.009290  0.476780  0.639530  1
  F  F3405  1  0.446190  0.523440  0.160270  1
  F  F3406  1  0.946190  0.476560  0.339730  1
  F  F3407  1  0.553810  0.476560  0.839730  1
  F  F3408  1  0.053810  0.523440  0.660270  1
  F  F3409  1  0.558380  0.977800  0.334490  1
  F  F3410  1  0.058380  0.022200  0.165510  1
  F  F3411  1  0.441620  0.022200  0.665510  1
  F  F3412  1  0.941620  0.977800  0.834490  1
  F  F3413  1  0.516700  0.026500  0.353500  1
  F  F3414  1  0.016700  0.973500  0.146500  1
  F  F3415  1  0.483300  0.973500  0.646500  1
  F  F3416  1  0.983300  0.026500  0.853500  1
  F  F3417  1  0.503540  0.967100  0.350500  1
  F  F3418  1  0.003540  0.032900  0.149500  1
  F  F3419  1  0.496460  0.032900  0.649500  1
  F  F3420  1  0.996460  0.967100  0.850500  1
  F  F3421  1  0.540500  0.010500  0.398100  1
  F  F3422  1  0.040500  0.989500  0.101900  1
  F  F3423  1  0.459500  0.989500  0.601900  1
  F  F3424  1  0.959500  0.010500  0.898100  1
  F  F3425  1  0.708460  0.653700  0.291400  1
  F  F3426  1  0.208460  0.346300  0.208600  1
  F  F3427  1  0.291540  0.346300  0.708600  1
  F  F3428  1  0.791540  0.653700  0.791400  1
  F  F3429  1  0.762200  0.683600  0.313400  1
  F  F3430  1  0.262200  0.316400  0.186600  1
  F  F3431  1  0.237800  0.316400  0.686600  1
  F  F3432  1  0.737800  0.683600  0.813400  1
  F  F3433  1  0.756500  0.615700  0.291500  1
  F  F3434  1  0.256500  0.384300  0.208500  1
  F  F3435  1  0.243500  0.384300  0.708500  1
  F  F3436  1  0.743500  0.615700  0.791500  1
  F  F3437  1  0.755130  0.641600  0.248100  1
  F  F3438  1  0.255130  0.358400  0.251900  1
  F  F3439  1  0.244870  0.358400  0.751900  1
  F  F3440  1  0.744870  0.641600  0.748100  1
  F  F3441  1  0.304520  0.513600  0.445700  1
  F  F3442  1  0.804520  0.486400  0.054300  1
  F  F3443  1  0.695480  0.486400  0.554300  1
  F  F3444  1  0.195480  0.513600  0.945700  1
  F  F3445  1  0.250570  0.543780  0.454240  1
  F  F3446  1  0.750570  0.456220  0.045760  1
  F  F3447  1  0.749430  0.456220  0.545760  1
  F  F3448  1  0.249430  0.543780  0.954240  1
  F  F3449  1  0.256190  0.476900  0.413500  1
  F  F3450  1  0.756190  0.523100  0.086500  1
  F  F3451  1  0.743810  0.523100  0.586500  1
  F  F3452  1  0.243810  0.476900  0.913500  1
  F  F3453  1  0.279220  0.521400  0.395600  1
  F  F3454  1  0.779220  0.478600  0.104400  1
  F  F3455  1  0.720780  0.478600  0.604400  1
  F  F3456  1  0.220780  0.521400  0.895600  1
  F  F3457  1  0.386930  0.843920  0.794160  1
  F  F3458  1  0.886930  0.156080  0.705840  1
  F  F3459  1  0.613070  0.156080  0.205840  1
  F  F3460  1  0.113070  0.843920  0.294160  1
  F  F3461  1  0.440900  0.816710  0.767980  1
  F  F3462  1  0.940900  0.183290  0.732020  1
  F  F3463  1  0.559100  0.183290  0.232020  1
  F  F3464  1  0.059100  0.816710  0.267980  1
  F  F3465  1  0.427170  0.879130  0.776680  1
  F  F3466  1  0.927170  0.120870  0.723320  1
  F  F3467  1  0.572830  0.120870  0.223320  1
  F  F3468  1  0.072830  0.879130  0.276680  1
  F  F3469  1  0.397950  0.825980  0.730350  1
  F  F3470  1  0.897950  0.174020  0.769650  1
  F  F3471  1  0.602050  0.174020  0.269650  1
  F  F3472  1  0.102050  0.825980  0.230350  1
  F  F3473  1  0.564730  0.678990  0.739000  1
  F  F3474  1  0.064730  0.321010  0.761000  1
  F  F3475  1  0.435270  0.321010  0.261000  1
  F  F3476  1  0.935270  0.678990  0.239000  1
  F  F3477  1  0.578660  0.617640  0.732590  1
  F  F3478  1  0.078660  0.382360  0.767410  1
  F  F3479  1  0.421340  0.382360  0.267410  1
  F  F3480  1  0.921340  0.617640  0.232590  1
  F  F3481  1  0.610430  0.672550  0.775310  1
  F  F3482  1  0.110430  0.327450  0.724690  1
  F  F3483  1  0.389570  0.327450  0.224690  1
  F  F3484  1  0.889570  0.672550  0.275310  1
  F  F3485  1  0.616880  0.649200  0.709810  1
  F  F3486  1  0.116880  0.350800  0.790190  1
  F  F3487  1  0.383120  0.350800  0.290190  1
  F  F3488  1  0.883120  0.649200  0.209810  1
