# generated using pymatgen
data_Cd8B23H348C432(N9F10)8
_symmetry_space_group_name_H-M   'P 1'
_cell_length_a   35.75850000
_cell_length_b   35.75850000
_cell_length_c   35.75850000
_cell_angle_alpha   90.00000000
_cell_angle_beta   90.00000000
_cell_angle_gamma   90.00000000
_symmetry_Int_Tables_number   1
_chemical_formula_structural   Cd8B23H348C432(N9F10)8
_chemical_formula_sum   'Cd32 B92 H1392 C1728 N288 F320'
_cell_volume   45723.33271818
_cell_formula_units_Z   4
loop_
 _symmetry_equiv_pos_site_id
 _symmetry_equiv_pos_as_xyz
  1  'x, y, z'
loop_
 _atom_site_type_symbol
 _atom_site_label
 _atom_site_symmetry_multiplicity
 _atom_site_fract_x
 _atom_site_fract_y
 _atom_site_fract_z
 _atom_site_occupancy
  Cd  Cd1  1  0.637970  0.637970  0.362030  1
  Cd  Cd2  1  0.362030  0.362030  0.362030  1
  Cd  Cd3  1  0.362030  0.637970  0.637970  1
  Cd  Cd4  1  0.637970  0.362030  0.637970  1
  Cd  Cd5  1  0.137970  0.137970  0.862030  1
  Cd  Cd6  1  0.862030  0.862030  0.862030  1
  Cd  Cd7  1  0.862030  0.137970  0.137970  1
  Cd  Cd8  1  0.137970  0.862030  0.137970  1
  Cd  Cd9  1  0.669690  0.937640  0.228400  1.0
  Cd  Cd10  1  0.330310  0.062360  0.228400  1.0
  Cd  Cd11  1  0.330310  0.937640  0.771600  1.0
  Cd  Cd12  1  0.669690  0.062360  0.771600  1.0
  Cd  Cd13  1  0.228400  0.669690  0.937640  1.0
  Cd  Cd14  1  0.228400  0.330310  0.062360  1.0
  Cd  Cd15  1  0.771600  0.330310  0.937640  1.0
  Cd  Cd16  1  0.771600  0.669690  0.062360  1.0
  Cd  Cd17  1  0.937640  0.228400  0.669690  1.0
  Cd  Cd18  1  0.062360  0.228400  0.330310  1.0
  Cd  Cd19  1  0.937640  0.771600  0.330310  1.0
  Cd  Cd20  1  0.062360  0.771600  0.669690  1.0
  Cd  Cd21  1  0.169690  0.437640  0.728400  1.0
  Cd  Cd22  1  0.830310  0.562360  0.728400  1.0
  Cd  Cd23  1  0.830310  0.437640  0.271600  1.0
  Cd  Cd24  1  0.169690  0.562360  0.271600  1.0
  Cd  Cd25  1  0.728400  0.169690  0.437640  1.0
  Cd  Cd26  1  0.728400  0.830310  0.562360  1.0
  Cd  Cd27  1  0.271600  0.830310  0.437640  1.0
  Cd  Cd28  1  0.271600  0.169690  0.562360  1.0
  Cd  Cd29  1  0.437640  0.728400  0.169690  1.0
  Cd  Cd30  1  0.562360  0.728400  0.830310  1.0
  Cd  Cd31  1  0.437640  0.271600  0.830310  1.0
  Cd  Cd32  1  0.562360  0.271600  0.169690  1.0
  B  B33  1  0.500000  0.836500  0.500000  1
  B  B34  1  0.500000  0.163500  0.500000  1
  B  B35  1  0.500000  0.500000  0.836500  1
  B  B36  1  0.500000  0.500000  0.163500  1
  B  B37  1  0.836500  0.500000  0.500000  1
  B  B38  1  0.163500  0.500000  0.500000  1
  B  B39  1  0.000000  0.336500  0.000000  1
  B  B40  1  0.000000  0.663500  0.000000  1
  B  B41  1  0.000000  0.000000  0.336500  1
  B  B42  1  0.000000  0.000000  0.663500  1
  B  B43  1  0.336500  0.000000  0.000000  1
  B  B44  1  0.663500  0.000000  0.000000  1
  B  B45  1  0.729500  0.729500  0.270500  1
  B  B46  1  0.270500  0.270500  0.270500  1
  B  B47  1  0.270500  0.729500  0.729500  1
  B  B48  1  0.729500  0.270500  0.729500  1
  B  B49  1  0.229500  0.229500  0.770500  1
  B  B50  1  0.770500  0.770500  0.770500  1
  B  B51  1  0.770500  0.229500  0.229500  1
  B  B52  1  0.229500  0.770500  0.229500  1
  B  B53  1  0.783000  0.792200  0.401600  1
  B  B54  1  0.217000  0.207800  0.401600  1
  B  B55  1  0.217000  0.792200  0.598400  1
  B  B56  1  0.783000  0.207800  0.598400  1
  B  B57  1  0.401600  0.783000  0.792200  1
  B  B58  1  0.401600  0.217000  0.207800  1
  B  B59  1  0.598400  0.217000  0.792200  1
  B  B60  1  0.598400  0.783000  0.207800  1
  B  B61  1  0.792200  0.401600  0.783000  1
  B  B62  1  0.207800  0.401600  0.217000  1
  B  B63  1  0.792200  0.598400  0.217000  1
  B  B64  1  0.207800  0.598400  0.783000  1
  B  B65  1  0.283000  0.292200  0.901600  1
  B  B66  1  0.717000  0.707800  0.901600  1
  B  B67  1  0.717000  0.292200  0.098400  1
  B  B68  1  0.283000  0.707800  0.098400  1
  B  B69  1  0.901600  0.283000  0.292200  1
  B  B70  1  0.901600  0.717000  0.707800  1
  B  B71  1  0.098400  0.717000  0.292200  1
  B  B72  1  0.098400  0.283000  0.707800  1
  B  B73  1  0.292200  0.901600  0.283000  1
  B  B74  1  0.707800  0.901600  0.717000  1
  B  B75  1  0.292200  0.098400  0.717000  1
  B  B76  1  0.707800  0.098400  0.283000  1
  B  B77  1  0.783000  0.804900  0.404400  1
  B  B78  1  0.217000  0.195100  0.404400  1
  B  B79  1  0.217000  0.804900  0.595600  1
  B  B80  1  0.783000  0.195100  0.595600  1
  B  B81  1  0.404400  0.783000  0.804900  1
  B  B82  1  0.404400  0.217000  0.195100  1
  B  B83  1  0.595600  0.217000  0.804900  1
  B  B84  1  0.595600  0.783000  0.195100  1
  B  B85  1  0.804900  0.404400  0.783000  1
  B  B86  1  0.195100  0.404400  0.217000  1
  B  B87  1  0.804900  0.595600  0.217000  1
  B  B88  1  0.195100  0.595600  0.783000  1
  B  B89  1  0.283000  0.304900  0.904400  1
  B  B90  1  0.717000  0.695100  0.904400  1
  B  B91  1  0.717000  0.304900  0.095600  1
  B  B92  1  0.283000  0.695100  0.095600  1
  B  B93  1  0.904400  0.283000  0.304900  1
  B  B94  1  0.904400  0.717000  0.695100  1
  B  B95  1  0.095600  0.717000  0.304900  1
  B  B96  1  0.095600  0.283000  0.695100  1
  B  B97  1  0.304900  0.904400  0.283000  1
  B  B98  1  0.695100  0.904400  0.717000  1
  B  B99  1  0.304900  0.095600  0.717000  1
  B  B100  1  0.695100  0.095600  0.283000  1
  B  B101  1  0.780900  0.791200  0.405400  1
  B  B102  1  0.219100  0.208800  0.405400  1
  B  B103  1  0.219100  0.791200  0.594600  1
  B  B104  1  0.780900  0.208800  0.594600  1
  B  B105  1  0.405400  0.780900  0.791200  1
  B  B106  1  0.405400  0.219100  0.208800  1
  B  B107  1  0.594600  0.219100  0.791200  1
  B  B108  1  0.594600  0.780900  0.208800  1
  B  B109  1  0.791200  0.405400  0.780900  1
  B  B110  1  0.208800  0.405400  0.219100  1
  B  B111  1  0.791200  0.594600  0.219100  1
  B  B112  1  0.208800  0.594600  0.780900  1
  B  B113  1  0.280900  0.291200  0.905400  1
  B  B114  1  0.719100  0.708800  0.905400  1
  B  B115  1  0.719100  0.291200  0.094600  1
  B  B116  1  0.280900  0.708800  0.094600  1
  B  B117  1  0.905400  0.280900  0.291200  1
  B  B118  1  0.905400  0.719100  0.708800  1
  B  B119  1  0.094600  0.719100  0.291200  1
  B  B120  1  0.094600  0.280900  0.708800  1
  B  B121  1  0.291200  0.905400  0.280900  1
  B  B122  1  0.708800  0.905400  0.719100  1
  B  B123  1  0.291200  0.094600  0.719100  1
  B  B124  1  0.708800  0.094600  0.280900  1
  H  H125  1  0.510800  0.903900  0.462800  1.0
  H  H126  1  0.489200  0.096100  0.462800  1.0
  H  H127  1  0.489200  0.903900  0.537200  1.0
  H  H128  1  0.510800  0.096100  0.537200  1.0
  H  H129  1  0.462800  0.510800  0.903900  1.0
  H  H130  1  0.462800  0.489200  0.096100  1.0
  H  H131  1  0.537200  0.489200  0.903900  1.0
  H  H132  1  0.537200  0.510800  0.096100  1.0
  H  H133  1  0.903900  0.462800  0.510800  1.0
  H  H134  1  0.096100  0.462800  0.489200  1.0
  H  H135  1  0.903900  0.537200  0.489200  1.0
  H  H136  1  0.096100  0.537200  0.510800  1.0
  H  H137  1  0.010800  0.403900  0.962800  1.0
  H  H138  1  0.989200  0.596100  0.962800  1.0
  H  H139  1  0.989200  0.403900  0.037200  1.0
  H  H140  1  0.010800  0.596100  0.037200  1.0
  H  H141  1  0.962800  0.010800  0.403900  1.0
  H  H142  1  0.962800  0.989200  0.596100  1.0
  H  H143  1  0.037200  0.989200  0.403900  1.0
  H  H144  1  0.037200  0.010800  0.596100  1.0
  H  H145  1  0.403900  0.962800  0.010800  1.0
  H  H146  1  0.596100  0.962800  0.989200  1.0
  H  H147  1  0.403900  0.037200  0.989200  1.0
  H  H148  1  0.596100  0.037200  0.010800  1.0
  H  H149  1  0.562600  0.942600  0.452600  1.0
  H  H150  1  0.437400  0.057400  0.452600  1.0
  H  H151  1  0.437400  0.942600  0.547400  1.0
  H  H152  1  0.562600  0.057400  0.547400  1.0
  H  H153  1  0.452600  0.562600  0.942600  1.0
  H  H154  1  0.452600  0.437400  0.057400  1.0
  H  H155  1  0.547400  0.437400  0.942600  1.0
  H  H156  1  0.547400  0.562600  0.057400  1.0
  H  H157  1  0.942600  0.452600  0.562600  1.0
  H  H158  1  0.057400  0.452600  0.437400  1.0
  H  H159  1  0.942600  0.547400  0.437400  1.0
  H  H160  1  0.057400  0.547400  0.562600  1.0
  H  H161  1  0.062600  0.442600  0.952600  1.0
  H  H162  1  0.937400  0.557400  0.952600  1.0
  H  H163  1  0.937400  0.442600  0.047400  1.0
  H  H164  1  0.062600  0.557400  0.047400  1.0
  H  H165  1  0.952600  0.062600  0.442600  1.0
  H  H166  1  0.952600  0.937400  0.557400  1.0
  H  H167  1  0.047400  0.937400  0.442600  1.0
  H  H168  1  0.047400  0.062600  0.557400  1.0
  H  H169  1  0.442600  0.952600  0.062600  1.0
  H  H170  1  0.557400  0.952600  0.937400  1.0
  H  H171  1  0.442600  0.047400  0.937400  1.0
  H  H172  1  0.557400  0.047400  0.062600  1.0
  H  H173  1  0.621100  0.926000  0.476800  1.0
  H  H174  1  0.378900  0.074000  0.476800  1.0
  H  H175  1  0.378900  0.926000  0.523200  1.0
  H  H176  1  0.621100  0.074000  0.523200  1.0
  H  H177  1  0.476800  0.621100  0.926000  1.0
  H  H178  1  0.476800  0.378900  0.074000  1.0
  H  H179  1  0.523200  0.378900  0.926000  1.0
  H  H180  1  0.523200  0.621100  0.074000  1.0
  H  H181  1  0.926000  0.476800  0.621100  1.0
  H  H182  1  0.074000  0.476800  0.378900  1.0
  H  H183  1  0.926000  0.523200  0.378900  1.0
  H  H184  1  0.074000  0.523200  0.621100  1.0
  H  H185  1  0.121100  0.426000  0.976800  1.0
  H  H186  1  0.878900  0.574000  0.976800  1.0
  H  H187  1  0.878900  0.426000  0.023200  1.0
  H  H188  1  0.121100  0.574000  0.023200  1.0
  H  H189  1  0.976800  0.121100  0.426000  1.0
  H  H190  1  0.976800  0.878900  0.574000  1.0
  H  H191  1  0.023200  0.878900  0.426000  1.0
  H  H192  1  0.023200  0.121100  0.574000  1.0
  H  H193  1  0.426000  0.976800  0.121100  1.0
  H  H194  1  0.574000  0.976800  0.878900  1.0
  H  H195  1  0.426000  0.023200  0.878900  1.0
  H  H196  1  0.574000  0.023200  0.121100  1.0
  H  H197  1  0.627800  0.870700  0.511200  1.0
  H  H198  1  0.372200  0.129300  0.511200  1.0
  H  H199  1  0.372200  0.870700  0.488800  1.0
  H  H200  1  0.627800  0.129300  0.488800  1.0
  H  H201  1  0.511200  0.627800  0.870700  1.0
  H  H202  1  0.511200  0.372200  0.129300  1.0
  H  H203  1  0.488800  0.372200  0.870700  1.0
  H  H204  1  0.488800  0.627800  0.129300  1.0
  H  H205  1  0.870700  0.511200  0.627800  1.0
  H  H206  1  0.129300  0.511200  0.372200  1.0
  H  H207  1  0.870700  0.488800  0.372200  1.0
  H  H208  1  0.129300  0.488800  0.627800  1.0
  H  H209  1  0.127800  0.370700  0.011200  1.0
  H  H210  1  0.872200  0.629300  0.011200  1.0
  H  H211  1  0.872200  0.370700  0.988800  1.0
  H  H212  1  0.127800  0.629300  0.988800  1.0
  H  H213  1  0.011200  0.127800  0.370700  1.0
  H  H214  1  0.011200  0.872200  0.629300  1.0
  H  H215  1  0.988800  0.872200  0.370700  1.0
  H  H216  1  0.988800  0.127800  0.629300  1.0
  H  H217  1  0.370700  0.011200  0.127800  1.0
  H  H218  1  0.629300  0.011200  0.872200  1.0
  H  H219  1  0.370700  0.988800  0.872200  1.0
  H  H220  1  0.629300  0.988800  0.127800  1.0
  H  H221  1  0.576000  0.832100  0.521400  1.0
  H  H222  1  0.424000  0.167900  0.521400  1.0
  H  H223  1  0.424000  0.832100  0.478600  1.0
  H  H224  1  0.576000  0.167900  0.478600  1.0
  H  H225  1  0.521400  0.576000  0.832100  1.0
  H  H226  1  0.521400  0.424000  0.167900  1.0
  H  H227  1  0.478600  0.424000  0.832100  1.0
  H  H228  1  0.478600  0.576000  0.167900  1.0
  H  H229  1  0.832100  0.521400  0.576000  1.0
  H  H230  1  0.167900  0.521400  0.424000  1.0
  H  H231  1  0.832100  0.478600  0.424000  1.0
  H  H232  1  0.167900  0.478600  0.576000  1.0
  H  H233  1  0.076000  0.332100  0.021400  1.0
  H  H234  1  0.924000  0.667900  0.021400  1.0
  H  H235  1  0.924000  0.332100  0.978600  1.0
  H  H236  1  0.076000  0.667900  0.978600  1.0
  H  H237  1  0.021400  0.076000  0.332100  1.0
  H  H238  1  0.021400  0.924000  0.667900  1.0
  H  H239  1  0.978600  0.924000  0.332100  1.0
  H  H240  1  0.978600  0.076000  0.667900  1.0
  H  H241  1  0.332100  0.021400  0.076000  1.0
  H  H242  1  0.667900  0.021400  0.924000  1.0
  H  H243  1  0.332100  0.978600  0.924000  1.0
  H  H244  1  0.667900  0.978600  0.076000  1.0
  H  H245  1  0.531600  0.766500  0.516400  1.0
  H  H246  1  0.468400  0.233500  0.516400  1.0
  H  H247  1  0.468400  0.766500  0.483600  1.0
  H  H248  1  0.531600  0.233500  0.483600  1.0
  H  H249  1  0.516400  0.531600  0.766500  1.0
  H  H250  1  0.516400  0.468400  0.233500  1.0
  H  H251  1  0.483600  0.468400  0.766500  1.0
  H  H252  1  0.483600  0.531600  0.233500  1.0
  H  H253  1  0.766500  0.516400  0.531600  1.0
  H  H254  1  0.233500  0.516400  0.468400  1.0
  H  H255  1  0.766500  0.483600  0.468400  1.0
  H  H256  1  0.233500  0.483600  0.531600  1.0
  H  H257  1  0.031600  0.266500  0.016400  1.0
  H  H258  1  0.968400  0.733500  0.016400  1.0
  H  H259  1  0.968400  0.266500  0.983600  1.0
  H  H260  1  0.031600  0.733500  0.983600  1.0
  H  H261  1  0.016400  0.031600  0.266500  1.0
  H  H262  1  0.016400  0.968400  0.733500  1.0
  H  H263  1  0.983600  0.968400  0.266500  1.0
  H  H264  1  0.983600  0.031600  0.733500  1.0
  H  H265  1  0.266500  0.016400  0.031600  1.0
  H  H266  1  0.733500  0.016400  0.968400  1.0
  H  H267  1  0.266500  0.983600  0.968400  1.0
  H  H268  1  0.733500  0.983600  0.031600  1.0
  H  H269  1  0.542800  0.735300  0.572800  1.0
  H  H270  1  0.457200  0.264700  0.572800  1.0
  H  H271  1  0.457200  0.735300  0.427200  1.0
  H  H272  1  0.542800  0.264700  0.427200  1.0
  H  H273  1  0.572800  0.542800  0.735300  1.0
  H  H274  1  0.572800  0.457200  0.264700  1.0
  H  H275  1  0.427200  0.457200  0.735300  1.0
  H  H276  1  0.427200  0.542800  0.264700  1.0
  H  H277  1  0.735300  0.572800  0.542800  1.0
  H  H278  1  0.264700  0.572800  0.457200  1.0
  H  H279  1  0.735300  0.427200  0.457200  1.0
  H  H280  1  0.264700  0.427200  0.542800  1.0
  H  H281  1  0.042800  0.235300  0.072800  1.0
  H  H282  1  0.957200  0.764700  0.072800  1.0
  H  H283  1  0.957200  0.235300  0.927200  1.0
  H  H284  1  0.042800  0.764700  0.927200  1.0
  H  H285  1  0.072800  0.042800  0.235300  1.0
  H  H286  1  0.072800  0.957200  0.764700  1.0
  H  H287  1  0.927200  0.957200  0.235300  1.0
  H  H288  1  0.927200  0.042800  0.764700  1.0
  H  H289  1  0.235300  0.072800  0.042800  1.0
  H  H290  1  0.764700  0.072800  0.957200  1.0
  H  H291  1  0.235300  0.927200  0.957200  1.0
  H  H292  1  0.764700  0.927200  0.042800  1.0
  H  H293  1  0.521400  0.760900  0.629100  1.0
  H  H294  1  0.478600  0.239100  0.629100  1.0
  H  H295  1  0.478600  0.760900  0.370900  1.0
  H  H296  1  0.521400  0.239100  0.370900  1.0
  H  H297  1  0.629100  0.521400  0.760900  1.0
  H  H298  1  0.629100  0.478600  0.239100  1.0
  H  H299  1  0.370900  0.478600  0.760900  1.0
  H  H300  1  0.370900  0.521400  0.239100  1.0
  H  H301  1  0.760900  0.629100  0.521400  1.0
  H  H302  1  0.239100  0.629100  0.478600  1.0
  H  H303  1  0.760900  0.370900  0.478600  1.0
  H  H304  1  0.239100  0.370900  0.521400  1.0
  H  H305  1  0.021400  0.260900  0.129100  1.0
  H  H306  1  0.978600  0.739100  0.129100  1.0
  H  H307  1  0.978600  0.260900  0.870900  1.0
  H  H308  1  0.021400  0.739100  0.870900  1.0
  H  H309  1  0.129100  0.021400  0.260900  1.0
  H  H310  1  0.129100  0.978600  0.739100  1.0
  H  H311  1  0.870900  0.978600  0.260900  1.0
  H  H312  1  0.870900  0.021400  0.739100  1.0
  H  H313  1  0.260900  0.129100  0.021400  1.0
  H  H314  1  0.739100  0.129100  0.978600  1.0
  H  H315  1  0.260900  0.870900  0.978600  1.0
  H  H316  1  0.739100  0.870900  0.021400  1.0
  H  H317  1  0.488700  0.817500  0.629000  1.0
  H  H318  1  0.511300  0.182500  0.629000  1.0
  H  H319  1  0.511300  0.817500  0.371000  1.0
  H  H320  1  0.488700  0.182500  0.371000  1.0
  H  H321  1  0.629000  0.488700  0.817500  1.0
  H  H322  1  0.629000  0.511300  0.182500  1.0
  H  H323  1  0.371000  0.511300  0.817500  1.0
  H  H324  1  0.371000  0.488700  0.182500  1.0
  H  H325  1  0.817500  0.629000  0.488700  1.0
  H  H326  1  0.182500  0.629000  0.511300  1.0
  H  H327  1  0.817500  0.371000  0.511300  1.0
  H  H328  1  0.182500  0.371000  0.488700  1.0
  H  H329  1  0.988700  0.317500  0.129000  1.0
  H  H330  1  0.011300  0.682500  0.129000  1.0
  H  H331  1  0.011300  0.317500  0.871000  1.0
  H  H332  1  0.988700  0.682500  0.871000  1.0
  H  H333  1  0.129000  0.988700  0.317500  1.0
  H  H334  1  0.129000  0.011300  0.682500  1.0
  H  H335  1  0.871000  0.011300  0.317500  1.0
  H  H336  1  0.871000  0.988700  0.682500  1.0
  H  H337  1  0.317500  0.129000  0.988700  1.0
  H  H338  1  0.682500  0.129000  0.011300  1.0
  H  H339  1  0.317500  0.871000  0.011300  1.0
  H  H340  1  0.682500  0.871000  0.988700  1.0
  H  H341  1  0.477400  0.848700  0.572500  1.0
  H  H342  1  0.522600  0.151300  0.572500  1.0
  H  H343  1  0.522600  0.848700  0.427500  1.0
  H  H344  1  0.477400  0.151300  0.427500  1.0
  H  H345  1  0.572500  0.477400  0.848700  1.0
  H  H346  1  0.572500  0.522600  0.151300  1.0
  H  H347  1  0.427500  0.522600  0.848700  1.0
  H  H348  1  0.427500  0.477400  0.151300  1.0
  H  H349  1  0.848700  0.572500  0.477400  1.0
  H  H350  1  0.151300  0.572500  0.522600  1.0
  H  H351  1  0.848700  0.427500  0.522600  1.0
  H  H352  1  0.151300  0.427500  0.477400  1.0
  H  H353  1  0.977400  0.348700  0.072500  1.0
  H  H354  1  0.022600  0.651300  0.072500  1.0
  H  H355  1  0.022600  0.348700  0.927500  1.0
  H  H356  1  0.977400  0.651300  0.927500  1.0
  H  H357  1  0.072500  0.977400  0.348700  1.0
  H  H358  1  0.072500  0.022600  0.651300  1.0
  H  H359  1  0.927500  0.022600  0.348700  1.0
  H  H360  1  0.927500  0.977400  0.651300  1.0
  H  H361  1  0.348700  0.072500  0.977400  1.0
  H  H362  1  0.651300  0.072500  0.022600  1.0
  H  H363  1  0.348700  0.927500  0.022600  1.0
  H  H364  1  0.651300  0.927500  0.977400  1.0
  H  H365  1  0.734500  0.582500  0.457600  1.0
  H  H366  1  0.265500  0.417500  0.457600  1.0
  H  H367  1  0.265500  0.582500  0.542400  1.0
  H  H368  1  0.734500  0.417500  0.542400  1.0
  H  H369  1  0.457600  0.734500  0.582500  1.0
  H  H370  1  0.457600  0.265500  0.417500  1.0
  H  H371  1  0.542400  0.265500  0.582500  1.0
  H  H372  1  0.542400  0.734500  0.417500  1.0
  H  H373  1  0.582500  0.457600  0.734500  1.0
  H  H374  1  0.417500  0.457600  0.265500  1.0
  H  H375  1  0.582500  0.542400  0.265500  1.0
  H  H376  1  0.417500  0.542400  0.734500  1.0
  H  H377  1  0.234500  0.082500  0.957600  1.0
  H  H378  1  0.765500  0.917500  0.957600  1.0
  H  H379  1  0.765500  0.082500  0.042400  1.0
  H  H380  1  0.234500  0.917500  0.042400  1.0
  H  H381  1  0.957600  0.234500  0.082500  1.0
  H  H382  1  0.957600  0.765500  0.917500  1.0
  H  H383  1  0.042400  0.765500  0.082500  1.0
  H  H384  1  0.042400  0.234500  0.917500  1.0
  H  H385  1  0.082500  0.957600  0.234500  1.0
  H  H386  1  0.917500  0.957600  0.765500  1.0
  H  H387  1  0.082500  0.042400  0.765500  1.0
  H  H388  1  0.917500  0.042400  0.234500  1.0
  H  H389  1  0.709900  0.522100  0.463200  1.0
  H  H390  1  0.290100  0.477900  0.463200  1.0
  H  H391  1  0.290100  0.522100  0.536800  1.0
  H  H392  1  0.709900  0.477900  0.536800  1.0
  H  H393  1  0.463200  0.709900  0.522100  1.0
  H  H394  1  0.463200  0.290100  0.477900  1.0
  H  H395  1  0.536800  0.290100  0.522100  1.0
  H  H396  1  0.536800  0.709900  0.477900  1.0
  H  H397  1  0.522100  0.463200  0.709900  1.0
  H  H398  1  0.477900  0.463200  0.290100  1.0
  H  H399  1  0.522100  0.536800  0.290100  1.0
  H  H400  1  0.477900  0.536800  0.709900  1.0
  H  H401  1  0.209900  0.022100  0.963200  1.0
  H  H402  1  0.790100  0.977900  0.963200  1.0
  H  H403  1  0.790100  0.022100  0.036800  1.0
  H  H404  1  0.209900  0.977900  0.036800  1.0
  H  H405  1  0.963200  0.209900  0.022100  1.0
  H  H406  1  0.963200  0.790100  0.977900  1.0
  H  H407  1  0.036800  0.790100  0.022100  1.0
  H  H408  1  0.036800  0.209900  0.977900  1.0
  H  H409  1  0.022100  0.963200  0.209900  1.0
  H  H410  1  0.977900  0.963200  0.790100  1.0
  H  H411  1  0.022100  0.036800  0.790100  1.0
  H  H412  1  0.977900  0.036800  0.209900  1.0
  H  H413  1  0.656200  0.505500  0.429800  1.0
  H  H414  1  0.343800  0.494500  0.429800  1.0
  H  H415  1  0.343800  0.505500  0.570200  1.0
  H  H416  1  0.656200  0.494500  0.570200  1.0
  H  H417  1  0.429800  0.656200  0.505500  1.0
  H  H418  1  0.429800  0.343800  0.494500  1.0
  H  H419  1  0.570200  0.343800  0.505500  1.0
  H  H420  1  0.570200  0.656200  0.494500  1.0
  H  H421  1  0.505500  0.429800  0.656200  1.0
  H  H422  1  0.494500  0.429800  0.343800  1.0
  H  H423  1  0.505500  0.570200  0.343800  1.0
  H  H424  1  0.494500  0.570200  0.656200  1.0
  H  H425  1  0.156200  0.005500  0.929800  1.0
  H  H426  1  0.843800  0.994500  0.929800  1.0
  H  H427  1  0.843800  0.005500  0.070200  1.0
  H  H428  1  0.156200  0.994500  0.070200  1.0
  H  H429  1  0.929800  0.156200  0.005500  1.0
  H  H430  1  0.929800  0.843800  0.994500  1.0
  H  H431  1  0.070200  0.843800  0.005500  1.0
  H  H432  1  0.070200  0.156200  0.994500  1.0
  H  H433  1  0.005500  0.929800  0.156200  1.0
  H  H434  1  0.994500  0.929800  0.843800  1.0
  H  H435  1  0.005500  0.070200  0.843800  1.0
  H  H436  1  0.994500  0.070200  0.156200  1.0
  H  H437  1  0.627000  0.549200  0.390900  1.0
  H  H438  1  0.373000  0.450800  0.390900  1.0
  H  H439  1  0.373000  0.549200  0.609100  1.0
  H  H440  1  0.627000  0.450800  0.609100  1.0
  H  H441  1  0.390900  0.627000  0.549200  1.0
  H  H442  1  0.390900  0.373000  0.450800  1.0
  H  H443  1  0.609100  0.373000  0.549200  1.0
  H  H444  1  0.609100  0.627000  0.450800  1.0
  H  H445  1  0.549200  0.390900  0.627000  1.0
  H  H446  1  0.450800  0.390900  0.373000  1.0
  H  H447  1  0.549200  0.609100  0.373000  1.0
  H  H448  1  0.450800  0.609100  0.627000  1.0
  H  H449  1  0.127000  0.049200  0.890900  1.0
  H  H450  1  0.873000  0.950800  0.890900  1.0
  H  H451  1  0.873000  0.049200  0.109100  1.0
  H  H452  1  0.127000  0.950800  0.109100  1.0
  H  H453  1  0.890900  0.127000  0.049200  1.0
  H  H454  1  0.890900  0.873000  0.950800  1.0
  H  H455  1  0.109100  0.873000  0.049200  1.0
  H  H456  1  0.109100  0.127000  0.950800  1.0
  H  H457  1  0.049200  0.890900  0.127000  1.0
  H  H458  1  0.950800  0.890900  0.873000  1.0
  H  H459  1  0.049200  0.109100  0.873000  1.0
  H  H460  1  0.950800  0.109100  0.127000  1.0
  H  H461  1  0.755000  0.646100  0.451800  1.0
  H  H462  1  0.245000  0.353900  0.451800  1.0
  H  H463  1  0.245000  0.646100  0.548200  1.0
  H  H464  1  0.755000  0.353900  0.548200  1.0
  H  H465  1  0.451800  0.755000  0.646100  1.0
  H  H466  1  0.451800  0.245000  0.353900  1.0
  H  H467  1  0.548200  0.245000  0.646100  1.0
  H  H468  1  0.548200  0.755000  0.353900  1.0
  H  H469  1  0.646100  0.451800  0.755000  1.0
  H  H470  1  0.353900  0.451800  0.245000  1.0
  H  H471  1  0.646100  0.548200  0.245000  1.0
  H  H472  1  0.353900  0.548200  0.755000  1.0
  H  H473  1  0.255000  0.146100  0.951800  1.0
  H  H474  1  0.745000  0.853900  0.951800  1.0
  H  H475  1  0.745000  0.146100  0.048200  1.0
  H  H476  1  0.255000  0.853900  0.048200  1.0
  H  H477  1  0.951800  0.255000  0.146100  1.0
  H  H478  1  0.951800  0.745000  0.853900  1.0
  H  H479  1  0.048200  0.745000  0.146100  1.0
  H  H480  1  0.048200  0.255000  0.853900  1.0
  H  H481  1  0.146100  0.951800  0.255000  1.0
  H  H482  1  0.853900  0.951800  0.745000  1.0
  H  H483  1  0.146100  0.048200  0.745000  1.0
  H  H484  1  0.853900  0.048200  0.255000  1.0
  H  H485  1  0.759100  0.710500  0.422400  1.0
  H  H486  1  0.240900  0.289500  0.422400  1.0
  H  H487  1  0.240900  0.710500  0.577600  1.0
  H  H488  1  0.759100  0.289500  0.577600  1.0
  H  H489  1  0.422400  0.759100  0.710500  1.0
  H  H490  1  0.422400  0.240900  0.289500  1.0
  H  H491  1  0.577600  0.240900  0.710500  1.0
  H  H492  1  0.577600  0.759100  0.289500  1.0
  H  H493  1  0.710500  0.422400  0.759100  1.0
  H  H494  1  0.289500  0.422400  0.240900  1.0
  H  H495  1  0.710500  0.577600  0.240900  1.0
  H  H496  1  0.289500  0.577600  0.759100  1.0
  H  H497  1  0.259100  0.210500  0.922400  1.0
  H  H498  1  0.740900  0.789500  0.922400  1.0
  H  H499  1  0.740900  0.210500  0.077600  1.0
  H  H500  1  0.259100  0.789500  0.077600  1.0
  H  H501  1  0.922400  0.259100  0.210500  1.0
  H  H502  1  0.922400  0.740900  0.789500  1.0
  H  H503  1  0.077600  0.740900  0.210500  1.0
  H  H504  1  0.077600  0.259100  0.789500  1.0
  H  H505  1  0.210500  0.922400  0.259100  1.0
  H  H506  1  0.789500  0.922400  0.740900  1.0
  H  H507  1  0.210500  0.077600  0.740900  1.0
  H  H508  1  0.789500  0.077600  0.259100  1.0
  H  H509  1  0.687800  0.716700  0.346700  1.0
  H  H510  1  0.312200  0.283300  0.346700  1.0
  H  H511  1  0.312200  0.716700  0.653300  1.0
  H  H512  1  0.687800  0.283300  0.653300  1.0
  H  H513  1  0.346700  0.687800  0.716700  1.0
  H  H514  1  0.346700  0.312200  0.283300  1.0
  H  H515  1  0.653300  0.312200  0.716700  1.0
  H  H516  1  0.653300  0.687800  0.283300  1.0
  H  H517  1  0.716700  0.346700  0.687800  1.0
  H  H518  1  0.283300  0.346700  0.312200  1.0
  H  H519  1  0.716700  0.653300  0.312200  1.0
  H  H520  1  0.283300  0.653300  0.687800  1.0
  H  H521  1  0.187800  0.216700  0.846700  1.0
  H  H522  1  0.812200  0.783300  0.846700  1.0
  H  H523  1  0.812200  0.216700  0.153300  1.0
  H  H524  1  0.187800  0.783300  0.153300  1.0
  H  H525  1  0.846700  0.187800  0.216700  1.0
  H  H526  1  0.846700  0.812200  0.783300  1.0
  H  H527  1  0.153300  0.812200  0.216700  1.0
  H  H528  1  0.153300  0.187800  0.783300  1.0
  H  H529  1  0.216700  0.846700  0.187800  1.0
  H  H530  1  0.783300  0.846700  0.812200  1.0
  H  H531  1  0.216700  0.153300  0.812200  1.0
  H  H532  1  0.783300  0.153300  0.187800  1.0
  H  H533  1  0.721000  0.741300  0.363700  1.0
  H  H534  1  0.279000  0.258700  0.363700  1.0
  H  H535  1  0.279000  0.741300  0.636300  1.0
  H  H536  1  0.721000  0.258700  0.636300  1.0
  H  H537  1  0.363700  0.721000  0.741300  1.0
  H  H538  1  0.363700  0.279000  0.258700  1.0
  H  H539  1  0.636300  0.279000  0.741300  1.0
  H  H540  1  0.636300  0.721000  0.258700  1.0
  H  H541  1  0.741300  0.363700  0.721000  1.0
  H  H542  1  0.258700  0.363700  0.279000  1.0
  H  H543  1  0.741300  0.636300  0.279000  1.0
  H  H544  1  0.258700  0.636300  0.721000  1.0
  H  H545  1  0.221000  0.241300  0.863700  1.0
  H  H546  1  0.779000  0.758700  0.863700  1.0
  H  H547  1  0.779000  0.241300  0.136300  1.0
  H  H548  1  0.221000  0.758700  0.136300  1.0
  H  H549  1  0.863700  0.221000  0.241300  1.0
  H  H550  1  0.863700  0.779000  0.758700  1.0
  H  H551  1  0.136300  0.779000  0.241300  1.0
  H  H552  1  0.136300  0.221000  0.758700  1.0
  H  H553  1  0.241300  0.863700  0.221000  1.0
  H  H554  1  0.758700  0.863700  0.779000  1.0
  H  H555  1  0.241300  0.136300  0.779000  1.0
  H  H556  1  0.758700  0.136300  0.221000  1.0
  H  H557  1  0.552400  0.019600  0.198700  1.0
  H  H558  1  0.447600  0.980400  0.198700  1.0
  H  H559  1  0.447600  0.019600  0.801300  1.0
  H  H560  1  0.552400  0.980400  0.801300  1.0
  H  H561  1  0.198700  0.552400  0.019600  1.0
  H  H562  1  0.198700  0.447600  0.980400  1.0
  H  H563  1  0.801300  0.447600  0.019600  1.0
  H  H564  1  0.801300  0.552400  0.980400  1.0
  H  H565  1  0.019600  0.198700  0.552400  1.0
  H  H566  1  0.980400  0.198700  0.447600  1.0
  H  H567  1  0.019600  0.801300  0.447600  1.0
  H  H568  1  0.980400  0.801300  0.552400  1.0
  H  H569  1  0.052400  0.519600  0.698700  1.0
  H  H570  1  0.947600  0.480400  0.698700  1.0
  H  H571  1  0.947600  0.519600  0.301300  1.0
  H  H572  1  0.052400  0.480400  0.301300  1.0
  H  H573  1  0.698700  0.052400  0.519600  1.0
  H  H574  1  0.698700  0.947600  0.480400  1.0
  H  H575  1  0.301300  0.947600  0.519600  1.0
  H  H576  1  0.301300  0.052400  0.480400  1.0
  H  H577  1  0.519600  0.698700  0.052400  1.0
  H  H578  1  0.480400  0.698700  0.947600  1.0
  H  H579  1  0.519600  0.301300  0.947600  1.0
  H  H580  1  0.480400  0.301300  0.052400  1.0
  H  H581  1  0.582600  0.074300  0.178900  1.0
  H  H582  1  0.417400  0.925700  0.178900  1.0
  H  H583  1  0.417400  0.074300  0.821100  1.0
  H  H584  1  0.582600  0.925700  0.821100  1.0
  H  H585  1  0.178900  0.582600  0.074300  1.0
  H  H586  1  0.178900  0.417400  0.925700  1.0
  H  H587  1  0.821100  0.417400  0.074300  1.0
  H  H588  1  0.821100  0.582600  0.925700  1.0
  H  H589  1  0.074300  0.178900  0.582600  1.0
  H  H590  1  0.925700  0.178900  0.417400  1.0
  H  H591  1  0.074300  0.821100  0.417400  1.0
  H  H592  1  0.925700  0.821100  0.582600  1.0
  H  H593  1  0.082600  0.574300  0.678900  1.0
  H  H594  1  0.917400  0.425700  0.678900  1.0
  H  H595  1  0.917400  0.574300  0.321100  1.0
  H  H596  1  0.082600  0.425700  0.321100  1.0
  H  H597  1  0.678900  0.082600  0.574300  1.0
  H  H598  1  0.678900  0.917400  0.425700  1.0
  H  H599  1  0.321100  0.917400  0.574300  1.0
  H  H600  1  0.321100  0.082600  0.425700  1.0
  H  H601  1  0.574300  0.678900  0.082600  1.0
  H  H602  1  0.425700  0.678900  0.917400  1.0
  H  H603  1  0.574300  0.321100  0.917400  1.0
  H  H604  1  0.425700  0.321100  0.082600  1.0
  H  H605  1  0.647800  0.078700  0.182100  1.0
  H  H606  1  0.352200  0.921300  0.182100  1.0
  H  H607  1  0.352200  0.078700  0.817900  1.0
  H  H608  1  0.647800  0.921300  0.817900  1.0
  H  H609  1  0.182100  0.647800  0.078700  1.0
  H  H610  1  0.182100  0.352200  0.921300  1.0
  H  H611  1  0.817900  0.352200  0.078700  1.0
  H  H612  1  0.817900  0.647800  0.921300  1.0
  H  H613  1  0.078700  0.182100  0.647800  1.0
  H  H614  1  0.921300  0.182100  0.352200  1.0
  H  H615  1  0.078700  0.817900  0.352200  1.0
  H  H616  1  0.921300  0.817900  0.647800  1.0
  H  H617  1  0.147800  0.578700  0.682100  1.0
  H  H618  1  0.852200  0.421300  0.682100  1.0
  H  H619  1  0.852200  0.578700  0.317900  1.0
  H  H620  1  0.147800  0.421300  0.317900  1.0
  H  H621  1  0.682100  0.147800  0.578700  1.0
  H  H622  1  0.682100  0.852200  0.421300  1.0
  H  H623  1  0.317900  0.852200  0.578700  1.0
  H  H624  1  0.317900  0.147800  0.421300  1.0
  H  H625  1  0.578700  0.682100  0.147800  1.0
  H  H626  1  0.421300  0.682100  0.852200  1.0
  H  H627  1  0.578700  0.317900  0.852200  1.0
  H  H628  1  0.421300  0.317900  0.147800  1.0
  H  H629  1  0.682900  0.028500  0.205200  1.0
  H  H630  1  0.317100  0.971500  0.205200  1.0
  H  H631  1  0.317100  0.028500  0.794800  1.0
  H  H632  1  0.682900  0.971500  0.794800  1.0
  H  H633  1  0.205200  0.682900  0.028500  1.0
  H  H634  1  0.205200  0.317100  0.971500  1.0
  H  H635  1  0.794800  0.317100  0.028500  1.0
  H  H636  1  0.794800  0.682900  0.971500  1.0
  H  H637  1  0.028500  0.205200  0.682900  1.0
  H  H638  1  0.971500  0.205200  0.317100  1.0
  H  H639  1  0.028500  0.794800  0.317100  1.0
  H  H640  1  0.971500  0.794800  0.682900  1.0
  H  H641  1  0.182900  0.528500  0.705200  1.0
  H  H642  1  0.817100  0.471500  0.705200  1.0
  H  H643  1  0.817100  0.528500  0.294800  1.0
  H  H644  1  0.182900  0.471500  0.294800  1.0
  H  H645  1  0.705200  0.182900  0.528500  1.0
  H  H646  1  0.705200  0.817100  0.471500  1.0
  H  H647  1  0.294800  0.817100  0.528500  1.0
  H  H648  1  0.294800  0.182900  0.471500  1.0
  H  H649  1  0.528500  0.705200  0.182900  1.0
  H  H650  1  0.471500  0.705200  0.817100  1.0
  H  H651  1  0.528500  0.294800  0.817100  1.0
  H  H652  1  0.471500  0.294800  0.182900  1.0
  H  H653  1  0.523200  0.966100  0.228300  1.0
  H  H654  1  0.476800  0.033900  0.228300  1.0
  H  H655  1  0.476800  0.966100  0.771700  1.0
  H  H656  1  0.523200  0.033900  0.771700  1.0
  H  H657  1  0.228300  0.523200  0.966100  1.0
  H  H658  1  0.228300  0.476800  0.033900  1.0
  H  H659  1  0.771700  0.476800  0.966100  1.0
  H  H660  1  0.771700  0.523200  0.033900  1.0
  H  H661  1  0.966100  0.228300  0.523200  1.0
  H  H662  1  0.033900  0.228300  0.476800  1.0
  H  H663  1  0.966100  0.771700  0.476800  1.0
  H  H664  1  0.033900  0.771700  0.523200  1.0
  H  H665  1  0.023200  0.466100  0.728300  1.0
  H  H666  1  0.976800  0.533900  0.728300  1.0
  H  H667  1  0.976800  0.466100  0.271700  1.0
  H  H668  1  0.023200  0.533900  0.271700  1.0
  H  H669  1  0.728300  0.023200  0.466100  1.0
  H  H670  1  0.728300  0.976800  0.533900  1.0
  H  H671  1  0.271700  0.976800  0.466100  1.0
  H  H672  1  0.271700  0.023200  0.533900  1.0
  H  H673  1  0.466100  0.728300  0.023200  1.0
  H  H674  1  0.533900  0.728300  0.976800  1.0
  H  H675  1  0.466100  0.271700  0.976800  1.0
  H  H676  1  0.533900  0.271700  0.023200  1.0
  H  H677  1  0.522000  0.900500  0.255400  1.0
  H  H678  1  0.478000  0.099500  0.255400  1.0
  H  H679  1  0.478000  0.900500  0.744600  1.0
  H  H680  1  0.522000  0.099500  0.744600  1.0
  H  H681  1  0.255400  0.522000  0.900500  1.0
  H  H682  1  0.255400  0.478000  0.099500  1.0
  H  H683  1  0.744600  0.478000  0.900500  1.0
  H  H684  1  0.744600  0.522000  0.099500  1.0
  H  H685  1  0.900500  0.255400  0.522000  1.0
  H  H686  1  0.099500  0.255400  0.478000  1.0
  H  H687  1  0.900500  0.744600  0.478000  1.0
  H  H688  1  0.099500  0.744600  0.522000  1.0
  H  H689  1  0.022000  0.400500  0.755400  1.0
  H  H690  1  0.978000  0.599500  0.755400  1.0
  H  H691  1  0.978000  0.400500  0.244600  1.0
  H  H692  1  0.022000  0.599500  0.244600  1.0
  H  H693  1  0.755400  0.022000  0.400500  1.0
  H  H694  1  0.755400  0.978000  0.599500  1.0
  H  H695  1  0.244600  0.978000  0.400500  1.0
  H  H696  1  0.244600  0.022000  0.599500  1.0
  H  H697  1  0.400500  0.755400  0.022000  1.0
  H  H698  1  0.599500  0.755400  0.978000  1.0
  H  H699  1  0.400500  0.244600  0.978000  1.0
  H  H700  1  0.599500  0.244600  0.022000  1.0
  H  H701  1  0.619400  0.862300  0.253900  1.0
  H  H702  1  0.380600  0.137700  0.253900  1.0
  H  H703  1  0.380600  0.862300  0.746100  1.0
  H  H704  1  0.619400  0.137700  0.746100  1.0
  H  H705  1  0.253900  0.619400  0.862300  1.0
  H  H706  1  0.253900  0.380600  0.137700  1.0
  H  H707  1  0.746100  0.380600  0.862300  1.0
  H  H708  1  0.746100  0.619400  0.137700  1.0
  H  H709  1  0.862300  0.253900  0.619400  1.0
  H  H710  1  0.137700  0.253900  0.380600  1.0
  H  H711  1  0.862300  0.746100  0.380600  1.0
  H  H712  1  0.137700  0.746100  0.619400  1.0
  H  H713  1  0.119400  0.362300  0.753900  1.0
  H  H714  1  0.880600  0.637700  0.753900  1.0
  H  H715  1  0.880600  0.362300  0.246100  1.0
  H  H716  1  0.119400  0.637700  0.246100  1.0
  H  H717  1  0.753900  0.119400  0.362300  1.0
  H  H718  1  0.753900  0.880600  0.637700  1.0
  H  H719  1  0.246100  0.880600  0.362300  1.0
  H  H720  1  0.246100  0.119400  0.637700  1.0
  H  H721  1  0.362300  0.753900  0.119400  1.0
  H  H722  1  0.637700  0.753900  0.880600  1.0
  H  H723  1  0.362300  0.246100  0.880600  1.0
  H  H724  1  0.637700  0.246100  0.119400  1.0
  H  H725  1  0.577600  0.847500  0.260100  1.0
  H  H726  1  0.422400  0.152500  0.260100  1.0
  H  H727  1  0.422400  0.847500  0.739900  1.0
  H  H728  1  0.577600  0.152500  0.739900  1.0
  H  H729  1  0.260100  0.577600  0.847500  1.0
  H  H730  1  0.260100  0.422400  0.152500  1.0
  H  H731  1  0.739900  0.422400  0.847500  1.0
  H  H732  1  0.739900  0.577600  0.152500  1.0
  H  H733  1  0.847500  0.260100  0.577600  1.0
  H  H734  1  0.152500  0.260100  0.422400  1.0
  H  H735  1  0.847500  0.739900  0.422400  1.0
  H  H736  1  0.152500  0.739900  0.577600  1.0
  H  H737  1  0.077600  0.347500  0.760100  1.0
  H  H738  1  0.922400  0.652500  0.760100  1.0
  H  H739  1  0.922400  0.347500  0.239900  1.0
  H  H740  1  0.077600  0.652500  0.239900  1.0
  H  H741  1  0.760100  0.077600  0.347500  1.0
  H  H742  1  0.760100  0.922400  0.652500  1.0
  H  H743  1  0.239900  0.922400  0.347500  1.0
  H  H744  1  0.239900  0.077600  0.652500  1.0
  H  H745  1  0.347500  0.760100  0.077600  1.0
  H  H746  1  0.652500  0.760100  0.922400  1.0
  H  H747  1  0.347500  0.239900  0.922400  1.0
  H  H748  1  0.652500  0.239900  0.077600  1.0
  H  H749  1  0.666800  0.789000  0.346100  1.0
  H  H750  1  0.333200  0.211000  0.346100  1.0
  H  H751  1  0.333200  0.789000  0.653900  1.0
  H  H752  1  0.666800  0.211000  0.653900  1.0
  H  H753  1  0.346100  0.666800  0.789000  1.0
  H  H754  1  0.346100  0.333200  0.211000  1.0
  H  H755  1  0.653900  0.333200  0.789000  1.0
  H  H756  1  0.653900  0.666800  0.211000  1.0
  H  H757  1  0.789000  0.346100  0.666800  1.0
  H  H758  1  0.211000  0.346100  0.333200  1.0
  H  H759  1  0.789000  0.653900  0.333200  1.0
  H  H760  1  0.211000  0.653900  0.666800  1.0
  H  H761  1  0.166800  0.289000  0.846100  1.0
  H  H762  1  0.833200  0.711000  0.846100  1.0
  H  H763  1  0.833200  0.289000  0.153900  1.0
  H  H764  1  0.166800  0.711000  0.153900  1.0
  H  H765  1  0.846100  0.166800  0.289000  1.0
  H  H766  1  0.846100  0.833200  0.711000  1.0
  H  H767  1  0.153900  0.833200  0.289000  1.0
  H  H768  1  0.153900  0.166800  0.711000  1.0
  H  H769  1  0.289000  0.846100  0.166800  1.0
  H  H770  1  0.711000  0.846100  0.833200  1.0
  H  H771  1  0.289000  0.153900  0.833200  1.0
  H  H772  1  0.711000  0.153900  0.166800  1.0
  H  H773  1  0.664700  0.722300  0.437800  1.0
  H  H774  1  0.335300  0.277700  0.437800  1.0
  H  H775  1  0.335300  0.722300  0.562200  1.0
  H  H776  1  0.664700  0.277700  0.562200  1.0
  H  H777  1  0.437800  0.664700  0.722300  1.0
  H  H778  1  0.437800  0.335300  0.277700  1.0
  H  H779  1  0.562200  0.335300  0.722300  1.0
  H  H780  1  0.562200  0.664700  0.277700  1.0
  H  H781  1  0.722300  0.437800  0.664700  1.0
  H  H782  1  0.277700  0.437800  0.335300  1.0
  H  H783  1  0.722300  0.562200  0.335300  1.0
  H  H784  1  0.277700  0.562200  0.664700  1.0
  H  H785  1  0.164700  0.222300  0.937800  1.0
  H  H786  1  0.835300  0.777700  0.937800  1.0
  H  H787  1  0.835300  0.222300  0.062200  1.0
  H  H788  1  0.164700  0.777700  0.062200  1.0
  H  H789  1  0.937800  0.164700  0.222300  1.0
  H  H790  1  0.937800  0.835300  0.777700  1.0
  H  H791  1  0.062200  0.835300  0.222300  1.0
  H  H792  1  0.062200  0.164700  0.777700  1.0
  H  H793  1  0.222300  0.937800  0.164700  1.0
  H  H794  1  0.777700  0.937800  0.835300  1.0
  H  H795  1  0.222300  0.062200  0.835300  1.0
  H  H796  1  0.777700  0.062200  0.164700  1.0
  H  H797  1  0.620700  0.761900  0.465500  1.0
  H  H798  1  0.379300  0.238100  0.465500  1.0
  H  H799  1  0.379300  0.761900  0.534500  1.0
  H  H800  1  0.620700  0.238100  0.534500  1.0
  H  H801  1  0.465500  0.620700  0.761900  1.0
  H  H802  1  0.465500  0.379300  0.238100  1.0
  H  H803  1  0.534500  0.379300  0.761900  1.0
  H  H804  1  0.534500  0.620700  0.238100  1.0
  H  H805  1  0.761900  0.465500  0.620700  1.0
  H  H806  1  0.238100  0.465500  0.379300  1.0
  H  H807  1  0.761900  0.534500  0.379300  1.0
  H  H808  1  0.238100  0.534500  0.620700  1.0
  H  H809  1  0.120700  0.261900  0.965500  1.0
  H  H810  1  0.879300  0.738100  0.965500  1.0
  H  H811  1  0.879300  0.261900  0.034500  1.0
  H  H812  1  0.120700  0.738100  0.034500  1.0
  H  H813  1  0.965500  0.120700  0.261900  1.0
  H  H814  1  0.965500  0.879300  0.738100  1.0
  H  H815  1  0.034500  0.879300  0.261900  1.0
  H  H816  1  0.034500  0.120700  0.738100  1.0
  H  H817  1  0.261900  0.965500  0.120700  1.0
  H  H818  1  0.738100  0.965500  0.879300  1.0
  H  H819  1  0.261900  0.034500  0.879300  1.0
  H  H820  1  0.738100  0.034500  0.120700  1.0
  H  H821  1  0.599600  0.815000  0.433600  1.0
  H  H822  1  0.400400  0.185000  0.433600  1.0
  H  H823  1  0.400400  0.815000  0.566400  1.0
  H  H824  1  0.599600  0.185000  0.566400  1.0
  H  H825  1  0.433600  0.599600  0.815000  1.0
  H  H826  1  0.433600  0.400400  0.185000  1.0
  H  H827  1  0.566400  0.400400  0.815000  1.0
  H  H828  1  0.566400  0.599600  0.185000  1.0
  H  H829  1  0.815000  0.433600  0.599600  1.0
  H  H830  1  0.185000  0.433600  0.400400  1.0
  H  H831  1  0.815000  0.566400  0.400400  1.0
  H  H832  1  0.185000  0.566400  0.599600  1.0
  H  H833  1  0.099600  0.315000  0.933600  1.0
  H  H834  1  0.900400  0.685000  0.933600  1.0
  H  H835  1  0.900400  0.315000  0.066400  1.0
  H  H836  1  0.099600  0.685000  0.066400  1.0
  H  H837  1  0.933600  0.099600  0.315000  1.0
  H  H838  1  0.933600  0.900400  0.685000  1.0
  H  H839  1  0.066400  0.900400  0.315000  1.0
  H  H840  1  0.066400  0.099600  0.685000  1.0
  H  H841  1  0.315000  0.933600  0.099600  1.0
  H  H842  1  0.685000  0.933600  0.900400  1.0
  H  H843  1  0.315000  0.066400  0.900400  1.0
  H  H844  1  0.685000  0.066400  0.099600  1.0
  H  H845  1  0.617800  0.817000  0.313900  1.0
  H  H846  1  0.382200  0.183000  0.313900  1.0
  H  H847  1  0.382200  0.817000  0.686100  1.0
  H  H848  1  0.617800  0.183000  0.686100  1.0
  H  H849  1  0.313900  0.617800  0.817000  1.0
  H  H850  1  0.313900  0.382200  0.183000  1.0
  H  H851  1  0.686100  0.382200  0.817000  1.0
  H  H852  1  0.686100  0.617800  0.183000  1.0
  H  H853  1  0.817000  0.313900  0.617800  1.0
  H  H854  1  0.183000  0.313900  0.382200  1.0
  H  H855  1  0.817000  0.686100  0.382200  1.0
  H  H856  1  0.183000  0.686100  0.617800  1.0
  H  H857  1  0.117800  0.317000  0.813900  1.0
  H  H858  1  0.882200  0.683000  0.813900  1.0
  H  H859  1  0.882200  0.317000  0.186100  1.0
  H  H860  1  0.117800  0.683000  0.186100  1.0
  H  H861  1  0.813900  0.117800  0.317000  1.0
  H  H862  1  0.813900  0.882200  0.683000  1.0
  H  H863  1  0.186100  0.882200  0.317000  1.0
  H  H864  1  0.186100  0.117800  0.683000  1.0
  H  H865  1  0.317000  0.813900  0.117800  1.0
  H  H866  1  0.683000  0.813900  0.882200  1.0
  H  H867  1  0.317000  0.186100  0.882200  1.0
  H  H868  1  0.683000  0.186100  0.117800  1.0
  H  H869  1  0.584600  0.925300  0.314800  1.0
  H  H870  1  0.415400  0.074700  0.314800  1.0
  H  H871  1  0.415400  0.925300  0.685200  1.0
  H  H872  1  0.584600  0.074700  0.685200  1.0
  H  H873  1  0.314800  0.584600  0.925300  1.0
  H  H874  1  0.314800  0.415400  0.074700  1.0
  H  H875  1  0.685200  0.415400  0.925300  1.0
  H  H876  1  0.685200  0.584600  0.074700  1.0
  H  H877  1  0.925300  0.314800  0.584600  1.0
  H  H878  1  0.074700  0.314800  0.415400  1.0
  H  H879  1  0.925300  0.685200  0.415400  1.0
  H  H880  1  0.074700  0.685200  0.584600  1.0
  H  H881  1  0.084600  0.425300  0.814800  1.0
  H  H882  1  0.915400  0.574700  0.814800  1.0
  H  H883  1  0.915400  0.425300  0.185200  1.0
  H  H884  1  0.084600  0.574700  0.185200  1.0
  H  H885  1  0.814800  0.084600  0.425300  1.0
  H  H886  1  0.814800  0.915400  0.574700  1.0
  H  H887  1  0.185200  0.915400  0.425300  1.0
  H  H888  1  0.185200  0.084600  0.574700  1.0
  H  H889  1  0.425300  0.814800  0.084600  1.0
  H  H890  1  0.574700  0.814800  0.915400  1.0
  H  H891  1  0.425300  0.185200  0.915400  1.0
  H  H892  1  0.574700  0.185200  0.084600  1.0
  H  H893  1  0.593400  0.927500  0.379600  1.0
  H  H894  1  0.406600  0.072500  0.379600  1.0
  H  H895  1  0.406600  0.927500  0.620400  1.0
  H  H896  1  0.593400  0.072500  0.620400  1.0
  H  H897  1  0.379600  0.593400  0.927500  1.0
  H  H898  1  0.379600  0.406600  0.072500  1.0
  H  H899  1  0.620400  0.406600  0.927500  1.0
  H  H900  1  0.620400  0.593400  0.072500  1.0
  H  H901  1  0.927500  0.379600  0.593400  1.0
  H  H902  1  0.072500  0.379600  0.406600  1.0
  H  H903  1  0.927500  0.620400  0.406600  1.0
  H  H904  1  0.072500  0.620400  0.593400  1.0
  H  H905  1  0.093400  0.427500  0.879600  1.0
  H  H906  1  0.906600  0.572500  0.879600  1.0
  H  H907  1  0.906600  0.427500  0.120400  1.0
  H  H908  1  0.093400  0.572500  0.120400  1.0
  H  H909  1  0.879600  0.093400  0.427500  1.0
  H  H910  1  0.879600  0.906600  0.572500  1.0
  H  H911  1  0.120400  0.906600  0.427500  1.0
  H  H912  1  0.120400  0.093400  0.572500  1.0
  H  H913  1  0.427500  0.879600  0.093400  1.0
  H  H914  1  0.572500  0.879600  0.906600  1.0
  H  H915  1  0.427500  0.120400  0.906600  1.0
  H  H916  1  0.572500  0.120400  0.093400  1.0
  H  H917  1  0.614500  0.874500  0.411600  1.0
  H  H918  1  0.385500  0.125500  0.411600  1.0
  H  H919  1  0.385500  0.874500  0.588400  1.0
  H  H920  1  0.614500  0.125500  0.588400  1.0
  H  H921  1  0.411600  0.614500  0.874500  1.0
  H  H922  1  0.411600  0.385500  0.125500  1.0
  H  H923  1  0.588400  0.385500  0.874500  1.0
  H  H924  1  0.588400  0.614500  0.125500  1.0
  H  H925  1  0.874500  0.411600  0.614500  1.0
  H  H926  1  0.125500  0.411600  0.385500  1.0
  H  H927  1  0.874500  0.588400  0.385500  1.0
  H  H928  1  0.125500  0.588400  0.614500  1.0
  H  H929  1  0.114500  0.374500  0.911600  1.0
  H  H930  1  0.885500  0.625500  0.911600  1.0
  H  H931  1  0.885500  0.374500  0.088400  1.0
  H  H932  1  0.114500  0.625500  0.088400  1.0
  H  H933  1  0.911600  0.114500  0.374500  1.0
  H  H934  1  0.911600  0.885500  0.625500  1.0
  H  H935  1  0.088400  0.885500  0.374500  1.0
  H  H936  1  0.088400  0.114500  0.625500  1.0
  H  H937  1  0.374500  0.911600  0.114500  1.0
  H  H938  1  0.625500  0.911600  0.885500  1.0
  H  H939  1  0.374500  0.088400  0.885500  1.0
  H  H940  1  0.625500  0.088400  0.114500  1.0
  H  H941  1  0.696800  0.917700  0.086600  1.0
  H  H942  1  0.303200  0.082300  0.086600  1.0
  H  H943  1  0.303200  0.917700  0.913400  1.0
  H  H944  1  0.696800  0.082300  0.913400  1.0
  H  H945  1  0.086600  0.696800  0.917700  1.0
  H  H946  1  0.086600  0.303200  0.082300  1.0
  H  H947  1  0.913400  0.303200  0.917700  1.0
  H  H948  1  0.913400  0.696800  0.082300  1.0
  H  H949  1  0.917700  0.086600  0.696800  1.0
  H  H950  1  0.082300  0.086600  0.303200  1.0
  H  H951  1  0.917700  0.913400  0.303200  1.0
  H  H952  1  0.082300  0.913400  0.696800  1.0
  H  H953  1  0.196800  0.417700  0.586600  1.0
  H  H954  1  0.803200  0.582300  0.586600  1.0
  H  H955  1  0.803200  0.417700  0.413400  1.0
  H  H956  1  0.196800  0.582300  0.413400  1.0
  H  H957  1  0.586600  0.196800  0.417700  1.0
  H  H958  1  0.586600  0.803200  0.582300  1.0
  H  H959  1  0.413400  0.803200  0.417700  1.0
  H  H960  1  0.413400  0.196800  0.582300  1.0
  H  H961  1  0.417700  0.586600  0.196800  1.0
  H  H962  1  0.582300  0.586600  0.803200  1.0
  H  H963  1  0.417700  0.413400  0.803200  1.0
  H  H964  1  0.582300  0.413400  0.196800  1.0
  H  H965  1  0.643400  0.883300  0.070800  1.0
  H  H966  1  0.356600  0.116700  0.070800  1.0
  H  H967  1  0.356600  0.883300  0.929200  1.0
  H  H968  1  0.643400  0.116700  0.929200  1.0
  H  H969  1  0.070800  0.643400  0.883300  1.0
  H  H970  1  0.070800  0.356600  0.116700  1.0
  H  H971  1  0.929200  0.356600  0.883300  1.0
  H  H972  1  0.929200  0.643400  0.116700  1.0
  H  H973  1  0.883300  0.070800  0.643400  1.0
  H  H974  1  0.116700  0.070800  0.356600  1.0
  H  H975  1  0.883300  0.929200  0.356600  1.0
  H  H976  1  0.116700  0.929200  0.643400  1.0
  H  H977  1  0.143400  0.383300  0.570800  1.0
  H  H978  1  0.856600  0.616700  0.570800  1.0
  H  H979  1  0.856600  0.383300  0.429200  1.0
  H  H980  1  0.143400  0.616700  0.429200  1.0
  H  H981  1  0.570800  0.143400  0.383300  1.0
  H  H982  1  0.570800  0.856600  0.616700  1.0
  H  H983  1  0.429200  0.856600  0.383300  1.0
  H  H984  1  0.429200  0.143400  0.616700  1.0
  H  H985  1  0.383300  0.570800  0.143400  1.0
  H  H986  1  0.616700  0.570800  0.856600  1.0
  H  H987  1  0.383300  0.429200  0.856600  1.0
  H  H988  1  0.616700  0.429200  0.143400  1.0
  H  H989  1  0.600100  0.866900  0.117000  1.0
  H  H990  1  0.399900  0.133100  0.117000  1.0
  H  H991  1  0.399900  0.866900  0.883000  1.0
  H  H992  1  0.600100  0.133100  0.883000  1.0
  H  H993  1  0.117000  0.600100  0.866900  1.0
  H  H994  1  0.117000  0.399900  0.133100  1.0
  H  H995  1  0.883000  0.399900  0.866900  1.0
  H  H996  1  0.883000  0.600100  0.133100  1.0
  H  H997  1  0.866900  0.117000  0.600100  1.0
  H  H998  1  0.133100  0.117000  0.399900  1.0
  H  H999  1  0.866900  0.883000  0.399900  1.0
  H  H1000  1  0.133100  0.883000  0.600100  1.0
  H  H1001  1  0.100100  0.366900  0.617000  1.0
  H  H1002  1  0.899900  0.633100  0.617000  1.0
  H  H1003  1  0.899900  0.366900  0.383000  1.0
  H  H1004  1  0.100100  0.633100  0.383000  1.0
  H  H1005  1  0.617000  0.100100  0.366900  1.0
  H  H1006  1  0.617000  0.899900  0.633100  1.0
  H  H1007  1  0.383000  0.899900  0.366900  1.0
  H  H1008  1  0.383000  0.100100  0.633100  1.0
  H  H1009  1  0.366900  0.617000  0.100100  1.0
  H  H1010  1  0.633100  0.617000  0.899900  1.0
  H  H1011  1  0.366900  0.383000  0.899900  1.0
  H  H1012  1  0.633100  0.383000  0.100100  1.0
  H  H1013  1  0.610100  0.884900  0.179100  1.0
  H  H1014  1  0.389900  0.115100  0.179100  1.0
  H  H1015  1  0.389900  0.884900  0.820900  1.0
  H  H1016  1  0.610100  0.115100  0.820900  1.0
  H  H1017  1  0.179100  0.610100  0.884900  1.0
  H  H1018  1  0.179100  0.389900  0.115100  1.0
  H  H1019  1  0.820900  0.389900  0.884900  1.0
  H  H1020  1  0.820900  0.610100  0.115100  1.0
  H  H1021  1  0.884900  0.179100  0.610100  1.0
  H  H1022  1  0.115100  0.179100  0.389900  1.0
  H  H1023  1  0.884900  0.820900  0.389900  1.0
  H  H1024  1  0.115100  0.820900  0.610100  1.0
  H  H1025  1  0.110100  0.384900  0.679100  1.0
  H  H1026  1  0.889900  0.615100  0.679100  1.0
  H  H1027  1  0.889900  0.384900  0.320900  1.0
  H  H1028  1  0.110100  0.615100  0.320900  1.0
  H  H1029  1  0.679100  0.110100  0.384900  1.0
  H  H1030  1  0.679100  0.889900  0.615100  1.0
  H  H1031  1  0.320900  0.889900  0.384900  1.0
  H  H1032  1  0.320900  0.110100  0.615100  1.0
  H  H1033  1  0.384900  0.679100  0.110100  1.0
  H  H1034  1  0.615100  0.679100  0.889900  1.0
  H  H1035  1  0.384900  0.320900  0.889900  1.0
  H  H1036  1  0.615100  0.320900  0.110100  1.0
  H  H1037  1  0.751600  0.945500  0.107000  1.0
  H  H1038  1  0.248400  0.054500  0.107000  1.0
  H  H1039  1  0.248400  0.945500  0.893000  1.0
  H  H1040  1  0.751600  0.054500  0.893000  1.0
  H  H1041  1  0.107000  0.751600  0.945500  1.0
  H  H1042  1  0.107000  0.248400  0.054500  1.0
  H  H1043  1  0.893000  0.248400  0.945500  1.0
  H  H1044  1  0.893000  0.751600  0.054500  1.0
  H  H1045  1  0.945500  0.107000  0.751600  1.0
  H  H1046  1  0.054500  0.107000  0.248400  1.0
  H  H1047  1  0.945500  0.893000  0.248400  1.0
  H  H1048  1  0.054500  0.893000  0.751600  1.0
  H  H1049  1  0.251600  0.445500  0.607000  1.0
  H  H1050  1  0.748400  0.554500  0.607000  1.0
  H  H1051  1  0.748400  0.445500  0.393000  1.0
  H  H1052  1  0.251600  0.554500  0.393000  1.0
  H  H1053  1  0.607000  0.251600  0.445500  1.0
  H  H1054  1  0.607000  0.748400  0.554500  1.0
  H  H1055  1  0.393000  0.748400  0.445500  1.0
  H  H1056  1  0.393000  0.251600  0.554500  1.0
  H  H1057  1  0.445500  0.607000  0.251600  1.0
  H  H1058  1  0.554500  0.607000  0.748400  1.0
  H  H1059  1  0.445500  0.393000  0.748400  1.0
  H  H1060  1  0.554500  0.393000  0.251600  1.0
  H  H1061  1  0.794800  0.983000  0.149000  1.0
  H  H1062  1  0.205200  0.017000  0.149000  1.0
  H  H1063  1  0.205200  0.983000  0.851000  1.0
  H  H1064  1  0.794800  0.017000  0.851000  1.0
  H  H1065  1  0.149000  0.794800  0.983000  1.0
  H  H1066  1  0.149000  0.205200  0.017000  1.0
  H  H1067  1  0.851000  0.205200  0.983000  1.0
  H  H1068  1  0.851000  0.794800  0.017000  1.0
  H  H1069  1  0.983000  0.149000  0.794800  1.0
  H  H1070  1  0.017000  0.149000  0.205200  1.0
  H  H1071  1  0.983000  0.851000  0.205200  1.0
  H  H1072  1  0.017000  0.851000  0.794800  1.0
  H  H1073  1  0.294800  0.483000  0.649000  1.0
  H  H1074  1  0.705200  0.517000  0.649000  1.0
  H  H1075  1  0.705200  0.483000  0.351000  1.0
  H  H1076  1  0.294800  0.517000  0.351000  1.0
  H  H1077  1  0.649000  0.294800  0.483000  1.0
  H  H1078  1  0.649000  0.705200  0.517000  1.0
  H  H1079  1  0.351000  0.705200  0.483000  1.0
  H  H1080  1  0.351000  0.294800  0.517000  1.0
  H  H1081  1  0.483000  0.649000  0.294800  1.0
  H  H1082  1  0.517000  0.649000  0.705200  1.0
  H  H1083  1  0.483000  0.351000  0.705200  1.0
  H  H1084  1  0.517000  0.351000  0.294800  1.0
  H  H1085  1  0.745900  0.013000  0.231100  1.0
  H  H1086  1  0.254100  0.987000  0.231100  1.0
  H  H1087  1  0.254100  0.013000  0.768900  1.0
  H  H1088  1  0.745900  0.987000  0.768900  1.0
  H  H1089  1  0.231100  0.745900  0.013000  1.0
  H  H1090  1  0.231100  0.254100  0.987000  1.0
  H  H1091  1  0.768900  0.254100  0.013000  1.0
  H  H1092  1  0.768900  0.745900  0.987000  1.0
  H  H1093  1  0.013000  0.231100  0.745900  1.0
  H  H1094  1  0.987000  0.231100  0.254100  1.0
  H  H1095  1  0.013000  0.768900  0.254100  1.0
  H  H1096  1  0.987000  0.768900  0.745900  1.0
  H  H1097  1  0.245900  0.513000  0.731100  1.0
  H  H1098  1  0.754100  0.487000  0.731100  1.0
  H  H1099  1  0.754100  0.513000  0.268900  1.0
  H  H1100  1  0.245900  0.487000  0.268900  1.0
  H  H1101  1  0.731100  0.245900  0.513000  1.0
  H  H1102  1  0.731100  0.754100  0.487000  1.0
  H  H1103  1  0.268900  0.754100  0.513000  1.0
  H  H1104  1  0.268900  0.245900  0.487000  1.0
  H  H1105  1  0.513000  0.731100  0.245900  1.0
  H  H1106  1  0.487000  0.731100  0.754100  1.0
  H  H1107  1  0.513000  0.268900  0.754100  1.0
  H  H1108  1  0.487000  0.268900  0.245900  1.0
  H  H1109  1  0.787600  0.012500  0.214600  1.0
  H  H1110  1  0.212400  0.987500  0.214600  1.0
  H  H1111  1  0.212400  0.012500  0.785400  1.0
  H  H1112  1  0.787600  0.987500  0.785400  1.0
  H  H1113  1  0.214600  0.787600  0.012500  1.0
  H  H1114  1  0.214600  0.212400  0.987500  1.0
  H  H1115  1  0.785400  0.212400  0.012500  1.0
  H  H1116  1  0.785400  0.787600  0.987500  1.0
  H  H1117  1  0.012500  0.214600  0.787600  1.0
  H  H1118  1  0.987500  0.214600  0.212400  1.0
  H  H1119  1  0.012500  0.785400  0.212400  1.0
  H  H1120  1  0.987500  0.785400  0.787600  1.0
  H  H1121  1  0.287600  0.512500  0.714600  1.0
  H  H1122  1  0.712400  0.487500  0.714600  1.0
  H  H1123  1  0.712400  0.512500  0.285400  1.0
  H  H1124  1  0.287600  0.487500  0.285400  1.0
  H  H1125  1  0.714600  0.287600  0.512500  1.0
  H  H1126  1  0.714600  0.712400  0.487500  1.0
  H  H1127  1  0.285400  0.712400  0.512500  1.0
  H  H1128  1  0.285400  0.287600  0.487500  1.0
  H  H1129  1  0.512500  0.714600  0.287600  1.0
  H  H1130  1  0.487500  0.714600  0.712400  1.0
  H  H1131  1  0.512500  0.285400  0.712400  1.0
  H  H1132  1  0.487500  0.285400  0.287600  1.0
  H  H1133  1  0.918000  0.634500  0.291200  1.0
  H  H1134  1  0.082000  0.365500  0.291200  1.0
  H  H1135  1  0.082000  0.634500  0.708800  1.0
  H  H1136  1  0.918000  0.365500  0.708800  1.0
  H  H1137  1  0.291200  0.918000  0.634500  1.0
  H  H1138  1  0.291200  0.082000  0.365500  1.0
  H  H1139  1  0.708800  0.082000  0.634500  1.0
  H  H1140  1  0.708800  0.918000  0.365500  1.0
  H  H1141  1  0.634500  0.291200  0.918000  1.0
  H  H1142  1  0.365500  0.291200  0.082000  1.0
  H  H1143  1  0.634500  0.708800  0.082000  1.0
  H  H1144  1  0.365500  0.708800  0.918000  1.0
  H  H1145  1  0.418000  0.134500  0.791200  1.0
  H  H1146  1  0.582000  0.865500  0.791200  1.0
  H  H1147  1  0.582000  0.134500  0.208800  1.0
  H  H1148  1  0.418000  0.865500  0.208800  1.0
  H  H1149  1  0.791200  0.418000  0.134500  1.0
  H  H1150  1  0.791200  0.582000  0.865500  1.0
  H  H1151  1  0.208800  0.582000  0.134500  1.0
  H  H1152  1  0.208800  0.418000  0.865500  1.0
  H  H1153  1  0.134500  0.791200  0.418000  1.0
  H  H1154  1  0.865500  0.791200  0.582000  1.0
  H  H1155  1  0.134500  0.208800  0.582000  1.0
  H  H1156  1  0.865500  0.208800  0.418000  1.0
  H  H1157  1  0.978200  0.611000  0.302700  1.0
  H  H1158  1  0.021800  0.389000  0.302700  1.0
  H  H1159  1  0.021800  0.611000  0.697300  1.0
  H  H1160  1  0.978200  0.389000  0.697300  1.0
  H  H1161  1  0.302700  0.978200  0.611000  1.0
  H  H1162  1  0.302700  0.021800  0.389000  1.0
  H  H1163  1  0.697300  0.021800  0.611000  1.0
  H  H1164  1  0.697300  0.978200  0.389000  1.0
  H  H1165  1  0.611000  0.302700  0.978200  1.0
  H  H1166  1  0.389000  0.302700  0.021800  1.0
  H  H1167  1  0.611000  0.697300  0.021800  1.0
  H  H1168  1  0.389000  0.697300  0.978200  1.0
  H  H1169  1  0.478200  0.111000  0.802700  1.0
  H  H1170  1  0.521800  0.889000  0.802700  1.0
  H  H1171  1  0.521800  0.111000  0.197300  1.0
  H  H1172  1  0.478200  0.889000  0.197300  1.0
  H  H1173  1  0.802700  0.478200  0.111000  1.0
  H  H1174  1  0.802700  0.521800  0.889000  1.0
  H  H1175  1  0.197300  0.521800  0.111000  1.0
  H  H1176  1  0.197300  0.478200  0.889000  1.0
  H  H1177  1  0.111000  0.802700  0.478200  1.0
  H  H1178  1  0.889000  0.802700  0.521800  1.0
  H  H1179  1  0.111000  0.197300  0.521800  1.0
  H  H1180  1  0.889000  0.197300  0.478200  1.0
  H  H1181  1  0.023300  0.651200  0.322600  1.0
  H  H1182  1  0.976700  0.348800  0.322600  1.0
  H  H1183  1  0.976700  0.651200  0.677400  1.0
  H  H1184  1  0.023300  0.348800  0.677400  1.0
  H  H1185  1  0.322600  0.023300  0.651200  1.0
  H  H1186  1  0.322600  0.976700  0.348800  1.0
  H  H1187  1  0.677400  0.976700  0.651200  1.0
  H  H1188  1  0.677400  0.023300  0.348800  1.0
  H  H1189  1  0.651200  0.322600  0.023300  1.0
  H  H1190  1  0.348800  0.322600  0.976700  1.0
  H  H1191  1  0.651200  0.677400  0.976700  1.0
  H  H1192  1  0.348800  0.677400  0.023300  1.0
  H  H1193  1  0.523300  0.151200  0.822600  1.0
  H  H1194  1  0.476700  0.848800  0.822600  1.0
  H  H1195  1  0.476700  0.151200  0.177400  1.0
  H  H1196  1  0.523300  0.848800  0.177400  1.0
  H  H1197  1  0.822600  0.523300  0.151200  1.0
  H  H1198  1  0.822600  0.476700  0.848800  1.0
  H  H1199  1  0.177400  0.476700  0.151200  1.0
  H  H1200  1  0.177400  0.523300  0.848800  1.0
  H  H1201  1  0.151200  0.822600  0.523300  1.0
  H  H1202  1  0.848800  0.822600  0.476700  1.0
  H  H1203  1  0.151200  0.177400  0.476700  1.0
  H  H1204  1  0.848800  0.177400  0.523300  1.0
  H  H1205  1  0.010300  0.712000  0.334800  1.0
  H  H1206  1  0.989700  0.288000  0.334800  1.0
  H  H1207  1  0.989700  0.712000  0.665200  1.0
  H  H1208  1  0.010300  0.288000  0.665200  1.0
  H  H1209  1  0.334800  0.010300  0.712000  1.0
  H  H1210  1  0.334800  0.989700  0.288000  1.0
  H  H1211  1  0.665200  0.989700  0.712000  1.0
  H  H1212  1  0.665200  0.010300  0.288000  1.0
  H  H1213  1  0.712000  0.334800  0.010300  1.0
  H  H1214  1  0.288000  0.334800  0.989700  1.0
  H  H1215  1  0.712000  0.665200  0.989700  1.0
  H  H1216  1  0.288000  0.665200  0.010300  1.0
  H  H1217  1  0.510300  0.212000  0.834800  1.0
  H  H1218  1  0.489700  0.788000  0.834800  1.0
  H  H1219  1  0.489700  0.212000  0.165200  1.0
  H  H1220  1  0.510300  0.788000  0.165200  1.0
  H  H1221  1  0.834800  0.510300  0.212000  1.0
  H  H1222  1  0.834800  0.489700  0.788000  1.0
  H  H1223  1  0.165200  0.489700  0.212000  1.0
  H  H1224  1  0.165200  0.510300  0.788000  1.0
  H  H1225  1  0.212000  0.834800  0.510300  1.0
  H  H1226  1  0.788000  0.834800  0.489700  1.0
  H  H1227  1  0.212000  0.165200  0.489700  1.0
  H  H1228  1  0.788000  0.165200  0.510300  1.0
  H  H1229  1  0.861300  0.662400  0.268000  1.0
  H  H1230  1  0.138700  0.337600  0.268000  1.0
  H  H1231  1  0.138700  0.662400  0.732000  1.0
  H  H1232  1  0.861300  0.337600  0.732000  1.0
  H  H1233  1  0.268000  0.861300  0.662400  1.0
  H  H1234  1  0.268000  0.138700  0.337600  1.0
  H  H1235  1  0.732000  0.138700  0.662400  1.0
  H  H1236  1  0.732000  0.861300  0.337600  1.0
  H  H1237  1  0.662400  0.268000  0.861300  1.0
  H  H1238  1  0.337600  0.268000  0.138700  1.0
  H  H1239  1  0.662400  0.732000  0.138700  1.0
  H  H1240  1  0.337600  0.732000  0.861300  1.0
  H  H1241  1  0.361300  0.162400  0.768000  1.0
  H  H1242  1  0.638700  0.837600  0.768000  1.0
  H  H1243  1  0.638700  0.162400  0.232000  1.0
  H  H1244  1  0.361300  0.837600  0.232000  1.0
  H  H1245  1  0.768000  0.361300  0.162400  1.0
  H  H1246  1  0.768000  0.638700  0.837600  1.0
  H  H1247  1  0.232000  0.638700  0.162400  1.0
  H  H1248  1  0.232000  0.361300  0.837600  1.0
  H  H1249  1  0.162400  0.768000  0.361300  1.0
  H  H1250  1  0.837600  0.768000  0.638700  1.0
  H  H1251  1  0.162400  0.232000  0.638700  1.0
  H  H1252  1  0.837600  0.232000  0.361300  1.0
  H  H1253  1  0.809300  0.710600  0.270400  1.0
  H  H1254  1  0.190700  0.289400  0.270400  1.0
  H  H1255  1  0.190700  0.710600  0.729600  1.0
  H  H1256  1  0.809300  0.289400  0.729600  1.0
  H  H1257  1  0.270400  0.809300  0.710600  1.0
  H  H1258  1  0.270400  0.190700  0.289400  1.0
  H  H1259  1  0.729600  0.190700  0.710600  1.0
  H  H1260  1  0.729600  0.809300  0.289400  1.0
  H  H1261  1  0.710600  0.270400  0.809300  1.0
  H  H1262  1  0.289400  0.270400  0.190700  1.0
  H  H1263  1  0.710600  0.729600  0.190700  1.0
  H  H1264  1  0.289400  0.729600  0.809300  1.0
  H  H1265  1  0.309300  0.210600  0.770400  1.0
  H  H1266  1  0.690700  0.789400  0.770400  1.0
  H  H1267  1  0.690700  0.210600  0.229600  1.0
  H  H1268  1  0.309300  0.789400  0.229600  1.0
  H  H1269  1  0.770400  0.309300  0.210600  1.0
  H  H1270  1  0.770400  0.690700  0.789400  1.0
  H  H1271  1  0.229600  0.690700  0.210600  1.0
  H  H1272  1  0.229600  0.309300  0.789400  1.0
  H  H1273  1  0.210600  0.770400  0.309300  1.0
  H  H1274  1  0.789400  0.770400  0.690700  1.0
  H  H1275  1  0.210600  0.229600  0.690700  1.0
  H  H1276  1  0.789400  0.229600  0.309300  1.0
  H  H1277  1  0.838600  0.786600  0.332600  1.0
  H  H1278  1  0.161400  0.213400  0.332600  1.0
  H  H1279  1  0.161400  0.786600  0.667400  1.0
  H  H1280  1  0.838600  0.213400  0.667400  1.0
  H  H1281  1  0.332600  0.838600  0.786600  1.0
  H  H1282  1  0.332600  0.161400  0.213400  1.0
  H  H1283  1  0.667400  0.161400  0.786600  1.0
  H  H1284  1  0.667400  0.838600  0.213400  1.0
  H  H1285  1  0.786600  0.332600  0.838600  1.0
  H  H1286  1  0.213400  0.332600  0.161400  1.0
  H  H1287  1  0.786600  0.667400  0.161400  1.0
  H  H1288  1  0.213400  0.667400  0.838600  1.0
  H  H1289  1  0.338600  0.286600  0.832600  1.0
  H  H1290  1  0.661400  0.713400  0.832600  1.0
  H  H1291  1  0.661400  0.286600  0.167400  1.0
  H  H1292  1  0.338600  0.713400  0.167400  1.0
  H  H1293  1  0.832600  0.338600  0.286600  1.0
  H  H1294  1  0.832600  0.661400  0.713400  1.0
  H  H1295  1  0.167400  0.661400  0.286600  1.0
  H  H1296  1  0.167400  0.338600  0.713400  1.0
  H  H1297  1  0.286600  0.832600  0.338600  1.0
  H  H1298  1  0.713400  0.832600  0.661400  1.0
  H  H1299  1  0.286600  0.167400  0.661400  1.0
  H  H1300  1  0.713400  0.167400  0.338600  1.0
  H  H1301  1  0.803400  0.774900  0.307900  1.0
  H  H1302  1  0.196600  0.225100  0.307900  1.0
  H  H1303  1  0.196600  0.774900  0.692100  1.0
  H  H1304  1  0.803400  0.225100  0.692100  1.0
  H  H1305  1  0.307900  0.803400  0.774900  1.0
  H  H1306  1  0.307900  0.196600  0.225100  1.0
  H  H1307  1  0.692100  0.196600  0.774900  1.0
  H  H1308  1  0.692100  0.803400  0.225100  1.0
  H  H1309  1  0.774900  0.307900  0.803400  1.0
  H  H1310  1  0.225100  0.307900  0.196600  1.0
  H  H1311  1  0.774900  0.692100  0.196600  1.0
  H  H1312  1  0.225100  0.692100  0.803400  1.0
  H  H1313  1  0.303400  0.274900  0.807900  1.0
  H  H1314  1  0.696600  0.725100  0.807900  1.0
  H  H1315  1  0.696600  0.274900  0.192100  1.0
  H  H1316  1  0.303400  0.725100  0.192100  1.0
  H  H1317  1  0.807900  0.303400  0.274900  1.0
  H  H1318  1  0.807900  0.696600  0.725100  1.0
  H  H1319  1  0.192100  0.696600  0.274900  1.0
  H  H1320  1  0.192100  0.303400  0.725100  1.0
  H  H1321  1  0.274900  0.807900  0.303400  1.0
  H  H1322  1  0.725100  0.807900  0.696600  1.0
  H  H1323  1  0.274900  0.192100  0.696600  1.0
  H  H1324  1  0.725100  0.192100  0.303400  1.0
  H  H1325  1  0.798100  0.928200  0.220800  1.0
  H  H1326  1  0.201900  0.071800  0.220800  1.0
  H  H1327  1  0.201900  0.928200  0.779200  1.0
  H  H1328  1  0.798100  0.071800  0.779200  1.0
  H  H1329  1  0.220800  0.798100  0.928200  1.0
  H  H1330  1  0.220800  0.201900  0.071800  1.0
  H  H1331  1  0.779200  0.201900  0.928200  1.0
  H  H1332  1  0.779200  0.798100  0.071800  1.0
  H  H1333  1  0.928200  0.220800  0.798100  1.0
  H  H1334  1  0.071800  0.220800  0.201900  1.0
  H  H1335  1  0.928200  0.779200  0.201900  1.0
  H  H1336  1  0.071800  0.779200  0.798100  1.0
  H  H1337  1  0.298100  0.428200  0.720800  1.0
  H  H1338  1  0.701900  0.571800  0.720800  1.0
  H  H1339  1  0.701900  0.428200  0.279200  1.0
  H  H1340  1  0.298100  0.571800  0.279200  1.0
  H  H1341  1  0.720800  0.298100  0.428200  1.0
  H  H1342  1  0.720800  0.701900  0.571800  1.0
  H  H1343  1  0.279200  0.701900  0.428200  1.0
  H  H1344  1  0.279200  0.298100  0.571800  1.0
  H  H1345  1  0.428200  0.720800  0.298100  1.0
  H  H1346  1  0.571800  0.720800  0.701900  1.0
  H  H1347  1  0.428200  0.279200  0.701900  1.0
  H  H1348  1  0.571800  0.279200  0.298100  1.0
  H  H1349  1  0.763400  0.005300  0.296300  1.0
  H  H1350  1  0.236600  0.994700  0.296300  1.0
  H  H1351  1  0.236600  0.005300  0.703700  1.0
  H  H1352  1  0.763400  0.994700  0.703700  1.0
  H  H1353  1  0.296300  0.763400  0.005300  1.0
  H  H1354  1  0.296300  0.236600  0.994700  1.0
  H  H1355  1  0.703700  0.236600  0.005300  1.0
  H  H1356  1  0.703700  0.763400  0.994700  1.0
  H  H1357  1  0.005300  0.296300  0.763400  1.0
  H  H1358  1  0.994700  0.296300  0.236600  1.0
  H  H1359  1  0.005300  0.703700  0.236600  1.0
  H  H1360  1  0.994700  0.703700  0.763400  1.0
  H  H1361  1  0.263400  0.505300  0.796300  1.0
  H  H1362  1  0.736600  0.494700  0.796300  1.0
  H  H1363  1  0.736600  0.505300  0.203700  1.0
  H  H1364  1  0.263400  0.494700  0.203700  1.0
  H  H1365  1  0.796300  0.263400  0.505300  1.0
  H  H1366  1  0.796300  0.736600  0.494700  1.0
  H  H1367  1  0.203700  0.736600  0.505300  1.0
  H  H1368  1  0.203700  0.263400  0.494700  1.0
  H  H1369  1  0.505300  0.796300  0.263400  1.0
  H  H1370  1  0.494700  0.796300  0.736600  1.0
  H  H1371  1  0.505300  0.203700  0.736600  1.0
  H  H1372  1  0.494700  0.203700  0.263400  1.0
  H  H1373  1  0.786200  0.968000  0.345000  1.0
  H  H1374  1  0.213800  0.032000  0.345000  1.0
  H  H1375  1  0.213800  0.968000  0.655000  1.0
  H  H1376  1  0.786200  0.032000  0.655000  1.0
  H  H1377  1  0.345000  0.786200  0.968000  1.0
  H  H1378  1  0.345000  0.213800  0.032000  1.0
  H  H1379  1  0.655000  0.213800  0.968000  1.0
  H  H1380  1  0.655000  0.786200  0.032000  1.0
  H  H1381  1  0.968000  0.345000  0.786200  1.0
  H  H1382  1  0.032000  0.345000  0.213800  1.0
  H  H1383  1  0.968000  0.655000  0.213800  1.0
  H  H1384  1  0.032000  0.655000  0.786200  1.0
  H  H1385  1  0.286200  0.468000  0.845000  1.0
  H  H1386  1  0.713800  0.532000  0.845000  1.0
  H  H1387  1  0.713800  0.468000  0.155000  1.0
  H  H1388  1  0.286200  0.532000  0.155000  1.0
  H  H1389  1  0.845000  0.286200  0.468000  1.0
  H  H1390  1  0.845000  0.713800  0.532000  1.0
  H  H1391  1  0.155000  0.713800  0.468000  1.0
  H  H1392  1  0.155000  0.286200  0.532000  1.0
  H  H1393  1  0.468000  0.845000  0.286200  1.0
  H  H1394  1  0.532000  0.845000  0.713800  1.0
  H  H1395  1  0.468000  0.155000  0.713800  1.0
  H  H1396  1  0.532000  0.155000  0.286200  1.0
  H  H1397  1  0.815000  0.910800  0.331600  1.0
  H  H1398  1  0.185000  0.089200  0.331600  1.0
  H  H1399  1  0.185000  0.910800  0.668400  1.0
  H  H1400  1  0.815000  0.089200  0.668400  1.0
  H  H1401  1  0.331600  0.815000  0.910800  1.0
  H  H1402  1  0.331600  0.185000  0.089200  1.0
  H  H1403  1  0.668400  0.185000  0.910800  1.0
  H  H1404  1  0.668400  0.815000  0.089200  1.0
  H  H1405  1  0.910800  0.331600  0.815000  1.0
  H  H1406  1  0.089200  0.331600  0.185000  1.0
  H  H1407  1  0.910800  0.668400  0.185000  1.0
  H  H1408  1  0.089200  0.668400  0.815000  1.0
  H  H1409  1  0.315000  0.410800  0.831600  1.0
  H  H1410  1  0.685000  0.589200  0.831600  1.0
  H  H1411  1  0.685000  0.410800  0.168400  1.0
  H  H1412  1  0.315000  0.589200  0.168400  1.0
  H  H1413  1  0.831600  0.315000  0.410800  1.0
  H  H1414  1  0.831600  0.685000  0.589200  1.0
  H  H1415  1  0.168400  0.685000  0.410800  1.0
  H  H1416  1  0.168400  0.315000  0.589200  1.0
  H  H1417  1  0.410800  0.831600  0.315000  1.0
  H  H1418  1  0.589200  0.831600  0.685000  1.0
  H  H1419  1  0.410800  0.168400  0.685000  1.0
  H  H1420  1  0.589200  0.168400  0.315000  1.0
  H  H1421  1  0.807900  0.848500  0.312900  1.0
  H  H1422  1  0.192100  0.151500  0.312900  1.0
  H  H1423  1  0.192100  0.848500  0.687100  1.0
  H  H1424  1  0.807900  0.151500  0.687100  1.0
  H  H1425  1  0.312900  0.807900  0.848500  1.0
  H  H1426  1  0.312900  0.192100  0.151500  1.0
  H  H1427  1  0.687100  0.192100  0.848500  1.0
  H  H1428  1  0.687100  0.807900  0.151500  1.0
  H  H1429  1  0.848500  0.312900  0.807900  1.0
  H  H1430  1  0.151500  0.312900  0.192100  1.0
  H  H1431  1  0.848500  0.687100  0.192100  1.0
  H  H1432  1  0.151500  0.687100  0.807900  1.0
  H  H1433  1  0.307900  0.348500  0.812900  1.0
  H  H1434  1  0.692100  0.651500  0.812900  1.0
  H  H1435  1  0.692100  0.348500  0.187100  1.0
  H  H1436  1  0.307900  0.651500  0.187100  1.0
  H  H1437  1  0.812900  0.307900  0.348500  1.0
  H  H1438  1  0.812900  0.692100  0.651500  1.0
  H  H1439  1  0.187100  0.692100  0.348500  1.0
  H  H1440  1  0.187100  0.307900  0.651500  1.0
  H  H1441  1  0.348500  0.812900  0.307900  1.0
  H  H1442  1  0.651500  0.812900  0.692100  1.0
  H  H1443  1  0.348500  0.187100  0.692100  1.0
  H  H1444  1  0.651500  0.187100  0.307900  1.0
  H  H1445  1  0.869400  0.784300  0.242500  1.0
  H  H1446  1  0.130600  0.215700  0.242500  1.0
  H  H1447  1  0.130600  0.784300  0.757500  1.0
  H  H1448  1  0.869400  0.215700  0.757500  1.0
  H  H1449  1  0.242500  0.869400  0.784300  1.0
  H  H1450  1  0.242500  0.130600  0.215700  1.0
  H  H1451  1  0.757500  0.130600  0.784300  1.0
  H  H1452  1  0.757500  0.869400  0.215700  1.0
  H  H1453  1  0.784300  0.242500  0.869400  1.0
  H  H1454  1  0.215700  0.242500  0.130600  1.0
  H  H1455  1  0.784300  0.757500  0.130600  1.0
  H  H1456  1  0.215700  0.757500  0.869400  1.0
  H  H1457  1  0.369400  0.284300  0.742500  1.0
  H  H1458  1  0.630600  0.715700  0.742500  1.0
  H  H1459  1  0.630600  0.284300  0.257500  1.0
  H  H1460  1  0.369400  0.715700  0.257500  1.0
  H  H1461  1  0.742500  0.369400  0.284300  1.0
  H  H1462  1  0.742500  0.630600  0.715700  1.0
  H  H1463  1  0.257500  0.630600  0.284300  1.0
  H  H1464  1  0.257500  0.369400  0.715700  1.0
  H  H1465  1  0.284300  0.742500  0.369400  1.0
  H  H1466  1  0.715700  0.742500  0.630600  1.0
  H  H1467  1  0.284300  0.257500  0.630600  1.0
  H  H1468  1  0.715700  0.257500  0.369400  1.0
  H  H1469  1  0.877300  0.835600  0.202600  1.0
  H  H1470  1  0.122700  0.164400  0.202600  1.0
  H  H1471  1  0.122700  0.835600  0.797400  1.0
  H  H1472  1  0.877300  0.164400  0.797400  1.0
  H  H1473  1  0.202600  0.877300  0.835600  1.0
  H  H1474  1  0.202600  0.122700  0.164400  1.0
  H  H1475  1  0.797400  0.122700  0.835600  1.0
  H  H1476  1  0.797400  0.877300  0.164400  1.0
  H  H1477  1  0.835600  0.202600  0.877300  1.0
  H  H1478  1  0.164400  0.202600  0.122700  1.0
  H  H1479  1  0.835600  0.797400  0.122700  1.0
  H  H1480  1  0.164400  0.797400  0.877300  1.0
  H  H1481  1  0.377300  0.335600  0.702600  1.0
  H  H1482  1  0.622700  0.664400  0.702600  1.0
  H  H1483  1  0.622700  0.335600  0.297400  1.0
  H  H1484  1  0.377300  0.664400  0.297400  1.0
  H  H1485  1  0.702600  0.377300  0.335600  1.0
  H  H1486  1  0.702600  0.622700  0.664400  1.0
  H  H1487  1  0.297400  0.622700  0.335600  1.0
  H  H1488  1  0.297400  0.377300  0.664400  1.0
  H  H1489  1  0.335600  0.702600  0.377300  1.0
  H  H1490  1  0.664400  0.702600  0.622700  1.0
  H  H1491  1  0.335600  0.297400  0.622700  1.0
  H  H1492  1  0.664400  0.297400  0.377300  1.0
  H  H1493  1  0.850500  0.893300  0.217900  1.0
  H  H1494  1  0.149500  0.106700  0.217900  1.0
  H  H1495  1  0.149500  0.893300  0.782100  1.0
  H  H1496  1  0.850500  0.106700  0.782100  1.0
  H  H1497  1  0.217900  0.850500  0.893300  1.0
  H  H1498  1  0.217900  0.149500  0.106700  1.0
  H  H1499  1  0.782100  0.149500  0.893300  1.0
  H  H1500  1  0.782100  0.850500  0.106700  1.0
  H  H1501  1  0.893300  0.217900  0.850500  1.0
  H  H1502  1  0.106700  0.217900  0.149500  1.0
  H  H1503  1  0.893300  0.782100  0.149500  1.0
  H  H1504  1  0.106700  0.782100  0.850500  1.0
  H  H1505  1  0.350500  0.393300  0.717900  1.0
  H  H1506  1  0.649500  0.606700  0.717900  1.0
  H  H1507  1  0.649500  0.393300  0.282100  1.0
  H  H1508  1  0.350500  0.606700  0.282100  1.0
  H  H1509  1  0.717900  0.350500  0.393300  1.0
  H  H1510  1  0.717900  0.649500  0.606700  1.0
  H  H1511  1  0.282100  0.649500  0.393300  1.0
  H  H1512  1  0.282100  0.350500  0.606700  1.0
  H  H1513  1  0.393300  0.717900  0.350500  1.0
  H  H1514  1  0.606700  0.717900  0.649500  1.0
  H  H1515  1  0.393300  0.282100  0.649500  1.0
  H  H1516  1  0.606700  0.282100  0.350500  1.0
  C  C1517  1  0.538500  0.864400  0.493100  1.0
  C  C1518  1  0.461500  0.135600  0.493100  1.0
  C  C1519  1  0.461500  0.864400  0.506900  1.0
  C  C1520  1  0.538500  0.135600  0.506900  1.0
  C  C1521  1  0.493100  0.538500  0.864400  1.0
  C  C1522  1  0.493100  0.461500  0.135600  1.0
  C  C1523  1  0.506900  0.461500  0.864400  1.0
  C  C1524  1  0.506900  0.538500  0.135600  1.0
  C  C1525  1  0.864400  0.493100  0.538500  1.0
  C  C1526  1  0.135600  0.493100  0.461500  1.0
  C  C1527  1  0.864400  0.506900  0.461500  1.0
  C  C1528  1  0.135600  0.506900  0.538500  1.0
  C  C1529  1  0.038500  0.364400  0.993100  1.0
  C  C1530  1  0.961500  0.635600  0.993100  1.0
  C  C1531  1  0.961500  0.364400  0.006900  1.0
  C  C1532  1  0.038500  0.635600  0.006900  1.0
  C  C1533  1  0.993100  0.038500  0.364400  1.0
  C  C1534  1  0.993100  0.961500  0.635600  1.0
  C  C1535  1  0.006900  0.961500  0.364400  1.0
  C  C1536  1  0.006900  0.038500  0.635600  1.0
  C  C1537  1  0.364400  0.993100  0.038500  1.0
  C  C1538  1  0.635600  0.993100  0.961500  1.0
  C  C1539  1  0.364400  0.006900  0.961500  1.0
  C  C1540  1  0.635600  0.006900  0.038500  1.0
  C  C1541  1  0.534500  0.897200  0.472700  1.0
  C  C1542  1  0.465500  0.102800  0.472700  1.0
  C  C1543  1  0.465500  0.897200  0.527300  1.0
  C  C1544  1  0.534500  0.102800  0.527300  1.0
  C  C1545  1  0.472700  0.534500  0.897200  1.0
  C  C1546  1  0.472700  0.465500  0.102800  1.0
  C  C1547  1  0.527300  0.465500  0.897200  1.0
  C  C1548  1  0.527300  0.534500  0.102800  1.0
  C  C1549  1  0.897200  0.472700  0.534500  1.0
  C  C1550  1  0.102800  0.472700  0.465500  1.0
  C  C1551  1  0.897200  0.527300  0.465500  1.0
  C  C1552  1  0.102800  0.527300  0.534500  1.0
  C  C1553  1  0.034500  0.397200  0.972700  1.0
  C  C1554  1  0.965500  0.602800  0.972700  1.0
  C  C1555  1  0.965500  0.397200  0.027300  1.0
  C  C1556  1  0.034500  0.602800  0.027300  1.0
  C  C1557  1  0.972700  0.034500  0.397200  1.0
  C  C1558  1  0.972700  0.965500  0.602800  1.0
  C  C1559  1  0.027300  0.965500  0.397200  1.0
  C  C1560  1  0.027300  0.034500  0.602800  1.0
  C  C1561  1  0.397200  0.972700  0.034500  1.0
  C  C1562  1  0.602800  0.972700  0.965500  1.0
  C  C1563  1  0.397200  0.027300  0.965500  1.0
  C  C1564  1  0.602800  0.027300  0.034500  1.0
  C  C1565  1  0.565300  0.920100  0.466600  1.0
  C  C1566  1  0.434700  0.079900  0.466600  1.0
  C  C1567  1  0.434700  0.920100  0.533400  1.0
  C  C1568  1  0.565300  0.079900  0.533400  1.0
  C  C1569  1  0.466600  0.565300  0.920100  1.0
  C  C1570  1  0.466600  0.434700  0.079900  1.0
  C  C1571  1  0.533400  0.434700  0.920100  1.0
  C  C1572  1  0.533400  0.565300  0.079900  1.0
  C  C1573  1  0.920100  0.466600  0.565300  1.0
  C  C1574  1  0.079900  0.466600  0.434700  1.0
  C  C1575  1  0.920100  0.533400  0.434700  1.0
  C  C1576  1  0.079900  0.533400  0.565300  1.0
  C  C1577  1  0.065300  0.420100  0.966600  1.0
  C  C1578  1  0.934700  0.579900  0.966600  1.0
  C  C1579  1  0.934700  0.420100  0.033400  1.0
  C  C1580  1  0.065300  0.579900  0.033400  1.0
  C  C1581  1  0.966600  0.065300  0.420100  1.0
  C  C1582  1  0.966600  0.934700  0.579900  1.0
  C  C1583  1  0.033400  0.934700  0.420100  1.0
  C  C1584  1  0.033400  0.065300  0.579900  1.0
  C  C1585  1  0.420100  0.966600  0.065300  1.0
  C  C1586  1  0.579900  0.966600  0.934700  1.0
  C  C1587  1  0.420100  0.033400  0.934700  1.0
  C  C1588  1  0.579900  0.033400  0.065300  1.0
  C  C1589  1  0.600100  0.910300  0.480900  1.0
  C  C1590  1  0.399900  0.089700  0.480900  1.0
  C  C1591  1  0.399900  0.910300  0.519100  1.0
  C  C1592  1  0.600100  0.089700  0.519100  1.0
  C  C1593  1  0.480900  0.600100  0.910300  1.0
  C  C1594  1  0.480900  0.399900  0.089700  1.0
  C  C1595  1  0.519100  0.399900  0.910300  1.0
  C  C1596  1  0.519100  0.600100  0.089700  1.0
  C  C1597  1  0.910300  0.480900  0.600100  1.0
  C  C1598  1  0.089700  0.480900  0.399900  1.0
  C  C1599  1  0.910300  0.519100  0.399900  1.0
  C  C1600  1  0.089700  0.519100  0.600100  1.0
  C  C1601  1  0.100100  0.410300  0.980900  1.0
  C  C1602  1  0.899900  0.589700  0.980900  1.0
  C  C1603  1  0.899900  0.410300  0.019100  1.0
  C  C1604  1  0.100100  0.589700  0.019100  1.0
  C  C1605  1  0.980900  0.100100  0.410300  1.0
  C  C1606  1  0.980900  0.899900  0.589700  1.0
  C  C1607  1  0.019100  0.899900  0.410300  1.0
  C  C1608  1  0.019100  0.100100  0.589700  1.0
  C  C1609  1  0.410300  0.980900  0.100100  1.0
  C  C1610  1  0.589700  0.980900  0.899900  1.0
  C  C1611  1  0.410300  0.019100  0.899900  1.0
  C  C1612  1  0.589700  0.019100  0.100100  1.0
  C  C1613  1  0.604000  0.877400  0.501400  1.0
  C  C1614  1  0.396000  0.122600  0.501400  1.0
  C  C1615  1  0.396000  0.877400  0.498600  1.0
  C  C1616  1  0.604000  0.122600  0.498600  1.0
  C  C1617  1  0.501400  0.604000  0.877400  1.0
  C  C1618  1  0.501400  0.396000  0.122600  1.0
  C  C1619  1  0.498600  0.396000  0.877400  1.0
  C  C1620  1  0.498600  0.604000  0.122600  1.0
  C  C1621  1  0.877400  0.501400  0.604000  1.0
  C  C1622  1  0.122600  0.501400  0.396000  1.0
  C  C1623  1  0.877400  0.498600  0.396000  1.0
  C  C1624  1  0.122600  0.498600  0.604000  1.0
  C  C1625  1  0.104000  0.377400  0.001400  1.0
  C  C1626  1  0.896000  0.622600  0.001400  1.0
  C  C1627  1  0.896000  0.377400  0.998600  1.0
  C  C1628  1  0.104000  0.622600  0.998600  1.0
  C  C1629  1  0.001400  0.104000  0.377400  1.0
  C  C1630  1  0.001400  0.896000  0.622600  1.0
  C  C1631  1  0.998600  0.896000  0.377400  1.0
  C  C1632  1  0.998600  0.104000  0.622600  1.0
  C  C1633  1  0.377400  0.001400  0.104000  1.0
  C  C1634  1  0.622600  0.001400  0.896000  1.0
  C  C1635  1  0.377400  0.998600  0.896000  1.0
  C  C1636  1  0.622600  0.998600  0.104000  1.0
  C  C1637  1  0.573300  0.854500  0.507500  1.0
  C  C1638  1  0.426700  0.145500  0.507500  1.0
  C  C1639  1  0.426700  0.854500  0.492500  1.0
  C  C1640  1  0.573300  0.145500  0.492500  1.0
  C  C1641  1  0.507500  0.573300  0.854500  1.0
  C  C1642  1  0.507500  0.426700  0.145500  1.0
  C  C1643  1  0.492500  0.426700  0.854500  1.0
  C  C1644  1  0.492500  0.573300  0.145500  1.0
  C  C1645  1  0.854500  0.507500  0.573300  1.0
  C  C1646  1  0.145500  0.507500  0.426700  1.0
  C  C1647  1  0.854500  0.492500  0.426700  1.0
  C  C1648  1  0.145500  0.492500  0.573300  1.0
  C  C1649  1  0.073300  0.354500  0.007500  1.0
  C  C1650  1  0.926700  0.645500  0.007500  1.0
  C  C1651  1  0.926700  0.354500  0.992500  1.0
  C  C1652  1  0.073300  0.645500  0.992500  1.0
  C  C1653  1  0.007500  0.073300  0.354500  1.0
  C  C1654  1  0.007500  0.926700  0.645500  1.0
  C  C1655  1  0.992500  0.926700  0.354500  1.0
  C  C1656  1  0.992500  0.073300  0.645500  1.0
  C  C1657  1  0.354500  0.007500  0.073300  1.0
  C  C1658  1  0.645500  0.007500  0.926700  1.0
  C  C1659  1  0.354500  0.992500  0.926700  1.0
  C  C1660  1  0.645500  0.992500  0.073300  1.0
  C  C1661  1  0.503500  0.810500  0.539200  1.0
  C  C1662  1  0.496500  0.189500  0.539200  1.0
  C  C1663  1  0.496500  0.810500  0.460800  1.0
  C  C1664  1  0.503500  0.189500  0.460800  1.0
  C  C1665  1  0.539200  0.503500  0.810500  1.0
  C  C1666  1  0.539200  0.496500  0.189500  1.0
  C  C1667  1  0.460800  0.496500  0.810500  1.0
  C  C1668  1  0.460800  0.503500  0.189500  1.0
  C  C1669  1  0.810500  0.539200  0.503500  1.0
  C  C1670  1  0.189500  0.539200  0.496500  1.0
  C  C1671  1  0.810500  0.460800  0.496500  1.0
  C  C1672  1  0.189500  0.460800  0.503500  1.0
  C  C1673  1  0.003500  0.310500  0.039200  1.0
  C  C1674  1  0.996500  0.689500  0.039200  1.0
  C  C1675  1  0.996500  0.310500  0.960800  1.0
  C  C1676  1  0.003500  0.689500  0.960800  1.0
  C  C1677  1  0.039200  0.003500  0.310500  1.0
  C  C1678  1  0.039200  0.996500  0.689500  1.0
  C  C1679  1  0.960800  0.996500  0.310500  1.0
  C  C1680  1  0.960800  0.003500  0.689500  1.0
  C  C1681  1  0.310500  0.039200  0.003500  1.0
  C  C1682  1  0.689500  0.039200  0.996500  1.0
  C  C1683  1  0.310500  0.960800  0.996500  1.0
  C  C1684  1  0.689500  0.960800  0.003500  1.0
  C  C1685  1  0.522900  0.776800  0.539200  1.0
  C  C1686  1  0.477100  0.223200  0.539200  1.0
  C  C1687  1  0.477100  0.776800  0.460800  1.0
  C  C1688  1  0.522900  0.223200  0.460800  1.0
  C  C1689  1  0.539200  0.522900  0.776800  1.0
  C  C1690  1  0.539200  0.477100  0.223200  1.0
  C  C1691  1  0.460800  0.477100  0.776800  1.0
  C  C1692  1  0.460800  0.522900  0.223200  1.0
  C  C1693  1  0.776800  0.539200  0.522900  1.0
  C  C1694  1  0.223200  0.539200  0.477100  1.0
  C  C1695  1  0.776800  0.460800  0.477100  1.0
  C  C1696  1  0.223200  0.460800  0.522900  1.0
  C  C1697  1  0.022900  0.276800  0.039200  1.0
  C  C1698  1  0.977100  0.723200  0.039200  1.0
  C  C1699  1  0.977100  0.276800  0.960800  1.0
  C  C1700  1  0.022900  0.723200  0.960800  1.0
  C  C1701  1  0.039200  0.022900  0.276800  1.0
  C  C1702  1  0.039200  0.977100  0.723200  1.0
  C  C1703  1  0.960800  0.977100  0.276800  1.0
  C  C1704  1  0.960800  0.022900  0.723200  1.0
  C  C1705  1  0.276800  0.039200  0.022900  1.0
  C  C1706  1  0.723200  0.039200  0.977100  1.0
  C  C1707  1  0.276800  0.960800  0.977100  1.0
  C  C1708  1  0.723200  0.960800  0.022900  1.0
  C  C1709  1  0.529600  0.758300  0.572800  1.0
  C  C1710  1  0.470400  0.241700  0.572800  1.0
  C  C1711  1  0.470400  0.758300  0.427200  1.0
  C  C1712  1  0.529600  0.241700  0.427200  1.0
  C  C1713  1  0.572800  0.529600  0.758300  1.0
  C  C1714  1  0.572800  0.470400  0.241700  1.0
  C  C1715  1  0.427200  0.470400  0.758300  1.0
  C  C1716  1  0.427200  0.529600  0.241700  1.0
  C  C1717  1  0.758300  0.572800  0.529600  1.0
  C  C1718  1  0.241700  0.572800  0.470400  1.0
  C  C1719  1  0.758300  0.427200  0.470400  1.0
  C  C1720  1  0.241700  0.427200  0.529600  1.0
  C  C1721  1  0.029600  0.258300  0.072800  1.0
  C  C1722  1  0.970400  0.741700  0.072800  1.0
  C  C1723  1  0.970400  0.258300  0.927200  1.0
  C  C1724  1  0.029600  0.741700  0.927200  1.0
  C  C1725  1  0.072800  0.029600  0.258300  1.0
  C  C1726  1  0.072800  0.970400  0.741700  1.0
  C  C1727  1  0.927200  0.970400  0.258300  1.0
  C  C1728  1  0.927200  0.029600  0.741700  1.0
  C  C1729  1  0.258300  0.072800  0.029600  1.0
  C  C1730  1  0.741700  0.072800  0.970400  1.0
  C  C1731  1  0.258300  0.927200  0.970400  1.0
  C  C1732  1  0.741700  0.927200  0.029600  1.0
  C  C1733  1  0.516800  0.773500  0.606200  1.0
  C  C1734  1  0.483200  0.226500  0.606200  1.0
  C  C1735  1  0.483200  0.773500  0.393800  1.0
  C  C1736  1  0.516800  0.226500  0.393800  1.0
  C  C1737  1  0.606200  0.516800  0.773500  1.0
  C  C1738  1  0.606200  0.483200  0.226500  1.0
  C  C1739  1  0.393800  0.483200  0.773500  1.0
  C  C1740  1  0.393800  0.516800  0.226500  1.0
  C  C1741  1  0.773500  0.606200  0.516800  1.0
  C  C1742  1  0.226500  0.606200  0.483200  1.0
  C  C1743  1  0.773500  0.393800  0.483200  1.0
  C  C1744  1  0.226500  0.393800  0.516800  1.0
  C  C1745  1  0.016800  0.273500  0.106200  1.0
  C  C1746  1  0.983200  0.726500  0.106200  1.0
  C  C1747  1  0.983200  0.273500  0.893800  1.0
  C  C1748  1  0.016800  0.726500  0.893800  1.0
  C  C1749  1  0.106200  0.016800  0.273500  1.0
  C  C1750  1  0.106200  0.983200  0.726500  1.0
  C  C1751  1  0.893800  0.983200  0.273500  1.0
  C  C1752  1  0.893800  0.016800  0.726500  1.0
  C  C1753  1  0.273500  0.106200  0.016800  1.0
  C  C1754  1  0.726500  0.106200  0.983200  1.0
  C  C1755  1  0.273500  0.893800  0.983200  1.0
  C  C1756  1  0.726500  0.893800  0.016800  1.0
  C  C1757  1  0.497400  0.807200  0.606100  1.0
  C  C1758  1  0.502600  0.192800  0.606100  1.0
  C  C1759  1  0.502600  0.807200  0.393900  1.0
  C  C1760  1  0.497400  0.192800  0.393900  1.0
  C  C1761  1  0.606100  0.497400  0.807200  1.0
  C  C1762  1  0.606100  0.502600  0.192800  1.0
  C  C1763  1  0.393900  0.502600  0.807200  1.0
  C  C1764  1  0.393900  0.497400  0.192800  1.0
  C  C1765  1  0.807200  0.606100  0.497400  1.0
  C  C1766  1  0.192800  0.606100  0.502600  1.0
  C  C1767  1  0.807200  0.393900  0.502600  1.0
  C  C1768  1  0.192800  0.393900  0.497400  1.0
  C  C1769  1  0.997400  0.307200  0.106100  1.0
  C  C1770  1  0.002600  0.692800  0.106100  1.0
  C  C1771  1  0.002600  0.307200  0.893900  1.0
  C  C1772  1  0.997400  0.692800  0.893900  1.0
  C  C1773  1  0.106100  0.997400  0.307200  1.0
  C  C1774  1  0.106100  0.002600  0.692800  1.0
  C  C1775  1  0.893900  0.002600  0.307200  1.0
  C  C1776  1  0.893900  0.997400  0.692800  1.0
  C  C1777  1  0.307200  0.106100  0.997400  1.0
  C  C1778  1  0.692800  0.106100  0.002600  1.0
  C  C1779  1  0.307200  0.893900  0.002600  1.0
  C  C1780  1  0.692800  0.893900  0.997400  1.0
  C  C1781  1  0.490700  0.825700  0.572600  1.0
  C  C1782  1  0.509300  0.174300  0.572600  1.0
  C  C1783  1  0.509300  0.825700  0.427400  1.0
  C  C1784  1  0.490700  0.174300  0.427400  1.0
  C  C1785  1  0.572600  0.490700  0.825700  1.0
  C  C1786  1  0.572600  0.509300  0.174300  1.0
  C  C1787  1  0.427400  0.509300  0.825700  1.0
  C  C1788  1  0.427400  0.490700  0.174300  1.0
  C  C1789  1  0.825700  0.572600  0.490700  1.0
  C  C1790  1  0.174300  0.572600  0.509300  1.0
  C  C1791  1  0.825700  0.427400  0.509300  1.0
  C  C1792  1  0.174300  0.427400  0.490700  1.0
  C  C1793  1  0.990700  0.325700  0.072600  1.0
  C  C1794  1  0.009300  0.674300  0.072600  1.0
  C  C1795  1  0.009300  0.325700  0.927400  1.0
  C  C1796  1  0.990700  0.674300  0.927400  1.0
  C  C1797  1  0.072600  0.990700  0.325700  1.0
  C  C1798  1  0.072600  0.009300  0.674300  1.0
  C  C1799  1  0.927400  0.009300  0.325700  1.0
  C  C1800  1  0.927400  0.990700  0.674300  1.0
  C  C1801  1  0.325700  0.072600  0.990700  1.0
  C  C1802  1  0.674300  0.072600  0.009300  1.0
  C  C1803  1  0.325700  0.927400  0.009300  1.0
  C  C1804  1  0.674300  0.927400  0.990700  1.0
  C  C1805  1  0.695400  0.601700  0.420900  1.0
  C  C1806  1  0.304600  0.398300  0.420900  1.0
  C  C1807  1  0.304600  0.601700  0.579100  1.0
  C  C1808  1  0.695400  0.398300  0.579100  1.0
  C  C1809  1  0.420900  0.695400  0.601700  1.0
  C  C1810  1  0.420900  0.304600  0.398300  1.0
  C  C1811  1  0.579100  0.304600  0.601700  1.0
  C  C1812  1  0.579100  0.695400  0.398300  1.0
  C  C1813  1  0.601700  0.420900  0.695400  1.0
  C  C1814  1  0.398300  0.420900  0.304600  1.0
  C  C1815  1  0.601700  0.579100  0.304600  1.0
  C  C1816  1  0.398300  0.579100  0.695400  1.0
  C  C1817  1  0.195400  0.101700  0.920900  1.0
  C  C1818  1  0.804600  0.898300  0.920900  1.0
  C  C1819  1  0.804600  0.101700  0.079100  1.0
  C  C1820  1  0.195400  0.898300  0.079100  1.0
  C  C1821  1  0.920900  0.195400  0.101700  1.0
  C  C1822  1  0.920900  0.804600  0.898300  1.0
  C  C1823  1  0.079100  0.804600  0.101700  1.0
  C  C1824  1  0.079100  0.195400  0.898300  1.0
  C  C1825  1  0.101700  0.920900  0.195400  1.0
  C  C1826  1  0.898300  0.920900  0.804600  1.0
  C  C1827  1  0.101700  0.079100  0.804600  1.0
  C  C1828  1  0.898300  0.079100  0.195400  1.0
  C  C1829  1  0.712700  0.575700  0.444100  1.0
  C  C1830  1  0.287300  0.424300  0.444100  1.0
  C  C1831  1  0.287300  0.575700  0.555900  1.0
  C  C1832  1  0.712700  0.424300  0.555900  1.0
  C  C1833  1  0.444100  0.712700  0.575700  1.0
  C  C1834  1  0.444100  0.287300  0.424300  1.0
  C  C1835  1  0.555900  0.287300  0.575700  1.0
  C  C1836  1  0.555900  0.712700  0.424300  1.0
  C  C1837  1  0.575700  0.444100  0.712700  1.0
  C  C1838  1  0.424300  0.444100  0.287300  1.0
  C  C1839  1  0.575700  0.555900  0.287300  1.0
  C  C1840  1  0.424300  0.555900  0.712700  1.0
  C  C1841  1  0.212700  0.075700  0.944100  1.0
  C  C1842  1  0.787300  0.924300  0.944100  1.0
  C  C1843  1  0.787300  0.075700  0.055900  1.0
  C  C1844  1  0.212700  0.924300  0.055900  1.0
  C  C1845  1  0.944100  0.212700  0.075700  1.0
  C  C1846  1  0.944100  0.787300  0.924300  1.0
  C  C1847  1  0.055900  0.787300  0.075700  1.0
  C  C1848  1  0.055900  0.212700  0.924300  1.0
  C  C1849  1  0.075700  0.944100  0.212700  1.0
  C  C1850  1  0.924300  0.944100  0.787300  1.0
  C  C1851  1  0.075700  0.055900  0.787300  1.0
  C  C1852  1  0.924300  0.055900  0.212700  1.0
  C  C1853  1  0.698100  0.539900  0.447400  1.0
  C  C1854  1  0.301900  0.460100  0.447400  1.0
  C  C1855  1  0.301900  0.539900  0.552600  1.0
  C  C1856  1  0.698100  0.460100  0.552600  1.0
  C  C1857  1  0.447400  0.698100  0.539900  1.0
  C  C1858  1  0.447400  0.301900  0.460100  1.0
  C  C1859  1  0.552600  0.301900  0.539900  1.0
  C  C1860  1  0.552600  0.698100  0.460100  1.0
  C  C1861  1  0.539900  0.447400  0.698100  1.0
  C  C1862  1  0.460100  0.447400  0.301900  1.0
  C  C1863  1  0.539900  0.552600  0.301900  1.0
  C  C1864  1  0.460100  0.552600  0.698100  1.0
  C  C1865  1  0.198100  0.039900  0.947400  1.0
  C  C1866  1  0.801900  0.960100  0.947400  1.0
  C  C1867  1  0.801900  0.039900  0.052600  1.0
  C  C1868  1  0.198100  0.960100  0.052600  1.0
  C  C1869  1  0.947400  0.198100  0.039900  1.0
  C  C1870  1  0.947400  0.801900  0.960100  1.0
  C  C1871  1  0.052600  0.801900  0.039900  1.0
  C  C1872  1  0.052600  0.198100  0.960100  1.0
  C  C1873  1  0.039900  0.947400  0.198100  1.0
  C  C1874  1  0.960100  0.947400  0.801900  1.0
  C  C1875  1  0.039900  0.052600  0.801900  1.0
  C  C1876  1  0.960100  0.052600  0.198100  1.0
  C  C1877  1  0.666200  0.530000  0.427600  1.0
  C  C1878  1  0.333800  0.470000  0.427600  1.0
  C  C1879  1  0.333800  0.530000  0.572400  1.0
  C  C1880  1  0.666200  0.470000  0.572400  1.0
  C  C1881  1  0.427600  0.666200  0.530000  1.0
  C  C1882  1  0.427600  0.333800  0.470000  1.0
  C  C1883  1  0.572400  0.333800  0.530000  1.0
  C  C1884  1  0.572400  0.666200  0.470000  1.0
  C  C1885  1  0.530000  0.427600  0.666200  1.0
  C  C1886  1  0.470000  0.427600  0.333800  1.0
  C  C1887  1  0.530000  0.572400  0.333800  1.0
  C  C1888  1  0.470000  0.572400  0.666200  1.0
  C  C1889  1  0.166200  0.030000  0.927600  1.0
  C  C1890  1  0.833800  0.970000  0.927600  1.0
  C  C1891  1  0.833800  0.030000  0.072400  1.0
  C  C1892  1  0.166200  0.970000  0.072400  1.0
  C  C1893  1  0.927600  0.166200  0.030000  1.0
  C  C1894  1  0.927600  0.833800  0.970000  1.0
  C  C1895  1  0.072400  0.833800  0.030000  1.0
  C  C1896  1  0.072400  0.166200  0.970000  1.0
  C  C1897  1  0.030000  0.927600  0.166200  1.0
  C  C1898  1  0.970000  0.927600  0.833800  1.0
  C  C1899  1  0.030000  0.072400  0.833800  1.0
  C  C1900  1  0.970000  0.072400  0.166200  1.0
  C  C1901  1  0.648800  0.556000  0.404400  1.0
  C  C1902  1  0.351200  0.444000  0.404400  1.0
  C  C1903  1  0.351200  0.556000  0.595600  1.0
  C  C1904  1  0.648800  0.444000  0.595600  1.0
  C  C1905  1  0.404400  0.648800  0.556000  1.0
  C  C1906  1  0.404400  0.351200  0.444000  1.0
  C  C1907  1  0.595600  0.351200  0.556000  1.0
  C  C1908  1  0.595600  0.648800  0.444000  1.0
  C  C1909  1  0.556000  0.404400  0.648800  1.0
  C  C1910  1  0.444000  0.404400  0.351200  1.0
  C  C1911  1  0.556000  0.595600  0.351200  1.0
  C  C1912  1  0.444000  0.595600  0.648800  1.0
  C  C1913  1  0.148800  0.056000  0.904400  1.0
  C  C1914  1  0.851200  0.944000  0.904400  1.0
  C  C1915  1  0.851200  0.056000  0.095600  1.0
  C  C1916  1  0.148800  0.944000  0.095600  1.0
  C  C1917  1  0.904400  0.148800  0.056000  1.0
  C  C1918  1  0.904400  0.851200  0.944000  1.0
  C  C1919  1  0.095600  0.851200  0.056000  1.0
  C  C1920  1  0.095600  0.148800  0.944000  1.0
  C  C1921  1  0.056000  0.904400  0.148800  1.0
  C  C1922  1  0.944000  0.904400  0.851200  1.0
  C  C1923  1  0.056000  0.095600  0.851200  1.0
  C  C1924  1  0.944000  0.095600  0.148800  1.0
  C  C1925  1  0.707000  0.637340  0.417800  1.0
  C  C1926  1  0.293000  0.362660  0.417800  1.0
  C  C1927  1  0.293000  0.637340  0.582200  1.0
  C  C1928  1  0.707000  0.362660  0.582200  1.0
  C  C1929  1  0.417800  0.707000  0.637340  1.0
  C  C1930  1  0.417800  0.293000  0.362660  1.0
  C  C1931  1  0.582200  0.293000  0.637340  1.0
  C  C1932  1  0.582200  0.707000  0.362660  1.0
  C  C1933  1  0.637340  0.417800  0.707000  1.0
  C  C1934  1  0.362660  0.417800  0.293000  1.0
  C  C1935  1  0.637340  0.582200  0.293000  1.0
  C  C1936  1  0.362660  0.582200  0.707000  1.0
  C  C1937  1  0.207000  0.137340  0.917800  1.0
  C  C1938  1  0.793000  0.862660  0.917800  1.0
  C  C1939  1  0.793000  0.137340  0.082200  1.0
  C  C1940  1  0.207000  0.862660  0.082200  1.0
  C  C1941  1  0.917800  0.207000  0.137340  1.0
  C  C1942  1  0.917800  0.793000  0.862660  1.0
  C  C1943  1  0.082200  0.793000  0.137340  1.0
  C  C1944  1  0.082200  0.207000  0.862660  1.0
  C  C1945  1  0.137340  0.917800  0.207000  1.0
  C  C1946  1  0.862660  0.917800  0.793000  1.0
  C  C1947  1  0.137340  0.082200  0.793000  1.0
  C  C1948  1  0.862660  0.082200  0.207000  1.0
  C  C1949  1  0.738400  0.656000  0.433500  1.0
  C  C1950  1  0.261600  0.344000  0.433500  1.0
  C  C1951  1  0.261600  0.656000  0.566500  1.0
  C  C1952  1  0.738400  0.344000  0.566500  1.0
  C  C1953  1  0.433500  0.738400  0.656000  1.0
  C  C1954  1  0.433500  0.261600  0.344000  1.0
  C  C1955  1  0.566500  0.261600  0.656000  1.0
  C  C1956  1  0.566500  0.738400  0.344000  1.0
  C  C1957  1  0.656000  0.433500  0.738400  1.0
  C  C1958  1  0.344000  0.433500  0.261600  1.0
  C  C1959  1  0.656000  0.566500  0.261600  1.0
  C  C1960  1  0.344000  0.566500  0.738400  1.0
  C  C1961  1  0.238400  0.156000  0.933500  1.0
  C  C1962  1  0.761600  0.844000  0.933500  1.0
  C  C1963  1  0.761600  0.156000  0.066500  1.0
  C  C1964  1  0.238400  0.844000  0.066500  1.0
  C  C1965  1  0.933500  0.238400  0.156000  1.0
  C  C1966  1  0.933500  0.761600  0.844000  1.0
  C  C1967  1  0.066500  0.761600  0.156000  1.0
  C  C1968  1  0.066500  0.238400  0.844000  1.0
  C  C1969  1  0.156000  0.933500  0.238400  1.0
  C  C1970  1  0.844000  0.933500  0.761600  1.0
  C  C1971  1  0.156000  0.066500  0.761600  1.0
  C  C1972  1  0.844000  0.066500  0.238400  1.0
  C  C1973  1  0.740720  0.692000  0.417100  1.0
  C  C1974  1  0.259280  0.308000  0.417100  1.0
  C  C1975  1  0.259280  0.692000  0.582900  1.0
  C  C1976  1  0.740720  0.308000  0.582900  1.0
  C  C1977  1  0.417100  0.740720  0.692000  1.0
  C  C1978  1  0.417100  0.259280  0.308000  1.0
  C  C1979  1  0.582900  0.259280  0.692000  1.0
  C  C1980  1  0.582900  0.740720  0.308000  1.0
  C  C1981  1  0.692000  0.417100  0.740720  1.0
  C  C1982  1  0.308000  0.417100  0.259280  1.0
  C  C1983  1  0.692000  0.582900  0.259280  1.0
  C  C1984  1  0.308000  0.582900  0.740720  1.0
  C  C1985  1  0.240720  0.192000  0.917100  1.0
  C  C1986  1  0.759280  0.808000  0.917100  1.0
  C  C1987  1  0.759280  0.192000  0.082900  1.0
  C  C1988  1  0.240720  0.808000  0.082900  1.0
  C  C1989  1  0.917100  0.240720  0.192000  1.0
  C  C1990  1  0.917100  0.759280  0.808000  1.0
  C  C1991  1  0.082900  0.759280  0.192000  1.0
  C  C1992  1  0.082900  0.240720  0.808000  1.0
  C  C1993  1  0.192000  0.917100  0.240720  1.0
  C  C1994  1  0.808000  0.917100  0.759280  1.0
  C  C1995  1  0.192000  0.082900  0.759280  1.0
  C  C1996  1  0.808000  0.082900  0.240720  1.0
  C  C1997  1  0.698800  0.726100  0.370300  1.0
  C  C1998  1  0.301200  0.273900  0.370300  1.0
  C  C1999  1  0.301200  0.726100  0.629700  1.0
  C  C2000  1  0.698800  0.273900  0.629700  1.0
  C  C2001  1  0.370300  0.698800  0.726100  1.0
  C  C2002  1  0.370300  0.301200  0.273900  1.0
  C  C2003  1  0.629700  0.301200  0.726100  1.0
  C  C2004  1  0.629700  0.698800  0.273900  1.0
  C  C2005  1  0.726100  0.370300  0.698800  1.0
  C  C2006  1  0.273900  0.370300  0.301200  1.0
  C  C2007  1  0.726100  0.629700  0.301200  1.0
  C  C2008  1  0.273900  0.629700  0.698800  1.0
  C  C2009  1  0.198800  0.226100  0.870300  1.0
  C  C2010  1  0.801200  0.773900  0.870300  1.0
  C  C2011  1  0.801200  0.226100  0.129700  1.0
  C  C2012  1  0.198800  0.773900  0.129700  1.0
  C  C2013  1  0.870300  0.198800  0.226100  1.0
  C  C2014  1  0.870300  0.801200  0.773900  1.0
  C  C2015  1  0.129700  0.801200  0.226100  1.0
  C  C2016  1  0.129700  0.198800  0.773900  1.0
  C  C2017  1  0.226100  0.870300  0.198800  1.0
  C  C2018  1  0.773900  0.870300  0.801200  1.0
  C  C2019  1  0.226100  0.129700  0.801200  1.0
  C  C2020  1  0.773900  0.129700  0.198800  1.0
  C  C2021  1  0.599800  0.991610  0.213700  1.0
  C  C2022  1  0.400200  0.008390  0.213700  1.0
  C  C2023  1  0.400200  0.991610  0.786300  1.0
  C  C2024  1  0.599800  0.008390  0.786300  1.0
  C  C2025  1  0.213700  0.599800  0.991610  1.0
  C  C2026  1  0.213700  0.400200  0.008390  1.0
  C  C2027  1  0.786300  0.400200  0.991610  1.0
  C  C2028  1  0.786300  0.599800  0.008390  1.0
  C  C2029  1  0.991610  0.213700  0.599800  1.0
  C  C2030  1  0.008390  0.213700  0.400200  1.0
  C  C2031  1  0.991610  0.786300  0.400200  1.0
  C  C2032  1  0.008390  0.786300  0.599800  1.0
  C  C2033  1  0.099800  0.491610  0.713700  1.0
  C  C2034  1  0.900200  0.508390  0.713700  1.0
  C  C2035  1  0.900200  0.491610  0.286300  1.0
  C  C2036  1  0.099800  0.508390  0.286300  1.0
  C  C2037  1  0.713700  0.099800  0.491610  1.0
  C  C2038  1  0.713700  0.900200  0.508390  1.0
  C  C2039  1  0.286300  0.900200  0.491610  1.0
  C  C2040  1  0.286300  0.099800  0.508390  1.0
  C  C2041  1  0.491610  0.713700  0.099800  1.0
  C  C2042  1  0.508390  0.713700  0.900200  1.0
  C  C2043  1  0.491610  0.286300  0.900200  1.0
  C  C2044  1  0.508390  0.286300  0.099800  1.0
  C  C2045  1  0.578920  0.021400  0.200000  1.0
  C  C2046  1  0.421080  0.978600  0.200000  1.0
  C  C2047  1  0.421080  0.021400  0.800000  1.0
  C  C2048  1  0.578920  0.978600  0.800000  1.0
  C  C2049  1  0.200000  0.578920  0.021400  1.0
  C  C2050  1  0.200000  0.421080  0.978600  1.0
  C  C2051  1  0.800000  0.421080  0.021400  1.0
  C  C2052  1  0.800000  0.578920  0.978600  1.0
  C  C2053  1  0.021400  0.200000  0.578920  1.0
  C  C2054  1  0.978600  0.200000  0.421080  1.0
  C  C2055  1  0.021400  0.800000  0.421080  1.0
  C  C2056  1  0.978600  0.800000  0.578920  1.0
  C  C2057  1  0.078920  0.521400  0.700000  1.0
  C  C2058  1  0.921080  0.478600  0.700000  1.0
  C  C2059  1  0.921080  0.521400  0.300000  1.0
  C  C2060  1  0.078920  0.478600  0.300000  1.0
  C  C2061  1  0.700000  0.078920  0.521400  1.0
  C  C2062  1  0.700000  0.921080  0.478600  1.0
  C  C2063  1  0.300000  0.921080  0.521400  1.0
  C  C2064  1  0.300000  0.078920  0.478600  1.0
  C  C2065  1  0.521400  0.700000  0.078920  1.0
  C  C2066  1  0.478600  0.700000  0.921080  1.0
  C  C2067  1  0.521400  0.300000  0.921080  1.0
  C  C2068  1  0.478600  0.300000  0.078920  1.0
  C  C2069  1  0.596800  0.053880  0.188200  1.0
  C  C2070  1  0.403200  0.946120  0.188200  1.0
  C  C2071  1  0.403200  0.053880  0.811800  1.0
  C  C2072  1  0.596800  0.946120  0.811800  1.0
  C  C2073  1  0.188200  0.596800  0.053880  1.0
  C  C2074  1  0.188200  0.403200  0.946120  1.0
  C  C2075  1  0.811800  0.403200  0.053880  1.0
  C  C2076  1  0.811800  0.596800  0.946120  1.0
  C  C2077  1  0.053880  0.188200  0.596800  1.0
  C  C2078  1  0.946120  0.188200  0.403200  1.0
  C  C2079  1  0.053880  0.811800  0.403200  1.0
  C  C2080  1  0.946120  0.811800  0.596800  1.0
  C  C2081  1  0.096800  0.553880  0.688200  1.0
  C  C2082  1  0.903200  0.446120  0.688200  1.0
  C  C2083  1  0.903200  0.553880  0.311800  1.0
  C  C2084  1  0.096800  0.446120  0.311800  1.0
  C  C2085  1  0.688200  0.096800  0.553880  1.0
  C  C2086  1  0.688200  0.903200  0.446120  1.0
  C  C2087  1  0.311800  0.903200  0.553880  1.0
  C  C2088  1  0.311800  0.096800  0.446120  1.0
  C  C2089  1  0.553880  0.688200  0.096800  1.0
  C  C2090  1  0.446120  0.688200  0.903200  1.0
  C  C2091  1  0.553880  0.311800  0.903200  1.0
  C  C2092  1  0.446120  0.311800  0.096800  1.0
  C  C2093  1  0.635600  0.056500  0.190200  1.0
  C  C2094  1  0.364400  0.943500  0.190200  1.0
  C  C2095  1  0.364400  0.056500  0.809800  1.0
  C  C2096  1  0.635600  0.943500  0.809800  1.0
  C  C2097  1  0.190200  0.635600  0.056500  1.0
  C  C2098  1  0.190200  0.364400  0.943500  1.0
  C  C2099  1  0.809800  0.364400  0.056500  1.0
  C  C2100  1  0.809800  0.635600  0.943500  1.0
  C  C2101  1  0.056500  0.190200  0.635600  1.0
  C  C2102  1  0.943500  0.190200  0.364400  1.0
  C  C2103  1  0.056500  0.809800  0.364400  1.0
  C  C2104  1  0.943500  0.809800  0.635600  1.0
  C  C2105  1  0.135600  0.556500  0.690200  1.0
  C  C2106  1  0.864400  0.443500  0.690200  1.0
  C  C2107  1  0.864400  0.556500  0.309800  1.0
  C  C2108  1  0.135600  0.443500  0.309800  1.0
  C  C2109  1  0.690200  0.135600  0.556500  1.0
  C  C2110  1  0.690200  0.864400  0.443500  1.0
  C  C2111  1  0.309800  0.864400  0.556500  1.0
  C  C2112  1  0.309800  0.135600  0.443500  1.0
  C  C2113  1  0.556500  0.690200  0.135600  1.0
  C  C2114  1  0.443500  0.690200  0.864400  1.0
  C  C2115  1  0.556500  0.309800  0.864400  1.0
  C  C2116  1  0.443500  0.309800  0.135600  1.0
  C  C2117  1  0.656390  0.026700  0.203900  1.0
  C  C2118  1  0.343610  0.973300  0.203900  1.0
  C  C2119  1  0.343610  0.026700  0.796100  1.0
  C  C2120  1  0.656390  0.973300  0.796100  1.0
  C  C2121  1  0.203900  0.656390  0.026700  1.0
  C  C2122  1  0.203900  0.343610  0.973300  1.0
  C  C2123  1  0.796100  0.343610  0.026700  1.0
  C  C2124  1  0.796100  0.656390  0.973300  1.0
  C  C2125  1  0.026700  0.203900  0.656390  1.0
  C  C2126  1  0.973300  0.203900  0.343610  1.0
  C  C2127  1  0.026700  0.796100  0.343610  1.0
  C  C2128  1  0.973300  0.796100  0.656390  1.0
  C  C2129  1  0.156390  0.526700  0.703900  1.0
  C  C2130  1  0.843610  0.473300  0.703900  1.0
  C  C2131  1  0.843610  0.526700  0.296100  1.0
  C  C2132  1  0.156390  0.473300  0.296100  1.0
  C  C2133  1  0.703900  0.156390  0.526700  1.0
  C  C2134  1  0.703900  0.843610  0.473300  1.0
  C  C2135  1  0.296100  0.843610  0.526700  1.0
  C  C2136  1  0.296100  0.156390  0.473300  1.0
  C  C2137  1  0.526700  0.703900  0.156390  1.0
  C  C2138  1  0.473300  0.703900  0.843610  1.0
  C  C2139  1  0.526700  0.296100  0.843610  1.0
  C  C2140  1  0.473300  0.296100  0.156390  1.0
  C  C2141  1  0.582200  0.960660  0.226500  1.0
  C  C2142  1  0.417800  0.039340  0.226500  1.0
  C  C2143  1  0.417800  0.960660  0.773500  1.0
  C  C2144  1  0.582200  0.039340  0.773500  1.0
  C  C2145  1  0.226500  0.582200  0.960660  1.0
  C  C2146  1  0.226500  0.417800  0.039340  1.0
  C  C2147  1  0.773500  0.417800  0.960660  1.0
  C  C2148  1  0.773500  0.582200  0.039340  1.0
  C  C2149  1  0.960660  0.226500  0.582200  1.0
  C  C2150  1  0.039340  0.226500  0.417800  1.0
  C  C2151  1  0.960660  0.773500  0.417800  1.0
  C  C2152  1  0.039340  0.773500  0.582200  1.0
  C  C2153  1  0.082200  0.460660  0.726500  1.0
  C  C2154  1  0.917800  0.539340  0.726500  1.0
  C  C2155  1  0.917800  0.460660  0.273500  1.0
  C  C2156  1  0.082200  0.539340  0.273500  1.0
  C  C2157  1  0.726500  0.082200  0.460660  1.0
  C  C2158  1  0.726500  0.917800  0.539340  1.0
  C  C2159  1  0.273500  0.917800  0.460660  1.0
  C  C2160  1  0.273500  0.082200  0.539340  1.0
  C  C2161  1  0.460660  0.726500  0.082200  1.0
  C  C2162  1  0.539340  0.726500  0.917800  1.0
  C  C2163  1  0.460660  0.273500  0.917800  1.0
  C  C2164  1  0.539340  0.273500  0.082200  1.0
  C  C2165  1  0.544400  0.950800  0.233100  1.0
  C  C2166  1  0.455600  0.049200  0.233100  1.0
  C  C2167  1  0.455600  0.950800  0.766900  1.0
  C  C2168  1  0.544400  0.049200  0.766900  1.0
  C  C2169  1  0.233100  0.544400  0.950800  1.0
  C  C2170  1  0.233100  0.455600  0.049200  1.0
  C  C2171  1  0.766900  0.455600  0.950800  1.0
  C  C2172  1  0.766900  0.544400  0.049200  1.0
  C  C2173  1  0.950800  0.233100  0.544400  1.0
  C  C2174  1  0.049200  0.233100  0.455600  1.0
  C  C2175  1  0.950800  0.766900  0.455600  1.0
  C  C2176  1  0.049200  0.766900  0.544400  1.0
  C  C2177  1  0.044400  0.450800  0.733100  1.0
  C  C2178  1  0.955600  0.549200  0.733100  1.0
  C  C2179  1  0.955600  0.450800  0.266900  1.0
  C  C2180  1  0.044400  0.549200  0.266900  1.0
  C  C2181  1  0.733100  0.044400  0.450800  1.0
  C  C2182  1  0.733100  0.955600  0.549200  1.0
  C  C2183  1  0.266900  0.955600  0.450800  1.0
  C  C2184  1  0.266900  0.044400  0.549200  1.0
  C  C2185  1  0.450800  0.733100  0.044400  1.0
  C  C2186  1  0.549200  0.733100  0.955600  1.0
  C  C2187  1  0.450800  0.266900  0.955600  1.0
  C  C2188  1  0.549200  0.266900  0.044400  1.0
  C  C2189  1  0.543710  0.914100  0.248300  1.0
  C  C2190  1  0.456290  0.085900  0.248300  1.0
  C  C2191  1  0.456290  0.914100  0.751700  1.0
  C  C2192  1  0.543710  0.085900  0.751700  1.0
  C  C2193  1  0.248300  0.543710  0.914100  1.0
  C  C2194  1  0.248300  0.456290  0.085900  1.0
  C  C2195  1  0.751700  0.456290  0.914100  1.0
  C  C2196  1  0.751700  0.543710  0.085900  1.0
  C  C2197  1  0.914100  0.248300  0.543710  1.0
  C  C2198  1  0.085900  0.248300  0.456290  1.0
  C  C2199  1  0.914100  0.751700  0.456290  1.0
  C  C2200  1  0.085900  0.751700  0.543710  1.0
  C  C2201  1  0.043710  0.414100  0.748300  1.0
  C  C2202  1  0.956290  0.585900  0.748300  1.0
  C  C2203  1  0.956290  0.414100  0.251700  1.0
  C  C2204  1  0.043710  0.585900  0.251700  1.0
  C  C2205  1  0.748300  0.043710  0.414100  1.0
  C  C2206  1  0.748300  0.956290  0.585900  1.0
  C  C2207  1  0.251700  0.956290  0.414100  1.0
  C  C2208  1  0.251700  0.043710  0.585900  1.0
  C  C2209  1  0.414100  0.748300  0.043710  1.0
  C  C2210  1  0.585900  0.748300  0.956290  1.0
  C  C2211  1  0.414100  0.251700  0.956290  1.0
  C  C2212  1  0.585900  0.251700  0.043710  1.0
  C  C2213  1  0.595100  0.868200  0.265800  1.0
  C  C2214  1  0.404900  0.131800  0.265800  1.0
  C  C2215  1  0.404900  0.868200  0.734200  1.0
  C  C2216  1  0.595100  0.131800  0.734200  1.0
  C  C2217  1  0.265800  0.595100  0.868200  1.0
  C  C2218  1  0.265800  0.404900  0.131800  1.0
  C  C2219  1  0.734200  0.404900  0.868200  1.0
  C  C2220  1  0.734200  0.595100  0.131800  1.0
  C  C2221  1  0.868200  0.265800  0.595100  1.0
  C  C2222  1  0.131800  0.265800  0.404900  1.0
  C  C2223  1  0.868200  0.734200  0.404900  1.0
  C  C2224  1  0.131800  0.734200  0.595100  1.0
  C  C2225  1  0.095100  0.368200  0.765800  1.0
  C  C2226  1  0.904900  0.631800  0.765800  1.0
  C  C2227  1  0.904900  0.368200  0.234200  1.0
  C  C2228  1  0.095100  0.631800  0.234200  1.0
  C  C2229  1  0.765800  0.095100  0.368200  1.0
  C  C2230  1  0.765800  0.904900  0.631800  1.0
  C  C2231  1  0.234200  0.904900  0.368200  1.0
  C  C2232  1  0.234200  0.095100  0.631800  1.0
  C  C2233  1  0.368200  0.765800  0.095100  1.0
  C  C2234  1  0.631800  0.765800  0.904900  1.0
  C  C2235  1  0.368200  0.234200  0.904900  1.0
  C  C2236  1  0.631800  0.234200  0.095100  1.0
  C  C2237  1  0.631200  0.806980  0.386900  1.0
  C  C2238  1  0.368800  0.193020  0.386900  1.0
  C  C2239  1  0.368800  0.806980  0.613100  1.0
  C  C2240  1  0.631200  0.193020  0.613100  1.0
  C  C2241  1  0.386900  0.631200  0.806980  1.0
  C  C2242  1  0.386900  0.368800  0.193020  1.0
  C  C2243  1  0.613100  0.368800  0.806980  1.0
  C  C2244  1  0.613100  0.631200  0.193020  1.0
  C  C2245  1  0.806980  0.386900  0.631200  1.0
  C  C2246  1  0.193020  0.386900  0.368800  1.0
  C  C2247  1  0.806980  0.613100  0.368800  1.0
  C  C2248  1  0.193020  0.613100  0.631200  1.0
  C  C2249  1  0.131200  0.306980  0.886900  1.0
  C  C2250  1  0.868800  0.693020  0.886900  1.0
  C  C2251  1  0.868800  0.306980  0.113100  1.0
  C  C2252  1  0.131200  0.693020  0.113100  1.0
  C  C2253  1  0.886900  0.131200  0.306980  1.0
  C  C2254  1  0.886900  0.868800  0.693020  1.0
  C  C2255  1  0.113100  0.868800  0.306980  1.0
  C  C2256  1  0.113100  0.131200  0.693020  1.0
  C  C2257  1  0.306980  0.886900  0.131200  1.0
  C  C2258  1  0.693020  0.886900  0.868800  1.0
  C  C2259  1  0.306980  0.113100  0.868800  1.0
  C  C2260  1  0.693020  0.113100  0.131200  1.0
  C  C2261  1  0.657400  0.783500  0.370350  1.0
  C  C2262  1  0.342600  0.216500  0.370350  1.0
  C  C2263  1  0.342600  0.783500  0.629650  1.0
  C  C2264  1  0.657400  0.216500  0.629650  1.0
  C  C2265  1  0.370350  0.657400  0.783500  1.0
  C  C2266  1  0.370350  0.342600  0.216500  1.0
  C  C2267  1  0.629650  0.342600  0.783500  1.0
  C  C2268  1  0.629650  0.657400  0.216500  1.0
  C  C2269  1  0.783500  0.370350  0.657400  1.0
  C  C2270  1  0.216500  0.370350  0.342600  1.0
  C  C2271  1  0.783500  0.629650  0.342600  1.0
  C  C2272  1  0.216500  0.629650  0.657400  1.0
  C  C2273  1  0.157400  0.283500  0.870350  1.0
  C  C2274  1  0.842600  0.716500  0.870350  1.0
  C  C2275  1  0.842600  0.283500  0.129650  1.0
  C  C2276  1  0.157400  0.716500  0.129650  1.0
  C  C2277  1  0.870350  0.157400  0.283500  1.0
  C  C2278  1  0.870350  0.842600  0.716500  1.0
  C  C2279  1  0.129650  0.842600  0.283500  1.0
  C  C2280  1  0.129650  0.157400  0.716500  1.0
  C  C2281  1  0.283500  0.870350  0.157400  1.0
  C  C2282  1  0.716500  0.870350  0.842600  1.0
  C  C2283  1  0.283500  0.129650  0.842600  1.0
  C  C2284  1  0.716500  0.129650  0.157400  1.0
  C  C2285  1  0.669900  0.751900  0.389300  1.0
  C  C2286  1  0.330100  0.248100  0.389300  1.0
  C  C2287  1  0.330100  0.751900  0.610700  1.0
  C  C2288  1  0.669900  0.248100  0.610700  1.0
  C  C2289  1  0.389300  0.669900  0.751900  1.0
  C  C2290  1  0.389300  0.330100  0.248100  1.0
  C  C2291  1  0.610700  0.330100  0.751900  1.0
  C  C2292  1  0.610700  0.669900  0.248100  1.0
  C  C2293  1  0.751900  0.389300  0.669900  1.0
  C  C2294  1  0.248100  0.389300  0.330100  1.0
  C  C2295  1  0.751900  0.610700  0.330100  1.0
  C  C2296  1  0.248100  0.610700  0.669900  1.0
  C  C2297  1  0.169900  0.251900  0.889300  1.0
  C  C2298  1  0.830100  0.748100  0.889300  1.0
  C  C2299  1  0.830100  0.251900  0.110700  1.0
  C  C2300  1  0.169900  0.748100  0.110700  1.0
  C  C2301  1  0.889300  0.169900  0.251900  1.0
  C  C2302  1  0.889300  0.830100  0.748100  1.0
  C  C2303  1  0.110700  0.830100  0.251900  1.0
  C  C2304  1  0.110700  0.169900  0.748100  1.0
  C  C2305  1  0.251900  0.889300  0.169900  1.0
  C  C2306  1  0.748100  0.889300  0.830100  1.0
  C  C2307  1  0.251900  0.110700  0.830100  1.0
  C  C2308  1  0.748100  0.110700  0.169900  1.0
  C  C2309  1  0.656200  0.743880  0.424800  1.0
  C  C2310  1  0.343800  0.256120  0.424800  1.0
  C  C2311  1  0.343800  0.743880  0.575200  1.0
  C  C2312  1  0.656200  0.256120  0.575200  1.0
  C  C2313  1  0.424800  0.656200  0.743880  1.0
  C  C2314  1  0.424800  0.343800  0.256120  1.0
  C  C2315  1  0.575200  0.343800  0.743880  1.0
  C  C2316  1  0.575200  0.656200  0.256120  1.0
  C  C2317  1  0.743880  0.424800  0.656200  1.0
  C  C2318  1  0.256120  0.424800  0.343800  1.0
  C  C2319  1  0.743880  0.575200  0.343800  1.0
  C  C2320  1  0.256120  0.575200  0.656200  1.0
  C  C2321  1  0.156200  0.243880  0.924800  1.0
  C  C2322  1  0.843800  0.756120  0.924800  1.0
  C  C2323  1  0.843800  0.243880  0.075200  1.0
  C  C2324  1  0.156200  0.756120  0.075200  1.0
  C  C2325  1  0.924800  0.156200  0.243880  1.0
  C  C2326  1  0.924800  0.843800  0.756120  1.0
  C  C2327  1  0.075200  0.843800  0.243880  1.0
  C  C2328  1  0.075200  0.156200  0.756120  1.0
  C  C2329  1  0.243880  0.924800  0.156200  1.0
  C  C2330  1  0.756120  0.924800  0.843800  1.0
  C  C2331  1  0.243880  0.075200  0.843800  1.0
  C  C2332  1  0.756120  0.075200  0.156200  1.0
  C  C2333  1  0.630000  0.767400  0.441300  1.0
  C  C2334  1  0.370000  0.232600  0.441300  1.0
  C  C2335  1  0.370000  0.767400  0.558700  1.0
  C  C2336  1  0.630000  0.232600  0.558700  1.0
  C  C2337  1  0.441300  0.630000  0.767400  1.0
  C  C2338  1  0.441300  0.370000  0.232600  1.0
  C  C2339  1  0.558700  0.370000  0.767400  1.0
  C  C2340  1  0.558700  0.630000  0.232600  1.0
  C  C2341  1  0.767400  0.441300  0.630000  1.0
  C  C2342  1  0.232600  0.441300  0.370000  1.0
  C  C2343  1  0.767400  0.558700  0.370000  1.0
  C  C2344  1  0.232600  0.558700  0.630000  1.0
  C  C2345  1  0.130000  0.267400  0.941300  1.0
  C  C2346  1  0.870000  0.732600  0.941300  1.0
  C  C2347  1  0.870000  0.267400  0.058700  1.0
  C  C2348  1  0.130000  0.732600  0.058700  1.0
  C  C2349  1  0.941300  0.130000  0.267400  1.0
  C  C2350  1  0.941300  0.870000  0.732600  1.0
  C  C2351  1  0.058700  0.870000  0.267400  1.0
  C  C2352  1  0.058700  0.130000  0.732600  1.0
  C  C2353  1  0.267400  0.941300  0.130000  1.0
  C  C2354  1  0.732600  0.941300  0.870000  1.0
  C  C2355  1  0.267400  0.058700  0.870000  1.0
  C  C2356  1  0.732600  0.058700  0.130000  1.0
  C  C2357  1  0.617500  0.798900  0.422300  1.0
  C  C2358  1  0.382500  0.201100  0.422300  1.0
  C  C2359  1  0.382500  0.798900  0.577700  1.0
  C  C2360  1  0.617500  0.201100  0.577700  1.0
  C  C2361  1  0.422300  0.617500  0.798900  1.0
  C  C2362  1  0.422300  0.382500  0.201100  1.0
  C  C2363  1  0.577700  0.382500  0.798900  1.0
  C  C2364  1  0.577700  0.617500  0.201100  1.0
  C  C2365  1  0.798900  0.422300  0.617500  1.0
  C  C2366  1  0.201100  0.422300  0.382500  1.0
  C  C2367  1  0.798900  0.577700  0.382500  1.0
  C  C2368  1  0.201100  0.577700  0.617500  1.0
  C  C2369  1  0.117500  0.298900  0.922300  1.0
  C  C2370  1  0.882500  0.701100  0.922300  1.0
  C  C2371  1  0.882500  0.298900  0.077700  1.0
  C  C2372  1  0.117500  0.701100  0.077700  1.0
  C  C2373  1  0.922300  0.117500  0.298900  1.0
  C  C2374  1  0.922300  0.882500  0.701100  1.0
  C  C2375  1  0.077700  0.882500  0.298900  1.0
  C  C2376  1  0.077700  0.117500  0.701100  1.0
  C  C2377  1  0.298900  0.922300  0.117500  1.0
  C  C2378  1  0.701100  0.922300  0.882500  1.0
  C  C2379  1  0.298900  0.077700  0.882500  1.0
  C  C2380  1  0.701100  0.077700  0.117500  1.0
  C  C2381  1  0.618100  0.840710  0.365800  1.0
  C  C2382  1  0.381900  0.159290  0.365800  1.0
  C  C2383  1  0.381900  0.840710  0.634200  1.0
  C  C2384  1  0.618100  0.159290  0.634200  1.0
  C  C2385  1  0.365800  0.618100  0.840710  1.0
  C  C2386  1  0.365800  0.381900  0.159290  1.0
  C  C2387  1  0.634200  0.381900  0.840710  1.0
  C  C2388  1  0.634200  0.618100  0.159290  1.0
  C  C2389  1  0.840710  0.365800  0.618100  1.0
  C  C2390  1  0.159290  0.365800  0.381900  1.0
  C  C2391  1  0.840710  0.634200  0.381900  1.0
  C  C2392  1  0.159290  0.634200  0.618100  1.0
  C  C2393  1  0.118100  0.340710  0.865800  1.0
  C  C2394  1  0.881900  0.659290  0.865800  1.0
  C  C2395  1  0.881900  0.340710  0.134200  1.0
  C  C2396  1  0.118100  0.659290  0.134200  1.0
  C  C2397  1  0.865800  0.118100  0.340710  1.0
  C  C2398  1  0.865800  0.881900  0.659290  1.0
  C  C2399  1  0.134200  0.881900  0.340710  1.0
  C  C2400  1  0.134200  0.118100  0.659290  1.0
  C  C2401  1  0.340710  0.865800  0.118100  1.0
  C  C2402  1  0.659290  0.865800  0.881900  1.0
  C  C2403  1  0.340710  0.134200  0.881900  1.0
  C  C2404  1  0.659290  0.134200  0.118100  1.0
  C  C2405  1  0.612900  0.839400  0.327300  1.0
  C  C2406  1  0.387100  0.160600  0.327300  1.0
  C  C2407  1  0.387100  0.839400  0.672700  1.0
  C  C2408  1  0.612900  0.160600  0.672700  1.0
  C  C2409  1  0.327300  0.612900  0.839400  1.0
  C  C2410  1  0.327300  0.387100  0.160600  1.0
  C  C2411  1  0.672700  0.387100  0.839400  1.0
  C  C2412  1  0.672700  0.612900  0.160600  1.0
  C  C2413  1  0.839400  0.327300  0.612900  1.0
  C  C2414  1  0.160600  0.327300  0.387100  1.0
  C  C2415  1  0.839400  0.672700  0.387100  1.0
  C  C2416  1  0.160600  0.672700  0.612900  1.0
  C  C2417  1  0.112900  0.339400  0.827300  1.0
  C  C2418  1  0.887100  0.660600  0.827300  1.0
  C  C2419  1  0.887100  0.339400  0.172700  1.0
  C  C2420  1  0.112900  0.660600  0.172700  1.0
  C  C2421  1  0.827300  0.112900  0.339400  1.0
  C  C2422  1  0.827300  0.887100  0.660600  1.0
  C  C2423  1  0.172700  0.887100  0.339400  1.0
  C  C2424  1  0.172700  0.112900  0.660600  1.0
  C  C2425  1  0.339400  0.827300  0.112900  1.0
  C  C2426  1  0.660600  0.827300  0.887100  1.0
  C  C2427  1  0.339400  0.172700  0.887100  1.0
  C  C2428  1  0.660600  0.172700  0.112900  1.0
  C  C2429  1  0.600400  0.870900  0.308270  1.0
  C  C2430  1  0.399600  0.129100  0.308270  1.0
  C  C2431  1  0.399600  0.870900  0.691730  1.0
  C  C2432  1  0.600400  0.129100  0.691730  1.0
  C  C2433  1  0.308270  0.600400  0.870900  1.0
  C  C2434  1  0.308270  0.399600  0.129100  1.0
  C  C2435  1  0.691730  0.399600  0.870900  1.0
  C  C2436  1  0.691730  0.600400  0.129100  1.0
  C  C2437  1  0.870900  0.308270  0.600400  1.0
  C  C2438  1  0.129100  0.308270  0.399600  1.0
  C  C2439  1  0.870900  0.691730  0.399600  1.0
  C  C2440  1  0.129100  0.691730  0.600400  1.0
  C  C2441  1  0.100400  0.370900  0.808270  1.0
  C  C2442  1  0.899600  0.629100  0.808270  1.0
  C  C2443  1  0.899600  0.370900  0.191730  1.0
  C  C2444  1  0.100400  0.629100  0.191730  1.0
  C  C2445  1  0.808270  0.100400  0.370900  1.0
  C  C2446  1  0.808270  0.899600  0.629100  1.0
  C  C2447  1  0.191730  0.899600  0.370900  1.0
  C  C2448  1  0.191730  0.100400  0.629100  1.0
  C  C2449  1  0.370900  0.808270  0.100400  1.0
  C  C2450  1  0.629100  0.808270  0.899600  1.0
  C  C2451  1  0.370900  0.191730  0.899600  1.0
  C  C2452  1  0.629100  0.191730  0.100400  1.0
  C  C2453  1  0.593100  0.903770  0.327800  1.0
  C  C2454  1  0.406900  0.096230  0.327800  1.0
  C  C2455  1  0.406900  0.903770  0.672200  1.0
  C  C2456  1  0.593100  0.096230  0.672200  1.0
  C  C2457  1  0.327800  0.593100  0.903770  1.0
  C  C2458  1  0.327800  0.406900  0.096230  1.0
  C  C2459  1  0.672200  0.406900  0.903770  1.0
  C  C2460  1  0.672200  0.593100  0.096230  1.0
  C  C2461  1  0.903770  0.327800  0.593100  1.0
  C  C2462  1  0.096230  0.327800  0.406900  1.0
  C  C2463  1  0.903770  0.672200  0.406900  1.0
  C  C2464  1  0.096230  0.672200  0.593100  1.0
  C  C2465  1  0.093100  0.403770  0.827800  1.0
  C  C2466  1  0.906900  0.596230  0.827800  1.0
  C  C2467  1  0.906900  0.403770  0.172200  1.0
  C  C2468  1  0.093100  0.596230  0.172200  1.0
  C  C2469  1  0.827800  0.093100  0.403770  1.0
  C  C2470  1  0.827800  0.906900  0.596230  1.0
  C  C2471  1  0.172200  0.906900  0.403770  1.0
  C  C2472  1  0.172200  0.093100  0.596230  1.0
  C  C2473  1  0.403770  0.827800  0.093100  1.0
  C  C2474  1  0.596230  0.827800  0.906900  1.0
  C  C2475  1  0.403770  0.172200  0.906900  1.0
  C  C2476  1  0.596230  0.172200  0.093100  1.0
  C  C2477  1  0.598400  0.905080  0.366300  1.0
  C  C2478  1  0.401600  0.094920  0.366300  1.0
  C  C2479  1  0.401600  0.905080  0.633700  1.0
  C  C2480  1  0.598400  0.094920  0.633700  1.0
  C  C2481  1  0.366300  0.598400  0.905080  1.0
  C  C2482  1  0.366300  0.401600  0.094920  1.0
  C  C2483  1  0.633700  0.401600  0.905080  1.0
  C  C2484  1  0.633700  0.598400  0.094920  1.0
  C  C2485  1  0.905080  0.366300  0.598400  1.0
  C  C2486  1  0.094920  0.366300  0.401600  1.0
  C  C2487  1  0.905080  0.633700  0.401600  1.0
  C  C2488  1  0.094920  0.633700  0.598400  1.0
  C  C2489  1  0.098400  0.405080  0.866300  1.0
  C  C2490  1  0.901600  0.594920  0.866300  1.0
  C  C2491  1  0.901600  0.405080  0.133700  1.0
  C  C2492  1  0.098400  0.594920  0.133700  1.0
  C  C2493  1  0.866300  0.098400  0.405080  1.0
  C  C2494  1  0.866300  0.901600  0.594920  1.0
  C  C2495  1  0.133700  0.901600  0.405080  1.0
  C  C2496  1  0.133700  0.098400  0.594920  1.0
  C  C2497  1  0.405080  0.866300  0.098400  1.0
  C  C2498  1  0.594920  0.866300  0.901600  1.0
  C  C2499  1  0.405080  0.133700  0.901600  1.0
  C  C2500  1  0.594920  0.133700  0.098400  1.0
  C  C2501  1  0.610900  0.873600  0.385250  1.0
  C  C2502  1  0.389100  0.126400  0.385250  1.0
  C  C2503  1  0.389100  0.873600  0.614750  1.0
  C  C2504  1  0.610900  0.126400  0.614750  1.0
  C  C2505  1  0.385250  0.610900  0.873600  1.0
  C  C2506  1  0.385250  0.389100  0.126400  1.0
  C  C2507  1  0.614750  0.389100  0.873600  1.0
  C  C2508  1  0.614750  0.610900  0.126400  1.0
  C  C2509  1  0.873600  0.385250  0.610900  1.0
  C  C2510  1  0.126400  0.385250  0.389100  1.0
  C  C2511  1  0.873600  0.614750  0.389100  1.0
  C  C2512  1  0.126400  0.614750  0.610900  1.0
  C  C2513  1  0.110900  0.373600  0.885250  1.0
  C  C2514  1  0.889100  0.626400  0.885250  1.0
  C  C2515  1  0.889100  0.373600  0.114750  1.0
  C  C2516  1  0.110900  0.626400  0.114750  1.0
  C  C2517  1  0.885250  0.110900  0.373600  1.0
  C  C2518  1  0.885250  0.889100  0.626400  1.0
  C  C2519  1  0.114750  0.889100  0.373600  1.0
  C  C2520  1  0.114750  0.110900  0.626400  1.0
  C  C2521  1  0.373600  0.885250  0.110900  1.0
  C  C2522  1  0.626400  0.885250  0.889100  1.0
  C  C2523  1  0.373600  0.114750  0.889100  1.0
  C  C2524  1  0.626400  0.114750  0.110900  1.0
  C  C2525  1  0.685130  0.921790  0.142300  1.0
  C  C2526  1  0.314870  0.078210  0.142300  1.0
  C  C2527  1  0.314870  0.921790  0.857700  1.0
  C  C2528  1  0.685130  0.078210  0.857700  1.0
  C  C2529  1  0.142300  0.685130  0.921790  1.0
  C  C2530  1  0.142300  0.314870  0.078210  1.0
  C  C2531  1  0.857700  0.314870  0.921790  1.0
  C  C2532  1  0.857700  0.685130  0.078210  1.0
  C  C2533  1  0.921790  0.142300  0.685130  1.0
  C  C2534  1  0.078210  0.142300  0.314870  1.0
  C  C2535  1  0.921790  0.857700  0.314870  1.0
  C  C2536  1  0.078210  0.857700  0.685130  1.0
  C  C2537  1  0.185130  0.421790  0.642300  1.0
  C  C2538  1  0.814870  0.578210  0.642300  1.0
  C  C2539  1  0.814870  0.421790  0.357700  1.0
  C  C2540  1  0.185130  0.578210  0.357700  1.0
  C  C2541  1  0.642300  0.185130  0.421790  1.0
  C  C2542  1  0.642300  0.814870  0.578210  1.0
  C  C2543  1  0.357700  0.814870  0.421790  1.0
  C  C2544  1  0.357700  0.185130  0.578210  1.0
  C  C2545  1  0.421790  0.642300  0.185130  1.0
  C  C2546  1  0.578210  0.642300  0.814870  1.0
  C  C2547  1  0.421790  0.357700  0.814870  1.0
  C  C2548  1  0.578210  0.357700  0.185130  1.0
  C  C2549  1  0.679200  0.911100  0.105420  1.0
  C  C2550  1  0.320800  0.088900  0.105420  1.0
  C  C2551  1  0.320800  0.911100  0.894580  1.0
  C  C2552  1  0.679200  0.088900  0.894580  1.0
  C  C2553  1  0.105420  0.679200  0.911100  1.0
  C  C2554  1  0.105420  0.320800  0.088900  1.0
  C  C2555  1  0.894580  0.320800  0.911100  1.0
  C  C2556  1  0.894580  0.679200  0.088900  1.0
  C  C2557  1  0.911100  0.105420  0.679200  1.0
  C  C2558  1  0.088900  0.105420  0.320800  1.0
  C  C2559  1  0.911100  0.894580  0.320800  1.0
  C  C2560  1  0.088900  0.894580  0.679200  1.0
  C  C2561  1  0.179200  0.411100  0.605420  1.0
  C  C2562  1  0.820800  0.588900  0.605420  1.0
  C  C2563  1  0.820800  0.411100  0.394580  1.0
  C  C2564  1  0.179200  0.588900  0.394580  1.0
  C  C2565  1  0.605420  0.179200  0.411100  1.0
  C  C2566  1  0.605420  0.820800  0.588900  1.0
  C  C2567  1  0.394580  0.820800  0.411100  1.0
  C  C2568  1  0.394580  0.179200  0.588900  1.0
  C  C2569  1  0.411100  0.605420  0.179200  1.0
  C  C2570  1  0.588900  0.605420  0.820800  1.0
  C  C2571  1  0.411100  0.394580  0.820800  1.0
  C  C2572  1  0.588900  0.394580  0.179200  1.0
  C  C2573  1  0.647500  0.890590  0.095990  1.0
  C  C2574  1  0.352500  0.109410  0.095990  1.0
  C  C2575  1  0.352500  0.890590  0.904010  1.0
  C  C2576  1  0.647500  0.109410  0.904010  1.0
  C  C2577  1  0.095990  0.647500  0.890590  1.0
  C  C2578  1  0.095990  0.352500  0.109410  1.0
  C  C2579  1  0.904010  0.352500  0.890590  1.0
  C  C2580  1  0.904010  0.647500  0.109410  1.0
  C  C2581  1  0.890590  0.095990  0.647500  1.0
  C  C2582  1  0.109410  0.095990  0.352500  1.0
  C  C2583  1  0.890590  0.904010  0.352500  1.0
  C  C2584  1  0.109410  0.904010  0.647500  1.0
  C  C2585  1  0.147500  0.390590  0.595990  1.0
  C  C2586  1  0.852500  0.609410  0.595990  1.0
  C  C2587  1  0.852500  0.390590  0.404010  1.0
  C  C2588  1  0.147500  0.609410  0.404010  1.0
  C  C2589  1  0.595990  0.147500  0.390590  1.0
  C  C2590  1  0.595990  0.852500  0.609410  1.0
  C  C2591  1  0.404010  0.852500  0.390590  1.0
  C  C2592  1  0.404010  0.147500  0.609410  1.0
  C  C2593  1  0.390590  0.595990  0.147500  1.0
  C  C2594  1  0.609410  0.595990  0.852500  1.0
  C  C2595  1  0.390590  0.404010  0.852500  1.0
  C  C2596  1  0.609410  0.404010  0.147500  1.0
  C  C2597  1  0.621780  0.880850  0.123500  1.0
  C  C2598  1  0.378220  0.119150  0.123500  1.0
  C  C2599  1  0.378220  0.880850  0.876500  1.0
  C  C2600  1  0.621780  0.119150  0.876500  1.0
  C  C2601  1  0.123500  0.621780  0.880850  1.0
  C  C2602  1  0.123500  0.378220  0.119150  1.0
  C  C2603  1  0.876500  0.378220  0.880850  1.0
  C  C2604  1  0.876500  0.621780  0.119150  1.0
  C  C2605  1  0.880850  0.123500  0.621780  1.0
  C  C2606  1  0.119150  0.123500  0.378220  1.0
  C  C2607  1  0.880850  0.876500  0.378220  1.0
  C  C2608  1  0.119150  0.876500  0.621780  1.0
  C  C2609  1  0.121780  0.380850  0.623500  1.0
  C  C2610  1  0.878220  0.619150  0.623500  1.0
  C  C2611  1  0.878220  0.380850  0.376500  1.0
  C  C2612  1  0.121780  0.619150  0.376500  1.0
  C  C2613  1  0.623500  0.121780  0.380850  1.0
  C  C2614  1  0.623500  0.878220  0.619150  1.0
  C  C2615  1  0.376500  0.878220  0.380850  1.0
  C  C2616  1  0.376500  0.121780  0.619150  1.0
  C  C2617  1  0.380850  0.623500  0.121780  1.0
  C  C2618  1  0.619150  0.623500  0.878220  1.0
  C  C2619  1  0.380850  0.376500  0.878220  1.0
  C  C2620  1  0.619150  0.376500  0.121780  1.0
  C  C2621  1  0.627720  0.891580  0.160340  1.0
  C  C2622  1  0.372280  0.108420  0.160340  1.0
  C  C2623  1  0.372280  0.891580  0.839660  1.0
  C  C2624  1  0.627720  0.108420  0.839660  1.0
  C  C2625  1  0.160340  0.627720  0.891580  1.0
  C  C2626  1  0.160340  0.372280  0.108420  1.0
  C  C2627  1  0.839660  0.372280  0.891580  1.0
  C  C2628  1  0.839660  0.627720  0.108420  1.0
  C  C2629  1  0.891580  0.160340  0.627720  1.0
  C  C2630  1  0.108420  0.160340  0.372280  1.0
  C  C2631  1  0.891580  0.839660  0.372280  1.0
  C  C2632  1  0.108420  0.839660  0.627720  1.0
  C  C2633  1  0.127720  0.391580  0.660340  1.0
  C  C2634  1  0.872280  0.608420  0.660340  1.0
  C  C2635  1  0.872280  0.391580  0.339660  1.0
  C  C2636  1  0.127720  0.608420  0.339660  1.0
  C  C2637  1  0.660340  0.127720  0.391580  1.0
  C  C2638  1  0.660340  0.872280  0.608420  1.0
  C  C2639  1  0.339660  0.872280  0.391580  1.0
  C  C2640  1  0.339660  0.127720  0.608420  1.0
  C  C2641  1  0.391580  0.660340  0.127720  1.0
  C  C2642  1  0.608420  0.660340  0.872280  1.0
  C  C2643  1  0.391580  0.339660  0.872280  1.0
  C  C2644  1  0.608420  0.339660  0.127720  1.0
  C  C2645  1  0.714820  0.942100  0.153400  1.0
  C  C2646  1  0.285180  0.057900  0.153400  1.0
  C  C2647  1  0.285180  0.942100  0.846600  1.0
  C  C2648  1  0.714820  0.057900  0.846600  1.0
  C  C2649  1  0.153400  0.714820  0.942100  1.0
  C  C2650  1  0.153400  0.285180  0.057900  1.0
  C  C2651  1  0.846600  0.285180  0.942100  1.0
  C  C2652  1  0.846600  0.714820  0.057900  1.0
  C  C2653  1  0.942100  0.153400  0.714820  1.0
  C  C2654  1  0.057900  0.153400  0.285180  1.0
  C  C2655  1  0.942100  0.846600  0.285180  1.0
  C  C2656  1  0.057900  0.846600  0.714820  1.0
  C  C2657  1  0.214820  0.442100  0.653400  1.0
  C  C2658  1  0.785180  0.557900  0.653400  1.0
  C  C2659  1  0.785180  0.442100  0.346600  1.0
  C  C2660  1  0.214820  0.557900  0.346600  1.0
  C  C2661  1  0.653400  0.214820  0.442100  1.0
  C  C2662  1  0.653400  0.785180  0.557900  1.0
  C  C2663  1  0.346600  0.785180  0.442100  1.0
  C  C2664  1  0.346600  0.214820  0.557900  1.0
  C  C2665  1  0.442100  0.653400  0.214820  1.0
  C  C2666  1  0.557900  0.653400  0.785180  1.0
  C  C2667  1  0.442100  0.346600  0.785180  1.0
  C  C2668  1  0.557900  0.346600  0.214820  1.0
  C  C2669  1  0.747000  0.951900  0.132350  1.0
  C  C2670  1  0.253000  0.048100  0.132350  1.0
  C  C2671  1  0.253000  0.951900  0.867650  1.0
  C  C2672  1  0.747000  0.048100  0.867650  1.0
  C  C2673  1  0.132350  0.747000  0.951900  1.0
  C  C2674  1  0.132350  0.253000  0.048100  1.0
  C  C2675  1  0.867650  0.253000  0.951900  1.0
  C  C2676  1  0.867650  0.747000  0.048100  1.0
  C  C2677  1  0.951900  0.132350  0.747000  1.0
  C  C2678  1  0.048100  0.132350  0.253000  1.0
  C  C2679  1  0.951900  0.867650  0.253000  1.0
  C  C2680  1  0.048100  0.867650  0.747000  1.0
  C  C2681  1  0.247000  0.451900  0.632350  1.0
  C  C2682  1  0.753000  0.548100  0.632350  1.0
  C  C2683  1  0.753000  0.451900  0.367650  1.0
  C  C2684  1  0.247000  0.548100  0.367650  1.0
  C  C2685  1  0.632350  0.247000  0.451900  1.0
  C  C2686  1  0.632350  0.753000  0.548100  1.0
  C  C2687  1  0.367650  0.753000  0.451900  1.0
  C  C2688  1  0.367650  0.247000  0.548100  1.0
  C  C2689  1  0.451900  0.632350  0.247000  1.0
  C  C2690  1  0.548100  0.632350  0.753000  1.0
  C  C2691  1  0.451900  0.367650  0.753000  1.0
  C  C2692  1  0.548100  0.367650  0.247000  1.0
  C  C2693  1  0.771180  0.972900  0.155900  1.0
  C  C2694  1  0.228820  0.027100  0.155900  1.0
  C  C2695  1  0.228820  0.972900  0.844100  1.0
  C  C2696  1  0.771180  0.027100  0.844100  1.0
  C  C2697  1  0.155900  0.771180  0.972900  1.0
  C  C2698  1  0.155900  0.228820  0.027100  1.0
  C  C2699  1  0.844100  0.228820  0.972900  1.0
  C  C2700  1  0.844100  0.771180  0.027100  1.0
  C  C2701  1  0.972900  0.155900  0.771180  1.0
  C  C2702  1  0.027100  0.155900  0.228820  1.0
  C  C2703  1  0.972900  0.844100  0.228820  1.0
  C  C2704  1  0.027100  0.844100  0.771180  1.0
  C  C2705  1  0.271180  0.472900  0.655900  1.0
  C  C2706  1  0.728820  0.527100  0.655900  1.0
  C  C2707  1  0.728820  0.472900  0.344100  1.0
  C  C2708  1  0.271180  0.527100  0.344100  1.0
  C  C2709  1  0.655900  0.271180  0.472900  1.0
  C  C2710  1  0.655900  0.728820  0.527100  1.0
  C  C2711  1  0.344100  0.728820  0.472900  1.0
  C  C2712  1  0.344100  0.271180  0.527100  1.0
  C  C2713  1  0.472900  0.655900  0.271180  1.0
  C  C2714  1  0.527100  0.655900  0.728820  1.0
  C  C2715  1  0.472900  0.344100  0.728820  1.0
  C  C2716  1  0.527100  0.344100  0.271180  1.0
  C  C2717  1  0.766300  0.996510  0.222120  1.0
  C  C2718  1  0.233700  0.003490  0.222120  1.0
  C  C2719  1  0.233700  0.996510  0.777880  1.0
  C  C2720  1  0.766300  0.003490  0.777880  1.0
  C  C2721  1  0.222120  0.766300  0.996510  1.0
  C  C2722  1  0.222120  0.233700  0.003490  1.0
  C  C2723  1  0.777880  0.233700  0.996510  1.0
  C  C2724  1  0.777880  0.766300  0.003490  1.0
  C  C2725  1  0.996510  0.222120  0.766300  1.0
  C  C2726  1  0.003490  0.222120  0.233700  1.0
  C  C2727  1  0.996510  0.777880  0.233700  1.0
  C  C2728  1  0.003490  0.777880  0.766300  1.0
  C  C2729  1  0.266300  0.496510  0.722120  1.0
  C  C2730  1  0.733700  0.503490  0.722120  1.0
  C  C2731  1  0.733700  0.496510  0.277880  1.0
  C  C2732  1  0.266300  0.503490  0.277880  1.0
  C  C2733  1  0.722120  0.266300  0.496510  1.0
  C  C2734  1  0.722120  0.733700  0.503490  1.0
  C  C2735  1  0.277880  0.733700  0.496510  1.0
  C  C2736  1  0.277880  0.266300  0.503490  1.0
  C  C2737  1  0.496510  0.722120  0.266300  1.0
  C  C2738  1  0.503490  0.722120  0.733700  1.0
  C  C2739  1  0.496510  0.277880  0.733700  1.0
  C  C2740  1  0.503490  0.277880  0.266300  1.0
  C  C2741  1  0.930000  0.687400  0.303400  1.0
  C  C2742  1  0.070000  0.312600  0.303400  1.0
  C  C2743  1  0.070000  0.687400  0.696600  1.0
  C  C2744  1  0.930000  0.312600  0.696600  1.0
  C  C2745  1  0.303400  0.930000  0.687400  1.0
  C  C2746  1  0.303400  0.070000  0.312600  1.0
  C  C2747  1  0.696600  0.070000  0.687400  1.0
  C  C2748  1  0.696600  0.930000  0.312600  1.0
  C  C2749  1  0.687400  0.303400  0.930000  1.0
  C  C2750  1  0.312600  0.303400  0.070000  1.0
  C  C2751  1  0.687400  0.696600  0.070000  1.0
  C  C2752  1  0.312600  0.696600  0.930000  1.0
  C  C2753  1  0.430000  0.187400  0.803400  1.0
  C  C2754  1  0.570000  0.812600  0.803400  1.0
  C  C2755  1  0.570000  0.187400  0.196600  1.0
  C  C2756  1  0.430000  0.812600  0.196600  1.0
  C  C2757  1  0.803400  0.430000  0.187400  1.0
  C  C2758  1  0.803400  0.570000  0.812600  1.0
  C  C2759  1  0.196600  0.570000  0.187400  1.0
  C  C2760  1  0.196600  0.430000  0.812600  1.0
  C  C2761  1  0.187400  0.803400  0.430000  1.0
  C  C2762  1  0.812600  0.803400  0.570000  1.0
  C  C2763  1  0.187400  0.196600  0.570000  1.0
  C  C2764  1  0.812600  0.196600  0.430000  1.0
  C  C2765  1  0.937300  0.650900  0.299200  1.0
  C  C2766  1  0.062700  0.349100  0.299200  1.0
  C  C2767  1  0.062700  0.650900  0.700800  1.0
  C  C2768  1  0.937300  0.349100  0.700800  1.0
  C  C2769  1  0.299200  0.937300  0.650900  1.0
  C  C2770  1  0.299200  0.062700  0.349100  1.0
  C  C2771  1  0.700800  0.062700  0.650900  1.0
  C  C2772  1  0.700800  0.937300  0.349100  1.0
  C  C2773  1  0.650900  0.299200  0.937300  1.0
  C  C2774  1  0.349100  0.299200  0.062700  1.0
  C  C2775  1  0.650900  0.700800  0.062700  1.0
  C  C2776  1  0.349100  0.700800  0.937300  1.0
  C  C2777  1  0.437300  0.150900  0.799200  1.0
  C  C2778  1  0.562700  0.849100  0.799200  1.0
  C  C2779  1  0.562700  0.150900  0.200800  1.0
  C  C2780  1  0.437300  0.849100  0.200800  1.0
  C  C2781  1  0.799200  0.437300  0.150900  1.0
  C  C2782  1  0.799200  0.562700  0.849100  1.0
  C  C2783  1  0.200800  0.562700  0.150900  1.0
  C  C2784  1  0.200800  0.437300  0.849100  1.0
  C  C2785  1  0.150900  0.799200  0.437300  1.0
  C  C2786  1  0.849100  0.799200  0.562700  1.0
  C  C2787  1  0.150900  0.200800  0.562700  1.0
  C  C2788  1  0.849100  0.200800  0.437300  1.0
  C  C2789  1  0.972800  0.636800  0.306300  1.0
  C  C2790  1  0.027200  0.363200  0.306300  1.0
  C  C2791  1  0.027200  0.636800  0.693700  1.0
  C  C2792  1  0.972800  0.363200  0.693700  1.0
  C  C2793  1  0.306300  0.972800  0.636800  1.0
  C  C2794  1  0.306300  0.027200  0.363200  1.0
  C  C2795  1  0.693700  0.027200  0.636800  1.0
  C  C2796  1  0.693700  0.972800  0.363200  1.0
  C  C2797  1  0.636800  0.306300  0.972800  1.0
  C  C2798  1  0.363200  0.306300  0.027200  1.0
  C  C2799  1  0.636800  0.693700  0.027200  1.0
  C  C2800  1  0.363200  0.693700  0.972800  1.0
  C  C2801  1  0.472800  0.136800  0.806300  1.0
  C  C2802  1  0.527200  0.863200  0.806300  1.0
  C  C2803  1  0.527200  0.136800  0.193700  1.0
  C  C2804  1  0.472800  0.863200  0.193700  1.0
  C  C2805  1  0.806300  0.472800  0.136800  1.0
  C  C2806  1  0.806300  0.527200  0.863200  1.0
  C  C2807  1  0.193700  0.527200  0.136800  1.0
  C  C2808  1  0.193700  0.472800  0.863200  1.0
  C  C2809  1  0.136800  0.806300  0.472800  1.0
  C  C2810  1  0.863200  0.806300  0.527200  1.0
  C  C2811  1  0.136800  0.193700  0.527200  1.0
  C  C2812  1  0.863200  0.193700  0.472800  1.0
  C  C2813  1  0.998700  0.660200  0.318300  1.0
  C  C2814  1  0.001300  0.339800  0.318300  1.0
  C  C2815  1  0.001300  0.660200  0.681700  1.0
  C  C2816  1  0.998700  0.339800  0.681700  1.0
  C  C2817  1  0.318300  0.998700  0.660200  1.0
  C  C2818  1  0.318300  0.001300  0.339800  1.0
  C  C2819  1  0.681700  0.001300  0.660200  1.0
  C  C2820  1  0.681700  0.998700  0.339800  1.0
  C  C2821  1  0.660200  0.318300  0.998700  1.0
  C  C2822  1  0.339800  0.318300  0.001300  1.0
  C  C2823  1  0.660200  0.681700  0.001300  1.0
  C  C2824  1  0.339800  0.681700  0.998700  1.0
  C  C2825  1  0.498700  0.160200  0.818300  1.0
  C  C2826  1  0.501300  0.839800  0.818300  1.0
  C  C2827  1  0.501300  0.160200  0.181700  1.0
  C  C2828  1  0.498700  0.839800  0.181700  1.0
  C  C2829  1  0.818300  0.498700  0.160200  1.0
  C  C2830  1  0.818300  0.501300  0.839800  1.0
  C  C2831  1  0.181700  0.501300  0.160200  1.0
  C  C2832  1  0.181700  0.498700  0.839800  1.0
  C  C2833  1  0.160200  0.818300  0.498700  1.0
  C  C2834  1  0.839800  0.818300  0.501300  1.0
  C  C2835  1  0.160200  0.181700  0.501300  1.0
  C  C2836  1  0.839800  0.181700  0.498700  1.0
  C  C2837  1  0.991200  0.696500  0.324700  1.0
  C  C2838  1  0.008800  0.303500  0.324700  1.0
  C  C2839  1  0.008800  0.696500  0.675300  1.0
  C  C2840  1  0.991200  0.303500  0.675300  1.0
  C  C2841  1  0.324700  0.991200  0.696500  1.0
  C  C2842  1  0.324700  0.008800  0.303500  1.0
  C  C2843  1  0.675300  0.008800  0.696500  1.0
  C  C2844  1  0.675300  0.991200  0.303500  1.0
  C  C2845  1  0.696500  0.324700  0.991200  1.0
  C  C2846  1  0.303500  0.324700  0.008800  1.0
  C  C2847  1  0.696500  0.675300  0.008800  1.0
  C  C2848  1  0.303500  0.675300  0.991200  1.0
  C  C2849  1  0.491200  0.196500  0.824700  1.0
  C  C2850  1  0.508800  0.803500  0.824700  1.0
  C  C2851  1  0.508800  0.196500  0.175300  1.0
  C  C2852  1  0.491200  0.803500  0.175300  1.0
  C  C2853  1  0.824700  0.491200  0.196500  1.0
  C  C2854  1  0.824700  0.508800  0.803500  1.0
  C  C2855  1  0.175300  0.508800  0.196500  1.0
  C  C2856  1  0.175300  0.491200  0.803500  1.0
  C  C2857  1  0.196500  0.824700  0.491200  1.0
  C  C2858  1  0.803500  0.824700  0.508800  1.0
  C  C2859  1  0.196500  0.175300  0.508800  1.0
  C  C2860  1  0.803500  0.175300  0.491200  1.0
  C  C2861  1  0.894900  0.702220  0.296400  1.0
  C  C2862  1  0.105100  0.297780  0.296400  1.0
  C  C2863  1  0.105100  0.702220  0.703600  1.0
  C  C2864  1  0.894900  0.297780  0.703600  1.0
  C  C2865  1  0.296400  0.894900  0.702220  1.0
  C  C2866  1  0.296400  0.105100  0.297780  1.0
  C  C2867  1  0.703600  0.105100  0.702220  1.0
  C  C2868  1  0.703600  0.894900  0.297780  1.0
  C  C2869  1  0.702220  0.296400  0.894900  1.0
  C  C2870  1  0.297780  0.296400  0.105100  1.0
  C  C2871  1  0.702220  0.703600  0.105100  1.0
  C  C2872  1  0.297780  0.703600  0.894900  1.0
  C  C2873  1  0.394900  0.202220  0.796400  1.0
  C  C2874  1  0.605100  0.797780  0.796400  1.0
  C  C2875  1  0.605100  0.202220  0.203600  1.0
  C  C2876  1  0.394900  0.797780  0.203600  1.0
  C  C2877  1  0.796400  0.394900  0.202220  1.0
  C  C2878  1  0.796400  0.605100  0.797780  1.0
  C  C2879  1  0.203600  0.605100  0.202220  1.0
  C  C2880  1  0.203600  0.394900  0.797780  1.0
  C  C2881  1  0.202220  0.796400  0.394900  1.0
  C  C2882  1  0.797780  0.796400  0.605100  1.0
  C  C2883  1  0.202220  0.203600  0.605100  1.0
  C  C2884  1  0.797780  0.203600  0.394900  1.0
  C  C2885  1  0.862900  0.686650  0.278800  1.0
  C  C2886  1  0.137100  0.313350  0.278800  1.0
  C  C2887  1  0.137100  0.686650  0.721200  1.0
  C  C2888  1  0.862900  0.313350  0.721200  1.0
  C  C2889  1  0.278800  0.862900  0.686650  1.0
  C  C2890  1  0.278800  0.137100  0.313350  1.0
  C  C2891  1  0.721200  0.137100  0.686650  1.0
  C  C2892  1  0.721200  0.862900  0.313350  1.0
  C  C2893  1  0.686650  0.278800  0.862900  1.0
  C  C2894  1  0.313350  0.278800  0.137100  1.0
  C  C2895  1  0.686650  0.721200  0.137100  1.0
  C  C2896  1  0.313350  0.721200  0.862900  1.0
  C  C2897  1  0.362900  0.186650  0.778800  1.0
  C  C2898  1  0.637100  0.813350  0.778800  1.0
  C  C2899  1  0.637100  0.186650  0.221200  1.0
  C  C2900  1  0.362900  0.813350  0.221200  1.0
  C  C2901  1  0.778800  0.362900  0.186650  1.0
  C  C2902  1  0.778800  0.637100  0.813350  1.0
  C  C2903  1  0.221200  0.637100  0.186650  1.0
  C  C2904  1  0.221200  0.362900  0.813350  1.0
  C  C2905  1  0.186650  0.778800  0.362900  1.0
  C  C2906  1  0.813350  0.778800  0.637100  1.0
  C  C2907  1  0.186650  0.221200  0.637100  1.0
  C  C2908  1  0.813350  0.221200  0.362900  1.0
  C  C2909  1  0.833800  0.713630  0.280100  1.0
  C  C2910  1  0.166200  0.286370  0.280100  1.0
  C  C2911  1  0.166200  0.713630  0.719900  1.0
  C  C2912  1  0.833800  0.286370  0.719900  1.0
  C  C2913  1  0.280100  0.833800  0.713630  1.0
  C  C2914  1  0.280100  0.166200  0.286370  1.0
  C  C2915  1  0.719900  0.166200  0.713630  1.0
  C  C2916  1  0.719900  0.833800  0.286370  1.0
  C  C2917  1  0.713630  0.280100  0.833800  1.0
  C  C2918  1  0.286370  0.280100  0.166200  1.0
  C  C2919  1  0.713630  0.719900  0.166200  1.0
  C  C2920  1  0.286370  0.719900  0.833800  1.0
  C  C2921  1  0.333800  0.213630  0.780100  1.0
  C  C2922  1  0.666200  0.786370  0.780100  1.0
  C  C2923  1  0.666200  0.213630  0.219900  1.0
  C  C2924  1  0.333800  0.786370  0.219900  1.0
  C  C2925  1  0.780100  0.333800  0.213630  1.0
  C  C2926  1  0.780100  0.666200  0.786370  1.0
  C  C2927  1  0.219900  0.666200  0.213630  1.0
  C  C2928  1  0.219900  0.333800  0.786370  1.0
  C  C2929  1  0.213630  0.780100  0.333800  1.0
  C  C2930  1  0.786370  0.780100  0.666200  1.0
  C  C2931  1  0.213630  0.219900  0.666200  1.0
  C  C2932  1  0.786370  0.219900  0.333800  1.0
  C  C2933  1  0.830700  0.779260  0.307100  1.0
  C  C2934  1  0.169300  0.220740  0.307100  1.0
  C  C2935  1  0.169300  0.779260  0.692900  1.0
  C  C2936  1  0.830700  0.220740  0.692900  1.0
  C  C2937  1  0.307100  0.830700  0.779260  1.0
  C  C2938  1  0.307100  0.169300  0.220740  1.0
  C  C2939  1  0.692900  0.169300  0.779260  1.0
  C  C2940  1  0.692900  0.830700  0.220740  1.0
  C  C2941  1  0.779260  0.307100  0.830700  1.0
  C  C2942  1  0.220740  0.307100  0.169300  1.0
  C  C2943  1  0.779260  0.692900  0.169300  1.0
  C  C2944  1  0.220740  0.692900  0.830700  1.0
  C  C2945  1  0.330700  0.279260  0.807100  1.0
  C  C2946  1  0.669300  0.720740  0.807100  1.0
  C  C2947  1  0.669300  0.279260  0.192900  1.0
  C  C2948  1  0.330700  0.720740  0.192900  1.0
  C  C2949  1  0.807100  0.330700  0.279260  1.0
  C  C2950  1  0.807100  0.669300  0.720740  1.0
  C  C2951  1  0.192900  0.669300  0.279260  1.0
  C  C2952  1  0.192900  0.330700  0.720740  1.0
  C  C2953  1  0.279260  0.807100  0.330700  1.0
  C  C2954  1  0.720740  0.807100  0.669300  1.0
  C  C2955  1  0.279260  0.192900  0.669300  1.0
  C  C2956  1  0.720740  0.192900  0.330700  1.0
  C  C2957  1  0.809280  0.914120  0.274900  1.0
  C  C2958  1  0.190720  0.085880  0.274900  1.0
  C  C2959  1  0.190720  0.914120  0.725100  1.0
  C  C2960  1  0.809280  0.085880  0.725100  1.0
  C  C2961  1  0.274900  0.809280  0.914120  1.0
  C  C2962  1  0.274900  0.190720  0.085880  1.0
  C  C2963  1  0.725100  0.190720  0.914120  1.0
  C  C2964  1  0.725100  0.809280  0.085880  1.0
  C  C2965  1  0.914120  0.274900  0.809280  1.0
  C  C2966  1  0.085880  0.274900  0.190720  1.0
  C  C2967  1  0.914120  0.725100  0.190720  1.0
  C  C2968  1  0.085880  0.725100  0.809280  1.0
  C  C2969  1  0.309280  0.414120  0.774900  1.0
  C  C2970  1  0.690720  0.585880  0.774900  1.0
  C  C2971  1  0.690720  0.414120  0.225100  1.0
  C  C2972  1  0.309280  0.585880  0.225100  1.0
  C  C2973  1  0.774900  0.309280  0.414120  1.0
  C  C2974  1  0.774900  0.690720  0.585880  1.0
  C  C2975  1  0.225100  0.690720  0.414120  1.0
  C  C2976  1  0.225100  0.309280  0.585880  1.0
  C  C2977  1  0.414120  0.774900  0.309280  1.0
  C  C2978  1  0.585880  0.774900  0.690720  1.0
  C  C2979  1  0.414120  0.225100  0.690720  1.0
  C  C2980  1  0.585880  0.225100  0.309280  1.0
  C  C2981  1  0.795700  0.936290  0.246030  1.0
  C  C2982  1  0.204300  0.063710  0.246030  1.0
  C  C2983  1  0.204300  0.936290  0.753970  1.0
  C  C2984  1  0.795700  0.063710  0.753970  1.0
  C  C2985  1  0.246030  0.795700  0.936290  1.0
  C  C2986  1  0.246030  0.204300  0.063710  1.0
  C  C2987  1  0.753970  0.204300  0.936290  1.0
  C  C2988  1  0.753970  0.795700  0.063710  1.0
  C  C2989  1  0.936290  0.246030  0.795700  1.0
  C  C2990  1  0.063710  0.246030  0.204300  1.0
  C  C2991  1  0.936290  0.753970  0.204300  1.0
  C  C2992  1  0.063710  0.753970  0.795700  1.0
  C  C2993  1  0.295700  0.436290  0.746030  1.0
  C  C2994  1  0.704300  0.563710  0.746030  1.0
  C  C2995  1  0.704300  0.436290  0.253970  1.0
  C  C2996  1  0.295700  0.563710  0.253970  1.0
  C  C2997  1  0.746030  0.295700  0.436290  1.0
  C  C2998  1  0.746030  0.704300  0.563710  1.0
  C  C2999  1  0.253970  0.704300  0.436290  1.0
  C  C3000  1  0.253970  0.295700  0.563710  1.0
  C  C3001  1  0.436290  0.746030  0.295700  1.0
  C  C3002  1  0.563710  0.746030  0.704300  1.0
  C  C3003  1  0.436290  0.253970  0.704300  1.0
  C  C3004  1  0.563710  0.253970  0.295700  1.0
  C  C3005  1  0.778600  0.970280  0.253990  1.0
  C  C3006  1  0.221400  0.029720  0.253990  1.0
  C  C3007  1  0.221400  0.970280  0.746010  1.0
  C  C3008  1  0.778600  0.029720  0.746010  1.0
  C  C3009  1  0.253990  0.778600  0.970280  1.0
  C  C3010  1  0.253990  0.221400  0.029720  1.0
  C  C3011  1  0.746010  0.221400  0.970280  1.0
  C  C3012  1  0.746010  0.778600  0.029720  1.0
  C  C3013  1  0.970280  0.253990  0.778600  1.0
  C  C3014  1  0.029720  0.253990  0.221400  1.0
  C  C3015  1  0.970280  0.746010  0.221400  1.0
  C  C3016  1  0.029720  0.746010  0.778600  1.0
  C  C3017  1  0.278600  0.470280  0.753990  1.0
  C  C3018  1  0.721400  0.529720  0.753990  1.0
  C  C3019  1  0.721400  0.470280  0.246010  1.0
  C  C3020  1  0.278600  0.529720  0.246010  1.0
  C  C3021  1  0.753990  0.278600  0.470280  1.0
  C  C3022  1  0.753990  0.721400  0.529720  1.0
  C  C3023  1  0.246010  0.721400  0.470280  1.0
  C  C3024  1  0.246010  0.278600  0.529720  1.0
  C  C3025  1  0.470280  0.753990  0.278600  1.0
  C  C3026  1  0.529720  0.753990  0.721400  1.0
  C  C3027  1  0.470280  0.246010  0.721400  1.0
  C  C3028  1  0.529720  0.246010  0.278600  1.0
  C  C3029  1  0.775090  0.982100  0.290900  1.0
  C  C3030  1  0.224910  0.017900  0.290900  1.0
  C  C3031  1  0.224910  0.982100  0.709100  1.0
  C  C3032  1  0.775090  0.017900  0.709100  1.0
  C  C3033  1  0.290900  0.775090  0.982100  1.0
  C  C3034  1  0.290900  0.224910  0.017900  1.0
  C  C3035  1  0.709100  0.224910  0.982100  1.0
  C  C3036  1  0.709100  0.775090  0.017900  1.0
  C  C3037  1  0.982100  0.290900  0.775090  1.0
  C  C3038  1  0.017900  0.290900  0.224910  1.0
  C  C3039  1  0.982100  0.709100  0.224910  1.0
  C  C3040  1  0.017900  0.709100  0.775090  1.0
  C  C3041  1  0.275090  0.482100  0.790900  1.0
  C  C3042  1  0.724910  0.517900  0.790900  1.0
  C  C3043  1  0.724910  0.482100  0.209100  1.0
  C  C3044  1  0.275090  0.517900  0.209100  1.0
  C  C3045  1  0.790900  0.275090  0.482100  1.0
  C  C3046  1  0.790900  0.724910  0.517900  1.0
  C  C3047  1  0.209100  0.724910  0.482100  1.0
  C  C3048  1  0.209100  0.275090  0.517900  1.0
  C  C3049  1  0.482100  0.790900  0.275090  1.0
  C  C3050  1  0.517900  0.790900  0.724910  1.0
  C  C3051  1  0.482100  0.209100  0.724910  1.0
  C  C3052  1  0.517900  0.209100  0.275090  1.0
  C  C3053  1  0.788700  0.959930  0.319760  1.0
  C  C3054  1  0.211300  0.040070  0.319760  1.0
  C  C3055  1  0.211300  0.959930  0.680240  1.0
  C  C3056  1  0.788700  0.040070  0.680240  1.0
  C  C3057  1  0.319760  0.788700  0.959930  1.0
  C  C3058  1  0.319760  0.211300  0.040070  1.0
  C  C3059  1  0.680240  0.211300  0.959930  1.0
  C  C3060  1  0.680240  0.788700  0.040070  1.0
  C  C3061  1  0.959930  0.319760  0.788700  1.0
  C  C3062  1  0.040070  0.319760  0.211300  1.0
  C  C3063  1  0.959930  0.680240  0.211300  1.0
  C  C3064  1  0.040070  0.680240  0.788700  1.0
  C  C3065  1  0.288700  0.459930  0.819760  1.0
  C  C3066  1  0.711300  0.540070  0.819760  1.0
  C  C3067  1  0.711300  0.459930  0.180240  1.0
  C  C3068  1  0.288700  0.540070  0.180240  1.0
  C  C3069  1  0.819760  0.288700  0.459930  1.0
  C  C3070  1  0.819760  0.711300  0.540070  1.0
  C  C3071  1  0.180240  0.711300  0.459930  1.0
  C  C3072  1  0.180240  0.288700  0.540070  1.0
  C  C3073  1  0.459930  0.819760  0.288700  1.0
  C  C3074  1  0.540070  0.819760  0.711300  1.0
  C  C3075  1  0.459930  0.180240  0.711300  1.0
  C  C3076  1  0.540070  0.180240  0.288700  1.0
  C  C3077  1  0.805700  0.925930  0.311800  1.0
  C  C3078  1  0.194300  0.074070  0.311800  1.0
  C  C3079  1  0.194300  0.925930  0.688200  1.0
  C  C3080  1  0.805700  0.074070  0.688200  1.0
  C  C3081  1  0.311800  0.805700  0.925930  1.0
  C  C3082  1  0.311800  0.194300  0.074070  1.0
  C  C3083  1  0.688200  0.194300  0.925930  1.0
  C  C3084  1  0.688200  0.805700  0.074070  1.0
  C  C3085  1  0.925930  0.311800  0.805700  1.0
  C  C3086  1  0.074070  0.311800  0.194300  1.0
  C  C3087  1  0.925930  0.688200  0.194300  1.0
  C  C3088  1  0.074070  0.688200  0.805700  1.0
  C  C3089  1  0.305700  0.425930  0.811800  1.0
  C  C3090  1  0.694300  0.574070  0.811800  1.0
  C  C3091  1  0.694300  0.425930  0.188200  1.0
  C  C3092  1  0.305700  0.574070  0.188200  1.0
  C  C3093  1  0.811800  0.305700  0.425930  1.0
  C  C3094  1  0.811800  0.694300  0.574070  1.0
  C  C3095  1  0.188200  0.694300  0.425930  1.0
  C  C3096  1  0.188200  0.305700  0.574070  1.0
  C  C3097  1  0.425930  0.811800  0.305700  1.0
  C  C3098  1  0.574070  0.811800  0.694300  1.0
  C  C3099  1  0.425930  0.188200  0.694300  1.0
  C  C3100  1  0.574070  0.188200  0.305700  1.0
  C  C3101  1  0.826700  0.876340  0.266840  1.0
  C  C3102  1  0.173300  0.123660  0.266840  1.0
  C  C3103  1  0.173300  0.876340  0.733160  1.0
  C  C3104  1  0.826700  0.123660  0.733160  1.0
  C  C3105  1  0.266840  0.826700  0.876340  1.0
  C  C3106  1  0.266840  0.173300  0.123660  1.0
  C  C3107  1  0.733160  0.173300  0.876340  1.0
  C  C3108  1  0.733160  0.826700  0.123660  1.0
  C  C3109  1  0.876340  0.266840  0.826700  1.0
  C  C3110  1  0.123660  0.266840  0.173300  1.0
  C  C3111  1  0.876340  0.733160  0.173300  1.0
  C  C3112  1  0.123660  0.733160  0.826700  1.0
  C  C3113  1  0.326700  0.376340  0.766840  1.0
  C  C3114  1  0.673300  0.623660  0.766840  1.0
  C  C3115  1  0.673300  0.376340  0.233160  1.0
  C  C3116  1  0.326700  0.623660  0.233160  1.0
  C  C3117  1  0.766840  0.326700  0.376340  1.0
  C  C3118  1  0.766840  0.673300  0.623660  1.0
  C  C3119  1  0.233160  0.673300  0.376340  1.0
  C  C3120  1  0.233160  0.326700  0.623660  1.0
  C  C3121  1  0.376340  0.766840  0.326700  1.0
  C  C3122  1  0.623660  0.766840  0.673300  1.0
  C  C3123  1  0.376340  0.233160  0.673300  1.0
  C  C3124  1  0.623660  0.233160  0.326700  1.0
  C  C3125  1  0.822020  0.845870  0.290510  1.0
  C  C3126  1  0.177980  0.154130  0.290510  1.0
  C  C3127  1  0.177980  0.845870  0.709490  1.0
  C  C3128  1  0.822020  0.154130  0.709490  1.0
  C  C3129  1  0.290510  0.822020  0.845870  1.0
  C  C3130  1  0.290510  0.177980  0.154130  1.0
  C  C3131  1  0.709490  0.177980  0.845870  1.0
  C  C3132  1  0.709490  0.822020  0.154130  1.0
  C  C3133  1  0.845870  0.290510  0.822020  1.0
  C  C3134  1  0.154130  0.290510  0.177980  1.0
  C  C3135  1  0.845870  0.709490  0.177980  1.0
  C  C3136  1  0.154130  0.709490  0.822020  1.0
  C  C3137  1  0.322020  0.345870  0.790510  1.0
  C  C3138  1  0.677980  0.654130  0.790510  1.0
  C  C3139  1  0.677980  0.345870  0.209490  1.0
  C  C3140  1  0.322020  0.654130  0.209490  1.0
  C  C3141  1  0.790510  0.322020  0.345870  1.0
  C  C3142  1  0.790510  0.677980  0.654130  1.0
  C  C3143  1  0.209490  0.677980  0.345870  1.0
  C  C3144  1  0.209490  0.322020  0.654130  1.0
  C  C3145  1  0.345870  0.790510  0.322020  1.0
  C  C3146  1  0.654130  0.790510  0.677980  1.0
  C  C3147  1  0.345870  0.209490  0.677980  1.0
  C  C3148  1  0.654130  0.209490  0.322020  1.0
  C  C3149  1  0.837930  0.811580  0.281440  1.0
  C  C3150  1  0.162070  0.188420  0.281440  1.0
  C  C3151  1  0.162070  0.811580  0.718560  1.0
  C  C3152  1  0.837930  0.188420  0.718560  1.0
  C  C3153  1  0.281440  0.837930  0.811580  1.0
  C  C3154  1  0.281440  0.162070  0.188420  1.0
  C  C3155  1  0.718560  0.162070  0.811580  1.0
  C  C3156  1  0.718560  0.837930  0.188420  1.0
  C  C3157  1  0.811580  0.281440  0.837930  1.0
  C  C3158  1  0.188420  0.281440  0.162070  1.0
  C  C3159  1  0.811580  0.718560  0.162070  1.0
  C  C3160  1  0.188420  0.718560  0.837930  1.0
  C  C3161  1  0.337930  0.311580  0.781440  1.0
  C  C3162  1  0.662070  0.688420  0.781440  1.0
  C  C3163  1  0.662070  0.311580  0.218560  1.0
  C  C3164  1  0.337930  0.688420  0.218560  1.0
  C  C3165  1  0.781440  0.337930  0.311580  1.0
  C  C3166  1  0.781440  0.662070  0.688420  1.0
  C  C3167  1  0.218560  0.662070  0.311580  1.0
  C  C3168  1  0.218560  0.337930  0.688420  1.0
  C  C3169  1  0.311580  0.781440  0.337930  1.0
  C  C3170  1  0.688420  0.781440  0.662070  1.0
  C  C3171  1  0.311580  0.218560  0.662070  1.0
  C  C3172  1  0.688420  0.218560  0.337930  1.0
  C  C3173  1  0.858530  0.807760  0.248700  1.0
  C  C3174  1  0.141470  0.192240  0.248700  1.0
  C  C3175  1  0.141470  0.807760  0.751300  1.0
  C  C3176  1  0.858530  0.192240  0.751300  1.0
  C  C3177  1  0.248700  0.858530  0.807760  1.0
  C  C3178  1  0.248700  0.141470  0.192240  1.0
  C  C3179  1  0.751300  0.141470  0.807760  1.0
  C  C3180  1  0.751300  0.858530  0.192240  1.0
  C  C3181  1  0.807760  0.248700  0.858530  1.0
  C  C3182  1  0.192240  0.248700  0.141470  1.0
  C  C3183  1  0.807760  0.751300  0.141470  1.0
  C  C3184  1  0.192240  0.751300  0.858530  1.0
  C  C3185  1  0.358530  0.307760  0.748700  1.0
  C  C3186  1  0.641470  0.692240  0.748700  1.0
  C  C3187  1  0.641470  0.307760  0.251300  1.0
  C  C3188  1  0.358530  0.692240  0.251300  1.0
  C  C3189  1  0.748700  0.358530  0.307760  1.0
  C  C3190  1  0.748700  0.641470  0.692240  1.0
  C  C3191  1  0.251300  0.641470  0.307760  1.0
  C  C3192  1  0.251300  0.358530  0.692240  1.0
  C  C3193  1  0.307760  0.748700  0.358530  1.0
  C  C3194  1  0.692240  0.748700  0.641470  1.0
  C  C3195  1  0.307760  0.251300  0.641470  1.0
  C  C3196  1  0.692240  0.251300  0.358530  1.0
  C  C3197  1  0.863210  0.838230  0.225020  1.0
  C  C3198  1  0.136790  0.161770  0.225020  1.0
  C  C3199  1  0.136790  0.838230  0.774980  1.0
  C  C3200  1  0.863210  0.161770  0.774980  1.0
  C  C3201  1  0.225020  0.863210  0.838230  1.0
  C  C3202  1  0.225020  0.136790  0.161770  1.0
  C  C3203  1  0.774980  0.136790  0.838230  1.0
  C  C3204  1  0.774980  0.863210  0.161770  1.0
  C  C3205  1  0.838230  0.225020  0.863210  1.0
  C  C3206  1  0.161770  0.225020  0.136790  1.0
  C  C3207  1  0.838230  0.774980  0.136790  1.0
  C  C3208  1  0.161770  0.774980  0.863210  1.0
  C  C3209  1  0.363210  0.338230  0.725020  1.0
  C  C3210  1  0.636790  0.661770  0.725020  1.0
  C  C3211  1  0.636790  0.338230  0.274980  1.0
  C  C3212  1  0.363210  0.661770  0.274980  1.0
  C  C3213  1  0.725020  0.363210  0.338230  1.0
  C  C3214  1  0.725020  0.636790  0.661770  1.0
  C  C3215  1  0.274980  0.636790  0.338230  1.0
  C  C3216  1  0.274980  0.363210  0.661770  1.0
  C  C3217  1  0.338230  0.725020  0.363210  1.0
  C  C3218  1  0.661770  0.725020  0.636790  1.0
  C  C3219  1  0.338230  0.274980  0.636790  1.0
  C  C3220  1  0.661770  0.274980  0.363210  1.0
  C  C3221  1  0.847300  0.872520  0.234090  1.0
  C  C3222  1  0.152700  0.127480  0.234090  1.0
  C  C3223  1  0.152700  0.872520  0.765910  1.0
  C  C3224  1  0.847300  0.127480  0.765910  1.0
  C  C3225  1  0.234090  0.847300  0.872520  1.0
  C  C3226  1  0.234090  0.152700  0.127480  1.0
  C  C3227  1  0.765910  0.152700  0.872520  1.0
  C  C3228  1  0.765910  0.847300  0.127480  1.0
  C  C3229  1  0.872520  0.234090  0.847300  1.0
  C  C3230  1  0.127480  0.234090  0.152700  1.0
  C  C3231  1  0.872520  0.765910  0.152700  1.0
  C  C3232  1  0.127480  0.765910  0.847300  1.0
  C  C3233  1  0.347300  0.372520  0.734090  1.0
  C  C3234  1  0.652700  0.627480  0.734090  1.0
  C  C3235  1  0.652700  0.372520  0.265910  1.0
  C  C3236  1  0.347300  0.627480  0.265910  1.0
  C  C3237  1  0.734090  0.347300  0.372520  1.0
  C  C3238  1  0.734090  0.652700  0.627480  1.0
  C  C3239  1  0.265910  0.652700  0.372520  1.0
  C  C3240  1  0.265910  0.347300  0.627480  1.0
  C  C3241  1  0.372520  0.734090  0.347300  1.0
  C  C3242  1  0.627480  0.734090  0.652700  1.0
  C  C3243  1  0.372520  0.265910  0.652700  1.0
  C  C3244  1  0.627480  0.265910  0.347300  1.0
  N  N3245  1  0.663400  0.591800  0.401100  1.0
  N  N3246  1  0.336600  0.408200  0.401100  1.0
  N  N3247  1  0.336600  0.591800  0.598900  1.0
  N  N3248  1  0.663400  0.408200  0.598900  1.0
  N  N3249  1  0.401100  0.663400  0.591800  1.0
  N  N3250  1  0.401100  0.336600  0.408200  1.0
  N  N3251  1  0.598900  0.336600  0.591800  1.0
  N  N3252  1  0.598900  0.663400  0.408200  1.0
  N  N3253  1  0.591800  0.401100  0.663400  1.0
  N  N3254  1  0.408200  0.401100  0.336600  1.0
  N  N3255  1  0.591800  0.598900  0.336600  1.0
  N  N3256  1  0.408200  0.598900  0.663400  1.0
  N  N3257  1  0.163400  0.091800  0.901100  1.0
  N  N3258  1  0.836600  0.908200  0.901100  1.0
  N  N3259  1  0.836600  0.091800  0.098900  1.0
  N  N3260  1  0.163400  0.908200  0.098900  1.0
  N  N3261  1  0.901100  0.163400  0.091800  1.0
  N  N3262  1  0.901100  0.836600  0.908200  1.0
  N  N3263  1  0.098900  0.836600  0.091800  1.0
  N  N3264  1  0.098900  0.163400  0.908200  1.0
  N  N3265  1  0.091800  0.901100  0.163400  1.0
  N  N3266  1  0.908200  0.901100  0.836600  1.0
  N  N3267  1  0.091800  0.098900  0.836600  1.0
  N  N3268  1  0.908200  0.098900  0.163400  1.0
  N  N3269  1  0.710800  0.695710  0.391240  1.0
  N  N3270  1  0.289200  0.304290  0.391240  1.0
  N  N3271  1  0.289200  0.695710  0.608760  1.0
  N  N3272  1  0.710800  0.304290  0.608760  1.0
  N  N3273  1  0.391240  0.710800  0.695710  1.0
  N  N3274  1  0.391240  0.289200  0.304290  1.0
  N  N3275  1  0.608760  0.289200  0.695710  1.0
  N  N3276  1  0.608760  0.710800  0.304290  1.0
  N  N3277  1  0.695710  0.391240  0.710800  1.0
  N  N3278  1  0.304290  0.391240  0.289200  1.0
  N  N3279  1  0.695710  0.608760  0.289200  1.0
  N  N3280  1  0.304290  0.608760  0.710800  1.0
  N  N3281  1  0.210800  0.195710  0.891240  1.0
  N  N3282  1  0.789200  0.804290  0.891240  1.0
  N  N3283  1  0.789200  0.195710  0.108760  1.0
  N  N3284  1  0.210800  0.804290  0.108760  1.0
  N  N3285  1  0.891240  0.210800  0.195710  1.0
  N  N3286  1  0.891240  0.789200  0.804290  1.0
  N  N3287  1  0.108760  0.789200  0.195710  1.0
  N  N3288  1  0.108760  0.210800  0.804290  1.0
  N  N3289  1  0.195710  0.891240  0.210800  1.0
  N  N3290  1  0.804290  0.891240  0.789200  1.0
  N  N3291  1  0.195710  0.108760  0.789200  1.0
  N  N3292  1  0.804290  0.108760  0.210800  1.0
  N  N3293  1  0.689950  0.661900  0.391730  1.0
  N  N3294  1  0.310050  0.338100  0.391730  1.0
  N  N3295  1  0.310050  0.661900  0.608270  1.0
  N  N3296  1  0.689950  0.338100  0.608270  1.0
  N  N3297  1  0.391730  0.689950  0.661900  1.0
  N  N3298  1  0.391730  0.310050  0.338100  1.0
  N  N3299  1  0.608270  0.310050  0.661900  1.0
  N  N3300  1  0.608270  0.689950  0.338100  1.0
  N  N3301  1  0.661900  0.391730  0.689950  1.0
  N  N3302  1  0.338100  0.391730  0.310050  1.0
  N  N3303  1  0.661900  0.608270  0.310050  1.0
  N  N3304  1  0.338100  0.608270  0.689950  1.0
  N  N3305  1  0.189950  0.161900  0.891730  1.0
  N  N3306  1  0.810050  0.838100  0.891730  1.0
  N  N3307  1  0.810050  0.161900  0.108270  1.0
  N  N3308  1  0.189950  0.838100  0.108270  1.0
  N  N3309  1  0.891730  0.189950  0.161900  1.0
  N  N3310  1  0.891730  0.810050  0.838100  1.0
  N  N3311  1  0.108270  0.810050  0.161900  1.0
  N  N3312  1  0.108270  0.189950  0.838100  1.0
  N  N3313  1  0.161900  0.891730  0.189950  1.0
  N  N3314  1  0.838100  0.891730  0.810050  1.0
  N  N3315  1  0.161900  0.108270  0.810050  1.0
  N  N3316  1  0.838100  0.108270  0.189950  1.0
  N  N3317  1  0.638500  0.994230  0.215600  1.0
  N  N3318  1  0.361500  0.005770  0.215600  1.0
  N  N3319  1  0.361500  0.994230  0.784400  1.0
  N  N3320  1  0.638500  0.005770  0.784400  1.0
  N  N3321  1  0.215600  0.638500  0.994230  1.0
  N  N3322  1  0.215600  0.361500  0.005770  1.0
  N  N3323  1  0.784400  0.361500  0.994230  1.0
  N  N3324  1  0.784400  0.638500  0.005770  1.0
  N  N3325  1  0.994230  0.215600  0.638500  1.0
  N  N3326  1  0.005770  0.215600  0.361500  1.0
  N  N3327  1  0.994230  0.784400  0.361500  1.0
  N  N3328  1  0.005770  0.784400  0.638500  1.0
  N  N3329  1  0.138500  0.494230  0.715600  1.0
  N  N3330  1  0.861500  0.505770  0.715600  1.0
  N  N3331  1  0.861500  0.494230  0.284400  1.0
  N  N3332  1  0.138500  0.505770  0.284400  1.0
  N  N3333  1  0.715600  0.138500  0.494230  1.0
  N  N3334  1  0.715600  0.861500  0.505770  1.0
  N  N3335  1  0.284400  0.861500  0.494230  1.0
  N  N3336  1  0.284400  0.138500  0.505770  1.0
  N  N3337  1  0.494230  0.715600  0.138500  1.0
  N  N3338  1  0.505770  0.715600  0.861500  1.0
  N  N3339  1  0.494230  0.284400  0.861500  1.0
  N  N3340  1  0.505770  0.284400  0.138500  1.0
  N  N3341  1  0.581200  0.901290  0.251000  1.0
  N  N3342  1  0.418800  0.098710  0.251000  1.0
  N  N3343  1  0.418800  0.901290  0.749000  1.0
  N  N3344  1  0.581200  0.098710  0.749000  1.0
  N  N3345  1  0.251000  0.581200  0.901290  1.0
  N  N3346  1  0.251000  0.418800  0.098710  1.0
  N  N3347  1  0.749000  0.418800  0.901290  1.0
  N  N3348  1  0.749000  0.581200  0.098710  1.0
  N  N3349  1  0.901290  0.251000  0.581200  1.0
  N  N3350  1  0.098710  0.251000  0.418800  1.0
  N  N3351  1  0.901290  0.749000  0.418800  1.0
  N  N3352  1  0.098710  0.749000  0.581200  1.0
  N  N3353  1  0.081200  0.401290  0.751000  1.0
  N  N3354  1  0.918800  0.598710  0.751000  1.0
  N  N3355  1  0.918800  0.401290  0.249000  1.0
  N  N3356  1  0.081200  0.598710  0.249000  1.0
  N  N3357  1  0.751000  0.081200  0.401290  1.0
  N  N3358  1  0.751000  0.918800  0.598710  1.0
  N  N3359  1  0.249000  0.918800  0.401290  1.0
  N  N3360  1  0.249000  0.081200  0.598710  1.0
  N  N3361  1  0.401290  0.751000  0.081200  1.0
  N  N3362  1  0.598710  0.751000  0.918800  1.0
  N  N3363  1  0.401290  0.249000  0.918800  1.0
  N  N3364  1  0.598710  0.249000  0.081200  1.0
  N  N3365  1  0.605010  0.930100  0.237500  1.0
  N  N3366  1  0.394990  0.069900  0.237500  1.0
  N  N3367  1  0.394990  0.930100  0.762500  1.0
  N  N3368  1  0.605010  0.069900  0.762500  1.0
  N  N3369  1  0.237500  0.605010  0.930100  1.0
  N  N3370  1  0.237500  0.394990  0.069900  1.0
  N  N3371  1  0.762500  0.394990  0.930100  1.0
  N  N3372  1  0.762500  0.605010  0.069900  1.0
  N  N3373  1  0.930100  0.237500  0.605010  1.0
  N  N3374  1  0.069900  0.237500  0.394990  1.0
  N  N3375  1  0.930100  0.762500  0.394990  1.0
  N  N3376  1  0.069900  0.762500  0.605010  1.0
  N  N3377  1  0.105010  0.430100  0.737500  1.0
  N  N3378  1  0.894990  0.569900  0.737500  1.0
  N  N3379  1  0.894990  0.430100  0.262500  1.0
  N  N3380  1  0.105010  0.569900  0.262500  1.0
  N  N3381  1  0.737500  0.105010  0.430100  1.0
  N  N3382  1  0.737500  0.894990  0.569900  1.0
  N  N3383  1  0.262500  0.894990  0.430100  1.0
  N  N3384  1  0.262500  0.105010  0.569900  1.0
  N  N3385  1  0.430100  0.737500  0.105010  1.0
  N  N3386  1  0.569900  0.737500  0.894990  1.0
  N  N3387  1  0.430100  0.262500  0.894990  1.0
  N  N3388  1  0.569900  0.262500  0.105010  1.0
  N  N3389  1  0.659400  0.912050  0.169770  1.0
  N  N3390  1  0.340600  0.087950  0.169770  1.0
  N  N3391  1  0.340600  0.912050  0.830230  1.0
  N  N3392  1  0.659400  0.087950  0.830230  1.0
  N  N3393  1  0.169770  0.659400  0.912050  1.0
  N  N3394  1  0.169770  0.340600  0.087950  1.0
  N  N3395  1  0.830230  0.340600  0.912050  1.0
  N  N3396  1  0.830230  0.659400  0.087950  1.0
  N  N3397  1  0.912050  0.169770  0.659400  1.0
  N  N3398  1  0.087950  0.169770  0.340600  1.0
  N  N3399  1  0.912050  0.830230  0.340600  1.0
  N  N3400  1  0.087950  0.830230  0.659400  1.0
  N  N3401  1  0.159400  0.412050  0.669770  1.0
  N  N3402  1  0.840600  0.587950  0.669770  1.0
  N  N3403  1  0.840600  0.412050  0.330230  1.0
  N  N3404  1  0.159400  0.587950  0.330230  1.0
  N  N3405  1  0.669770  0.159400  0.412050  1.0
  N  N3406  1  0.669770  0.840600  0.587950  1.0
  N  N3407  1  0.330230  0.840600  0.412050  1.0
  N  N3408  1  0.330230  0.159400  0.587950  1.0
  N  N3409  1  0.412050  0.669770  0.159400  1.0
  N  N3410  1  0.587950  0.669770  0.840600  1.0
  N  N3411  1  0.412050  0.330230  0.840600  1.0
  N  N3412  1  0.587950  0.330230  0.159400  1.0
  N  N3413  1  0.753900  0.976140  0.191450  1.0
  N  N3414  1  0.246100  0.023860  0.191450  1.0
  N  N3415  1  0.246100  0.976140  0.808550  1.0
  N  N3416  1  0.753900  0.023860  0.808550  1.0
  N  N3417  1  0.191450  0.753900  0.976140  1.0
  N  N3418  1  0.191450  0.246100  0.023860  1.0
  N  N3419  1  0.808550  0.246100  0.976140  1.0
  N  N3420  1  0.808550  0.753900  0.023860  1.0
  N  N3421  1  0.976140  0.191450  0.753900  1.0
  N  N3422  1  0.023860  0.191450  0.246100  1.0
  N  N3423  1  0.976140  0.808550  0.246100  1.0
  N  N3424  1  0.023860  0.808550  0.753900  1.0
  N  N3425  1  0.253900  0.476140  0.691450  1.0
  N  N3426  1  0.746100  0.523860  0.691450  1.0
  N  N3427  1  0.746100  0.476140  0.308550  1.0
  N  N3428  1  0.253900  0.523860  0.308550  1.0
  N  N3429  1  0.691450  0.253900  0.476140  1.0
  N  N3430  1  0.691450  0.746100  0.523860  1.0
  N  N3431  1  0.308550  0.746100  0.476140  1.0
  N  N3432  1  0.308550  0.253900  0.523860  1.0
  N  N3433  1  0.476140  0.691450  0.253900  1.0
  N  N3434  1  0.523860  0.691450  0.746100  1.0
  N  N3435  1  0.476140  0.308550  0.746100  1.0
  N  N3436  1  0.523860  0.308550  0.253900  1.0
  N  N3437  1  0.719050  0.957100  0.189950  1.0
  N  N3438  1  0.280950  0.042900  0.189950  1.0
  N  N3439  1  0.280950  0.957100  0.810050  1.0
  N  N3440  1  0.719050  0.042900  0.810050  1.0
  N  N3441  1  0.189950  0.719050  0.957100  1.0
  N  N3442  1  0.189950  0.280950  0.042900  1.0
  N  N3443  1  0.810050  0.280950  0.957100  1.0
  N  N3444  1  0.810050  0.719050  0.042900  1.0
  N  N3445  1  0.957100  0.189950  0.719050  1.0
  N  N3446  1  0.042900  0.189950  0.280950  1.0
  N  N3447  1  0.957100  0.810050  0.280950  1.0
  N  N3448  1  0.042900  0.810050  0.719050  1.0
  N  N3449  1  0.219050  0.457100  0.689950  1.0
  N  N3450  1  0.780950  0.542900  0.689950  1.0
  N  N3451  1  0.780950  0.457100  0.310050  1.0
  N  N3452  1  0.219050  0.542900  0.310050  1.0
  N  N3453  1  0.689950  0.219050  0.457100  1.0
  N  N3454  1  0.689950  0.780950  0.542900  1.0
  N  N3455  1  0.310050  0.780950  0.457100  1.0
  N  N3456  1  0.310050  0.219050  0.542900  1.0
  N  N3457  1  0.457100  0.689950  0.219050  1.0
  N  N3458  1  0.542900  0.689950  0.780950  1.0
  N  N3459  1  0.457100  0.310050  0.780950  1.0
  N  N3460  1  0.542900  0.310050  0.219050  1.0
  N  N3461  1  0.957000  0.712000  0.317000  1.0
  N  N3462  1  0.043000  0.288000  0.317000  1.0
  N  N3463  1  0.043000  0.712000  0.683000  1.0
  N  N3464  1  0.957000  0.288000  0.683000  1.0
  N  N3465  1  0.317000  0.957000  0.712000  1.0
  N  N3466  1  0.317000  0.043000  0.288000  1.0
  N  N3467  1  0.683000  0.043000  0.712000  1.0
  N  N3468  1  0.683000  0.957000  0.288000  1.0
  N  N3469  1  0.712000  0.317000  0.957000  1.0
  N  N3470  1  0.288000  0.317000  0.043000  1.0
  N  N3471  1  0.712000  0.683000  0.043000  1.0
  N  N3472  1  0.288000  0.683000  0.957000  1.0
  N  N3473  1  0.457000  0.212000  0.817000  1.0
  N  N3474  1  0.543000  0.788000  0.817000  1.0
  N  N3475  1  0.543000  0.212000  0.183000  1.0
  N  N3476  1  0.457000  0.788000  0.183000  1.0
  N  N3477  1  0.817000  0.457000  0.212000  1.0
  N  N3478  1  0.817000  0.543000  0.788000  1.0
  N  N3479  1  0.183000  0.543000  0.212000  1.0
  N  N3480  1  0.183000  0.457000  0.788000  1.0
  N  N3481  1  0.212000  0.817000  0.457000  1.0
  N  N3482  1  0.788000  0.817000  0.543000  1.0
  N  N3483  1  0.212000  0.183000  0.543000  1.0
  N  N3484  1  0.788000  0.183000  0.457000  1.0
  N  N3485  1  0.847840  0.745890  0.298560  1.0
  N  N3486  1  0.152160  0.254110  0.298560  1.0
  N  N3487  1  0.152160  0.745890  0.701440  1.0
  N  N3488  1  0.847840  0.254110  0.701440  1.0
  N  N3489  1  0.298560  0.847840  0.745890  1.0
  N  N3490  1  0.298560  0.152160  0.254110  1.0
  N  N3491  1  0.701440  0.152160  0.745890  1.0
  N  N3492  1  0.701440  0.847840  0.254110  1.0
  N  N3493  1  0.745890  0.298560  0.847840  1.0
  N  N3494  1  0.254110  0.298560  0.152160  1.0
  N  N3495  1  0.745890  0.701440  0.152160  1.0
  N  N3496  1  0.254110  0.701440  0.847840  1.0
  N  N3497  1  0.347840  0.245890  0.798560  1.0
  N  N3498  1  0.652160  0.754110  0.798560  1.0
  N  N3499  1  0.652160  0.245890  0.201440  1.0
  N  N3500  1  0.347840  0.754110  0.201440  1.0
  N  N3501  1  0.798560  0.347840  0.245890  1.0
  N  N3502  1  0.798560  0.652160  0.754110  1.0
  N  N3503  1  0.201440  0.652160  0.245890  1.0
  N  N3504  1  0.201440  0.347840  0.754110  1.0
  N  N3505  1  0.245890  0.798560  0.347840  1.0
  N  N3506  1  0.754110  0.798560  0.652160  1.0
  N  N3507  1  0.245890  0.201440  0.652160  1.0
  N  N3508  1  0.754110  0.201440  0.347840  1.0
  N  N3509  1  0.885610  0.738840  0.308590  1.0
  N  N3510  1  0.114390  0.261160  0.308590  1.0
  N  N3511  1  0.114390  0.738840  0.691410  1.0
  N  N3512  1  0.885610  0.261160  0.691410  1.0
  N  N3513  1  0.308590  0.885610  0.738840  1.0
  N  N3514  1  0.308590  0.114390  0.261160  1.0
  N  N3515  1  0.691410  0.114390  0.738840  1.0
  N  N3516  1  0.691410  0.885610  0.261160  1.0
  N  N3517  1  0.738840  0.308590  0.885610  1.0
  N  N3518  1  0.261160  0.308590  0.114390  1.0
  N  N3519  1  0.738840  0.691410  0.114390  1.0
  N  N3520  1  0.261160  0.691410  0.885610  1.0
  N  N3521  1  0.385610  0.238840  0.808590  1.0
  N  N3522  1  0.614390  0.761160  0.808590  1.0
  N  N3523  1  0.614390  0.238840  0.191410  1.0
  N  N3524  1  0.385610  0.761160  0.191410  1.0
  N  N3525  1  0.808590  0.385610  0.238840  1.0
  N  N3526  1  0.808590  0.614390  0.761160  1.0
  N  N3527  1  0.191410  0.614390  0.238840  1.0
  N  N3528  1  0.191410  0.385610  0.761160  1.0
  N  N3529  1  0.238840  0.808590  0.385610  1.0
  N  N3530  1  0.761160  0.808590  0.614390  1.0
  N  N3531  1  0.238840  0.191410  0.614390  1.0
  N  N3532  1  0.761160  0.191410  0.385610  1.0
  F  F3533  1  0.752400  0.752400  0.247600  1
  F  F3534  1  0.247600  0.247600  0.247600  1
  F  F3535  1  0.247600  0.752400  0.752400  1
  F  F3536  1  0.752400  0.247600  0.752400  1
  F  F3537  1  0.252400  0.252400  0.747600  1
  F  F3538  1  0.747600  0.747600  0.747600  1
  F  F3539  1  0.747600  0.252400  0.252400  1
  F  F3540  1  0.252400  0.747600  0.252400  1
  F  F3541  1  0.762100  0.813400  0.378000  1
  F  F3542  1  0.237900  0.186600  0.378000  1
  F  F3543  1  0.237900  0.813400  0.622000  1
  F  F3544  1  0.762100  0.186600  0.622000  1
  F  F3545  1  0.378000  0.762100  0.813400  1
  F  F3546  1  0.378000  0.237900  0.186600  1
  F  F3547  1  0.622000  0.237900  0.813400  1
  F  F3548  1  0.622000  0.762100  0.186600  1
  F  F3549  1  0.813400  0.378000  0.762100  1
  F  F3550  1  0.186600  0.378000  0.237900  1
  F  F3551  1  0.813400  0.622000  0.237900  1
  F  F3552  1  0.186600  0.622000  0.762100  1
  F  F3553  1  0.262100  0.313400  0.878000  1
  F  F3554  1  0.737900  0.686600  0.878000  1
  F  F3555  1  0.737900  0.313400  0.122000  1
  F  F3556  1  0.262100  0.686600  0.122000  1
  F  F3557  1  0.878000  0.262100  0.313400  1
  F  F3558  1  0.878000  0.737900  0.686600  1
  F  F3559  1  0.122000  0.737900  0.313400  1
  F  F3560  1  0.122000  0.262100  0.686600  1
  F  F3561  1  0.313400  0.878000  0.262100  1
  F  F3562  1  0.686600  0.878000  0.737900  1
  F  F3563  1  0.313400  0.122000  0.737900  1
  F  F3564  1  0.686600  0.122000  0.262100  1
  F  F3565  1  0.816500  0.808000  0.409700  1
  F  F3566  1  0.183500  0.192000  0.409700  1
  F  F3567  1  0.183500  0.808000  0.590300  1
  F  F3568  1  0.816500  0.192000  0.590300  1
  F  F3569  1  0.409700  0.816500  0.808000  1
  F  F3570  1  0.409700  0.183500  0.192000  1
  F  F3571  1  0.590300  0.183500  0.808000  1
  F  F3572  1  0.590300  0.816500  0.192000  1
  F  F3573  1  0.808000  0.409700  0.816500  1
  F  F3574  1  0.192000  0.409700  0.183500  1
  F  F3575  1  0.808000  0.590300  0.183500  1
  F  F3576  1  0.192000  0.590300  0.816500  1
  F  F3577  1  0.316500  0.308000  0.909700  1
  F  F3578  1  0.683500  0.692000  0.909700  1
  F  F3579  1  0.683500  0.308000  0.090300  1
  F  F3580  1  0.316500  0.692000  0.090300  1
  F  F3581  1  0.909700  0.316500  0.308000  1
  F  F3582  1  0.909700  0.683500  0.692000  1
  F  F3583  1  0.090300  0.683500  0.308000  1
  F  F3584  1  0.090300  0.316500  0.692000  1
  F  F3585  1  0.308000  0.909700  0.316500  1
  F  F3586  1  0.692000  0.909700  0.683500  1
  F  F3587  1  0.308000  0.090300  0.683500  1
  F  F3588  1  0.692000  0.090300  0.316500  1
  F  F3589  1  0.763100  0.784100  0.434200  1
  F  F3590  1  0.236900  0.215900  0.434200  1
  F  F3591  1  0.236900  0.784100  0.565800  1
  F  F3592  1  0.763100  0.215900  0.565800  1
  F  F3593  1  0.434200  0.763100  0.784100  1
  F  F3594  1  0.434200  0.236900  0.215900  1
  F  F3595  1  0.565800  0.236900  0.784100  1
  F  F3596  1  0.565800  0.763100  0.215900  1
  F  F3597  1  0.784100  0.434200  0.763100  1
  F  F3598  1  0.215900  0.434200  0.236900  1
  F  F3599  1  0.784100  0.565800  0.236900  1
  F  F3600  1  0.215900  0.565800  0.763100  1
  F  F3601  1  0.263100  0.284100  0.934200  1
  F  F3602  1  0.736900  0.715900  0.934200  1
  F  F3603  1  0.736900  0.284100  0.065800  1
  F  F3604  1  0.263100  0.715900  0.065800  1
  F  F3605  1  0.934200  0.263100  0.284100  1
  F  F3606  1  0.934200  0.736900  0.715900  1
  F  F3607  1  0.065800  0.736900  0.284100  1
  F  F3608  1  0.065800  0.263100  0.715900  1
  F  F3609  1  0.284100  0.934200  0.263100  1
  F  F3610  1  0.715900  0.934200  0.736900  1
  F  F3611  1  0.284100  0.065800  0.736900  1
  F  F3612  1  0.715900  0.065800  0.263100  1
  F  F3613  1  0.788800  0.756600  0.383800  1
  F  F3614  1  0.211200  0.243400  0.383800  1
  F  F3615  1  0.211200  0.756600  0.616200  1
  F  F3616  1  0.788800  0.243400  0.616200  1
  F  F3617  1  0.383800  0.788800  0.756600  1
  F  F3618  1  0.383800  0.211200  0.243400  1
  F  F3619  1  0.616200  0.211200  0.756600  1
  F  F3620  1  0.616200  0.788800  0.243400  1
  F  F3621  1  0.756600  0.383800  0.788800  1
  F  F3622  1  0.243400  0.383800  0.211200  1
  F  F3623  1  0.756600  0.616200  0.211200  1
  F  F3624  1  0.243400  0.616200  0.788800  1
  F  F3625  1  0.288800  0.256600  0.883800  1
  F  F3626  1  0.711200  0.743400  0.883800  1
  F  F3627  1  0.711200  0.256600  0.116200  1
  F  F3628  1  0.288800  0.743400  0.116200  1
  F  F3629  1  0.883800  0.288800  0.256600  1
  F  F3630  1  0.883800  0.711200  0.743400  1
  F  F3631  1  0.116200  0.711200  0.256600  1
  F  F3632  1  0.116200  0.288800  0.743400  1
  F  F3633  1  0.256600  0.883800  0.288800  1
  F  F3634  1  0.743400  0.883800  0.711200  1
  F  F3635  1  0.256600  0.116200  0.711200  1
  F  F3636  1  0.743400  0.116200  0.288800  1
  F  F3637  1  0.762300  0.834000  0.389300  1
  F  F3638  1  0.237700  0.166000  0.389300  1
  F  F3639  1  0.237700  0.834000  0.610700  1
  F  F3640  1  0.762300  0.166000  0.610700  1
  F  F3641  1  0.389300  0.762300  0.834000  1
  F  F3642  1  0.389300  0.237700  0.166000  1
  F  F3643  1  0.610700  0.237700  0.834000  1
  F  F3644  1  0.610700  0.762300  0.166000  1
  F  F3645  1  0.834000  0.389300  0.762300  1
  F  F3646  1  0.166000  0.389300  0.237700  1
  F  F3647  1  0.834000  0.610700  0.237700  1
  F  F3648  1  0.166000  0.610700  0.762300  1
  F  F3649  1  0.262300  0.334000  0.889300  1
  F  F3650  1  0.737700  0.666000  0.889300  1
  F  F3651  1  0.737700  0.334000  0.110700  1
  F  F3652  1  0.262300  0.666000  0.110700  1
  F  F3653  1  0.889300  0.262300  0.334000  1
  F  F3654  1  0.889300  0.737700  0.666000  1
  F  F3655  1  0.110700  0.737700  0.334000  1
  F  F3656  1  0.110700  0.262300  0.666000  1
  F  F3657  1  0.334000  0.889300  0.262300  1
  F  F3658  1  0.666000  0.889300  0.737700  1
  F  F3659  1  0.334000  0.110700  0.737700  1
  F  F3660  1  0.666000  0.110700  0.262300  1
  F  F3661  1  0.766900  0.791600  0.368300  1
  F  F3662  1  0.233100  0.208400  0.368300  1
  F  F3663  1  0.233100  0.791600  0.631700  1
  F  F3664  1  0.766900  0.208400  0.631700  1
  F  F3665  1  0.368300  0.766900  0.791600  1
  F  F3666  1  0.368300  0.233100  0.208400  1
  F  F3667  1  0.631700  0.233100  0.791600  1
  F  F3668  1  0.631700  0.766900  0.208400  1
  F  F3669  1  0.791600  0.368300  0.766900  1
  F  F3670  1  0.208400  0.368300  0.233100  1
  F  F3671  1  0.791600  0.631700  0.233100  1
  F  F3672  1  0.208400  0.631700  0.766900  1
  F  F3673  1  0.266900  0.291600  0.868300  1
  F  F3674  1  0.733100  0.708400  0.868300  1
  F  F3675  1  0.733100  0.291600  0.131700  1
  F  F3676  1  0.266900  0.708400  0.131700  1
  F  F3677  1  0.868300  0.266900  0.291600  1
  F  F3678  1  0.868300  0.733100  0.708400  1
  F  F3679  1  0.131700  0.733100  0.291600  1
  F  F3680  1  0.131700  0.266900  0.708400  1
  F  F3681  1  0.291600  0.868300  0.266900  1
  F  F3682  1  0.708400  0.868300  0.733100  1
  F  F3683  1  0.291600  0.131700  0.733100  1
  F  F3684  1  0.708400  0.131700  0.266900  1
  F  F3685  1  0.818800  0.817100  0.414500  1
  F  F3686  1  0.181200  0.182900  0.414500  1
  F  F3687  1  0.181200  0.817100  0.585500  1
  F  F3688  1  0.818800  0.182900  0.585500  1
  F  F3689  1  0.414500  0.818800  0.817100  1
  F  F3690  1  0.414500  0.181200  0.182900  1
  F  F3691  1  0.585500  0.181200  0.817100  1
  F  F3692  1  0.585500  0.818800  0.182900  1
  F  F3693  1  0.817100  0.414500  0.818800  1
  F  F3694  1  0.182900  0.414500  0.181200  1
  F  F3695  1  0.817100  0.585500  0.181200  1
  F  F3696  1  0.182900  0.585500  0.818800  1
  F  F3697  1  0.318800  0.317100  0.914500  1
  F  F3698  1  0.681200  0.682900  0.914500  1
  F  F3699  1  0.681200  0.317100  0.085500  1
  F  F3700  1  0.318800  0.682900  0.085500  1
  F  F3701  1  0.914500  0.318800  0.317100  1
  F  F3702  1  0.914500  0.681200  0.682900  1
  F  F3703  1  0.085500  0.681200  0.317100  1
  F  F3704  1  0.085500  0.318800  0.682900  1
  F  F3705  1  0.317100  0.914500  0.318800  1
  F  F3706  1  0.682900  0.914500  0.681200  1
  F  F3707  1  0.317100  0.085500  0.681200  1
  F  F3708  1  0.682900  0.085500  0.318800  1
  F  F3709  1  0.817300  0.806200  0.406700  1
  F  F3710  1  0.182700  0.193800  0.406700  1
  F  F3711  1  0.182700  0.806200  0.593300  1
  F  F3712  1  0.817300  0.193800  0.593300  1
  F  F3713  1  0.406700  0.817300  0.806200  1
  F  F3714  1  0.406700  0.182700  0.193800  1
  F  F3715  1  0.593300  0.182700  0.806200  1
  F  F3716  1  0.593300  0.817300  0.193800  1
  F  F3717  1  0.806200  0.406700  0.817300  1
  F  F3718  1  0.193800  0.406700  0.182700  1
  F  F3719  1  0.806200  0.593300  0.182700  1
  F  F3720  1  0.193800  0.593300  0.817300  1
  F  F3721  1  0.317300  0.306200  0.906700  1
  F  F3722  1  0.682700  0.693800  0.906700  1
  F  F3723  1  0.682700  0.306200  0.093300  1
  F  F3724  1  0.317300  0.693800  0.093300  1
  F  F3725  1  0.906700  0.317300  0.306200  1
  F  F3726  1  0.906700  0.682700  0.693800  1
  F  F3727  1  0.093300  0.682700  0.306200  1
  F  F3728  1  0.093300  0.317300  0.693800  1
  F  F3729  1  0.306200  0.906700  0.317300  1
  F  F3730  1  0.693800  0.906700  0.682700  1
  F  F3731  1  0.306200  0.093300  0.682700  1
  F  F3732  1  0.693800  0.093300  0.317300  1
  F  F3733  1  0.764200  0.790500  0.436500  1
  F  F3734  1  0.235800  0.209500  0.436500  1
  F  F3735  1  0.235800  0.790500  0.563500  1
  F  F3736  1  0.764200  0.209500  0.563500  1
  F  F3737  1  0.436500  0.764200  0.790500  1
  F  F3738  1  0.436500  0.235800  0.209500  1
  F  F3739  1  0.563500  0.235800  0.790500  1
  F  F3740  1  0.563500  0.764200  0.209500  1
  F  F3741  1  0.790500  0.436500  0.764200  1
  F  F3742  1  0.209500  0.436500  0.235800  1
  F  F3743  1  0.790500  0.563500  0.235800  1
  F  F3744  1  0.209500  0.563500  0.764200  1
  F  F3745  1  0.264200  0.290500  0.936500  1
  F  F3746  1  0.735800  0.709500  0.936500  1
  F  F3747  1  0.735800  0.290500  0.063500  1
  F  F3748  1  0.264200  0.709500  0.063500  1
  F  F3749  1  0.936500  0.264200  0.290500  1
  F  F3750  1  0.936500  0.735800  0.709500  1
  F  F3751  1  0.063500  0.735800  0.290500  1
  F  F3752  1  0.063500  0.264200  0.709500  1
  F  F3753  1  0.290500  0.936500  0.264200  1
  F  F3754  1  0.709500  0.936500  0.735800  1
  F  F3755  1  0.290500  0.063500  0.735800  1
  F  F3756  1  0.709500  0.063500  0.264200  1
  F  F3757  1  0.756800  0.812200  0.428800  1
  F  F3758  1  0.243200  0.187800  0.428800  1
  F  F3759  1  0.243200  0.812200  0.571200  1
  F  F3760  1  0.756800  0.187800  0.571200  1
  F  F3761  1  0.428800  0.756800  0.812200  1
  F  F3762  1  0.428800  0.243200  0.187800  1
  F  F3763  1  0.571200  0.243200  0.812200  1
  F  F3764  1  0.571200  0.756800  0.187800  1
  F  F3765  1  0.812200  0.428800  0.756800  1
  F  F3766  1  0.187800  0.428800  0.243200  1
  F  F3767  1  0.812200  0.571200  0.243200  1
  F  F3768  1  0.187800  0.571200  0.756800  1
  F  F3769  1  0.256800  0.312200  0.928800  1
  F  F3770  1  0.743200  0.687800  0.928800  1
  F  F3771  1  0.743200  0.312200  0.071200  1
  F  F3772  1  0.256800  0.687800  0.071200  1
  F  F3773  1  0.928800  0.256800  0.312200  1
  F  F3774  1  0.928800  0.743200  0.687800  1
  F  F3775  1  0.071200  0.743200  0.312200  1
  F  F3776  1  0.071200  0.256800  0.687800  1
  F  F3777  1  0.312200  0.928800  0.256800  1
  F  F3778  1  0.687800  0.928800  0.743200  1
  F  F3779  1  0.312200  0.071200  0.743200  1
  F  F3780  1  0.687800  0.071200  0.256800  1
  F  F3781  1  0.785900  0.774900  0.378100  1
  F  F3782  1  0.214100  0.225100  0.378100  1
  F  F3783  1  0.214100  0.774900  0.621900  1
  F  F3784  1  0.785900  0.225100  0.621900  1
  F  F3785  1  0.378100  0.785900  0.774900  1
  F  F3786  1  0.378100  0.214100  0.225100  1
  F  F3787  1  0.621900  0.214100  0.774900  1
  F  F3788  1  0.621900  0.785900  0.225100  1
  F  F3789  1  0.774900  0.378100  0.785900  1
  F  F3790  1  0.225100  0.378100  0.214100  1
  F  F3791  1  0.774900  0.621900  0.214100  1
  F  F3792  1  0.225100  0.621900  0.785900  1
  F  F3793  1  0.285900  0.274900  0.878100  1
  F  F3794  1  0.714100  0.725100  0.878100  1
  F  F3795  1  0.714100  0.274900  0.121900  1
  F  F3796  1  0.285900  0.725100  0.121900  1
  F  F3797  1  0.878100  0.285900  0.274900  1
  F  F3798  1  0.878100  0.714100  0.725100  1
  F  F3799  1  0.121900  0.714100  0.274900  1
  F  F3800  1  0.121900  0.285900  0.725100  1
  F  F3801  1  0.274900  0.878100  0.285900  1
  F  F3802  1  0.725100  0.878100  0.714100  1
  F  F3803  1  0.274900  0.121900  0.714100  1
  F  F3804  1  0.725100  0.121900  0.285900  1
  F  F3805  1  0.781600  0.753000  0.418500  1
  F  F3806  1  0.218400  0.247000  0.418500  1
  F  F3807  1  0.218400  0.753000  0.581500  1
  F  F3808  1  0.781600  0.247000  0.581500  1
  F  F3809  1  0.418500  0.781600  0.753000  1
  F  F3810  1  0.418500  0.218400  0.247000  1
  F  F3811  1  0.581500  0.218400  0.753000  1
  F  F3812  1  0.581500  0.781600  0.247000  1
  F  F3813  1  0.753000  0.418500  0.781600  1
  F  F3814  1  0.247000  0.418500  0.218400  1
  F  F3815  1  0.753000  0.581500  0.218400  1
  F  F3816  1  0.247000  0.581500  0.781600  1
  F  F3817  1  0.281600  0.253000  0.918500  1
  F  F3818  1  0.718400  0.747000  0.918500  1
  F  F3819  1  0.718400  0.253000  0.081500  1
  F  F3820  1  0.281600  0.747000  0.081500  1
  F  F3821  1  0.918500  0.281600  0.253000  1
  F  F3822  1  0.918500  0.718400  0.747000  1
  F  F3823  1  0.081500  0.718400  0.253000  1
  F  F3824  1  0.081500  0.281600  0.747000  1
  F  F3825  1  0.253000  0.918500  0.281600  1
  F  F3826  1  0.747000  0.918500  0.718400  1
  F  F3827  1  0.253000  0.081500  0.718400  1
  F  F3828  1  0.747000  0.081500  0.281600  1
  F  F3829  1  0.699170  0.749920  0.283140  1.0
  F  F3830  1  0.300830  0.250080  0.283140  1.0
  F  F3831  1  0.300830  0.749920  0.716860  1.0
  F  F3832  1  0.699170  0.250080  0.716860  1.0
  F  F3833  1  0.283140  0.699170  0.749920  1.0
  F  F3834  1  0.283140  0.300830  0.250080  1.0
  F  F3835  1  0.716860  0.300830  0.749920  1.0
  F  F3836  1  0.716860  0.699170  0.250080  1.0
  F  F3837  1  0.749920  0.283140  0.699170  1.0
  F  F3838  1  0.250080  0.283140  0.300830  1.0
  F  F3839  1  0.749920  0.716860  0.300830  1.0
  F  F3840  1  0.250080  0.716860  0.699170  1.0
  F  F3841  1  0.199170  0.249920  0.783140  1.0
  F  F3842  1  0.800830  0.750080  0.783140  1.0
  F  F3843  1  0.800830  0.249920  0.216860  1.0
  F  F3844  1  0.199170  0.750080  0.216860  1.0
  F  F3845  1  0.783140  0.199170  0.249920  1.0
  F  F3846  1  0.783140  0.800830  0.750080  1.0
  F  F3847  1  0.216860  0.800830  0.249920  1.0
  F  F3848  1  0.216860  0.199170  0.750080  1.0
  F  F3849  1  0.249920  0.783140  0.199170  1.0
  F  F3850  1  0.750080  0.783140  0.800830  1.0
  F  F3851  1  0.249920  0.216860  0.800830  1.0
  F  F3852  1  0.750080  0.216860  0.199170  1.0
