
#######################################################################
#
#                 Cambridge Crystallographic Data Centre
#                                CCDC 
#
#######################################################################
#
# If this CIF has been generated from an entry in the Cambridge 
# Structural Database, then it will include bibliographic, chemical, 
# crystal, experimental, refinement or atomic coordinate data resulting 
# from the CCDC's data processing and validation procedures.
#
#######################################################################

data_BAVDAF
_chemical_formula_moiety         
'C288 H216 N54 Zn6 12+,8(B1 F4 1-),2(F6 Si1 2-),6(C2 H3 N1)'
_chemical_name_systematic        
"nonakis(\m~2~-2,2'-(Anthracene-1,8-diylbis(methanediyl-1H-pyrazole-1,3-diyl))dipyridine)-hexa-zinc octakis(tetrafluoroborate) bis(hexafluorosilicate) acetonitrile solvate"
_symmetry_cell_setting           cubic
_symmetry_space_group_name_H-M   'I 2 3'
_symmetry_Int_Tables_number      197
_space_group_name_Hall           'I 2 2 3'
loop_
_symmetry_equiv_pos_site_id
_symmetry_equiv_pos_as_xyz
1 x,y,z
2 -x,-y,z
3 -x,y,-z
4 x,-y,-z
5 z,x,y
6 z,-x,-y
7 -z,-x,y
8 -z,x,-y
9 y,z,x
10 -y,z,-x
11 y,-z,-x
12 -y,-z,x
13 1/2+x,1/2+y,1/2+z
14 1/2-x,1/2-y,1/2+z
15 1/2-x,1/2+y,1/2-z
16 1/2+x,1/2-y,1/2-z
17 1/2+z,1/2+x,1/2+y
18 1/2+z,1/2-x,1/2-y
19 1/2-z,1/2-x,1/2+y
20 1/2-z,1/2+x,1/2-y
21 1/2+y,1/2+z,1/2+x
22 1/2-y,1/2+z,1/2-x
23 1/2+y,1/2-z,1/2-x
24 1/2-y,1/2-z,1/2+x
_cell_length_a                   40.9005(2)
_cell_length_b                   40.9005(2)
_cell_length_c                   40.9005(2)
_cell_angle_alpha                90
_cell_angle_beta                 90
_cell_angle_gamma                90
_cell_volume                     68420.4
_exptl_crystal_colour            'light yellow'
_exptl_crystal_description       block
_cell_formula_units_Z            8
loop_
_atom_site_label
_atom_site_type_symbol
_atom_site_fract_x
_atom_site_fract_y
_atom_site_fract_z
Zn1 Zn 0.66795(2) 0.399314(18) 0.19380(2)
Zn2 Zn 0.87425(2) 0.28369(3) 0.09527(2)
N1 N 0.6654(2) 0.37572(19) 0.11667(19)
N2 N 0.65505(17) 0.37698(16) 0.14709(17)
C1 C 0.6246(2) 0.3648(2) 0.1473(2)
C2 C 0.6146(3) 0.3581(3) 0.1158(3)
H1 H 0.5935 0.3510 0.1092
C3 C 0.6400(3) 0.3633(3) 0.0963(3)
H2 H 0.6411 0.3596 0.0735
C4 C 0.7002(3) 0.3829(2) 0.1072(2)
H3 H 0.7142 0.3799 0.1267
H4 H 0.7071 0.3666 0.0907
N3 N 0.62427(16) 0.37196(14) 0.20401(18)
C5 C 0.6079(2) 0.36254(19) 0.1778(2)
C6 C 0.5762(2) 0.3497(3) 0.1807(3)
H5 H 0.5645 0.3427 0.1619
C7 C 0.5628(3) 0.3473(3) 0.2102(4)
H6 H 0.5411 0.3392 0.2120
C8 C 0.5792(2) 0.3563(2) 0.2386(3)
H7 H 0.5692 0.3546 0.2595
C9 C 0.61028(19) 0.36778(17) 0.2351(2)
H8 H 0.6227 0.3730 0.2541
N4 N 0.8186(2) 0.3386(2) 0.07385(17)
N5 N 0.83087(19) 0.3075(2) 0.07597(16)
C10 C 0.8163(2) 0.2914(3) 0.05198(18)
C11 C 0.7949(2) 0.3119(3) 0.0335(2)
H9 H 0.7826 0.3061 0.0147
C12 C 0.7960(3) 0.3410(3) 0.0484(3)
H10 H 0.7837 0.3599 0.0427
C13 C 0.8244(3) 0.3622(3) 0.1003(3)
H11 H 0.8453 0.3569 0.1113
H12 H 0.8067 0.3604 0.1167
N6 N 0.84781(9) 0.24570(9) 0.06943(8)
C14 C 0.82560(8) 0.25805(8) 0.04687(7)
C15 C 0.81303(10) 0.23786(8) 0.02260(9)
H13 H 0.7978 0.2463 0.0072
C16 C 0.82266(11) 0.20531(8) 0.02089(10)
H14 H 0.8141 0.1915 0.0043
C17 C 0.84487(10) 0.19296(8) 0.04345(10)
H15 H 0.8515 0.1707 0.0423
C18 C 0.85744(10) 0.21315(9) 0.06773(9)
H16 H 0.8726 0.2047 0.0831
C19 C 0.70617(11) 0.41656(9) 0.09351(12)
C20 C 0.67940(11) 0.43695(10) 0.08882(14)
H17 H 0.6580 0.4293 0.0936
C21 C 0.68393(13) 0.46853(10) 0.07710(14)
H18 H 0.6656 0.4825 0.0739
C22 C 0.71525(14) 0.47971(8) 0.07007(12)
H19 H 0.7183 0.5013 0.0621
C23 C 0.74203(13) 0.45931(8) 0.07476(10)
C24 C 0.73749(11) 0.42774(8) 0.08648(9)
C25 C 0.83293(13) 0.46071(8) 0.06448(18)
H20 H 0.8354 0.4825 0.0567
C26 C 0.86022(12) 0.44079(9) 0.0681(2)
H21 H 0.8813 0.4489 0.0628
C27 C 0.85663(10) 0.40895(9) 0.07940(17)
H22 H 0.8753 0.3953 0.0819
C28 C 0.82575(10) 0.39704(8) 0.08712(12)
C29 C 0.79846(10) 0.41697(7) 0.08351(10)
C30 C 0.80205(12) 0.44881(7) 0.07218(13)
C31 C 0.7743(4) 0.4704(3) 0.0669(4)
H23 H 0.7776 0.4917 0.0584
C32 C 0.7663(3) 0.4069(2) 0.0909(3)
H24 H 0.7632 0.3854 0.0992
N7 N 0.66342(15) 0.42426(13) 0.23995(17)
N8 N 0.67431(15) 0.42150(16) 0.27091(16)
C33 C 0.63735(18) 0.44615(18) 0.2417(2)
C34 C 0.6337(2) 0.4567(2) 0.2737(2)
H25 H 0.6178 0.4715 0.2819
C35 C 0.6580(2) 0.4409(2) 0.2911(2)
H26 H 0.6623 0.4436 0.3138
C36 C 0.70494(18) 0.40394(17) 0.2787(2)
H27 H 0.7049 0.3823 0.2677
H28 H 0.7064 0.4003 0.3025
N9 N 0.63113(11) 0.43935(10) 0.18466(12)
C37 C 0.62024(12) 0.45383(12) 0.21342(11)
C38 C 0.59496(12) 0.47652(12) 0.21251(14)
H29 H 0.5875 0.4864 0.2322
C39 C 0.58056(11) 0.48473(12) 0.18284(17)
H30 H 0.5633 0.5002 0.1822
C40 C 0.59144(14) 0.47026(14) 0.15408(14)
H31 H 0.5816 0.4759 0.1338
C41 C 0.61673(14) 0.44756(13) 0.15500(11)
H32 H 0.6242 0.4377 0.1353
C42 C 0.77639(15) 0.31386(15) 0.31513(16)
H33 H 0.7633 0.3297 0.3279
H34 H 0.7624 0.3055 0.2973
C43 C 0.73496(19) 0.42394(17) 0.26703(19)
C44 C 0.7320(2) 0.45509(19) 0.2551(2)
H35 H 0.7112 0.4652 0.2536
C45 C 0.7609(2) 0.47202(18) 0.2450(2)
H36 H 0.7592 0.4939 0.2374
C46 C 0.7896(2) 0.45795(18) 0.2461(2)
H37 H 0.8081 0.4699 0.2386
C47 C 0.79439(18) 0.42569(18) 0.25800(17)
C48 C 0.76608(17) 0.40880(16) 0.26975(16)
C49 C 0.86000(18) 0.3634(2) 0.2724(2)
H38 H 0.8785 0.3738 0.2628
C50 C 0.8631(2) 0.3343(2) 0.2859(2)
H39 H 0.8841 0.3243 0.2859
C51 C 0.83602(17) 0.3170(2) 0.30048(17)
H40 H 0.8391 0.2961 0.3101
C52 C 0.80554(16) 0.33152(16) 0.30021(15)
C53 C 0.80058(17) 0.36260(16) 0.28535(16)
C54 C 0.82839(19) 0.37980(18) 0.27211(19)
C55 C 0.82429(19) 0.41052(18) 0.25893(18)
H41 H 0.8428 0.4216 0.2502
C56 C 0.76984(17) 0.37703(16) 0.28314(17)
H42 H 0.7512 0.3655 0.2907
N10 N 0.78525(13) 0.28719(12) 0.33601(13)
N11 N 0.70769(13) 0.36647(13) 0.20286(14)
C57 C 0.73701(16) 0.37808(16) 0.19609(16)
C58 C 0.76082(16) 0.35667(18) 0.20196(16)
H43 H 0.7836 0.3594 0.1984
C59 C 0.78546(17) 0.25544(18) 0.32924(16)
H44 H 0.7784 0.2456 0.3094
N12 N 0.70926(16) 0.42646(15) 0.17730(16)
C60 C 0.73898(18) 0.41216(17) 0.18218(19)
C61 C 0.7675(2) 0.4259(2) 0.1742(2)
H45 H 0.7873 0.4144 0.1779
C62 C 0.7680(3) 0.45670(19) 0.1606(2)
H46 H 0.7880 0.4675 0.1555
C63 C 0.7383(3) 0.47130(19) 0.1548(2)
H47 H 0.7373 0.4920 0.1444
C64 C 0.7097(3) 0.4558(2) 0.1642(2)
H48 H 0.6896 0.4669 0.1611
N13 N 0.83894(16) 0.26353(17) 0.16382(16)
N14 N 0.86035(15) 0.27993(18) 0.14520(15)
C65 C 0.8736(2) 0.3021(2) 0.1652(2)
C66 C 0.86099(19) 0.2991(2) 0.19688(18)
H49 H 0.8668 0.3114 0.2157
C67 C 0.83906(19) 0.2752(2) 0.19456(17)
H50 H 0.8256 0.2675 0.2119
C68 C 0.81544(19) 0.2418(2) 0.14781(18)
H51 H 0.8167 0.2186 0.1477
N15 N 0.90271(19) 0.3219(2) 0.11918(18)
C69 C 0.8983(2) 0.3236(2) 0.1518(2)
C70 C 0.9171(2) 0.3453(3) 0.1717(2)
H52 H 0.9137 0.3466 0.1947
C71 C 0.9397(2) 0.3639(3) 0.1567(3)
H53 H 0.9525 0.3789 0.1691
C72 C 0.9446(3) 0.3614(3) 0.1235(3)
H54 H 0.9611 0.3740 0.1132
C73 C 0.9250(2) 0.3400(3) 0.1050(3)
H55 H 0.9279 0.3387 0.0820
N16 N 0.7771(3) 0.1110(2) 0.0720(2)
C74 C 0.7917(4) 0.0948(3) 0.0506(3)
H56 H 0.8107 0.1009 0.0388
C75 C 0.7795(3) 0.1438(2) 0.0821(2)
H57 H 0.8023 0.1513 0.0790
H58 H 0.7745 0.1452 0.1058
C76 C 0.78892(18) 0.2616(2) 0.13151(16)
C77 C 0.78248(19) 0.2927(2) 0.14014(19)
H59 H 0.7941 0.3019 0.1580
C78 C 0.75892(18) 0.3126(2) 0.12362(19)
H60 H 0.7559 0.3348 0.1297
C79 C 0.7409(2) 0.29935(19) 0.09911(18)
H61 H 0.7254 0.3124 0.0878
C80 C 0.74528(18) 0.26555(19) 0.09014(16)
C81 C 0.76907(19) 0.2459(2) 0.10629(16)
C82 C 0.71063(13) 0.20627(12) 0.03169(11)
H62 H 0.6951 0.2197 0.0209
C83 C 0.71393(15) 0.17365(13) 0.02275(11)
H63 H 0.7006 0.1648 0.0059
C84 C 0.73672(17) 0.15394(10) 0.03847(12)
H64 H 0.7390 0.1316 0.0324
C85 C 0.75620(14) 0.16685(12) 0.06315(12)
C86 C 0.75289(12) 0.19947(12) 0.07210(10)
C87 C 0.73011(14) 0.21918(9) 0.05637(11)
C88 C 0.7263(2) 0.25231(19) 0.06548(17)
H65 H 0.7106 0.2655 0.0546
C89 C 0.77332(19) 0.21371(19) 0.09750(17)
H66 H 0.7895 0.2008 0.1080
N17 N 0.9165(2) 0.2495(3) 0.0937(2)
C90 C 0.9313(3) 0.2501(4) 0.0650(3)
C91 C 0.7724(3) 0.0632(5) 0.0477(4)
H67 H 0.7764 0.0457 0.0330
N18 N 0.89829(17) 0.2943(2) 0.04810(13)
C92 C 0.9236(2) 0.2730(2) 0.04040(18)
C93 C 0.9398(2) 0.2759(3) 0.0106(2)
H68 H 0.9571 0.2613 0.0054
C94 C 0.9307(3) 0.3001(3) -0.01140(18)
H69 H 0.9418 0.3021 -0.0317
C95 C 0.9054(3) 0.3215(3) -0.00360(19)
H70 H 0.8992 0.3380 -0.0187
C96 C 0.8892(2) 0.3185(2) 0.02610(19)
H71 H 0.8719 0.3331 0.0314
Zn1I Zn 0.600686(18) 0.19380(2) 0.33205(2)
Zn1F Zn 0.80620(2) 0.33205(2) 0.399314(18)
Zn2F Zn 0.90473(2) 0.12575(2) 0.28369(3)
Zn2I Zn 0.71631(3) 0.09527(2) 0.12575(2)
N1I N 0.62428(19) 0.11667(19) 0.3346(2)
N1F N 0.88333(19) 0.3346(2) 0.37572(19)
N2I N 0.62302(16) 0.14709(17) 0.34495(17)
N2F N 0.85291(17) 0.34495(17) 0.37698(16)
C1I C 0.6352(2) 0.1473(2) 0.3754(2)
C1F C 0.8527(2) 0.3754(2) 0.3648(2)
C2I C 0.6419(3) 0.1158(3) 0.3854(3)
C2F C 0.8842(3) 0.3854(3) 0.3581(3)
H1F H 0.8908 0.4065 0.3510
H1I H 0.6490 0.1092 0.4065
C3I C 0.6367(3) 0.0963(3) 0.3600(3)
C3F C 0.9037(3) 0.3600(3) 0.3633(3)
H2F H 0.9265 0.3589 0.3596
H2I H 0.6404 0.0735 0.3589
C4F C 0.8928(2) 0.2998(3) 0.3829(2)
C4I C 0.6171(2) 0.1072(2) 0.2998(3)
H3F H 0.8733 0.2858 0.3799
H3I H 0.6201 0.1267 0.2858
H4F H 0.9093 0.2929 0.3666
H4I H 0.6334 0.0907 0.2929
N3I N 0.62804(14) 0.20401(18) 0.37573(16)
N3F N 0.79599(18) 0.37573(16) 0.37196(14)
C5I C 0.63746(19) 0.1778(2) 0.3921(2)
C5F C 0.8222(2) 0.3921(2) 0.36254(19)
C6F C 0.8193(3) 0.4238(2) 0.3497(3)
C6I C 0.6503(3) 0.1807(3) 0.4238(2)
H5F H 0.8381 0.4355 0.3427
H5I H 0.6573 0.1619 0.4355
C7F C 0.7898(4) 0.4372(3) 0.3473(3)
C7I C 0.6527(3) 0.2102(4) 0.4372(3)
H6F H 0.7880 0.4589 0.3392
H6I H 0.6608 0.2120 0.4589
C8F C 0.7614(3) 0.4208(2) 0.3563(2)
C8I C 0.6437(2) 0.2386(3) 0.4208(2)
H7F H 0.7405 0.4308 0.3546
H7I H 0.6454 0.2595 0.4308
C9F C 0.7649(2) 0.38972(19) 0.36778(17)
C9I C 0.63222(17) 0.2351(2) 0.38972(19)
H8F H 0.7459 0.3773 0.3730
H8I H 0.6270 0.2541 0.3773
N4F N 0.92615(17) 0.1814(2) 0.3386(2)
N4I N 0.6614(2) 0.07385(17) 0.1814(2)
N5F N 0.92403(16) 0.16913(19) 0.3075(2)
N5I N 0.6925(2) 0.07597(16) 0.16913(19)
C10F C 0.94802(18) 0.1837(2) 0.2914(3)
C10I C 0.7086(3) 0.05198(18) 0.1837(2)
C11F C 0.9665(2) 0.2051(2) 0.3119(3)
C11I C 0.6881(3) 0.0335(2) 0.2051(2)
H9F H 0.9853 0.2174 0.3061
H9I H 0.6939 0.0147 0.2174
C12F C 0.9516(3) 0.2040(3) 0.3410(3)
C12I C 0.6590(3) 0.0484(3) 0.2040(3)
H10F H 0.9573 0.2163 0.3599
H10I H 0.6401 0.0427 0.2163
C13F C 0.8997(3) 0.1756(3) 0.3622(3)
C13I C 0.6378(3) 0.1003(3) 0.1756(3)
H11I H 0.6431 0.1113 0.1547
H11F H 0.8887 0.1547 0.3569
H12I H 0.6396 0.1167 0.1933
H12F H 0.8833 0.1933 0.3604
N6F N 0.93057(8) 0.15219(9) 0.24570(9)
N6I N 0.75430(9) 0.06943(8) 0.15219(9)
C14F C 0.95313(7) 0.17440(8) 0.25805(8)
C14I C 0.74195(8) 0.04687(7) 0.17440(8)
C15F C 0.97740(9) 0.18697(10) 0.23786(8)
C15I C 0.76214(8) 0.02260(9) 0.18697(10)
H13F H 0.9928 0.2022 0.2463
H13I H 0.7537 0.0072 0.2022
C16F C 0.97911(10) 0.17734(11) 0.20531(8)
C16I C 0.79469(8) 0.02089(10) 0.17734(11)
H14F H 0.9957 0.1859 0.1915
H14I H 0.8085 0.0043 0.1859
C17F C 0.95655(10) 0.15513(10) 0.19296(8)
C17I C 0.80704(8) 0.04345(10) 0.15513(10)
H15F H 0.9577 0.1485 0.1707
H15I H 0.8293 0.0423 0.1485
C18F C 0.93227(9) 0.14256(10) 0.21315(9)
C18I C 0.78685(9) 0.06773(9) 0.14256(10)
H16F H 0.9169 0.1274 0.2047
H16I H 0.7953 0.0831 0.1274
C19F C 0.90649(12) 0.29383(11) 0.41656(9)
C19I C 0.58344(9) 0.09351(12) 0.29383(11)
C20F C 0.91118(14) 0.32060(11) 0.43695(10)
C20I C 0.56305(10) 0.08882(14) 0.32060(11)
H17F H 0.9064 0.3420 0.4293
H17I H 0.5707 0.0936 0.3420
C21F C 0.92290(14) 0.31607(13) 0.46853(10)
C21I C 0.53147(10) 0.07710(14) 0.31607(13)
H18F H 0.9261 0.3344 0.4825
H18I H 0.5175 0.0739 0.3344
C22F C 0.92993(12) 0.28475(14) 0.47971(8)
C22I C 0.52029(8) 0.07007(12) 0.28475(14)
H19F H 0.9379 0.2817 0.5013
H19I H 0.4987 0.0621 0.2817
C23F C 0.92524(10) 0.25797(13) 0.45931(8)
C23I C 0.54069(8) 0.07476(10) 0.25797(13)
C24F C 0.91352(9) 0.26251(11) 0.42774(8)
C24I C 0.57226(8) 0.08648(9) 0.26251(11)
C25I C 0.53929(8) 0.06448(18) 0.16707(13)
C25F C 0.93552(18) 0.16707(13) 0.46071(8)
H20I H 0.5175 0.0567 0.1646
H20F H 0.9433 0.1646 0.4825
C26I C 0.55921(9) 0.0681(2) 0.13978(12)
C26F C 0.9319(2) 0.13978(12) 0.44079(9)
H21I H 0.5511 0.0628 0.1187
H21F H 0.9372 0.1187 0.4489
C27I C 0.59105(9) 0.07940(17) 0.14337(10)
C27F C 0.92060(17) 0.14337(10) 0.40895(9)
H22I H 0.6047 0.0819 0.1247
H22F H 0.9181 0.1247 0.3953
C28F C 0.91288(12) 0.17425(10) 0.39704(8)
C28I C 0.60296(8) 0.08712(12) 0.17425(10)
C29F C 0.91649(10) 0.20154(10) 0.41697(7)
C29I C 0.58303(7) 0.08351(10) 0.20154(10)
C30I C 0.55119(7) 0.07218(13) 0.19795(12)
C30F C 0.92782(13) 0.19795(12) 0.44881(7)
C31I C 0.5296(3) 0.0669(4) 0.2257(4)
C31F C 0.9331(4) 0.2257(4) 0.4704(3)
H23I H 0.5083 0.0584 0.2224
H23F H 0.9416 0.2224 0.4917
C32F C 0.9091(3) 0.2337(3) 0.4069(2)
C32I C 0.5931(2) 0.0909(3) 0.2337(3)
H24I H 0.6146 0.0992 0.2368
H24F H 0.9008 0.2368 0.3854
N7I N 0.57574(13) 0.23995(17) 0.33658(15)
N7F N 0.76005(17) 0.33658(15) 0.42426(13)
N8I N 0.57850(16) 0.27091(16) 0.32569(15)
N8F N 0.72909(16) 0.32569(15) 0.42150(16)
C33I C 0.55385(18) 0.2417(2) 0.36265(18)
C33F C 0.7583(2) 0.36265(18) 0.44615(18)
C34I C 0.5433(2) 0.2737(2) 0.3663(2)
C34F C 0.7263(2) 0.3663(2) 0.4567(2)
H25I H 0.5285 0.2819 0.3822
H25F H 0.7181 0.3822 0.4715
C35I C 0.5591(2) 0.2911(2) 0.3420(2)
C35F C 0.7089(2) 0.3420(2) 0.4409(2)
H26I H 0.5564 0.3138 0.3377
H26F H 0.6862 0.3377 0.4436
C36I C 0.59606(17) 0.2787(2) 0.29506(18)
C36F C 0.7213(2) 0.29506(18) 0.40394(17)
H27F H 0.7323 0.2951 0.3823
H27I H 0.6177 0.2677 0.2951
H28F H 0.6975 0.2936 0.4003
H28I H 0.5997 0.3025 0.2936
N9I N 0.56065(10) 0.18466(12) 0.36887(11)
N9F N 0.81534(12) 0.36887(11) 0.43935(10)
C37I C 0.54617(12) 0.21342(11) 0.37976(12)
C37F C 0.78658(11) 0.37976(12) 0.45383(12)
C38I C 0.52348(12) 0.21251(14) 0.40504(12)
C38F C 0.78749(14) 0.40504(12) 0.47652(12)
H29I H 0.5136 0.2322 0.4125
H29F H 0.7678 0.4125 0.4864
C39I C 0.51527(12) 0.18284(17) 0.41944(11)
C39F C 0.81716(17) 0.41944(11) 0.48473(12)
H30I H 0.4998 0.1822 0.4367
H30F H 0.8178 0.4367 0.5002
C40I C 0.52974(14) 0.15408(14) 0.40856(14)
C40F C 0.84592(14) 0.40856(14) 0.47026(14)
H31I H 0.5241 0.1338 0.4184
H31F H 0.8662 0.4184 0.4759
C41I C 0.55244(13) 0.15500(11) 0.38327(14)
C41F C 0.84500(11) 0.38327(14) 0.44756(13)
H32I H 0.5623 0.1353 0.3758
H32F H 0.8647 0.3758 0.4377
C42I C 0.68614(15) 0.31513(16) 0.22361(15)
C42F C 0.68487(16) 0.22361(15) 0.31386(15)
H33I H 0.6703 0.3279 0.2367
H33F H 0.6721 0.2367 0.3297
H34I H 0.6945 0.2973 0.2376
H34F H 0.7027 0.2376 0.3055
C43I C 0.57606(17) 0.26703(19) 0.26504(19)
C43F C 0.73297(19) 0.26504(19) 0.42394(17)
C44F C 0.7449(2) 0.2680(2) 0.45509(19)
C44I C 0.54491(19) 0.2551(2) 0.2680(2)
H35F H 0.7464 0.2888 0.4652
H35I H 0.5348 0.2536 0.2888
C45F C 0.7550(2) 0.2391(2) 0.47202(18)
C45I C 0.52798(18) 0.2450(2) 0.2391(2)
H36F H 0.7626 0.2408 0.4939
H36I H 0.5061 0.2374 0.2408
C46F C 0.7539(2) 0.2104(2) 0.45795(18)
C46I C 0.54205(18) 0.2461(2) 0.2104(2)
H37F H 0.7614 0.1919 0.4699
H37I H 0.5301 0.2386 0.1919
C47F C 0.74200(17) 0.20561(18) 0.42569(18)
C47I C 0.57431(18) 0.25800(17) 0.20561(18)
C48I C 0.59120(16) 0.26975(16) 0.23392(17)
C48F C 0.73025(16) 0.23392(17) 0.40880(16)
C49I C 0.6366(2) 0.2724(2) 0.14000(18)
C49F C 0.7276(2) 0.14000(18) 0.3634(2)
H38I H 0.6262 0.2628 0.1215
H38F H 0.7372 0.1215 0.3738
C50I C 0.6657(2) 0.2859(2) 0.1369(2)
C50F C 0.7141(2) 0.1369(2) 0.3343(2)
H39F H 0.7141 0.1159 0.3243
H39I H 0.6757 0.2859 0.1159
C51I C 0.6830(2) 0.30048(17) 0.16398(17)
C51F C 0.69952(17) 0.16398(17) 0.3170(2)
H40F H 0.6899 0.1609 0.2961
H40I H 0.7039 0.3101 0.1609
C52I C 0.66848(16) 0.30021(15) 0.19446(16)
C52F C 0.69979(15) 0.19446(16) 0.33152(16)
C53I C 0.63740(16) 0.28535(16) 0.19942(17)
C53F C 0.71465(16) 0.19942(17) 0.36260(16)
C54I C 0.62020(18) 0.27211(19) 0.17161(19)
C54F C 0.72789(19) 0.17161(19) 0.37980(18)
C55F C 0.74107(18) 0.17571(19) 0.41052(18)
C55I C 0.58948(18) 0.25893(18) 0.17571(19)
H41F H 0.7498 0.1572 0.4216
H41I H 0.5784 0.2502 0.1572
C56I C 0.62297(16) 0.28314(17) 0.23016(17)
C56F C 0.71686(17) 0.23016(17) 0.37703(16)
H42F H 0.7093 0.2488 0.3655
H42I H 0.6345 0.2907 0.2488
N10I N 0.71281(12) 0.33601(13) 0.21475(13)
N10F N 0.66399(13) 0.21475(13) 0.28719(12)
N11I N 0.63353(13) 0.20286(14) 0.29231(13)
N11F N 0.79714(14) 0.29231(13) 0.36647(13)
C57F C 0.80391(16) 0.26299(16) 0.37808(16)
C57I C 0.62192(16) 0.19609(16) 0.26299(16)
C58F C 0.79804(16) 0.23918(16) 0.35667(18)
C58I C 0.64333(18) 0.20196(16) 0.23918(16)
H43F H 0.8016 0.2164 0.3594
H43I H 0.6406 0.1984 0.2164
C59F C 0.67076(16) 0.21454(17) 0.25544(18)
C59I C 0.74456(18) 0.32924(16) 0.21454(17)
H44F H 0.6906 0.2216 0.2456
H44I H 0.7544 0.3094 0.2216
N12F N 0.82270(16) 0.29074(16) 0.42646(15)
N12I N 0.57354(15) 0.17730(16) 0.29074(16)
C60F C 0.81782(19) 0.26102(18) 0.41216(17)
C60I C 0.58784(17) 0.18218(19) 0.26102(18)
C61F C 0.8258(2) 0.2325(2) 0.4259(2)
C61I C 0.5741(2) 0.1742(2) 0.2325(2)
H45F H 0.8221 0.2127 0.4144
H45I H 0.5856 0.1779 0.2127
C62F C 0.8394(2) 0.2320(3) 0.45670(19)
C62I C 0.54330(19) 0.1606(2) 0.2320(3)
H46F H 0.8445 0.2120 0.4675
H46I H 0.5325 0.1555 0.2120
C63F C 0.8452(2) 0.2617(3) 0.47130(19)
C63I C 0.52870(19) 0.1548(2) 0.2617(3)
H47F H 0.8556 0.2627 0.4920
H47I H 0.5080 0.1444 0.2627
C64F C 0.8358(2) 0.2903(3) 0.4558(2)
C64I C 0.5442(2) 0.1642(2) 0.2903(3)
H48F H 0.8389 0.3104 0.4669
H48I H 0.5331 0.1611 0.3104
N13F N 0.83618(16) 0.16106(16) 0.26353(17)
N13I N 0.73647(17) 0.16382(16) 0.16106(16)
N14F N 0.85480(15) 0.13965(15) 0.27993(18)
N14I N 0.72007(18) 0.14520(15) 0.13965(15)
C65F C 0.8348(2) 0.1264(2) 0.3021(2)
C65I C 0.6979(2) 0.1652(2) 0.1264(2)
C66F C 0.80312(18) 0.13901(19) 0.2991(2)
C66I C 0.7009(2) 0.19688(18) 0.13901(19)
H49I H 0.6886 0.2157 0.1332
H49F H 0.7843 0.1332 0.3114
C67F C 0.80544(17) 0.16094(19) 0.2752(2)
C67I C 0.7248(2) 0.19456(17) 0.16094(19)
H50I H 0.7325 0.2119 0.1744
H50F H 0.7881 0.1744 0.2675
C68I C 0.7582(2) 0.14781(18) 0.18456(19)
C68F C 0.85219(18) 0.18456(19) 0.2418(2)
H51F H 0.8523 0.1833 0.2186
H51I H 0.7814 0.1477 0.1833
N15F N 0.88082(18) 0.09729(19) 0.3219(2)
N15I N 0.6781(2) 0.11918(18) 0.09729(19)
C69F C 0.8482(2) 0.1017(2) 0.3236(2)
C69I C 0.6764(2) 0.1518(2) 0.1017(2)
C70I C 0.6547(3) 0.1717(2) 0.0829(2)
C70F C 0.8283(2) 0.0829(2) 0.3453(3)
H52I H 0.6534 0.1947 0.0863
H52F H 0.8053 0.0863 0.3466
C71I C 0.6361(3) 0.1567(3) 0.0603(2)
C71F C 0.8433(3) 0.0603(2) 0.3639(3)
H53I H 0.6211 0.1691 0.0475
H53F H 0.8309 0.0475 0.3789
C72I C 0.6386(3) 0.1235(3) 0.0554(3)
C72F C 0.8765(3) 0.0554(3) 0.3614(3)
H54I H 0.6260 0.1132 0.0389
H54F H 0.8868 0.0389 0.3740
C73I C 0.6600(3) 0.1050(3) 0.0750(2)
C73F C 0.8950(3) 0.0750(2) 0.3400(3)
H55I H 0.6613 0.0820 0.0721
H55F H 0.9180 0.0721 0.3387
N16I N 0.8890(2) 0.0720(2) 0.2229(3)
N16F N 0.9280(2) 0.2229(3) 0.1110(2)
C74I C 0.9052(3) 0.0506(3) 0.2083(4)
C74F C 0.9494(3) 0.2083(4) 0.0948(3)
H56I H 0.8991 0.0388 0.1893
H56F H 0.9612 0.1893 0.1009
C75I C 0.8562(2) 0.0821(2) 0.2205(3)
C75F C 0.9179(2) 0.2205(3) 0.1438(2)
H57I H 0.8487 0.0790 0.1977
H57F H 0.9210 0.1977 0.1513
H58I H 0.8548 0.1058 0.2255
H58F H 0.8942 0.2255 0.1452
C76I C 0.7384(2) 0.13151(16) 0.21108(18)
C76F C 0.86849(16) 0.21108(18) 0.2616(2)
C77F C 0.85986(19) 0.21752(19) 0.2927(2)
C77I C 0.7073(2) 0.14014(19) 0.21752(19)
H59F H 0.8420 0.2059 0.3019
H59I H 0.6981 0.1580 0.2059
C78F C 0.87638(19) 0.24108(18) 0.3126(2)
C78I C 0.6874(2) 0.12362(19) 0.24108(18)
H60F H 0.8703 0.2441 0.3348
H60I H 0.6652 0.1297 0.2441
C79F C 0.90089(18) 0.2591(2) 0.29935(19)
C79I C 0.70065(19) 0.09911(18) 0.2591(2)
H61F H 0.9122 0.2746 0.3124
H61I H 0.6876 0.0878 0.2746
C80F C 0.90986(16) 0.25472(18) 0.26555(19)
C80I C 0.73445(19) 0.09014(16) 0.25472(18)
C81I C 0.7541(2) 0.10629(16) 0.23093(19)
C81F C 0.89371(16) 0.23093(19) 0.2459(2)
C82I C 0.79373(12) 0.03169(11) 0.28937(13)
C82F C 0.96831(11) 0.28937(13) 0.20627(12)
H62I H 0.7803 0.0209 0.3049
H62F H 0.9791 0.3049 0.2197
C83I C 0.82635(13) 0.02275(11) 0.28607(15)
C83F C 0.97725(11) 0.28607(15) 0.17365(13)
H63F H 0.9941 0.2994 0.1648
H63I H 0.8352 0.0059 0.2994
C84I C 0.84606(10) 0.03847(12) 0.26328(17)
C84F C 0.96153(12) 0.26328(17) 0.15394(10)
H64F H 0.9676 0.2610 0.1316
H64I H 0.8684 0.0324 0.2610
C85I C 0.83315(12) 0.06315(12) 0.24380(14)
C85F C 0.93685(12) 0.24380(14) 0.16685(12)
C86I C 0.80053(12) 0.07210(10) 0.24711(12)
C86F C 0.92790(10) 0.24711(12) 0.19947(12)
C87I C 0.78082(9) 0.05637(11) 0.26989(14)
C87F C 0.94363(11) 0.26989(14) 0.21918(9)
C88F C 0.93452(17) 0.2737(2) 0.25231(19)
C88I C 0.74769(19) 0.06548(17) 0.2737(2)
H65F H 0.9454 0.2894 0.2655
H65I H 0.7345 0.0546 0.2894
C89I C 0.78629(19) 0.09750(17) 0.22668(19)
C89F C 0.90250(17) 0.22668(19) 0.21371(19)
H66F H 0.8920 0.2105 0.2008
H66I H 0.7992 0.1080 0.2105
N17F N 0.9063(2) 0.0835(2) 0.2495(3)
N17I N 0.7505(3) 0.0937(2) 0.0835(2)
C90F C 0.9350(3) 0.0687(3) 0.2501(4)
C90I C 0.7499(4) 0.0650(3) 0.0687(3)
C91I C 0.9368(5) 0.0477(4) 0.2276(3)
C91F C 0.9523(4) 0.2276(3) 0.0632(5)
H67I H 0.9543 0.0330 0.2236
H67F H 0.9670 0.2236 0.0457
N18F N 0.95190(13) 0.10171(17) 0.2943(2)
N18I N 0.7057(2) 0.04810(13) 0.10171(17)
C92F C 0.95960(18) 0.0764(2) 0.2730(2)
C92I C 0.7270(2) 0.04040(18) 0.0764(2)
C93F C 0.9894(2) 0.0602(2) 0.2759(3)
C93I C 0.7241(3) 0.0106(2) 0.0602(2)
H68F H 0.9946 0.0429 0.2613
H68I H 0.7387 0.0054 0.0429
C94F C 1.01140(18) 0.0693(3) 0.3001(3)
C94I C 0.6999(3) -0.01140(18) 0.0693(3)
H69F H 1.0317 0.0582 0.3021
H69I H 0.6979 -0.0317 0.0582
C95F C 1.00360(19) 0.0946(3) 0.3215(3)
C95I C 0.6785(3) -0.00360(19) 0.0946(3)
H70F H 1.0187 0.1008 0.3380
H70I H 0.6620 -0.0187 0.1008
C96F C 0.97390(19) 0.1108(2) 0.3185(2)
C96I C 0.6815(2) 0.02610(19) 0.1108(2)
H71F H 0.9686 0.1281 0.3331
H71I H 0.6669 0.0314 0.1281
B1 B 0.76232(10) 0.23768(10) 0.23768(10)
F1 F 0.78226(11) 0.21774(11) 0.21774(11)
F2 F 0.73516(12) 0.24925(12) 0.21970(12)
F2F F 0.78030(12) 0.26484(12) 0.24925(12)
F2I F 0.75075(12) 0.21970(12) 0.26484(12)
B2 B 0.6928(3) 0.3461(3) 0.0172(3)
F3 F 0.6874(5) 0.3195(4) 0.0371(4)
F4 F 0.6760(3) 0.3734(3) 0.0258(3)
F5 F 0.6867(3) 0.3384(3) -0.0133(3)
F6 F 0.7254(3) 0.3522(4) 0.0242(4)
Si1 Si 0.85846(8) 0.14154(8) 0.14154(8)
F7 F 0.8387(3) 0.1712(2) 0.1268(3)
F8 F 0.8486(3) 0.1191(3) 0.1088(3)
F7F F 0.8732(3) 0.1613(3) 0.1712(2)
F7I F 0.8288(2) 0.1268(3) 0.1613(3)
F8F F 0.8912(3) 0.1514(3) 0.1191(3)
F8I F 0.8809(3) 0.1088(3) 0.1514(3)
Si2 Si 0.68227(6) 0.31773(6) 0.31773(6)
F9 F 0.69836(18) 0.34499(17) 0.34325(17)
F10 F 0.66834(13) 0.28944(12) 0.29209(12)
F9F F 0.65675(17) 0.30164(18) 0.34499(17)
F9I F 0.65501(17) 0.34325(17) 0.30164(18)
F10F F 0.70791(12) 0.33166(13) 0.28944(12)
F10I F 0.71056(12) 0.29209(12) 0.33166(13)
N19 N 0.8399(2) 0.3832(3) 0.1749(2)
C97 C 0.8599(3) 0.4021(3) 0.1737(4)
C98 C 0.8870(4) 0.4261(4) 0.1743(9)
N20 N 0.9459(5) 0.3831(5) 0.2354(4)
C99 C 0.9493(3) 0.3842(5) 0.2634(4)
C100 C 0.9522(4) 0.3920(7) 0.2975(4)
loop_
_geom_bond_atom_site_label_1
_geom_bond_atom_site_label_2
_geom_bond_site_symmetry_1
_geom_bond_site_symmetry_2
Zn1 N2 1_555 1_555
Zn2 N5 1_555 1_555
N1 N2 1_555 1_555
N2 C1 1_555 1_555
C1 C2 1_555 1_555
C2 H1 1_555 1_555
C3 N1 1_555 1_555
H2 C3 1_555 1_555
C4 N1 1_555 1_555
H3 C4 1_555 1_555
H4 C4 1_555 1_555
N3 Zn1 1_555 1_555
C5 C1 1_555 1_555
C6 C5 1_555 1_555
H5 C6 1_555 1_555
C7 C6 1_555 1_555
H6 C7 1_555 1_555
C8 C7 1_555 1_555
H7 C8 1_555 1_555
C9 N3 1_555 1_555
H8 C9 1_555 1_555
N4 N5 1_555 1_555
N5 C10 1_555 1_555
C10 C11 1_555 1_555
C11 H9 1_555 1_555
C12 N4 1_555 1_555
H10 C12 1_555 1_555
C13 N4 1_555 1_555
H11 C13 1_555 1_555
H12 C13 1_555 1_555
N6 Zn2 1_555 1_555
C14 C10 1_555 1_555
C15 C14 1_555 1_555
H13 C15 1_555 1_555
C16 C15 1_555 1_555
H14 C16 1_555 1_555
C17 C16 1_555 1_555
H15 C17 1_555 1_555
C18 N6 1_555 1_555
H16 C18 1_555 1_555
C19 C4 1_555 1_555
C20 C19 1_555 1_555
H17 C20 1_555 1_555
C21 C20 1_555 1_555
H18 C21 1_555 1_555
C22 C21 1_555 1_555
H19 C22 1_555 1_555
C23 C22 1_555 1_555
C24 C19 1_555 1_555
C25 H20 1_555 1_555
C26 C25 1_555 1_555
H21 C26 1_555 1_555
C27 C26 1_555 1_555
H22 C27 1_555 1_555
C28 C13 1_555 1_555
C29 C28 1_555 1_555
C30 C25 1_555 1_555
C31 C23 1_555 1_555
H23 C31 1_555 1_555
C32 C24 1_555 1_555
H24 C32 1_555 1_555
N7 Zn1 1_555 1_555
N8 N7 1_555 1_555
C33 N7 1_555 1_555
C34 C33 1_555 1_555
H25 C34 1_555 1_555
C35 N8 1_555 1_555
H26 C35 1_555 1_555
C36 N8 1_555 1_555
H27 C36 1_555 1_555
H28 C36 1_555 1_555
N9 Zn1 1_555 1_555
C37 C33 1_555 1_555
C38 C37 1_555 1_555
H29 C38 1_555 1_555
C39 C38 1_555 1_555
H30 C39 1_555 1_555
C40 C39 1_555 1_555
H31 C40 1_555 1_555
C41 N9 1_555 1_555
H32 C41 1_555 1_555
C42 H33 1_555 1_555
H34 C42 1_555 1_555
C43 C36 1_555 1_555
C44 C43 1_555 1_555
H35 C44 1_555 1_555
C45 C44 1_555 1_555
H36 C45 1_555 1_555
C46 C45 1_555 1_555
H37 C46 1_555 1_555
C47 C46 1_555 1_555
C48 C43 1_555 1_555
C49 H38 1_555 1_555
C50 C49 1_555 1_555
H39 C50 1_555 1_555
C51 C50 1_555 1_555
H40 C51 1_555 1_555
C52 C42 1_555 1_555
C53 C52 1_555 1_555
C54 C49 1_555 1_555
C55 C47 1_555 1_555
H41 C55 1_555 1_555
C56 C48 1_555 1_555
H42 C56 1_555 1_555
N10 C42 1_555 1_555
N11 Zn1 1_555 1_555
C57 N11 1_555 1_555
C58 C57 1_555 1_555
H43 C58 1_555 1_555
C59 N10 1_555 1_555
H44 C59 1_555 1_555
N12 Zn1 1_555 1_555
C60 C57 1_555 1_555
C61 C60 1_555 1_555
H45 C61 1_555 1_555
C62 C61 1_555 1_555
H46 C62 1_555 1_555
C63 C62 1_555 1_555
H47 C63 1_555 1_555
C64 N12 1_555 1_555
H48 C64 1_555 1_555
N13 N14 1_555 1_555
N14 Zn2 1_555 1_555
C65 N14 1_555 1_555
C66 C65 1_555 1_555
H49 C66 1_555 1_555
C67 N13 1_555 1_555
H50 C67 1_555 1_555
C68 N13 1_555 1_555
H51 C68 1_555 1_555
N15 Zn2 1_555 1_555
C69 C65 1_555 1_555
C70 C69 1_555 1_555
H52 C70 1_555 1_555
C71 C70 1_555 1_555
H53 C71 1_555 1_555
C72 C71 1_555 1_555
H54 C72 1_555 1_555
C73 N15 1_555 1_555
H55 C73 1_555 1_555
N16 C74 1_555 1_555
C74 H56 1_555 1_555
C75 N16 1_555 1_555
H57 C75 1_555 1_555
H58 C75 1_555 1_555
C76 C68 1_555 1_555
C77 C76 1_555 1_555
H59 C77 1_555 1_555
C78 C77 1_555 1_555
H60 C78 1_555 1_555
C79 C78 1_555 1_555
H61 C79 1_555 1_555
C80 C79 1_555 1_555
C81 C76 1_555 1_555
C82 H62 1_555 1_555
C83 C82 1_555 1_555
H63 C83 1_555 1_555
C84 C83 1_555 1_555
H64 C84 1_555 1_555
C85 C75 1_555 1_555
C86 C85 1_555 1_555
C87 C82 1_555 1_555
C88 C80 1_555 1_555
H65 C88 1_555 1_555
C89 C81 1_555 1_555
H66 C89 1_555 1_555
N17 Zn2 1_555 1_555
C90 N17 1_555 1_555
C91 C74 1_555 1_555
H67 C91 1_555 1_555
N18 Zn2 1_555 1_555
C92 C90 1_555 1_555
C93 C92 1_555 1_555
H68 C93 1_555 1_555
C94 C93 1_555 1_555
H69 C94 1_555 1_555
C95 C94 1_555 1_555
H70 C95 1_555 1_555
C96 N18 1_555 1_555
H71 C96 1_555 1_555
B1 F1 1_555 1_555
F2 B1 1_555 1_555
B2 F3 1_555 1_555
F4 B2 1_555 1_555
F5 B2 1_555 1_555
F6 B2 1_555 1_555
Si1 F7 1_555 1_555
F8 Si1 1_555 1_555
Si2 F9 1_555 1_555
F10 Si2 1_555 1_555
N19 C97 1_555 1_555
C97 C98 1_555 1_555
N20 C99 1_555 1_555
C99 C100 1_555 1_555
Zn1I N2I 1_555 1_555
Zn1F N2F 1_555 1_555
Zn2F N5F 1_555 1_555
Zn2I N5I 1_555 1_555
N1I N2I 1_555 1_555
N1F N2F 1_555 1_555
N2I C1I 1_555 1_555
N2F C1F 1_555 1_555
C1I C2I 1_555 1_555
C1F C2F 1_555 1_555
C2I H1I 1_555 1_555
C2F H1F 1_555 1_555
C3I N1I 1_555 1_555
C3F N1F 1_555 1_555
H2F C3F 1_555 1_555
H2I C3I 1_555 1_555
C4F N1F 1_555 1_555
C4I N1I 1_555 1_555
H3F C4F 1_555 1_555
H3I C4I 1_555 1_555
H4F C4F 1_555 1_555
H4I C4I 1_555 1_555
N3I Zn1I 1_555 1_555
N3F Zn1F 1_555 1_555
C5I C1I 1_555 1_555
C5F C1F 1_555 1_555
C6F C5F 1_555 1_555
C6I C5I 1_555 1_555
H5F C6F 1_555 1_555
H5I C6I 1_555 1_555
C7F C6F 1_555 1_555
C7I C6I 1_555 1_555
H6F C7F 1_555 1_555
H6I C7I 1_555 1_555
C8F C7F 1_555 1_555
C8I C7I 1_555 1_555
H7F C8F 1_555 1_555
H7I C8I 1_555 1_555
C9F N3F 1_555 1_555
C9I N3I 1_555 1_555
H8F C9F 1_555 1_555
H8I C9I 1_555 1_555
N4F N5F 1_555 1_555
N4I N5I 1_555 1_555
N5F C10F 1_555 1_555
N5I C10I 1_555 1_555
C10F C11F 1_555 1_555
C10I C11I 1_555 1_555
C11F H9F 1_555 1_555
C11I H9I 1_555 1_555
C12F N4F 1_555 1_555
C12I N4I 1_555 1_555
H10F C12F 1_555 1_555
H10I C12I 1_555 1_555
C13F N4F 1_555 1_555
C13I N4I 1_555 1_555
H11I C13I 1_555 1_555
H11F C13F 1_555 1_555
H12I C13I 1_555 1_555
H12F C13F 1_555 1_555
N6F Zn2F 1_555 1_555
N6I Zn2I 1_555 1_555
C14F C10F 1_555 1_555
C14I C10I 1_555 1_555
C15F C14F 1_555 1_555
C15I C14I 1_555 1_555
H13F C15F 1_555 1_555
H13I C15I 1_555 1_555
C16F C15F 1_555 1_555
C16I C15I 1_555 1_555
H14F C16F 1_555 1_555
H14I C16I 1_555 1_555
C17F C16F 1_555 1_555
C17I C16I 1_555 1_555
H15F C17F 1_555 1_555
H15I C17I 1_555 1_555
C18F N6F 1_555 1_555
C18I N6I 1_555 1_555
H16F C18F 1_555 1_555
H16I C18I 1_555 1_555
C19F C4F 1_555 1_555
C19I C4I 1_555 1_555
C20F C19F 1_555 1_555
C20I C19I 1_555 1_555
H17F C20F 1_555 1_555
H17I C20I 1_555 1_555
C21F C20F 1_555 1_555
C21I C20I 1_555 1_555
H18F C21F 1_555 1_555
H18I C21I 1_555 1_555
C22F C21F 1_555 1_555
C22I C21I 1_555 1_555
H19F C22F 1_555 1_555
H19I C22I 1_555 1_555
C23F C22F 1_555 1_555
C23I C22I 1_555 1_555
C24F C19F 1_555 1_555
C24I C19I 1_555 1_555
C25I H20I 1_555 1_555
C25F H20F 1_555 1_555
C26I C25I 1_555 1_555
C26F C25F 1_555 1_555
H21I C26I 1_555 1_555
H21F C26F 1_555 1_555
C27I C26I 1_555 1_555
C27F C26F 1_555 1_555
H22I C27I 1_555 1_555
H22F C27F 1_555 1_555
C28F C13F 1_555 1_555
C28I C13I 1_555 1_555
C29F C28F 1_555 1_555
C29I C28I 1_555 1_555
C30I C25I 1_555 1_555
C30F C25F 1_555 1_555
C31I C23I 1_555 1_555
C31F C23F 1_555 1_555
H23I C31I 1_555 1_555
H23F C31F 1_555 1_555
C32F C24F 1_555 1_555
C32I C24I 1_555 1_555
H24I C32I 1_555 1_555
H24F C32F 1_555 1_555
N7I Zn1I 1_555 1_555
N7F Zn1F 1_555 1_555
N8I N7I 1_555 1_555
N8F N7F 1_555 1_555
C33I N7I 1_555 1_555
C33F N7F 1_555 1_555
C34I C33I 1_555 1_555
C34F C33F 1_555 1_555
H25I C34I 1_555 1_555
H25F C34F 1_555 1_555
C35I N8I 1_555 1_555
C35F N8F 1_555 1_555
H26I C35I 1_555 1_555
H26F C35F 1_555 1_555
C36I N8I 1_555 1_555
C36F N8F 1_555 1_555
H27F C36F 1_555 1_555
H27I C36I 1_555 1_555
H28F C36F 1_555 1_555
H28I C36I 1_555 1_555
N9I Zn1I 1_555 1_555
N9F Zn1F 1_555 1_555
C37I C33I 1_555 1_555
C37F C33F 1_555 1_555
C38I C37I 1_555 1_555
C38F C37F 1_555 1_555
H29I C38I 1_555 1_555
H29F C38F 1_555 1_555
C39I C38I 1_555 1_555
C39F C38F 1_555 1_555
H30I C39I 1_555 1_555
H30F C39F 1_555 1_555
C40I C39I 1_555 1_555
C40F C39F 1_555 1_555
H31I C40I 1_555 1_555
H31F C40F 1_555 1_555
C41I N9I 1_555 1_555
C41F N9F 1_555 1_555
H32I C41I 1_555 1_555
H32F C41F 1_555 1_555
C42I H33I 1_555 1_555
C42F H33F 1_555 1_555
H34I C42I 1_555 1_555
H34F C42F 1_555 1_555
C43I C36I 1_555 1_555
C43F C36F 1_555 1_555
C44F C43F 1_555 1_555
C44I C43I 1_555 1_555
H35F C44F 1_555 1_555
H35I C44I 1_555 1_555
C45F C44F 1_555 1_555
C45I C44I 1_555 1_555
H36F C45F 1_555 1_555
H36I C45I 1_555 1_555
C46F C45F 1_555 1_555
C46I C45I 1_555 1_555
H37F C46F 1_555 1_555
H37I C46I 1_555 1_555
C47F C46F 1_555 1_555
C47I C46I 1_555 1_555
C48I C43I 1_555 1_555
C48F C43F 1_555 1_555
C49I H38I 1_555 1_555
C49F H38F 1_555 1_555
C50I C49I 1_555 1_555
C50F C49F 1_555 1_555
H39F C50F 1_555 1_555
H39I C50I 1_555 1_555
C51I C50I 1_555 1_555
C51F C50F 1_555 1_555
H40F C51F 1_555 1_555
H40I C51I 1_555 1_555
C52I C42I 1_555 1_555
C52F C42F 1_555 1_555
C53I C52I 1_555 1_555
C53F C52F 1_555 1_555
C54I C49I 1_555 1_555
C54F C49F 1_555 1_555
C55F C47F 1_555 1_555
C55I C47I 1_555 1_555
H41F C55F 1_555 1_555
H41I C55I 1_555 1_555
C56I C48I 1_555 1_555
C56F C48F 1_555 1_555
H42F C56F 1_555 1_555
H42I C56I 1_555 1_555
N10I N11 1_555 1_555
N10F C42F 1_555 1_555
N11I Zn1I 1_555 1_555
N11F N10 1_555 1_555
C57F N11F 1_555 1_555
C57I N11I 1_555 1_555
C58F C59 1_555 1_555
C58I C57I 1_555 1_555
H43F C58F 1_555 1_555
H43I C58I 1_555 1_555
C59F N10F 1_555 1_555
C59I C58 1_555 1_555
H44F C59F 1_555 1_555
H44I C59I 1_555 1_555
N12F Zn1F 1_555 1_555
N12I Zn1I 1_555 1_555
C60F C57F 1_555 1_555
C60I C57I 1_555 1_555
C61F C60F 1_555 1_555
C61I C60I 1_555 1_555
H45F C61F 1_555 1_555
H45I C61I 1_555 1_555
C62F C61F 1_555 1_555
C62I C61I 1_555 1_555
H46F C62F 1_555 1_555
H46I C62I 1_555 1_555
C63F C62F 1_555 1_555
C63I C62I 1_555 1_555
H47F C63F 1_555 1_555
H47I C63I 1_555 1_555
C64F N12F 1_555 1_555
C64I N12I 1_555 1_555
H48F C64F 1_555 1_555
H48I C64I 1_555 1_555
N13F N14F 1_555 1_555
N13I N14I 1_555 1_555
N14F Zn2F 1_555 1_555
N14I Zn2I 1_555 1_555
C65F N14F 1_555 1_555
C65I N14I 1_555 1_555
C66F C65F 1_555 1_555
C66I C65I 1_555 1_555
H49I C66I 1_555 1_555
H49F C66F 1_555 1_555
C67F N13F 1_555 1_555
C67I N13I 1_555 1_555
H50I C67I 1_555 1_555
H50F C67F 1_555 1_555
C68I N13I 1_555 1_555
C68F N13F 1_555 1_555
H51F C68F 1_555 1_555
H51I C68I 1_555 1_555
N15F Zn2F 1_555 1_555
N15I Zn2I 1_555 1_555
C69F C65F 1_555 1_555
C69I C65I 1_555 1_555
C70I C69I 1_555 1_555
C70F C69F 1_555 1_555
H52I C70I 1_555 1_555
H52F C70F 1_555 1_555
C71I C70I 1_555 1_555
C71F C70F 1_555 1_555
H53I C71I 1_555 1_555
H53F C71F 1_555 1_555
C72I C71I 1_555 1_555
C72F C71F 1_555 1_555
H54I C72I 1_555 1_555
H54F C72F 1_555 1_555
C73I N15I 1_555 1_555
C73F N15F 1_555 1_555
H55I C73I 1_555 1_555
H55F C73F 1_555 1_555
N16I C74I 1_555 1_555
N16F N17 1_555 1_555
C74I H56I 1_555 1_555
C74F N16F 1_555 1_555
H56F C74F 1_555 1_555
C75I N16I 1_555 1_555
C75F N16F 1_555 1_555
H57I C75I 1_555 1_555
H57F C75F 1_555 1_555
H58I C75I 1_555 1_555
H58F C75F 1_555 1_555
C76I C68I 1_555 1_555
C76F C68F 1_555 1_555
C77F C76F 1_555 1_555
C77I C76I 1_555 1_555
H59F C77F 1_555 1_555
H59I C77I 1_555 1_555
C78F C77F 1_555 1_555
C78I C77I 1_555 1_555
H60F C78F 1_555 1_555
H60I C78I 1_555 1_555
C79F C78F 1_555 1_555
C79I C78I 1_555 1_555
H61F C79F 1_555 1_555
H61I C79I 1_555 1_555
C80F C79F 1_555 1_555
C80I C79I 1_555 1_555
C81I C76I 1_555 1_555
C81F C76F 1_555 1_555
C82I H62I 1_555 1_555
C82F H62F 1_555 1_555
C83I C82I 1_555 1_555
C83F C82F 1_555 1_555
H63F C83F 1_555 1_555
H63I C83I 1_555 1_555
C84I C83I 1_555 1_555
C84F C83F 1_555 1_555
H64F C84F 1_555 1_555
H64I C84I 1_555 1_555
C85I C75I 1_555 1_555
C85F C75F 1_555 1_555
C86I C85I 1_555 1_555
C86F C85F 1_555 1_555
C87I C82I 1_555 1_555
C87F C82F 1_555 1_555
C88F C80F 1_555 1_555
C88I C80I 1_555 1_555
H65F C88F 1_555 1_555
H65I C88I 1_555 1_555
C89I C81I 1_555 1_555
C89F C81F 1_555 1_555
H66F C89F 1_555 1_555
H66I C89I 1_555 1_555
N17F Zn2F 1_555 1_555
N17I N16 1_555 1_555
C90F N17F 1_555 1_555
C90I C91 1_555 1_555
C91I C74I 1_555 1_555
C91F C90 1_555 1_555
H67I C91I 1_555 1_555
H67F C91F 1_555 1_555
N18F Zn2F 1_555 1_555
N18I Zn2I 1_555 1_555
C92F C90F 1_555 1_555
C92I C90I 1_555 1_555
C93F C92F 1_555 1_555
C93I C92I 1_555 1_555
H68F C93F 1_555 1_555
H68I C93I 1_555 1_555
C94F C93F 1_555 1_555
C94I C93I 1_555 1_555
H69F C94F 1_555 1_555
H69I C94I 1_555 1_555
C95F C94F 1_555 1_555
C95I C94I 1_555 1_555
H70F C95F 1_555 1_555
H70I C95I 1_555 1_555
C96F N18F 1_555 1_555
C96I N18I 1_555 1_555
H71F C96F 1_555 1_555
H71I C96I 1_555 1_555
F2F B1 1_555 1_555
F2I B1 1_555 1_555
F7F Si1 1_555 1_555
F7I Si1 1_555 1_555
F8F Si1 1_555 1_555
F8I Si1 1_555 1_555
F9F Si2 1_555 1_555
F9I Si2 1_555 1_555
F10F Si2 1_555 1_555
F10I Si2 1_555 1_555
C2 C3 1_555 1_555
N3 C5 1_555 1_555
C8 C9 1_555 1_555
C11 C12 1_555 1_555
N6 C14 1_555 1_555
C17 C18 1_555 1_555
C23 C24 1_555 1_555
C27 C28 1_555 1_555
C29 C30 1_555 1_555
C29 C32 1_555 1_555
C30 C31 1_555 1_555
C34 C35 1_555 1_555
N9 C37 1_555 1_555
C40 C41 1_555 1_555
C47 C48 1_555 1_555
C51 C52 1_555 1_555
C53 C54 1_555 1_555
C53 C56 1_555 1_555
C54 C55 1_555 1_555
N12 C60 1_555 1_555
C63 C64 1_555 1_555
C66 C67 1_555 1_555
N15 C69 1_555 1_555
C72 C73 1_555 1_555
C80 C81 1_555 1_555
C84 C85 1_555 1_555
C86 C87 1_555 1_555
C86 C89 1_555 1_555
C87 C88 1_555 1_555
N18 C92 1_555 1_555
C95 C96 1_555 1_555
Zn1F N11F 1_555 1_555
Zn2I N17I 1_555 1_555
C2I C3I 1_555 1_555
C2F C3F 1_555 1_555
N3I C5I 1_555 1_555
N3F C5F 1_555 1_555
C8F C9F 1_555 1_555
C8I C9I 1_555 1_555
C11F C12F 1_555 1_555
C11I C12I 1_555 1_555
N6F C14F 1_555 1_555
N6I C14I 1_555 1_555
C17F C18F 1_555 1_555
C17I C18I 1_555 1_555
C23F C24F 1_555 1_555
C23I C24I 1_555 1_555
C27I C28I 1_555 1_555
C27F C28F 1_555 1_555
C29F C30F 1_555 1_555
C29F C32F 1_555 1_555
C29I C30I 1_555 1_555
C29I C32I 1_555 1_555
C30I C31I 1_555 1_555
C30F C31F 1_555 1_555
C34I C35I 1_555 1_555
C34F C35F 1_555 1_555
N9I C37I 1_555 1_555
N9F C37F 1_555 1_555
C40I C41I 1_555 1_555
C40F C41F 1_555 1_555
C42I N10I 1_555 1_555
C47F C48F 1_555 1_555
C47I C48I 1_555 1_555
C51I C52I 1_555 1_555
C51F C52F 1_555 1_555
C53I C54I 1_555 1_555
C53I C56I 1_555 1_555
C53F C54F 1_555 1_555
C53F C56F 1_555 1_555
C54I C55I 1_555 1_555
C54F C55F 1_555 1_555
N10I C59I 1_555 1_555
N10F N11I 1_555 1_555
C57F C58F 1_555 1_555
C58I C59F 1_555 1_555
N12F C60F 1_555 1_555
N12I C60I 1_555 1_555
C63F C64F 1_555 1_555
C63I C64I 1_555 1_555
C66F C67F 1_555 1_555
C66I C67I 1_555 1_555
N15F C69F 1_555 1_555
N15I C69I 1_555 1_555
C72I C73I 1_555 1_555
C72F C73F 1_555 1_555
N16I N17F 1_555 1_555
C74F C91F 1_555 1_555
C80F C81F 1_555 1_555
C80I C81I 1_555 1_555
C84I C85I 1_555 1_555
C84F C85F 1_555 1_555
C86I C87I 1_555 1_555
C86I C89I 1_555 1_555
C86F C87F 1_555 1_555
C86F C89F 1_555 1_555
C87I C88I 1_555 1_555
C87F C88F 1_555 1_555
N17I C90I 1_555 1_555
C90F C91I 1_555 1_555
N18F C92F 1_555 1_555
N18I C92I 1_555 1_555
C95F C96F 1_555 1_555
C95I C96I 1_555 1_555

#END
