# generated using pymatgen
data_Zn6Si2B4H213C300(N15F7)4
_symmetry_space_group_name_H-M   'P 1'
_cell_length_a   35.42087203
_cell_length_b   35.42087203
_cell_length_c   35.42087203
_cell_angle_alpha   109.47122063
_cell_angle_beta   109.47122063
_cell_angle_gamma   109.47122063
_symmetry_Int_Tables_number   1
_chemical_formula_structural   Zn6Si2B4H213C300(N15F7)4
_chemical_formula_sum   'Zn24 Si8 B16 H852 C1200 N240 F112'
_cell_volume   34210.21912284
_cell_formula_units_Z   4
loop_
 _symmetry_equiv_pos_site_id
 _symmetry_equiv_pos_as_xyz
  1  'x, y, z'
loop_
 _atom_site_type_symbol
 _atom_site_label
 _atom_site_symmetry_multiplicity
 _atom_site_fract_x
 _atom_site_fract_y
 _atom_site_fract_z
 _atom_site_occupancy
  B  B1  1  0.000000  0.000000  0.524640  1
  B  B2  1  0.000000  0.524640  0.000000  1
  B  B3  1  0.524640  0.000000  0.000000  1
  B  B4  1  0.475360  0.475360  0.475360  1
  B  B5  1  0.961100  0.290000  0.636700  1
  B  B6  1  0.038900  0.675600  0.328900  1
  B  B7  1  0.346700  0.710000  0.671100  1
  B  B8  1  0.653300  0.324400  0.363300  1
  B  B9  1  0.290000  0.636700  0.961100  1
  B  B10  1  0.675600  0.328900  0.038900  1
  B  B11  1  0.710000  0.671100  0.346700  1
  B  B12  1  0.324400  0.363300  0.653300  1
  B  B13  1  0.636700  0.961100  0.290000  1
  B  B14  1  0.328900  0.038900  0.675600  1
  B  B15  1  0.671100  0.346700  0.710000  1
  B  B16  1  0.363300  0.653300  0.324400  1
  C  C17  1  0.738000  0.966400  0.424200  1
  C  C18  1  0.262000  0.686200  0.228400  1
  C  C19  1  0.457800  0.033600  0.771600  1
  C  C20  1  0.542200  0.313800  0.575800  1
  C  C21  1  0.966400  0.424200  0.738000  1
  C  C22  1  0.686200  0.228400  0.262000  1
  C  C23  1  0.033600  0.771600  0.457800  1
  C  C24  1  0.313800  0.575800  0.542200  1
  C  C25  1  0.424200  0.738000  0.966400  1
  C  C26  1  0.228400  0.262000  0.686200  1
  C  C27  1  0.771600  0.457800  0.033600  1
  C  C28  1  0.575800  0.542200  0.313800  1
  C  C29  1  0.686900  0.938700  0.399600  1
  C  C30  1  0.313100  0.712700  0.251800  1
  C  C31  1  0.460900  0.061300  0.748200  1
  C  C32  1  0.539100  0.287300  0.600400  1
  C  C33  1  0.938700  0.399600  0.686900  1
  C  C34  1  0.712700  0.251800  0.313100  1
  C  C35  1  0.061300  0.748200  0.460900  1
  C  C36  1  0.287300  0.600400  0.539100  1
  C  C37  1  0.399600  0.686900  0.938700  1
  C  C38  1  0.251800  0.313100  0.712700  1
  C  C39  1  0.748200  0.460900  0.061300  1
  C  C40  1  0.600400  0.539100  0.287300  1
  C  C41  1  0.666500  0.787300  0.352400  1
  C  C42  1  0.333500  0.685900  0.120800  1
  C  C43  1  0.565100  0.212700  0.879200  1
  C  C44  1  0.434900  0.314100  0.647600  1
  C  C45  1  0.787300  0.352400  0.666500  1
  C  C46  1  0.685900  0.120800  0.333500  1
  C  C47  1  0.212700  0.879200  0.565100  1
  C  C48  1  0.314100  0.647600  0.434900  1
  C  C49  1  0.352400  0.666500  0.787300  1
  C  C50  1  0.120800  0.333500  0.685900  1
  C  C51  1  0.879200  0.565100  0.212700  1
  C  C52  1  0.647600  0.434900  0.314100  1
  C  C53  1  0.655800  0.750300  0.310500  1
  C  C54  1  0.344200  0.654700  0.094500  1
  C  C55  1  0.560200  0.249700  0.905500  1
  C  C56  1  0.439800  0.345300  0.689500  1
  C  C57  1  0.750300  0.310500  0.655800  1
  C  C58  1  0.654700  0.094500  0.344200  1
  C  C59  1  0.249700  0.905500  0.560200  1
  C  C60  1  0.345300  0.689500  0.439800  1
  C  C61  1  0.310500  0.655800  0.750300  1
  C  C62  1  0.094500  0.344200  0.654700  1
  C  C63  1  0.905500  0.560200  0.249700  1
  C  C64  1  0.689500  0.439800  0.345300  1
  C  C65  1  0.010600  0.228100  0.487900  1.0
  C  C66  1  0.989400  0.477300  0.217500  1.0
  C  C67  1  0.259800  0.771900  0.782500  1.0
  C  C68  1  0.740200  0.522700  0.512100  1.0
  C  C69  1  0.228100  0.487900  0.010600  1.0
  C  C70  1  0.477300  0.217500  0.989400  1.0
  C  C71  1  0.771900  0.782500  0.259800  1.0
  C  C72  1  0.522700  0.512100  0.740200  1.0
  C  C73  1  0.487900  0.010600  0.228100  1.0
  C  C74  1  0.217500  0.989400  0.477300  1.0
  C  C75  1  0.782500  0.259800  0.771900  1.0
  C  C76  1  0.512100  0.740200  0.522700  1.0
  C  C77  1  0.027300  0.269600  0.526100  1.0
  C  C78  1  0.972700  0.498800  0.242300  1.0
  C  C79  1  0.256500  0.730400  0.757700  1.0
  C  C80  1  0.743500  0.501200  0.473900  1.0
  C  C81  1  0.269600  0.526100  0.027300  1.0
  C  C82  1  0.498800  0.242300  0.972700  1.0
  C  C83  1  0.730400  0.757700  0.256500  1.0
  C  C84  1  0.501200  0.473900  0.743500  1.0
  C  C85  1  0.526100  0.027300  0.269600  1.0
  C  C86  1  0.242300  0.972700  0.498800  1.0
  C  C87  1  0.757700  0.256500  0.730400  1.0
  C  C88  1  0.473900  0.743500  0.501200  1.0
  C  C89  1  0.996700  0.263700  0.540400  1.0
  C  C90  1  0.003300  0.543700  0.267000  1.0
  C  C91  1  0.276700  0.736300  0.733000  1.0
  C  C92  1  0.723300  0.456300  0.459600  1.0
  C  C93  1  0.263700  0.540400  0.996700  1.0
  C  C94  1  0.543700  0.267000  0.003300  1.0
  C  C95  1  0.736300  0.733000  0.276700  1.0
  C  C96  1  0.456300  0.459600  0.723300  1.0
  C  C97  1  0.540400  0.996700  0.263700  1.0
  C  C98  1  0.267000  0.003300  0.543700  1.0
  C  C99  1  0.733000  0.276700  0.736300  1.0
  C  C100  1  0.459600  0.723300  0.456300  1.0
  C  C101  1  0.916900  0.192600  0.509900  1.0
  C  C102  1  0.083100  0.593000  0.275700  1.0
  C  C103  1  0.317300  0.807400  0.724300  1.0
  C  C104  1  0.682700  0.407000  0.490100  1.0
  C  C105  1  0.192600  0.509900  0.916900  1.0
  C  C106  1  0.593000  0.275700  0.083100  1.0
  C  C107  1  0.807400  0.724300  0.317300  1.0
  C  C108  1  0.407000  0.490100  0.682700  1.0
  C  C109  1  0.509900  0.916900  0.192600  1.0
  C  C110  1  0.275700  0.083100  0.593000  1.0
  C  C111  1  0.724300  0.317300  0.807400  1.0
  C  C112  1  0.490100  0.682700  0.407000  1.0
  C  C113  1  0.029560  0.214300  0.459660  1.0
  C  C114  1  0.970440  0.430100  0.184740  1.0
  C  C115  1  0.245360  0.785700  0.815260  1.0
  C  C116  1  0.754640  0.569900  0.540340  1.0
  C  C117  1  0.214300  0.459660  0.029560  1.0
  C  C118  1  0.430100  0.184740  0.970440  1.0
  C  C119  1  0.785700  0.815260  0.245360  1.0
  C  C120  1  0.569900  0.540340  0.754640  1.0
  C  C121  1  0.459660  0.029560  0.214300  1.0
  C  C122  1  0.184740  0.970440  0.430100  1.0
  C  C123  1  0.815260  0.245360  0.785700  1.0
  C  C124  1  0.540340  0.754640  0.569900  1.0
  C  C125  1  0.074100  0.243100  0.469600  1.0
  C  C126  1  0.925900  0.395500  0.169000  1.0
  C  C127  1  0.226500  0.756900  0.831000  1.0
  C  C128  1  0.773500  0.604500  0.530400  1.0
  C  C129  1  0.243100  0.469600  0.074100  1.0
  C  C130  1  0.395500  0.169000  0.925900  1.0
  C  C131  1  0.756900  0.831000  0.226500  1.0
  C  C132  1  0.604500  0.530400  0.773500  1.0
  C  C133  1  0.469600  0.074100  0.243100  1.0
  C  C134  1  0.169000  0.925900  0.395500  1.0
  C  C135  1  0.831000  0.226500  0.756900  1.0
  C  C136  1  0.530400  0.773500  0.604500  1.0
  C  C137  1  0.089900  0.227000  0.442500  1.0
  C  C138  1  0.910100  0.352600  0.137100  1.0
  C  C139  1  0.215500  0.773000  0.862900  1.0
  C  C140  1  0.784500  0.647400  0.557500  1.0
  C  C141  1  0.227000  0.442500  0.089900  1.0
  C  C142  1  0.352600  0.137100  0.910100  1.0
  C  C143  1  0.773000  0.862900  0.215500  1.0
  C  C144  1  0.647400  0.557500  0.784500  1.0
  C  C145  1  0.442500  0.089900  0.227000  1.0
  C  C146  1  0.137100  0.910100  0.352600  1.0
  C  C147  1  0.862900  0.215500  0.773000  1.0
  C  C148  1  0.557500  0.784500  0.647400  1.0
  C  C149  1  0.064500  0.182200  0.405100  1.0
  C  C150  1  0.935500  0.340600  0.117700  1.0
  C  C151  1  0.222900  0.817800  0.882300  1.0
  C  C152  1  0.777100  0.659400  0.594900  1.0
  C  C153  1  0.182200  0.405100  0.064500  1.0
  C  C154  1  0.340600  0.117700  0.935500  1.0
  C  C155  1  0.817800  0.882300  0.222900  1.0
  C  C156  1  0.659400  0.594900  0.777100  1.0
  C  C157  1  0.405100  0.064500  0.182200  1.0
  C  C158  1  0.117700  0.935500  0.340600  1.0
  C  C159  1  0.882300  0.222900  0.817800  1.0
  C  C160  1  0.594900  0.777100  0.659400  1.0
  C  C161  1  0.021940  0.154620  0.397120  1.0
  C  C162  1  0.978060  0.375180  0.132680  1.0
  C  C163  1  0.242500  0.845380  0.867320  1.0
  C  C164  1  0.757500  0.624820  0.602880  1.0
  C  C165  1  0.154620  0.397120  0.021940  1.0
  C  C166  1  0.375180  0.132680  0.978060  1.0
  C  C167  1  0.845380  0.867320  0.242500  1.0
  C  C168  1  0.624820  0.602880  0.757500  1.0
  C  C169  1  0.397120  0.021940  0.154620  1.0
  C  C170  1  0.132680  0.978060  0.375180  1.0
  C  C171  1  0.867320  0.242500  0.845380  1.0
  C  C172  1  0.602880  0.757500  0.624820  1.0
  C  C173  1  0.892300  0.131720  0.656620  1.0
  C  C174  1  0.107700  0.764320  0.239420  1.0
  C  C175  1  0.524900  0.868280  0.760580  1.0
  C  C176  1  0.475100  0.235680  0.343380  1.0
  C  C177  1  0.131720  0.656620  0.892300  1.0
  C  C178  1  0.764320  0.239420  0.107700  1.0
  C  C179  1  0.868280  0.760580  0.524900  1.0
  C  C180  1  0.235680  0.343380  0.475100  1.0
  C  C181  1  0.656620  0.892300  0.131720  1.0
  C  C182  1  0.239420  0.107700  0.764320  1.0
  C  C183  1  0.760580  0.524900  0.868280  1.0
  C  C184  1  0.343380  0.475100  0.235680  1.0
  C  C185  1  0.893200  0.171600  0.654600  1.0
  C  C186  1  0.106800  0.761400  0.278400  1.0
  C  C187  1  0.483000  0.828400  0.721600  1.0
  C  C188  1  0.517000  0.238600  0.345400  1.0
  C  C189  1  0.171600  0.654600  0.893200  1.0
  C  C190  1  0.761400  0.278400  0.106800  1.0
  C  C191  1  0.828400  0.721600  0.483000  1.0
  C  C192  1  0.238600  0.345400  0.517000  1.0
  C  C193  1  0.654600  0.893200  0.171600  1.0
  C  C194  1  0.278400  0.106800  0.761400  1.0
  C  C195  1  0.721600  0.483000  0.828400  1.0
  C  C196  1  0.345400  0.517000  0.238600  1.0
  C  C197  1  0.863000  0.155600  0.610600  1.0
  C  C198  1  0.137000  0.747600  0.292600  1.0
  C  C199  1  0.455000  0.844400  0.707400  1.0
  C  C200  1  0.545000  0.252400  0.389400  1.0
  C  C201  1  0.155600  0.610600  0.863000  1.0
  C  C202  1  0.747600  0.292600  0.137000  1.0
  C  C203  1  0.844400  0.707400  0.455000  1.0
  C  C204  1  0.252400  0.389400  0.545000  1.0
  C  C205  1  0.610600  0.863000  0.155600  1.0
  C  C206  1  0.292600  0.137000  0.747600  1.0
  C  C207  1  0.707400  0.455000  0.844400  1.0
  C  C208  1  0.389400  0.545000  0.252400  1.0
  C  C209  1  0.813400  0.075300  0.537500  1.0
  C  C210  1  0.186600  0.724100  0.261900  1.0
  C  C211  1  0.462200  0.924700  0.738100  1.0
  C  C212  1  0.537800  0.275900  0.462500  1.0
  C  C213  1  0.075300  0.537500  0.813400  1.0
  C  C214  1  0.724100  0.261900  0.186600  1.0
  C  C215  1  0.924700  0.738100  0.462200  1.0
  C  C216  1  0.275900  0.462500  0.537800  1.0
  C  C217  1  0.537500  0.813400  0.075300  1.0
  C  C218  1  0.261900  0.186600  0.724100  1.0
  C  C219  1  0.738100  0.462200  0.924700  1.0
  C  C220  1  0.462500  0.537800  0.275900  1.0
  C  C221  1  0.916350  0.127530  0.695080  1.0
  C  C222  1  0.083650  0.778730  0.211180  1.0
  C  C223  1  0.567550  0.872470  0.788820  1.0
  C  C224  1  0.432450  0.221270  0.304920  1.0
  C  C225  1  0.127530  0.695080  0.916350  1.0
  C  C226  1  0.778730  0.211180  0.083650  1.0
  C  C227  1  0.872470  0.788820  0.567550  1.0
  C  C228  1  0.221270  0.304920  0.432450  1.0
  C  C229  1  0.695080  0.916350  0.127530  1.0
  C  C230  1  0.211180  0.083650  0.778730  1.0
  C  C231  1  0.788820  0.567550  0.872470  1.0
  C  C232  1  0.304920  0.432450  0.221270  1.0
  C  C233  1  0.949110  0.164370  0.739540  1.0
  C  C234  1  0.050890  0.790430  0.215260  1.0
  C  C235  1  0.575170  0.835630  0.784740  1.0
  C  C236  1  0.424830  0.209570  0.260460  1.0
  C  C237  1  0.164370  0.739540  0.949110  1.0
  C  C238  1  0.790430  0.215260  0.050890  1.0
  C  C239  1  0.835630  0.784740  0.575170  1.0
  C  C240  1  0.209570  0.260460  0.424830  1.0
  C  C241  1  0.739540  0.949110  0.164370  1.0
  C  C242  1  0.215260  0.050890  0.790430  1.0
  C  C243  1  0.784740  0.575170  0.835630  1.0
  C  C244  1  0.260460  0.424830  0.209570  1.0
  C  C245  1  0.972030  0.156450  0.773800  1.0
  C  C246  1  0.027970  0.801770  0.184420  1.0
  C  C247  1  0.617350  0.843550  0.815580  1.0
  C  C248  1  0.382650  0.198230  0.226200  1.0
  C  C249  1  0.156450  0.773800  0.972030  1.0
  C  C250  1  0.801770  0.184420  0.027970  1.0
  C  C251  1  0.843550  0.815580  0.617350  1.0
  C  C252  1  0.198230  0.226200  0.382650  1.0
  C  C253  1  0.773800  0.972030  0.156450  1.0
  C  C254  1  0.184420  0.027970  0.801770  1.0
  C  C255  1  0.815580  0.617350  0.843550  1.0
  C  C256  1  0.226200  0.382650  0.198230  1.0
  C  C257  1  0.962170  0.111680  0.763590  1.0
  C  C258  1  0.037830  0.801420  0.149510  1.0
  C  C259  1  0.651910  0.888320  0.850490  1.0
  C  C260  1  0.348090  0.198580  0.236410  1.0
  C  C261  1  0.111680  0.763590  0.962170  1.0
  C  C262  1  0.801420  0.149510  0.037830  1.0
  C  C263  1  0.888320  0.850490  0.651910  1.0
  C  C264  1  0.198580  0.236410  0.348090  1.0
  C  C265  1  0.763590  0.962170  0.111680  1.0
  C  C266  1  0.149510  0.037830  0.801420  1.0
  C  C267  1  0.850490  0.651910  0.888320  1.0
  C  C268  1  0.236410  0.348090  0.198580  1.0
  C  C269  1  0.929410  0.074830  0.719120  1.0
  C  C270  1  0.070590  0.789710  0.145420  1.0
  C  C271  1  0.644290  0.925170  0.854580  1.0
  C  C272  1  0.355710  0.210290  0.280880  1.0
  C  C273  1  0.074830  0.719120  0.929410  1.0
  C  C274  1  0.789710  0.145420  0.070590  1.0
  C  C275  1  0.925170  0.854580  0.644290  1.0
  C  C276  1  0.210290  0.280880  0.355710  1.0
  C  C277  1  0.719120  0.929410  0.074830  1.0
  C  C278  1  0.145420  0.070590  0.789710  1.0
  C  C279  1  0.854580  0.644290  0.925170  1.0
  C  C280  1  0.280880  0.355710  0.210290  1.0
  C  C281  1  0.877270  0.200320  0.489930  1.0
  C  C282  1  0.122730  0.612660  0.323050  1.0
  C  C283  1  0.289610  0.799680  0.676950  1.0
  C  C284  1  0.710390  0.387340  0.510070  1.0
  C  C285  1  0.200320  0.489930  0.877270  1.0
  C  C286  1  0.612660  0.323050  0.122730  1.0
  C  C287  1  0.799680  0.676950  0.289610  1.0
  C  C288  1  0.387340  0.510070  0.710390  1.0
  C  C289  1  0.489930  0.877270  0.200320  1.0
  C  C290  1  0.323050  0.122730  0.612660  1.0
  C  C291  1  0.676950  0.289610  0.799680  1.0
  C  C292  1  0.510070  0.710390  0.387340  1.0
  C  C293  1  0.883650  0.231780  0.474230  1.0
  C  C294  1  0.116350  0.590580  0.348130  1.0
  C  C295  1  0.242450  0.768220  0.651870  1.0
  C  C296  1  0.757550  0.409420  0.525770  1.0
  C  C297  1  0.231780  0.474230  0.883650  1.0
  C  C298  1  0.590580  0.348130  0.116350  1.0
  C  C299  1  0.768220  0.651870  0.242450  1.0
  C  C300  1  0.409420  0.525770  0.757550  1.0
  C  C301  1  0.474230  0.883650  0.231780  1.0
  C  C302  1  0.348130  0.116350  0.590580  1.0
  C  C303  1  0.651870  0.242450  0.768220  1.0
  C  C304  1  0.525770  0.757550  0.409420  1.0
  C  C305  1  0.847540  0.238970  0.454370  1.0
  C  C306  1  0.152460  0.606830  0.391430  1.0
  C  C307  1  0.215400  0.761030  0.608570  1.0
  C  C308  1  0.784600  0.393170  0.545630  1.0
  C  C309  1  0.238970  0.454370  0.847540  1.0
  C  C310  1  0.606830  0.391430  0.152460  1.0
  C  C311  1  0.761030  0.608570  0.215400  1.0
  C  C312  1  0.393170  0.545630  0.784600  1.0
  C  C313  1  0.454370  0.847540  0.238970  1.0
  C  C314  1  0.391430  0.152460  0.606830  1.0
  C  C315  1  0.608570  0.215400  0.761030  1.0
  C  C316  1  0.545630  0.784600  0.393170  1.0
  C  C317  1  0.805040  0.214680  0.450220  1.0
  C  C318  1  0.194960  0.645180  0.409640  1.0
  C  C319  1  0.235540  0.785320  0.590360  1.0
  C  C320  1  0.764460  0.354820  0.549780  1.0
  C  C321  1  0.214680  0.450220  0.805040  1.0
  C  C322  1  0.645180  0.409640  0.194960  1.0
  C  C323  1  0.785320  0.590360  0.235540  1.0
  C  C324  1  0.354820  0.549780  0.764460  1.0
  C  C325  1  0.450220  0.805040  0.214680  1.0
  C  C326  1  0.409640  0.194960  0.645180  1.0
  C  C327  1  0.590360  0.235540  0.785320  1.0
  C  C328  1  0.549780  0.764460  0.354820  1.0
  C  C329  1  0.798660  0.183210  0.465930  1.0
  C  C330  1  0.201340  0.667270  0.384550  1.0
  C  C331  1  0.282720  0.816790  0.615450  1.0
  C  C332  1  0.717280  0.332730  0.534070  1.0
  C  C333  1  0.183210  0.465930  0.798660  1.0
  C  C334  1  0.667270  0.384550  0.201340  1.0
  C  C335  1  0.816790  0.615450  0.282720  1.0
  C  C336  1  0.332730  0.534070  0.717280  1.0
  C  C337  1  0.465930  0.798660  0.183210  1.0
  C  C338  1  0.384550  0.201340  0.667270  1.0
  C  C339  1  0.615450  0.282720  0.816790  1.0
  C  C340  1  0.534070  0.717280  0.332730  1.0
  C  C341  1  0.834770  0.176030  0.485780  1.0
  C  C342  1  0.165230  0.651010  0.341260  1.0
  C  C343  1  0.309750  0.823970  0.658740  1.0
  C  C344  1  0.690250  0.348990  0.514220  1.0
  C  C345  1  0.176030  0.485780  0.834770  1.0
  C  C346  1  0.651010  0.341260  0.165230  1.0
  C  C347  1  0.823970  0.658740  0.309750  1.0
  C  C348  1  0.348990  0.514220  0.690250  1.0
  C  C349  1  0.485780  0.834770  0.176030  1.0
  C  C350  1  0.341260  0.165230  0.651010  1.0
  C  C351  1  0.658740  0.309750  0.823970  1.0
  C  C352  1  0.514220  0.690250  0.348990  1.0
  C  C353  1  0.706360  0.102590  0.474810  1.0
  C  C354  1  0.293640  0.768450  0.396230  1.0
  C  C355  1  0.372220  0.897410  0.603770  1.0
  C  C356  1  0.627780  0.231550  0.525190  1.0
  C  C357  1  0.102590  0.474810  0.706360  1.0
  C  C358  1  0.768450  0.396230  0.293640  1.0
  C  C359  1  0.897410  0.603770  0.372220  1.0
  C  C360  1  0.231550  0.525190  0.627780  1.0
  C  C361  1  0.474810  0.706360  0.102590  1.0
  C  C362  1  0.396230  0.293640  0.768450  1.0
  C  C363  1  0.603770  0.372220  0.897410  1.0
  C  C364  1  0.525190  0.627780  0.231550  1.0
  C  C365  1  0.698990  0.071680  0.491110  1.0
  C  C366  1  0.301010  0.792120  0.372690  1.0
  C  C367  1  0.419430  0.928320  0.627310  1.0
  C  C368  1  0.580570  0.207880  0.508890  1.0
  C  C369  1  0.071680  0.491110  0.698990  1.0
  C  C370  1  0.792120  0.372690  0.301010  1.0
  C  C371  1  0.928320  0.627310  0.419430  1.0
  C  C372  1  0.207880  0.508890  0.580570  1.0
  C  C373  1  0.491110  0.698990  0.071680  1.0
  C  C374  1  0.372690  0.301010  0.792120  1.0
  C  C375  1  0.627310  0.419430  0.928320  1.0
  C  C376  1  0.508890  0.580570  0.207880  1.0
  C  C377  1  0.734420  0.063970  0.511650  1.0
  C  C378  1  0.265580  0.777230  0.329550  1.0
  C  C379  1  0.447680  0.936030  0.670450  1.0
  C  C380  1  0.552320  0.222770  0.488350  1.0
  C  C381  1  0.063970  0.511650  0.734420  1.0
  C  C382  1  0.777230  0.329550  0.265580  1.0
  C  C383  1  0.936030  0.670450  0.447680  1.0
  C  C384  1  0.222770  0.488350  0.552320  1.0
  C  C385  1  0.511650  0.734420  0.063970  1.0
  C  C386  1  0.329550  0.265580  0.777230  1.0
  C  C387  1  0.670450  0.447680  0.936030  1.0
  C  C388  1  0.488350  0.552320  0.222770  1.0
  C  C389  1  0.777210  0.087130  0.515840  1.0
  C  C390  1  0.222790  0.738630  0.309920  1.0
  C  C391  1  0.428710  0.912870  0.690080  1.0
  C  C392  1  0.571290  0.261370  0.484160  1.0
  C  C393  1  0.087130  0.515840  0.777210  1.0
  C  C394  1  0.738630  0.309920  0.222790  1.0
  C  C395  1  0.912870  0.690080  0.428710  1.0
  C  C396  1  0.261370  0.484160  0.571290  1.0
  C  C397  1  0.515840  0.777210  0.087130  1.0
  C  C398  1  0.309920  0.222790  0.738630  1.0
  C  C399  1  0.690080  0.428710  0.912870  1.0
  C  C400  1  0.484160  0.571290  0.261370  1.0
  C  C401  1  0.784570  0.118030  0.499520  1.0
  C  C402  1  0.215430  0.714950  0.333460  1.0
  C  C403  1  0.381490  0.881970  0.666540  1.0
  C  C404  1  0.618510  0.285050  0.500480  1.0
  C  C405  1  0.118030  0.499520  0.784570  1.0
  C  C406  1  0.714950  0.333460  0.215430  1.0
  C  C407  1  0.881970  0.666540  0.381490  1.0
  C  C408  1  0.285050  0.500480  0.618510  1.0
  C  C409  1  0.499520  0.784570  0.118030  1.0
  C  C410  1  0.333460  0.215430  0.714950  1.0
  C  C411  1  0.666540  0.381490  0.881970  1.0
  C  C412  1  0.500480  0.618510  0.285050  1.0
  C  C413  1  0.749140  0.125770  0.479010  1.0
  C  C414  1  0.250860  0.729870  0.376630  1.0
  C  C415  1  0.353240  0.874230  0.623370  1.0
  C  C416  1  0.646760  0.270130  0.520990  1.0
  C  C417  1  0.125770  0.479010  0.749140  1.0
  C  C418  1  0.729870  0.376630  0.250860  1.0
  C  C419  1  0.874230  0.623370  0.353240  1.0
  C  C420  1  0.270130  0.520990  0.646760  1.0
  C  C421  1  0.479010  0.749140  0.125770  1.0
  C  C422  1  0.376630  0.250860  0.729870  1.0
  C  C423  1  0.623370  0.353240  0.874230  1.0
  C  C424  1  0.520990  0.646760  0.270130  1.0
  C  C425  1  0.755300  0.158800  0.462700  1.0
  C  C426  1  0.244700  0.707400  0.403500  1.0
  C  C427  1  0.303900  0.841200  0.596500  1.0
  C  C428  1  0.696100  0.292600  0.537300  1.0
  C  C429  1  0.158800  0.462700  0.755300  1.0
  C  C430  1  0.707400  0.403500  0.244700  1.0
  C  C431  1  0.841200  0.596500  0.303900  1.0
  C  C432  1  0.292600  0.537300  0.696100  1.0
  C  C433  1  0.462700  0.755300  0.158800  1.0
  C  C434  1  0.403500  0.244700  0.707400  1.0
  C  C435  1  0.596500  0.303900  0.841200  1.0
  C  C436  1  0.537300  0.696100  0.292600  1.0
  C  C437  1  0.826800  0.142800  0.502200  1.0
  C  C438  1  0.173200  0.675400  0.316000  1.0
  C  C439  1  0.359400  0.857200  0.684000  1.0
  C  C440  1  0.640600  0.324600  0.497800  1.0
  C  C441  1  0.142800  0.502200  0.826800  1.0
  C  C442  1  0.675400  0.316000  0.173200  1.0
  C  C443  1  0.857200  0.684000  0.359400  1.0
  C  C444  1  0.324600  0.497800  0.640600  1.0
  C  C445  1  0.502200  0.826800  0.142800  1.0
  C  C446  1  0.316000  0.173200  0.675400  1.0
  C  C447  1  0.684000  0.359400  0.857200  1.0
  C  C448  1  0.497800  0.640600  0.324600  1.0
  C  C449  1  0.916500  0.120950  0.312150  1.0
  C  C450  1  0.083500  0.395650  0.204450  1.0
  C  C451  1  0.191200  0.879050  0.795550  1.0
  C  C452  1  0.808800  0.604350  0.687850  1.0
  C  C453  1  0.120950  0.312150  0.916500  1.0
  C  C454  1  0.395650  0.204450  0.083500  1.0
  C  C455  1  0.879050  0.795550  0.191200  1.0
  C  C456  1  0.604350  0.687850  0.808800  1.0
  C  C457  1  0.312150  0.916500  0.120950  1.0
  C  C458  1  0.204450  0.083500  0.395650  1.0
  C  C459  1  0.795550  0.191200  0.879050  1.0
  C  C460  1  0.687850  0.808800  0.604350  1.0
  C  C461  1  0.909600  0.092600  0.269600  1.0
  C  C462  1  0.090400  0.360000  0.183000  1.0
  C  C463  1  0.177000  0.907400  0.817000  1.0
  C  C464  1  0.823000  0.640000  0.730400  1.0
  C  C465  1  0.092600  0.269600  0.909600  1.0
  C  C466  1  0.360000  0.183000  0.090400  1.0
  C  C467  1  0.907400  0.817000  0.177000  1.0
  C  C468  1  0.640000  0.730400  0.823000  1.0
  C  C469  1  0.269600  0.909600  0.092600  1.0
  C  C470  1  0.183000  0.090400  0.360000  1.0
  C  C471  1  0.817000  0.177000  0.907400  1.0
  C  C472  1  0.730400  0.823000  0.640000  1.0
  C  C473  1  0.901100  0.050900  0.268000  1.0
  C  C474  1  0.098900  0.366900  0.149800  1.0
  C  C475  1  0.217100  0.949100  0.850200  1.0
  C  C476  1  0.782900  0.633100  0.732000  1.0
  C  C477  1  0.050900  0.268000  0.901100  1.0
  C  C478  1  0.366900  0.149800  0.098900  1.0
  C  C479  1  0.949100  0.850200  0.217100  1.0
  C  C480  1  0.633100  0.732000  0.782900  1.0
  C  C481  1  0.268000  0.901100  0.050900  1.0
  C  C482  1  0.149800  0.098900  0.366900  1.0
  C  C483  1  0.850200  0.217100  0.949100  1.0
  C  C484  1  0.732000  0.782900  0.633100  1.0
  C  C485  1  0.891120  0.016360  0.317360  1.0
  C  C486  1  0.108880  0.426240  0.125240  1.0
  C  C487  1  0.301000  0.983640  0.874760  1.0
  C  C488  1  0.699000  0.573760  0.682640  1.0
  C  C489  1  0.016360  0.317360  0.891120  1.0
  C  C490  1  0.426240  0.125240  0.108880  1.0
  C  C491  1  0.983640  0.874760  0.301000  1.0
  C  C492  1  0.573760  0.682640  0.699000  1.0
  C  C493  1  0.317360  0.891120  0.016360  1.0
  C  C494  1  0.125240  0.108880  0.426240  1.0
  C  C495  1  0.874760  0.301000  0.983640  1.0
  C  C496  1  0.682640  0.699000  0.573760  1.0
  C  C497  1  0.925930  0.166340  0.332750  1.0
  C  C498  1  0.074070  0.406820  0.240410  1.0
  C  C499  1  0.166410  0.833660  0.759590  1.0
  C  C500  1  0.833590  0.593180  0.667250  1.0
  C  C501  1  0.166340  0.332750  0.925930  1.0
  C  C502  1  0.406820  0.240410  0.074070  1.0
  C  C503  1  0.833660  0.759590  0.166410  1.0
  C  C504  1  0.593180  0.667250  0.833590  1.0
  C  C505  1  0.332750  0.925930  0.166340  1.0
  C  C506  1  0.240410  0.074070  0.406820  1.0
  C  C507  1  0.759590  0.166410  0.833660  1.0
  C  C508  1  0.667250  0.833590  0.593180  1.0
  C  C509  1  0.928520  0.192530  0.310970  1.0
  C  C510  1  0.071480  0.382450  0.264010  1.0
  C  C511  1  0.118440  0.807470  0.735990  1.0
  C  C512  1  0.881560  0.617550  0.689030  1.0
  C  C513  1  0.192530  0.310970  0.928520  1.0
  C  C514  1  0.382450  0.264010  0.071480  1.0
  C  C515  1  0.807470  0.735990  0.118440  1.0
  C  C516  1  0.617550  0.689030  0.881560  1.0
  C  C517  1  0.310970  0.928520  0.192530  1.0
  C  C518  1  0.264010  0.071480  0.382450  1.0
  C  C519  1  0.735990  0.118440  0.807470  1.0
  C  C520  1  0.689030  0.881560  0.617550  1.0
  C  C521  1  0.934710  0.236600  0.332430  1.0
  C  C522  1  0.065290  0.397720  0.301890  1.0
  C  C523  1  0.095830  0.763400  0.698110  1.0
  C  C524  1  0.904170  0.602280  0.667570  1.0
  C  C525  1  0.236600  0.332430  0.934710  1.0
  C  C526  1  0.397720  0.301890  0.065290  1.0
  C  C527  1  0.763400  0.698110  0.095830  1.0
  C  C528  1  0.602280  0.667570  0.904170  1.0
  C  C529  1  0.332430  0.934710  0.236600  1.0
  C  C530  1  0.301890  0.065290  0.397720  1.0
  C  C531  1  0.698110  0.095830  0.763400  1.0
  C  C532  1  0.667570  0.904170  0.602280  1.0
  C  C533  1  0.938300  0.254480  0.375660  1.0
  C  C534  1  0.061700  0.437360  0.316180  1.0
  C  C535  1  0.121180  0.745520  0.683820  1.0
  C  C536  1  0.878820  0.562640  0.624340  1.0
  C  C537  1  0.254480  0.375660  0.938300  1.0
  C  C538  1  0.437360  0.316180  0.061700  1.0
  C  C539  1  0.745520  0.683820  0.121180  1.0
  C  C540  1  0.562640  0.624340  0.878820  1.0
  C  C541  1  0.375660  0.938300  0.254480  1.0
  C  C542  1  0.316180  0.061700  0.437360  1.0
  C  C543  1  0.683820  0.121180  0.745520  1.0
  C  C544  1  0.624340  0.878820  0.562640  1.0
  C  C545  1  0.935710  0.228270  0.397440  1.0
  C  C546  1  0.064290  0.461730  0.292560  1.0
  C  C547  1  0.169170  0.771730  0.707440  1.0
  C  C548  1  0.830830  0.538270  0.602560  1.0
  C  C549  1  0.228270  0.397440  0.935710  1.0
  C  C550  1  0.461730  0.292560  0.064290  1.0
  C  C551  1  0.771730  0.707440  0.169170  1.0
  C  C552  1  0.538270  0.602560  0.830830  1.0
  C  C553  1  0.397440  0.935710  0.228270  1.0
  C  C554  1  0.292560  0.064290  0.461730  1.0
  C  C555  1  0.707440  0.169170  0.771730  1.0
  C  C556  1  0.602560  0.830830  0.538270  1.0
  C  C557  1  0.909750  0.908480  0.371010  1.0
  C  C558  1  0.090250  0.461260  0.998730  1.0
  C  C559  1  0.462530  0.091520  0.001270  1.0
  C  C560  1  0.537470  0.538740  0.628990  1.0
  C  C561  1  0.908480  0.371010  0.909750  1.0
  C  C562  1  0.461260  0.998730  0.090250  1.0
  C  C563  1  0.091520  0.001270  0.462530  1.0
  C  C564  1  0.538740  0.628990  0.537470  1.0
  C  C565  1  0.371010  0.909750  0.908480  1.0
  C  C566  1  0.998730  0.090250  0.461260  1.0
  C  C567  1  0.001270  0.462530  0.091520  1.0
  C  C568  1  0.628990  0.537470  0.538740  1.0
  C  C569  1  0.841100  0.998010  0.309030  1.0
  C  C570  1  0.158900  0.467930  0.156910  1.0
  C  C571  1  0.311020  0.001990  0.843090  1.0
  C  C572  1  0.688980  0.532070  0.690970  1.0
  C  C573  1  0.998010  0.309030  0.841100  1.0
  C  C574  1  0.467930  0.156910  0.158900  1.0
  C  C575  1  0.001990  0.843090  0.311020  1.0
  C  C576  1  0.532070  0.690970  0.688980  1.0
  C  C577  1  0.309030  0.841100  0.998010  1.0
  C  C578  1  0.156910  0.158900  0.467930  1.0
  C  C579  1  0.843090  0.311020  0.001990  1.0
  C  C580  1  0.690970  0.688980  0.532070  1.0
  C  C581  1  0.812910  0.012900  0.289810  1.0
  C  C582  1  0.187090  0.476900  0.199990  1.0
  C  C583  1  0.276910  0.987100  0.800010  1.0
  C  C584  1  0.723090  0.523100  0.710190  1.0
  C  C585  1  0.012900  0.289810  0.812910  1.0
  C  C586  1  0.476900  0.199990  0.187090  1.0
  C  C587  1  0.987100  0.800010  0.276910  1.0
  C  C588  1  0.523100  0.710190  0.723090  1.0
  C  C589  1  0.289810  0.812910  0.012900  1.0
  C  C590  1  0.199990  0.187090  0.476900  1.0
  C  C591  1  0.800010  0.276910  0.987100  1.0
  C  C592  1  0.710190  0.723090  0.523100  1.0
  C  C593  1  0.767080  0.994100  0.282980  1.0
  C  C594  1  0.232920  0.515900  0.227020  1.0
  C  C595  1  0.288880  0.005900  0.772980  1.0
  C  C596  1  0.711120  0.484100  0.717020  1.0
  C  C597  1  0.994100  0.282980  0.767080  1.0
  C  C598  1  0.515900  0.227020  0.232920  1.0
  C  C599  1  0.005900  0.772980  0.288880  1.0
  C  C600  1  0.484100  0.717020  0.711120  1.0
  C  C601  1  0.282980  0.767080  0.994100  1.0
  C  C602  1  0.227020  0.232920  0.515900  1.0
  C  C603  1  0.772980  0.288880  0.005900  1.0
  C  C604  1  0.717020  0.711120  0.484100  1.0
  C  C605  1  0.752450  0.964300  0.295950  1.0
  C  C606  1  0.247550  0.543500  0.211850  1.0
  C  C607  1  0.331650  0.035700  0.788150  1.0
  C  C608  1  0.668350  0.456500  0.704050  1.0
  C  C609  1  0.964300  0.295950  0.752450  1.0
  C  C610  1  0.543500  0.211850  0.247550  1.0
  C  C611  1  0.035700  0.788150  0.331650  1.0
  C  C612  1  0.456500  0.704050  0.668350  1.0
  C  C613  1  0.295950  0.752450  0.964300  1.0
  C  C614  1  0.211850  0.247550  0.543500  1.0
  C  C615  1  0.788150  0.331650  0.035700  1.0
  C  C616  1  0.704050  0.668350  0.456500  1.0
  C  C617  1  0.779920  0.947610  0.316310  1.0
  C  C618  1  0.220080  0.536390  0.167690  1.0
  C  C619  1  0.368700  0.052390  0.832310  1.0
  C  C620  1  0.631300  0.463610  0.683690  1.0
  C  C621  1  0.947610  0.316310  0.779920  1.0
  C  C622  1  0.536390  0.167690  0.220080  1.0
  C  C623  1  0.052390  0.832310  0.368700  1.0
  C  C624  1  0.463610  0.683690  0.631300  1.0
  C  C625  1  0.316310  0.779920  0.947610  1.0
  C  C626  1  0.167690  0.220080  0.536390  1.0
  C  C627  1  0.832310  0.368700  0.052390  1.0
  C  C628  1  0.683690  0.631300  0.463610  1.0
  C  C629  1  0.825120  0.964170  0.321450  1.0
  C  C630  1  0.174880  0.496330  0.139050  1.0
  C  C631  1  0.357280  0.035830  0.860950  1.0
  C  C632  1  0.642720  0.503670  0.678550  1.0
  C  C633  1  0.964170  0.321450  0.825120  1.0
  C  C634  1  0.496330  0.139050  0.174880  1.0
  C  C635  1  0.035830  0.860950  0.357280  1.0
  C  C636  1  0.503670  0.678550  0.642720  1.0
  C  C637  1  0.321450  0.825120  0.964170  1.0
  C  C638  1  0.139050  0.174880  0.496330  1.0
  C  C639  1  0.860950  0.357280  0.035830  1.0
  C  C640  1  0.678550  0.642720  0.503670  1.0
  C  C641  1  0.776600  0.867600  0.364200  1.0
  C  C642  1  0.223400  0.587600  0.091000  1.0
  C  C643  1  0.496600  0.132400  0.909000  1.0
  C  C644  1  0.503400  0.412400  0.635800  1.0
  C  C645  1  0.867600  0.364200  0.776600  1.0
  C  C646  1  0.587600  0.091000  0.223400  1.0
  C  C647  1  0.132400  0.909000  0.496600  1.0
  C  C648  1  0.412400  0.635800  0.503400  1.0
  C  C649  1  0.364200  0.776600  0.867600  1.0
  C  C650  1  0.091000  0.223400  0.587600  1.0
  C  C651  1  0.909000  0.496600  0.132400  1.0
  C  C652  1  0.635800  0.503400  0.412400  1.0
  C  C653  1  0.802600  0.851000  0.379800  1.0
  C  C654  1  0.197400  0.577200  0.048400  1.0
  C  C655  1  0.528800  0.149000  0.951600  1.0
  C  C656  1  0.471200  0.422800  0.620200  1.0
  C  C657  1  0.851000  0.379800  0.802600  1.0
  C  C658  1  0.577200  0.048400  0.197400  1.0
  C  C659  1  0.149000  0.951600  0.528800  1.0
  C  C660  1  0.422800  0.620200  0.471200  1.0
  C  C661  1  0.379800  0.802600  0.851000  1.0
  C  C662  1  0.048400  0.197400  0.577200  1.0
  C  C663  1  0.951600  0.528800  0.149000  1.0
  C  C664  1  0.620200  0.471200  0.422800  1.0
  C  C665  1  0.846980  0.863500  0.382520  1.0
  C  C666  1  0.153020  0.535540  0.016520  1.0
  C  C667  1  0.519020  0.136500  0.983480  1.0
  C  C668  1  0.480980  0.464460  0.617480  1.0
  C  C669  1  0.863500  0.382520  0.846980  1.0
  C  C670  1  0.535540  0.016520  0.153020  1.0
  C  C671  1  0.136500  0.983480  0.519020  1.0
  C  C672  1  0.464460  0.617480  0.480980  1.0
  C  C673  1  0.382520  0.846980  0.863500  1.0
  C  C674  1  0.016520  0.153020  0.535540  1.0
  C  C675  1  0.983480  0.519020  0.136500  1.0
  C  C676  1  0.617480  0.480980  0.464460  1.0
  C  C677  1  0.862940  0.894250  0.368270  1.0
  C  C678  1  0.137060  0.505330  0.031310  1.0
  C  C679  1  0.474020  0.105750  0.968690  1.0
  C  C680  1  0.525980  0.494670  0.631730  1.0
  C  C681  1  0.894250  0.368270  0.862940  1.0
  C  C682  1  0.505330  0.031310  0.137060  1.0
  C  C683  1  0.105750  0.968690  0.474020  1.0
  C  C684  1  0.494670  0.631730  0.525980  1.0
  C  C685  1  0.368270  0.862940  0.894250  1.0
  C  C686  1  0.031310  0.137060  0.505330  1.0
  C  C687  1  0.968690  0.474020  0.105750  1.0
  C  C688  1  0.631730  0.525980  0.494670  1.0
  C  C689  1  0.836820  0.914070  0.352050  1.0
  C  C690  1  0.163180  0.515230  0.077250  1.0
  C  C691  1  0.437980  0.085930  0.922750  1.0
  C  C692  1  0.562020  0.484770  0.647950  1.0
  C  C693  1  0.914070  0.352050  0.836820  1.0
  C  C694  1  0.515230  0.077250  0.163180  1.0
  C  C695  1  0.085930  0.922750  0.437980  1.0
  C  C696  1  0.484770  0.647950  0.562020  1.0
  C  C697  1  0.352050  0.836820  0.914070  1.0
  C  C698  1  0.077250  0.163180  0.515230  1.0
  C  C699  1  0.922750  0.437980  0.085930  1.0
  C  C700  1  0.647950  0.562020  0.484770  1.0
  C  C701  1  0.791810  0.899500  0.348090  1.0
  C  C702  1  0.208190  0.556280  0.107690  1.0
  C  C703  1  0.448590  0.100500  0.892310  1.0
  C  C704  1  0.551410  0.443720  0.651910  1.0
  C  C705  1  0.899500  0.348090  0.791810  1.0
  C  C706  1  0.556280  0.107690  0.208190  1.0
  C  C707  1  0.100500  0.892310  0.448590  1.0
  C  C708  1  0.443720  0.651910  0.551410  1.0
  C  C709  1  0.348090  0.791810  0.899500  1.0
  C  C710  1  0.107690  0.208190  0.556280  1.0
  C  C711  1  0.892310  0.448590  0.100500  1.0
  C  C712  1  0.651910  0.551410  0.443720  1.0
  C  C713  1  0.765190  0.916780  0.330550  1.0
  C  C714  1  0.234810  0.565360  0.151590  1.0
  C  C715  1  0.413770  0.083220  0.848410  1.0
  C  C716  1  0.586230  0.434640  0.669450  1.0
  C  C717  1  0.916780  0.330550  0.765190  1.0
  C  C718  1  0.565360  0.151590  0.234810  1.0
  C  C719  1  0.083220  0.848410  0.413770  1.0
  C  C720  1  0.434640  0.669450  0.586230  1.0
  C  C721  1  0.330550  0.765190  0.916780  1.0
  C  C722  1  0.151590  0.234810  0.565360  1.0
  C  C723  1  0.848410  0.413770  0.083220  1.0
  C  C724  1  0.669450  0.586230  0.434640  1.0
  C  C725  1  0.853130  0.947020  0.339830  1.0
  C  C726  1  0.146870  0.486700  0.093890  1.0
  C  C727  1  0.392810  0.052980  0.906110  1.0
  C  C728  1  0.607190  0.513300  0.660170  1.0
  C  C729  1  0.947020  0.339830  0.853130  1.0
  C  C730  1  0.486700  0.093890  0.146870  1.0
  C  C731  1  0.052980  0.906110  0.392810  1.0
  C  C732  1  0.513300  0.660170  0.607190  1.0
  C  C733  1  0.339830  0.853130  0.947020  1.0
  C  C734  1  0.093890  0.146870  0.486700  1.0
  C  C735  1  0.906110  0.392810  0.052980  1.0
  C  C736  1  0.660170  0.607190  0.513300  1.0
  C  C737  1  0.884910  0.066900  0.425830  1.0
  C  C738  1  0.115090  0.540920  0.181990  1.0
  C  C739  1  0.358930  0.933100  0.818010  1.0
  C  C740  1  0.641070  0.459080  0.574170  1.0
  C  C741  1  0.066900  0.425830  0.884910  1.0
  C  C742  1  0.540920  0.181990  0.115090  1.0
  C  C743  1  0.933100  0.818010  0.358930  1.0
  C  C744  1  0.459080  0.574170  0.641070  1.0
  C  C745  1  0.425830  0.884910  0.066900  1.0
  C  C746  1  0.181990  0.115090  0.540920  1.0
  C  C747  1  0.818010  0.358930  0.933100  1.0
  C  C748  1  0.574170  0.641070  0.459080  1.0
  C  C749  1  0.882510  0.037220  0.441370  1.0
  C  C750  1  0.117490  0.558860  0.154710  1.0
  C  C751  1  0.404150  0.962780  0.845290  1.0
  C  C752  1  0.595850  0.441140  0.558630  1.0
  C  C753  1  0.037220  0.441370  0.882510  1.0
  C  C754  1  0.558860  0.154710  0.117490  1.0
  C  C755  1  0.962780  0.845290  0.404150  1.0
  C  C756  1  0.441140  0.558630  0.595850  1.0
  C  C757  1  0.441370  0.882510  0.037220  1.0
  C  C758  1  0.154710  0.117490  0.558860  1.0
  C  C759  1  0.845290  0.404150  0.962780  1.0
  C  C760  1  0.558630  0.595850  0.441140  1.0
  C  C761  1  0.959100  0.885300  0.415320  1.0
  C  C762  1  0.040900  0.456220  0.926200  1.0
  C  C763  1  0.530020  0.114700  0.073800  1.0
  C  C764  1  0.469980  0.543780  0.584680  1.0
  C  C765  1  0.885300  0.415320  0.959100  1.0
  C  C766  1  0.456220  0.926200  0.040900  1.0
  C  C767  1  0.114700  0.073800  0.530020  1.0
  C  C768  1  0.543780  0.584680  0.469980  1.0
  C  C769  1  0.415320  0.959100  0.885300  1.0
  C  C770  1  0.926200  0.040900  0.456220  1.0
  C  C771  1  0.073800  0.530020  0.114700  1.0
  C  C772  1  0.584680  0.469980  0.543780  1.0
  C  C773  1  0.848860  0.078840  0.405660  1.0
  C  C774  1  0.151140  0.556800  0.229980  1.0
  C  C775  1  0.326820  0.921160  0.770020  1.0
  C  C776  1  0.673180  0.443200  0.594340  1.0
  C  C777  1  0.078840  0.405660  0.848860  1.0
  C  C778  1  0.556800  0.229980  0.151140  1.0
  C  C779  1  0.921160  0.770020  0.326820  1.0
  C  C780  1  0.443200  0.594340  0.673180  1.0
  C  C781  1  0.405660  0.848860  0.078840  1.0
  C  C782  1  0.229980  0.151140  0.556800  1.0
  C  C783  1  0.770020  0.326820  0.921160  1.0
  C  C784  1  0.594340  0.673180  0.443200  1.0
  C  C785  1  0.806600  0.058300  0.399900  1.0
  C  C786  1  0.193400  0.593300  0.251700  1.0
  C  C787  1  0.341600  0.941700  0.748300  1.0
  C  C788  1  0.658400  0.406700  0.600100  1.0
  C  C789  1  0.058300  0.399900  0.806600  1.0
  C  C790  1  0.593300  0.251700  0.193400  1.0
  C  C791  1  0.941700  0.748300  0.341600  1.0
  C  C792  1  0.406700  0.600100  0.658400  1.0
  C  C793  1  0.399900  0.806600  0.058300  1.0
  C  C794  1  0.251700  0.193400  0.593300  1.0
  C  C795  1  0.748300  0.341600  0.941700  1.0
  C  C796  1  0.600100  0.658400  0.406700  1.0
  C  C797  1  0.775300  0.071400  0.382700  1.0
  C  C798  1  0.224700  0.607400  0.296100  1.0
  C  C799  1  0.311300  0.928600  0.703900  1.0
  C  C800  1  0.688700  0.392600  0.617300  1.0
  C  C801  1  0.071400  0.382700  0.775300  1.0
  C  C802  1  0.607400  0.296100  0.224700  1.0
  C  C803  1  0.928600  0.703900  0.311300  1.0
  C  C804  1  0.392600  0.617300  0.688700  1.0
  C  C805  1  0.382700  0.775300  0.071400  1.0
  C  C806  1  0.296100  0.224700  0.607400  1.0
  C  C807  1  0.703900  0.311300  0.928600  1.0
  C  C808  1  0.617300  0.688700  0.392600  1.0
  C  C809  1  0.790400  0.106900  0.373900  1.0
  C  C810  1  0.209600  0.583500  0.316500  1.0
  C  C811  1  0.267000  0.893100  0.683500  1.0
  C  C812  1  0.733000  0.416500  0.626100  1.0
  C  C813  1  0.106900  0.373900  0.790400  1.0
  C  C814  1  0.583500  0.316500  0.209600  1.0
  C  C815  1  0.893100  0.683500  0.267000  1.0
  C  C816  1  0.416500  0.626100  0.733000  1.0
  C  C817  1  0.373900  0.790400  0.106900  1.0
  C  C818  1  0.316500  0.209600  0.583500  1.0
  C  C819  1  0.683500  0.267000  0.893100  1.0
  C  C820  1  0.626100  0.733000  0.416500  1.0
  C  C821  1  0.834500  0.126100  0.380000  1.0
  C  C822  1  0.165500  0.545500  0.291600  1.0
  C  C823  1  0.253900  0.873900  0.708400  1.0
  C  C824  1  0.746100  0.454500  0.620000  1.0
  C  C825  1  0.126100  0.380000  0.834500  1.0
  C  C826  1  0.545500  0.291600  0.165500  1.0
  C  C827  1  0.873900  0.708400  0.253900  1.0
  C  C828  1  0.454500  0.620000  0.746100  1.0
  C  C829  1  0.380000  0.834500  0.126100  1.0
  C  C830  1  0.291600  0.165500  0.545500  1.0
  C  C831  1  0.708400  0.253900  0.873900  1.0
  C  C832  1  0.620000  0.746100  0.454500  1.0
  C  C833  1  0.824300  0.961200  0.532700  1.0
  C  C834  1  0.175700  0.708400  0.136900  1.0
  C  C835  1  0.571500  0.038800  0.863100  1.0
  C  C836  1  0.428500  0.291600  0.467300  1.0
  C  C837  1  0.961200  0.532700  0.824300  1.0
  C  C838  1  0.708400  0.136900  0.175700  1.0
  C  C839  1  0.038800  0.863100  0.571500  1.0
  C  C840  1  0.291600  0.467300  0.428500  1.0
  C  C841  1  0.532700  0.824300  0.961200  1.0
  C  C842  1  0.136900  0.175700  0.708400  1.0
  C  C843  1  0.863100  0.571500  0.038800  1.0
  C  C844  1  0.467300  0.428500  0.291600  1.0
  C  C845  1  0.839910  0.942130  0.504020  1.0
  C  C846  1  0.160090  0.664110  0.102220  1.0
  C  C847  1  0.561890  0.057870  0.897780  1.0
  C  C848  1  0.438110  0.335890  0.495980  1.0
  C  C849  1  0.942130  0.504020  0.839910  1.0
  C  C850  1  0.664110  0.102220  0.160090  1.0
  C  C851  1  0.057870  0.897780  0.561890  1.0
  C  C852  1  0.335890  0.495980  0.438110  1.0
  C  C853  1  0.504020  0.839910  0.942130  1.0
  C  C854  1  0.102220  0.160090  0.664110  1.0
  C  C855  1  0.897780  0.561890  0.057870  1.0
  C  C856  1  0.495980  0.438110  0.335890  1.0
  C  C857  1  0.885740  0.966380  0.530240  1.0
  C  C858  1  0.114260  0.644500  0.080640  1.0
  C  C859  1  0.563860  0.033620  0.919360  1.0
  C  C860  1  0.436140  0.355500  0.469760  1.0
  C  C861  1  0.966380  0.530240  0.885740  1.0
  C  C862  1  0.644500  0.080640  0.114260  1.0
  C  C863  1  0.033620  0.919360  0.563860  1.0
  C  C864  1  0.355500  0.469760  0.436140  1.0
  C  C865  1  0.530240  0.885740  0.966380  1.0
  C  C866  1  0.080640  0.114260  0.644500  1.0
  C  C867  1  0.919360  0.563860  0.033620  1.0
  C  C868  1  0.469760  0.436140  0.355500  1.0
  C  C869  1  0.942760  0.036750  0.610390  1.0
  C  C870  1  0.057240  0.667630  0.093990  1.0
  C  C871  1  0.573640  0.963250  0.906010  1.0
  C  C872  1  0.426360  0.332370  0.389610  1.0
  C  C873  1  0.036750  0.610390  0.942760  1.0
  C  C874  1  0.667630  0.093990  0.057240  1.0
  C  C875  1  0.963250  0.906010  0.573640  1.0
  C  C876  1  0.332370  0.389610  0.426360  1.0
  C  C877  1  0.610390  0.942760  0.036750  1.0
  C  C878  1  0.093990  0.057240  0.667630  1.0
  C  C879  1  0.906010  0.573640  0.963250  1.0
  C  C880  1  0.389610  0.426360  0.332370  1.0
  C  C881  1  0.778100  0.949900  0.524600  1.0
  C  C882  1  0.221900  0.746500  0.171800  1.0
  C  C883  1  0.574700  0.050100  0.828200  1.0
  C  C884  1  0.425300  0.253500  0.475400  1.0
  C  C885  1  0.949900  0.524600  0.778100  1.0
  C  C886  1  0.746500  0.171800  0.221900  1.0
  C  C887  1  0.050100  0.828200  0.574700  1.0
  C  C888  1  0.253500  0.475400  0.425300  1.0
  C  C889  1  0.524600  0.778100  0.949900  1.0
  C  C890  1  0.171800  0.221900  0.746500  1.0
  C  C891  1  0.828200  0.574700  0.050100  1.0
  C  C892  1  0.475400  0.425300  0.253500  1.0
  C  C893  1  0.737600  0.911200  0.483000  1.0
  C  C894  1  0.262400  0.745400  0.173600  1.0
  C  C895  1  0.571800  0.088800  0.826400  1.0
  C  C896  1  0.428200  0.254600  0.517000  1.0
  C  C897  1  0.911200  0.483000  0.737600  1.0
  C  C898  1  0.745400  0.173600  0.262400  1.0
  C  C899  1  0.088800  0.826400  0.571800  1.0
  C  C900  1  0.254600  0.517000  0.428200  1.0
  C  C901  1  0.483000  0.737600  0.911200  1.0
  C  C902  1  0.173600  0.262400  0.745400  1.0
  C  C903  1  0.826400  0.571800  0.088800  1.0
  C  C904  1  0.517000  0.428200  0.254600  1.0
  C  C905  1  0.696400  0.903600  0.479400  1.0
  C  C906  1  0.303600  0.783000  0.207200  1.0
  C  C907  1  0.575800  0.096400  0.792800  1.0
  C  C908  1  0.424200  0.217000  0.520600  1.0
  C  C909  1  0.903600  0.479400  0.696400  1.0
  C  C910  1  0.783000  0.207200  0.303600  1.0
  C  C911  1  0.096400  0.792800  0.575800  1.0
  C  C912  1  0.217000  0.520600  0.424200  1.0
  C  C913  1  0.479400  0.696400  0.903600  1.0
  C  C914  1  0.207200  0.303600  0.783000  1.0
  C  C915  1  0.792800  0.575800  0.096400  1.0
  C  C916  1  0.520600  0.424200  0.217000  1.0
  C  C917  1  0.694000  0.931900  0.515100  1.0
  C  C918  1  0.306000  0.821100  0.237900  1.0
  C  C919  1  0.583200  0.068100  0.762100  1.0
  C  C920  1  0.416800  0.178900  0.484900  1.0
  C  C921  1  0.931900  0.515100  0.694000  1.0
  C  C922  1  0.821100  0.237900  0.306000  1.0
  C  C923  1  0.068100  0.762100  0.583200  1.0
  C  C924  1  0.178900  0.484900  0.416800  1.0
  C  C925  1  0.515100  0.694000  0.931900  1.0
  C  C926  1  0.237900  0.306000  0.821100  1.0
  C  C927  1  0.762100  0.583200  0.068100  1.0
  C  C928  1  0.484900  0.416800  0.178900  1.0
  C  C929  1  0.735000  0.970000  0.555000  1.0
  C  C930  1  0.265000  0.820000  0.235000  1.0
  C  C931  1  0.585000  0.030000  0.765000  1.0
  C  C932  1  0.415000  0.180000  0.445000  1.0
  C  C933  1  0.970000  0.555000  0.735000  1.0
  C  C934  1  0.820000  0.235000  0.265000  1.0
  C  C935  1  0.030000  0.765000  0.585000  1.0
  C  C936  1  0.180000  0.445000  0.415000  1.0
  C  C937  1  0.555000  0.735000  0.970000  1.0
  C  C938  1  0.235000  0.265000  0.820000  1.0
  C  C939  1  0.765000  0.585000  0.030000  1.0
  C  C940  1  0.445000  0.415000  0.180000  1.0
  C  C941  1  0.113500  0.157700  0.854600  1.0
  C  C942  1  0.886500  0.741100  0.044200  1.0
  C  C943  1  0.696900  0.842300  0.955800  1.0
  C  C944  1  0.303100  0.258900  0.145400  1.0
  C  C945  1  0.157700  0.854600  0.113500  1.0
  C  C946  1  0.741100  0.044200  0.886500  1.0
  C  C947  1  0.842300  0.955800  0.696900  1.0
  C  C948  1  0.258900  0.145400  0.303100  1.0
  C  C949  1  0.854600  0.113500  0.157700  1.0
  C  C950  1  0.044200  0.886500  0.741100  1.0
  C  C951  1  0.955800  0.696900  0.842300  1.0
  C  C952  1  0.145400  0.303100  0.258900  1.0
  C  C953  1  0.076700  0.138400  0.774100  1.0
  C  C954  1  0.923300  0.697400  0.061700  1.0
  C  C955  1  0.635700  0.861600  0.938300  1.0
  C  C956  1  0.364300  0.302600  0.225900  1.0
  C  C957  1  0.138400  0.774100  0.076700  1.0
  C  C958  1  0.697400  0.061700  0.923300  1.0
  C  C959  1  0.861600  0.938300  0.635700  1.0
  C  C960  1  0.302600  0.225900  0.364300  1.0
  C  C961  1  0.774100  0.076700  0.138400  1.0
  C  C962  1  0.061700  0.923300  0.697400  1.0
  C  C963  1  0.938300  0.635700  0.861600  1.0
  C  C964  1  0.225900  0.364300  0.302600  1.0
  C  C965  1  0.949480  0.079570  0.606890  1.0
  C  C966  1  0.050520  0.657410  0.130090  1.0
  C  C967  1  0.527320  0.920430  0.869910  1.0
  C  C968  1  0.472680  0.342590  0.393110  1.0
  C  C969  1  0.079570  0.606890  0.949480  1.0
  C  C970  1  0.657410  0.130090  0.050520  1.0
  C  C971  1  0.920430  0.869910  0.527320  1.0
  C  C972  1  0.342590  0.393110  0.472680  1.0
  C  C973  1  0.606890  0.949480  0.079570  1.0
  C  C974  1  0.130090  0.050520  0.657410  1.0
  C  C975  1  0.869910  0.527320  0.920430  1.0
  C  C976  1  0.393110  0.472680  0.342590  1.0
  C  C977  1  0.924820  0.077380  0.567160  1.0
  C  C978  1  0.075180  0.642340  0.152560  1.0
  C  C979  1  0.489780  0.922620  0.847440  1.0
  C  C980  1  0.510220  0.357660  0.432840  1.0
  C  C981  1  0.077380  0.567160  0.924820  1.0
  C  C982  1  0.642340  0.152560  0.075180  1.0
  C  C983  1  0.922620  0.847440  0.489780  1.0
  C  C984  1  0.357660  0.432840  0.510220  1.0
  C  C985  1  0.567160  0.924820  0.077380  1.0
  C  C986  1  0.152560  0.075180  0.642340  1.0
  C  C987  1  0.847440  0.489780  0.922620  1.0
  C  C988  1  0.432840  0.510220  0.357660  1.0
  C  C989  1  0.928480  0.117460  0.563780  1.0
  C  C990  1  0.071520  0.635300  0.188980  1.0
  C  C991  1  0.446320  0.882540  0.811020  1.0
  C  C992  1  0.553680  0.364700  0.436220  1.0
  C  C993  1  0.117460  0.563780  0.928480  1.0
  C  C994  1  0.635300  0.188980  0.071520  1.0
  C  C995  1  0.882540  0.811020  0.446320  1.0
  C  C996  1  0.364700  0.436220  0.553680  1.0
  C  C997  1  0.563780  0.928480  0.117460  1.0
  C  C998  1  0.188980  0.071520  0.635300  1.0
  C  C999  1  0.811020  0.446320  0.882540  1.0
  C  C1000  1  0.436220  0.553680  0.364700  1.0
  C  C1001  1  0.959750  0.159990  0.601540  1.0
  C  C1002  1  0.040250  0.641790  0.200240  1.0
  C  C1003  1  0.441550  0.840010  0.799760  1.0
  C  C1004  1  0.558450  0.358210  0.398460  1.0
  C  C1005  1  0.159990  0.601540  0.959750  1.0
  C  C1006  1  0.641790  0.200240  0.040250  1.0
  C  C1007  1  0.840010  0.799760  0.441550  1.0
  C  C1008  1  0.358210  0.398460  0.558450  1.0
  C  C1009  1  0.601540  0.959750  0.159990  1.0
  C  C1010  1  0.200240  0.040250  0.641790  1.0
  C  C1011  1  0.799760  0.441550  0.840010  1.0
  C  C1012  1  0.398460  0.558450  0.358210  1.0
  C  C1013  1  0.989170  0.164580  0.644310  1.0
  C  C1014  1  0.010830  0.655140  0.175410  1.0
  C  C1015  1  0.479730  0.835420  0.824590  1.0
  C  C1016  1  0.520270  0.344860  0.355690  1.0
  C  C1017  1  0.164580  0.644310  0.989170  1.0
  C  C1018  1  0.655140  0.175410  0.010830  1.0
  C  C1019  1  0.835420  0.824590  0.479730  1.0
  C  C1020  1  0.344860  0.355690  0.520270  1.0
  C  C1021  1  0.644310  0.989170  0.164580  1.0
  C  C1022  1  0.175410  0.010830  0.655140  1.0
  C  C1023  1  0.824590  0.479730  0.835420  1.0
  C  C1024  1  0.355690  0.520270  0.344860  1.0
  C  C1025  1  0.985030  0.124640  0.647810  1.0
  C  C1026  1  0.014970  0.662780  0.139610  1.0
  C  C1027  1  0.523170  0.875360  0.860390  1.0
  C  C1028  1  0.476830  0.337220  0.352190  1.0
  C  C1029  1  0.124640  0.647810  0.985030  1.0
  C  C1030  1  0.662780  0.139610  0.014970  1.0
  C  C1031  1  0.875360  0.860390  0.523170  1.0
  C  C1032  1  0.337220  0.352190  0.476830  1.0
  C  C1033  1  0.647810  0.985030  0.124640  1.0
  C  C1034  1  0.139610  0.014970  0.662780  1.0
  C  C1035  1  0.860390  0.523170  0.875360  1.0
  C  C1036  1  0.352190  0.476830  0.337220  1.0
  C  C1037  1  0.083100  0.257680  0.762040  1.0
  C  C1038  1  0.916900  0.678940  0.174580  1.0
  C  C1039  1  0.504360  0.742320  0.825420  1.0
  C  C1040  1  0.495640  0.321060  0.237960  1.0
  C  C1041  1  0.257680  0.762040  0.083100  1.0
  C  C1042  1  0.678940  0.174580  0.916900  1.0
  C  C1043  1  0.742320  0.825420  0.504360  1.0
  C  C1044  1  0.321060  0.237960  0.495640  1.0
  C  C1045  1  0.762040  0.083100  0.257680  1.0
  C  C1046  1  0.174580  0.916900  0.678940  1.0
  C  C1047  1  0.825420  0.504360  0.742320  1.0
  C  C1048  1  0.237960  0.495640  0.321060  1.0
  C  C1049  1  0.112420  0.263320  0.803600  1.0
  C  C1050  1  0.887580  0.691180  0.150900  1.0
  C  C1051  1  0.540280  0.736680  0.849100  1.0
  C  C1052  1  0.459720  0.308820  0.196400  1.0
  C  C1053  1  0.263320  0.803600  0.112420  1.0
  C  C1054  1  0.691180  0.150900  0.887580  1.0
  C  C1055  1  0.736680  0.849100  0.540280  1.0
  C  C1056  1  0.308820  0.196400  0.459720  1.0
  C  C1057  1  0.803600  0.112420  0.263320  1.0
  C  C1058  1  0.150900  0.887580  0.691180  1.0
  C  C1059  1  0.849100  0.540280  0.736680  1.0
  C  C1060  1  0.196400  0.459720  0.308820  1.0
  C  C1061  1  0.109340  0.224810  0.807590  1.0
  C  C1062  1  0.890660  0.698250  0.115470  1.0
  C  C1063  1  0.582780  0.775190  0.884530  1.0
  C  C1064  1  0.417220  0.301750  0.192410  1.0
  C  C1065  1  0.224810  0.807590  0.109340  1.0
  C  C1066  1  0.698250  0.115470  0.890660  1.0
  C  C1067  1  0.775190  0.884530  0.582780  1.0
  C  C1068  1  0.301750  0.192410  0.417220  1.0
  C  C1069  1  0.807590  0.109340  0.224810  1.0
  C  C1070  1  0.115470  0.890660  0.698250  1.0
  C  C1071  1  0.884530  0.582780  0.775190  1.0
  C  C1072  1  0.192410  0.417220  0.301750  1.0
  C  C1073  1  0.076950  0.180650  0.770000  1.0
  C  C1074  1  0.923050  0.693050  0.103700  1.0
  C  C1075  1  0.589350  0.819350  0.896300  1.0
  C  C1076  1  0.410650  0.306950  0.230000  1.0
  C  C1077  1  0.180650  0.770000  0.076950  1.0
  C  C1078  1  0.693050  0.103700  0.923050  1.0
  C  C1079  1  0.819350  0.896300  0.589350  1.0
  C  C1080  1  0.306950  0.230000  0.410650  1.0
  C  C1081  1  0.770000  0.076950  0.180650  1.0
  C  C1082  1  0.103700  0.923050  0.693050  1.0
  C  C1083  1  0.896300  0.589350  0.819350  1.0
  C  C1084  1  0.230000  0.410650  0.306950  1.0
  C  C1085  1  0.047640  0.175010  0.728430  1.0
  C  C1086  1  0.952360  0.680790  0.127370  1.0
  C  C1087  1  0.553420  0.824990  0.872630  1.0
  C  C1088  1  0.446580  0.319210  0.271570  1.0
  C  C1089  1  0.175010  0.728430  0.047640  1.0
  C  C1090  1  0.680790  0.127370  0.952360  1.0
  C  C1091  1  0.824990  0.872630  0.553420  1.0
  C  C1092  1  0.319210  0.271570  0.446580  1.0
  C  C1093  1  0.728430  0.047640  0.175010  1.0
  C  C1094  1  0.127370  0.952360  0.680790  1.0
  C  C1095  1  0.872630  0.553420  0.824990  1.0
  C  C1096  1  0.271570  0.446580  0.319210  1.0
  C  C1097  1  0.050710  0.213520  0.724450  1.0
  C  C1098  1  0.949290  0.673740  0.162810  1.0
  C  C1099  1  0.510930  0.786480  0.837190  1.0
  C  C1100  1  0.489070  0.326260  0.275550  1.0
  C  C1101  1  0.213520  0.724450  0.050710  1.0
  C  C1102  1  0.673740  0.162810  0.949290  1.0
  C  C1103  1  0.786480  0.837190  0.510930  1.0
  C  C1104  1  0.326260  0.275550  0.489070  1.0
  C  C1105  1  0.724450  0.050710  0.213520  1.0
  C  C1106  1  0.162810  0.949290  0.673740  1.0
  C  C1107  1  0.837190  0.510930  0.786480  1.0
  C  C1108  1  0.275550  0.489070  0.326260  1.0
  C  C1109  1  0.021390  0.208220  0.682210  1.0
  C  C1110  1  0.978610  0.660820  0.186830  1.0
  C  C1111  1  0.473990  0.791780  0.813170  1.0
  C  C1112  1  0.526010  0.339180  0.317790  1.0
  C  C1113  1  0.208220  0.682210  0.021390  1.0
  C  C1114  1  0.660820  0.186830  0.978610  1.0
  C  C1115  1  0.791780  0.813170  0.473990  1.0
  C  C1116  1  0.339180  0.317790  0.526010  1.0
  C  C1117  1  0.682210  0.021390  0.208220  1.0
  C  C1118  1  0.186830  0.978610  0.660820  1.0
  C  C1119  1  0.813170  0.473990  0.791780  1.0
  C  C1120  1  0.317790  0.526010  0.339180  1.0
  C  C1121  1  0.012970  0.129180  0.688790  1.0
  C  C1122  1  0.987030  0.675820  0.116210  1.0
  C  C1123  1  0.559610  0.870820  0.883790  1.0
  C  C1124  1  0.440390  0.324180  0.311210  1.0
  C  C1125  1  0.129180  0.688790  0.012970  1.0
  C  C1126  1  0.675820  0.116210  0.987030  1.0
  C  C1127  1  0.870820  0.883790  0.559610  1.0
  C  C1128  1  0.324180  0.311210  0.440390  1.0
  C  C1129  1  0.688790  0.012970  0.129180  1.0
  C  C1130  1  0.116210  0.987030  0.675820  1.0
  C  C1131  1  0.883790  0.559610  0.870820  1.0
  C  C1132  1  0.311210  0.440390  0.324180  1.0
  C  C1133  1  0.818600  0.003700  0.684900  1.0
  C  C1134  1  0.181400  0.866300  0.185100  1.0
  C  C1135  1  0.681200  0.996300  0.814900  1.0
  C  C1136  1  0.318800  0.133700  0.315100  1.0
  C  C1137  1  0.003700  0.684900  0.818600  1.0
  C  C1138  1  0.866300  0.185100  0.181400  1.0
  C  C1139  1  0.996300  0.814900  0.681200  1.0
  C  C1140  1  0.133700  0.315100  0.318800  1.0
  C  C1141  1  0.684900  0.818600  0.003700  1.0
  C  C1142  1  0.185100  0.181400  0.866300  1.0
  C  C1143  1  0.814900  0.681200  0.996300  1.0
  C  C1144  1  0.315100  0.318800  0.133700  1.0
  C  C1145  1  0.164400  0.179900  0.889100  1.0
  C  C1146  1  0.835600  0.724700  0.015500  1.0
  C  C1147  1  0.709200  0.820100  0.984500  1.0
  C  C1148  1  0.290800  0.275300  0.110900  1.0
  C  C1149  1  0.179900  0.889100  0.164400  1.0
  C  C1150  1  0.724700  0.015500  0.835600  1.0
  C  C1151  1  0.820100  0.984500  0.709200  1.0
  C  C1152  1  0.275300  0.110900  0.290800  1.0
  C  C1153  1  0.889100  0.164400  0.179900  1.0
  C  C1154  1  0.015500  0.835600  0.724700  1.0
  C  C1155  1  0.984500  0.709200  0.820100  1.0
  C  C1156  1  0.110900  0.290800  0.275300  1.0
  C  C1157  1  0.803400  0.036000  0.686600  1.0
  C  C1158  1  0.196600  0.883200  0.232600  1.0
  C  C1159  1  0.650600  0.964000  0.767400  1.0
  C  C1160  1  0.349400  0.116800  0.313400  1.0
  C  C1161  1  0.036000  0.686600  0.803400  1.0
  C  C1162  1  0.883200  0.232600  0.196600  1.0
  C  C1163  1  0.964000  0.767400  0.650600  1.0
  C  C1164  1  0.116800  0.313400  0.349400  1.0
  C  C1165  1  0.686600  0.803400  0.036000  1.0
  C  C1166  1  0.232600  0.196600  0.883200  1.0
  C  C1167  1  0.767400  0.650600  0.964000  1.0
  C  C1168  1  0.313400  0.349400  0.116800  1.0
  C  C1169  1  0.784300  0.049600  0.713500  1.0
  C  C1170  1  0.215700  0.929200  0.265300  1.0
  C  C1171  1  0.663900  0.950400  0.734700  1.0
  C  C1172  1  0.336100  0.070800  0.286500  1.0
  C  C1173  1  0.049600  0.713500  0.784300  1.0
  C  C1174  1  0.929200  0.265300  0.215700  1.0
  C  C1175  1  0.950400  0.734700  0.663900  1.0
  C  C1176  1  0.070800  0.286500  0.336100  1.0
  C  C1177  1  0.713500  0.784300  0.049600  1.0
  C  C1178  1  0.265300  0.215700  0.929200  1.0
  C  C1179  1  0.734700  0.663900  0.950400  1.0
  C  C1180  1  0.286500  0.336100  0.070800  1.0
  C  C1181  1  0.769200  0.080700  0.711300  1.0
  C  C1182  1  0.230800  0.942100  0.311500  1.0
  C  C1183  1  0.630600  0.919300  0.688500  1.0
  C  C1184  1  0.369400  0.057900  0.288700  1.0
  C  C1185  1  0.080700  0.711300  0.769200  1.0
  C  C1186  1  0.942100  0.311500  0.230800  1.0
  C  C1187  1  0.919300  0.688500  0.630600  1.0
  C  C1188  1  0.057900  0.288700  0.369400  1.0
  C  C1189  1  0.711300  0.769200  0.080700  1.0
  C  C1190  1  0.311500  0.230800  0.942100  1.0
  C  C1191  1  0.688500  0.630600  0.919300  1.0
  C  C1192  1  0.288700  0.369400  0.057900  1.0
  C  C1193  1  0.773100  0.098200  0.682100  1.0
  C  C1194  1  0.226900  0.909000  0.325100  1.0
  C  C1195  1  0.583900  0.901800  0.674900  1.0
  C  C1196  1  0.416100  0.091000  0.317900  1.0
  C  C1197  1  0.098200  0.682100  0.773100  1.0
  C  C1198  1  0.909000  0.325100  0.226900  1.0
  C  C1199  1  0.901800  0.674900  0.583900  1.0
  C  C1200  1  0.091000  0.317900  0.416100  1.0
  C  C1201  1  0.682100  0.773100  0.098200  1.0
  C  C1202  1  0.325100  0.226900  0.909000  1.0
  C  C1203  1  0.674900  0.583900  0.901800  1.0
  C  C1204  1  0.317900  0.416100  0.091000  1.0
  C  C1205  1  0.792300  0.084700  0.655400  1.0
  C  C1206  1  0.207700  0.863100  0.292400  1.0
  C  C1207  1  0.570700  0.915300  0.707600  1.0
  C  C1208  1  0.429300  0.136900  0.344600  1.0
  C  C1209  1  0.084700  0.655400  0.792300  1.0
  C  C1210  1  0.863100  0.292400  0.207700  1.0
  C  C1211  1  0.915300  0.707600  0.570700  1.0
  C  C1212  1  0.136900  0.344600  0.429300  1.0
  C  C1213  1  0.655400  0.792300  0.084700  1.0
  C  C1214  1  0.292400  0.207700  0.863100  1.0
  C  C1215  1  0.707600  0.570700  0.915300  1.0
  C  C1216  1  0.344600  0.429300  0.136900  1.0
  F  F1217  1  0.000000  0.000000  0.564520  1
  F  F1218  1  0.000000  0.564520  0.000000  1
  F  F1219  1  0.564520  0.000000  0.000000  1
  F  F1220  1  0.435480  0.435480  0.435480  1
  F  F1221  1  0.993100  0.275500  0.643400  1
  F  F1222  1  0.006900  0.650300  0.282400  1
  F  F1223  1  0.367900  0.724500  0.717600  1
  F  F1224  1  0.632100  0.349700  0.356600  1
  F  F1225  1  0.275500  0.643400  0.993100  1
  F  F1226  1  0.650300  0.282400  0.006900  1
  F  F1227  1  0.724500  0.717600  0.367900  1
  F  F1228  1  0.349700  0.356600  0.632100  1
  F  F1229  1  0.643400  0.993100  0.275500  1
  F  F1230  1  0.282400  0.006900  0.650300  1
  F  F1231  1  0.717600  0.367900  0.724500  1
  F  F1232  1  0.356600  0.632100  0.349700  1
  F  F1233  1  0.950600  0.298200  0.600800  1
  F  F1234  1  0.049400  0.650200  0.347600  1
  F  F1235  1  0.302600  0.701800  0.652400  1
  F  F1236  1  0.697400  0.349800  0.399200  1
  F  F1237  1  0.298200  0.600800  0.950600  1
  F  F1238  1  0.650200  0.347600  0.049400  1
  F  F1239  1  0.701800  0.652400  0.302600  1
  F  F1240  1  0.349800  0.399200  0.697400  1
  F  F1241  1  0.600800  0.950600  0.298200  1
  F  F1242  1  0.347600  0.049400  0.650200  1
  F  F1243  1  0.652400  0.302600  0.701800  1
  F  F1244  1  0.399200  0.697400  0.349800  1
  F  F1245  1  0.974900  0.326600  0.674900  1
  F  F1246  1  0.025100  0.700000  0.351700  1
  F  F1247  1  0.348300  0.673400  0.648300  1
  F  F1248  1  0.651700  0.300000  0.325100  1
  F  F1249  1  0.326600  0.674900  0.974900  1
  F  F1250  1  0.700000  0.351700  0.025100  1
  F  F1251  1  0.673400  0.648300  0.348300  1
  F  F1252  1  0.300000  0.325100  0.651700  1
  F  F1253  1  0.674900  0.974900  0.326600  1
  F  F1254  1  0.351700  0.025100  0.700000  1
  F  F1255  1  0.648300  0.348300  0.673400  1
  F  F1256  1  0.325100  0.651700  0.300000  1
  F  F1257  1  0.922400  0.250400  0.623600  1
  F  F1258  1  0.077600  0.701200  0.328000  1
  F  F1259  1  0.373200  0.749600  0.672000  1
  F  F1260  1  0.626800  0.298800  0.376400  1
  F  F1261  1  0.250400  0.623600  0.922400  1
  F  F1262  1  0.701200  0.328000  0.077600  1
  F  F1263  1  0.749600  0.672000  0.373200  1
  F  F1264  1  0.298800  0.376400  0.626800  1
  F  F1265  1  0.623600  0.922400  0.250400  1
  F  F1266  1  0.328000  0.077600  0.701200  1
  F  F1267  1  0.672000  0.373200  0.749600  1
  F  F1268  1  0.376400  0.626800  0.298800  1
  F  F1269  1  0.015590  0.045140  0.531050  1.0
  F  F1270  1  0.984410  0.515460  0.029550  1.0
  F  F1271  1  0.485910  0.954860  0.970450  1.0
  F  F1272  1  0.514090  0.484540  0.468950  1.0
  F  F1273  1  0.045140  0.531050  0.015590  1.0
  F  F1274  1  0.515460  0.029550  0.984410  1.0
  F  F1275  1  0.954860  0.970450  0.485910  1.0
  F  F1276  1  0.484540  0.468950  0.514090  1.0
  F  F1277  1  0.531050  0.015590  0.045140  1.0
  F  F1278  1  0.029550  0.984410  0.515460  1.0
  F  F1279  1  0.970450  0.485910  0.954860  1.0
  F  F1280  1  0.468950  0.514090  0.484540  1.0
  F  F1281  1  0.990100  0.034500  0.702000  1.0
  F  F1282  1  0.009900  0.711900  0.044400  1.0
  F  F1283  1  0.667500  0.965500  0.955600  1.0
  F  F1284  1  0.332500  0.288100  0.298000  1.0
  F  F1285  1  0.034500  0.702000  0.990100  1.0
  F  F1286  1  0.711900  0.044400  0.009900  1.0
  F  F1287  1  0.965500  0.955600  0.667500  1.0
  F  F1288  1  0.288100  0.298000  0.332500  1.0
  F  F1289  1  0.702000  0.990100  0.034500  1.0
  F  F1290  1  0.044400  0.009900  0.711900  1.0
  F  F1291  1  0.955600  0.667500  0.965500  1.0
  F  F1292  1  0.298000  0.332500  0.288100  1.0
  F  F1293  1  0.032300  0.042600  0.772100  1.0
  F  F1294  1  0.967700  0.739800  0.010300  1.0
  F  F1295  1  0.729500  0.957400  0.989700  1.0
  F  F1296  1  0.270500  0.260200  0.227900  1.0
  F  F1297  1  0.042600  0.772100  0.032300  1.0
  F  F1298  1  0.739800  0.010300  0.967700  1.0
  F  F1299  1  0.957400  0.989700  0.729500  1.0
  F  F1300  1  0.260200  0.227900  0.270500  1.0
  F  F1301  1  0.772100  0.032300  0.042600  1.0
  F  F1302  1  0.010300  0.967700  0.739800  1.0
  F  F1303  1  0.989700  0.729500  0.957400  1.0
  F  F1304  1  0.227900  0.270500  0.260200  1.0
  F  F1305  1  0.956650  0.958390  0.311760  1.0
  F  F1306  1  0.043350  0.355110  0.001740  1.0
  F  F1307  1  0.353370  0.041610  0.998260  1.0
  F  F1308  1  0.646630  0.644890  0.688240  1.0
  F  F1309  1  0.958390  0.311760  0.956650  1.0
  F  F1310  1  0.355110  0.001740  0.043350  1.0
  F  F1311  1  0.041610  0.998260  0.353370  1.0
  F  F1312  1  0.644890  0.688240  0.646630  1.0
  F  F1313  1  0.311760  0.956650  0.958390  1.0
  F  F1314  1  0.001740  0.043350  0.355110  1.0
  F  F1315  1  0.998260  0.353370  0.041610  1.0
  F  F1316  1  0.688240  0.646630  0.644890  1.0
  F  F1317  1  0.042220  0.039570  0.418470  1.0
  F  F1318  1  0.957780  0.376250  0.997350  1.0
  F  F1319  1  0.378900  0.960430  0.002650  1.0
  F  F1320  1  0.621100  0.623750  0.581530  1.0
  F  F1321  1  0.039570  0.418470  0.042220  1.0
  F  F1322  1  0.376250  0.997350  0.957780  1.0
  F  F1323  1  0.960430  0.002650  0.378900  1.0
  F  F1324  1  0.623750  0.581530  0.621100  1.0
  F  F1325  1  0.418470  0.042220  0.039570  1.0
  F  F1326  1  0.997350  0.957780  0.376250  1.0
  F  F1327  1  0.002650  0.378900  0.960430  1.0
  F  F1328  1  0.581530  0.621100  0.623750  1.0
  H  H1329  1  0.055500  0.297300  0.539800  1.0
  H  H1330  1  0.944500  0.484300  0.241800  1.0
  H  H1331  1  0.242500  0.702700  0.758200  1.0
  H  H1332  1  0.757500  0.515700  0.460200  1.0
  H  H1333  1  0.297300  0.539800  0.055500  1.0
  H  H1334  1  0.484300  0.241800  0.944500  1.0
  H  H1335  1  0.702700  0.758200  0.242500  1.0
  H  H1336  1  0.515700  0.460200  0.757500  1.0
  H  H1337  1  0.539800  0.055500  0.297300  1.0
  H  H1338  1  0.241800  0.944500  0.484300  1.0
  H  H1339  1  0.758200  0.242500  0.702700  1.0
  H  H1340  1  0.460200  0.757500  0.515700  1.0
  H  H1341  1  0.999300  0.285400  0.566900  1.0
  H  H1342  1  0.000700  0.567600  0.286100  1.0
  H  H1343  1  0.281500  0.714600  0.713900  1.0
  H  H1344  1  0.718500  0.432400  0.433100  1.0
  H  H1345  1  0.285400  0.566900  0.999300  1.0
  H  H1346  1  0.567600  0.286100  0.000700  1.0
  H  H1347  1  0.714600  0.713900  0.281500  1.0
  H  H1348  1  0.432400  0.433100  0.718500  1.0
  H  H1349  1  0.566900  0.999300  0.285400  1.0
  H  H1350  1  0.286100  0.000700  0.567600  1.0
  H  H1351  1  0.713900  0.281500  0.714600  1.0
  H  H1352  1  0.433100  0.718500  0.432400  1.0
  H  H1353  1  0.905900  0.159100  0.493400  1.0
  H  H1354  1  0.094100  0.587500  0.253200  1.0
  H  H1355  1  0.334300  0.840900  0.746800  1.0
  H  H1356  1  0.665700  0.412500  0.506600  1.0
  H  H1357  1  0.159100  0.493400  0.905900  1.0
  H  H1358  1  0.587500  0.253200  0.094100  1.0
  H  H1359  1  0.840900  0.746800  0.334300  1.0
  H  H1360  1  0.412500  0.506600  0.665700  1.0
  H  H1361  1  0.493400  0.905900  0.159100  1.0
  H  H1362  1  0.253200  0.094100  0.587500  1.0
  H  H1363  1  0.746800  0.334300  0.840900  1.0
  H  H1364  1  0.506600  0.665700  0.412500  1.0
  H  H1365  1  0.926300  0.202200  0.542700  1.0
  H  H1366  1  0.073700  0.616400  0.275900  1.0
  H  H1367  1  0.340500  0.797800  0.724100  1.0
  H  H1368  1  0.659500  0.383600  0.457300  1.0
  H  H1369  1  0.202200  0.542700  0.926300  1.0
  H  H1370  1  0.616400  0.275900  0.073700  1.0
  H  H1371  1  0.797800  0.724100  0.340500  1.0
  H  H1372  1  0.383600  0.457300  0.659500  1.0
  H  H1373  1  0.542700  0.926300  0.202200  1.0
  H  H1374  1  0.275900  0.073700  0.616400  1.0
  H  H1375  1  0.724100  0.340500  0.797800  1.0
  H  H1376  1  0.457300  0.659500  0.383600  1.0
  H  H1377  1  0.092800  0.273600  0.495400  1.0
  H  H1378  1  0.907200  0.402600  0.180800  1.0
  H  H1379  1  0.221800  0.726400  0.819200  1.0
  H  H1380  1  0.778200  0.597400  0.504600  1.0
  H  H1381  1  0.273600  0.495400  0.092800  1.0
  H  H1382  1  0.402600  0.180800  0.907200  1.0
  H  H1383  1  0.726400  0.819200  0.221800  1.0
  H  H1384  1  0.597400  0.504600  0.778200  1.0
  H  H1385  1  0.495400  0.092800  0.273600  1.0
  H  H1386  1  0.180800  0.907200  0.402600  1.0
  H  H1387  1  0.819200  0.221800  0.726400  1.0
  H  H1388  1  0.504600  0.778200  0.597400  1.0
  H  H1389  1  0.119700  0.246900  0.448800  1.0
  H  H1390  1  0.880300  0.329100  0.127200  1.0
  H  H1391  1  0.201900  0.753100  0.872800  1.0
  H  H1392  1  0.798100  0.670900  0.551200  1.0
  H  H1393  1  0.246900  0.448800  0.119700  1.0
  H  H1394  1  0.329100  0.127200  0.880300  1.0
  H  H1395  1  0.753100  0.872800  0.201900  1.0
  H  H1396  1  0.670900  0.551200  0.798100  1.0
  H  H1397  1  0.448800  0.119700  0.246900  1.0
  H  H1398  1  0.127200  0.880300  0.329100  1.0
  H  H1399  1  0.872800  0.201900  0.753100  1.0
  H  H1400  1  0.551200  0.798100  0.670900  1.0
  H  H1401  1  0.076200  0.171300  0.385900  1.0
  H  H1402  1  0.923800  0.309700  0.095100  1.0
  H  H1403  1  0.214600  0.828700  0.904900  1.0
  H  H1404  1  0.785400  0.690300  0.614100  1.0
  H  H1405  1  0.171300  0.385900  0.076200  1.0
  H  H1406  1  0.309700  0.095100  0.923800  1.0
  H  H1407  1  0.828700  0.904900  0.214600  1.0
  H  H1408  1  0.690300  0.614100  0.785400  1.0
  H  H1409  1  0.385900  0.076200  0.171300  1.0
  H  H1410  1  0.095100  0.923800  0.309700  1.0
  H  H1411  1  0.904900  0.214600  0.828700  1.0
  H  H1412  1  0.614100  0.785400  0.690300  1.0
  H  H1413  1  0.004300  0.123200  0.372900  1.0
  H  H1414  1  0.995700  0.368600  0.118900  1.0
  H  H1415  1  0.249700  0.876800  0.881100  1.0
  H  H1416  1  0.750300  0.631400  0.627100  1.0
  H  H1417  1  0.123200  0.372900  0.004300  1.0
  H  H1418  1  0.368600  0.118900  0.995700  1.0
  H  H1419  1  0.876800  0.881100  0.249700  1.0
  H  H1420  1  0.631400  0.627100  0.750300  1.0
  H  H1421  1  0.372900  0.004300  0.123200  1.0
  H  H1422  1  0.118900  0.995700  0.368600  1.0
  H  H1423  1  0.881100  0.249700  0.876800  1.0
  H  H1424  1  0.627100  0.750300  0.631400  1.0
  H  H1425  1  0.911300  0.202700  0.679200  1.0
  H  H1426  1  0.088700  0.767900  0.291400  1.0
  H  H1427  1  0.476500  0.797300  0.708600  1.0
  H  H1428  1  0.523500  0.232100  0.320800  1.0
  H  H1429  1  0.202700  0.679200  0.911300  1.0
  H  H1430  1  0.767900  0.291400  0.088700  1.0
  H  H1431  1  0.797300  0.708600  0.476500  1.0
  H  H1432  1  0.232100  0.320800  0.523500  1.0
  H  H1433  1  0.679200  0.911300  0.202700  1.0
  H  H1434  1  0.291400  0.088700  0.767900  1.0
  H  H1435  1  0.708600  0.476500  0.797300  1.0
  H  H1436  1  0.320800  0.523500  0.232100  1.0
  H  H1437  1  0.856400  0.173600  0.597400  1.0
  H  H1438  1  0.143600  0.741000  0.317200  1.0
  H  H1439  1  0.423800  0.826400  0.682800  1.0
  H  H1440  1  0.576200  0.259000  0.402600  1.0
  H  H1441  1  0.173600  0.597400  0.856400  1.0
  H  H1442  1  0.741000  0.317200  0.143600  1.0
  H  H1443  1  0.826400  0.682800  0.423800  1.0
  H  H1444  1  0.259000  0.402600  0.576200  1.0
  H  H1445  1  0.597400  0.856400  0.173600  1.0
  H  H1446  1  0.317200  0.143600  0.741000  1.0
  H  H1447  1  0.682800  0.423800  0.826400  1.0
  H  H1448  1  0.402600  0.576200  0.259000  1.0
  H  H1449  1  0.797800  0.043400  0.531800  1.0
  H  H1450  1  0.202200  0.734000  0.245600  1.0
  H  H1451  1  0.488400  0.956600  0.754400  1.0
  H  H1452  1  0.511600  0.266000  0.468200  1.0
  H  H1453  1  0.043400  0.531800  0.797800  1.0
  H  H1454  1  0.734000  0.245600  0.202200  1.0
  H  H1455  1  0.956600  0.754400  0.488400  1.0
  H  H1456  1  0.266000  0.468200  0.511600  1.0
  H  H1457  1  0.531800  0.797800  0.043400  1.0
  H  H1458  1  0.245600  0.202200  0.734000  1.0
  H  H1459  1  0.754400  0.488400  0.956600  1.0
  H  H1460  1  0.468200  0.511600  0.266000  1.0
  H  H1461  1  0.832900  0.076600  0.522900  1.0
  H  H1462  1  0.167100  0.690000  0.243700  1.0
  H  H1463  1  0.446300  0.923400  0.756300  1.0
  H  H1464  1  0.553700  0.310000  0.477100  1.0
  H  H1465  1  0.076600  0.522900  0.832900  1.0
  H  H1466  1  0.690000  0.243700  0.167100  1.0
  H  H1467  1  0.923400  0.756300  0.446300  1.0
  H  H1468  1  0.310000  0.477100  0.553700  1.0
  H  H1469  1  0.522900  0.832900  0.076600  1.0
  H  H1470  1  0.243700  0.167100  0.690000  1.0
  H  H1471  1  0.756300  0.446300  0.923400  1.0
  H  H1472  1  0.477100  0.553700  0.310000  1.0
  H  H1473  1  0.955900  0.195000  0.746500  1.0
  H  H1474  1  0.044100  0.790600  0.239100  1.0
  H  H1475  1  0.551500  0.805000  0.760900  1.0
  H  H1476  1  0.448500  0.209400  0.253500  1.0
  H  H1477  1  0.195000  0.746500  0.955900  1.0
  H  H1478  1  0.790600  0.239100  0.044100  1.0
  H  H1479  1  0.805000  0.760900  0.551500  1.0
  H  H1480  1  0.209400  0.253500  0.448500  1.0
  H  H1481  1  0.746500  0.955900  0.195000  1.0
  H  H1482  1  0.239100  0.044100  0.790600  1.0
  H  H1483  1  0.760900  0.551500  0.805000  1.0
  H  H1484  1  0.253500  0.448500  0.209400  1.0
  H  H1485  1  0.994400  0.181600  0.804200  1.0
  H  H1486  1  0.005600  0.809800  0.187200  1.0
  H  H1487  1  0.622600  0.818400  0.812800  1.0
  H  H1488  1  0.377400  0.190200  0.195800  1.0
  H  H1489  1  0.181600  0.804200  0.994400  1.0
  H  H1490  1  0.809800  0.187200  0.005600  1.0
  H  H1491  1  0.818400  0.812800  0.622600  1.0
  H  H1492  1  0.190200  0.195800  0.377400  1.0
  H  H1493  1  0.804200  0.994400  0.181600  1.0
  H  H1494  1  0.187200  0.005600  0.809800  1.0
  H  H1495  1  0.812800  0.622600  0.818400  1.0
  H  H1496  1  0.195800  0.377400  0.190200  1.0
  H  H1497  1  0.977800  0.106200  0.787000  1.0
  H  H1498  1  0.022200  0.809200  0.128400  1.0
  H  H1499  1  0.680800  0.893800  0.871600  1.0
  H  H1500  1  0.319200  0.190800  0.213000  1.0
  H  H1501  1  0.106200  0.787000  0.977800  1.0
  H  H1502  1  0.809200  0.128400  0.022200  1.0
  H  H1503  1  0.893800  0.871600  0.680800  1.0
  H  H1504  1  0.190800  0.213000  0.319200  1.0
  H  H1505  1  0.787000  0.977800  0.106200  1.0
  H  H1506  1  0.128400  0.022200  0.809200  1.0
  H  H1507  1  0.871600  0.680800  0.893800  1.0
  H  H1508  1  0.213000  0.319200  0.190800  1.0
  H  H1509  1  0.922700  0.044300  0.712200  1.0
  H  H1510  1  0.077300  0.789500  0.121600  1.0
  H  H1511  1  0.667900  0.955700  0.878400  1.0
  H  H1512  1  0.332100  0.210500  0.287800  1.0
  H  H1513  1  0.044300  0.712200  0.922700  1.0
  H  H1514  1  0.789500  0.121600  0.077300  1.0
  H  H1515  1  0.955700  0.878400  0.667900  1.0
  H  H1516  1  0.210500  0.287800  0.332100  1.0
  H  H1517  1  0.712200  0.922700  0.044300  1.0
  H  H1518  1  0.121600  0.077300  0.789500  1.0
  H  H1519  1  0.878400  0.667900  0.955700  1.0
  H  H1520  1  0.287800  0.332100  0.210500  1.0
  H  H1521  1  0.912700  0.248400  0.477100  1.0
  H  H1522  1  0.087300  0.564400  0.335700  1.0
  H  H1523  1  0.228700  0.751600  0.664300  1.0
  H  H1524  1  0.771300  0.435600  0.522900  1.0
  H  H1525  1  0.248400  0.477100  0.912700  1.0
  H  H1526  1  0.564400  0.335700  0.087300  1.0
  H  H1527  1  0.751600  0.664300  0.228700  1.0
  H  H1528  1  0.435600  0.522900  0.771300  1.0
  H  H1529  1  0.477100  0.912700  0.248400  1.0
  H  H1530  1  0.335700  0.087300  0.564400  1.0
  H  H1531  1  0.664300  0.228700  0.751600  1.0
  H  H1532  1  0.522900  0.771300  0.435600  1.0
  H  H1533  1  0.851900  0.260500  0.443600  1.0
  H  H1534  1  0.148100  0.591700  0.408600  1.0
  H  H1535  1  0.183100  0.739500  0.591400  1.0
  H  H1536  1  0.816900  0.408300  0.556400  1.0
  H  H1537  1  0.260500  0.443600  0.851900  1.0
  H  H1538  1  0.591700  0.408600  0.148100  1.0
  H  H1539  1  0.739500  0.591400  0.183100  1.0
  H  H1540  1  0.408300  0.556400  0.816900  1.0
  H  H1541  1  0.443600  0.851900  0.260500  1.0
  H  H1542  1  0.408600  0.148100  0.591700  1.0
  H  H1543  1  0.591400  0.183100  0.739500  1.0
  H  H1544  1  0.556400  0.816900  0.408300  1.0
  H  H1545  1  0.780400  0.219600  0.436600  1.0
  H  H1546  1  0.219600  0.656200  0.439200  1.0
  H  H1547  1  0.217000  0.780400  0.560800  1.0
  H  H1548  1  0.783000  0.343800  0.563400  1.0
  H  H1549  1  0.219600  0.436600  0.780400  1.0
  H  H1550  1  0.656200  0.439200  0.219600  1.0
  H  H1551  1  0.780400  0.560800  0.217000  1.0
  H  H1552  1  0.343800  0.563400  0.783000  1.0
  H  H1553  1  0.436600  0.780400  0.219600  1.0
  H  H1554  1  0.439200  0.219600  0.656200  1.0
  H  H1555  1  0.560800  0.217000  0.780400  1.0
  H  H1556  1  0.563400  0.783000  0.343800  1.0
  H  H1557  1  0.682100  0.107900  0.460800  1.0
  H  H1558  1  0.317900  0.778700  0.425800  1.0
  H  H1559  1  0.352900  0.892100  0.574200  1.0
  H  H1560  1  0.647100  0.221300  0.539200  1.0
  H  H1561  1  0.107900  0.460800  0.682100  1.0
  H  H1562  1  0.778700  0.425800  0.317900  1.0
  H  H1563  1  0.892100  0.574200  0.352900  1.0
  H  H1564  1  0.221300  0.539200  0.647100  1.0
  H  H1565  1  0.460800  0.682100  0.107900  1.0
  H  H1566  1  0.425800  0.317900  0.778700  1.0
  H  H1567  1  0.574200  0.352900  0.892100  1.0
  H  H1568  1  0.539200  0.647100  0.221300  1.0
  H  H1569  1  0.669800  0.055900  0.488300  1.0
  H  H1570  1  0.330200  0.818500  0.386100  1.0
  H  H1571  1  0.432400  0.944100  0.613900  1.0
  H  H1572  1  0.567600  0.181500  0.511700  1.0
  H  H1573  1  0.055900  0.488300  0.669800  1.0
  H  H1574  1  0.818500  0.386100  0.330200  1.0
  H  H1575  1  0.944100  0.613900  0.432400  1.0
  H  H1576  1  0.181500  0.511700  0.567600  1.0
  H  H1577  1  0.488300  0.669800  0.055900  1.0
  H  H1578  1  0.386100  0.330200  0.818500  1.0
  H  H1579  1  0.613900  0.432400  0.944100  1.0
  H  H1580  1  0.511700  0.567600  0.181500  1.0
  H  H1581  1  0.729400  0.042800  0.522800  1.0
  H  H1582  1  0.270600  0.793400  0.313400  1.0
  H  H1583  1  0.480000  0.957200  0.686600  1.0
  H  H1584  1  0.520000  0.206600  0.477200  1.0
  H  H1585  1  0.042800  0.522800  0.729400  1.0
  H  H1586  1  0.793400  0.313400  0.270600  1.0
  H  H1587  1  0.957200  0.686600  0.480000  1.0
  H  H1588  1  0.206600  0.477200  0.520000  1.0
  H  H1589  1  0.522800  0.729400  0.042800  1.0
  H  H1590  1  0.313400  0.270600  0.793400  1.0
  H  H1591  1  0.686600  0.480000  0.957200  1.0
  H  H1592  1  0.477200  0.520000  0.206600  1.0
  H  H1593  1  0.730700  0.164000  0.449900  1.0
  H  H1594  1  0.269300  0.719200  0.433300  1.0
  H  H1595  1  0.285900  0.836000  0.566700  1.0
  H  H1596  1  0.714100  0.280800  0.550100  1.0
  H  H1597  1  0.164000  0.449900  0.730700  1.0
  H  H1598  1  0.719200  0.433300  0.269300  1.0
  H  H1599  1  0.836000  0.566700  0.285900  1.0
  H  H1600  1  0.280800  0.550100  0.714100  1.0
  H  H1601  1  0.449900  0.730700  0.164000  1.0
  H  H1602  1  0.433300  0.269300  0.719200  1.0
  H  H1603  1  0.566700  0.285900  0.836000  1.0
  H  H1604  1  0.550100  0.714100  0.280800  1.0
  H  H1605  1  0.851400  0.137600  0.515400  1.0
  H  H1606  1  0.148600  0.664000  0.286200  1.0
  H  H1607  1  0.377800  0.862400  0.713800  1.0
  H  H1608  1  0.622200  0.336000  0.484600  1.0
  H  H1609  1  0.137600  0.515400  0.851400  1.0
  H  H1610  1  0.664000  0.286200  0.148600  1.0
  H  H1611  1  0.862400  0.713800  0.377800  1.0
  H  H1612  1  0.336000  0.484600  0.622200  1.0
  H  H1613  1  0.515400  0.851400  0.137600  1.0
  H  H1614  1  0.286200  0.148600  0.664000  1.0
  H  H1615  1  0.713800  0.377800  0.862400  1.0
  H  H1616  1  0.484600  0.622200  0.336000  1.0
  H  H1617  1  0.910700  0.100300  0.246600  1.0
  H  H1618  1  0.089300  0.335900  0.189600  1.0
  H  H1619  1  0.146300  0.899700  0.810400  1.0
  H  H1620  1  0.853700  0.664100  0.753400  1.0
  H  H1621  1  0.100300  0.246600  0.910700  1.0
  H  H1622  1  0.335900  0.189600  0.089300  1.0
  H  H1623  1  0.899700  0.810400  0.146300  1.0
  H  H1624  1  0.664100  0.753400  0.853700  1.0
  H  H1625  1  0.246600  0.910700  0.100300  1.0
  H  H1626  1  0.189600  0.089300  0.335900  1.0
  H  H1627  1  0.810400  0.146300  0.899700  1.0
  H  H1628  1  0.753400  0.853700  0.664100  1.0
  H  H1629  1  0.894100  0.023900  0.242600  1.0
  H  H1630  1  0.105900  0.348500  0.129800  1.0
  H  H1631  1  0.218700  0.976100  0.870200  1.0
  H  H1632  1  0.781300  0.651500  0.757400  1.0
  H  H1633  1  0.023900  0.242600  0.894100  1.0
  H  H1634  1  0.348500  0.129800  0.105900  1.0
  H  H1635  1  0.976100  0.870200  0.218700  1.0
  H  H1636  1  0.651500  0.757400  0.781300  1.0
  H  H1637  1  0.242600  0.894100  0.023900  1.0
  H  H1638  1  0.129800  0.105900  0.348500  1.0
  H  H1639  1  0.870200  0.218700  0.976100  1.0
  H  H1640  1  0.757400  0.781300  0.651500  1.0
  H  H1641  1  0.912800  0.027400  0.350000  1.0
  H  H1642  1  0.087200  0.437200  0.114600  1.0
  H  H1643  1  0.322600  0.972600  0.885400  1.0
  H  H1644  1  0.677400  0.562800  0.650000  1.0
  H  H1645  1  0.027400  0.350000  0.912800  1.0
  H  H1646  1  0.437200  0.114600  0.087200  1.0
  H  H1647  1  0.972600  0.885400  0.322600  1.0
  H  H1648  1  0.562800  0.650000  0.677400  1.0
  H  H1649  1  0.350000  0.912800  0.027400  1.0
  H  H1650  1  0.114600  0.087200  0.437200  1.0
  H  H1651  1  0.885400  0.322600  0.972600  1.0
  H  H1652  1  0.650000  0.677400  0.562800  1.0
  H  H1653  1  0.893300  0.991100  0.297200  1.0
  H  H1654  1  0.106700  0.403900  0.097800  1.0
  H  H1655  1  0.306100  0.008900  0.902200  1.0
  H  H1656  1  0.693900  0.596100  0.702800  1.0
  H  H1657  1  0.991100  0.297200  0.893300  1.0
  H  H1658  1  0.403900  0.097800  0.106700  1.0
  H  H1659  1  0.008900  0.902200  0.306100  1.0
  H  H1660  1  0.596100  0.702800  0.693900  1.0
  H  H1661  1  0.297200  0.893300  0.991100  1.0
  H  H1662  1  0.097800  0.106700  0.403900  1.0
  H  H1663  1  0.902200  0.306100  0.008900  1.0
  H  H1664  1  0.702800  0.693900  0.596100  1.0
  H  H1665  1  0.926100  0.180300  0.281400  1.0
  H  H1666  1  0.073900  0.355300  0.254200  1.0
  H  H1667  1  0.101100  0.819700  0.745800  1.0
  H  H1668  1  0.898900  0.644700  0.718600  1.0
  H  H1669  1  0.180300  0.281400  0.926100  1.0
  H  H1670  1  0.355300  0.254200  0.073900  1.0
  H  H1671  1  0.819700  0.745800  0.101100  1.0
  H  H1672  1  0.644700  0.718600  0.898900  1.0
  H  H1673  1  0.281400  0.926100  0.180300  1.0
  H  H1674  1  0.254200  0.073900  0.355300  1.0
  H  H1675  1  0.745800  0.101100  0.819700  1.0
  H  H1676  1  0.718600  0.898900  0.644700  1.0
  H  H1677  1  0.936500  0.254500  0.317600  1.0
  H  H1678  1  0.063500  0.381100  0.318000  1.0
  H  H1679  1  0.063100  0.745500  0.682000  1.0
  H  H1680  1  0.936900  0.618900  0.682400  1.0
  H  H1681  1  0.254500  0.317600  0.936500  1.0
  H  H1682  1  0.381100  0.318000  0.063500  1.0
  H  H1683  1  0.745500  0.682000  0.063100  1.0
  H  H1684  1  0.618900  0.682400  0.936900  1.0
  H  H1685  1  0.317600  0.936500  0.254500  1.0
  H  H1686  1  0.318000  0.063500  0.381100  1.0
  H  H1687  1  0.682000  0.063100  0.745500  1.0
  H  H1688  1  0.682400  0.936900  0.618900  1.0
  H  H1689  1  0.942500  0.284600  0.390300  1.0
  H  H1690  1  0.057500  0.447800  0.342100  1.0
  H  H1691  1  0.105700  0.715400  0.657900  1.0
  H  H1692  1  0.894300  0.552200  0.609700  1.0
  H  H1693  1  0.284600  0.390300  0.942500  1.0
  H  H1694  1  0.447800  0.342100  0.057500  1.0
  H  H1695  1  0.715400  0.657900  0.105700  1.0
  H  H1696  1  0.552200  0.609700  0.894300  1.0
  H  H1697  1  0.390300  0.942500  0.284600  1.0
  H  H1698  1  0.342100  0.057500  0.447800  1.0
  H  H1699  1  0.657900  0.105700  0.715400  1.0
  H  H1700  1  0.609700  0.894300  0.552200  1.0
  H  H1701  1  0.938100  0.240500  0.427000  1.0
  H  H1702  1  0.061900  0.488900  0.302400  1.0
  H  H1703  1  0.186500  0.759500  0.697600  1.0
  H  H1704  1  0.813500  0.511100  0.573000  1.0
  H  H1705  1  0.240500  0.427000  0.938100  1.0
  H  H1706  1  0.488900  0.302400  0.061900  1.0
  H  H1707  1  0.759500  0.697600  0.186500  1.0
  H  H1708  1  0.511100  0.573000  0.813500  1.0
  H  H1709  1  0.427000  0.938100  0.240500  1.0
  H  H1710  1  0.302400  0.061900  0.488900  1.0
  H  H1711  1  0.697600  0.186500  0.759500  1.0
  H  H1712  1  0.573000  0.813500  0.511100  1.0
  H  H1713  1  0.907000  0.908800  0.342400  1.0
  H  H1714  1  0.093000  0.435400  0.001800  1.0
  H  H1715  1  0.433600  0.091200  0.998200  1.0
  H  H1716  1  0.566400  0.564600  0.657600  1.0
  H  H1717  1  0.908800  0.342400  0.907000  1.0
  H  H1718  1  0.435400  0.001800  0.093000  1.0
  H  H1719  1  0.091200  0.998200  0.433600  1.0
  H  H1720  1  0.564600  0.657600  0.566400  1.0
  H  H1721  1  0.342400  0.907000  0.908800  1.0
  H  H1722  1  0.001800  0.093000  0.435400  1.0
  H  H1723  1  0.998200  0.433600  0.091200  1.0
  H  H1724  1  0.657600  0.566400  0.564600  1.0
  H  H1725  1  0.932100  0.940300  0.397200  1.0
  H  H1726  1  0.067900  0.465100  0.008200  1.0
  H  H1727  1  0.456900  0.059700  0.991800  1.0
  H  H1728  1  0.543100  0.534900  0.602800  1.0
  H  H1729  1  0.940300  0.397200  0.932100  1.0
  H  H1730  1  0.465100  0.008200  0.067900  1.0
  H  H1731  1  0.059700  0.991800  0.456900  1.0
  H  H1732  1  0.534900  0.602800  0.543100  1.0
  H  H1733  1  0.397200  0.932100  0.940300  1.0
  H  H1734  1  0.008200  0.067900  0.465100  1.0
  H  H1735  1  0.991800  0.456900  0.059700  1.0
  H  H1736  1  0.602800  0.543100  0.534900  1.0
  H  H1737  1  0.823600  0.035200  0.281200  1.0
  H  H1738  1  0.176400  0.457600  0.211600  1.0
  H  H1739  1  0.246000  0.964800  0.788400  1.0
  H  H1740  1  0.754000  0.542400  0.718800  1.0
  H  H1741  1  0.035200  0.281200  0.823600  1.0
  H  H1742  1  0.457600  0.211600  0.176400  1.0
  H  H1743  1  0.964800  0.788400  0.246000  1.0
  H  H1744  1  0.542400  0.718800  0.754000  1.0
  H  H1745  1  0.281200  0.823600  0.035200  1.0
  H  H1746  1  0.211600  0.176400  0.457600  1.0
  H  H1747  1  0.788400  0.246000  0.964800  1.0
  H  H1748  1  0.718800  0.754000  0.542400  1.0
  H  H1749  1  0.746900  0.003400  0.268700  1.0
  H  H1750  1  0.253100  0.521800  0.256500  1.0
  H  H1751  1  0.265300  0.996600  0.743500  1.0
  H  H1752  1  0.734700  0.478200  0.731300  1.0
  H  H1753  1  0.003400  0.268700  0.746900  1.0
  H  H1754  1  0.521800  0.256500  0.253100  1.0
  H  H1755  1  0.996600  0.743500  0.265300  1.0
  H  H1756  1  0.478200  0.731300  0.734700  1.0
  H  H1757  1  0.268700  0.746900  0.003400  1.0
  H  H1758  1  0.256500  0.253100  0.521800  1.0
  H  H1759  1  0.743500  0.265300  0.996600  1.0
  H  H1760  1  0.731300  0.734700  0.478200  1.0
  H  H1761  1  0.722000  0.953300  0.291500  1.0
  H  H1762  1  0.278000  0.569500  0.231300  1.0
  H  H1763  1  0.338200  0.046700  0.768700  1.0
  H  H1764  1  0.661800  0.430500  0.708500  1.0
  H  H1765  1  0.953300  0.291500  0.722000  1.0
  H  H1766  1  0.569500  0.231300  0.278000  1.0
  H  H1767  1  0.046700  0.768700  0.338200  1.0
  H  H1768  1  0.430500  0.708500  0.661800  1.0
  H  H1769  1  0.291500  0.722000  0.953300  1.0
  H  H1770  1  0.231300  0.278000  0.569500  1.0
  H  H1771  1  0.768700  0.338200  0.046700  1.0
  H  H1772  1  0.708500  0.661800  0.430500  1.0
  H  H1773  1  0.747700  0.858700  0.363400  1.0
  H  H1774  1  0.252300  0.615700  0.111000  1.0
  H  H1775  1  0.504700  0.141300  0.889000  1.0
  H  H1776  1  0.495300  0.384300  0.636600  1.0
  H  H1777  1  0.858700  0.363400  0.747700  1.0
  H  H1778  1  0.615700  0.111000  0.252300  1.0
  H  H1779  1  0.141300  0.889000  0.504700  1.0
  H  H1780  1  0.384300  0.636600  0.495300  1.0
  H  H1781  1  0.363400  0.747700  0.858700  1.0
  H  H1782  1  0.111000  0.252300  0.615700  1.0
  H  H1783  1  0.889000  0.504700  0.141300  1.0
  H  H1784  1  0.636600  0.495300  0.384300  1.0
  H  H1785  1  0.791600  0.830000  0.389800  1.0
  H  H1786  1  0.208400  0.598200  0.038400  1.0
  H  H1787  1  0.559800  0.170000  0.961600  1.0
  H  H1788  1  0.440200  0.401800  0.610200  1.0
  H  H1789  1  0.830000  0.389800  0.791600  1.0
  H  H1790  1  0.598200  0.038400  0.208400  1.0
  H  H1791  1  0.170000  0.961600  0.559800  1.0
  H  H1792  1  0.401800  0.610200  0.440200  1.0
  H  H1793  1  0.389800  0.791600  0.830000  1.0
  H  H1794  1  0.038400  0.208400  0.598200  1.0
  H  H1795  1  0.961600  0.559800  0.170000  1.0
  H  H1796  1  0.610200  0.440200  0.401800  1.0
  H  H1797  1  0.864800  0.850800  0.393800  1.0
  H  H1798  1  0.135200  0.529000  0.986000  1.0
  H  H1799  1  0.543000  0.149200  0.014000  1.0
  H  H1800  1  0.457000  0.471000  0.606200  1.0
  H  H1801  1  0.850800  0.393800  0.864800  1.0
  H  H1802  1  0.529000  0.986000  0.135200  1.0
  H  H1803  1  0.149200  0.014000  0.543000  1.0
  H  H1804  1  0.471000  0.606200  0.457000  1.0
  H  H1805  1  0.393800  0.864800  0.850800  1.0
  H  H1806  1  0.986000  0.135200  0.529000  1.0
  H  H1807  1  0.014000  0.543000  0.149200  1.0
  H  H1808  1  0.606200  0.457000  0.471000  1.0
  H  H1809  1  0.735600  0.907000  0.328200  1.0
  H  H1810  1  0.264400  0.592600  0.171400  1.0
  H  H1811  1  0.421200  0.093000  0.828600  1.0
  H  H1812  1  0.578800  0.407400  0.671800  1.0
  H  H1813  1  0.907000  0.328200  0.735600  1.0
  H  H1814  1  0.592600  0.171400  0.264400  1.0
  H  H1815  1  0.093000  0.828600  0.421200  1.0
  H  H1816  1  0.407400  0.671800  0.578800  1.0
  H  H1817  1  0.328200  0.735600  0.907000  1.0
  H  H1818  1  0.171400  0.264400  0.592600  1.0
  H  H1819  1  0.828600  0.421200  0.093000  1.0
  H  H1820  1  0.671800  0.578800  0.407400  1.0
  H  H1821  1  0.883300  0.958100  0.343800  1.0
  H  H1822  1  0.116700  0.460500  0.074800  1.0
  H  H1823  1  0.385700  0.041900  0.925200  1.0
  H  H1824  1  0.614300  0.539500  0.656200  1.0
  H  H1825  1  0.958100  0.343800  0.883300  1.0
  H  H1826  1  0.460500  0.074800  0.116700  1.0
  H  H1827  1  0.041900  0.925200  0.385700  1.0
  H  H1828  1  0.539500  0.656200  0.614300  1.0
  H  H1829  1  0.343800  0.883300  0.958100  1.0
  H  H1830  1  0.074800  0.116700  0.460500  1.0
  H  H1831  1  0.925200  0.385700  0.041900  1.0
  H  H1832  1  0.656200  0.614300  0.539500  1.0
  H  H1833  1  0.857000  0.018000  0.442200  1.0
  H  H1834  1  0.143000  0.585200  0.161000  1.0
  H  H1835  1  0.424200  0.982000  0.839000  1.0
  H  H1836  1  0.575800  0.414800  0.557800  1.0
  H  H1837  1  0.018000  0.442200  0.857000  1.0
  H  H1838  1  0.585200  0.161000  0.143000  1.0
  H  H1839  1  0.982000  0.839000  0.424200  1.0
  H  H1840  1  0.414800  0.557800  0.575800  1.0
  H  H1841  1  0.442200  0.857000  0.018000  1.0
  H  H1842  1  0.161000  0.143000  0.585200  1.0
  H  H1843  1  0.839000  0.424200  0.982000  1.0
  H  H1844  1  0.557800  0.575800  0.414800  1.0
  H  H1845  1  0.976000  0.912200  0.445000  1.0
  H  H1846  1  0.024000  0.469000  0.936200  1.0
  H  H1847  1  0.532800  0.087800  0.063800  1.0
  H  H1848  1  0.467200  0.531000  0.555000  1.0
  H  H1849  1  0.912200  0.445000  0.976000  1.0
  H  H1850  1  0.469000  0.936200  0.024000  1.0
  H  H1851  1  0.087800  0.063800  0.532800  1.0
  H  H1852  1  0.531000  0.555000  0.467200  1.0
  H  H1853  1  0.445000  0.976000  0.912200  1.0
  H  H1854  1  0.936200  0.024000  0.469000  1.0
  H  H1855  1  0.063800  0.532800  0.087800  1.0
  H  H1856  1  0.555000  0.467200  0.531000  1.0
  H  H1857  1  0.798300  0.034800  0.407700  1.0
  H  H1858  1  0.201700  0.609400  0.236500  1.0
  H  H1859  1  0.372900  0.965200  0.763500  1.0
  H  H1860  1  0.627100  0.390600  0.592300  1.0
  H  H1861  1  0.034800  0.407700  0.798300  1.0
  H  H1862  1  0.609400  0.236500  0.201700  1.0
  H  H1863  1  0.965200  0.763500  0.372900  1.0
  H  H1864  1  0.390600  0.592300  0.627100  1.0
  H  H1865  1  0.407700  0.798300  0.034800  1.0
  H  H1866  1  0.236500  0.201700  0.609400  1.0
  H  H1867  1  0.763500  0.372900  0.965200  1.0
  H  H1868  1  0.592300  0.627100  0.390600  1.0
  H  H1869  1  0.744500  0.056500  0.377000  1.0
  H  H1870  1  0.255500  0.632500  0.312000  1.0
  H  H1871  1  0.320500  0.943500  0.688000  1.0
  H  H1872  1  0.679500  0.367500  0.623000  1.0
  H  H1873  1  0.056500  0.377000  0.744500  1.0
  H  H1874  1  0.632500  0.312000  0.255500  1.0
  H  H1875  1  0.943500  0.688000  0.320500  1.0
  H  H1876  1  0.367500  0.623000  0.679500  1.0
  H  H1877  1  0.377000  0.744500  0.056500  1.0
  H  H1878  1  0.312000  0.255500  0.632500  1.0
  H  H1879  1  0.688000  0.320500  0.943500  1.0
  H  H1880  1  0.623000  0.679500  0.367500  1.0
  H  H1881  1  0.770700  0.118300  0.363600  1.0
  H  H1882  1  0.229300  0.592900  0.347600  1.0
  H  H1883  1  0.245300  0.881700  0.652400  1.0
  H  H1884  1  0.754700  0.407100  0.636400  1.0
  H  H1885  1  0.118300  0.363600  0.770700  1.0
  H  H1886  1  0.592900  0.347600  0.229300  1.0
  H  H1887  1  0.881700  0.652400  0.245300  1.0
  H  H1888  1  0.407100  0.636400  0.754700  1.0
  H  H1889  1  0.363600  0.770700  0.118300  1.0
  H  H1890  1  0.347600  0.229300  0.592900  1.0
  H  H1891  1  0.652400  0.245300  0.881700  1.0
  H  H1892  1  0.636400  0.754700  0.407100  1.0
  H  H1893  1  0.843500  0.149300  0.372000  1.0
  H  H1894  1  0.156500  0.528500  0.305800  1.0
  H  H1895  1  0.222700  0.850700  0.694200  1.0
  H  H1896  1  0.777300  0.471500  0.628000  1.0
  H  H1897  1  0.149300  0.372000  0.843500  1.0
  H  H1898  1  0.528500  0.305800  0.156500  1.0
  H  H1899  1  0.850700  0.694200  0.222700  1.0
  H  H1900  1  0.471500  0.628000  0.777300  1.0
  H  H1901  1  0.372000  0.843500  0.149300  1.0
  H  H1902  1  0.305800  0.156500  0.528500  1.0
  H  H1903  1  0.694200  0.222700  0.850700  1.0
  H  H1904  1  0.628000  0.777300  0.471500  1.0
  H  H1905  1  0.821800  0.917500  0.472900  1.0
  H  H1906  1  0.178200  0.651100  0.095700  1.0
  H  H1907  1  0.555400  0.082500  0.904300  1.0
  H  H1908  1  0.444600  0.348900  0.527100  1.0
  H  H1909  1  0.917500  0.472900  0.821800  1.0
  H  H1910  1  0.651100  0.095700  0.178200  1.0
  H  H1911  1  0.082500  0.904300  0.555400  1.0
  H  H1912  1  0.348900  0.527100  0.444600  1.0
  H  H1913  1  0.472900  0.821800  0.917500  1.0
  H  H1914  1  0.095700  0.178200  0.651100  1.0
  H  H1915  1  0.904300  0.555400  0.082500  1.0
  H  H1916  1  0.527100  0.444600  0.348900  1.0
  H  H1917  1  0.906900  0.962500  0.520600  1.0
  H  H1918  1  0.093100  0.613700  0.055600  1.0
  H  H1919  1  0.558100  0.037500  0.944400  1.0
  H  H1920  1  0.441900  0.386300  0.479400  1.0
  H  H1921  1  0.962500  0.520600  0.906900  1.0
  H  H1922  1  0.613700  0.055600  0.093100  1.0
  H  H1923  1  0.037500  0.944400  0.558100  1.0
  H  H1924  1  0.386300  0.479400  0.441900  1.0
  H  H1925  1  0.520600  0.906900  0.962500  1.0
  H  H1926  1  0.055600  0.093100  0.613700  1.0
  H  H1927  1  0.944400  0.558100  0.037500  1.0
  H  H1928  1  0.479400  0.441900  0.386300  1.0
  H  H1929  1  0.964700  0.035600  0.633700  1.0
  H  H1930  1  0.035300  0.669000  0.070900  1.0
  H  H1931  1  0.598100  0.964400  0.929100  1.0
  H  H1932  1  0.401900  0.331000  0.366300  1.0
  H  H1933  1  0.035600  0.633700  0.964700  1.0
  H  H1934  1  0.669000  0.070900  0.035300  1.0
  H  H1935  1  0.964400  0.929100  0.598100  1.0
  H  H1936  1  0.331000  0.366300  0.401900  1.0
  H  H1937  1  0.633700  0.964700  0.035600  1.0
  H  H1938  1  0.070900  0.035300  0.669000  1.0
  H  H1939  1  0.929100  0.598100  0.964400  1.0
  H  H1940  1  0.366300  0.401900  0.331000  1.0
  H  H1941  1  0.739700  0.891600  0.458700  1.0
  H  H1942  1  0.260300  0.719000  0.151900  1.0
  H  H1943  1  0.567100  0.108400  0.848100  1.0
  H  H1944  1  0.432900  0.281000  0.541300  1.0
  H  H1945  1  0.891600  0.458700  0.739700  1.0
  H  H1946  1  0.719000  0.151900  0.260300  1.0
  H  H1947  1  0.108400  0.848100  0.567100  1.0
  H  H1948  1  0.281000  0.541300  0.432900  1.0
  H  H1949  1  0.458700  0.739700  0.891600  1.0
  H  H1950  1  0.151900  0.260300  0.719000  1.0
  H  H1951  1  0.848100  0.567100  0.108400  1.0
  H  H1952  1  0.541300  0.432900  0.281000  1.0
  H  H1953  1  0.668600  0.878400  0.452000  1.0
  H  H1954  1  0.331400  0.783400  0.209800  1.0
  H  H1955  1  0.573600  0.121600  0.790200  1.0
  H  H1956  1  0.426400  0.216600  0.548000  1.0
  H  H1957  1  0.878400  0.452000  0.668600  1.0
  H  H1958  1  0.783400  0.209800  0.331400  1.0
  H  H1959  1  0.121600  0.790200  0.573600  1.0
  H  H1960  1  0.216600  0.548000  0.426400  1.0
  H  H1961  1  0.452000  0.668600  0.878400  1.0
  H  H1962  1  0.209800  0.331400  0.783400  1.0
  H  H1963  1  0.790200  0.573600  0.121600  1.0
  H  H1964  1  0.548000  0.426400  0.216600  1.0
  H  H1965  1  0.664900  0.925700  0.512800  1.0
  H  H1966  1  0.335100  0.847900  0.260800  1.0
  H  H1967  1  0.587100  0.074300  0.739200  1.0
  H  H1968  1  0.412900  0.152100  0.487200  1.0
  H  H1969  1  0.925700  0.512800  0.664900  1.0
  H  H1970  1  0.847900  0.260800  0.335100  1.0
  H  H1971  1  0.074300  0.739200  0.587100  1.0
  H  H1972  1  0.152100  0.487200  0.412900  1.0
  H  H1973  1  0.512800  0.664900  0.925700  1.0
  H  H1974  1  0.260800  0.335100  0.847900  1.0
  H  H1975  1  0.739200  0.587100  0.074300  1.0
  H  H1976  1  0.487200  0.412900  0.152100  1.0
  H  H1977  1  0.733400  0.990100  0.579300  1.0
  H  H1978  1  0.266600  0.845900  0.256700  1.0
  H  H1979  1  0.589200  0.009900  0.743300  1.0
  H  H1980  1  0.410800  0.154100  0.420700  1.0
  H  H1981  1  0.990100  0.579300  0.733400  1.0
  H  H1982  1  0.845900  0.256700  0.266600  1.0
  H  H1983  1  0.009900  0.743300  0.589200  1.0
  H  H1984  1  0.154100  0.420700  0.410800  1.0
  H  H1985  1  0.579300  0.733400  0.990100  1.0
  H  H1986  1  0.256700  0.266600  0.845900  1.0
  H  H1987  1  0.743300  0.589200  0.009900  1.0
  H  H1988  1  0.420700  0.410800  0.154100  1.0
  H  H1989  1  0.088400  0.150500  0.860300  1.0
  H  H1990  1  0.911600  0.771900  0.062100  1.0
  H  H1991  1  0.709800  0.849500  0.937900  1.0
  H  H1992  1  0.290200  0.228100  0.139700  1.0
  H  H1993  1  0.150500  0.860300  0.088400  1.0
  H  H1994  1  0.771900  0.062100  0.911600  1.0
  H  H1995  1  0.849500  0.937900  0.709800  1.0
  H  H1996  1  0.228100  0.139700  0.290200  1.0
  H  H1997  1  0.860300  0.088400  0.150500  1.0
  H  H1998  1  0.062100  0.911600  0.771900  1.0
  H  H1999  1  0.937900  0.709800  0.849500  1.0
  H  H2000  1  0.139700  0.290200  0.228100  1.0
  H  H2001  1  0.046400  0.118700  0.769700  1.0
  H  H2002  1  0.953600  0.723300  0.072300  1.0
  H  H2003  1  0.651000  0.881300  0.927700  1.0
  H  H2004  1  0.349000  0.276700  0.230300  1.0
  H  H2005  1  0.118700  0.769700  0.046400  1.0
  H  H2006  1  0.723300  0.072300  0.953600  1.0
  H  H2007  1  0.881300  0.927700  0.651000  1.0
  H  H2008  1  0.276700  0.230300  0.349000  1.0
  H  H2009  1  0.769700  0.046400  0.118700  1.0
  H  H2010  1  0.072300  0.953600  0.723300  1.0
  H  H2011  1  0.927700  0.651000  0.881300  1.0
  H  H2012  1  0.230300  0.349000  0.276700  1.0
  H  H2013  1  0.080300  0.119700  0.749000  1.0
  H  H2014  1  0.919700  0.668700  0.039400  1.0
  H  H2015  1  0.629300  0.880300  0.960600  1.0
  H  H2016  1  0.370700  0.331300  0.251000  1.0
  H  H2017  1  0.119700  0.749000  0.080300  1.0
  H  H2018  1  0.668700  0.039400  0.919700  1.0
  H  H2019  1  0.880300  0.960600  0.629300  1.0
  H  H2020  1  0.331300  0.251000  0.370700  1.0
  H  H2021  1  0.749000  0.080300  0.119700  1.0
  H  H2022  1  0.039400  0.919700  0.668700  1.0
  H  H2023  1  0.960600  0.629300  0.880300  1.0
  H  H2024  1  0.251000  0.370700  0.331300  1.0
  H  H2025  1  0.904000  0.047900  0.540100  1.0
  H  H2026  1  0.096000  0.636100  0.143900  1.0
  H  H2027  1  0.492200  0.952100  0.856100  1.0
  H  H2028  1  0.507800  0.363900  0.459900  1.0
  H  H2029  1  0.047900  0.540100  0.904000  1.0
  H  H2030  1  0.636100  0.143900  0.096000  1.0
  H  H2031  1  0.952100  0.856100  0.492200  1.0
  H  H2032  1  0.363900  0.459900  0.507800  1.0
  H  H2033  1  0.540100  0.904000  0.047900  1.0
  H  H2034  1  0.143900  0.096000  0.636100  1.0
  H  H2035  1  0.856100  0.492200  0.952100  1.0
  H  H2036  1  0.459900  0.507800  0.363900  1.0
  H  H2037  1  0.909300  0.114400  0.535500  1.0
  H  H2038  1  0.090700  0.626200  0.205100  1.0
  H  H2039  1  0.421100  0.885600  0.794900  1.0
  H  H2040  1  0.578900  0.373800  0.464500  1.0
  H  H2041  1  0.114400  0.535500  0.909300  1.0
  H  H2042  1  0.626200  0.205100  0.090700  1.0
  H  H2043  1  0.885600  0.794900  0.421100  1.0
  H  H2044  1  0.373800  0.464500  0.578900  1.0
  H  H2045  1  0.535500  0.909300  0.114400  1.0
  H  H2046  1  0.205100  0.090700  0.626200  1.0
  H  H2047  1  0.794900  0.421100  0.885600  1.0
  H  H2048  1  0.464500  0.578900  0.373800  1.0
  H  H2049  1  0.962200  0.186800  0.599800  1.0
  H  H2050  1  0.037800  0.637600  0.224600  1.0
  H  H2051  1  0.413000  0.813200  0.775400  1.0
  H  H2052  1  0.587000  0.362400  0.400200  1.0
  H  H2053  1  0.186800  0.599800  0.962200  1.0
  H  H2054  1  0.637600  0.224600  0.037800  1.0
  H  H2055  1  0.813200  0.775400  0.413000  1.0
  H  H2056  1  0.362400  0.400200  0.587000  1.0
  H  H2057  1  0.599800  0.962200  0.186800  1.0
  H  H2058  1  0.224600  0.037800  0.637600  1.0
  H  H2059  1  0.775400  0.413000  0.813200  1.0
  H  H2060  1  0.400200  0.587000  0.362400  1.0
  H  H2061  1  0.085200  0.284000  0.759400  1.0
  H  H2062  1  0.914800  0.674200  0.198800  1.0
  H  H2063  1  0.475400  0.716000  0.801200  1.0
  H  H2064  1  0.524600  0.325800  0.240600  1.0
  H  H2065  1  0.284000  0.759400  0.085200  1.0
  H  H2066  1  0.674200  0.198800  0.914800  1.0
  H  H2067  1  0.716000  0.801200  0.475400  1.0
  H  H2068  1  0.325800  0.240600  0.524600  1.0
  H  H2069  1  0.759400  0.085200  0.284000  1.0
  H  H2070  1  0.198800  0.914800  0.674200  1.0
  H  H2071  1  0.801200  0.475400  0.716000  1.0
  H  H2072  1  0.240600  0.524600  0.325800  1.0
  H  H2073  1  0.134600  0.293500  0.829300  1.0
  H  H2074  1  0.865400  0.694700  0.158900  1.0
  H  H2075  1  0.535800  0.706500  0.841100  1.0
  H  H2076  1  0.464200  0.305300  0.170700  1.0
  H  H2077  1  0.293500  0.829300  0.134600  1.0
  H  H2078  1  0.694700  0.158900  0.865400  1.0
  H  H2079  1  0.706500  0.841100  0.535800  1.0
  H  H2080  1  0.305300  0.170700  0.464200  1.0
  H  H2081  1  0.829300  0.134600  0.293500  1.0
  H  H2082  1  0.158900  0.865400  0.694700  1.0
  H  H2083  1  0.841100  0.535800  0.706500  1.0
  H  H2084  1  0.170700  0.464200  0.305300  1.0
  H  H2085  1  0.129400  0.228600  0.836000  1.0
  H  H2086  1  0.870600  0.706600  0.099200  1.0
  H  H2087  1  0.607400  0.771400  0.900800  1.0
  H  H2088  1  0.392600  0.293400  0.164000  1.0
  H  H2089  1  0.228600  0.836000  0.129400  1.0
  H  H2090  1  0.706600  0.099200  0.870600  1.0
  H  H2091  1  0.771400  0.900800  0.607400  1.0
  H  H2092  1  0.293400  0.164000  0.392600  1.0
  H  H2093  1  0.836000  0.129400  0.228600  1.0
  H  H2094  1  0.099200  0.870600  0.706600  1.0
  H  H2095  1  0.900800  0.607400  0.771400  1.0
  H  H2096  1  0.164000  0.392600  0.293400  1.0
  H  H2097  1  0.023900  0.234800  0.679900  1.0
  H  H2098  1  0.976100  0.656000  0.210900  1.0
  H  H2099  1  0.445100  0.765200  0.789100  1.0
  H  H2100  1  0.554900  0.344000  0.320100  1.0
  H  H2101  1  0.234800  0.679900  0.023900  1.0
  H  H2102  1  0.656000  0.210900  0.976100  1.0
  H  H2103  1  0.765200  0.789100  0.445100  1.0
  H  H2104  1  0.344000  0.320100  0.554900  1.0
  H  H2105  1  0.679900  0.023900  0.234800  1.0
  H  H2106  1  0.210900  0.976100  0.656000  1.0
  H  H2107  1  0.789100  0.445100  0.765200  1.0
  H  H2108  1  0.320100  0.554900  0.344000  1.0
  H  H2109  1  0.009700  0.102500  0.691200  1.0
  H  H2110  1  0.990300  0.681500  0.092800  1.0
  H  H2111  1  0.588700  0.897500  0.907200  1.0
  H  H2112  1  0.411300  0.318500  0.308800  1.0
  H  H2113  1  0.102500  0.691200  0.009700  1.0
  H  H2114  1  0.681500  0.092800  0.990300  1.0
  H  H2115  1  0.897500  0.907200  0.588700  1.0
  H  H2116  1  0.318500  0.308800  0.411300  1.0
  H  H2117  1  0.691200  0.009700  0.102500  1.0
  H  H2118  1  0.092800  0.990300  0.681500  1.0
  H  H2119  1  0.907200  0.588700  0.897500  1.0
  H  H2120  1  0.308800  0.411300  0.318500  1.0
  H  H2121  1  0.177900  0.190600  0.921300  1.0
  H  H2122  1  0.822100  0.743400  0.012700  1.0
  H  H2123  1  0.730700  0.809400  0.987300  1.0
  H  H2124  1  0.269300  0.256600  0.078700  1.0
  H  H2125  1  0.190600  0.921300  0.177900  1.0
  H  H2126  1  0.743400  0.012700  0.822100  1.0
  H  H2127  1  0.809400  0.987300  0.730700  1.0
  H  H2128  1  0.256600  0.078700  0.269300  1.0
  H  H2129  1  0.921300  0.177900  0.190600  1.0
  H  H2130  1  0.012700  0.822100  0.743400  1.0
  H  H2131  1  0.987300  0.730700  0.809400  1.0
  H  H2132  1  0.078700  0.269300  0.256600  1.0
  H  H2133  1  0.781600  0.037500  0.733300  1.0
  H  H2134  1  0.218400  0.951700  0.255900  1.0
  H  H2135  1  0.695800  0.962500  0.744100  1.0
  H  H2136  1  0.304200  0.048300  0.266700  1.0
  H  H2137  1  0.037500  0.733300  0.781600  1.0
  H  H2138  1  0.951700  0.255900  0.218400  1.0
  H  H2139  1  0.962500  0.744100  0.695800  1.0
  H  H2140  1  0.048300  0.266700  0.304200  1.0
  H  H2141  1  0.733300  0.781600  0.037500  1.0
  H  H2142  1  0.255900  0.218400  0.951700  1.0
  H  H2143  1  0.744100  0.695800  0.962500  1.0
  H  H2144  1  0.266700  0.304200  0.048300  1.0
  H  H2145  1  0.756100  0.089900  0.729600  1.0
  H  H2146  1  0.243900  0.973500  0.333800  1.0
  H  H2147  1  0.639700  0.910100  0.666200  1.0
  H  H2148  1  0.360300  0.026500  0.270400  1.0
  H  H2149  1  0.089900  0.729600  0.756100  1.0
  H  H2150  1  0.973500  0.333800  0.243900  1.0
  H  H2151  1  0.910100  0.666200  0.639700  1.0
  H  H2152  1  0.026500  0.270400  0.360300  1.0
  H  H2153  1  0.729600  0.756100  0.089900  1.0
  H  H2154  1  0.333800  0.243900  0.973500  1.0
  H  H2155  1  0.666200  0.639700  0.910100  1.0
  H  H2156  1  0.270400  0.360300  0.026500  1.0
  H  H2157  1  0.762800  0.119500  0.680700  1.0
  H  H2158  1  0.237200  0.917900  0.356700  1.0
  H  H2159  1  0.561200  0.880500  0.643300  1.0
  H  H2160  1  0.438800  0.082100  0.319300  1.0
  H  H2161  1  0.119500  0.680700  0.762800  1.0
  H  H2162  1  0.917900  0.356700  0.237200  1.0
  H  H2163  1  0.880500  0.643300  0.561200  1.0
  H  H2164  1  0.082100  0.319300  0.438800  1.0
  H  H2165  1  0.680700  0.762800  0.119500  1.0
  H  H2166  1  0.356700  0.237200  0.917900  1.0
  H  H2167  1  0.643300  0.561200  0.880500  1.0
  H  H2168  1  0.319300  0.438800  0.082100  1.0
  H  H2169  1  0.795000  0.096700  0.635500  1.0
  H  H2170  1  0.205000  0.840500  0.301700  1.0
  H  H2171  1  0.538800  0.903300  0.698300  1.0
  H  H2172  1  0.461200  0.159500  0.364500  1.0
  H  H2173  1  0.096700  0.635500  0.795000  1.0
  H  H2174  1  0.840500  0.301700  0.205000  1.0
  H  H2175  1  0.903300  0.698300  0.538800  1.0
  H  H2176  1  0.159500  0.364500  0.461200  1.0
  H  H2177  1  0.635500  0.795000  0.096700  1.0
  H  H2178  1  0.301700  0.205000  0.840500  1.0
  H  H2179  1  0.698300  0.538800  0.903300  1.0
  H  H2180  1  0.364500  0.461200  0.159500  1.0
  N  N2181  1  0.776900  0.985200  0.441900  1
  N  N2182  1  0.223100  0.665000  0.208300  1
  N  N2183  1  0.456700  0.014800  0.791700  1
  N  N2184  1  0.543300  0.335000  0.558100  1
  N  N2185  1  0.985200  0.441900  0.776900  1
  N  N2186  1  0.665000  0.208300  0.223100  1
  N  N2187  1  0.014800  0.791700  0.456700  1
  N  N2188  1  0.335000  0.558100  0.543300  1
  N  N2189  1  0.441900  0.776900  0.985200  1
  N  N2190  1  0.208300  0.223100  0.665000  1
  N  N2191  1  0.791700  0.456700  0.014800  1
  N  N2192  1  0.558100  0.543300  0.335000  1
  N  N2193  1  0.671000  0.818700  0.381500  1
  N  N2194  1  0.329000  0.710500  0.147700  1
  N  N2195  1  0.562800  0.181300  0.852300  1
  N  N2196  1  0.437200  0.289500  0.618500  1
  N  N2197  1  0.818700  0.381500  0.671000  1
  N  N2198  1  0.710500  0.147700  0.329000  1
  N  N2199  1  0.181300  0.852300  0.562800  1
  N  N2200  1  0.289500  0.618500  0.437200  1
  N  N2201  1  0.381500  0.671000  0.818700  1
  N  N2202  1  0.147700  0.329000  0.710500  1
  N  N2203  1  0.852300  0.562800  0.181300  1
  N  N2204  1  0.618500  0.437200  0.289500  1
  N  N2205  1  0.958880  0.217930  0.507610  1.0
  N  N2206  1  0.041120  0.548730  0.259050  1.0
  N  N2207  1  0.289680  0.782070  0.740950  1.0
  N  N2208  1  0.710320  0.451270  0.492390  1.0
  N  N2209  1  0.217930  0.507610  0.958880  1.0
  N  N2210  1  0.548730  0.259050  0.041120  1.0
  N  N2211  1  0.782070  0.740950  0.289680  1.0
  N  N2212  1  0.451270  0.492390  0.710320  1.0
  N  N2213  1  0.507610  0.958880  0.217930  1.0
  N  N2214  1  0.259050  0.041120  0.548730  1.0
  N  N2215  1  0.740950  0.289680  0.782070  1.0
  N  N2216  1  0.492390  0.710320  0.451270  1.0
  N  N2217  1  0.967970  0.197860  0.475930  1.0
  N  N2218  1  0.032030  0.507960  0.229890  1.0
  N  N2219  1  0.278070  0.802140  0.770110  1.0
  N  N2220  1  0.721930  0.492040  0.524070  1.0
  N  N2221  1  0.197860  0.475930  0.967970  1.0
  N  N2222  1  0.507960  0.229890  0.032030  1.0
  N  N2223  1  0.802140  0.770110  0.278070  1.0
  N  N2224  1  0.492040  0.524070  0.721930  1.0
  N  N2225  1  0.475930  0.967970  0.197860  1.0
  N  N2226  1  0.229890  0.032030  0.507960  1.0
  N  N2227  1  0.770110  0.278070  0.802140  1.0
  N  N2228  1  0.524070  0.721930  0.492040  1.0
  N  N2229  1  0.003770  0.171720  0.424030  1.0
  N  N2230  1  0.996230  0.420260  0.167950  1.0
  N  N2231  1  0.252310  0.828280  0.832050  1.0
  N  N2232  1  0.747690  0.579740  0.575970  1.0
  N  N2233  1  0.171720  0.424030  0.003770  1.0
  N  N2234  1  0.420260  0.167950  0.996230  1.0
  N  N2235  1  0.828280  0.832050  0.252310  1.0
  N  N2236  1  0.579740  0.575970  0.747690  1.0
  N  N2237  1  0.424030  0.003770  0.171720  1.0
  N  N2238  1  0.167950  0.996230  0.420260  1.0
  N  N2239  1  0.832050  0.252310  0.828280  1.0
  N  N2240  1  0.575970  0.747690  0.579740  1.0
  N  N2241  1  0.842800  0.107550  0.587550  1.0
  N  N2242  1  0.157200  0.744750  0.264750  1.0
  N  N2243  1  0.480000  0.892450  0.735250  1.0
  N  N2244  1  0.520000  0.255250  0.412450  1.0
  N  N2245  1  0.107550  0.587550  0.842800  1.0
  N  N2246  1  0.744750  0.264750  0.157200  1.0
  N  N2247  1  0.892450  0.735250  0.480000  1.0
  N  N2248  1  0.255250  0.412450  0.520000  1.0
  N  N2249  1  0.587550  0.842800  0.107550  1.0
  N  N2250  1  0.264750  0.157200  0.744750  1.0
  N  N2251  1  0.735250  0.480000  0.892450  1.0
  N  N2252  1  0.412450  0.520000  0.255250  1.0
  N  N2253  1  0.861630  0.093160  0.616530  1.0
  N  N2254  1  0.138370  0.754900  0.231530  1.0
  N  N2255  1  0.523370  0.906840  0.768470  1.0
  N  N2256  1  0.476630  0.245100  0.383470  1.0
  N  N2257  1  0.093160  0.616530  0.861630  1.0
  N  N2258  1  0.754900  0.231530  0.138370  1.0
  N  N2259  1  0.906840  0.768470  0.523370  1.0
  N  N2260  1  0.245100  0.383470  0.476630  1.0
  N  N2261  1  0.616530  0.861630  0.093160  1.0
  N  N2262  1  0.231530  0.138370  0.754900  1.0
  N  N2263  1  0.768470  0.523370  0.906840  1.0
  N  N2264  1  0.383470  0.476630  0.245100  1.0
  N  N2265  1  0.906490  0.082760  0.684870  1.0
  N  N2266  1  0.093510  0.778380  0.176270  1.0
  N  N2267  1  0.602110  0.917240  0.823730  1.0
  N  N2268  1  0.397890  0.221620  0.315130  1.0
  N  N2269  1  0.082760  0.684870  0.906490  1.0
  N  N2270  1  0.778380  0.176270  0.093510  1.0
  N  N2271  1  0.917240  0.823730  0.602110  1.0
  N  N2272  1  0.221620  0.315130  0.397890  1.0
  N  N2273  1  0.684870  0.906490  0.082760  1.0
  N  N2274  1  0.176270  0.093510  0.778380  1.0
  N  N2275  1  0.823730  0.602110  0.917240  1.0
  N  N2276  1  0.315130  0.397890  0.221620  1.0
  N  N2277  1  0.912320  0.096630  0.335790  1.0
  N  N2278  1  0.087680  0.423470  0.184310  1.0
  N  N2279  1  0.239160  0.903370  0.815690  1.0
  N  N2280  1  0.760840  0.576530  0.664210  1.0
  N  N2281  1  0.096630  0.335790  0.912320  1.0
  N  N2282  1  0.423470  0.184310  0.087680  1.0
  N  N2283  1  0.903370  0.815690  0.239160  1.0
  N  N2284  1  0.576530  0.664210  0.760840  1.0
  N  N2285  1  0.335790  0.912320  0.096630  1.0
  N  N2286  1  0.184310  0.087680  0.423470  1.0
  N  N2287  1  0.815690  0.239160  0.903370  1.0
  N  N2288  1  0.664210  0.760840  0.576530  1.0
  N  N2289  1  0.904190  0.054780  0.307590  1.0
  N  N2290  1  0.095810  0.403400  0.150590  1.0
  N  N2291  1  0.252810  0.945220  0.849410  1.0
  N  N2292  1  0.747190  0.596600  0.692410  1.0
  N  N2293  1  0.054780  0.307590  0.904190  1.0
  N  N2294  1  0.403400  0.150590  0.095810  1.0
  N  N2295  1  0.945220  0.849410  0.252810  1.0
  N  N2296  1  0.596600  0.692410  0.747190  1.0
  N  N2297  1  0.307590  0.904190  0.054780  1.0
  N  N2298  1  0.150590  0.095810  0.403400  1.0
  N  N2299  1  0.849410  0.252810  0.945220  1.0
  N  N2300  1  0.692410  0.747190  0.596600  1.0
  N  N2301  1  0.929520  0.184210  0.375990  1.0
  N  N2302  1  0.070480  0.446470  0.254690  1.0
  N  N2303  1  0.191780  0.815790  0.745310  1.0
  N  N2304  1  0.808220  0.553530  0.624010  1.0
  N  N2305  1  0.184210  0.375990  0.929520  1.0
  N  N2306  1  0.446470  0.254690  0.070480  1.0
  N  N2307  1  0.815790  0.745310  0.191780  1.0
  N  N2308  1  0.553530  0.624010  0.808220  1.0
  N  N2309  1  0.375990  0.929520  0.184210  1.0
  N  N2310  1  0.254690  0.070480  0.446470  1.0
  N  N2311  1  0.745310  0.191780  0.815790  1.0
  N  N2312  1  0.624010  0.808220  0.553530  1.0
  N  N2313  1  0.927560  0.878740  0.376800  1.0
  N  N2314  1  0.072440  0.449240  0.951180  1.0
  N  N2315  1  0.498060  0.121260  0.048820  1.0
  N  N2316  1  0.501940  0.550760  0.623200  1.0
  N  N2317  1  0.878740  0.376800  0.927560  1.0
  N  N2318  1  0.449240  0.951180  0.072440  1.0
  N  N2319  1  0.121260  0.048820  0.498060  1.0
  N  N2320  1  0.550760  0.623200  0.501940  1.0
  N  N2321  1  0.376800  0.927560  0.878740  1.0
  N  N2322  1  0.951180  0.072440  0.449240  1.0
  N  N2323  1  0.048820  0.498060  0.121260  1.0
  N  N2324  1  0.623200  0.501940  0.550760  1.0
  N  N2325  1  0.925840  0.089450  0.430670  1.0
  N  N2326  1  0.074160  0.504830  0.163610  1.0
  N  N2327  1  0.341220  0.910550  0.836390  1.0
  N  N2328  1  0.658780  0.495170  0.569330  1.0
  N  N2329  1  0.089450  0.430670  0.925840  1.0
  N  N2330  1  0.504830  0.163610  0.074160  1.0
  N  N2331  1  0.910550  0.836390  0.341220  1.0
  N  N2332  1  0.495170  0.569330  0.658780  1.0
  N  N2333  1  0.430670  0.925840  0.089450  1.0
  N  N2334  1  0.163610  0.074160  0.504830  1.0
  N  N2335  1  0.836390  0.341220  0.910550  1.0
  N  N2336  1  0.569330  0.658780  0.495170  1.0
  N  N2337  1  0.864280  0.113440  0.396240  1.0
  N  N2338  1  0.135720  0.531960  0.249160  1.0
  N  N2339  1  0.282800  0.886560  0.750840  1.0
  N  N2340  1  0.717200  0.468040  0.603760  1.0
  N  N2341  1  0.113440  0.396240  0.864280  1.0
  N  N2342  1  0.531960  0.249160  0.135720  1.0
  N  N2343  1  0.886560  0.750840  0.282800  1.0
  N  N2344  1  0.468040  0.603760  0.717200  1.0
  N  N2345  1  0.396240  0.864280  0.113440  1.0
  N  N2346  1  0.249160  0.135720  0.531960  1.0
  N  N2347  1  0.750840  0.282800  0.886560  1.0
  N  N2348  1  0.603760  0.717200  0.468040  1.0
  N  N2349  1  0.897530  0.997240  0.572650  1.0
  N  N2350  1  0.102470  0.675120  0.099710  1.0
  N  N2351  1  0.575410  0.002760  0.900290  1.0
  N  N2352  1  0.424590  0.324880  0.427350  1.0
  N  N2353  1  0.997240  0.572650  0.897530  1.0
  N  N2354  1  0.675120  0.099710  0.102470  1.0
  N  N2355  1  0.002760  0.900290  0.575410  1.0
  N  N2356  1  0.324880  0.427350  0.424590  1.0
  N  N2357  1  0.572650  0.897530  0.997240  1.0
  N  N2358  1  0.099710  0.102470  0.675120  1.0
  N  N2359  1  0.900290  0.575410  0.002760  1.0
  N  N2360  1  0.427350  0.424590  0.324880  1.0
  N  N2361  1  0.859720  0.994450  0.574870  1.0
  N  N2362  1  0.140280  0.715150  0.134730  1.0
  N  N2363  1  0.580420  0.005550  0.865270  1.0
  N  N2364  1  0.419580  0.284850  0.425130  1.0
  N  N2365  1  0.994450  0.574870  0.859720  1.0
  N  N2366  1  0.715150  0.134730  0.140280  1.0
  N  N2367  1  0.005550  0.865270  0.580420  1.0
  N  N2368  1  0.284850  0.425130  0.419580  1.0
  N  N2369  1  0.574870  0.859720  0.994450  1.0
  N  N2370  1  0.134730  0.140280  0.715150  1.0
  N  N2371  1  0.865270  0.580420  0.005550  1.0
  N  N2372  1  0.425130  0.419580  0.284850  1.0
  N  N2373  1  0.775390  0.978110  0.558920  1.0
  N  N2374  1  0.224610  0.783530  0.202720  1.0
  N  N2375  1  0.580810  0.021890  0.797280  1.0
  N  N2376  1  0.419190  0.216470  0.441080  1.0
  N  N2377  1  0.978110  0.558920  0.775390  1.0
  N  N2378  1  0.783530  0.202720  0.224610  1.0
  N  N2379  1  0.021890  0.797280  0.580810  1.0
  N  N2380  1  0.216470  0.441080  0.419190  1.0
  N  N2381  1  0.558920  0.775390  0.978110  1.0
  N  N2382  1  0.202720  0.224610  0.783530  1.0
  N  N2383  1  0.797280  0.580810  0.021890  1.0
  N  N2384  1  0.441080  0.419190  0.216470  1.0
  N  N2385  1  0.111900  0.150900  0.817000  1.0
  N  N2386  1  0.888100  0.705100  0.039000  1.0
  N  N2387  1  0.666100  0.849100  0.961000  1.0
  N  N2388  1  0.333900  0.294900  0.183000  1.0
  N  N2389  1  0.150900  0.817000  0.111900  1.0
  N  N2390  1  0.705100  0.039000  0.888100  1.0
  N  N2391  1  0.849100  0.961000  0.666100  1.0
  N  N2392  1  0.294900  0.183000  0.333900  1.0
  N  N2393  1  0.817000  0.111900  0.150900  1.0
  N  N2394  1  0.039000  0.888100  0.705100  1.0
  N  N2395  1  0.961000  0.666100  0.849100  1.0
  N  N2396  1  0.183000  0.333900  0.294900  1.0
  N  N2397  1  0.834000  0.989800  0.656800  1.0
  N  N2398  1  0.166000  0.822800  0.155800  1.0
  N  N2399  1  0.667000  0.010200  0.844200  1.0
  N  N2400  1  0.333000  0.177200  0.343200  1.0
  N  N2401  1  0.989800  0.656800  0.834000  1.0
  N  N2402  1  0.822800  0.155800  0.166000  1.0
  N  N2403  1  0.010200  0.844200  0.667000  1.0
  N  N2404  1  0.177200  0.343200  0.333000  1.0
  N  N2405  1  0.656800  0.834000  0.989800  1.0
  N  N2406  1  0.155800  0.166000  0.822800  1.0
  N  N2407  1  0.844200  0.667000  0.010200  1.0
  N  N2408  1  0.343200  0.333000  0.177200  1.0
  N  N2409  1  0.807410  0.053610  0.657600  1.0
  N  N2410  1  0.192590  0.850190  0.246200  1.0
  N  N2411  1  0.603990  0.946390  0.753800  1.0
  N  N2412  1  0.396010  0.149810  0.342400  1.0
  N  N2413  1  0.053610  0.657600  0.807410  1.0
  N  N2414  1  0.850190  0.246200  0.192590  1.0
  N  N2415  1  0.946390  0.753800  0.603990  1.0
  N  N2416  1  0.149810  0.342400  0.396010  1.0
  N  N2417  1  0.657600  0.807410  0.053610  1.0
  N  N2418  1  0.246200  0.192590  0.850190  1.0
  N  N2419  1  0.753800  0.603990  0.946390  1.0
  N  N2420  1  0.342400  0.396010  0.149810  1.0
  Si  Si2421  1  0.000000  0.000000  0.716920  1
  Si  Si2422  1  0.000000  0.716920  1.000000  1
  Si  Si2423  1  0.716920  0.000000  0.000000  1
  Si  Si2424  1  0.283080  0.283080  0.283080  1
  Si  Si2425  1  0.000000  0.000000  0.364540  1
  Si  Si2426  1  1.000000  0.364540  1.000000  1
  Si  Si2427  1  0.364540  1.000000  1.000000  1
  Si  Si2428  1  0.635460  0.635460  0.635460  1
  Zn  Zn2429  1  0.932736  0.138250  0.406886  1.0
  Zn  Zn2430  1  0.067264  0.474150  0.205514  1.0
  Zn  Zn2431  1  0.268636  0.861750  0.794486  1.0
  Zn  Zn2432  1  0.731364  0.525850  0.593114  1.0
  Zn  Zn2433  1  0.138250  0.406886  0.932736  1.0
  Zn  Zn2434  1  0.474150  0.205514  0.067264  1.0
  Zn  Zn2435  1  0.861750  0.794486  0.268636  1.0
  Zn  Zn2436  1  0.525850  0.593114  0.731364  1.0
  Zn  Zn2437  1  0.406886  0.932736  0.138250  1.0
  Zn  Zn2438  1  0.205514  0.067264  0.474150  1.0
  Zn  Zn2439  1  0.794486  0.268636  0.861750  1.0
  Zn  Zn2440  1  0.593114  0.731364  0.525850  1.0
  Zn  Zn2441  1  0.842060  0.030480  0.621040  1.0
  Zn  Zn2442  1  0.157940  0.778980  0.188420  1.0
  Zn  Zn2443  1  0.590560  0.969520  0.811580  1.0
  Zn  Zn2444  1  0.409440  0.221020  0.378960  1.0
  Zn  Zn2445  1  0.030480  0.621040  0.842060  1.0
  Zn  Zn2446  1  0.778980  0.188420  0.157940  1.0
  Zn  Zn2447  1  0.969520  0.811580  0.590560  1.0
  Zn  Zn2448  1  0.221020  0.378960  0.409440  1.0
  Zn  Zn2449  1  0.621040  0.842060  0.030480  1.0
  Zn  Zn2450  1  0.188420  0.157940  0.778980  1.0
  Zn  Zn2451  1  0.811580  0.590560  0.969520  1.0
  Zn  Zn2452  1  0.378960  0.409440  0.221020  1.0
