
#######################################################################
#
#                 Cambridge Crystallographic Data Centre
#                                CCDC 
#
#######################################################################
#
# If this CIF has been generated from an entry in the Cambridge 
# Structural Database, then it will include bibliographic, chemical, 
# crystal, experimental, refinement or atomic coordinate data resulting 
# from the CCDC's data processing and validation procedures.
#
#######################################################################

data_BAVJOA
_chemical_formula_moiety         
'C142 H132 N34 O12 Zn2,2(C3 H6 O1),20(C3 H7 N1 O1)'
_chemical_name_systematic        
"(\m-1,4-diazabicyclo[2.2.2]octane)-(\m-5,5':10,10':15,15':20,20'-tetrakis(4,4'-{oxybis[(ethane-2,1-diyl)oxymethylene-1H-1,2,3-triazole-4,1-diylmethylene]}diphenyl)diporphyrinato)-di-zinc(ii) acetone N,N-dimethylformamide solvate"
_symmetry_cell_setting           orthorhombic
_symmetry_space_group_name_H-M   'P b c a'
_symmetry_Int_Tables_number      61
_space_group_name_Hall           '-P 2ac 2ab'
loop_
_symmetry_equiv_pos_site_id
_symmetry_equiv_pos_as_xyz
1 x,y,z
2 1/2+x,1/2-y,-z
3 -x,1/2+y,1/2-z
4 1/2-x,-y,1/2+z
5 -x,-y,-z
6 1/2-x,1/2+y,z
7 x,1/2-y,1/2+z
8 1/2+x,y,1/2-z
_cell_length_a                   21.3227(7)
_cell_length_b                   31.9115(12)
_cell_length_c                   32.7689(13)
_cell_angle_alpha                90
_cell_angle_beta                 90
_cell_angle_gamma                90
_cell_volume                     22297.2
_exptl_crystal_colour            red
_exptl_crystal_description       block
_cell_formula_units_Z            4
_exptl_crystal_recrystallization_method DMF/Acetone
loop_
_atom_site_label
_atom_site_type_symbol
_atom_site_fract_x
_atom_site_fract_y
_atom_site_fract_z
C75 C 0.49868(12) 0.34432(13) 0.50765(11)
C76 C 0.52505(15) 0.35121(11) 0.46644(11)
H73 H 0.5482 0.3777 0.4660
H74 H 0.4909 0.3523 0.4464
H75 H 0.5536 0.3282 0.4596
C77 C 0.47251(19) 0.30186(13) 0.51634(13)
H76 H 0.4624 0.2996 0.5454
H77 H 0.5036 0.2805 0.5091
H78 H 0.4344 0.2976 0.5002
O7 O 0.49752(10) 0.37221(10) 0.53292(8)
C1 C 0.34799(7) 0.40848(6) 0.43237(6)
C2 C 0.34574(9) 0.36570(6) 0.44560(7)
H1 H 0.3548 0.3417 0.4294
C3 C 0.32849(10) 0.36570(6) 0.48507(7)
H2 H 0.3227 0.3417 0.5019
C4 C 0.32040(7) 0.40863(6) 0.49715(6)
C5 C 0.30389(8) 0.42219(6) 0.53648(6)
C6 C 0.29422(8) 0.46394(6) 0.54842(6)
C7 C 0.27921(10) 0.47717(7) 0.58932(7)
H3 H 0.2717 0.4595 0.6121
C8 C 0.27791(10) 0.51890(7) 0.58903(7)
H4 H 0.2683 0.5365 0.6115
C9 C 0.29373(8) 0.53239(6) 0.54862(6)
C10 C 0.30174(8) 0.57453(6) 0.53663(6)
C11 C 0.31605(8) 0.58824(6) 0.49690(6)
C12 C 0.32341(10) 0.63107(6) 0.48468(7)
H5 H 0.3173 0.6550 0.5015
C13 C 0.34044(10) 0.63143(7) 0.44522(8)
H6 H 0.3484 0.6555 0.4290
C14 C 0.34435(8) 0.58787(6) 0.43205(6)
C15 C 0.36422(9) 0.57505(6) 0.39366(6)
C16 C 0.36966(9) 0.53292(6) 0.38070(6)
C17 C 0.38929(10) 0.51963(7) 0.34086(7)
H7 H 0.4000 0.5374 0.3187
C18 C 0.38985(9) 0.47784(6) 0.34056(7)
H8 H 0.4001 0.4604 0.3180
C19 C 0.37199(8) 0.46407(6) 0.38098(6)
C20 C 0.63298(8) 0.57772(6) 0.60677(6)
C21 C 0.61442(8) 0.61141(6) 0.63622(6)
C22 C 0.55254(8) 0.61584(6) 0.64885(7)
H9 H 0.5218 0.5965 0.6397
C23 C 0.53537(8) 0.64817(6) 0.67455(7)
H10 H 0.4929 0.6506 0.6831
C24 C 0.57946(8) 0.67738(6) 0.68823(7)
C25 C 0.64105(8) 0.67289(6) 0.67593(7)
H11 H 0.6718 0.6922 0.6852
C26 C 0.65852(8) 0.64024(6) 0.64997(7)
H12 H 0.7010 0.6377 0.6416
C27 C 0.56108(9) 0.71294(6) 0.71583(7)
H13 H 0.5821 0.7389 0.7065
H14 H 0.5152 0.7174 0.7140
C28 C 0.54066(8) 0.69244(7) 0.78896(7)
H15 H 0.4968 0.6874 0.7879
C29 C 0.57970(9) 0.68852(7) 0.82199(7)
C30 C 0.56484(11) 0.67528(9) 0.86524(8)
H16 H 0.5662 0.6443 0.8670
H17 H 0.5973 0.6866 0.8838
C31 C 0.50466(10) 0.73382(8) 0.88440(8)
H18 H 0.5177 0.7486 0.8592
H19 H 0.5341 0.7415 0.9065
C32 C 0.43999(11) 0.74630(9) 0.89567(8)
H20 H 0.4253 0.7295 0.9192
H21 H 0.4391 0.7763 0.9035
C33 C 0.33694(9) 0.75127(8) 0.86918(8)
H22 H 0.3342 0.7819 0.8734
H23 H 0.3214 0.7371 0.8941
C34 C 0.29791(9) 0.73861(8) 0.83296(8)
H24 H 0.2568 0.7530 0.8344
H25 H 0.3192 0.7478 0.8076
C35 C 0.33570(10) 0.67099(8) 0.81112(8)
H26 H 0.3274 0.6407 0.8147
H27 H 0.3764 0.6773 0.8243
C36 C 0.34060(8) 0.68026(7) 0.76684(8)
C37 C 0.29432(9) 0.68553(7) 0.73748(7)
H28 H 0.2502 0.6844 0.7414
C38 C 0.29822(9) 0.70201(6) 0.66290(7)
H29 H 0.3212 0.7263 0.6515
H30 H 0.2541 0.7108 0.6669
C39 C 0.29931(8) 0.66752(6) 0.63198(6)
C40 C 0.34589(8) 0.63688(7) 0.63037(7)
H31 H 0.3781 0.6365 0.6504
C41 C 0.34519(8) 0.60682(6) 0.59947(7)
H32 H 0.3768 0.5858 0.5989
C42 C 0.29917(8) 0.60697(6) 0.56950(6)
C43 C 0.25235(9) 0.63724(7) 0.57160(7)
H33 H 0.2199 0.6377 0.5518
C44 C 0.25304(9) 0.66699(7) 0.60278(7)
H34 H 0.2207 0.6874 0.6039
C45 C 0.38370(8) 0.60813(6) 0.36376(6)
C46 C 0.44147(10) 0.62624(8) 0.36618(8)
H35 H 0.4690 0.6183 0.3876
C47 C 0.46129(9) 0.65625(7) 0.33791(8)
H36 H 0.5027 0.6671 0.3393
C48 C 0.42126(8) 0.67005(6) 0.30832(7)
C49 C 0.36356(9) 0.65229(7) 0.30616(8)
H37 H 0.3357 0.6610 0.2852
C50 C 0.34403(9) 0.62194(8) 0.33355(8)
H38 H 0.3030 0.6106 0.3315
C51 C 0.44332(9) 0.70558(6) 0.28053(7)
H39 H 0.4281 0.7325 0.2918
H40 H 0.4897 0.7064 0.2808
C52 C 0.45641(8) 0.69534(6) 0.20482(7)
H41 H 0.5004 0.6907 0.2033
C53 C 0.41455(8) 0.69670(6) 0.17297(7)
C54 C 0.42581(11) 0.69234(8) 0.12841(8)
H42 H 0.4701 0.6844 0.1238
H43 H 0.3990 0.6696 0.1175
C55 C 0.45291(10) 0.76500(8) 0.11724(8)
H44 H 0.4563 0.7662 0.1473
H45 H 0.4329 0.7914 0.1081
C56 C 0.51728(10) 0.76314(8) 0.09985(8)
H46 H 0.5152 0.7555 0.0706
H47 H 0.5376 0.7909 0.1021
C57 C 0.38474(10) 0.26986(9) 0.89267(8)
H48 H 0.3841 0.2751 0.9224
H49 H 0.3623 0.2433 0.8873
C58 C 0.35365(11) 0.30485(9) 0.87080(8)
H50 H 0.3106 0.3088 0.8815
H51 H 0.3773 0.3311 0.8753
C59 C 0.33279(12) 0.33112(9) 0.80561(9)
H52 H 0.3591 0.3556 0.8127
H53 H 0.2885 0.3382 0.8114
C60 C 0.34046(9) 0.32082(8) 0.76190(8)
C61 C 0.29760(9) 0.31004(7) 0.73376(8)
H54 H 0.2536 0.3073 0.7376
C62 C 0.30636(11) 0.29175(7) 0.65935(8)
H55 H 0.2632 0.2807 0.6624
H56 H 0.3329 0.2688 0.6486
C63 C 0.30548(9) 0.32682(6) 0.62877(7)
C64 C 0.35965(9) 0.33790(7) 0.60851(7)
H57 H 0.3978 0.3240 0.6148
C65 C 0.35906(9) 0.36929(7) 0.57890(7)
H58 H 0.3968 0.3771 0.5655
C66 C 0.30249(8) 0.38930(6) 0.56893(6)
C67 C 0.24890(9) 0.37852(7) 0.59021(7)
H59 H 0.2105 0.3924 0.5845
C68 C 0.25069(9) 0.34764(7) 0.61979(8)
H60 H 0.2134 0.3407 0.6342
C69 C 0.4841(2) 0.5095(2) 0.4546(2)
H61 H 0.4734 0.5377 0.4440
H62 H 0.4784 0.4891 0.4322
C70 C 0.5539(2) 0.5090(2) 0.4690(2)
H63 H 0.5772 0.4871 0.4539
H64 H 0.5736 0.5364 0.4628
C71 C 0.4624(2) 0.4582(2) 0.5022(2)
H65 H 0.4580 0.4376 0.4798
H66 H 0.4350 0.4491 0.5249
C72 C 0.5325(2) 0.4589(2) 0.5171(2)
H67 H 0.5347 0.4506 0.5462
H68 H 0.5576 0.4387 0.5010
C73 C 0.4517(2) 0.5305(2) 0.5188(2)
H69 H 0.4242 0.5244 0.5424
H70 H 0.4399 0.5582 0.5078
C74 C 0.5218(2) 0.5316(2) 0.5332(2)
H71 H 0.5397 0.5597 0.5281
H72 H 0.5239 0.5260 0.5629
N1 N 0.33171(7) 0.43435(5) 0.46423(5)
N2 N 0.30194(7) 0.49830(4) 0.52392(6)
N3 N 0.32864(7) 0.56278(5) 0.46435(5)
N4 N 0.35915(8) 0.49857(4) 0.40482(5)
N5 N 0.57818(7) 0.70486(5) 0.75864(6)
N6 N 0.63731(7) 0.70828(6) 0.77099(6)
N7 N 0.63872(7) 0.69827(6) 0.80992(6)
N8 N 0.39649(7) 0.68518(6) 0.74770(6)
N9 N 0.38741(7) 0.69248(6) 0.70884(6)
N10 N 0.32477(7) 0.69246(5) 0.70273(6)
N11 N 0.42211(7) 0.70193(5) 0.23836(5)
N12 N 0.36100(7) 0.70734(6) 0.22829(6)
N13 N 0.35697(7) 0.70390(6) 0.18864(6)
N14 N 0.39762(8) 0.32061(8) 0.74377(7)
N15 N 0.39125(8) 0.30946(7) 0.70532(7)
N16 N 0.32971(8) 0.30396(6) 0.69932(6)
N17 N 0.44237(7) 0.49907(4) 0.48801(5)
O1 O 0.50583(6) 0.68935(5) 0.87793(5)
O2 O 0.40043(6) 0.73944(5) 0.86153(5)
O3 O 0.28779(6) 0.69410(5) 0.83118(5)
O4 O 0.41240(7) 0.73081(6) 0.10663(5)
O5 O 0.44753(7) 0.26691(6) 0.87870(5)
O6 O 0.35118(6) 0.29590(5) 0.82912(5)
Zn1 Zn 0.34530(2) 0.49860(2) 0.46728(2)
C1D C 0.65201(7) 0.59152(6) 0.56763(6)
C2D C 0.65426(9) 0.63430(6) 0.55440(7)
H1D H 0.6452 0.6583 0.5706
C3D C 0.67151(10) 0.63430(6) 0.51493(7)
H2D H 0.6773 0.6583 0.4981
C4D C 0.67960(7) 0.59137(6) 0.50285(6)
C5D C 0.69611(8) 0.57781(6) 0.46352(6)
C6D C 0.70578(8) 0.53606(6) 0.45158(6)
C7D C 0.72079(10) 0.52283(7) 0.41068(7)
H3D H 0.7283 0.5405 0.3879
C8D C 0.72209(10) 0.48110(7) 0.41097(7)
H4D H 0.7317 0.4635 0.3885
C9D C 0.70627(8) 0.46761(6) 0.45138(6)
C10D C 0.69826(8) 0.42547(6) 0.46337(6)
C11D C 0.68395(8) 0.41176(6) 0.50310(6)
C12D C 0.67659(10) 0.36893(6) 0.51532(7)
H5D H 0.6827 0.3450 0.4985
C13D C 0.65956(10) 0.36857(7) 0.55478(8)
H6D H 0.6516 0.3445 0.5710
C14D C 0.65565(8) 0.41213(6) 0.56795(6)
C15D C 0.63578(9) 0.42495(6) 0.60634(6)
C16D C 0.63034(9) 0.46708(6) 0.61930(6)
C17D C 0.61071(10) 0.48037(7) 0.65914(7)
H7D H 0.6000 0.4626 0.6813
C18D C 0.61015(9) 0.52216(6) 0.65944(7)
H8D H 0.5999 0.5396 0.6820
C19D C 0.62801(8) 0.53593(6) 0.61902(6)
C20D C 0.36702(8) 0.42228(6) 0.39323(6)
C21D C 0.38558(8) 0.38859(6) 0.36378(6)
C22D C 0.44746(8) 0.38416(6) 0.35115(7)
H9D H 0.4782 0.4035 0.3603
C23D C 0.46463(8) 0.35183(6) 0.32545(7)
H10D H 0.5071 0.3494 0.3169
C24D C 0.42054(8) 0.32262(6) 0.31177(7)
C25D C 0.35895(8) 0.32711(6) 0.32407(7)
H11D H 0.3282 0.3078 0.3148
C26D C 0.34148(8) 0.35976(6) 0.35003(7)
H12D H 0.2990 0.3623 0.3584
C27D C 0.43892(9) 0.28706(6) 0.28417(7)
H13D H 0.4179 0.2611 0.2935
H14D H 0.4848 0.2826 0.2860
C28D C 0.45934(8) 0.30756(7) 0.21104(7)
H15D H 0.5032 0.3126 0.2121
C29D C 0.42030(9) 0.31148(7) 0.17801(7)
C30D C 0.43516(11) 0.32472(9) 0.13476(8)
H16D H 0.4338 0.3557 0.1330
H17D H 0.4027 0.3134 0.1162
C31D C 0.49534(10) 0.26618(8) 0.11560(8)
H18D H 0.4823 0.2514 0.1408
H19D H 0.4659 0.2585 0.0935
C32D C 0.56001(11) 0.25370(9) 0.10433(8)
H20D H 0.5747 0.2705 0.0808
H21D H 0.5609 0.2237 0.0965
C33D C 0.66306(9) 0.24873(8) 0.13082(8)
H22D H 0.6658 0.2181 0.1266
H23D H 0.6786 0.2629 0.1059
C34D C 0.70209(9) 0.26139(8) 0.16704(8)
H24D H 0.7432 0.2470 0.1656
H25D H 0.6808 0.2522 0.1924
C35D C 0.66430(10) 0.32901(8) 0.18888(8)
H26D H 0.6726 0.3593 0.1853
H27D H 0.6236 0.3227 0.1757
C36D C 0.65940(8) 0.31974(7) 0.23316(8)
C37D C 0.70568(9) 0.31447(7) 0.26252(7)
H28D H 0.7498 0.3156 0.2586
C38D C 0.70178(9) 0.29799(6) 0.33710(7)
H29D H 0.6788 0.2737 0.3485
H30D H 0.7459 0.2892 0.3331
C39D C 0.70069(8) 0.33248(6) 0.36802(6)
C40D C 0.65411(8) 0.36312(7) 0.36963(7)
H31D H 0.6219 0.3635 0.3496
C41D C 0.65481(8) 0.39318(6) 0.40053(7)
H32D H 0.6232 0.4142 0.4011
C42D C 0.70083(8) 0.39303(6) 0.43050(6)
C43D C 0.74765(9) 0.36276(7) 0.42840(7)
H33D H 0.7801 0.3623 0.4482
C44D C 0.74696(9) 0.33301(7) 0.39722(7)
H34D H 0.7793 0.3126 0.3961
C45D C 0.61630(8) 0.39187(6) 0.63624(6)
C46D C 0.55853(10) 0.37376(8) 0.63382(8)
H35D H 0.5310 0.3817 0.6124
C47D C 0.53871(9) 0.34375(7) 0.66209(8)
H36D H 0.4973 0.3329 0.6607
C48D C 0.57874(8) 0.32995(6) 0.69168(7)
C49D C 0.63644(9) 0.34771(7) 0.69384(8)
H37D H 0.6643 0.3390 0.7148
C50D C 0.65597(9) 0.37806(8) 0.66645(8)
H38D H 0.6970 0.3894 0.6685
C51D C 0.55668(9) 0.29442(6) 0.71947(7)
H39D H 0.5719 0.2675 0.7082
H40D H 0.5103 0.2936 0.7192
C52D C 0.54359(8) 0.30466(6) 0.79518(7)
H41D H 0.4996 0.3093 0.7967
C53D C 0.58545(8) 0.30330(6) 0.82703(7)
C54D C 0.57419(11) 0.30766(8) 0.87159(8)
H42D H 0.5299 0.3156 0.8762
H43D H 0.6010 0.3304 0.8825
C55D C 0.54709(10) 0.23500(8) 0.88276(8)
H44D H 0.5437 0.2338 0.8527
H45D H 0.5671 0.2086 0.8919
C56D C 0.48272(10) 0.23686(8) 0.90015(8)
H46D H 0.4848 0.2445 0.9294
H47D H 0.4624 0.2091 0.8979
C57D C 0.61526(10) 0.73014(9) 0.10733(8)
H48D H 0.6159 0.7249 0.0776
H49D H 0.6377 0.7567 0.1127
C58D C 0.64635(11) 0.69515(9) 0.12920(8)
H50D H 0.6894 0.6912 0.1185
H51D H 0.6227 0.6689 0.1247
C59D C 0.66721(12) 0.66888(9) 0.19439(9)
H52D H 0.6409 0.6444 0.1873
H53D H 0.7115 0.6618 0.1886
C60D C 0.65954(9) 0.67918(8) 0.23810(8)
C61D C 0.70240(9) 0.68996(7) 0.26624(8)
H54D H 0.7464 0.6927 0.2624
C62D C 0.69364(11) 0.70825(7) 0.34065(8)
H55D H 0.7368 0.7193 0.3376
H56D H 0.6671 0.7312 0.3514
C63D C 0.69452(9) 0.67318(6) 0.37123(7)
C64D C 0.64035(9) 0.66210(7) 0.39149(7)
H57D H 0.6022 0.6760 0.3852
C65D C 0.64094(9) 0.63071(7) 0.42110(7)
H58D H 0.6032 0.6229 0.4345
C66D C 0.69751(8) 0.61070(6) 0.43107(6)
C67D C 0.75110(9) 0.62148(7) 0.40979(7)
H59D H 0.7895 0.6076 0.4155
C68D C 0.74931(9) 0.65236(7) 0.38021(8)
H60D H 0.7866 0.6593 0.3658
N1D N 0.66829(7) 0.56565(5) 0.53577(5)
N2D N 0.69806(7) 0.50170(4) 0.47608(6)
N3D N 0.67136(7) 0.43722(5) 0.53565(5)
N4D N 0.64085(8) 0.50143(4) 0.59518(5)
N5D N 0.42182(7) 0.29514(5) 0.24136(6)
N6D N 0.36269(7) 0.29172(6) 0.22901(6)
N7D N 0.36128(7) 0.30173(6) 0.19008(6)
N8D N 0.60351(7) 0.31482(6) 0.25230(6)
N9D N 0.61259(7) 0.30752(6) 0.29116(6)
N10D N 0.67523(7) 0.30754(5) 0.29727(6)
N11D N 0.57789(7) 0.29807(5) 0.76164(5)
N12D N 0.63900(7) 0.29266(6) 0.77171(6)
N13D N 0.64303(7) 0.29610(6) 0.81136(6)
N14D N 0.60238(8) 0.67939(8) 0.25623(7)
N15D N 0.60875(8) 0.69054(7) 0.29468(7)
N16D N 0.67029(8) 0.69604(6) 0.30068(6)
O1D O 0.49417(6) 0.31065(5) 0.12207(5)
O2D O 0.59957(6) 0.26056(5) 0.13847(5)
O3D O 0.71221(6) 0.30590(5) 0.16882(5)
O4D O 0.58760(7) 0.26919(6) 0.89337(5)
O5D O 0.55247(7) 0.73309(6) 0.12130(5)
O6D O 0.64882(6) 0.70410(5) 0.17088(5)
C69D C 0.5159(2) 0.4905(2) 0.5454(2)
H61D H 0.5266 0.4623 0.5560
H62D H 0.5216 0.5109 0.5678
C70D C 0.4461(2) 0.4910(2) 0.5310(2)
H63D H 0.4228 0.5129 0.5461
H64D H 0.4264 0.4636 0.5372
C71D C 0.5376(2) 0.5418(2) 0.4978(2)
H65D H 0.5420 0.5624 0.5202
H66D H 0.5650 0.5509 0.4751
C72D C 0.4675(2) 0.5411(2) 0.4829(2)
H67D H 0.4653 0.5494 0.4538
H68D H 0.4424 0.5613 0.4990
C73D C 0.5483(2) 0.4695(2) 0.4812(2)
H69D H 0.5758 0.4756 0.4576
H70D H 0.5601 0.4418 0.4922
C74D C 0.4782(2) 0.4684(2) 0.4668(2)
H71D H 0.4603 0.4403 0.4719
H72D H 0.4761 0.4740 0.4371
N17D N 0.55763(7) 0.50093(4) 0.51199(5)
Zn1D Zn 0.65470(2) 0.50140(2) 0.53272(2)
loop_
_geom_bond_atom_site_label_1
_geom_bond_atom_site_label_2
_geom_bond_site_symmetry_1
_geom_bond_site_symmetry_2
C1 C2 1_555 1_555
C2 H1 1_555 1_555
C3 C2 1_555 1_555
H2 C3 1_555 1_555
C4 C3 1_555 1_555
C5 C4 1_555 1_555
C6 C5 1_555 1_555
C7 C6 1_555 1_555
H3 C7 1_555 1_555
C8 C7 1_555 1_555
H4 C8 1_555 1_555
C9 C8 1_555 1_555
C10 C9 1_555 1_555
C11 C10 1_555 1_555
C12 C11 1_555 1_555
H5 C12 1_555 1_555
C13 C12 1_555 1_555
H6 C13 1_555 1_555
C14 C13 1_555 1_555
C15 C14 1_555 1_555
C16 C15 1_555 1_555
C17 C16 1_555 1_555
H7 C17 1_555 1_555
C18 C17 1_555 1_555
H8 C18 1_555 1_555
C19 C18 1_555 1_555
C20 C21 1_555 1_555
C21 C22 1_555 1_555
C22 H9 1_555 1_555
C23 C22 1_555 1_555
H10 C23 1_555 1_555
C24 C23 1_555 1_555
C25 C24 1_555 1_555
H11 C25 1_555 1_555
C26 C21 1_555 1_555
H12 C26 1_555 1_555
C27 C24 1_555 1_555
H13 C27 1_555 1_555
H14 C27 1_555 1_555
C28 H15 1_555 1_555
C29 C28 1_555 1_555
C30 C29 1_555 1_555
H16 C30 1_555 1_555
H17 C30 1_555 1_555
C31 H18 1_555 1_555
H19 C31 1_555 1_555
C32 C31 1_555 1_555
H20 C32 1_555 1_555
H21 C32 1_555 1_555
C33 H22 1_555 1_555
H23 C33 1_555 1_555
C34 C33 1_555 1_555
H24 C34 1_555 1_555
H25 C34 1_555 1_555
C35 H26 1_555 1_555
H27 C35 1_555 1_555
C36 C35 1_555 1_555
C37 C36 1_555 1_555
H28 C37 1_555 1_555
C38 H29 1_555 1_555
H30 C38 1_555 1_555
C39 C38 1_555 1_555
C40 C39 1_555 1_555
H31 C40 1_555 1_555
C41 C40 1_555 1_555
H32 C41 1_555 1_555
C42 C10 1_555 1_555
C43 C42 1_555 1_555
H33 C43 1_555 1_555
C44 C39 1_555 1_555
H34 C44 1_555 1_555
C45 C15 1_555 1_555
C46 C45 1_555 1_555
H35 C46 1_555 1_555
C47 C46 1_555 1_555
H36 C47 1_555 1_555
C48 C47 1_555 1_555
C49 C48 1_555 1_555
H37 C49 1_555 1_555
C50 C45 1_555 1_555
H38 C50 1_555 1_555
C51 C48 1_555 1_555
H39 C51 1_555 1_555
H40 C51 1_555 1_555
C52 H41 1_555 1_555
C53 C52 1_555 1_555
C54 C53 1_555 1_555
H42 C54 1_555 1_555
H43 C54 1_555 1_555
C55 H44 1_555 1_555
H45 C55 1_555 1_555
C56 C55 1_555 1_555
H46 C56 1_555 1_555
H47 C56 1_555 1_555
C57 H48 1_555 1_555
H49 C57 1_555 1_555
C58 C57 1_555 1_555
H50 C58 1_555 1_555
H51 C58 1_555 1_555
C59 H52 1_555 1_555
H53 C59 1_555 1_555
C60 C59 1_555 1_555
C61 C60 1_555 1_555
H54 C61 1_555 1_555
C62 H55 1_555 1_555
H56 C62 1_555 1_555
C63 C62 1_555 1_555
C64 C63 1_555 1_555
H57 C64 1_555 1_555
C65 C64 1_555 1_555
H58 C65 1_555 1_555
C66 C5 1_555 1_555
C67 C66 1_555 1_555
H59 C67 1_555 1_555
C68 C63 1_555 1_555
H60 C68 1_555 1_555
C69 H61 1_555 1_555
H62 C69 1_555 1_555
C70 C69 1_555 1_555
H63 C70 1_555 1_555
H64 C70 1_555 1_555
C71 H65 1_555 1_555
H66 C71 1_555 1_555
C72 C71 1_555 1_555
H67 C72 1_555 1_555
H68 C72 1_555 1_555
C73 H69 1_555 1_555
H70 C73 1_555 1_555
C74 C73 1_555 1_555
H71 C74 1_555 1_555
H72 C74 1_555 1_555
N1 C1 1_555 1_555
N2 C6 1_555 1_555
N3 C11 1_555 1_555
N4 C16 1_555 1_555
N5 C27 1_555 1_555
N6 N5 1_555 1_555
N7 C29 1_555 1_555
N8 C36 1_555 1_555
N9 N8 1_555 1_555
N10 C37 1_555 1_555
N11 C51 1_555 1_555
N12 N11 1_555 1_555
N13 C53 1_555 1_555
N14 C60 1_555 1_555
N15 N14 1_555 1_555
N16 C61 1_555 1_555
N17 C69 1_555 1_555
O1 C30 1_555 1_555
O2 C32 1_555 1_555
O3 C34 1_555 1_555
O4 C54 1_555 1_555
O5 C57 1_555 1_555
O6 C58 1_555 1_555
Zn1 N1 1_555 1_555
C75 C76 1_555 1_555
C76 H73 1_555 1_555
H74 C76 1_555 1_555
H75 C76 1_555 1_555
C77 C75 1_555 1_555
H76 C77 1_555 1_555
H77 C77 1_555 1_555
H78 C77 1_555 1_555
O7 C75 1_555 1_555
C1D C20 1_555 1_555
C2D C1D 1_555 1_555
H1D C2D 1_555 1_555
C3D C2D 1_555 1_555
H2D C3D 1_555 1_555
C4D C3D 1_555 1_555
C5D C4D 1_555 1_555
C6D C5D 1_555 1_555
C7D C6D 1_555 1_555
H3D C7D 1_555 1_555
C8D C7D 1_555 1_555
H4D C8D 1_555 1_555
C9D C8D 1_555 1_555
C10D C9D 1_555 1_555
C11D C10D 1_555 1_555
C12D C11D 1_555 1_555
H5D C12D 1_555 1_555
C13D C12D 1_555 1_555
H6D C13D 1_555 1_555
C14D C13D 1_555 1_555
C15D C14D 1_555 1_555
C16D C15D 1_555 1_555
C17D C16D 1_555 1_555
H7D C17D 1_555 1_555
C18D C17D 1_555 1_555
H8D C18D 1_555 1_555
C19D C20 1_555 1_555
C20D C1 1_555 1_555
C21D C20D 1_555 1_555
C22D C21D 1_555 1_555
H9D C22D 1_555 1_555
C23D C22D 1_555 1_555
H10D C23D 1_555 1_555
C24D C23D 1_555 1_555
C25D C24D 1_555 1_555
H11D C25D 1_555 1_555
C26D C21D 1_555 1_555
H12D C26D 1_555 1_555
C27D C24D 1_555 1_555
H13D C27D 1_555 1_555
H14D C27D 1_555 1_555
C28D H15D 1_555 1_555
C29D C28D 1_555 1_555
C30D C29D 1_555 1_555
H16D C30D 1_555 1_555
H17D C30D 1_555 1_555
C31D H18D 1_555 1_555
H19D C31D 1_555 1_555
C32D C31D 1_555 1_555
H20D C32D 1_555 1_555
H21D C32D 1_555 1_555
C33D H22D 1_555 1_555
H23D C33D 1_555 1_555
C34D C33D 1_555 1_555
H24D C34D 1_555 1_555
H25D C34D 1_555 1_555
C35D H26D 1_555 1_555
H27D C35D 1_555 1_555
C36D C35D 1_555 1_555
C37D C36D 1_555 1_555
H28D C37D 1_555 1_555
C38D H29D 1_555 1_555
H30D C38D 1_555 1_555
C39D C38D 1_555 1_555
C40D C39D 1_555 1_555
H31D C40D 1_555 1_555
C41D C40D 1_555 1_555
H32D C41D 1_555 1_555
C42D C10D 1_555 1_555
C43D C42D 1_555 1_555
H33D C43D 1_555 1_555
C44D C39D 1_555 1_555
H34D C44D 1_555 1_555
C45D C15D 1_555 1_555
C46D C45D 1_555 1_555
H35D C46D 1_555 1_555
C47D C46D 1_555 1_555
H36D C47D 1_555 1_555
C48D C47D 1_555 1_555
C49D C48D 1_555 1_555
H37D C49D 1_555 1_555
C50D C45D 1_555 1_555
H38D C50D 1_555 1_555
C51D C48D 1_555 1_555
H39D C51D 1_555 1_555
H40D C51D 1_555 1_555
C52D H41D 1_555 1_555
C53D C52D 1_555 1_555
C54D C53D 1_555 1_555
H42D C54D 1_555 1_555
H43D C54D 1_555 1_555
C55D H44D 1_555 1_555
H45D C55D 1_555 1_555
C56D O5 1_555 1_555
H46D C56D 1_555 1_555
H47D C56D 1_555 1_555
C57D H48D 1_555 1_555
H49D C57D 1_555 1_555
C58D C57D 1_555 1_555
H50D C58D 1_555 1_555
H51D C58D 1_555 1_555
C59D H52D 1_555 1_555
H53D C59D 1_555 1_555
C60D C59D 1_555 1_555
C61D C60D 1_555 1_555
H54D C61D 1_555 1_555
C62D H55D 1_555 1_555
H56D C62D 1_555 1_555
C63D C62D 1_555 1_555
C64D C63D 1_555 1_555
H57D C64D 1_555 1_555
C65D C64D 1_555 1_555
H58D C65D 1_555 1_555
C66D C5D 1_555 1_555
C67D C66D 1_555 1_555
H59D C67D 1_555 1_555
C68D C63D 1_555 1_555
H60D C68D 1_555 1_555
N1D C1D 1_555 1_555
N2D C6D 1_555 1_555
N3D C11D 1_555 1_555
N4D C16D 1_555 1_555
N5D C27D 1_555 1_555
N6D N5D 1_555 1_555
N7D C29D 1_555 1_555
N8D C36D 1_555 1_555
N9D N8D 1_555 1_555
N10D C37D 1_555 1_555
N11D C51D 1_555 1_555
N12D N11D 1_555 1_555
N13D C53D 1_555 1_555
N14D C60D 1_555 1_555
N15D N14D 1_555 1_555
N16D C61D 1_555 1_555
O1D C30D 1_555 1_555
O2D C32D 1_555 1_555
O3D C34D 1_555 1_555
O4D C54D 1_555 1_555
O5D C56 1_555 1_555
O6D C58D 1_555 1_555
C69D H61D 1_555 1_555
H62D C69D 1_555 1_555
C70D N17 1_555 1_555
H63D C70D 1_555 1_555
H64D C70D 1_555 1_555
C71D H65D 1_555 1_555
H66D C71D 1_555 1_555
C72D N17 1_555 1_555
H67D C72D 1_555 1_555
H68D C72D 1_555 1_555
C73D H69D 1_555 1_555
H70D C73D 1_555 1_555
C74D N17 1_555 1_555
H71D C74D 1_555 1_555
H72D C74D 1_555 1_555
N17D C70 1_555 1_555
Zn1D N1D 1_555 1_555
C4 N1 1_555 1_555
C9 N2 1_555 1_555
C14 N3 1_555 1_555
C19 N4 1_555 1_555
C19 C20D 1_555 1_555
C25 C26 1_555 1_555
C28 N5 1_555 1_555
C31 O1 1_555 1_555
C33 O2 1_555 1_555
C35 O3 1_555 1_555
C38 N10 1_555 1_555
C41 C42 1_555 1_555
C43 C44 1_555 1_555
C49 C50 1_555 1_555
C52 N11 1_555 1_555
C55 O4 1_555 1_555
C59 O6 1_555 1_555
C62 N16 1_555 1_555
C65 C66 1_555 1_555
C67 C68 1_555 1_555
C71 N17 1_555 1_555
C72 N17D 1_555 1_555
C73 N17 1_555 1_555
C74 N17D 1_555 1_555
N2 Zn1 1_555 1_555
N3 Zn1 1_555 1_555
N4 Zn1 1_555 1_555
N6 N7 1_555 1_555
N9 N10 1_555 1_555
N12 N13 1_555 1_555
N15 N16 1_555 1_555
N17 Zn1 1_555 1_555
C4D N1D 1_555 1_555
C9D N2D 1_555 1_555
C14D N3D 1_555 1_555
C18D C19D 1_555 1_555
C19D N4D 1_555 1_555
C25D C26D 1_555 1_555
C28D N5D 1_555 1_555
C31D O1D 1_555 1_555
C33D O2D 1_555 1_555
C35D O3D 1_555 1_555
C38D N10D 1_555 1_555
C41D C42D 1_555 1_555
C43D C44D 1_555 1_555
C49D C50D 1_555 1_555
C52D N11D 1_555 1_555
C55D C56D 1_555 1_555
C55D O4D 1_555 1_555
C57D O5D 1_555 1_555
C59D O6D 1_555 1_555
C62D N16D 1_555 1_555
C65D C66D 1_555 1_555
C67D C68D 1_555 1_555
N2D Zn1D 1_555 1_555
N3D Zn1D 1_555 1_555
N4D Zn1D 1_555 1_555
N6D N7D 1_555 1_555
N9D N10D 1_555 1_555
N12D N13D 1_555 1_555
N15D N16D 1_555 1_555
C69D C70D 1_555 1_555
C69D N17D 1_555 1_555
C71D C72D 1_555 1_555
C71D N17D 1_555 1_555
C73D C74D 1_555 1_555
C73D N17D 1_555 1_555
N17D Zn1D 1_555 1_555

#END
