
#######################################################################
#
#                 Cambridge Crystallographic Data Centre
#                                CCDC 
#
#######################################################################
#
# If this CIF has been generated from an entry in the Cambridge 
# Structural Database, then it will include bibliographic, chemical, 
# crystal, experimental, refinement or atomic coordinate data resulting 
# from the CCDC's data processing and validation procedures.
#
#######################################################################

data_BAVJUG
_chemical_formula_moiety         'C134 H116 N34 O8 Zn2,6.5(C1 H1 Cl3),2(C5 H12)'
_chemical_name_systematic        
"(\m-1,4-diazabicyclo[2.2.2]octane)-(\m-5,5':10,10':15,15':20,20'-tetrakis(4,4'-[ethane-1,2-diylbis(oxymethylene-1H-1,2,3-triazole-4,1-diylmethylene)]diphenyl)diporphyrinato)-di-zinc(ii) chloroform pentane solvate"
_symmetry_cell_setting           triclinic
_symmetry_space_group_name_H-M   'P -1'
_symmetry_Int_Tables_number      2
_space_group_name_Hall           '-P 1'
loop_
_symmetry_equiv_pos_site_id
_symmetry_equiv_pos_as_xyz
1 x,y,z
2 -x,-y,-z
_cell_length_a                   13.230(3)
_cell_length_b                   18.199(4)
_cell_length_c                   21.746(7)
_cell_angle_alpha                112.842(7)
_cell_angle_beta                 105.020(7)
_cell_angle_gamma                95.223(6)
_cell_volume                     4551.1
_exptl_crystal_colour            purple
_exptl_crystal_description       Block
_cell_formula_units_Z            1
_chemical_properties_physical    light-sensitive
loop_
_atom_site_label
_atom_site_type_symbol
_atom_site_fract_x
_atom_site_fract_y
_atom_site_fract_z
C71 C 0.1411(7) 0.8861(5) 0.6827(3)
H65 H 0.0659 0.8903 0.6817
Cl1 Cl 0.1571(2) 0.78513(17) 0.6692(2)
Cl2 Cl 0.1661(4) 0.9035(3) 0.61366(19)
Cl3 Cl 0.2289(2) 0.95734(17) 0.76278(13)
C72 C 0.2042(7) 0.3122(6) 0.0978(5)
H66 H 0.2451 0.3153 0.1436
H67 H 0.2410 0.3542 0.0887
H68 H 0.1982 0.2582 0.0607
C73 C 0.0915(6) 0.3264(6) 0.0983(4)
H69 H 0.0405 0.2763 0.0875
H70 H 0.0609 0.3526 0.0676
C74 C 0.1323(6) 0.3857(5) 0.1774(3)
H71 H 0.1725 0.3593 0.2051
H72 H 0.1810 0.4354 0.1852
C75 C 0.0356(7) 0.4088(6) 0.2015(4)
H73 H -0.0028 0.3621 0.2051
H74 H -0.0146 0.4212 0.1661
C76 C 0.0721(10) 0.4837(8) 0.2734(5)
H75 H 0.0311 0.4758 0.3028
H76 H 0.0600 0.5326 0.2665
H77 H 0.1486 0.4903 0.2969
C77 C 0.5178(7) 0.5636(9) 0.2757(4)
H78 H 0.5737 0.5348 0.2904
Cl4 Cl 0.5313(2) 0.64932(16) 0.35086(13)
Cl5 Cl 0.3990(4) 0.4958(3) 0.24494(18)
Cl6 Cl 0.5486(3) 0.5853(3) 0.2146(2)
C78 C 0.2762(13) 0.7804(8) 0.2529(9)
H79 H 0.3358 0.8298 0.2746
Cl7 Cl 0.3246(6) 0.6981(4) 0.2270(6)
Cl8 Cl 0.1667(5) 0.7693(4) 0.1628(3)
Cl9 Cl 0.2126(8) 0.7851(4) 0.3071(4)
C1 C 0.1827(3) 0.37659(17) 0.64931(17)
C2 C 0.1616(3) 0.39199(19) 0.71419(19)
H1 H 0.1278 0.3528 0.7254
C3 C 0.1987(3) 0.4728(2) 0.75651(19)
H2 H 0.1956 0.5010 0.8028
C4 C 0.2437(3) 0.50756(17) 0.71782(16)
C5 C 0.2917(3) 0.58961(16) 0.74342(16)
C6 C 0.2957(3) 0.64632(17) 0.81616(17)
C7 C 0.3557(4) 0.6400(2) 0.87476(19)
H3 H 0.3992 0.6006 0.8699
C8 C 0.3535(4) 0.6908(2) 0.9415(2)
H4 H 0.3941 0.6848 0.9817
C9 C 0.2925(3) 0.7501(2) 0.94970(19)
C10 C 0.2337(3) 0.7575(2) 0.8912(2)
H5 H 0.1917 0.7978 0.8962
C11 C 0.2350(3) 0.7064(2) 0.82481(19)
H6 H 0.1941 0.7124 0.7847
C12 C 0.2899(4) 0.8055(2) 1.0222(2)
H7 H 0.2239 0.8274 1.0173
H8 H 0.2879 0.7734 1.0498
C13 C 0.3858(3) 0.9524(2) 1.07294(18)
H9 H 0.3275 0.9753 1.0584
C14 C 0.4905(3) 0.9918(2) 1.11154(18)
C15 C 0.5409(4) 1.0808(2) 1.1449(2)
H10 H 0.5649 1.1012 1.1968
H11 H 0.6045 1.0890 1.1305
C16 C 0.4670(4) 1.1277(3) 1.0598(2)
H12 H 0.4587 1.0718 1.0237
H13 H 0.5357 1.1610 1.0662
C17 C 0.3356(2) 0.62382(16) 0.70595(16)
C18 C 0.3926(3) 0.70676(17) 0.73474(17)
H14 H 0.4092 0.7466 0.7819
C19 C 0.4180(3) 0.71757(17) 0.68255(17)
H15 H 0.4553 0.7668 0.6858
C20 C 0.3782(2) 0.64051(16) 0.62024(16)
C21 C 0.3890(2) 0.62724(17) 0.55456(16)
C22 C 0.4275(3) 0.70057(17) 0.54572(16)
C23 C 0.3699(3) 0.7620(2) 0.5560(2)
H16 H 0.3053 0.7552 0.5666
C24 C 0.4049(4) 0.8327(2) 0.5512(2)
H17 H 0.3634 0.8733 0.5565
C25 C 0.5015(4) 0.8439(2) 0.53854(19)
C26 C 0.5582(3) 0.7813(2) 0.5260(2)
H18 H 0.6227 0.7880 0.5153
C27 C 0.5206(3) 0.7098(2) 0.52899(19)
H19 H 0.5586 0.6670 0.5196
C28 C 0.5445(6) 0.9248(3) 0.5420(2)
H20 H 0.4888 0.9577 0.5453
H21 H 0.6069 0.9542 0.5853
C29 C 0.5266(5) 0.8696(3) 0.4125(2)
H22 H 0.4619 0.8294 0.3914
C30 C 0.5923(6) 0.8929(4) 0.3809(3)
C31 C 0.5822(7) 0.8600(5) 0.3040(3)
H23 H 0.6480 0.8834 0.2985
H24 H 0.5735 0.7999 0.2840
C32 C 0.5099(6) 0.9636(4) 0.2809(3)
H25 H 0.5320 0.9988 0.3321
H26 H 0.5671 0.9769 0.2628
C33 C 0.4124(6) 0.9780(4) 0.2462(3)
H27 H 0.3843 0.9354 0.1970
H28 H 0.4273 1.0314 0.2445
C34 C 0.2302(6) 0.9893(5) 0.2429(4)
H29 H 0.1997 0.9436 0.1953
H30 H 0.2414 1.0407 0.2376
C35 C 0.3629(2) 0.55053(16) 0.49649(16)
C36 C 0.3718(3) 0.53728(18) 0.42856(17)
H31 H 0.4000 0.5775 0.4162
C37 C 0.3325(3) 0.45669(19) 0.38543(17)
H32 H 0.3285 0.4294 0.3374
C38 C 0.2982(2) 0.42098(17) 0.42734(16)
C39 C 0.2460(2) 0.33900(17) 0.40129(16)
C40 C 0.2191(3) 0.28541(18) 0.32485(17)
C41 C 0.2964(3) 0.2593(2) 0.29321(18)
H33 H 0.3702 0.2806 0.3196
C42 C 0.2659(3) 0.2024(2) 0.22331(19)
H34 H 0.3193 0.1853 0.2023
C43 C 0.1601(3) 0.1708(2) 0.18445(19)
C44 C 0.0821(3) 0.1995(3) 0.2146(2)
H35 H 0.0084 0.1799 0.1873
C45 C 0.1116(3) 0.2559(2) 0.28379(19)
H36 H 0.0579 0.2750 0.3038
C46 C 0.1305(4) 0.1063(3) 0.1098(2)
H37 H 0.1491 0.1312 0.0800
H38 H 0.1725 0.0637 0.1088
C47 C -0.0376(4) 0.0146(3) 0.0951(2)
H39 H -0.0089 -0.0114 0.1240
C48 C -0.1424(4) 0.0051(3) 0.05919(19)
C49 C -0.2409(4) -0.0474(3) 0.0509(2)
H40 H -0.2271 -0.0693 0.0867
H41 H -0.2974 -0.0156 0.0570
C50 C -0.3762(4) -0.1640(3) -0.0363(2)
H42 H -0.3811 -0.1725 0.0052
H43 H -0.3819 -0.2180 -0.0745
C51 C 0.2117(2) 0.30334(16) 0.44056(16)
C52 C 0.1670(3) 0.21759(17) 0.41470(19)
H44 H 0.1565 0.1763 0.3690
C53 C 0.1432(3) 0.20725(17) 0.4674(2)
H45 H 0.1124 0.1570 0.4657
C54 C 0.1727(3) 0.28609(17) 0.52749(17)
C55 C 0.1545(3) 0.30101(17) 0.59099(18)
C56 C 0.0997(3) 0.22928(18) 0.59528(19)
C57 C -0.0099(4) 0.1992(3) 0.5619(3)
H46 H -0.0506 0.2281 0.5402
C58 C -0.0608(4) 0.1279(3) 0.5598(3)
H47 H -0.1360 0.1086 0.5375
C59 C -0.0015(4) 0.0851(2) 0.5902(2)
C60 C 0.1025(6) 0.1150(4) 0.6234(5)
H48 H 0.1432 0.0862 0.6453
C61 C 0.1533(5) 0.1875(3) 0.6269(4)
H49 H 0.2276 0.2080 0.6523
C62 C -0.0545(5) 0.0034(3) 0.5816(3)
H50 H -0.1210 -0.0184 0.5406
H51 H -0.0061 -0.0349 0.5712
C63 C -0.1678(6) 0.0172(4) 0.6553(3)
H52 H -0.2278 0.0290 0.6286
C64 C -0.1558(6) 0.0078(4) 0.7172(3)
N1 N 0.094(10) 0.487(7) 0.524(6)
C65 C 0.0470(6) 0.5213(5) 0.5792(3)
H53 H 0.0947 0.5736 0.6158
H54 H 0.0406 0.4835 0.6014
C66 C 0.0167(5) 0.4055(3) 0.4696(4)
H55 H 0.0457 0.3797 0.4305
H56 H 0.0102 0.3678 0.4918
C67 C 0.0990(5) 0.5363(4) 0.4866(4)
H57 H 0.1259 0.5081 0.4470
H58 H 0.1498 0.5891 0.5184
C68 C -0.0124(5) 0.5520(4) 0.4576(4)
H59 H -0.0091 0.6115 0.4775
H60 H -0.0324 0.5312 0.4058
C69 C -0.0635(5) 0.5361(4) 0.5504(3)
H61 H -0.1174 0.5044 0.5600
H62 H -0.0634 0.5947 0.5751
C70 C -0.0932(5) 0.4208(3) 0.4407(4)
H63 H -0.1477 0.3897 0.4503
H64 H -0.1122 0.4014 0.3891
N2 N 0.2330(2) 0.44808(14) 0.65271(14)
N3 N 0.3847(3) 0.87422(19) 1.06057(16)
N4 N 0.4797(4) 0.8635(2) 1.08866(19)
N5 N 0.5470(3) 0.9363(2) 1.12064(18)
N6 N 0.3302(2) 0.58433(14) 0.63644(13)
N7 N 0.5773(3) 0.9184(2) 0.48122(19)
N8 N 0.6649(4) 0.9707(3) 0.4912(3)
N9 N 0.6756(5) 0.9541(3) 0.4309(3)
N10 N 0.3195(2) 0.47853(14) 0.49474(13)
N11 N 0.0156(3) 0.0684(2) 0.08104(16)
N12 N -0.0501(3) 0.0926(2) 0.03946(19)
N13 N -0.1480(3) 0.0539(2) 0.02508(19)
N14 N 0.2167(2) 0.34303(14) 0.50944(14)
N15 N -0.0809(4) 0.0063(3) 0.6429(2)
N16 N -0.0185(4) -0.0124(3) 0.6902(2)
N17 N -0.0613(4) -0.0061(3) 0.7394(3)
O1 O 0.4675(3) 1.12561(16) 1.12475(14)
O2 O 0.4949(4) 0.8801(3) 0.2686(2)
O3 O 0.3313(4) 0.9781(3) 0.2794(2)
O4 O -0.2748(3) -0.11288(19) -0.01852(15)
Zn1 Zn 0.25267(3) 0.46684(2) 0.56764(2)
C1A C -0.1827(3) 0.62341(17) 0.35069(17)
C2A C -0.1616(3) 0.60801(19) 0.28581(19)
H1A H -0.1278 0.6472 0.2746
C3A C -0.1987(3) 0.5272(2) 0.24349(19)
H2A H -0.1956 0.4990 0.1972
C4A C -0.2437(3) 0.49244(17) 0.28218(16)
C5A C -0.2917(3) 0.41039(16) 0.25658(16)
C6A C -0.2957(3) 0.35368(17) 0.18384(17)
C7A C -0.3557(4) 0.3600(2) 0.12524(19)
H3A H -0.3992 0.3994 0.1301
C8A C -0.3535(4) 0.3092(2) 0.0585(2)
H4A H -0.3941 0.3152 0.0183
C9A C -0.2925(3) 0.2499(2) 0.05030(19)
C10A C -0.2337(3) 0.2425(2) 0.1088(2)
H5A H -0.1917 0.2022 0.1038
C11A C -0.2350(3) 0.2936(2) 0.17519(19)
H6A H -0.1941 0.2876 0.2153
C12A C -0.2899(4) 0.1945(2) -0.0222(2)
H7A H -0.2239 0.1726 -0.0173
H8A H -0.2879 0.2266 -0.0498
C13A C -0.3858(3) 0.0476(2) -0.07294(18)
H9A H -0.3275 0.0247 -0.0584
C14A C -0.4905(3) 0.0082(2) -0.11154(18)
C15A C -0.5409(4) -0.0808(2) -0.1449(2)
H10A H -0.5649 -0.1012 -0.1968
H11A H -0.6045 -0.0890 -0.1305
C16A C -0.4670(4) -0.1277(3) -0.0598(2)
H12A H -0.4587 -0.0718 -0.0237
H13A H -0.5357 -0.1610 -0.0662
C17A C -0.3356(2) 0.37618(16) 0.29405(16)
C18A C -0.3926(3) 0.29324(17) 0.26526(17)
H14A H -0.4092 0.2534 0.2181
C19A C -0.4180(3) 0.28243(17) 0.31745(17)
H15A H -0.4553 0.2332 0.3142
C20A C -0.3782(2) 0.35949(16) 0.37976(16)
C21A C -0.3890(2) 0.37276(17) 0.44544(16)
C22A C -0.4275(3) 0.29943(17) 0.45428(16)
C23A C -0.3699(3) 0.2380(2) 0.4440(2)
H16A H -0.3053 0.2448 0.4334
C24A C -0.4049(4) 0.1673(2) 0.4488(2)
H17A H -0.3634 0.1267 0.4435
C25A C -0.5015(4) 0.1561(2) 0.46146(19)
C26A C -0.5582(3) 0.2187(2) 0.4740(2)
H18A H -0.6227 0.2120 0.4847
C27A C -0.5206(3) 0.2902(2) 0.47101(19)
H19A H -0.5586 0.3330 0.4804
C28A C -0.5445(6) 0.0752(3) 0.4580(2)
H20A H -0.4888 0.0423 0.4547
H21A H -0.6069 0.0458 0.4147
C29A C -0.5266(5) 0.1304(3) 0.5875(2)
H22A H -0.4619 0.1706 0.6086
C30A C -0.5923(6) 0.1071(4) 0.6191(3)
C31A C -0.5822(7) 0.1400(5) 0.6960(3)
H23A H -0.6480 0.1166 0.7015
H24A H -0.5735 0.2001 0.7160
C32A C -0.5099(6) 0.0364(4) 0.7191(3)
H25A H -0.5320 0.0012 0.6679
H26A H -0.5671 0.0231 0.7372
C33A C -0.4124(6) 0.0220(4) 0.7538(3)
H27A H -0.3843 0.0646 0.8030
H28A H -0.4273 -0.0314 0.7555
C34A C -0.2302(6) 0.0107(5) 0.7571(4)
H29A H -0.1997 0.0564 0.8047
H30A H -0.2414 -0.0407 0.7624
C35A C -0.3629(2) 0.44947(16) 0.50351(16)
C36A C -0.3718(3) 0.46272(18) 0.57144(17)
H31A H -0.4000 0.4225 0.5838
C37A C -0.3325(3) 0.54331(19) 0.61457(17)
H32A H -0.3285 0.5706 0.6626
C38A C -0.2982(2) 0.57902(17) 0.57266(16)
C39A C -0.2460(2) 0.66100(17) 0.59871(16)
C40A C -0.2191(3) 0.71459(18) 0.67515(17)
C41A C -0.2964(3) 0.7407(2) 0.70679(18)
H33A H -0.3702 0.7194 0.6804
C42A C -0.2659(3) 0.7976(2) 0.77669(19)
H34A H -0.3193 0.8147 0.7977
C43A C -0.1601(3) 0.8292(2) 0.81555(19)
C44A C -0.0821(3) 0.8005(3) 0.7854(2)
H35A H -0.0084 0.8201 0.8127
C45A C -0.1116(3) 0.7441(2) 0.71621(19)
H36A H -0.0579 0.7250 0.6962
C46A C -0.1305(4) 0.8937(3) 0.8902(2)
H37A H -0.1491 0.8688 0.9200
H38A H -0.1725 0.9363 0.8912
C47A C 0.0376(4) 0.9854(3) 0.9049(2)
H39A H 0.0089 1.0114 0.8760
C48A C 0.1424(4) 0.9949(3) 0.94081(19)
C49A C 0.2409(4) 1.0474(3) 0.9491(2)
H40A H 0.2271 1.0693 0.9133
H41A H 0.2974 1.0156 0.9430
C50A C 0.3762(4) 1.1640(3) 1.0363(2)
H42A H 0.3811 1.1725 0.9948
H43A H 0.3819 1.2180 1.0745
C51A C -0.2117(2) 0.69666(16) 0.55944(16)
C52A C -0.1670(3) 0.78241(17) 0.58530(19)
H44A H -0.1565 0.8237 0.6310
C53A C -0.1432(3) 0.79275(17) 0.5326(2)
H45A H -0.1124 0.8430 0.5343
C54A C -0.1727(3) 0.71391(17) 0.47251(17)
C55A C -0.1545(3) 0.69899(17) 0.40901(18)
C56A C -0.0997(3) 0.77072(18) 0.40472(19)
C57A C 0.0099(4) 0.8008(3) 0.4381(3)
H46A H 0.0506 0.7719 0.4598
C58A C 0.0608(4) 0.8721(3) 0.4402(3)
H47A H 0.1360 0.8914 0.4625
C59A C 0.0015(4) 0.9149(2) 0.4098(2)
C60A C -0.1025(6) 0.8850(4) 0.3766(5)
H48A H -0.1432 0.9138 0.3547
C61A C -0.1533(5) 0.8125(3) 0.3731(4)
H49A H -0.2276 0.7920 0.3477
C62A C 0.0545(5) 0.9966(3) 0.4184(3)
H50A H 0.1210 1.0184 0.4594
H51A H 0.0061 1.0349 0.4288
C63A C 0.1678(6) 0.9828(4) 0.3447(3)
H52A H 0.2278 0.9710 0.3714
C64A C 0.1558(6) 0.9922(4) 0.2828(3)
N2A N -0.2330(2) 0.55192(14) 0.34729(14)
N3A N -0.3847(3) 0.12578(19) -0.06057(16)
N4A N -0.4797(4) 0.1365(2) -0.08866(19)
N5A N -0.5470(3) 0.0637(2) -0.12064(18)
N6A N -0.3302(2) 0.41567(14) 0.36356(13)
N7A N -0.5773(3) 0.0816(2) 0.51878(19)
N8A N -0.6649(4) 0.0293(3) 0.5088(3)
N9A N -0.6756(5) 0.0459(3) 0.5691(3)
N10A N -0.3195(2) 0.52147(14) 0.50526(13)
N11A N -0.0156(3) 0.9316(2) 0.91896(16)
N12A N 0.0501(3) 0.9074(2) 0.96054(19)
N13A N 0.1480(3) 0.9461(2) 0.97492(19)
N14A N -0.2167(2) 0.65697(14) 0.49056(14)
N15A N 0.0809(4) 0.9937(3) 0.3571(2)
N16A N 0.0185(4) 1.0124(3) 0.3098(2)
N17A N 0.0613(4) 1.0061(3) 0.2606(3)
O1A O -0.4675(3) -0.12561(16) -0.12475(14)
O2A O -0.4949(4) 0.1199(3) 0.7314(2)
O3A O -0.3313(4) 0.0219(3) 0.7206(2)
O4A O 0.2748(3) 1.11288(19) 1.01852(15)
N1A N -0.094(10) 0.513(7) 0.476(6)
C65A C -0.0470(6) 0.4787(5) 0.4208(3)
H53A H -0.0947 0.4264 0.3842
H54A H -0.0406 0.5165 0.3986
C66A C -0.0167(5) 0.5945(3) 0.5304(4)
H55A H -0.0457 0.6203 0.5695
H56A H -0.0102 0.6322 0.5082
C67A C -0.0990(5) 0.4637(4) 0.5134(4)
H57A H -0.1259 0.4919 0.5530
H58A H -0.1498 0.4109 0.4816
C68A C 0.0124(5) 0.4480(4) 0.5424(4)
H59A H 0.0091 0.3885 0.5225
H60A H 0.0324 0.4688 0.5942
C69A C 0.0635(5) 0.4639(4) 0.4496(3)
H61A H 0.1174 0.4956 0.4400
H62A H 0.0634 0.4053 0.4249
C70A C 0.0932(5) 0.5792(3) 0.5593(4)
H63A H 0.1477 0.6103 0.5497
H64A H 0.1122 0.5986 0.6109
Zn1A Zn -0.25267(3) 0.53316(2) 0.43236(2)
C79? C 0.1329(6) 0.8550(6) 0.6742(4)
H80? H 0.0594 0.8649 0.6587
Cl10? Cl 0.1273(2) 0.74818(15) 0.62957(18)
Cl11? Cl 0.2187(3) 0.90885(16) 0.6492(3)
Cl12? Cl 0.1724(3) 0.8870(2) 0.76440(14)
C80? C 0.1195(11) 0.5519(7) 0.2912(6)
H81? H 0.1937 0.5441 0.2924
Cl13? Cl 0.0550(5) 0.4449(4) 0.2801(3)
Cl14? Cl 0.0794(7) 0.5544(7) 0.2188(4)
Cl15? Cl 0.1440(4) 0.6189(3) 0.3695(2)
C81? C 0.347(3) 0.252(2) 0.8799(16)
H82? H 0.4150 0.2328 0.8814
Cl16? Cl 0.2359(19) 0.1612(11) 0.8312(9)
Cl17? Cl 0.3331(10) 0.3057(6) 0.8240(4)
Cl18? Cl 0.3566(10) 0.3149(6) 0.9665(4)
C82? C 0.137(3) 0.169(2) 0.8216(17)
H83? H 0.1122 0.1087 0.7925
Cl19? Cl 0.0510(13) 0.2178(8) 0.7745(6)
Cl20? Cl 0.1004(7) 0.1920(5) 0.9009(4)
Cl21? Cl 0.2733(13) 0.1932(10) 0.8352(9)
C83? C 0.4972(12) 0.3092(10) 0.8810(7)
H84? H 0.5018 0.3050 0.9252
H85? H 0.5579 0.3507 0.8890
H86? H 0.4993 0.2563 0.8456
C84? C 0.3916(12) 0.3334(7) 0.8547(12)
H87? H 0.4012 0.3717 0.8334
H88? H 0.3607 0.3579 0.8930
C85? C 0.3229(13) 0.2491(10) 0.7991(7)
H89? H 0.2905 0.2518 0.7538
H90? H 0.3683 0.2082 0.7914
C86? C 0.2344(16) 0.2240(9) 0.8255(13)
H91? H 0.1694 0.2429 0.8085
H92? H 0.2587 0.2500 0.8776
C87? C 0.208(2) 0.1305(9) 0.7982(12)
H93? H 0.2228 0.1050 0.7537
H94? H 0.1316 0.1120 0.7905
H95? H 0.2514 0.1149 0.8331
C88? C 0.2014(16) 0.5584(13) 0.9603(13)
H96? H 0.1243 0.5405 0.9351
H97? H 0.2317 0.6021 0.9503
H98? H 0.2138 0.5787 1.0111
C89? C 0.2558(18) 0.4859(13) 0.9359(12)
H99? H 0.2644 0.4743 0.8894
H100? H 0.2158 0.4359 0.9341
C90? C 0.3648(16) 0.5195(10) 0.9954(12)
H101? H 0.4077 0.5639 0.9913
H102? H 0.3534 0.5421 1.0418
C91? C 0.4246(16) 0.4497(14) 0.9890(14)
H103? H 0.5017 0.4726 1.0157
H104? H 0.4173 0.4170 0.9390
C92? C 0.378(2) 0.3948(14) 1.0183(14)
H105? H 0.3090 0.4071 1.0236
H106? H 0.4277 0.4051 1.0642
H107? H 0.3667 0.3374 0.9856
loop_
_geom_bond_atom_site_label_1
_geom_bond_atom_site_label_2
_geom_bond_site_symmetry_1
_geom_bond_site_symmetry_2
C1 C2 1_555 1_555
C2 H1 1_555 1_555
C3 C2 1_555 1_555
H2 C3 1_555 1_555
C4 C3 1_555 1_555
C5 C4 1_555 1_555
C6 C5 1_555 1_555
C7 C6 1_555 1_555
H3 C7 1_555 1_555
C8 C7 1_555 1_555
H4 C8 1_555 1_555
C9 C8 1_555 1_555
C10 C9 1_555 1_555
H5 C10 1_555 1_555
C11 C6 1_555 1_555
H6 C11 1_555 1_555
C12 C9 1_555 1_555
H7 C12 1_555 1_555
H8 C12 1_555 1_555
C13 H9 1_555 1_555
C14 C13 1_555 1_555
C15 C14 1_555 1_555
H10 C15 1_555 1_555
H11 C15 1_555 1_555
C16 H12 1_555 1_555
H13 C16 1_555 1_555
C17 C5 1_555 1_555
C18 C17 1_555 1_555
H14 C18 1_555 1_555
C19 C18 1_555 1_555
H15 C19 1_555 1_555
C20 C19 1_555 1_555
C21 C20 1_555 1_555
C22 C21 1_555 1_555
C23 C22 1_555 1_555
H16 C23 1_555 1_555
C24 C23 1_555 1_555
H17 C24 1_555 1_555
C25 C24 1_555 1_555
C26 C25 1_555 1_555
H18 C26 1_555 1_555
C27 C22 1_555 1_555
H19 C27 1_555 1_555
C28 C25 1_555 1_555
H20 C28 1_555 1_555
H21 C28 1_555 1_555
C29 H22 1_555 1_555
C30 C29 1_555 1_555
C31 C30 1_555 1_555
H23 C31 1_555 1_555
H24 C31 1_555 1_555
C32 H25 1_555 1_555
H26 C32 1_555 1_555
C33 C32 1_555 1_555
H27 C33 1_555 1_555
H28 C33 1_555 1_555
C34 H29 1_555 1_555
H30 C34 1_555 1_555
C35 C21 1_555 1_555
C36 C35 1_555 1_555
H31 C36 1_555 1_555
C37 C36 1_555 1_555
H32 C37 1_555 1_555
C38 C37 1_555 1_555
C39 C38 1_555 1_555
C40 C39 1_555 1_555
C41 C40 1_555 1_555
H33 C41 1_555 1_555
C42 C41 1_555 1_555
H34 C42 1_555 1_555
C43 C42 1_555 1_555
C44 C43 1_555 1_555
H35 C44 1_555 1_555
C45 C40 1_555 1_555
H36 C45 1_555 1_555
C46 C43 1_555 1_555
H37 C46 1_555 1_555
H38 C46 1_555 1_555
C47 H39 1_555 1_555
C48 C47 1_555 1_555
C49 C48 1_555 1_555
H40 C49 1_555 1_555
H41 C49 1_555 1_555
C50 H42 1_555 1_555
H43 C50 1_555 1_555
C51 C39 1_555 1_555
C52 C51 1_555 1_555
H44 C52 1_555 1_555
C53 C52 1_555 1_555
H45 C53 1_555 1_555
C54 C53 1_555 1_555
C55 C1 1_555 1_555
C56 C55 1_555 1_555
C57 C56 1_555 1_555
H46 C57 1_555 1_555
C58 C57 1_555 1_555
H47 C58 1_555 1_555
C59 C58 1_555 1_555
C60 C59 1_555 1_555
H48 C60 1_555 1_555
C61 C56 1_555 1_555
H49 C61 1_555 1_555
C62 C59 1_555 1_555
H50 C62 1_555 1_555
H51 C62 1_555 1_555
C63 H52 1_555 1_555
C64 C63 1_555 1_555
N1 C65 1_555 1_555
C65 H53 1_555 1_555
H54 C65 1_555 1_555
C66 N1 1_555 1_555
H55 C66 1_555 1_555
H56 C66 1_555 1_555
C67 N1 1_555 1_555
H57 C67 1_555 1_555
H58 C67 1_555 1_555
C68 C67 1_555 1_555
H59 C68 1_555 1_555
H60 C68 1_555 1_555
C69 C65 1_555 1_555
H61 C69 1_555 1_555
H62 C69 1_555 1_555
C70 C66 1_555 1_555
H63 C70 1_555 1_555
H64 C70 1_555 1_555
N2 C1 1_555 1_555
N3 C12 1_555 1_555
N4 N3 1_555 1_555
N5 C14 1_555 1_555
N6 C17 1_555 1_555
N7 C28 1_555 1_555
N8 N7 1_555 1_555
N9 C30 1_555 1_555
N10 C35 1_555 1_555
N11 C46 1_555 1_555
N12 N11 1_555 1_555
N13 C48 1_555 1_555
N14 C51 1_555 1_555
N15 C62 1_555 1_555
N16 N15 1_555 1_555
N17 C64 1_555 1_555
O1 C15 1_555 1_555
O2 C31 1_555 1_555
O3 C33 1_555 1_555
O4 C49 1_555 1_555
Zn1 N1 1_555 1_555
C71 H65 1_555 1_555
Cl1 C71 1_555 1_555
Cl2 C71 1_555 1_555
Cl3 C71 1_555 1_555
C72 H66 1_555 1_555
H67 C72 1_555 1_555
H68 C72 1_555 1_555
C73 C72 1_555 1_555
H69 C73 1_555 1_555
H70 C73 1_555 1_555
C74 C73 1_555 1_555
H71 C74 1_555 1_555
H72 C74 1_555 1_555
C75 C74 1_555 1_555
H73 C75 1_555 1_555
H74 C75 1_555 1_555
C76 C75 1_555 1_555
H75 C76 1_555 1_555
H76 C76 1_555 1_555
H77 C76 1_555 1_555
C77 H78 1_555 1_555
Cl4 C77 1_555 1_555
Cl5 C77 1_555 1_555
Cl6 C77 1_555 1_555
C78 H79 1_555 1_555
Cl7 C78 1_555 1_555
Cl8 C78 1_555 1_555
Cl9 C78 1_555 1_555
C1A C2A 1_555 1_555
C2A H1A 1_555 1_555
C3A C2A 1_555 1_555
H2A C3A 1_555 1_555
C4A C3A 1_555 1_555
C5A C4A 1_555 1_555
C6A C5A 1_555 1_555
C7A C6A 1_555 1_555
H3A C7A 1_555 1_555
C8A C7A 1_555 1_555
H4A C8A 1_555 1_555
C9A C8A 1_555 1_555
C10A C9A 1_555 1_555
H5A C10A 1_555 1_555
C11A C6A 1_555 1_555
H6A C11A 1_555 1_555
C12A C9A 1_555 1_555
H7A C12A 1_555 1_555
H8A C12A 1_555 1_555
C13A H9A 1_555 1_555
C14A C13A 1_555 1_555
C15A C14A 1_555 1_555
H10A C15A 1_555 1_555
H11A C15A 1_555 1_555
C16A C50 1_555 1_555
H12A C16A 1_555 1_555
H13A C16A 1_555 1_555
C17A C5A 1_555 1_555
C18A C17A 1_555 1_555
H14A C18A 1_555 1_555
C19A C18A 1_555 1_555
H15A C19A 1_555 1_555
C20A C19A 1_555 1_555
C21A C20A 1_555 1_555
C22A C21A 1_555 1_555
C23A C22A 1_555 1_555
H16A C23A 1_555 1_555
C24A C23A 1_555 1_555
H17A C24A 1_555 1_555
C25A C24A 1_555 1_555
C26A C25A 1_555 1_555
H18A C26A 1_555 1_555
C27A C22A 1_555 1_555
H19A C27A 1_555 1_555
C28A C25A 1_555 1_555
H20A C28A 1_555 1_555
H21A C28A 1_555 1_555
C29A H22A 1_555 1_555
C30A C29A 1_555 1_555
C31A C30A 1_555 1_555
H23A C31A 1_555 1_555
H24A C31A 1_555 1_555
C32A H25A 1_555 1_555
H26A C32A 1_555 1_555
C33A C32A 1_555 1_555
H27A C33A 1_555 1_555
H28A C33A 1_555 1_555
C34A C64 1_555 1_555
H29A C34A 1_555 1_555
H30A C34A 1_555 1_555
C35A C21A 1_555 1_555
C36A C35A 1_555 1_555
H31A C36A 1_555 1_555
C37A C36A 1_555 1_555
H32A C37A 1_555 1_555
C38A C37A 1_555 1_555
C39A C38A 1_555 1_555
C40A C39A 1_555 1_555
C41A C40A 1_555 1_555
H33A C41A 1_555 1_555
C42A C41A 1_555 1_555
H34A C42A 1_555 1_555
C43A C42A 1_555 1_555
C44A C43A 1_555 1_555
H35A C44A 1_555 1_555
C45A C40A 1_555 1_555
H36A C45A 1_555 1_555
C46A C43A 1_555 1_555
H37A C46A 1_555 1_555
H38A C46A 1_555 1_555
C47A H39A 1_555 1_555
C48A C47A 1_555 1_555
C49A C48A 1_555 1_555
H40A C49A 1_555 1_555
H41A C49A 1_555 1_555
C50A C16 1_555 1_555
H42A C50A 1_555 1_555
H43A C50A 1_555 1_555
C51A C39A 1_555 1_555
C52A C51A 1_555 1_555
H44A C52A 1_555 1_555
C53A C52A 1_555 1_555
H45A C53A 1_555 1_555
C54A C53A 1_555 1_555
C55A C1A 1_555 1_555
C56A C55A 1_555 1_555
C57A C56A 1_555 1_555
H46A C57A 1_555 1_555
C58A C57A 1_555 1_555
H47A C58A 1_555 1_555
C59A C58A 1_555 1_555
C60A C59A 1_555 1_555
H48A C60A 1_555 1_555
C61A C56A 1_555 1_555
H49A C61A 1_555 1_555
C62A C59A 1_555 1_555
H50A C62A 1_555 1_555
H51A C62A 1_555 1_555
C63A H52A 1_555 1_555
C64A C34 1_555 1_555
N2A C1A 1_555 1_555
N3A C12A 1_555 1_555
N4A N3A 1_555 1_555
N5A C14A 1_555 1_555
N6A C17A 1_555 1_555
N7A C28A 1_555 1_555
N8A N7A 1_555 1_555
N9A C30A 1_555 1_555
N10A C35A 1_555 1_555
N11A C46A 1_555 1_555
N12A N11A 1_555 1_555
N13A C48A 1_555 1_555
N14A C51A 1_555 1_555
N15A C62A 1_555 1_555
N16A N15A 1_555 1_555
N17A C64A 1_555 1_555
O1A C15A 1_555 1_555
O2A C31A 1_555 1_555
O3A C33A 1_555 1_555
O4A C49A 1_555 1_555
N1A C68 1_555 1_555
C65A N1A 1_555 1_555
H53A C65A 1_555 1_555
H54A C65A 1_555 1_555
C66A N1A 1_555 1_555
H55A C66A 1_555 1_555
H56A C66A 1_555 1_555
C67A N1A 1_555 1_555
H57A C67A 1_555 1_555
H58A C67A 1_555 1_555
C68A N1 1_555 1_555
H59A C68A 1_555 1_555
H60A C68A 1_555 1_555
C69A N1 1_555 1_555
H61A C69A 1_555 1_555
H62A C69A 1_555 1_555
C70A N1 1_555 1_555
H63A C70A 1_555 1_555
H64A C70A 1_555 1_555
Zn1A N2A 1_555 1_555
C4 N2 1_555 1_555
C10 C11 1_555 1_555
C13 N3 1_555 1_555
C16 O1 1_555 1_555
C20 N6 1_555 1_555
C26 C27 1_555 1_555
C29 N7 1_555 1_555
C32 O2 1_555 1_555
C34 O3 1_555 1_555
C38 N10 1_555 1_555
C44 C45 1_555 1_555
C47 N11 1_555 1_555
C50 O4 1_555 1_555
C54 C55 1_555 1_555
C54 N14 1_555 1_555
C60 C61 1_555 1_555
C63 N15 1_555 1_555
C69 N1A 1_555 1_555
C70 N1A 1_555 1_555
N2 Zn1 1_555 1_555
N4 N5 1_555 1_555
N6 Zn1 1_555 1_555
N8 N9 1_555 1_555
N10 Zn1 1_555 1_555
N12 N13 1_555 1_555
N14 Zn1 1_555 1_555
N16 N17 1_555 1_555
C4A N2A 1_555 1_555
C10A C11A 1_555 1_555
C13A N3A 1_555 1_555
C16A O1A 1_555 1_555
C20A N6A 1_555 1_555
C26A C27A 1_555 1_555
C29A N7A 1_555 1_555
C32A O2A 1_555 1_555
C34A O3A 1_555 1_555
C38A N10A 1_555 1_555
C44A C45A 1_555 1_555
C47A N11A 1_555 1_555
C50A O4A 1_555 1_555
C54A C55A 1_555 1_555
C54A N14A 1_555 1_555
C60A C61A 1_555 1_555
C63A C64A 1_555 1_555
C63A N15A 1_555 1_555
N4A N5A 1_555 1_555
N6A Zn1A 1_555 1_555
N8A N9A 1_555 1_555
N10A Zn1A 1_555 1_555
N12A N13A 1_555 1_555
N14A Zn1A 1_555 1_555
N16A N17A 1_555 1_555
N1A Zn1A 1_555 1_555
C65A C69A 1_555 1_555
C66A C70A 1_555 1_555
C67A C68A 1_555 1_555

#END
