# generated using pymatgen
data_ZnH78C77N17O7
_symmetry_space_group_name_H-M   'P 1'
_cell_length_a   21.32270000
_cell_length_b   31.91150000
_cell_length_c   32.76890000
_cell_angle_alpha   90.00000000
_cell_angle_beta   90.00000000
_cell_angle_gamma   90.00000000
_symmetry_Int_Tables_number   1
_chemical_formula_structural   ZnH78C77N17O7
_chemical_formula_sum   'Zn8 H624 C616 N136 O56'
_cell_volume   22297.24872293
_cell_formula_units_Z   8
loop_
 _symmetry_equiv_pos_site_id
 _symmetry_equiv_pos_as_xyz
  1  'x, y, z'
loop_
 _atom_site_type_symbol
 _atom_site_label
 _atom_site_symmetry_multiplicity
 _atom_site_fract_x
 _atom_site_fract_y
 _atom_site_fract_z
 _atom_site_occupancy
  Zn  Zn1  1  0.345300  0.498600  0.467280  1.0
  Zn  Zn2  1  0.845300  0.001400  0.532720  1.0
  Zn  Zn3  1  0.654700  0.998600  0.032720  1.0
  Zn  Zn4  1  0.154700  0.501400  0.967280  1.0
  Zn  Zn5  1  0.654700  0.501400  0.532720  1.0
  Zn  Zn6  1  0.154700  0.998600  0.467280  1.0
  Zn  Zn7  1  0.345300  0.001400  0.967280  1.0
  Zn  Zn8  1  0.845300  0.498600  0.032720  1.0
  H  H9  1  0.548200  0.377700  0.466000  1
  H  H10  1  0.048200  0.122300  0.534000  1
  H  H11  1  0.451800  0.877700  0.034000  1
  H  H12  1  0.951800  0.622300  0.966000  1
  H  H13  1  0.451800  0.622300  0.534000  1
  H  H14  1  0.951800  0.877700  0.466000  1
  H  H15  1  0.548200  0.122300  0.966000  1
  H  H16  1  0.048200  0.377700  0.034000  1
  H  H17  1  0.490900  0.352300  0.446400  1
  H  H18  1  0.990900  0.147700  0.553600  1
  H  H19  1  0.509100  0.852300  0.053600  1
  H  H20  1  0.009100  0.647700  0.946400  1
  H  H21  1  0.509100  0.647700  0.553600  1
  H  H22  1  0.009100  0.852300  0.446400  1
  H  H23  1  0.490900  0.147700  0.946400  1
  H  H24  1  0.990900  0.352300  0.053600  1
  H  H25  1  0.553600  0.328200  0.459600  1
  H  H26  1  0.053600  0.171800  0.540400  1
  H  H27  1  0.446400  0.828200  0.040400  1
  H  H28  1  0.946400  0.671800  0.959600  1
  H  H29  1  0.446400  0.671800  0.540400  1
  H  H30  1  0.946400  0.828200  0.459600  1
  H  H31  1  0.553600  0.171800  0.959600  1
  H  H32  1  0.053600  0.328200  0.040400  1
  H  H33  1  0.462400  0.299600  0.545400  1
  H  H34  1  0.962400  0.200400  0.454600  1
  H  H35  1  0.537600  0.799600  0.954600  1
  H  H36  1  0.037600  0.700400  0.045400  1
  H  H37  1  0.537600  0.700400  0.454600  1
  H  H38  1  0.037600  0.799600  0.545400  1
  H  H39  1  0.462400  0.200400  0.045400  1
  H  H40  1  0.962400  0.299600  0.954600  1
  H  H41  1  0.503600  0.280500  0.509100  1
  H  H42  1  0.003600  0.219500  0.490900  1
  H  H43  1  0.496400  0.780500  0.990900  1
  H  H44  1  0.996400  0.719500  0.009100  1
  H  H45  1  0.496400  0.719500  0.490900  1
  H  H46  1  0.996400  0.780500  0.509100  1
  H  H47  1  0.503600  0.219500  0.009100  1
  H  H48  1  0.003600  0.280500  0.990900  1
  H  H49  1  0.434400  0.297600  0.500200  1
  H  H50  1  0.934400  0.202400  0.499800  1
  H  H51  1  0.565600  0.797600  0.999800  1
  H  H52  1  0.065600  0.702400  0.000200  1
  H  H53  1  0.565600  0.702400  0.499800  1
  H  H54  1  0.065600  0.797600  0.500200  1
  H  H55  1  0.434400  0.202400  0.000200  1
  H  H56  1  0.934400  0.297600  0.999800  1
  H  H57  1  0.354800  0.341700  0.429400  1.0
  H  H58  1  0.854800  0.158300  0.570600  1.0
  H  H59  1  0.645200  0.841700  0.070600  1.0
  H  H60  1  0.145200  0.658300  0.929400  1.0
  H  H61  1  0.645200  0.658300  0.570600  1.0
  H  H62  1  0.145200  0.841700  0.429400  1.0
  H  H63  1  0.354800  0.158300  0.929400  1.0
  H  H64  1  0.854800  0.341700  0.070600  1.0
  H  H65  1  0.322700  0.341700  0.501900  1.0
  H  H66  1  0.822700  0.158300  0.498100  1.0
  H  H67  1  0.677300  0.841700  0.998100  1.0
  H  H68  1  0.177300  0.658300  0.001900  1.0
  H  H69  1  0.677300  0.658300  0.498100  1.0
  H  H70  1  0.177300  0.841700  0.501900  1.0
  H  H71  1  0.322700  0.158300  0.001900  1.0
  H  H72  1  0.822700  0.341700  0.998100  1.0
  H  H73  1  0.271700  0.459500  0.612100  1.0
  H  H74  1  0.771700  0.040500  0.387900  1.0
  H  H75  1  0.728300  0.959500  0.887900  1.0
  H  H76  1  0.228300  0.540500  0.112100  1.0
  H  H77  1  0.728300  0.540500  0.387900  1.0
  H  H78  1  0.228300  0.959500  0.612100  1.0
  H  H79  1  0.271700  0.040500  0.112100  1.0
  H  H80  1  0.771700  0.459500  0.887900  1.0
  H  H81  1  0.268300  0.536500  0.611500  1.0
  H  H82  1  0.768300  0.963500  0.388500  1.0
  H  H83  1  0.731700  0.036500  0.888500  1.0
  H  H84  1  0.231700  0.463500  0.111500  1.0
  H  H85  1  0.731700  0.463500  0.388500  1.0
  H  H86  1  0.231700  0.036500  0.611500  1.0
  H  H87  1  0.268300  0.963500  0.111500  1.0
  H  H88  1  0.768300  0.536500  0.888500  1.0
  H  H89  1  0.317300  0.655000  0.501500  1.0
  H  H90  1  0.817300  0.845000  0.498500  1.0
  H  H91  1  0.682700  0.155000  0.998500  1.0
  H  H92  1  0.182700  0.345000  0.001500  1.0
  H  H93  1  0.682700  0.345000  0.498500  1.0
  H  H94  1  0.182700  0.155000  0.501500  1.0
  H  H95  1  0.317300  0.845000  0.001500  1.0
  H  H96  1  0.817300  0.655000  0.998500  1.0
  H  H97  1  0.348400  0.655500  0.429000  1.0
  H  H98  1  0.848400  0.844500  0.571000  1.0
  H  H99  1  0.651600  0.155500  0.071000  1.0
  H  H100  1  0.151600  0.344500  0.929000  1.0
  H  H101  1  0.651600  0.344500  0.571000  1.0
  H  H102  1  0.151600  0.155500  0.429000  1.0
  H  H103  1  0.348400  0.844500  0.929000  1.0
  H  H104  1  0.848400  0.655500  0.071000  1.0
  H  H105  1  0.400000  0.537400  0.318700  1.0
  H  H106  1  0.900000  0.962600  0.681300  1.0
  H  H107  1  0.600000  0.037400  0.181300  1.0
  H  H108  1  0.100000  0.462600  0.818700  1.0
  H  H109  1  0.600000  0.462600  0.681300  1.0
  H  H110  1  0.100000  0.037400  0.318700  1.0
  H  H111  1  0.400000  0.962600  0.818700  1.0
  H  H112  1  0.900000  0.537400  0.181300  1.0
  H  H113  1  0.400100  0.460400  0.318000  1.0
  H  H114  1  0.900100  0.039600  0.682000  1.0
  H  H115  1  0.599900  0.960400  0.182000  1.0
  H  H116  1  0.099900  0.539600  0.818000  1.0
  H  H117  1  0.599900  0.539600  0.682000  1.0
  H  H118  1  0.099900  0.960400  0.318000  1.0
  H  H119  1  0.400100  0.039600  0.818000  1.0
  H  H120  1  0.900100  0.460400  0.182000  1.0
  H  H121  1  0.521800  0.596500  0.639700  1.0
  H  H122  1  0.021800  0.903500  0.360300  1.0
  H  H123  1  0.478200  0.096500  0.860300  1.0
  H  H124  1  0.978200  0.403500  0.139700  1.0
  H  H125  1  0.478200  0.403500  0.360300  1.0
  H  H126  1  0.978200  0.096500  0.639700  1.0
  H  H127  1  0.521800  0.903500  0.139700  1.0
  H  H128  1  0.021800  0.596500  0.860300  1.0
  H  H129  1  0.492900  0.650600  0.683100  1.0
  H  H130  1  0.992900  0.849400  0.316900  1.0
  H  H131  1  0.507100  0.150600  0.816900  1.0
  H  H132  1  0.007100  0.349400  0.183100  1.0
  H  H133  1  0.507100  0.349400  0.316900  1.0
  H  H134  1  0.007100  0.150600  0.683100  1.0
  H  H135  1  0.492900  0.849400  0.183100  1.0
  H  H136  1  0.992900  0.650600  0.816900  1.0
  H  H137  1  0.671800  0.692200  0.685200  1.0
  H  H138  1  0.171800  0.807800  0.314800  1.0
  H  H139  1  0.328200  0.192200  0.814800  1.0
  H  H140  1  0.828200  0.307800  0.185200  1.0
  H  H141  1  0.328200  0.307800  0.314800  1.0
  H  H142  1  0.828200  0.192200  0.685200  1.0
  H  H143  1  0.671800  0.807800  0.185200  1.0
  H  H144  1  0.171800  0.692200  0.814800  1.0
  H  H145  1  0.701000  0.637700  0.641600  1.0
  H  H146  1  0.201000  0.862300  0.358400  1.0
  H  H147  1  0.299000  0.137700  0.858400  1.0
  H  H148  1  0.799000  0.362300  0.141600  1.0
  H  H149  1  0.299000  0.362300  0.358400  1.0
  H  H150  1  0.799000  0.137700  0.641600  1.0
  H  H151  1  0.701000  0.862300  0.141600  1.0
  H  H152  1  0.201000  0.637700  0.858400  1.0
  H  H153  1  0.582100  0.738900  0.706500  1.0
  H  H154  1  0.082100  0.761100  0.293500  1.0
  H  H155  1  0.417900  0.238900  0.793500  1.0
  H  H156  1  0.917900  0.261100  0.206500  1.0
  H  H157  1  0.417900  0.261100  0.293500  1.0
  H  H158  1  0.917900  0.238900  0.706500  1.0
  H  H159  1  0.582100  0.761100  0.206500  1.0
  H  H160  1  0.082100  0.738900  0.793500  1.0
  H  H161  1  0.515200  0.717400  0.714000  1.0
  H  H162  1  0.015200  0.782600  0.286000  1.0
  H  H163  1  0.484800  0.217400  0.786000  1.0
  H  H164  1  0.984800  0.282600  0.214000  1.0
  H  H165  1  0.484800  0.282600  0.286000  1.0
  H  H166  1  0.984800  0.217400  0.714000  1.0
  H  H167  1  0.515200  0.782600  0.214000  1.0
  H  H168  1  0.015200  0.717400  0.786000  1.0
  H  H169  1  0.496800  0.687400  0.787900  1.0
  H  H170  1  0.996800  0.812600  0.212100  1.0
  H  H171  1  0.503200  0.187400  0.712100  1.0
  H  H172  1  0.003200  0.312600  0.287900  1.0
  H  H173  1  0.503200  0.312600  0.212100  1.0
  H  H174  1  0.003200  0.187400  0.787900  1.0
  H  H175  1  0.496800  0.812600  0.287900  1.0
  H  H176  1  0.996800  0.687400  0.712100  1.0
  H  H177  1  0.566200  0.644300  0.867000  1.0
  H  H178  1  0.066200  0.855700  0.133000  1.0
  H  H179  1  0.433800  0.144300  0.633000  1.0
  H  H180  1  0.933800  0.355700  0.367000  1.0
  H  H181  1  0.433800  0.355700  0.133000  1.0
  H  H182  1  0.933800  0.144300  0.867000  1.0
  H  H183  1  0.566200  0.855700  0.367000  1.0
  H  H184  1  0.066200  0.644300  0.633000  1.0
  H  H185  1  0.597300  0.686600  0.883800  1.0
  H  H186  1  0.097300  0.813400  0.116200  1.0
  H  H187  1  0.402700  0.186600  0.616200  1.0
  H  H188  1  0.902700  0.313400  0.383800  1.0
  H  H189  1  0.402700  0.313400  0.116200  1.0
  H  H190  1  0.902700  0.186600  0.883800  1.0
  H  H191  1  0.597300  0.813400  0.383800  1.0
  H  H192  1  0.097300  0.686600  0.616200  1.0
  H  H193  1  0.517700  0.748600  0.859200  1.0
  H  H194  1  0.017700  0.751400  0.140800  1.0
  H  H195  1  0.482300  0.248600  0.640800  1.0
  H  H196  1  0.982300  0.251400  0.359200  1.0
  H  H197  1  0.482300  0.251400  0.140800  1.0
  H  H198  1  0.982300  0.248600  0.859200  1.0
  H  H199  1  0.517700  0.751400  0.359200  1.0
  H  H200  1  0.017700  0.748600  0.640800  1.0
  H  H201  1  0.534100  0.741500  0.906500  1.0
  H  H202  1  0.034100  0.758500  0.093500  1.0
  H  H203  1  0.465900  0.241500  0.593500  1.0
  H  H204  1  0.965900  0.258500  0.406500  1.0
  H  H205  1  0.465900  0.258500  0.093500  1.0
  H  H206  1  0.965900  0.241500  0.906500  1.0
  H  H207  1  0.534100  0.758500  0.406500  1.0
  H  H208  1  0.034100  0.741500  0.593500  1.0
  H  H209  1  0.425300  0.729500  0.919200  1.0
  H  H210  1  0.925300  0.770500  0.080800  1.0
  H  H211  1  0.574700  0.229500  0.580800  1.0
  H  H212  1  0.074700  0.270500  0.419200  1.0
  H  H213  1  0.574700  0.270500  0.080800  1.0
  H  H214  1  0.074700  0.229500  0.919200  1.0
  H  H215  1  0.425300  0.770500  0.419200  1.0
  H  H216  1  0.925300  0.729500  0.580800  1.0
  H  H217  1  0.439100  0.776300  0.903500  1.0
  H  H218  1  0.939100  0.723700  0.096500  1.0
  H  H219  1  0.560900  0.276300  0.596500  1.0
  H  H220  1  0.060900  0.223700  0.403500  1.0
  H  H221  1  0.560900  0.223700  0.096500  1.0
  H  H222  1  0.060900  0.276300  0.903500  1.0
  H  H223  1  0.439100  0.723700  0.403500  1.0
  H  H224  1  0.939100  0.776300  0.596500  1.0
  H  H225  1  0.334200  0.781900  0.873400  1.0
  H  H226  1  0.834200  0.718100  0.126600  1.0
  H  H227  1  0.665800  0.281900  0.626600  1.0
  H  H228  1  0.165800  0.218100  0.373400  1.0
  H  H229  1  0.665800  0.218100  0.126600  1.0
  H  H230  1  0.165800  0.281900  0.873400  1.0
  H  H231  1  0.334200  0.718100  0.373400  1.0
  H  H232  1  0.834200  0.781900  0.626600  1.0
  H  H233  1  0.321400  0.737100  0.894100  1.0
  H  H234  1  0.821400  0.762900  0.105900  1.0
  H  H235  1  0.678600  0.237100  0.605900  1.0
  H  H236  1  0.178600  0.262900  0.394100  1.0
  H  H237  1  0.678600  0.262900  0.105900  1.0
  H  H238  1  0.178600  0.237100  0.894100  1.0
  H  H239  1  0.321400  0.762900  0.394100  1.0
  H  H240  1  0.821400  0.737100  0.605900  1.0
  H  H241  1  0.256800  0.753000  0.834400  1.0
  H  H242  1  0.756800  0.747000  0.165600  1.0
  H  H243  1  0.743200  0.253000  0.665600  1.0
  H  H244  1  0.243200  0.247000  0.334400  1.0
  H  H245  1  0.743200  0.247000  0.165600  1.0
  H  H246  1  0.243200  0.253000  0.834400  1.0
  H  H247  1  0.256800  0.747000  0.334400  1.0
  H  H248  1  0.756800  0.753000  0.665600  1.0
  H  H249  1  0.319200  0.747800  0.807600  1.0
  H  H250  1  0.819200  0.752200  0.192400  1.0
  H  H251  1  0.680800  0.247800  0.692400  1.0
  H  H252  1  0.180800  0.252200  0.307600  1.0
  H  H253  1  0.680800  0.252200  0.192400  1.0
  H  H254  1  0.180800  0.247800  0.807600  1.0
  H  H255  1  0.319200  0.752200  0.307600  1.0
  H  H256  1  0.819200  0.747800  0.692400  1.0
  H  H257  1  0.327400  0.640700  0.814700  1.0
  H  H258  1  0.827400  0.859300  0.185300  1.0
  H  H259  1  0.672600  0.140700  0.685300  1.0
  H  H260  1  0.172600  0.359300  0.314700  1.0
  H  H261  1  0.672600  0.359300  0.185300  1.0
  H  H262  1  0.172600  0.140700  0.814700  1.0
  H  H263  1  0.327400  0.859300  0.314700  1.0
  H  H264  1  0.827400  0.640700  0.685300  1.0
  H  H265  1  0.376400  0.677300  0.824300  1.0
  H  H266  1  0.876400  0.822700  0.175700  1.0
  H  H267  1  0.623600  0.177300  0.675700  1.0
  H  H268  1  0.123600  0.322700  0.324300  1.0
  H  H269  1  0.623600  0.322700  0.175700  1.0
  H  H270  1  0.123600  0.177300  0.824300  1.0
  H  H271  1  0.376400  0.822700  0.324300  1.0
  H  H272  1  0.876400  0.677300  0.675700  1.0
  H  H273  1  0.250200  0.684400  0.741400  1.0
  H  H274  1  0.750200  0.815600  0.258600  1.0
  H  H275  1  0.749800  0.184400  0.758600  1.0
  H  H276  1  0.249800  0.315600  0.241400  1.0
  H  H277  1  0.749800  0.315600  0.258600  1.0
  H  H278  1  0.249800  0.184400  0.741400  1.0
  H  H279  1  0.250200  0.815600  0.241400  1.0
  H  H280  1  0.750200  0.684400  0.758600  1.0
  H  H281  1  0.321200  0.726300  0.651500  1.0
  H  H282  1  0.821200  0.773700  0.348500  1.0
  H  H283  1  0.678800  0.226300  0.848500  1.0
  H  H284  1  0.178800  0.273700  0.151500  1.0
  H  H285  1  0.678800  0.273700  0.348500  1.0
  H  H286  1  0.178800  0.226300  0.651500  1.0
  H  H287  1  0.321200  0.773700  0.151500  1.0
  H  H288  1  0.821200  0.726300  0.848500  1.0
  H  H289  1  0.254100  0.710800  0.666900  1.0
  H  H290  1  0.754100  0.789200  0.333100  1.0
  H  H291  1  0.745900  0.210800  0.833100  1.0
  H  H292  1  0.245900  0.289200  0.166900  1.0
  H  H293  1  0.745900  0.289200  0.333100  1.0
  H  H294  1  0.245900  0.210800  0.666900  1.0
  H  H295  1  0.254100  0.789200  0.166900  1.0
  H  H296  1  0.754100  0.710800  0.833100  1.0
  H  H297  1  0.378100  0.636500  0.650400  1.0
  H  H298  1  0.878100  0.863500  0.349600  1.0
  H  H299  1  0.621900  0.136500  0.849600  1.0
  H  H300  1  0.121900  0.363500  0.150400  1.0
  H  H301  1  0.621900  0.363500  0.349600  1.0
  H  H302  1  0.121900  0.136500  0.650400  1.0
  H  H303  1  0.378100  0.863500  0.150400  1.0
  H  H304  1  0.878100  0.636500  0.849600  1.0
  H  H305  1  0.376800  0.585800  0.598900  1.0
  H  H306  1  0.876800  0.914200  0.401100  1.0
  H  H307  1  0.623200  0.085800  0.901100  1.0
  H  H308  1  0.123200  0.414200  0.098900  1.0
  H  H309  1  0.623200  0.414200  0.401100  1.0
  H  H310  1  0.123200  0.085800  0.598900  1.0
  H  H311  1  0.376800  0.914200  0.098900  1.0
  H  H312  1  0.876800  0.585800  0.901100  1.0
  H  H313  1  0.219900  0.637700  0.551800  1.0
  H  H314  1  0.719900  0.862300  0.448200  1.0
  H  H315  1  0.780100  0.137700  0.948200  1.0
  H  H316  1  0.280100  0.362300  0.051800  1.0
  H  H317  1  0.780100  0.362300  0.448200  1.0
  H  H318  1  0.280100  0.137700  0.551800  1.0
  H  H319  1  0.219900  0.862300  0.051800  1.0
  H  H320  1  0.719900  0.637700  0.948200  1.0
  H  H321  1  0.220700  0.687400  0.603900  1.0
  H  H322  1  0.720700  0.812600  0.396100  1.0
  H  H323  1  0.779300  0.187400  0.896100  1.0
  H  H324  1  0.279300  0.312600  0.103900  1.0
  H  H325  1  0.779300  0.312600  0.396100  1.0
  H  H326  1  0.279300  0.187400  0.603900  1.0
  H  H327  1  0.220700  0.812600  0.103900  1.0
  H  H328  1  0.720700  0.687400  0.896100  1.0
  H  H329  1  0.469000  0.618300  0.387600  1.0
  H  H330  1  0.969000  0.881700  0.612400  1.0
  H  H331  1  0.531000  0.118300  0.112400  1.0
  H  H332  1  0.031000  0.381700  0.887600  1.0
  H  H333  1  0.531000  0.381700  0.612400  1.0
  H  H334  1  0.031000  0.118300  0.387600  1.0
  H  H335  1  0.469000  0.881700  0.887600  1.0
  H  H336  1  0.969000  0.618300  0.112400  1.0
  H  H337  1  0.502700  0.667100  0.339300  1.0
  H  H338  1  0.002700  0.832900  0.660700  1.0
  H  H339  1  0.497300  0.167100  0.160700  1.0
  H  H340  1  0.997300  0.332900  0.839300  1.0
  H  H341  1  0.497300  0.332900  0.660700  1.0
  H  H342  1  0.997300  0.167100  0.339300  1.0
  H  H343  1  0.502700  0.832900  0.839300  1.0
  H  H344  1  0.002700  0.667100  0.160700  1.0
  H  H345  1  0.335700  0.661000  0.285200  1.0
  H  H346  1  0.835700  0.839000  0.714800  1.0
  H  H347  1  0.664300  0.161000  0.214800  1.0
  H  H348  1  0.164300  0.339000  0.785200  1.0
  H  H349  1  0.664300  0.339000  0.714800  1.0
  H  H350  1  0.164300  0.161000  0.285200  1.0
  H  H351  1  0.335700  0.839000  0.785200  1.0
  H  H352  1  0.835700  0.661000  0.214800  1.0
  H  H353  1  0.303000  0.610600  0.331500  1.0
  H  H354  1  0.803000  0.889400  0.668500  1.0
  H  H355  1  0.697000  0.110600  0.168500  1.0
  H  H356  1  0.197000  0.389400  0.831500  1.0
  H  H357  1  0.697000  0.389400  0.668500  1.0
  H  H358  1  0.197000  0.110600  0.331500  1.0
  H  H359  1  0.303000  0.889400  0.831500  1.0
  H  H360  1  0.803000  0.610600  0.168500  1.0
  H  H361  1  0.428100  0.732500  0.291800  1.0
  H  H362  1  0.928100  0.767500  0.708200  1.0
  H  H363  1  0.571900  0.232500  0.208200  1.0
  H  H364  1  0.071900  0.267500  0.791800  1.0
  H  H365  1  0.571900  0.267500  0.708200  1.0
  H  H366  1  0.071900  0.232500  0.291800  1.0
  H  H367  1  0.428100  0.767500  0.791800  1.0
  H  H368  1  0.928100  0.732500  0.208200  1.0
  H  H369  1  0.489700  0.706400  0.280800  1.0
  H  H370  1  0.989700  0.793600  0.719200  1.0
  H  H371  1  0.510300  0.206400  0.219200  1.0
  H  H372  1  0.010300  0.293600  0.780800  1.0
  H  H373  1  0.510300  0.293600  0.719200  1.0
  H  H374  1  0.010300  0.206400  0.280800  1.0
  H  H375  1  0.489700  0.793600  0.780800  1.0
  H  H376  1  0.989700  0.706400  0.219200  1.0
  H  H377  1  0.500400  0.690700  0.203300  1.0
  H  H378  1  0.000400  0.809300  0.796700  1.0
  H  H379  1  0.499600  0.190700  0.296700  1.0
  H  H380  1  0.999600  0.309300  0.703300  1.0
  H  H381  1  0.499600  0.309300  0.796700  1.0
  H  H382  1  0.999600  0.190700  0.203300  1.0
  H  H383  1  0.500400  0.809300  0.703300  1.0
  H  H384  1  0.000400  0.690700  0.296700  1.0
  H  H385  1  0.470100  0.684400  0.123800  1.0
  H  H386  1  0.970100  0.815600  0.876200  1.0
  H  H387  1  0.529900  0.184400  0.376200  1.0
  H  H388  1  0.029900  0.315600  0.623800  1.0
  H  H389  1  0.529900  0.315600  0.876200  1.0
  H  H390  1  0.029900  0.184400  0.123800  1.0
  H  H391  1  0.470100  0.815600  0.623800  1.0
  H  H392  1  0.970100  0.684400  0.376200  1.0
  H  H393  1  0.399000  0.669600  0.117500  1.0
  H  H394  1  0.899000  0.830400  0.882500  1.0
  H  H395  1  0.601000  0.169600  0.382500  1.0
  H  H396  1  0.101000  0.330400  0.617500  1.0
  H  H397  1  0.601000  0.330400  0.882500  1.0
  H  H398  1  0.101000  0.169600  0.117500  1.0
  H  H399  1  0.399000  0.830400  0.617500  1.0
  H  H400  1  0.899000  0.669600  0.382500  1.0
  H  H401  1  0.456300  0.766200  0.147300  1.0
  H  H402  1  0.956300  0.733800  0.852700  1.0
  H  H403  1  0.543700  0.266200  0.352700  1.0
  H  H404  1  0.043700  0.233800  0.647300  1.0
  H  H405  1  0.543700  0.233800  0.852700  1.0
  H  H406  1  0.043700  0.266200  0.147300  1.0
  H  H407  1  0.456300  0.733800  0.647300  1.0
  H  H408  1  0.956300  0.766200  0.352700  1.0
  H  H409  1  0.432900  0.791400  0.108100  1.0
  H  H410  1  0.932900  0.708600  0.891900  1.0
  H  H411  1  0.567100  0.291400  0.391900  1.0
  H  H412  1  0.067100  0.208600  0.608100  1.0
  H  H413  1  0.567100  0.208600  0.891900  1.0
  H  H414  1  0.067100  0.291400  0.108100  1.0
  H  H415  1  0.432900  0.708600  0.608100  1.0
  H  H416  1  0.932900  0.791400  0.391900  1.0
  H  H417  1  0.515200  0.755500  0.070600  1.0
  H  H418  1  0.015200  0.744500  0.929400  1.0
  H  H419  1  0.484800  0.255500  0.429400  1.0
  H  H420  1  0.984800  0.244500  0.570600  1.0
  H  H421  1  0.484800  0.244500  0.929400  1.0
  H  H422  1  0.984800  0.255500  0.070600  1.0
  H  H423  1  0.515200  0.744500  0.570600  1.0
  H  H424  1  0.015200  0.755500  0.429400  1.0
  H  H425  1  0.537600  0.790900  0.102100  1.0
  H  H426  1  0.037600  0.709100  0.897900  1.0
  H  H427  1  0.462400  0.290900  0.397900  1.0
  H  H428  1  0.962400  0.209100  0.602100  1.0
  H  H429  1  0.462400  0.209100  0.897900  1.0
  H  H430  1  0.962400  0.290900  0.102100  1.0
  H  H431  1  0.537600  0.709100  0.602100  1.0
  H  H432  1  0.037600  0.790900  0.397900  1.0
  H  H433  1  0.384100  0.275100  0.922400  1.0
  H  H434  1  0.884100  0.224900  0.077600  1.0
  H  H435  1  0.615900  0.775100  0.577600  1.0
  H  H436  1  0.115900  0.724900  0.422400  1.0
  H  H437  1  0.615900  0.724900  0.077600  1.0
  H  H438  1  0.115900  0.775100  0.922400  1.0
  H  H439  1  0.384100  0.224900  0.422400  1.0
  H  H440  1  0.884100  0.275100  0.577600  1.0
  H  H441  1  0.362300  0.243300  0.887300  1.0
  H  H442  1  0.862300  0.256700  0.112700  1.0
  H  H443  1  0.637700  0.743300  0.612700  1.0
  H  H444  1  0.137700  0.756700  0.387300  1.0
  H  H445  1  0.637700  0.756700  0.112700  1.0
  H  H446  1  0.137700  0.743300  0.887300  1.0
  H  H447  1  0.362300  0.256700  0.387300  1.0
  H  H448  1  0.862300  0.243300  0.612700  1.0
  H  H449  1  0.310600  0.308800  0.881500  1.0
  H  H450  1  0.810600  0.191200  0.118500  1.0
  H  H451  1  0.689400  0.808800  0.618500  1.0
  H  H452  1  0.189400  0.691200  0.381500  1.0
  H  H453  1  0.689400  0.691200  0.118500  1.0
  H  H454  1  0.189400  0.808800  0.881500  1.0
  H  H455  1  0.310600  0.191200  0.381500  1.0
  H  H456  1  0.810600  0.308800  0.618500  1.0
  H  H457  1  0.377300  0.331100  0.875300  1.0
  H  H458  1  0.877300  0.168900  0.124700  1.0
  H  H459  1  0.622700  0.831100  0.624700  1.0
  H  H460  1  0.122700  0.668900  0.375300  1.0
  H  H461  1  0.622700  0.668900  0.124700  1.0
  H  H462  1  0.122700  0.831100  0.875300  1.0
  H  H463  1  0.377300  0.168900  0.375300  1.0
  H  H464  1  0.877300  0.331100  0.624700  1.0
  H  H465  1  0.359100  0.355600  0.812700  1.0
  H  H466  1  0.859100  0.144400  0.187300  1.0
  H  H467  1  0.640900  0.855600  0.687300  1.0
  H  H468  1  0.140900  0.644400  0.312700  1.0
  H  H469  1  0.640900  0.644400  0.187300  1.0
  H  H470  1  0.140900  0.855600  0.812700  1.0
  H  H471  1  0.359100  0.144400  0.312700  1.0
  H  H472  1  0.859100  0.355600  0.687300  1.0
  H  H473  1  0.288500  0.338200  0.811400  1.0
  H  H474  1  0.788500  0.161800  0.188600  1.0
  H  H475  1  0.711500  0.838200  0.688600  1.0
  H  H476  1  0.211500  0.661800  0.311400  1.0
  H  H477  1  0.711500  0.661800  0.188600  1.0
  H  H478  1  0.211500  0.838200  0.811400  1.0
  H  H479  1  0.288500  0.161800  0.311400  1.0
  H  H480  1  0.788500  0.338200  0.688600  1.0
  H  H481  1  0.253600  0.307300  0.737600  1.0
  H  H482  1  0.753600  0.192700  0.262400  1.0
  H  H483  1  0.746400  0.807300  0.762400  1.0
  H  H484  1  0.246400  0.692700  0.237600  1.0
  H  H485  1  0.746400  0.692700  0.262400  1.0
  H  H486  1  0.246400  0.807300  0.737600  1.0
  H  H487  1  0.253600  0.192700  0.237600  1.0
  H  H488  1  0.753600  0.307300  0.762400  1.0
  H  H489  1  0.263200  0.280700  0.662400  1.0
  H  H490  1  0.763200  0.219300  0.337600  1.0
  H  H491  1  0.736800  0.780700  0.837600  1.0
  H  H492  1  0.236800  0.719300  0.162400  1.0
  H  H493  1  0.736800  0.719300  0.337600  1.0
  H  H494  1  0.236800  0.780700  0.662400  1.0
  H  H495  1  0.263200  0.219300  0.162400  1.0
  H  H496  1  0.763200  0.280700  0.837600  1.0
  H  H497  1  0.332900  0.268800  0.648600  1.0
  H  H498  1  0.832900  0.231200  0.351400  1.0
  H  H499  1  0.667100  0.768800  0.851400  1.0
  H  H500  1  0.167100  0.731200  0.148600  1.0
  H  H501  1  0.667100  0.731200  0.351400  1.0
  H  H502  1  0.167100  0.768800  0.648600  1.0
  H  H503  1  0.332900  0.231200  0.148600  1.0
  H  H504  1  0.832900  0.268800  0.851400  1.0
  H  H505  1  0.397800  0.324000  0.614800  1.0
  H  H506  1  0.897800  0.176000  0.385200  1.0
  H  H507  1  0.602200  0.824000  0.885200  1.0
  H  H508  1  0.102200  0.676000  0.114800  1.0
  H  H509  1  0.602200  0.676000  0.385200  1.0
  H  H510  1  0.102200  0.824000  0.614800  1.0
  H  H511  1  0.397800  0.176000  0.114800  1.0
  H  H512  1  0.897800  0.324000  0.885200  1.0
  H  H513  1  0.396800  0.377100  0.565500  1.0
  H  H514  1  0.896800  0.122900  0.434500  1.0
  H  H515  1  0.603200  0.877100  0.934500  1.0
  H  H516  1  0.103200  0.622900  0.065500  1.0
  H  H517  1  0.603200  0.622900  0.434500  1.0
  H  H518  1  0.103200  0.877100  0.565500  1.0
  H  H519  1  0.396800  0.122900  0.065500  1.0
  H  H520  1  0.896800  0.377100  0.934500  1.0
  H  H521  1  0.210500  0.392400  0.584500  1.0
  H  H522  1  0.710500  0.107600  0.415500  1.0
  H  H523  1  0.789500  0.892400  0.915500  1.0
  H  H524  1  0.289500  0.607600  0.084500  1.0
  H  H525  1  0.789500  0.607600  0.415500  1.0
  H  H526  1  0.289500  0.892400  0.584500  1.0
  H  H527  1  0.210500  0.107600  0.084500  1.0
  H  H528  1  0.710500  0.392400  0.915500  1.0
  H  H529  1  0.213400  0.340700  0.634200  1.0
  H  H530  1  0.713400  0.159300  0.365800  1.0
  H  H531  1  0.786600  0.840700  0.865800  1.0
  H  H532  1  0.286600  0.659300  0.134200  1.0
  H  H533  1  0.786600  0.659300  0.365800  1.0
  H  H534  1  0.286600  0.840700  0.634200  1.0
  H  H535  1  0.213400  0.159300  0.134200  1.0
  H  H536  1  0.713400  0.340700  0.865800  1.0
  H  H537  1  0.473400  0.537700  0.444000  1.0
  H  H538  1  0.973400  0.962300  0.556000  1.0
  H  H539  1  0.526600  0.037700  0.056000  1.0
  H  H540  1  0.026600  0.462300  0.944000  1.0
  H  H541  1  0.526600  0.462300  0.556000  1.0
  H  H542  1  0.026600  0.037700  0.444000  1.0
  H  H543  1  0.473400  0.962300  0.944000  1.0
  H  H544  1  0.973400  0.537700  0.056000  1.0
  H  H545  1  0.478400  0.489100  0.432200  1.0
  H  H546  1  0.978400  0.010900  0.567800  1.0
  H  H547  1  0.521600  0.989100  0.067800  1.0
  H  H548  1  0.021600  0.510900  0.932200  1.0
  H  H549  1  0.521600  0.510900  0.567800  1.0
  H  H550  1  0.021600  0.989100  0.432200  1.0
  H  H551  1  0.478400  0.010900  0.932200  1.0
  H  H552  1  0.978400  0.489100  0.067800  1.0
  H  H553  1  0.577200  0.487100  0.453900  1.0
  H  H554  1  0.077200  0.012900  0.546100  1.0
  H  H555  1  0.422800  0.987100  0.046100  1.0
  H  H556  1  0.922800  0.512900  0.953900  1.0
  H  H557  1  0.422800  0.512900  0.546100  1.0
  H  H558  1  0.922800  0.987100  0.453900  1.0
  H  H559  1  0.577200  0.012900  0.953900  1.0
  H  H560  1  0.077200  0.487100  0.046100  1.0
  H  H561  1  0.573600  0.536400  0.462800  1.0
  H  H562  1  0.073600  0.963600  0.537200  1.0
  H  H563  1  0.426400  0.036400  0.037200  1.0
  H  H564  1  0.926400  0.463600  0.962800  1.0
  H  H565  1  0.426400  0.463600  0.537200  1.0
  H  H566  1  0.926400  0.036400  0.462800  1.0
  H  H567  1  0.573600  0.963600  0.962800  1.0
  H  H568  1  0.073600  0.536400  0.037200  1.0
  H  H569  1  0.458000  0.437600  0.479800  1.0
  H  H570  1  0.958000  0.062400  0.520200  1.0
  H  H571  1  0.542000  0.937600  0.020200  1.0
  H  H572  1  0.042000  0.562400  0.979800  1.0
  H  H573  1  0.542000  0.562400  0.520200  1.0
  H  H574  1  0.042000  0.937600  0.479800  1.0
  H  H575  1  0.458000  0.062400  0.979800  1.0
  H  H576  1  0.958000  0.437600  0.020200  1.0
  H  H577  1  0.435000  0.449100  0.524900  1.0
  H  H578  1  0.935000  0.050900  0.475100  1.0
  H  H579  1  0.565000  0.949100  0.975100  1.0
  H  H580  1  0.065000  0.550900  0.024900  1.0
  H  H581  1  0.565000  0.550900  0.475100  1.0
  H  H582  1  0.065000  0.949100  0.524900  1.0
  H  H583  1  0.435000  0.050900  0.024900  1.0
  H  H584  1  0.935000  0.449100  0.975100  1.0
  H  H585  1  0.534700  0.450600  0.546200  1.0
  H  H586  1  0.034700  0.049400  0.453800  1.0
  H  H587  1  0.465300  0.950600  0.953800  1.0
  H  H588  1  0.965300  0.549400  0.046200  1.0
  H  H589  1  0.465300  0.549400  0.453800  1.0
  H  H590  1  0.965300  0.950600  0.546200  1.0
  H  H591  1  0.534700  0.049400  0.046200  1.0
  H  H592  1  0.034700  0.450600  0.953800  1.0
  H  H593  1  0.557600  0.438700  0.501000  1.0
  H  H594  1  0.057600  0.061300  0.499000  1.0
  H  H595  1  0.442400  0.938700  0.999000  1.0
  H  H596  1  0.942400  0.561300  0.001000  1.0
  H  H597  1  0.442400  0.561300  0.499000  1.0
  H  H598  1  0.942400  0.938700  0.501000  1.0
  H  H599  1  0.557600  0.061300  0.001000  1.0
  H  H600  1  0.057600  0.438700  0.999000  1.0
  H  H601  1  0.424200  0.524400  0.542400  1.0
  H  H602  1  0.924200  0.975600  0.457600  1.0
  H  H603  1  0.575800  0.024400  0.957600  1.0
  H  H604  1  0.075800  0.475600  0.042400  1.0
  H  H605  1  0.575800  0.475600  0.457600  1.0
  H  H606  1  0.075800  0.024400  0.542400  1.0
  H  H607  1  0.424200  0.975600  0.042400  1.0
  H  H608  1  0.924200  0.524400  0.957600  1.0
  H  H609  1  0.439900  0.558200  0.507800  1.0
  H  H610  1  0.939900  0.941800  0.492200  1.0
  H  H611  1  0.560100  0.058200  0.992200  1.0
  H  H612  1  0.060100  0.441800  0.007800  1.0
  H  H613  1  0.560100  0.441800  0.492200  1.0
  H  H614  1  0.060100  0.058200  0.507800  1.0
  H  H615  1  0.439900  0.941800  0.007800  1.0
  H  H616  1  0.939900  0.558200  0.992200  1.0
  H  H617  1  0.539700  0.559700  0.528100  1.0
  H  H618  1  0.039700  0.940300  0.471900  1.0
  H  H619  1  0.460300  0.059700  0.971900  1.0
  H  H620  1  0.960300  0.440300  0.028100  1.0
  H  H621  1  0.460300  0.440300  0.471900  1.0
  H  H622  1  0.960300  0.059700  0.528100  1.0
  H  H623  1  0.539700  0.940300  0.028100  1.0
  H  H624  1  0.039700  0.559700  0.971900  1.0
  H  H625  1  0.523900  0.526000  0.562900  1.0
  H  H626  1  0.023900  0.974000  0.437100  1.0
  H  H627  1  0.476100  0.026000  0.937100  1.0
  H  H628  1  0.976100  0.474000  0.062900  1.0
  H  H629  1  0.476100  0.474000  0.437100  1.0
  H  H630  1  0.976100  0.026000  0.562900  1.0
  H  H631  1  0.523900  0.974000  0.062900  1.0
  H  H632  1  0.023900  0.526000  0.937100  1.0
  C  C633  1  0.498680  0.344320  0.507650  1
  C  C634  1  0.998680  0.155680  0.492350  1
  C  C635  1  0.501320  0.844320  0.992350  1
  C  C636  1  0.001320  0.655680  0.007650  1
  C  C637  1  0.501320  0.655680  0.492350  1
  C  C638  1  0.001320  0.844320  0.507650  1
  C  C639  1  0.498680  0.155680  0.007650  1
  C  C640  1  0.998680  0.344320  0.992350  1
  C  C641  1  0.525050  0.351210  0.466440  1
  C  C642  1  0.025050  0.148790  0.533560  1
  C  C643  1  0.474950  0.851210  0.033560  1
  C  C644  1  0.974950  0.648790  0.966440  1
  C  C645  1  0.474950  0.648790  0.533560  1
  C  C646  1  0.974950  0.851210  0.466440  1
  C  C647  1  0.525050  0.148790  0.966440  1
  C  C648  1  0.025050  0.351210  0.033560  1
  C  C649  1  0.472510  0.301860  0.516340  1
  C  C650  1  0.972510  0.198140  0.483660  1
  C  C651  1  0.527490  0.801860  0.983660  1
  C  C652  1  0.027490  0.698140  0.016340  1
  C  C653  1  0.527490  0.698140  0.483660  1
  C  C654  1  0.027490  0.801860  0.516340  1
  C  C655  1  0.472510  0.198140  0.016340  1
  C  C656  1  0.972510  0.301860  0.983660  1
  C  C657  1  0.347990  0.408480  0.432370  1.0
  C  C658  1  0.847990  0.091520  0.567630  1.0
  C  C659  1  0.652010  0.908480  0.067630  1.0
  C  C660  1  0.152010  0.591520  0.932370  1.0
  C  C661  1  0.652010  0.591520  0.567630  1.0
  C  C662  1  0.152010  0.908480  0.432370  1.0
  C  C663  1  0.347990  0.091520  0.932370  1.0
  C  C664  1  0.847990  0.408480  0.067630  1.0
  C  C665  1  0.345740  0.365700  0.445600  1.0
  C  C666  1  0.845740  0.134300  0.554400  1.0
  C  C667  1  0.654260  0.865700  0.054400  1.0
  C  C668  1  0.154260  0.634300  0.945600  1.0
  C  C669  1  0.654260  0.634300  0.554400  1.0
  C  C670  1  0.154260  0.865700  0.445600  1.0
  C  C671  1  0.345740  0.134300  0.945600  1.0
  C  C672  1  0.845740  0.365700  0.054400  1.0
  C  C673  1  0.328490  0.365700  0.485070  1.0
  C  C674  1  0.828490  0.134300  0.514930  1.0
  C  C675  1  0.671510  0.865700  0.014930  1.0
  C  C676  1  0.171510  0.634300  0.985070  1.0
  C  C677  1  0.671510  0.634300  0.514930  1.0
  C  C678  1  0.171510  0.865700  0.485070  1.0
  C  C679  1  0.328490  0.134300  0.985070  1.0
  C  C680  1  0.828490  0.365700  0.014930  1.0
  C  C681  1  0.320400  0.408630  0.497150  1.0
  C  C682  1  0.820400  0.091370  0.502850  1.0
  C  C683  1  0.679600  0.908630  0.002850  1.0
  C  C684  1  0.179600  0.591370  0.997150  1.0
  C  C685  1  0.679600  0.591370  0.502850  1.0
  C  C686  1  0.179600  0.908630  0.497150  1.0
  C  C687  1  0.320400  0.091370  0.997150  1.0
  C  C688  1  0.820400  0.408630  0.002850  1.0
  C  C689  1  0.303890  0.422190  0.536480  1.0
  C  C690  1  0.803890  0.077810  0.463520  1.0
  C  C691  1  0.696110  0.922190  0.963520  1.0
  C  C692  1  0.196110  0.577810  0.036480  1.0
  C  C693  1  0.696110  0.577810  0.463520  1.0
  C  C694  1  0.196110  0.922190  0.536480  1.0
  C  C695  1  0.303890  0.077810  0.036480  1.0
  C  C696  1  0.803890  0.422190  0.963520  1.0
  C  C697  1  0.294220  0.463940  0.548420  1.0
  C  C698  1  0.794220  0.036060  0.451580  1.0
  C  C699  1  0.705780  0.963940  0.951580  1.0
  C  C700  1  0.205780  0.536060  0.048420  1.0
  C  C701  1  0.705780  0.536060  0.451580  1.0
  C  C702  1  0.205780  0.963940  0.548420  1.0
  C  C703  1  0.294220  0.036060  0.048420  1.0
  C  C704  1  0.794220  0.463940  0.951580  1.0
  C  C705  1  0.279210  0.477170  0.589320  1.0
  C  C706  1  0.779210  0.022830  0.410680  1.0
  C  C707  1  0.720790  0.977170  0.910680  1.0
  C  C708  1  0.220790  0.522830  0.089320  1.0
  C  C709  1  0.720790  0.522830  0.410680  1.0
  C  C710  1  0.220790  0.977170  0.589320  1.0
  C  C711  1  0.279210  0.022830  0.089320  1.0
  C  C712  1  0.779210  0.477170  0.910680  1.0
  C  C713  1  0.277910  0.518900  0.589030  1.0
  C  C714  1  0.777910  0.981100  0.410970  1.0
  C  C715  1  0.722090  0.018900  0.910970  1.0
  C  C716  1  0.222090  0.481100  0.089030  1.0
  C  C717  1  0.722090  0.481100  0.410970  1.0
  C  C718  1  0.222090  0.018900  0.589030  1.0
  C  C719  1  0.277910  0.981100  0.089030  1.0
  C  C720  1  0.777910  0.518900  0.910970  1.0
  C  C721  1  0.293730  0.532390  0.548620  1.0
  C  C722  1  0.793730  0.967610  0.451380  1.0
  C  C723  1  0.706270  0.032390  0.951380  1.0
  C  C724  1  0.206270  0.467610  0.048620  1.0
  C  C725  1  0.706270  0.467610  0.451380  1.0
  C  C726  1  0.206270  0.032390  0.548620  1.0
  C  C727  1  0.293730  0.967610  0.048620  1.0
  C  C728  1  0.793730  0.532390  0.951380  1.0
  C  C729  1  0.301740  0.574530  0.536630  1.0
  C  C730  1  0.801740  0.925470  0.463370  1.0
  C  C731  1  0.698260  0.074530  0.963370  1.0
  C  C732  1  0.198260  0.425470  0.036630  1.0
  C  C733  1  0.698260  0.425470  0.463370  1.0
  C  C734  1  0.198260  0.074530  0.536630  1.0
  C  C735  1  0.301740  0.925470  0.036630  1.0
  C  C736  1  0.801740  0.574530  0.963370  1.0
  C  C737  1  0.316050  0.588240  0.496900  1.0
  C  C738  1  0.816050  0.911760  0.503100  1.0
  C  C739  1  0.683950  0.088240  0.003100  1.0
  C  C740  1  0.183950  0.411760  0.996900  1.0
  C  C741  1  0.683950  0.411760  0.503100  1.0
  C  C742  1  0.183950  0.088240  0.496900  1.0
  C  C743  1  0.316050  0.911760  0.996900  1.0
  C  C744  1  0.816050  0.588240  0.003100  1.0
  C  C745  1  0.323410  0.631070  0.484680  1.0
  C  C746  1  0.823410  0.868930  0.515320  1.0
  C  C747  1  0.676590  0.131070  0.015320  1.0
  C  C748  1  0.176590  0.368930  0.984680  1.0
  C  C749  1  0.676590  0.368930  0.515320  1.0
  C  C750  1  0.176590  0.131070  0.484680  1.0
  C  C751  1  0.323410  0.868930  0.984680  1.0
  C  C752  1  0.823410  0.631070  0.015320  1.0
  C  C753  1  0.340440  0.631430  0.445220  1.0
  C  C754  1  0.840440  0.868570  0.554780  1.0
  C  C755  1  0.659560  0.131430  0.054780  1.0
  C  C756  1  0.159560  0.368570  0.945220  1.0
  C  C757  1  0.659560  0.368570  0.554780  1.0
  C  C758  1  0.159560  0.131430  0.445220  1.0
  C  C759  1  0.340440  0.868570  0.945220  1.0
  C  C760  1  0.840440  0.631430  0.054780  1.0
  C  C761  1  0.344350  0.587870  0.432050  1.0
  C  C762  1  0.844350  0.912130  0.567950  1.0
  C  C763  1  0.655650  0.087870  0.067950  1.0
  C  C764  1  0.155650  0.412130  0.932050  1.0
  C  C765  1  0.655650  0.412130  0.567950  1.0
  C  C766  1  0.155650  0.087870  0.432050  1.0
  C  C767  1  0.344350  0.912130  0.932050  1.0
  C  C768  1  0.844350  0.587870  0.067950  1.0
  C  C769  1  0.364220  0.575050  0.393660  1.0
  C  C770  1  0.864220  0.924950  0.606340  1.0
  C  C771  1  0.635780  0.075050  0.106340  1.0
  C  C772  1  0.135780  0.424950  0.893660  1.0
  C  C773  1  0.635780  0.424950  0.606340  1.0
  C  C774  1  0.135780  0.075050  0.393660  1.0
  C  C775  1  0.364220  0.924950  0.893660  1.0
  C  C776  1  0.864220  0.575050  0.106340  1.0
  C  C777  1  0.369660  0.532920  0.380700  1.0
  C  C778  1  0.869660  0.967080  0.619300  1.0
  C  C779  1  0.630340  0.032920  0.119300  1.0
  C  C780  1  0.130340  0.467080  0.880700  1.0
  C  C781  1  0.630340  0.467080  0.619300  1.0
  C  C782  1  0.130340  0.032920  0.380700  1.0
  C  C783  1  0.369660  0.967080  0.880700  1.0
  C  C784  1  0.869660  0.532920  0.119300  1.0
  C  C785  1  0.389290  0.519630  0.340860  1.0
  C  C786  1  0.889290  0.980370  0.659140  1.0
  C  C787  1  0.610710  0.019630  0.159140  1.0
  C  C788  1  0.110710  0.480370  0.840860  1.0
  C  C789  1  0.610710  0.480370  0.659140  1.0
  C  C790  1  0.110710  0.019630  0.340860  1.0
  C  C791  1  0.389290  0.980370  0.840860  1.0
  C  C792  1  0.889290  0.519630  0.159140  1.0
  C  C793  1  0.389850  0.477840  0.340560  1.0
  C  C794  1  0.889850  0.022160  0.659440  1.0
  C  C795  1  0.610150  0.977840  0.159440  1.0
  C  C796  1  0.110150  0.522160  0.840560  1.0
  C  C797  1  0.610150  0.522160  0.659440  1.0
  C  C798  1  0.110150  0.977840  0.340560  1.0
  C  C799  1  0.389850  0.022160  0.840560  1.0
  C  C800  1  0.889850  0.477840  0.159440  1.0
  C  C801  1  0.371990  0.464070  0.380980  1.0
  C  C802  1  0.871990  0.035930  0.619020  1.0
  C  C803  1  0.628010  0.964070  0.119020  1.0
  C  C804  1  0.128010  0.535930  0.880980  1.0
  C  C805  1  0.628010  0.535930  0.619020  1.0
  C  C806  1  0.128010  0.964070  0.380980  1.0
  C  C807  1  0.371990  0.035930  0.880980  1.0
  C  C808  1  0.871990  0.464070  0.119020  1.0
  C  C809  1  0.632980  0.577720  0.606770  1.0
  C  C810  1  0.132980  0.922280  0.393230  1.0
  C  C811  1  0.367020  0.077720  0.893230  1.0
  C  C812  1  0.867020  0.422280  0.106770  1.0
  C  C813  1  0.367020  0.422280  0.393230  1.0
  C  C814  1  0.867020  0.077720  0.606770  1.0
  C  C815  1  0.632980  0.922280  0.106770  1.0
  C  C816  1  0.132980  0.577720  0.893230  1.0
  C  C817  1  0.614420  0.611410  0.636220  1.0
  C  C818  1  0.114420  0.888590  0.363780  1.0
  C  C819  1  0.385580  0.111410  0.863780  1.0
  C  C820  1  0.885580  0.388590  0.136220  1.0
  C  C821  1  0.385580  0.388590  0.363780  1.0
  C  C822  1  0.885580  0.111410  0.636220  1.0
  C  C823  1  0.614420  0.888590  0.136220  1.0
  C  C824  1  0.114420  0.611410  0.863780  1.0
  C  C825  1  0.552540  0.615840  0.648850  1.0
  C  C826  1  0.052540  0.884160  0.351150  1.0
  C  C827  1  0.447460  0.115840  0.851150  1.0
  C  C828  1  0.947460  0.384160  0.148850  1.0
  C  C829  1  0.447460  0.384160  0.351150  1.0
  C  C830  1  0.947460  0.115840  0.648850  1.0
  C  C831  1  0.552540  0.884160  0.148850  1.0
  C  C832  1  0.052540  0.615840  0.851150  1.0
  C  C833  1  0.535370  0.648170  0.674550  1.0
  C  C834  1  0.035370  0.851830  0.325450  1.0
  C  C835  1  0.464630  0.148170  0.825450  1.0
  C  C836  1  0.964630  0.351830  0.174550  1.0
  C  C837  1  0.464630  0.351830  0.325450  1.0
  C  C838  1  0.964630  0.148170  0.674550  1.0
  C  C839  1  0.535370  0.851830  0.174550  1.0
  C  C840  1  0.035370  0.648170  0.825450  1.0
  C  C841  1  0.579460  0.677380  0.688230  1.0
  C  C842  1  0.079460  0.822620  0.311770  1.0
  C  C843  1  0.420540  0.177380  0.811770  1.0
  C  C844  1  0.920540  0.322620  0.188230  1.0
  C  C845  1  0.420540  0.322620  0.311770  1.0
  C  C846  1  0.920540  0.177380  0.688230  1.0
  C  C847  1  0.579460  0.822620  0.188230  1.0
  C  C848  1  0.079460  0.677380  0.811770  1.0
  C  C849  1  0.641050  0.672890  0.675930  1.0
  C  C850  1  0.141050  0.827110  0.324070  1.0
  C  C851  1  0.358950  0.172890  0.824070  1.0
  C  C852  1  0.858950  0.327110  0.175930  1.0
  C  C853  1  0.358950  0.327110  0.324070  1.0
  C  C854  1  0.858950  0.172890  0.675930  1.0
  C  C855  1  0.641050  0.827110  0.175930  1.0
  C  C856  1  0.141050  0.672890  0.824070  1.0
  C  C857  1  0.658520  0.640240  0.649970  1.0
  C  C858  1  0.158520  0.859760  0.350030  1.0
  C  C859  1  0.341480  0.140240  0.850030  1.0
  C  C860  1  0.841480  0.359760  0.149970  1.0
  C  C861  1  0.341480  0.359760  0.350030  1.0
  C  C862  1  0.841480  0.140240  0.649970  1.0
  C  C863  1  0.658520  0.859760  0.149970  1.0
  C  C864  1  0.158520  0.640240  0.850030  1.0
  C  C865  1  0.561080  0.712940  0.715830  1.0
  C  C866  1  0.061080  0.787060  0.284170  1.0
  C  C867  1  0.438920  0.212940  0.784170  1.0
  C  C868  1  0.938920  0.287060  0.215830  1.0
  C  C869  1  0.438920  0.287060  0.284170  1.0
  C  C870  1  0.938920  0.212940  0.715830  1.0
  C  C871  1  0.561080  0.787060  0.215830  1.0
  C  C872  1  0.061080  0.712940  0.784170  1.0
  C  C873  1  0.540660  0.692440  0.788960  1.0
  C  C874  1  0.040660  0.807560  0.211040  1.0
  C  C875  1  0.459340  0.192440  0.711040  1.0
  C  C876  1  0.959340  0.307560  0.288960  1.0
  C  C877  1  0.459340  0.307560  0.211040  1.0
  C  C878  1  0.959340  0.192440  0.788960  1.0
  C  C879  1  0.540660  0.807560  0.288960  1.0
  C  C880  1  0.040660  0.692440  0.711040  1.0
  C  C881  1  0.579700  0.688520  0.821990  1.0
  C  C882  1  0.079700  0.811480  0.178010  1.0
  C  C883  1  0.420300  0.188520  0.678010  1.0
  C  C884  1  0.920300  0.311480  0.321990  1.0
  C  C885  1  0.420300  0.311480  0.178010  1.0
  C  C886  1  0.920300  0.188520  0.821990  1.0
  C  C887  1  0.579700  0.811480  0.321990  1.0
  C  C888  1  0.079700  0.688520  0.678010  1.0
  C  C889  1  0.564840  0.675280  0.865240  1.0
  C  C890  1  0.064840  0.824720  0.134760  1.0
  C  C891  1  0.435160  0.175280  0.634760  1.0
  C  C892  1  0.935160  0.324720  0.365240  1.0
  C  C893  1  0.435160  0.324720  0.134760  1.0
  C  C894  1  0.935160  0.175280  0.865240  1.0
  C  C895  1  0.564840  0.824720  0.365240  1.0
  C  C896  1  0.064840  0.675280  0.634760  1.0
  C  C897  1  0.504660  0.733820  0.884400  1.0
  C  C898  1  0.004660  0.766180  0.115600  1.0
  C  C899  1  0.495340  0.233820  0.615600  1.0
  C  C900  1  0.995340  0.266180  0.384400  1.0
  C  C901  1  0.495340  0.266180  0.115600  1.0
  C  C902  1  0.995340  0.233820  0.884400  1.0
  C  C903  1  0.504660  0.766180  0.384400  1.0
  C  C904  1  0.004660  0.733820  0.615600  1.0
  C  C905  1  0.439990  0.746300  0.895670  1.0
  C  C906  1  0.939990  0.753700  0.104330  1.0
  C  C907  1  0.560010  0.246300  0.604330  1.0
  C  C908  1  0.060010  0.253700  0.395670  1.0
  C  C909  1  0.560010  0.253700  0.104330  1.0
  C  C910  1  0.060010  0.246300  0.895670  1.0
  C  C911  1  0.439990  0.753700  0.395670  1.0
  C  C912  1  0.939990  0.746300  0.604330  1.0
  C  C913  1  0.336940  0.751270  0.869180  1.0
  C  C914  1  0.836940  0.748730  0.130820  1.0
  C  C915  1  0.663060  0.251270  0.630820  1.0
  C  C916  1  0.163060  0.248730  0.369180  1.0
  C  C917  1  0.663060  0.248730  0.130820  1.0
  C  C918  1  0.163060  0.251270  0.869180  1.0
  C  C919  1  0.336940  0.748730  0.369180  1.0
  C  C920  1  0.836940  0.751270  0.630820  1.0
  C  C921  1  0.297910  0.738610  0.832960  1.0
  C  C922  1  0.797910  0.761390  0.167040  1.0
  C  C923  1  0.702090  0.238610  0.667040  1.0
  C  C924  1  0.202090  0.261390  0.332960  1.0
  C  C925  1  0.702090  0.261390  0.167040  1.0
  C  C926  1  0.202090  0.238610  0.832960  1.0
  C  C927  1  0.297910  0.761390  0.332960  1.0
  C  C928  1  0.797910  0.738610  0.667040  1.0
  C  C929  1  0.335700  0.670990  0.811120  1.0
  C  C930  1  0.835700  0.829010  0.188880  1.0
  C  C931  1  0.664300  0.170990  0.688880  1.0
  C  C932  1  0.164300  0.329010  0.311120  1.0
  C  C933  1  0.664300  0.329010  0.188880  1.0
  C  C934  1  0.164300  0.170990  0.811120  1.0
  C  C935  1  0.335700  0.829010  0.311120  1.0
  C  C936  1  0.835700  0.670990  0.688880  1.0
  C  C937  1  0.340600  0.680260  0.766840  1.0
  C  C938  1  0.840600  0.819740  0.233160  1.0
  C  C939  1  0.659400  0.180260  0.733160  1.0
  C  C940  1  0.159400  0.319740  0.266840  1.0
  C  C941  1  0.659400  0.319740  0.233160  1.0
  C  C942  1  0.159400  0.180260  0.766840  1.0
  C  C943  1  0.340600  0.819740  0.266840  1.0
  C  C944  1  0.840600  0.680260  0.733160  1.0
  C  C945  1  0.294320  0.685530  0.737480  1.0
  C  C946  1  0.794320  0.814470  0.262520  1.0
  C  C947  1  0.705680  0.185530  0.762520  1.0
  C  C948  1  0.205680  0.314470  0.237480  1.0
  C  C949  1  0.705680  0.314470  0.262520  1.0
  C  C950  1  0.205680  0.185530  0.737480  1.0
  C  C951  1  0.294320  0.814470  0.237480  1.0
  C  C952  1  0.794320  0.685530  0.762520  1.0
  C  C953  1  0.298220  0.702010  0.662900  1.0
  C  C954  1  0.798220  0.797990  0.337100  1.0
  C  C955  1  0.701780  0.202010  0.837100  1.0
  C  C956  1  0.201780  0.297990  0.162900  1.0
  C  C957  1  0.701780  0.297990  0.337100  1.0
  C  C958  1  0.201780  0.202010  0.662900  1.0
  C  C959  1  0.298220  0.797990  0.162900  1.0
  C  C960  1  0.798220  0.702010  0.837100  1.0
  C  C961  1  0.299310  0.667520  0.631980  1.0
  C  C962  1  0.799310  0.832480  0.368020  1.0
  C  C963  1  0.700690  0.167520  0.868020  1.0
  C  C964  1  0.200690  0.332480  0.131980  1.0
  C  C965  1  0.700690  0.332480  0.368020  1.0
  C  C966  1  0.200690  0.167520  0.631980  1.0
  C  C967  1  0.299310  0.832480  0.131980  1.0
  C  C968  1  0.799310  0.667520  0.868020  1.0
  C  C969  1  0.345890  0.636880  0.630370  1.0
  C  C970  1  0.845890  0.863120  0.369630  1.0
  C  C971  1  0.654110  0.136880  0.869630  1.0
  C  C972  1  0.154110  0.363120  0.130370  1.0
  C  C973  1  0.654110  0.363120  0.369630  1.0
  C  C974  1  0.154110  0.136880  0.630370  1.0
  C  C975  1  0.345890  0.863120  0.130370  1.0
  C  C976  1  0.845890  0.636880  0.869630  1.0
  C  C977  1  0.345190  0.606820  0.599470  1.0
  C  C978  1  0.845190  0.893180  0.400530  1.0
  C  C979  1  0.654810  0.106820  0.900530  1.0
  C  C980  1  0.154810  0.393180  0.099470  1.0
  C  C981  1  0.654810  0.393180  0.400530  1.0
  C  C982  1  0.154810  0.106820  0.599470  1.0
  C  C983  1  0.345190  0.893180  0.099470  1.0
  C  C984  1  0.845190  0.606820  0.900530  1.0
  C  C985  1  0.299170  0.606970  0.569500  1.0
  C  C986  1  0.799170  0.893030  0.430500  1.0
  C  C987  1  0.700830  0.106970  0.930500  1.0
  C  C988  1  0.200830  0.393030  0.069500  1.0
  C  C989  1  0.700830  0.393030  0.430500  1.0
  C  C990  1  0.200830  0.106970  0.569500  1.0
  C  C991  1  0.299170  0.893030  0.069500  1.0
  C  C992  1  0.799170  0.606970  0.930500  1.0
  C  C993  1  0.252350  0.637240  0.571600  1.0
  C  C994  1  0.752350  0.862760  0.428400  1.0
  C  C995  1  0.747650  0.137240  0.928400  1.0
  C  C996  1  0.247650  0.362760  0.071600  1.0
  C  C997  1  0.747650  0.362760  0.428400  1.0
  C  C998  1  0.247650  0.137240  0.571600  1.0
  C  C999  1  0.252350  0.862760  0.071600  1.0
  C  C1000  1  0.752350  0.637240  0.928400  1.0
  C  C1001  1  0.253040  0.666990  0.602780  1.0
  C  C1002  1  0.753040  0.833010  0.397220  1.0
  C  C1003  1  0.746960  0.166990  0.897220  1.0
  C  C1004  1  0.246960  0.333010  0.102780  1.0
  C  C1005  1  0.746960  0.333010  0.397220  1.0
  C  C1006  1  0.246960  0.166990  0.602780  1.0
  C  C1007  1  0.253040  0.833010  0.102780  1.0
  C  C1008  1  0.753040  0.666990  0.897220  1.0
  C  C1009  1  0.383700  0.608130  0.363760  1.0
  C  C1010  1  0.883700  0.891870  0.636240  1.0
  C  C1011  1  0.616300  0.108130  0.136240  1.0
  C  C1012  1  0.116300  0.391870  0.863760  1.0
  C  C1013  1  0.616300  0.391870  0.636240  1.0
  C  C1014  1  0.116300  0.108130  0.363760  1.0
  C  C1015  1  0.383700  0.891870  0.863760  1.0
  C  C1016  1  0.883700  0.608130  0.136240  1.0
  C  C1017  1  0.441470  0.626240  0.366180  1.0
  C  C1018  1  0.941470  0.873760  0.633820  1.0
  C  C1019  1  0.558530  0.126240  0.133820  1.0
  C  C1020  1  0.058530  0.373760  0.866180  1.0
  C  C1021  1  0.558530  0.373760  0.633820  1.0
  C  C1022  1  0.058530  0.126240  0.366180  1.0
  C  C1023  1  0.441470  0.873760  0.866180  1.0
  C  C1024  1  0.941470  0.626240  0.133820  1.0
  C  C1025  1  0.461290  0.656250  0.337910  1.0
  C  C1026  1  0.961290  0.843750  0.662090  1.0
  C  C1027  1  0.538710  0.156250  0.162090  1.0
  C  C1028  1  0.038710  0.343750  0.837910  1.0
  C  C1029  1  0.538710  0.343750  0.662090  1.0
  C  C1030  1  0.038710  0.156250  0.337910  1.0
  C  C1031  1  0.461290  0.843750  0.837910  1.0
  C  C1032  1  0.961290  0.656250  0.162090  1.0
  C  C1033  1  0.421260  0.670050  0.308320  1.0
  C  C1034  1  0.921260  0.829950  0.691680  1.0
  C  C1035  1  0.578740  0.170050  0.191680  1.0
  C  C1036  1  0.078740  0.329950  0.808320  1.0
  C  C1037  1  0.578740  0.329950  0.691680  1.0
  C  C1038  1  0.078740  0.170050  0.308320  1.0
  C  C1039  1  0.421260  0.829950  0.808320  1.0
  C  C1040  1  0.921260  0.670050  0.191680  1.0
  C  C1041  1  0.363560  0.652290  0.306160  1.0
  C  C1042  1  0.863560  0.847710  0.693840  1.0
  C  C1043  1  0.636440  0.152290  0.193840  1.0
  C  C1044  1  0.136440  0.347710  0.806160  1.0
  C  C1045  1  0.636440  0.347710  0.693840  1.0
  C  C1046  1  0.136440  0.152290  0.306160  1.0
  C  C1047  1  0.363560  0.847710  0.806160  1.0
  C  C1048  1  0.863560  0.652290  0.193840  1.0
  C  C1049  1  0.344030  0.621940  0.333550  1.0
  C  C1050  1  0.844030  0.878060  0.666450  1.0
  C  C1051  1  0.655970  0.121940  0.166450  1.0
  C  C1052  1  0.155970  0.378060  0.833550  1.0
  C  C1053  1  0.655970  0.378060  0.666450  1.0
  C  C1054  1  0.155970  0.121940  0.333550  1.0
  C  C1055  1  0.344030  0.878060  0.833550  1.0
  C  C1056  1  0.844030  0.621940  0.166450  1.0
  C  C1057  1  0.443320  0.705580  0.280530  1.0
  C  C1058  1  0.943320  0.794420  0.719470  1.0
  C  C1059  1  0.556680  0.205580  0.219470  1.0
  C  C1060  1  0.056680  0.294420  0.780530  1.0
  C  C1061  1  0.556680  0.294420  0.719470  1.0
  C  C1062  1  0.056680  0.205580  0.280530  1.0
  C  C1063  1  0.443320  0.794420  0.780530  1.0
  C  C1064  1  0.943320  0.705580  0.219470  1.0
  C  C1065  1  0.456410  0.695340  0.204820  1.0
  C  C1066  1  0.956410  0.804660  0.795180  1.0
  C  C1067  1  0.543590  0.195340  0.295180  1.0
  C  C1068  1  0.043590  0.304660  0.704820  1.0
  C  C1069  1  0.543590  0.304660  0.795180  1.0
  C  C1070  1  0.043590  0.195340  0.204820  1.0
  C  C1071  1  0.456410  0.804660  0.704820  1.0
  C  C1072  1  0.956410  0.695340  0.295180  1.0
  C  C1073  1  0.414550  0.696700  0.172970  1.0
  C  C1074  1  0.914550  0.803300  0.827030  1.0
  C  C1075  1  0.585450  0.196700  0.327030  1.0
  C  C1076  1  0.085450  0.303300  0.672970  1.0
  C  C1077  1  0.585450  0.303300  0.827030  1.0
  C  C1078  1  0.085450  0.196700  0.172970  1.0
  C  C1079  1  0.414550  0.803300  0.672970  1.0
  C  C1080  1  0.914550  0.696700  0.327030  1.0
  C  C1081  1  0.425810  0.692340  0.128410  1.0
  C  C1082  1  0.925810  0.807660  0.871590  1.0
  C  C1083  1  0.574190  0.192340  0.371590  1.0
  C  C1084  1  0.074190  0.307660  0.628410  1.0
  C  C1085  1  0.574190  0.307660  0.871590  1.0
  C  C1086  1  0.074190  0.192340  0.128410  1.0
  C  C1087  1  0.425810  0.807660  0.628410  1.0
  C  C1088  1  0.925810  0.692340  0.371590  1.0
  C  C1089  1  0.452910  0.765000  0.117240  1.0
  C  C1090  1  0.952910  0.735000  0.882760  1.0
  C  C1091  1  0.547090  0.265000  0.382760  1.0
  C  C1092  1  0.047090  0.235000  0.617240  1.0
  C  C1093  1  0.547090  0.235000  0.882760  1.0
  C  C1094  1  0.047090  0.265000  0.117240  1.0
  C  C1095  1  0.452910  0.735000  0.617240  1.0
  C  C1096  1  0.952910  0.765000  0.382760  1.0
  C  C1097  1  0.517280  0.763140  0.099850  1.0
  C  C1098  1  0.017280  0.736860  0.900150  1.0
  C  C1099  1  0.482720  0.263140  0.400150  1.0
  C  C1100  1  0.982720  0.236860  0.599850  1.0
  C  C1101  1  0.482720  0.236860  0.900150  1.0
  C  C1102  1  0.982720  0.263140  0.099850  1.0
  C  C1103  1  0.517280  0.736860  0.599850  1.0
  C  C1104  1  0.017280  0.763140  0.400150  1.0
  C  C1105  1  0.384740  0.269860  0.892670  1.0
  C  C1106  1  0.884740  0.230140  0.107330  1.0
  C  C1107  1  0.615260  0.769860  0.607330  1.0
  C  C1108  1  0.115260  0.730140  0.392670  1.0
  C  C1109  1  0.615260  0.730140  0.107330  1.0
  C  C1110  1  0.115260  0.769860  0.892670  1.0
  C  C1111  1  0.384740  0.230140  0.392670  1.0
  C  C1112  1  0.884740  0.269860  0.607330  1.0
  C  C1113  1  0.353650  0.304850  0.870800  1.0
  C  C1114  1  0.853650  0.195150  0.129200  1.0
  C  C1115  1  0.646350  0.804850  0.629200  1.0
  C  C1116  1  0.146350  0.695150  0.370800  1.0
  C  C1117  1  0.646350  0.695150  0.129200  1.0
  C  C1118  1  0.146350  0.804850  0.870800  1.0
  C  C1119  1  0.353650  0.195150  0.370800  1.0
  C  C1120  1  0.853650  0.304850  0.629200  1.0
  C  C1121  1  0.332790  0.331120  0.805610  1.0
  C  C1122  1  0.832790  0.168880  0.194390  1.0
  C  C1123  1  0.667210  0.831120  0.694390  1.0
  C  C1124  1  0.167210  0.668880  0.305610  1.0
  C  C1125  1  0.667210  0.668880  0.194390  1.0
  C  C1126  1  0.167210  0.831120  0.805610  1.0
  C  C1127  1  0.332790  0.168880  0.305610  1.0
  C  C1128  1  0.832790  0.331120  0.694390  1.0
  C  C1129  1  0.340460  0.320820  0.761900  1.0
  C  C1130  1  0.840460  0.179180  0.238100  1.0
  C  C1131  1  0.659540  0.820820  0.738100  1.0
  C  C1132  1  0.159540  0.679180  0.261900  1.0
  C  C1133  1  0.659540  0.679180  0.238100  1.0
  C  C1134  1  0.159540  0.820820  0.761900  1.0
  C  C1135  1  0.340460  0.179180  0.261900  1.0
  C  C1136  1  0.840460  0.320820  0.738100  1.0
  C  C1137  1  0.297600  0.310040  0.733760  1.0
  C  C1138  1  0.797600  0.189960  0.266240  1.0
  C  C1139  1  0.702400  0.810040  0.766240  1.0
  C  C1140  1  0.202400  0.689960  0.233760  1.0
  C  C1141  1  0.702400  0.689960  0.266240  1.0
  C  C1142  1  0.202400  0.810040  0.733760  1.0
  C  C1143  1  0.297600  0.189960  0.233760  1.0
  C  C1144  1  0.797600  0.310040  0.766240  1.0
  C  C1145  1  0.306360  0.291750  0.659350  1.0
  C  C1146  1  0.806360  0.208250  0.340650  1.0
  C  C1147  1  0.693640  0.791750  0.840650  1.0
  C  C1148  1  0.193640  0.708250  0.159350  1.0
  C  C1149  1  0.693640  0.708250  0.340650  1.0
  C  C1150  1  0.193640  0.791750  0.659350  1.0
  C  C1151  1  0.306360  0.208250  0.159350  1.0
  C  C1152  1  0.806360  0.291750  0.840650  1.0
  C  C1153  1  0.305480  0.326820  0.628770  1.0
  C  C1154  1  0.805480  0.173180  0.371230  1.0
  C  C1155  1  0.694520  0.826820  0.871230  1.0
  C  C1156  1  0.194520  0.673180  0.128770  1.0
  C  C1157  1  0.694520  0.673180  0.371230  1.0
  C  C1158  1  0.194520  0.826820  0.628770  1.0
  C  C1159  1  0.305480  0.173180  0.128770  1.0
  C  C1160  1  0.805480  0.326820  0.871230  1.0
  C  C1161  1  0.359650  0.337900  0.608510  1.0
  C  C1162  1  0.859650  0.162100  0.391490  1.0
  C  C1163  1  0.640350  0.837900  0.891490  1.0
  C  C1164  1  0.140350  0.662100  0.108510  1.0
  C  C1165  1  0.640350  0.662100  0.391490  1.0
  C  C1166  1  0.140350  0.837900  0.608510  1.0
  C  C1167  1  0.359650  0.162100  0.108510  1.0
  C  C1168  1  0.859650  0.337900  0.891490  1.0
  C  C1169  1  0.359060  0.369290  0.578900  1.0
  C  C1170  1  0.859060  0.130710  0.421100  1.0
  C  C1171  1  0.640940  0.869290  0.921100  1.0
  C  C1172  1  0.140940  0.630710  0.078900  1.0
  C  C1173  1  0.640940  0.630710  0.421100  1.0
  C  C1174  1  0.140940  0.869290  0.578900  1.0
  C  C1175  1  0.359060  0.130710  0.078900  1.0
  C  C1176  1  0.859060  0.369290  0.921100  1.0
  C  C1177  1  0.302490  0.389300  0.568930  1.0
  C  C1178  1  0.802490  0.110700  0.431070  1.0
  C  C1179  1  0.697510  0.889300  0.931070  1.0
  C  C1180  1  0.197510  0.610700  0.068930  1.0
  C  C1181  1  0.697510  0.610700  0.431070  1.0
  C  C1182  1  0.197510  0.889300  0.568930  1.0
  C  C1183  1  0.302490  0.110700  0.068930  1.0
  C  C1184  1  0.802490  0.389300  0.931070  1.0
  C  C1185  1  0.248900  0.378520  0.590210  1.0
  C  C1186  1  0.748900  0.121480  0.409790  1.0
  C  C1187  1  0.751100  0.878520  0.909790  1.0
  C  C1188  1  0.251100  0.621480  0.090210  1.0
  C  C1189  1  0.751100  0.621480  0.409790  1.0
  C  C1190  1  0.251100  0.878520  0.590210  1.0
  C  C1191  1  0.248900  0.121480  0.090210  1.0
  C  C1192  1  0.748900  0.378520  0.909790  1.0
  C  C1193  1  0.250690  0.347640  0.619790  1.0
  C  C1194  1  0.750690  0.152360  0.380210  1.0
  C  C1195  1  0.749310  0.847640  0.880210  1.0
  C  C1196  1  0.249310  0.652360  0.119790  1.0
  C  C1197  1  0.749310  0.652360  0.380210  1.0
  C  C1198  1  0.249310  0.847640  0.619790  1.0
  C  C1199  1  0.250690  0.152360  0.119790  1.0
  C  C1200  1  0.750690  0.347640  0.880210  1.0
  C  C1201  1  0.484100  0.509500  0.454600  1.0
  C  C1202  1  0.984100  0.990500  0.545400  1.0
  C  C1203  1  0.515900  0.009500  0.045400  1.0
  C  C1204  1  0.015900  0.490500  0.954600  1.0
  C  C1205  1  0.515900  0.490500  0.545400  1.0
  C  C1206  1  0.015900  0.009500  0.454600  1.0
  C  C1207  1  0.484100  0.990500  0.954600  1.0
  C  C1208  1  0.984100  0.509500  0.045400  1.0
  C  C1209  1  0.553900  0.509000  0.469000  1.0
  C  C1210  1  0.053900  0.991000  0.531000  1.0
  C  C1211  1  0.446100  0.009000  0.031000  1.0
  C  C1212  1  0.946100  0.491000  0.969000  1.0
  C  C1213  1  0.446100  0.491000  0.531000  1.0
  C  C1214  1  0.946100  0.009000  0.469000  1.0
  C  C1215  1  0.553900  0.991000  0.969000  1.0
  C  C1216  1  0.053900  0.509000  0.031000  1.0
  C  C1217  1  0.462400  0.458200  0.502200  1.0
  C  C1218  1  0.962400  0.041800  0.497800  1.0
  C  C1219  1  0.537600  0.958200  0.997800  1.0
  C  C1220  1  0.037600  0.541800  0.002200  1.0
  C  C1221  1  0.537600  0.541800  0.497800  1.0
  C  C1222  1  0.037600  0.958200  0.502200  1.0
  C  C1223  1  0.462400  0.041800  0.002200  1.0
  C  C1224  1  0.962400  0.458200  0.997800  1.0
  C  C1225  1  0.532500  0.458900  0.517100  1.0
  C  C1226  1  0.032500  0.041100  0.482900  1.0
  C  C1227  1  0.467500  0.958900  0.982900  1.0
  C  C1228  1  0.967500  0.541100  0.017100  1.0
  C  C1229  1  0.467500  0.541100  0.482900  1.0
  C  C1230  1  0.967500  0.958900  0.517100  1.0
  C  C1231  1  0.532500  0.041100  0.017100  1.0
  C  C1232  1  0.032500  0.458900  0.982900  1.0
  C  C1233  1  0.451700  0.530500  0.518800  1.0
  C  C1234  1  0.951700  0.969500  0.481200  1.0
  C  C1235  1  0.548300  0.030500  0.981200  1.0
  C  C1236  1  0.048300  0.469500  0.018800  1.0
  C  C1237  1  0.548300  0.469500  0.481200  1.0
  C  C1238  1  0.048300  0.030500  0.518800  1.0
  C  C1239  1  0.451700  0.969500  0.018800  1.0
  C  C1240  1  0.951700  0.530500  0.981200  1.0
  C  C1241  1  0.521800  0.531600  0.533200  1.0
  C  C1242  1  0.021800  0.968400  0.466800  1.0
  C  C1243  1  0.478200  0.031600  0.966800  1.0
  C  C1244  1  0.978200  0.468400  0.033200  1.0
  C  C1245  1  0.478200  0.468400  0.466800  1.0
  C  C1246  1  0.978200  0.031600  0.533200  1.0
  C  C1247  1  0.521800  0.968400  0.033200  1.0
  C  C1248  1  0.021800  0.531600  0.966800  1.0
  N  N1249  1  0.331710  0.434350  0.464230  1.0
  N  N1250  1  0.831710  0.065650  0.535770  1.0
  N  N1251  1  0.668290  0.934350  0.035770  1.0
  N  N1252  1  0.168290  0.565650  0.964230  1.0
  N  N1253  1  0.668290  0.565650  0.535770  1.0
  N  N1254  1  0.168290  0.934350  0.464230  1.0
  N  N1255  1  0.331710  0.065650  0.964230  1.0
  N  N1256  1  0.831710  0.434350  0.035770  1.0
  N  N1257  1  0.301940  0.498300  0.523920  1.0
  N  N1258  1  0.801940  0.001700  0.476080  1.0
  N  N1259  1  0.698060  0.998300  0.976080  1.0
  N  N1260  1  0.198060  0.501700  0.023920  1.0
  N  N1261  1  0.698060  0.501700  0.476080  1.0
  N  N1262  1  0.198060  0.998300  0.523920  1.0
  N  N1263  1  0.301940  0.001700  0.023920  1.0
  N  N1264  1  0.801940  0.498300  0.976080  1.0
  N  N1265  1  0.328640  0.562780  0.464350  1.0
  N  N1266  1  0.828640  0.937220  0.535650  1.0
  N  N1267  1  0.671360  0.062780  0.035650  1.0
  N  N1268  1  0.171360  0.437220  0.964350  1.0
  N  N1269  1  0.671360  0.437220  0.535650  1.0
  N  N1270  1  0.171360  0.062780  0.464350  1.0
  N  N1271  1  0.328640  0.937220  0.964350  1.0
  N  N1272  1  0.828640  0.562780  0.035650  1.0
  N  N1273  1  0.359150  0.498570  0.404820  1.0
  N  N1274  1  0.859150  0.001430  0.595180  1.0
  N  N1275  1  0.640850  0.998570  0.095180  1.0
  N  N1276  1  0.140850  0.501430  0.904820  1.0
  N  N1277  1  0.640850  0.501430  0.595180  1.0
  N  N1278  1  0.140850  0.998570  0.404820  1.0
  N  N1279  1  0.359150  0.001430  0.904820  1.0
  N  N1280  1  0.859150  0.498570  0.095180  1.0
  N  N1281  1  0.578180  0.704860  0.758640  1.0
  N  N1282  1  0.078180  0.795140  0.241360  1.0
  N  N1283  1  0.421820  0.204860  0.741360  1.0
  N  N1284  1  0.921820  0.295140  0.258640  1.0
  N  N1285  1  0.421820  0.295140  0.241360  1.0
  N  N1286  1  0.921820  0.204860  0.758640  1.0
  N  N1287  1  0.578180  0.795140  0.258640  1.0
  N  N1288  1  0.078180  0.704860  0.741360  1.0
  N  N1289  1  0.637310  0.708280  0.770990  1.0
  N  N1290  1  0.137310  0.791720  0.229010  1.0
  N  N1291  1  0.362690  0.208280  0.729010  1.0
  N  N1292  1  0.862690  0.291720  0.270990  1.0
  N  N1293  1  0.362690  0.291720  0.229010  1.0
  N  N1294  1  0.862690  0.208280  0.770990  1.0
  N  N1295  1  0.637310  0.791720  0.270990  1.0
  N  N1296  1  0.137310  0.708280  0.729010  1.0
  N  N1297  1  0.638720  0.698270  0.809920  1.0
  N  N1298  1  0.138720  0.801730  0.190080  1.0
  N  N1299  1  0.361280  0.198270  0.690080  1.0
  N  N1300  1  0.861280  0.301730  0.309920  1.0
  N  N1301  1  0.361280  0.301730  0.190080  1.0
  N  N1302  1  0.861280  0.198270  0.809920  1.0
  N  N1303  1  0.638720  0.801730  0.309920  1.0
  N  N1304  1  0.138720  0.698270  0.690080  1.0
  N  N1305  1  0.396490  0.685180  0.747700  1.0
  N  N1306  1  0.896490  0.814820  0.252300  1.0
  N  N1307  1  0.603510  0.185180  0.752300  1.0
  N  N1308  1  0.103510  0.314820  0.247700  1.0
  N  N1309  1  0.603510  0.314820  0.252300  1.0
  N  N1310  1  0.103510  0.185180  0.747700  1.0
  N  N1311  1  0.396490  0.814820  0.247700  1.0
  N  N1312  1  0.896490  0.685180  0.752300  1.0
  N  N1313  1  0.387410  0.692480  0.708840  1.0
  N  N1314  1  0.887410  0.807520  0.291160  1.0
  N  N1315  1  0.612590  0.192480  0.791160  1.0
  N  N1316  1  0.112590  0.307520  0.208840  1.0
  N  N1317  1  0.612590  0.307520  0.291160  1.0
  N  N1318  1  0.112590  0.192480  0.708840  1.0
  N  N1319  1  0.387410  0.807520  0.208840  1.0
  N  N1320  1  0.887410  0.692480  0.791160  1.0
  N  N1321  1  0.324770  0.692460  0.702730  1.0
  N  N1322  1  0.824770  0.807540  0.297270  1.0
  N  N1323  1  0.675230  0.192460  0.797270  1.0
  N  N1324  1  0.175230  0.307540  0.202730  1.0
  N  N1325  1  0.675230  0.307540  0.297270  1.0
  N  N1326  1  0.175230  0.192460  0.702730  1.0
  N  N1327  1  0.324770  0.807540  0.202730  1.0
  N  N1328  1  0.824770  0.692460  0.797270  1.0
  N  N1329  1  0.422110  0.701930  0.238360  1.0
  N  N1330  1  0.922110  0.798070  0.761640  1.0
  N  N1331  1  0.577890  0.201930  0.261640  1.0
  N  N1332  1  0.077890  0.298070  0.738360  1.0
  N  N1333  1  0.577890  0.298070  0.761640  1.0
  N  N1334  1  0.077890  0.201930  0.238360  1.0
  N  N1335  1  0.422110  0.798070  0.738360  1.0
  N  N1336  1  0.922110  0.701930  0.261640  1.0
  N  N1337  1  0.361000  0.707340  0.228290  1.0
  N  N1338  1  0.861000  0.792660  0.771710  1.0
  N  N1339  1  0.639000  0.207340  0.271710  1.0
  N  N1340  1  0.139000  0.292660  0.728290  1.0
  N  N1341  1  0.639000  0.292660  0.771710  1.0
  N  N1342  1  0.139000  0.207340  0.228290  1.0
  N  N1343  1  0.361000  0.792660  0.728290  1.0
  N  N1344  1  0.861000  0.707340  0.271710  1.0
  N  N1345  1  0.356970  0.703900  0.188640  1.0
  N  N1346  1  0.856970  0.796100  0.811360  1.0
  N  N1347  1  0.643030  0.203900  0.311360  1.0
  N  N1348  1  0.143030  0.296100  0.688640  1.0
  N  N1349  1  0.643030  0.296100  0.811360  1.0
  N  N1350  1  0.143030  0.203900  0.188640  1.0
  N  N1351  1  0.356970  0.796100  0.688640  1.0
  N  N1352  1  0.856970  0.703900  0.311360  1.0
  N  N1353  1  0.397620  0.320610  0.743770  1.0
  N  N1354  1  0.897620  0.179390  0.256230  1.0
  N  N1355  1  0.602380  0.820610  0.756230  1.0
  N  N1356  1  0.102380  0.679390  0.243770  1.0
  N  N1357  1  0.602380  0.679390  0.256230  1.0
  N  N1358  1  0.102380  0.820610  0.743770  1.0
  N  N1359  1  0.397620  0.179390  0.243770  1.0
  N  N1360  1  0.897620  0.320610  0.756230  1.0
  N  N1361  1  0.391250  0.309460  0.705320  1.0
  N  N1362  1  0.891250  0.190540  0.294680  1.0
  N  N1363  1  0.608750  0.809460  0.794680  1.0
  N  N1364  1  0.108750  0.690540  0.205320  1.0
  N  N1365  1  0.608750  0.690540  0.294680  1.0
  N  N1366  1  0.108750  0.809460  0.705320  1.0
  N  N1367  1  0.391250  0.190540  0.205320  1.0
  N  N1368  1  0.891250  0.309460  0.794680  1.0
  N  N1369  1  0.329710  0.303960  0.699320  1.0
  N  N1370  1  0.829710  0.196040  0.300680  1.0
  N  N1371  1  0.670290  0.803960  0.800680  1.0
  N  N1372  1  0.170290  0.696040  0.199320  1.0
  N  N1373  1  0.670290  0.696040  0.300680  1.0
  N  N1374  1  0.170290  0.803960  0.699320  1.0
  N  N1375  1  0.329710  0.196040  0.199320  1.0
  N  N1376  1  0.829710  0.303960  0.800680  1.0
  N  N1377  1  0.442370  0.499070  0.488010  1.0
  N  N1378  1  0.942370  0.000930  0.511990  1.0
  N  N1379  1  0.557630  0.999070  0.011990  1.0
  N  N1380  1  0.057630  0.500930  0.988010  1.0
  N  N1381  1  0.557630  0.500930  0.511990  1.0
  N  N1382  1  0.057630  0.999070  0.488010  1.0
  N  N1383  1  0.442370  0.000930  0.988010  1.0
  N  N1384  1  0.942370  0.499070  0.011990  1.0
  O  O1385  1  0.497520  0.372210  0.532920  1
  O  O1386  1  0.997520  0.127790  0.467080  1
  O  O1387  1  0.502480  0.872210  0.967080  1
  O  O1388  1  0.002480  0.627790  0.032920  1
  O  O1389  1  0.502480  0.627790  0.467080  1
  O  O1390  1  0.002480  0.872210  0.532920  1
  O  O1391  1  0.497520  0.127790  0.032920  1
  O  O1392  1  0.997520  0.372210  0.967080  1
  O  O1393  1  0.505830  0.689350  0.877930  1.0
  O  O1394  1  0.005830  0.810650  0.122070  1.0
  O  O1395  1  0.494170  0.189350  0.622070  1.0
  O  O1396  1  0.994170  0.310650  0.377930  1.0
  O  O1397  1  0.494170  0.310650  0.122070  1.0
  O  O1398  1  0.994170  0.189350  0.877930  1.0
  O  O1399  1  0.505830  0.810650  0.377930  1.0
  O  O1400  1  0.005830  0.689350  0.622070  1.0
  O  O1401  1  0.400430  0.739440  0.861530  1.0
  O  O1402  1  0.900430  0.760560  0.138470  1.0
  O  O1403  1  0.599570  0.239440  0.638470  1.0
  O  O1404  1  0.099570  0.260560  0.361530  1.0
  O  O1405  1  0.599570  0.260560  0.138470  1.0
  O  O1406  1  0.099570  0.239440  0.861530  1.0
  O  O1407  1  0.400430  0.760560  0.361530  1.0
  O  O1408  1  0.900430  0.739440  0.638470  1.0
  O  O1409  1  0.287790  0.694100  0.831180  1.0
  O  O1410  1  0.787790  0.805900  0.168820  1.0
  O  O1411  1  0.712210  0.194100  0.668820  1.0
  O  O1412  1  0.212210  0.305900  0.331180  1.0
  O  O1413  1  0.712210  0.305900  0.168820  1.0
  O  O1414  1  0.212210  0.194100  0.831180  1.0
  O  O1415  1  0.287790  0.805900  0.331180  1.0
  O  O1416  1  0.787790  0.694100  0.668820  1.0
  O  O1417  1  0.412400  0.730810  0.106630  1.0
  O  O1418  1  0.912400  0.769190  0.893370  1.0
  O  O1419  1  0.587600  0.230810  0.393370  1.0
  O  O1420  1  0.087600  0.269190  0.606630  1.0
  O  O1421  1  0.587600  0.269190  0.893370  1.0
  O  O1422  1  0.087600  0.230810  0.106630  1.0
  O  O1423  1  0.412400  0.769190  0.606630  1.0
  O  O1424  1  0.912400  0.730810  0.393370  1.0
  O  O1425  1  0.447530  0.266910  0.878700  1.0
  O  O1426  1  0.947530  0.233090  0.121300  1.0
  O  O1427  1  0.552470  0.766910  0.621300  1.0
  O  O1428  1  0.052470  0.733090  0.378700  1.0
  O  O1429  1  0.552470  0.733090  0.121300  1.0
  O  O1430  1  0.052470  0.766910  0.878700  1.0
  O  O1431  1  0.447530  0.233090  0.378700  1.0
  O  O1432  1  0.947530  0.266910  0.621300  1.0
  O  O1433  1  0.351180  0.295900  0.829120  1.0
  O  O1434  1  0.851180  0.204100  0.170880  1.0
  O  O1435  1  0.648820  0.795900  0.670880  1.0
  O  O1436  1  0.148820  0.704100  0.329120  1.0
  O  O1437  1  0.648820  0.704100  0.170880  1.0
  O  O1438  1  0.148820  0.795900  0.829120  1.0
  O  O1439  1  0.351180  0.204100  0.329120  1.0
  O  O1440  1  0.851180  0.295900  0.670880  1.0
