
#######################################################################
#
#                 Cambridge Crystallographic Data Centre
#                                CCDC 
#
#######################################################################
#
# If this CIF has been generated from an entry in the Cambridge 
# Structural Database, then it will include bibliographic, chemical, 
# crystal, experimental, refinement or atomic coordinate data resulting 
# from the CCDC's data processing and validation procedures.
#
#######################################################################

data_BAXMOE
_chemical_formula_moiety         
'C120 H86 Fe2 N6 P4 Pd2 2+,2(C1 F3 O3 S1 1-),C1 H3 N1 O2,C4 H10 O1'
_chemical_name_systematic        
"bis(\m~2~-3,6-bis(pyridin-4-ylethynyl)-9H-carbazole)-bis(1,1'-bis(diphenylphosphino)ferrocene)-di-palladium bis(trifluoromethanesulfonate) diethyl ether nitromethane solvate"
_symmetry_cell_setting           triclinic
_symmetry_space_group_name_H-M   'P -1'
_symmetry_Int_Tables_number      2
_space_group_name_Hall           '-P 1'
loop_
_symmetry_equiv_pos_site_id
_symmetry_equiv_pos_as_xyz
1 x,y,z
2 -x,-y,-z
_cell_length_a                   16.949(3)
_cell_length_b                   17.562(4)
_cell_length_c                   24.895(5)
_cell_angle_alpha                86.38(3)
_cell_angle_beta                 85.86(3)
_cell_angle_gamma                68.50(3)
_cell_volume                     6871.22
_exptl_crystal_colour            'dark brown'
_exptl_crystal_description       block
_cell_formula_units_Z            2
loop_
_atom_site_label
_atom_site_type_symbol
_atom_site_fract_x
_atom_site_fract_y
_atom_site_fract_z
Pd1 Pd 0.51730(4) 0.51083(4) 0.22628(3)
Pd2 Pd -0.63470(4) 1.05267(4) 0.25986(3)
Fe1 Fe -0.84165(10) 1.28312(10) 0.26796(6)
Fe2 Fe 0.69596(9) 0.62947(8) 0.21450(5)
P1 P 0.60256(16) 0.52287(16) 0.15235(10)
P2 P -0.69982(16) 1.14270(16) 0.19158(10)
P3 P -0.73034(18) 1.10730(17) 0.33071(11)
P4 P 0.59497(18) 0.52910(17) 0.29248(10)
N1 N -0.5454(5) 0.9861(5) 0.2008(3)
N2 N -0.0898(5) 0.5798(5) -0.0840(3)
H1 H -0.0961 0.5539 -0.1116
N3 N 0.4301(5) 0.5058(6) 0.1714(3)
N4 N -0.5609(6) 0.9671(6) 0.3137(3)
N5 N -0.1157(5) 0.4075(5) 0.5019(3)
H2 H -0.1219 0.3698 0.5250
N6 N 0.4306(5) 0.4929(5) 0.2848(3)
C1 C -0.4727(7) 0.9994(6) 0.1896(4)
H3 H -0.4642 1.0415 0.2078
C2 C -0.5579(6) 0.9283(6) 0.1754(4)
H4 H -0.6084 0.9173 0.1835
C3 C -0.4086(6) 0.9546(6) 0.1527(4)
H5 H -0.3562 0.9628 0.1476
C4 C -0.4998(7) 0.8840(6) 0.1374(4)
H6 H -0.5106 0.8426 0.1198
C5 C -0.4256(6) 0.8982(6) 0.1242(4)
C6 C -0.3643(6) 0.8499(6) 0.0851(4)
C7 C -0.3150(6) 0.8063(6) 0.0531(4)
C8 C -0.2587(6) 0.7513(6) 0.0164(4)
C9 C -0.2911(6) 0.7205(6) -0.0246(4)
H7 H -0.3508 0.7385 -0.0272
C10 C -0.1734(7) 0.7269(5) 0.0188(3)
H8 H -0.1507 0.7496 0.0447
C11 C -0.2380(6) 0.6641(6) -0.0618(4)
H9 H -0.2604 0.6445 -0.0895
C12 C -0.1163(6) 0.6677(6) -0.0168(4)
C13 C -0.1539(7) 0.6398(6) -0.0559(4)
C14 C -0.0281(6) 0.6226(6) -0.0202(4)
C15 C -0.0142(6) 0.5680(6) -0.0607(4)
C16 C 0.0365(7) 0.6175(5) 0.0113(4)
H10 H 0.0271 0.6535 0.0400
C17 C 0.0635(7) 0.5067(8) -0.0724(4)
H11 H 0.0702 0.4692 -0.0998
C18 C 0.1170(7) 0.5580(7) 0.0004(4)
C19 C 0.1294(7) 0.5028(6) -0.0431(4)
H12 H 0.1843 0.4634 -0.0510
C20 C 0.1828(8) 0.5457(6) 0.0347(5)
C21 C 0.2406(7) 0.5318(6) 0.0649(4)
C22 C 0.3048(7) 0.5223(7) 0.1026(4)
C23 C 0.3028(7) 0.5876(6) 0.1302(4)
H13 H 0.2577 0.6390 0.1265
C24 C 0.3714(7) 0.4463(7) 0.1107(4)
H14 H 0.3753 0.3996 0.0918
C25 C 0.3674(8) 0.5775(7) 0.1635(4)
H15 H 0.3674 0.6235 0.1816
C26 C 0.4292(7) 0.4424(7) 0.1463(4)
H16 H 0.4720 0.3906 0.1538
C27 C -0.5772(7) 0.9002(8) 0.3319(4)
H17 H -0.6295 0.8968 0.3232
C28 C -0.4842(8) 0.9684(7) 0.3251(4)
H18 H -0.4710 1.0154 0.3143
C29 C -0.5261(9) 0.8393(8) 0.3610(5)
H19 H -0.5442 0.7964 0.3750
C30 C -0.4264(8) 0.9056(8) 0.3512(5)
H20 H -0.3720 0.9075 0.3560
C31 C -0.4450(7) 0.8371(7) 0.3715(4)
C32 C -0.3833(7) 0.7645(8) 0.3994(4)
C33 C -0.3385(8) 0.7028(8) 0.4156(4)
C34 C -0.2844(6) 0.6270(7) 0.4383(4)
C35 C -0.3198(6) 0.5796(8) 0.4741(4)
H21 H -0.3790 0.6002 0.4831
C36 C -0.1960(6) 0.5994(6) 0.4261(4)
H22 H -0.1717 0.6323 0.4042
C37 C -0.2693(7) 0.5041(8) 0.4959(4)
H23 H -0.2930 0.4719 0.5188
C38 C -0.1448(6) 0.5228(6) 0.4470(4)
C39 C -0.1818(7) 0.4776(7) 0.4827(4)
C40 C -0.0554(6) 0.4794(6) 0.4444(4)
C41 C -0.0427(7) 0.4081(6) 0.4789(4)
C42 C 0.0383(8) 0.3510(6) 0.4865(4)
H24 H 0.0474 0.3032 0.5090
C43 C 0.0130(7) 0.4952(6) 0.4192(3)
H25 H 0.0049 0.5434 0.3973
C44 C 0.1058(7) 0.3675(7) 0.4593(4)
H26 H 0.1616 0.3286 0.4633
C45 C 0.0962(6) 0.4362(7) 0.4274(4)
C46 C 0.1664(7) 0.4479(6) 0.4007(4)
C47 C 0.2292(7) 0.4552(6) 0.3778(4)
C48 C 0.2993(6) 0.4683(8) 0.3481(4)
C49 C 0.2955(6) 0.5441(8) 0.3321(4)
H27 H 0.2474 0.5899 0.3432
C50 C 0.3726(6) 0.4034(6) 0.3347(4)
H28 H 0.3805 0.3495 0.3484
C51 C 0.3598(7) 0.5574(6) 0.2998(4)
H29 H 0.3545 0.6116 0.2881
C52 C 0.4349(6) 0.4182(7) 0.3007(4)
H30 H 0.4824 0.3728 0.2885
C53 C 0.6899(7) 0.5581(6) 0.1572(4)
C54 C 0.6926(7) 0.6368(5) 0.1338(3)
H31 H 0.6494 0.6785 0.1114
C55 C 0.7701(7) 0.6395(8) 0.1491(4)
H32 H 0.7896 0.6865 0.1407
C56 C 0.8134(7) 0.5700(7) 0.1788(5)
H33 H 0.8686 0.5589 0.1955
C57 C 0.7658(7) 0.5179(7) 0.1840(4)
H34 H 0.7820 0.4637 0.2041
C58 C 0.6304(9) 0.7387(7) 0.2500(4)
H35 H 0.6152 0.7940 0.2315
C59 C 0.7066(8) 0.6966(8) 0.2772(4)
H36 H 0.7536 0.7173 0.2808
C60 C 0.7064(7) 0.6188(6) 0.2959(4)
H37 H 0.7522 0.5757 0.3159
C61 C 0.6294(6) 0.6127(6) 0.2805(4)
C62 C 0.5806(7) 0.6873(7) 0.2512(4)
H38 H 0.5239 0.7008 0.2360
C63 C -0.8276(7) 1.1882(7) 0.3228(5)
C64 C -0.8538(8) 1.2643(7) 0.3502(4)
H39 H -0.8245 1.2793 0.3790
C65 C -0.8910(7) 1.1942(7) 0.2838(4)
H40 H -0.8875 1.1507 0.2587
C66 C -0.9579(8) 1.2711(9) 0.2878(5)
H41 H -1.0095 1.2922 0.2661
C67 C -0.9342(8) 1.3146(9) 0.3258(5)
H42 H -0.9683 1.3725 0.3351
C68 C -0.7523(6) 1.2467(6) 0.2080(4)
C69 C -0.8303(8) 1.3022(7) 0.1869(4)
H43 H -0.8640 1.2919 0.1587
C70 C -0.8475(9) 1.3797(8) 0.2148(5)
H44 H -0.8988 1.4306 0.2102
C71 C -0.7853(8) 1.3692(9) 0.2507(5)
H45 H -0.7815 1.4105 0.2753
C72 C -0.7289(7) 1.2868(6) 0.2456(4)
H46 H -0.6776 1.2609 0.2672
C73 C 0.6514(6) 0.4248(6) 0.1205(4)
C74 C 0.6388(6) 0.3542(7) 0.1447(4)
H47 H 0.6044 0.3579 0.1771
C75 C 0.7042(6) 0.4187(6) 0.0762(4)
H48 H 0.7165 0.4648 0.0620
C76 C 0.6779(6) 0.2801(6) 0.1201(4)
H49 H 0.6689 0.2329 0.1357
C77 C 0.7409(7) 0.3420(8) 0.0512(5)
H50 H 0.7742 0.3379 0.0184
C78 C 0.7284(6) 0.2725(7) 0.0746(4)
H51 H 0.7549 0.2208 0.0587
C79 C 0.5317(7) 0.5511(8) 0.3544(4)
C80 C 0.5277(8) 0.4887(9) 0.3914(5)
H52 H 0.5630 0.4333 0.3858
C81 C 0.4802(9) 0.6303(10) 0.3644(5)
H53 H 0.4813 0.6732 0.3395
C82 C 0.4705(9) 0.5090(11) 0.4373(5)
H54 H 0.4681 0.4670 0.4627
C83 C 0.4251(9) 0.6490(10) 0.4117(6)
H55 H 0.3934 0.7048 0.4190
C84 C 0.4166(12) 0.5917(13) 0.4456(5)
H56 H 0.3754 0.6052 0.4749
C85 C -0.6210(6) 1.1464(6) 0.1385(4)
C86 C -0.5733(6) 1.1973(6) 0.1443(4)
H57 H -0.5835 1.2304 0.1747
C87 C -0.6059(6) 1.0965(6) 0.0932(4)
H58 H -0.6394 1.0644 0.0889
C88 C -0.5124(7) 1.1972(8) 0.1050(6)
H59 H -0.4811 1.2320 0.1068
C89 C -0.5414(8) 1.0958(7) 0.0557(4)
H60 H -0.5295 1.0610 0.0261
C90 C -0.4961(8) 1.1417(9) 0.0597(5)
H61 H -0.4522 1.1393 0.0331
C91 C -0.7717(6) 1.1099(8) 0.1599(5)
C92 C -0.7940(7) 1.0446(7) 0.1815(4)
H62 H -0.7709 1.0165 0.2140
C93 C -0.8100(7) 1.1521(7) 0.1128(5)
H63 H -0.7975 1.1977 0.0977
C94 C -0.8527(9) 1.0205(8) 0.1536(6)
H64 H -0.8652 0.9742 0.1673
C95 C -0.8659(8) 1.1257(8) 0.0894(4)
H65 H -0.8903 1.1533 0.0571
C96 C -0.8891(8) 1.0600(9) 0.1105(6)
H66 H -0.9298 1.0451 0.0939
C97 C -0.6837(7) 1.1438(6) 0.3807(4)
C98 C -0.6124(8) 1.1599(6) 0.3665(4)
H67 H -0.5884 1.1500 0.3307
C99 C -0.7217(7) 1.1585(6) 0.4332(4)
H68 H -0.7717 1.1477 0.4437
C100 C -0.5712(7) 1.1922(6) 0.4044(5)
H69 H -0.5211 1.2033 0.3949
C101 C -0.6824(9) 1.1898(7) 0.4696(5)
H70 H -0.7064 1.2005 0.5052
C102 C -0.6110(9) 1.2048(7) 0.4547(5)
H71 H -0.5868 1.2256 0.4809
C103 C 0.5345(6) 0.5925(6) 0.1023(4)
C104 C 0.4845(7) 0.6710(7) 0.1163(5)
H72 H 0.4875 0.6884 0.1513
C105 C 0.5288(8) 0.5711(7) 0.0525(5)
H73 H 0.5634 0.5178 0.0416
C106 C 0.4322(8) 0.7227(8) 0.0820(6)
H74 H 0.4001 0.7770 0.0925
C107 C 0.4730(8) 0.6251(8) 0.0158(5)
H75 H 0.4705 0.6090 -0.0196
C108 C 0.4234(8) 0.6999(8) 0.0320(6)
H76 H 0.3826 0.7364 0.0090
C109 C 0.6883(7) 0.4394(7) 0.3101(5)
C110 C 0.7336(10) 0.4383(10) 0.3554(5)
H77 H 0.7162 0.4836 0.3782
C111 C 0.7118(7) 0.3726(7) 0.2765(5)
H78 H 0.6810 0.3723 0.2462
C112 C 0.8075(9) 0.3659(10) 0.3663(6)
H79 H 0.8381 0.3639 0.3972
C113 C 0.7858(9) 0.3051(8) 0.2915(6)
H80 H 0.8029 0.2585 0.2700
C114 C 0.8346(9) 0.3011(9) 0.3341(6)
H81 H 0.8849 0.2551 0.3405
C115 C -0.7611(7) 1.0316(5) 0.3630(4)
C116 C -0.8278(7) 1.0089(7) 0.3384(4)
H82 H -0.8513 1.0354 0.3057
C117 C -0.7208(7) 0.9893(7) 0.4145(5)
H83 H -0.6782 1.0037 0.4292
C118 C -0.7502(9) 0.9224(8) 0.4429(5)
H84 H -0.7270 0.8968 0.4759
C119 C -0.8161(10) 0.8977(9) 0.4180(6)
H85 H -0.8317 0.8545 0.4344
C120 C -0.8578(8) 0.9425(8) 0.3663(5)
H86 H -0.9015 0.9294 0.3518
S1 S -0.30873(18) 1.2073(2) -0.25509(15)
F1 F -0.1449(4) 1.1575(5) -0.2449(3)
F2 F -0.2220(8) 1.2049(8) -0.1724(4)
F3 F -0.2108(4) 1.2862(5) -0.2401(5)
O1 O -0.3036(4) 1.1275(4) -0.2454(3)
O2 O -0.3769(4) 1.2717(4) -0.2319(3)
O3 O -0.2945(6) 1.2247(6) -0.3158(3)
C121 C -0.2165(7) 1.2128(7) -0.2283(8)
S2 S -1.5618(2) 1.8020(2) -0.26071(14)
F4 F -1.6658(5) 1.9024(5) -0.1942(3)
F5 F -1.7224(5) 1.8402(6) -0.2446(4)
F6 F -1.6832(5) 1.9381(6) -0.2787(5)
O4 O -1.5083(4) 1.8478(4) -0.2612(3)
O5 O -1.5499(5) 1.7374(4) -0.2214(3)
O6 O -1.5733(7) 1.7770(6) -0.3163(3)
C122 C -1.6618(8) 1.8750(9) -0.2425(7)
O7 O 0.2739(12) 0.8881(12) 0.0135(9)
O8 O 0.3325(10) 0.9529(10) 0.0335(6)
N7 N 0.2902(9) 0.9519(12) 0.0025(9)
C123 C 0.2283(13) 1.0176(13) -0.0295(8)
H87 H 0.2418 1.0674 -0.0299
H88 H 0.1710 1.0288 -0.0133
H89 H 0.2313 1.0002 -0.0664
O9 O -1.0439(11) 1.1826(11) 0.2029(8)
C124 C -1.082(2) 1.2404(17) 0.1572(10)
H90 H -1.1442 1.2539 0.1586
H91 H -1.0577 1.2148 0.1225
C125 C -1.0628(15) 1.3198(13) 0.1614(9)
H92 H -1.0766 1.3529 0.1278
H93 H -1.0025 1.3052 0.1675
H94 H -1.0973 1.3512 0.1915
C126 C -1.072(2) 1.1104(15) 0.2074(11)
H95 H -1.0435 1.0728 0.1780
H96 H -1.1338 1.1290 0.2044
C127 C -1.0467(19) 1.0649(15) 0.2635(10)
H97 H -1.0494 1.0101 0.2631
H98 H -1.0862 1.0961 0.2919
H99 H -0.9888 1.0600 0.2704
loop_
_geom_bond_atom_site_label_1
_geom_bond_atom_site_label_2
_geom_bond_site_symmetry_1
_geom_bond_site_symmetry_2
Pd1 P1 1_555 1_555
Pd2 P2 1_555 1_555
Fe1 C63 1_555 1_555
Fe2 C53 1_555 1_555
P1 C53 1_555 1_555
P2 C68 1_555 1_555
P3 Pd2 1_555 1_555
P4 Pd1 1_555 1_555
N1 Pd2 1_555 1_555
N2 H1 1_555 1_555
N3 Pd1 1_555 1_555
N4 Pd2 1_555 1_555
N5 H2 1_555 1_555
N6 Pd1 1_555 1_555
C1 N1 1_555 1_555
H3 C1 1_555 1_555
C2 N1 1_555 1_555
H4 C2 1_555 1_555
C3 C1 1_555 1_555
H5 C3 1_555 1_555
C4 C2 1_555 1_555
H6 C4 1_555 1_555
C5 C3 1_555 1_555
C6 C5 1_555 1_555
C7 C6 1_555 1_555
C8 C7 1_555 1_555
C9 C8 1_555 1_555
H7 C9 1_555 1_555
C10 C8 1_555 1_555
H8 C10 1_555 1_555
C11 C9 1_555 1_555
H9 C11 1_555 1_555
C12 C10 1_555 1_555
C13 N2 1_555 1_555
C14 C12 1_555 1_555
C15 N2 1_555 1_555
C16 C14 1_555 1_555
H10 C16 1_555 1_555
C17 C15 1_555 1_555
H11 C17 1_555 1_555
C18 C16 1_555 1_555
C19 C17 1_555 1_555
H12 C19 1_555 1_555
C20 C18 1_555 1_555
C21 C20 1_555 1_555
C22 C21 1_555 1_555
C23 C22 1_555 1_555
H13 C23 1_555 1_555
C24 C22 1_555 1_555
H14 C24 1_555 1_555
C25 N3 1_555 1_555
H15 C25 1_555 1_555
C26 N3 1_555 1_555
H16 C26 1_555 1_555
C27 N4 1_555 1_555
H17 C27 1_555 1_555
C28 N4 1_555 1_555
H18 C28 1_555 1_555
C29 C27 1_555 1_555
H19 C29 1_555 1_555
C30 C28 1_555 1_555
H20 C30 1_555 1_555
C31 C29 1_555 1_555
C32 C31 1_555 1_555
C33 C32 1_555 1_555
C34 C33 1_555 1_555
C35 C34 1_555 1_555
H21 C35 1_555 1_555
C36 C34 1_555 1_555
H22 C36 1_555 1_555
C37 C35 1_555 1_555
H23 C37 1_555 1_555
C38 C36 1_555 1_555
C39 N5 1_555 1_555
C40 C38 1_555 1_555
C41 N5 1_555 1_555
C42 C41 1_555 1_555
H24 C42 1_555 1_555
C43 C40 1_555 1_555
H25 C43 1_555 1_555
C44 C42 1_555 1_555
H26 C44 1_555 1_555
C45 C43 1_555 1_555
C46 C45 1_555 1_555
C47 C46 1_555 1_555
C48 C47 1_555 1_555
C49 C48 1_555 1_555
H27 C49 1_555 1_555
C50 C48 1_555 1_555
H28 C50 1_555 1_555
C51 N6 1_555 1_555
H29 C51 1_555 1_555
C52 N6 1_555 1_555
H30 C52 1_555 1_555
C53 C54 1_555 1_555
C54 Fe2 1_555 1_555
H31 C54 1_555 1_555
C55 Fe2 1_555 1_555
H32 C55 1_555 1_555
C56 Fe2 1_555 1_555
H33 C56 1_555 1_555
C57 Fe2 1_555 1_555
H34 C57 1_555 1_555
C58 Fe2 1_555 1_555
H35 C58 1_555 1_555
C59 Fe2 1_555 1_555
H36 C59 1_555 1_555
C60 Fe2 1_555 1_555
H37 C60 1_555 1_555
C61 Fe2 1_555 1_555
C62 Fe2 1_555 1_555
H38 C62 1_555 1_555
C63 P3 1_555 1_555
C64 Fe1 1_555 1_555
H39 C64 1_555 1_555
C65 Fe1 1_555 1_555
H40 C65 1_555 1_555
C66 Fe1 1_555 1_555
H41 C66 1_555 1_555
C67 Fe1 1_555 1_555
H42 C67 1_555 1_555
C68 Fe1 1_555 1_555
C69 Fe1 1_555 1_555
H43 C69 1_555 1_555
C70 Fe1 1_555 1_555
H44 C70 1_555 1_555
C71 Fe1 1_555 1_555
H45 C71 1_555 1_555
C72 Fe1 1_555 1_555
H46 C72 1_555 1_555
C73 P1 1_555 1_555
C74 C73 1_555 1_555
H47 C74 1_555 1_555
C75 C73 1_555 1_555
H48 C75 1_555 1_555
C76 C74 1_555 1_555
H49 C76 1_555 1_555
C77 C75 1_555 1_555
H50 C77 1_555 1_555
C78 C76 1_555 1_555
H51 C78 1_555 1_555
C79 P4 1_555 1_555
C80 C79 1_555 1_555
H52 C80 1_555 1_555
C81 C79 1_555 1_555
H53 C81 1_555 1_555
C82 C80 1_555 1_555
H54 C82 1_555 1_555
C83 C81 1_555 1_555
H55 C83 1_555 1_555
C84 C82 1_555 1_555
H56 C84 1_555 1_555
C85 P2 1_555 1_555
C86 C85 1_555 1_555
H57 C86 1_555 1_555
C87 C85 1_555 1_555
H58 C87 1_555 1_555
C88 C86 1_555 1_555
H59 C88 1_555 1_555
C89 C87 1_555 1_555
H60 C89 1_555 1_555
C90 C88 1_555 1_555
H61 C90 1_555 1_555
C91 P2 1_555 1_555
C92 C91 1_555 1_555
H62 C92 1_555 1_555
C93 C91 1_555 1_555
H63 C93 1_555 1_555
C94 C92 1_555 1_555
H64 C94 1_555 1_555
C95 C93 1_555 1_555
H65 C95 1_555 1_555
C96 C94 1_555 1_555
H66 C96 1_555 1_555
C97 P3 1_555 1_555
C98 C97 1_555 1_555
H67 C98 1_555 1_555
C99 C97 1_555 1_555
H68 C99 1_555 1_555
C100 C98 1_555 1_555
H69 C100 1_555 1_555
C101 C99 1_555 1_555
H70 C101 1_555 1_555
C102 C100 1_555 1_555
H71 C102 1_555 1_555
C103 P1 1_555 1_555
C104 C103 1_555 1_555
H72 C104 1_555 1_555
C105 C103 1_555 1_555
H73 C105 1_555 1_555
C106 C104 1_555 1_555
H74 C106 1_555 1_555
C107 C105 1_555 1_555
H75 C107 1_555 1_555
C108 C106 1_555 1_555
H76 C108 1_555 1_555
C109 P4 1_555 1_555
C110 C109 1_555 1_555
H77 C110 1_555 1_555
C111 C109 1_555 1_555
H78 C111 1_555 1_555
C112 C110 1_555 1_555
H79 C112 1_555 1_555
C113 C111 1_555 1_555
H80 C113 1_555 1_555
C114 C112 1_555 1_555
H81 C114 1_555 1_555
C115 P3 1_555 1_555
C116 C115 1_555 1_555
H82 C116 1_555 1_555
C117 C115 1_555 1_555
H83 C117 1_555 1_555
C118 C117 1_555 1_555
H84 C118 1_555 1_555
C119 C118 1_555 1_555
H85 C119 1_555 1_555
C120 C116 1_555 1_555
H86 C120 1_555 1_555
S1 O1 1_555 1_555
F1 C121 1_555 1_555
F2 C121 1_555 1_555
F3 C121 1_555 1_555
O2 S1 1_555 1_555
O3 S1 1_555 1_555
C121 S1 1_555 1_555
S2 O4 1_555 1_555
F4 C122 1_555 1_555
F5 C122 1_555 1_555
F6 C122 1_555 1_555
O5 S2 1_555 1_555
O6 S2 1_555 1_555
C122 S2 1_555 1_555
O7 N7 1_555 1_555
O8 N7 1_555 1_555
N7 C123 1_555 1_555
C123 H87 1_555 1_555
H88 C123 1_555 1_555
H89 C123 1_555 1_555
O9 C124 1_555 1_555
C124 H90 1_555 1_555
H91 C124 1_555 1_555
C125 C124 1_555 1_555
H92 C125 1_555 1_555
H93 C125 1_555 1_555
H94 C125 1_555 1_555
C126 O9 1_555 1_555
H95 C126 1_555 1_555
H96 C126 1_555 1_555
C127 C126 1_555 1_555
H97 C127 1_555 1_555
H98 C127 1_555 1_555
H99 C127 1_555 1_555
P4 C61 1_555 1_555
C4 C5 1_555 1_555
C11 C13 1_555 1_555
C12 C13 1_555 1_555
C14 C15 1_555 1_555
C18 C19 1_555 1_555
C23 C25 1_555 1_555
C24 C26 1_555 1_555
C30 C31 1_555 1_555
C37 C39 1_555 1_555
C38 C39 1_555 1_555
C40 C41 1_555 1_555
C44 C45 1_555 1_555
C49 C51 1_555 1_555
C50 C52 1_555 1_555
C53 C57 1_555 1_555
C54 C55 1_555 1_555
C55 C56 1_555 1_555
C56 C57 1_555 1_555
C58 C59 1_555 1_555
C58 C62 1_555 1_555
C59 C60 1_555 1_555
C60 C61 1_555 1_555
C61 C62 1_555 1_555
C63 C64 1_555 1_555
C63 C65 1_555 1_555
C64 C67 1_555 1_555
C65 C66 1_555 1_555
C66 C67 1_555 1_555
C68 C69 1_555 1_555
C68 C72 1_555 1_555
C69 C70 1_555 1_555
C70 C71 1_555 1_555
C71 C72 1_555 1_555
C77 C78 1_555 1_555
C83 C84 1_555 1_555
C89 C90 1_555 1_555
C95 C96 1_555 1_555
C101 C102 1_555 1_555
C107 C108 1_555 1_555
C113 C114 1_555 1_555
C119 C120 1_555 1_555

#END
