# generated using pymatgen
data_Cu12C356N79O71
_symmetry_space_group_name_H-M   'P 1'
_cell_length_a   23.93900000
_cell_length_b   31.94900000
_cell_length_c   40.83700000
_cell_angle_alpha   90.00000000
_cell_angle_beta   90.00000000
_cell_angle_gamma   90.00000000
_symmetry_Int_Tables_number   1
_chemical_formula_structural   Cu12C356N79O71
_chemical_formula_sum   'Cu48 C1424 N316 O284'
_cell_volume   31233.24473191
_cell_formula_units_Z   4
loop_
 _symmetry_equiv_pos_site_id
 _symmetry_equiv_pos_as_xyz
  1  'x, y, z'
loop_
 _atom_site_type_symbol
 _atom_site_label
 _atom_site_symmetry_multiplicity
 _atom_site_fract_x
 _atom_site_fract_y
 _atom_site_fract_z
 _atom_site_occupancy
  Cu  Cu1  1  0.250000  0.000000  0.417900  1
  Cu  Cu2  1  0.250000  0.500000  0.582100  1
  Cu  Cu3  1  0.750000  0.000000  0.582100  1
  Cu  Cu4  1  0.750000  0.500000  0.417900  1
  Cu  Cu5  1  0.250000  0.000000  0.070350  1
  Cu  Cu6  1  0.250000  0.500000  0.929650  1
  Cu  Cu7  1  0.750000  0.000000  0.929650  1
  Cu  Cu8  1  0.750000  0.500000  0.070350  1
  Cu  Cu9  1  0.043560  0.111240  0.335620  1.0
  Cu  Cu10  1  0.456440  0.888760  0.335620  1.0
  Cu  Cu11  1  0.043560  0.388760  0.664380  1.0
  Cu  Cu12  1  0.456440  0.611240  0.664380  1.0
  Cu  Cu13  1  0.956440  0.888760  0.664380  1.0
  Cu  Cu14  1  0.543560  0.111240  0.664380  1.0
  Cu  Cu15  1  0.956440  0.611240  0.335620  1.0
  Cu  Cu16  1  0.543560  0.388760  0.335620  1.0
  Cu  Cu17  1  0.971550  0.923590  0.254690  1.0
  Cu  Cu18  1  0.528450  0.076410  0.254690  1.0
  Cu  Cu19  1  0.971550  0.576410  0.745310  1.0
  Cu  Cu20  1  0.528450  0.423590  0.745310  1.0
  Cu  Cu21  1  0.028450  0.076410  0.745310  1.0
  Cu  Cu22  1  0.471550  0.923590  0.745310  1.0
  Cu  Cu23  1  0.028450  0.423590  0.254690  1.0
  Cu  Cu24  1  0.471550  0.576410  0.254690  1.0
  Cu  Cu25  1  0.317210  0.185700  0.334980  1.0
  Cu  Cu26  1  0.182790  0.814300  0.334980  1.0
  Cu  Cu27  1  0.317210  0.314300  0.665020  1.0
  Cu  Cu28  1  0.182790  0.685700  0.665020  1.0
  Cu  Cu29  1  0.682790  0.814300  0.665020  1.0
  Cu  Cu30  1  0.817210  0.185700  0.665020  1.0
  Cu  Cu31  1  0.682790  0.685700  0.334980  1.0
  Cu  Cu32  1  0.817210  0.314300  0.334980  1.0
  Cu  Cu33  1  0.049110  0.101560  0.164790  1.0
  Cu  Cu34  1  0.450890  0.898440  0.164790  1.0
  Cu  Cu35  1  0.049110  0.398440  0.835210  1.0
  Cu  Cu36  1  0.450890  0.601560  0.835210  1.0
  Cu  Cu37  1  0.950890  0.898440  0.835210  1.0
  Cu  Cu38  1  0.549110  0.101560  0.835210  1.0
  Cu  Cu39  1  0.950890  0.601560  0.164790  1.0
  Cu  Cu40  1  0.549110  0.398440  0.164790  1.0
  Cu  Cu41  1  0.319580  0.175730  0.165050  1.0
  Cu  Cu42  1  0.180420  0.824270  0.165050  1.0
  Cu  Cu43  1  0.319580  0.324270  0.834950  1.0
  Cu  Cu44  1  0.180420  0.675730  0.834950  1.0
  Cu  Cu45  1  0.680420  0.824270  0.834950  1.0
  Cu  Cu46  1  0.819580  0.175730  0.834950  1.0
  Cu  Cu47  1  0.680420  0.675730  0.165050  1.0
  Cu  Cu48  1  0.819580  0.324270  0.165050  1.0
  C  C49  1  0.698800  0.043000  0.313600  1
  C  C50  1  0.801200  0.957000  0.313600  1
  C  C51  1  0.698800  0.457000  0.686400  1
  C  C52  1  0.801200  0.543000  0.686400  1
  C  C53  1  0.301200  0.957000  0.686400  1
  C  C54  1  0.198800  0.043000  0.686400  1
  C  C55  1  0.301200  0.543000  0.313600  1
  C  C56  1  0.198800  0.457000  0.313600  1
  C  C57  1  0.660600  0.977200  0.329000  1
  C  C58  1  0.839400  0.022800  0.329000  1
  C  C59  1  0.660600  0.522800  0.671000  1
  C  C60  1  0.839400  0.477200  0.671000  1
  C  C61  1  0.339400  0.022800  0.671000  1
  C  C62  1  0.160600  0.977200  0.671000  1
  C  C63  1  0.339400  0.477200  0.329000  1
  C  C64  1  0.160600  0.522800  0.329000  1
  C  C65  1  0.673300  0.991200  0.268800  1
  C  C66  1  0.826700  0.008800  0.268800  1
  C  C67  1  0.673300  0.508800  0.731200  1
  C  C68  1  0.826700  0.491200  0.731200  1
  C  C69  1  0.326700  0.008800  0.731200  1
  C  C70  1  0.173300  0.991200  0.731200  1
  C  C71  1  0.326700  0.491200  0.268800  1
  C  C72  1  0.173300  0.508800  0.268800  1
  C  C73  1  0.502200  0.168900  0.086500  1
  C  C74  1  0.997800  0.831100  0.086500  1
  C  C75  1  0.502200  0.331100  0.913500  1
  C  C76  1  0.997800  0.668900  0.913500  1
  C  C77  1  0.497800  0.831100  0.913500  1
  C  C78  1  0.002200  0.168900  0.913500  1
  C  C79  1  0.497800  0.668900  0.086500  1
  C  C80  1  0.002200  0.331100  0.086500  1
  C  C81  1  0.475100  0.129300  0.080500  1
  C  C82  1  0.024900  0.870700  0.080500  1
  C  C83  1  0.475100  0.370700  0.919500  1
  C  C84  1  0.024900  0.629300  0.919500  1
  C  C85  1  0.524900  0.870700  0.919500  1
  C  C86  1  0.975100  0.129300  0.919500  1
  C  C87  1  0.524900  0.629300  0.080500  1
  C  C88  1  0.975100  0.370700  0.080500  1
  C  C89  1  0.423000  0.120500  0.093500  1
  C  C90  1  0.077000  0.879500  0.093500  1
  C  C91  1  0.423000  0.379500  0.906500  1
  C  C92  1  0.077000  0.620500  0.906500  1
  C  C93  1  0.577000  0.879500  0.906500  1
  C  C94  1  0.923000  0.120500  0.906500  1
  C  C95  1  0.577000  0.620500  0.093500  1
  C  C96  1  0.923000  0.379500  0.093500  1
  C  C97  1  0.256600  0.318100  0.306100  1
  C  C98  1  0.243400  0.681900  0.306100  1
  C  C99  1  0.256600  0.181900  0.693900  1
  C  C100  1  0.243400  0.818100  0.693900  1
  C  C101  1  0.743400  0.681900  0.693900  1
  C  C102  1  0.756600  0.318100  0.693900  1
  C  C103  1  0.743400  0.818100  0.306100  1
  C  C104  1  0.756600  0.181900  0.306100  1
  C  C105  1  0.606100  0.078100  0.183000  1
  C  C106  1  0.893900  0.921900  0.183000  1
  C  C107  1  0.606100  0.421900  0.817000  1
  C  C108  1  0.893900  0.578100  0.817000  1
  C  C109  1  0.393900  0.921900  0.817000  1
  C  C110  1  0.106100  0.078100  0.817000  1
  C  C111  1  0.393900  0.578100  0.183000  1
  C  C112  1  0.106100  0.421900  0.183000  1
  C  C113  1  0.645100  0.075200  0.155100  1
  C  C114  1  0.854900  0.924800  0.155100  1
  C  C115  1  0.645100  0.424800  0.844900  1
  C  C116  1  0.854900  0.575200  0.844900  1
  C  C117  1  0.354900  0.924800  0.844900  1
  C  C118  1  0.145100  0.075200  0.844900  1
  C  C119  1  0.354900  0.575200  0.155100  1
  C  C120  1  0.145100  0.424800  0.155100  1
  C  C121  1  0.634500  0.097300  0.128200  1
  C  C122  1  0.865500  0.902700  0.128200  1
  C  C123  1  0.634500  0.402700  0.871800  1
  C  C124  1  0.865500  0.597300  0.871800  1
  C  C125  1  0.365500  0.902700  0.871800  1
  C  C126  1  0.134500  0.097300  0.871800  1
  C  C127  1  0.365500  0.597300  0.128200  1
  C  C128  1  0.134500  0.402700  0.128200  1
  C  C129  1  0.584400  0.123200  0.126500  1
  C  C130  1  0.915600  0.876800  0.126500  1
  C  C131  1  0.584400  0.376800  0.873500  1
  C  C132  1  0.915600  0.623200  0.873500  1
  C  C133  1  0.415600  0.876800  0.873500  1
  C  C134  1  0.084400  0.123200  0.873500  1
  C  C135  1  0.415600  0.623200  0.126500  1
  C  C136  1  0.084400  0.376800  0.126500  1
  C  C137  1  0.467200  0.181200  0.435600  1
  C  C138  1  0.032800  0.818800  0.435600  1
  C  C139  1  0.467200  0.318800  0.564400  1
  C  C140  1  0.032800  0.681200  0.564400  1
  C  C141  1  0.532800  0.818800  0.564400  1
  C  C142  1  0.967200  0.181200  0.564400  1
  C  C143  1  0.532800  0.681200  0.435600  1
  C  C144  1  0.967200  0.318800  0.435600  1
  C  C145  1  0.416400  0.201900  0.428200  1
  C  C146  1  0.083600  0.798100  0.428200  1
  C  C147  1  0.416400  0.298100  0.571800  1
  C  C148  1  0.083600  0.701900  0.571800  1
  C  C149  1  0.583600  0.798100  0.571800  1
  C  C150  1  0.916400  0.201900  0.571800  1
  C  C151  1  0.583600  0.701900  0.428200  1
  C  C152  1  0.916400  0.298100  0.428200  1
  C  C153  1  0.395100  0.197500  0.396600  1
  C  C154  1  0.104900  0.802500  0.396600  1
  C  C155  1  0.395100  0.302500  0.603400  1
  C  C156  1  0.104900  0.697500  0.603400  1
  C  C157  1  0.604900  0.802500  0.603400  1
  C  C158  1  0.895100  0.197500  0.603400  1
  C  C159  1  0.604900  0.697500  0.396600  1
  C  C160  1  0.895100  0.302500  0.396600  1
  C  C161  1  0.398100  0.183200  0.685700  1
  C  C162  1  0.101900  0.816800  0.685700  1
  C  C163  1  0.398100  0.316800  0.314300  1
  C  C164  1  0.101900  0.683200  0.314300  1
  C  C165  1  0.601900  0.816800  0.314300  1
  C  C166  1  0.898100  0.183200  0.314300  1
  C  C167  1  0.601900  0.683200  0.685700  1
  C  C168  1  0.898100  0.316800  0.685700  1
  C  C169  1  0.375000  0.123200  0.719700  1
  C  C170  1  0.125000  0.876800  0.719700  1
  C  C171  1  0.375000  0.376800  0.280300  1
  C  C172  1  0.125000  0.623200  0.280300  1
  C  C173  1  0.625000  0.876800  0.280300  1
  C  C174  1  0.875000  0.123200  0.280300  1
  C  C175  1  0.625000  0.623200  0.719700  1
  C  C176  1  0.875000  0.376800  0.719700  1
  C  C177  1  0.390100  0.195800  0.744200  1
  C  C178  1  0.109900  0.804200  0.744200  1
  C  C179  1  0.390100  0.304200  0.255800  1
  C  C180  1  0.109900  0.695800  0.255800  1
  C  C181  1  0.609900  0.804200  0.255800  1
  C  C182  1  0.890100  0.195800  0.255800  1
  C  C183  1  0.609900  0.695800  0.744200  1
  C  C184  1  0.890100  0.304200  0.744200  1
  C  C185  1  0.773000  0.094600  0.209700  1
  C  C186  1  0.727000  0.905400  0.209700  1
  C  C187  1  0.773000  0.405400  0.790300  1
  C  C188  1  0.727000  0.594600  0.790300  1
  C  C189  1  0.227000  0.905400  0.790300  1
  C  C190  1  0.273000  0.094600  0.790300  1
  C  C191  1  0.227000  0.594600  0.209700  1
  C  C192  1  0.273000  0.405400  0.209700  1
  C  C193  1  0.860600  0.109600  0.185000  1
  C  C194  1  0.639400  0.890400  0.185000  1
  C  C195  1  0.860600  0.390400  0.815000  1
  C  C196  1  0.639400  0.609600  0.815000  1
  C  C197  1  0.139400  0.890400  0.815000  1
  C  C198  1  0.360600  0.109600  0.815000  1
  C  C199  1  0.139400  0.609600  0.185000  1
  C  C200  1  0.360600  0.390400  0.185000  1
  C  C201  1  0.827700  0.040000  0.187500  1
  C  C202  1  0.672300  0.960000  0.187500  1
  C  C203  1  0.827700  0.460000  0.812500  1
  C  C204  1  0.672300  0.540000  0.812500  1
  C  C205  1  0.172300  0.960000  0.812500  1
  C  C206  1  0.327700  0.040000  0.812500  1
  C  C207  1  0.172300  0.540000  0.187500  1
  C  C208  1  0.327700  0.460000  0.187500  1
  C  C209  1  0.465200  0.193100  0.518200  1
  C  C210  1  0.034800  0.806900  0.518200  1
  C  C211  1  0.465200  0.306900  0.481800  1
  C  C212  1  0.034800  0.693100  0.481800  1
  C  C213  1  0.534800  0.806900  0.481800  1
  C  C214  1  0.965200  0.193100  0.481800  1
  C  C215  1  0.534800  0.693100  0.518200  1
  C  C216  1  0.965200  0.306900  0.518200  1
  C  C217  1  0.419500  0.127400  0.537600  1
  C  C218  1  0.080500  0.872600  0.537600  1
  C  C219  1  0.419500  0.372600  0.462400  1
  C  C220  1  0.080500  0.627400  0.462400  1
  C  C221  1  0.580500  0.872600  0.462400  1
  C  C222  1  0.919500  0.127400  0.462400  1
  C  C223  1  0.580500  0.627400  0.537600  1
  C  C224  1  0.919500  0.372600  0.537600  1
  C  C225  1  0.440000  0.186600  0.576300  1
  C  C226  1  0.060000  0.813400  0.576300  1
  C  C227  1  0.440000  0.313400  0.423700  1
  C  C228  1  0.060000  0.686600  0.423700  1
  C  C229  1  0.560000  0.813400  0.423700  1
  C  C230  1  0.940000  0.186600  0.423700  1
  C  C231  1  0.560000  0.686600  0.576300  1
  C  C232  1  0.940000  0.313400  0.576300  1
  C  C233  1  0.738200  0.095300  0.514900  1
  C  C234  1  0.761800  0.904700  0.514900  1
  C  C235  1  0.738200  0.404700  0.485100  1
  C  C236  1  0.761800  0.595300  0.485100  1
  C  C237  1  0.261800  0.904700  0.485100  1
  C  C238  1  0.238200  0.095300  0.485100  1
  C  C239  1  0.261800  0.595300  0.514900  1
  C  C240  1  0.238200  0.404700  0.514900  1
  C  C241  1  0.813300  0.153400  0.532600  1
  C  C242  1  0.686700  0.846600  0.532600  1
  C  C243  1  0.813300  0.346600  0.467400  1
  C  C244  1  0.686700  0.653400  0.467400  1
  C  C245  1  0.186700  0.846600  0.467400  1
  C  C246  1  0.313300  0.153400  0.467400  1
  C  C247  1  0.186700  0.653400  0.532600  1
  C  C248  1  0.313300  0.346600  0.532600  1
  C  C249  1  0.828400  0.101800  0.488200  1
  C  C250  1  0.671600  0.898200  0.488200  1
  C  C251  1  0.828400  0.398200  0.511800  1
  C  C252  1  0.671600  0.601800  0.511800  1
  C  C253  1  0.171600  0.898200  0.511800  1
  C  C254  1  0.328400  0.101800  0.511800  1
  C  C255  1  0.171600  0.601800  0.488200  1
  C  C256  1  0.328400  0.398200  0.488200  1
  C  C257  1  0.722200  0.234900  0.584900  1
  C  C258  1  0.777800  0.765100  0.584900  1
  C  C259  1  0.722200  0.265100  0.415100  1
  C  C260  1  0.777800  0.734900  0.415100  1
  C  C261  1  0.277800  0.765100  0.415100  1
  C  C262  1  0.222200  0.234900  0.415100  1
  C  C263  1  0.277800  0.734900  0.584900  1
  C  C264  1  0.222200  0.265100  0.584900  1
  C  C265  1  0.641600  0.273000  0.613200  1
  C  C266  1  0.858400  0.727000  0.613200  1
  C  C267  1  0.641600  0.227000  0.386800  1
  C  C268  1  0.858400  0.773000  0.386800  1
  C  C269  1  0.358400  0.727000  0.386800  1
  C  C270  1  0.141600  0.273000  0.386800  1
  C  C271  1  0.358400  0.773000  0.613200  1
  C  C272  1  0.141600  0.227000  0.613200  1
  C  C273  1  0.709600  0.309800  0.595200  1
  C  C274  1  0.790400  0.690200  0.595200  1
  C  C275  1  0.709600  0.190200  0.404800  1
  C  C276  1  0.790400  0.809800  0.404800  1
  C  C277  1  0.290400  0.690200  0.404800  1
  C  C278  1  0.209600  0.309800  0.404800  1
  C  C279  1  0.290400  0.809800  0.595200  1
  C  C280  1  0.209600  0.190200  0.595200  1
  C  C281  1  0.605300  0.214200  0.586600  1
  C  C282  1  0.894700  0.785800  0.586600  1
  C  C283  1  0.605300  0.285800  0.413400  1
  C  C284  1  0.894700  0.714200  0.413400  1
  C  C285  1  0.394700  0.785800  0.413400  1
  C  C286  1  0.105300  0.214200  0.413400  1
  C  C287  1  0.394700  0.714200  0.586600  1
  C  C288  1  0.105300  0.285800  0.586600  1
  C  C289  1  0.713300  0.207000  0.562800  1
  C  C290  1  0.786700  0.793000  0.562800  1
  C  C291  1  0.713300  0.293000  0.437200  1
  C  C292  1  0.786700  0.707000  0.437200  1
  C  C293  1  0.286700  0.793000  0.437200  1
  C  C294  1  0.213300  0.207000  0.437200  1
  C  C295  1  0.286700  0.707000  0.562800  1
  C  C296  1  0.213300  0.293000  0.562800  1
  C  C297  1  0.250000  0.000000  0.578900  1
  C  C298  1  0.250000  0.500000  0.421100  1
  C  C299  1  0.750000  0.000000  0.421100  1
  C  C300  1  0.750000  0.500000  0.578900  1
  C  C301  1  0.268100  0.933400  0.586600  1
  C  C302  1  0.231900  0.066600  0.586600  1
  C  C303  1  0.268100  0.566600  0.413400  1
  C  C304  1  0.231900  0.433400  0.413400  1
  C  C305  1  0.731900  0.066600  0.413400  1
  C  C306  1  0.768100  0.933400  0.413400  1
  C  C307  1  0.731900  0.433400  0.586600  1
  C  C308  1  0.768100  0.566600  0.586600  1
  C  C309  1  0.247800  0.966300  0.531200  1
  C  C310  1  0.252200  0.033700  0.531200  1
  C  C311  1  0.247800  0.533700  0.468800  1
  C  C312  1  0.252200  0.466300  0.468800  1
  C  C313  1  0.752200  0.033700  0.468800  1
  C  C314  1  0.747800  0.966300  0.468800  1
  C  C315  1  0.752200  0.466300  0.531200  1
  C  C316  1  0.747800  0.533700  0.531200  1
  C  C317  1  0.826800  0.171000  0.407800  1
  C  C318  1  0.673200  0.829000  0.407800  1
  C  C319  1  0.826800  0.329000  0.592200  1
  C  C320  1  0.673200  0.671000  0.592200  1
  C  C321  1  0.173200  0.829000  0.592200  1
  C  C322  1  0.326800  0.171000  0.592200  1
  C  C323  1  0.173200  0.671000  0.407800  1
  C  C324  1  0.326800  0.329000  0.407800  1
  C  C325  1  0.769900  0.120800  0.375100  1
  C  C326  1  0.730100  0.879200  0.375100  1
  C  C327  1  0.769900  0.379200  0.624900  1
  C  C328  1  0.730100  0.620800  0.624900  1
  C  C329  1  0.230100  0.879200  0.624900  1
  C  C330  1  0.269900  0.120800  0.624900  1
  C  C331  1  0.230100  0.620800  0.375100  1
  C  C332  1  0.269900  0.379200  0.375100  1
  C  C333  1  0.734500  0.142500  0.430600  1
  C  C334  1  0.765500  0.857500  0.430600  1
  C  C335  1  0.734500  0.357500  0.569400  1
  C  C336  1  0.765500  0.642500  0.569400  1
  C  C337  1  0.265500  0.857500  0.569400  1
  C  C338  1  0.234500  0.142500  0.569400  1
  C  C339  1  0.265500  0.642500  0.430600  1
  C  C340  1  0.234500  0.357500  0.430600  1
  C  C341  1  0.098700  0.134600  0.453500  1
  C  C342  1  0.401300  0.865400  0.453500  1
  C  C343  1  0.098700  0.365400  0.546500  1
  C  C344  1  0.401300  0.634600  0.546500  1
  C  C345  1  0.901300  0.865400  0.546500  1
  C  C346  1  0.598700  0.134600  0.546500  1
  C  C347  1  0.901300  0.634600  0.453500  1
  C  C348  1  0.598700  0.365400  0.453500  1
  C  C349  1  0.006900  0.117500  0.473200  1
  C  C350  1  0.493100  0.882500  0.473200  1
  C  C351  1  0.006900  0.382500  0.526800  1
  C  C352  1  0.493100  0.617500  0.526800  1
  C  C353  1  0.993100  0.882500  0.526800  1
  C  C354  1  0.506900  0.117500  0.526800  1
  C  C355  1  0.993100  0.617500  0.473200  1
  C  C356  1  0.506900  0.382500  0.473200  1
  C  C357  1  0.020200  0.182100  0.427900  1
  C  C358  1  0.479800  0.817900  0.427900  1
  C  C359  1  0.020200  0.317900  0.572100  1
  C  C360  1  0.479800  0.682100  0.572100  1
  C  C361  1  0.979800  0.817900  0.572100  1
  C  C362  1  0.520200  0.182100  0.572100  1
  C  C363  1  0.979800  0.682100  0.427900  1
  C  C364  1  0.520200  0.317900  0.427900  1
  C  C365  1  0.788400  0.177800  0.477600  1
  C  C366  1  0.711600  0.822200  0.477600  1
  C  C367  1  0.788400  0.322200  0.522400  1
  C  C368  1  0.711600  0.677800  0.522400  1
  C  C369  1  0.211600  0.822200  0.522400  1
  C  C370  1  0.288400  0.177800  0.522400  1
  C  C371  1  0.211600  0.677800  0.477600  1
  C  C372  1  0.288400  0.322200  0.477600  1
  C  C373  1  0.831700  0.233100  0.509000  1
  C  C374  1  0.668300  0.766900  0.509000  1
  C  C375  1  0.831700  0.266900  0.491000  1
  C  C376  1  0.668300  0.733100  0.491000  1
  C  C377  1  0.168300  0.766900  0.491000  1
  C  C378  1  0.331700  0.233100  0.491000  1
  C  C379  1  0.168300  0.733100  0.509000  1
  C  C380  1  0.331700  0.266900  0.509000  1
  C  C381  1  0.093500  0.205200  0.520500  1
  C  C382  1  0.406500  0.794800  0.520500  1
  C  C383  1  0.093500  0.294800  0.479500  1
  C  C384  1  0.406500  0.705200  0.479500  1
  C  C385  1  0.906500  0.794800  0.479500  1
  C  C386  1  0.593500  0.205200  0.479500  1
  C  C387  1  0.906500  0.705200  0.520500  1
  C  C388  1  0.593500  0.294800  0.520500  1
  C  C389  1  0.190300  0.209500  0.501400  1
  C  C390  1  0.309700  0.790500  0.501400  1
  C  C391  1  0.190300  0.290500  0.498600  1
  C  C392  1  0.309700  0.709500  0.498600  1
  C  C393  1  0.809700  0.790500  0.498600  1
  C  C394  1  0.690300  0.209500  0.498600  1
  C  C395  1  0.809700  0.709500  0.501400  1
  C  C396  1  0.690300  0.290500  0.501400  1
  C  C397  1  0.120300  0.119600  0.521900  1
  C  C398  1  0.379700  0.880400  0.521900  1
  C  C399  1  0.120300  0.380400  0.478100  1
  C  C400  1  0.379700  0.619600  0.478100  1
  C  C401  1  0.879700  0.880400  0.478100  1
  C  C402  1  0.620300  0.119600  0.478100  1
  C  C403  1  0.879700  0.619600  0.521900  1
  C  C404  1  0.620300  0.380400  0.521900  1
  C  C405  1  0.177100  0.113000  0.472200  1
  C  C406  1  0.322900  0.887000  0.472200  1
  C  C407  1  0.177100  0.387000  0.527800  1
  C  C408  1  0.322900  0.613000  0.527800  1
  C  C409  1  0.822900  0.887000  0.527800  1
  C  C410  1  0.677100  0.113000  0.527800  1
  C  C411  1  0.822900  0.613000  0.472200  1
  C  C412  1  0.677100  0.387000  0.472200  1
  C  C413  1  0.074200  0.107400  0.470900  1
  C  C414  1  0.425800  0.892600  0.470900  1
  C  C415  1  0.074200  0.392600  0.529100  1
  C  C416  1  0.425800  0.607400  0.529100  1
  C  C417  1  0.925800  0.892600  0.529100  1
  C  C418  1  0.574200  0.107400  0.529100  1
  C  C419  1  0.925800  0.607400  0.470900  1
  C  C420  1  0.574200  0.392600  0.470900  1
  C  C421  1  0.742000  0.939200  0.805200  1
  C  C422  1  0.758000  0.060800  0.805200  1
  C  C423  1  0.742000  0.560800  0.194800  1
  C  C424  1  0.758000  0.439200  0.194800  1
  C  C425  1  0.258000  0.060800  0.194800  1
  C  C426  1  0.242000  0.939200  0.194800  1
  C  C427  1  0.258000  0.439200  0.805200  1
  C  C428  1  0.242000  0.560800  0.805200  1
  C  C429  1  0.749000  0.986600  0.805200  1
  C  C430  1  0.751000  0.013400  0.805200  1
  C  C431  1  0.749000  0.513400  0.194800  1
  C  C432  1  0.751000  0.486600  0.194800  1
  C  C433  1  0.251000  0.013400  0.194800  1
  C  C434  1  0.249000  0.986600  0.194800  1
  C  C435  1  0.251000  0.486600  0.805200  1
  C  C436  1  0.249000  0.513400  0.805200  1
  C  C437  1  0.750000  0.000000  0.850400  1
  C  C438  1  0.750000  0.500000  0.149600  1
  C  C439  1  0.250000  0.000000  0.149600  1
  C  C440  1  0.250000  0.500000  0.850400  1
  C  C441  1  0.750000  0.000000  0.756500  1
  C  C442  1  0.750000  0.500000  0.243500  1
  C  C443  1  0.250000  0.000000  0.243500  1
  C  C444  1  0.250000  0.500000  0.756500  1
  C  C445  1  0.162000  0.105000  0.228000  1
  C  C446  1  0.338000  0.895000  0.228000  1
  C  C447  1  0.162000  0.395000  0.772000  1
  C  C448  1  0.338000  0.605000  0.772000  1
  C  C449  1  0.838000  0.895000  0.772000  1
  C  C450  1  0.662000  0.105000  0.772000  1
  C  C451  1  0.838000  0.605000  0.228000  1
  C  C452  1  0.662000  0.395000  0.228000  1
  C  C453  1  0.243900  0.145400  0.273600  1
  C  C454  1  0.256100  0.854600  0.273600  1
  C  C455  1  0.243900  0.354600  0.726400  1
  C  C456  1  0.256100  0.645400  0.726400  1
  C  C457  1  0.756100  0.854600  0.726400  1
  C  C458  1  0.743900  0.145400  0.726400  1
  C  C459  1  0.756100  0.645400  0.273600  1
  C  C460  1  0.743900  0.354600  0.273600  1
  C  C461  1  0.165800  0.090800  0.273000  1
  C  C462  1  0.334200  0.909200  0.273000  1
  C  C463  1  0.165800  0.409200  0.727000  1
  C  C464  1  0.334200  0.590800  0.727000  1
  C  C465  1  0.834200  0.909200  0.727000  1
  C  C466  1  0.665800  0.090800  0.727000  1
  C  C467  1  0.834200  0.590800  0.273000  1
  C  C468  1  0.665800  0.409200  0.273000  1
  C  C469  1  0.231900  0.132000  0.219500  1
  C  C470  1  0.268100  0.868000  0.219500  1
  C  C471  1  0.231900  0.368000  0.780500  1
  C  C472  1  0.268100  0.632000  0.780500  1
  C  C473  1  0.768100  0.868000  0.780500  1
  C  C474  1  0.731900  0.132000  0.780500  1
  C  C475  1  0.768100  0.632000  0.219500  1
  C  C476  1  0.731900  0.368000  0.219500  1
  C  C477  1  0.256300  0.104800  0.273100  1
  C  C478  1  0.243700  0.895200  0.273100  1
  C  C479  1  0.256300  0.395200  0.726900  1
  C  C480  1  0.243700  0.604800  0.726900  1
  C  C481  1  0.743700  0.895200  0.726900  1
  C  C482  1  0.756300  0.104800  0.726900  1
  C  C483  1  0.743700  0.604800  0.273100  1
  C  C484  1  0.756300  0.395200  0.273100  1
  C  C485  1  0.155000  0.134600  0.260600  1
  C  C486  1  0.345000  0.865400  0.260600  1
  C  C487  1  0.155000  0.365400  0.739400  1
  C  C488  1  0.345000  0.634600  0.739400  1
  C  C489  1  0.845000  0.865400  0.739400  1
  C  C490  1  0.655000  0.134600  0.739400  1
  C  C491  1  0.845000  0.634600  0.260600  1
  C  C492  1  0.655000  0.365400  0.260600  1
  C  C493  1  0.091500  0.943200  0.301900  1
  C  C494  1  0.408500  0.056800  0.301900  1
  C  C495  1  0.091500  0.556800  0.698100  1
  C  C496  1  0.408500  0.443200  0.698100  1
  C  C497  1  0.908500  0.056800  0.698100  1
  C  C498  1  0.591500  0.943200  0.698100  1
  C  C499  1  0.908500  0.443200  0.301900  1
  C  C500  1  0.591500  0.556800  0.301900  1
  C  C501  1  0.104000  0.974500  0.355800  1
  C  C502  1  0.396000  0.025500  0.355800  1
  C  C503  1  0.104000  0.525500  0.644200  1
  C  C504  1  0.396000  0.474500  0.644200  1
  C  C505  1  0.896000  0.025500  0.644200  1
  C  C506  1  0.604000  0.974500  0.644200  1
  C  C507  1  0.896000  0.474500  0.355800  1
  C  C508  1  0.604000  0.525500  0.355800  1
  C  C509  1  0.106900  0.015900  0.318700  1
  C  C510  1  0.393100  0.984100  0.318700  1
  C  C511  1  0.106900  0.484100  0.681300  1
  C  C512  1  0.393100  0.515900  0.681300  1
  C  C513  1  0.893100  0.984100  0.681300  1
  C  C514  1  0.606900  0.015900  0.681300  1
  C  C515  1  0.893100  0.515900  0.318700  1
  C  C516  1  0.606900  0.484100  0.318700  1
  C  C517  1  0.115000  0.934300  0.335700  1
  C  C518  1  0.385000  0.065700  0.335700  1
  C  C519  1  0.115000  0.565700  0.664300  1
  C  C520  1  0.385000  0.434300  0.664300  1
  C  C521  1  0.885000  0.065700  0.664300  1
  C  C522  1  0.615000  0.934300  0.664300  1
  C  C523  1  0.885000  0.434300  0.335700  1
  C  C524  1  0.615000  0.565700  0.335700  1
  C  C525  1  0.198000  0.983200  0.327000  1
  C  C526  1  0.302000  0.016800  0.327000  1
  C  C527  1  0.198000  0.516800  0.673000  1
  C  C528  1  0.302000  0.483200  0.673000  1
  C  C529  1  0.802000  0.016800  0.673000  1
  C  C530  1  0.698000  0.983200  0.673000  1
  C  C531  1  0.802000  0.483200  0.327000  1
  C  C532  1  0.698000  0.516800  0.327000  1
  C  C533  1  0.881700  0.984500  0.803900  1
  C  C534  1  0.618300  0.015500  0.803900  1
  C  C535  1  0.881700  0.515500  0.196100  1
  C  C536  1  0.618300  0.484500  0.196100  1
  C  C537  1  0.118300  0.015500  0.196100  1
  C  C538  1  0.381700  0.984500  0.196100  1
  C  C539  1  0.118300  0.484500  0.803900  1
  C  C540  1  0.381700  0.515500  0.803900  1
  C  C541  1  0.891700  0.061000  0.811400  1
  C  C542  1  0.608300  0.939000  0.811400  1
  C  C543  1  0.891700  0.439000  0.188600  1
  C  C544  1  0.608300  0.561000  0.188600  1
  C  C545  1  0.108300  0.939000  0.188600  1
  C  C546  1  0.391700  0.061000  0.188600  1
  C  C547  1  0.108300  0.561000  0.811400  1
  C  C548  1  0.391700  0.439000  0.811400  1
  C  C549  1  0.888200  0.013500  0.857500  1
  C  C550  1  0.611800  0.986500  0.857500  1
  C  C551  1  0.888200  0.486500  0.142500  1
  C  C552  1  0.611800  0.513500  0.142500  1
  C  C553  1  0.111800  0.986500  0.142500  1
  C  C554  1  0.388200  0.013500  0.142500  1
  C  C555  1  0.111800  0.513500  0.857500  1
  C  C556  1  0.388200  0.486500  0.857500  1
  C  C557  1  0.854000  0.047300  0.832600  1
  C  C558  1  0.646000  0.952700  0.832600  1
  C  C559  1  0.854000  0.452700  0.167400  1
  C  C560  1  0.646000  0.547300  0.167400  1
  C  C561  1  0.146000  0.952700  0.167400  1
  C  C562  1  0.354000  0.047300  0.167400  1
  C  C563  1  0.146000  0.547300  0.832600  1
  C  C564  1  0.354000  0.452700  0.832600  1
  C  C565  1  0.901300  0.037900  0.776800  1
  C  C566  1  0.598700  0.962100  0.776800  1
  C  C567  1  0.901300  0.462100  0.223200  1
  C  C568  1  0.598700  0.537900  0.223200  1
  C  C569  1  0.098700  0.962100  0.223200  1
  C  C570  1  0.401300  0.037900  0.223200  1
  C  C571  1  0.098700  0.537900  0.776800  1
  C  C572  1  0.401300  0.462100  0.776800  1
  C  C573  1  0.623800  0.250600  0.899600  1
  C  C574  1  0.876200  0.749400  0.899600  1
  C  C575  1  0.623800  0.249400  0.100400  1
  C  C576  1  0.876200  0.750600  0.100400  1
  C  C577  1  0.376200  0.749400  0.100400  1
  C  C578  1  0.123800  0.250600  0.100400  1
  C  C579  1  0.376200  0.750600  0.899600  1
  C  C580  1  0.123800  0.249400  0.899600  1
  C  C581  1  0.601700  0.229400  0.926500  1
  C  C582  1  0.898300  0.770600  0.926500  1
  C  C583  1  0.601700  0.270600  0.073500  1
  C  C584  1  0.898300  0.729400  0.073500  1
  C  C585  1  0.398300  0.770600  0.073500  1
  C  C586  1  0.101700  0.229400  0.073500  1
  C  C587  1  0.398300  0.729400  0.926500  1
  C  C588  1  0.101700  0.270600  0.926500  1
  C  C589  1  0.561300  0.194000  0.918700  1
  C  C590  1  0.938700  0.806000  0.918700  1
  C  C591  1  0.561300  0.306000  0.081300  1
  C  C592  1  0.938700  0.694000  0.081300  1
  C  C593  1  0.438700  0.806000  0.081300  1
  C  C594  1  0.061300  0.194000  0.081300  1
  C  C595  1  0.438700  0.694000  0.918700  1
  C  C596  1  0.061300  0.306000  0.918700  1
  C  C597  1  0.603400  0.243400  0.957400  1
  C  C598  1  0.896600  0.756600  0.957400  1
  C  C599  1  0.603400  0.256600  0.042600  1
  C  C600  1  0.896600  0.743400  0.042600  1
  C  C601  1  0.396600  0.756600  0.042600  1
  C  C602  1  0.103400  0.243400  0.042600  1
  C  C603  1  0.396600  0.743400  0.957400  1
  C  C604  1  0.103400  0.256600  0.957400  1
  C  C605  1  0.811800  0.160200  0.969700  1
  C  C606  1  0.688200  0.839800  0.969700  1
  C  C607  1  0.811800  0.339800  0.030300  1
  C  C608  1  0.688200  0.660200  0.030300  1
  C  C609  1  0.188200  0.839800  0.030300  1
  C  C610  1  0.311800  0.160200  0.030300  1
  C  C611  1  0.188200  0.660200  0.969700  1
  C  C612  1  0.311800  0.339800  0.969700  1
  C  C613  1  0.776000  0.193700  0.950700  1
  C  C614  1  0.724000  0.806300  0.950700  1
  C  C615  1  0.776000  0.306300  0.049300  1
  C  C616  1  0.724000  0.693700  0.049300  1
  C  C617  1  0.224000  0.806300  0.049300  1
  C  C618  1  0.276000  0.193700  0.049300  1
  C  C619  1  0.224000  0.693700  0.950700  1
  C  C620  1  0.276000  0.306300  0.950700  1
  C  C621  1  0.785200  0.235100  0.923900  1
  C  C622  1  0.714800  0.764900  0.923900  1
  C  C623  1  0.785200  0.264900  0.076100  1
  C  C624  1  0.714800  0.735100  0.076100  1
  C  C625  1  0.214800  0.764900  0.076100  1
  C  C626  1  0.285200  0.235100  0.076100  1
  C  C627  1  0.214800  0.735100  0.923900  1
  C  C628  1  0.285200  0.264900  0.923900  1
  C  C629  1  0.069000  0.112700  0.036900  1
  C  C630  1  0.431000  0.887300  0.036900  1
  C  C631  1  0.069000  0.387300  0.963100  1
  C  C632  1  0.431000  0.612700  0.963100  1
  C  C633  1  0.931000  0.887300  0.963100  1
  C  C634  1  0.569000  0.112700  0.963100  1
  C  C635  1  0.931000  0.612700  0.036900  1
  C  C636  1  0.569000  0.387300  0.036900  1
  C  C637  1  0.132200  0.087200  0.990700  1
  C  C638  1  0.367800  0.912800  0.990700  1
  C  C639  1  0.132200  0.412800  0.009300  1
  C  C640  1  0.367800  0.587200  0.009300  1
  C  C641  1  0.867800  0.912800  0.009300  1
  C  C642  1  0.632200  0.087200  0.009300  1
  C  C643  1  0.867800  0.587200  0.990700  1
  C  C644  1  0.632200  0.412800  0.990700  1
  C  C645  1  0.094200  0.106300  0.003400  1
  C  C646  1  0.405800  0.893700  0.003400  1
  C  C647  1  0.094200  0.393700  0.996600  1
  C  C648  1  0.405800  0.606300  0.996600  1
  C  C649  1  0.905800  0.893700  0.996600  1
  C  C650  1  0.594200  0.106300  0.996600  1
  C  C651  1  0.905800  0.606300  0.003400  1
  C  C652  1  0.594200  0.393700  0.003400  1
  C  C653  1  0.931900  0.158200  0.032000  1
  C  C654  1  0.568100  0.841800  0.032000  1
  C  C655  1  0.931900  0.341800  0.968000  1
  C  C656  1  0.568100  0.658200  0.968000  1
  C  C657  1  0.068100  0.841800  0.968000  1
  C  C658  1  0.431900  0.158200  0.968000  1
  C  C659  1  0.068100  0.658200  0.032000  1
  C  C660  1  0.431900  0.341800  0.032000  1
  C  C661  1  0.827200  0.150500  0.088400  1
  C  C662  1  0.672800  0.849500  0.088400  1
  C  C663  1  0.827200  0.349500  0.911600  1
  C  C664  1  0.672800  0.650500  0.911600  1
  C  C665  1  0.172800  0.849500  0.911600  1
  C  C666  1  0.327200  0.150500  0.911600  1
  C  C667  1  0.172800  0.650500  0.088400  1
  C  C668  1  0.327200  0.349500  0.088400  1
  C  C669  1  0.872500  0.181500  0.106200  1
  C  C670  1  0.627500  0.818500  0.106200  1
  C  C671  1  0.872500  0.318500  0.893800  1
  C  C672  1  0.627500  0.681500  0.893800  1
  C  C673  1  0.127500  0.818500  0.893800  1
  C  C674  1  0.372500  0.181500  0.893800  1
  C  C675  1  0.127500  0.681500  0.106200  1
  C  C676  1  0.372500  0.318500  0.106200  1
  C  C677  1  0.797400  0.102900  0.110100  1
  C  C678  1  0.702600  0.897100  0.110100  1
  C  C679  1  0.797400  0.397100  0.889900  1
  C  C680  1  0.702600  0.602900  0.889900  1
  C  C681  1  0.202600  0.897100  0.889900  1
  C  C682  1  0.297400  0.102900  0.889900  1
  C  C683  1  0.202600  0.602900  0.110100  1
  C  C684  1  0.297400  0.397100  0.110100  1
  C  C685  1  0.943700  0.217000  0.010800  1
  C  C686  1  0.556300  0.783000  0.010800  1
  C  C687  1  0.943700  0.283000  0.989200  1
  C  C688  1  0.556300  0.717000  0.989200  1
  C  C689  1  0.056300  0.783000  0.989200  1
  C  C690  1  0.443700  0.217000  0.989200  1
  C  C691  1  0.056300  0.717000  0.010800  1
  C  C692  1  0.443700  0.283000  0.010800  1
  C  C693  1  0.170700  0.157000  0.234000  1
  C  C694  1  0.329300  0.843000  0.234000  1
  C  C695  1  0.170700  0.343000  0.766000  1
  C  C696  1  0.329300  0.657000  0.766000  1
  C  C697  1  0.829300  0.843000  0.766000  1
  C  C698  1  0.670700  0.157000  0.766000  1
  C  C699  1  0.829300  0.657000  0.234000  1
  C  C700  1  0.670700  0.343000  0.234000  1
  C  C701  1  0.233800  0.079200  0.099100  1.0
  C  C702  1  0.266200  0.920800  0.099100  1.0
  C  C703  1  0.233800  0.420800  0.900900  1.0
  C  C704  1  0.266200  0.579200  0.900900  1.0
  C  C705  1  0.766200  0.920800  0.900900  1.0
  C  C706  1  0.733800  0.079200  0.900900  1.0
  C  C707  1  0.766200  0.579200  0.099100  1.0
  C  C708  1  0.733800  0.420800  0.099100  1.0
  C  C709  1  0.175600  0.070700  0.102310  1.0
  C  C710  1  0.324400  0.929300  0.102310  1.0
  C  C711  1  0.175600  0.429300  0.897690  1.0
  C  C712  1  0.324400  0.570700  0.897690  1.0
  C  C713  1  0.824400  0.929300  0.897690  1.0
  C  C714  1  0.675600  0.070700  0.897690  1.0
  C  C715  1  0.824400  0.570700  0.102310  1.0
  C  C716  1  0.675600  0.429300  0.102310  1.0
  C  C717  1  0.140800  0.096200  0.123240  1.0
  C  C718  1  0.359200  0.903800  0.123240  1.0
  C  C719  1  0.140800  0.403800  0.876760  1.0
  C  C720  1  0.359200  0.596200  0.876760  1.0
  C  C721  1  0.859200  0.903800  0.876760  1.0
  C  C722  1  0.640800  0.096200  0.876760  1.0
  C  C723  1  0.859200  0.596200  0.123240  1.0
  C  C724  1  0.640800  0.403800  0.123240  1.0
  C  C725  1  0.165800  0.131300  0.139680  1.0
  C  C726  1  0.334200  0.868700  0.139680  1.0
  C  C727  1  0.165800  0.368700  0.860320  1.0
  C  C728  1  0.334200  0.631300  0.860320  1.0
  C  C729  1  0.834200  0.868700  0.860320  1.0
  C  C730  1  0.665800  0.131300  0.860320  1.0
  C  C731  1  0.834200  0.631300  0.139680  1.0
  C  C732  1  0.665800  0.368700  0.139680  1.0
  C  C733  1  0.224200  0.140100  0.136960  1.0
  C  C734  1  0.275800  0.859900  0.136960  1.0
  C  C735  1  0.224200  0.359900  0.863040  1.0
  C  C736  1  0.275800  0.640100  0.863040  1.0
  C  C737  1  0.775800  0.859900  0.863040  1.0
  C  C738  1  0.724200  0.140100  0.863040  1.0
  C  C739  1  0.775800  0.640100  0.136960  1.0
  C  C740  1  0.724200  0.359900  0.136960  1.0
  C  C741  1  0.257800  0.114000  0.116770  1.0
  C  C742  1  0.242200  0.886000  0.116770  1.0
  C  C743  1  0.257800  0.386000  0.883230  1.0
  C  C744  1  0.242200  0.614000  0.883230  1.0
  C  C745  1  0.742200  0.886000  0.883230  1.0
  C  C746  1  0.757800  0.114000  0.883230  1.0
  C  C747  1  0.742200  0.614000  0.116770  1.0
  C  C748  1  0.757800  0.386000  0.116770  1.0
  C  C749  1  0.010100  0.083500  0.227620  1.0
  C  C750  1  0.489900  0.916500  0.227620  1.0
  C  C751  1  0.010100  0.416500  0.772380  1.0
  C  C752  1  0.489900  0.583500  0.772380  1.0
  C  C753  1  0.989900  0.916500  0.772380  1.0
  C  C754  1  0.510100  0.083500  0.772380  1.0
  C  C755  1  0.989900  0.583500  0.227620  1.0
  C  C756  1  0.510100  0.416500  0.227620  1.0
  C  C757  1  0.992800  0.042800  0.216730  1.0
  C  C758  1  0.507200  0.957200  0.216730  1.0
  C  C759  1  0.992800  0.457200  0.783270  1.0
  C  C760  1  0.507200  0.542800  0.783270  1.0
  C  C761  1  0.007200  0.957200  0.783270  1.0
  C  C762  1  0.492800  0.042800  0.783270  1.0
  C  C763  1  0.007200  0.542800  0.216730  1.0
  C  C764  1  0.492800  0.457200  0.216730  1.0
  C  C765  1  0.980500  0.010200  0.240700  1.0
  C  C766  1  0.519500  0.989800  0.240700  1.0
  C  C767  1  0.980500  0.489800  0.759300  1.0
  C  C768  1  0.519500  0.510200  0.759300  1.0
  C  C769  1  0.019500  0.989800  0.759300  1.0
  C  C770  1  0.480500  0.010200  0.759300  1.0
  C  C771  1  0.019500  0.510200  0.240700  1.0
  C  C772  1  0.480500  0.489800  0.240700  1.0
  C  C773  1  0.983600  0.019100  0.274910  1.0
  C  C774  1  0.516400  0.980900  0.274910  1.0
  C  C775  1  0.983600  0.480900  0.725090  1.0
  C  C776  1  0.516400  0.519100  0.725090  1.0
  C  C777  1  0.016400  0.980900  0.725090  1.0
  C  C778  1  0.483600  0.019100  0.725090  1.0
  C  C779  1  0.016400  0.519100  0.274910  1.0
  C  C780  1  0.483600  0.480900  0.274910  1.0
  C  C781  1  0.999300  0.061000  0.285800  1.0
  C  C782  1  0.500700  0.939000  0.285800  1.0
  C  C783  1  0.999300  0.439000  0.714200  1.0
  C  C784  1  0.500700  0.561000  0.714200  1.0
  C  C785  1  0.000700  0.939000  0.714200  1.0
  C  C786  1  0.499300  0.061000  0.714200  1.0
  C  C787  1  0.000700  0.561000  0.285800  1.0
  C  C788  1  0.499300  0.439000  0.285800  1.0
  C  C789  1  0.011200  0.092370  0.262310  1.0
  C  C790  1  0.488800  0.907630  0.262310  1.0
  C  C791  1  0.011200  0.407630  0.737690  1.0
  C  C792  1  0.488800  0.592370  0.737690  1.0
  C  C793  1  0.988800  0.907630  0.737690  1.0
  C  C794  1  0.511200  0.092370  0.737690  1.0
  C  C795  1  0.988800  0.592370  0.262310  1.0
  C  C796  1  0.511200  0.407630  0.262310  1.0
  C  C797  1  0.148600  0.127700  0.362170  1.0
  C  C798  1  0.351400  0.872300  0.362170  1.0
  C  C799  1  0.148600  0.372300  0.637830  1.0
  C  C800  1  0.351400  0.627700  0.637830  1.0
  C  C801  1  0.851400  0.872300  0.637830  1.0
  C  C802  1  0.648600  0.127700  0.637830  1.0
  C  C803  1  0.851400  0.627700  0.362170  1.0
  C  C804  1  0.648600  0.372300  0.362170  1.0
  C  C805  1  0.144600  0.090800  0.381140  1.0
  C  C806  1  0.355400  0.909200  0.381140  1.0
  C  C807  1  0.144600  0.409200  0.618860  1.0
  C  C808  1  0.355400  0.590800  0.618860  1.0
  C  C809  1  0.855400  0.909200  0.618860  1.0
  C  C810  1  0.644600  0.090800  0.618860  1.0
  C  C811  1  0.855400  0.590800  0.381140  1.0
  C  C812  1  0.644600  0.409200  0.381140  1.0
  C  C813  1  0.194200  0.071500  0.395060  1.0
  C  C814  1  0.305800  0.928500  0.395060  1.0
  C  C815  1  0.194200  0.428500  0.604940  1.0
  C  C816  1  0.305800  0.571500  0.604940  1.0
  C  C817  1  0.805800  0.928500  0.604940  1.0
  C  C818  1  0.694200  0.071500  0.604940  1.0
  C  C819  1  0.805800  0.571500  0.395060  1.0
  C  C820  1  0.694200  0.428500  0.395060  1.0
  C  C821  1  0.246700  0.093200  0.391780  1.0
  C  C822  1  0.253300  0.906800  0.391780  1.0
  C  C823  1  0.246700  0.406800  0.608220  1.0
  C  C824  1  0.253300  0.593200  0.608220  1.0
  C  C825  1  0.753300  0.906800  0.608220  1.0
  C  C826  1  0.746700  0.093200  0.608220  1.0
  C  C827  1  0.753300  0.593200  0.391780  1.0
  C  C828  1  0.746700  0.406800  0.391780  1.0
  C  C829  1  0.251000  0.131400  0.372650  1.0
  C  C830  1  0.249000  0.868600  0.372650  1.0
  C  C831  1  0.251000  0.368600  0.627350  1.0
  C  C832  1  0.249000  0.631400  0.627350  1.0
  C  C833  1  0.749000  0.868600  0.627350  1.0
  C  C834  1  0.751000  0.131400  0.627350  1.0
  C  C835  1  0.749000  0.631400  0.372650  1.0
  C  C836  1  0.751000  0.368600  0.372650  1.0
  C  C837  1  0.201800  0.148400  0.358430  1.0
  C  C838  1  0.298200  0.851600  0.358430  1.0
  C  C839  1  0.201800  0.351600  0.641570  1.0
  C  C840  1  0.298200  0.648400  0.641570  1.0
  C  C841  1  0.798200  0.851600  0.641570  1.0
  C  C842  1  0.701800  0.148400  0.641570  1.0
  C  C843  1  0.798200  0.648400  0.358430  1.0
  C  C844  1  0.701800  0.351600  0.358430  1.0
  C  C845  1  0.103900  0.834400  0.217030  1.0
  C  C846  1  0.396100  0.165600  0.217030  1.0
  C  C847  1  0.103900  0.665600  0.782970  1.0
  C  C848  1  0.396100  0.334400  0.782970  1.0
  C  C849  1  0.896100  0.165600  0.782970  1.0
  C  C850  1  0.603900  0.834400  0.782970  1.0
  C  C851  1  0.896100  0.334400  0.217030  1.0
  C  C852  1  0.603900  0.665600  0.217030  1.0
  C  C853  1  0.056000  0.856000  0.230240  1.0
  C  C854  1  0.444000  0.144000  0.230240  1.0
  C  C855  1  0.056000  0.644000  0.769760  1.0
  C  C856  1  0.444000  0.356000  0.769760  1.0
  C  C857  1  0.944000  0.144000  0.769760  1.0
  C  C858  1  0.556000  0.856000  0.769760  1.0
  C  C859  1  0.944000  0.356000  0.230240  1.0
  C  C860  1  0.556000  0.644000  0.230240  1.0
  C  C861  1  0.048100  0.858700  0.264600  1.0
  C  C862  1  0.451900  0.141300  0.264600  1.0
  C  C863  1  0.048100  0.641300  0.735400  1.0
  C  C864  1  0.451900  0.358700  0.735400  1.0
  C  C865  1  0.951900  0.141300  0.735400  1.0
  C  C866  1  0.548100  0.858700  0.735400  1.0
  C  C867  1  0.951900  0.358700  0.264600  1.0
  C  C868  1  0.548100  0.641300  0.264600  1.0
  C  C869  1  0.413200  0.162300  0.286100  1.0
  C  C870  1  0.086800  0.837700  0.286100  1.0
  C  C871  1  0.413200  0.337700  0.713900  1.0
  C  C872  1  0.086800  0.662300  0.713900  1.0
  C  C873  1  0.586800  0.837700  0.713900  1.0
  C  C874  1  0.913200  0.162300  0.713900  1.0
  C  C875  1  0.586800  0.662300  0.286100  1.0
  C  C876  1  0.913200  0.337700  0.286100  1.0
  C  C877  1  0.367200  0.185200  0.273190  1.0
  C  C878  1  0.132800  0.814800  0.273190  1.0
  C  C879  1  0.367200  0.314800  0.726810  1.0
  C  C880  1  0.132800  0.685200  0.726810  1.0
  C  C881  1  0.632800  0.814800  0.726810  1.0
  C  C882  1  0.867200  0.185200  0.726810  1.0
  C  C883  1  0.632800  0.685200  0.273190  1.0
  C  C884  1  0.867200  0.314800  0.273190  1.0
  C  C885  1  0.360200  0.187500  0.237990  1.0
  C  C886  1  0.139800  0.812500  0.237990  1.0
  C  C887  1  0.360200  0.312500  0.762010  1.0
  C  C888  1  0.139800  0.687500  0.762010  1.0
  C  C889  1  0.639800  0.812500  0.762010  1.0
  C  C890  1  0.860200  0.187500  0.762010  1.0
  C  C891  1  0.639800  0.687500  0.237990  1.0
  C  C892  1  0.860200  0.312500  0.237990  1.0
  C  C893  1  0.131400  0.987500  0.050600  1.0
  C  C894  1  0.368600  0.012500  0.050600  1.0
  C  C895  1  0.131400  0.512500  0.949400  1.0
  C  C896  1  0.368600  0.487500  0.949400  1.0
  C  C897  1  0.868600  0.012500  0.949400  1.0
  C  C898  1  0.631400  0.987500  0.949400  1.0
  C  C899  1  0.868600  0.487500  0.050600  1.0
  C  C900  1  0.631400  0.512500  0.050600  1.0
  C  C901  1  0.153700  0.959900  0.028000  1.0
  C  C902  1  0.346300  0.040100  0.028000  1.0
  C  C903  1  0.153700  0.540100  0.972000  1.0
  C  C904  1  0.346300  0.459900  0.972000  1.0
  C  C905  1  0.846300  0.040100  0.972000  1.0
  C  C906  1  0.653700  0.959900  0.972000  1.0
  C  C907  1  0.846300  0.459900  0.028000  1.0
  C  C908  1  0.653700  0.540100  0.028000  1.0
  C  C909  1  0.115900  0.934800  0.008900  1.0
  C  C910  1  0.384100  0.065200  0.008900  1.0
  C  C911  1  0.115900  0.565200  0.991100  1.0
  C  C912  1  0.384100  0.434800  0.991100  1.0
  C  C913  1  0.884100  0.065200  0.991100  1.0
  C  C914  1  0.615900  0.934800  0.991100  1.0
  C  C915  1  0.884100  0.434800  0.008900  1.0
  C  C916  1  0.615900  0.565200  0.008900  1.0
  C  C917  1  0.058200  0.938200  0.012900  1.0
  C  C918  1  0.441800  0.061800  0.012900  1.0
  C  C919  1  0.058200  0.561800  0.987100  1.0
  C  C920  1  0.441800  0.438200  0.987100  1.0
  C  C921  1  0.941800  0.061800  0.987100  1.0
  C  C922  1  0.558200  0.938200  0.987100  1.0
  C  C923  1  0.941800  0.438200  0.012900  1.0
  C  C924  1  0.558200  0.561800  0.012900  1.0
  C  C925  1  0.037700  0.965600  0.035500  1.0
  C  C926  1  0.462300  0.034400  0.035500  1.0
  C  C927  1  0.037700  0.534400  0.964500  1.0
  C  C928  1  0.462300  0.465600  0.964500  1.0
  C  C929  1  0.962300  0.034400  0.964500  1.0
  C  C930  1  0.537700  0.965600  0.964500  1.0
  C  C931  1  0.962300  0.465600  0.035500  1.0
  C  C932  1  0.537700  0.534400  0.035500  1.0
  C  C933  1  0.073800  0.991100  0.054900  1.0
  C  C934  1  0.426200  0.008900  0.054900  1.0
  C  C935  1  0.073800  0.508900  0.945100  1.0
  C  C936  1  0.426200  0.491100  0.945100  1.0
  C  C937  1  0.926200  0.008900  0.945100  1.0
  C  C938  1  0.573800  0.991100  0.945100  1.0
  C  C939  1  0.926200  0.491100  0.054900  1.0
  C  C940  1  0.573800  0.508900  0.054900  1.0
  C  C941  1  0.057000  0.194000  0.172790  1.0
  C  C942  1  0.443000  0.806000  0.172790  1.0
  C  C943  1  0.057000  0.306000  0.827210  1.0
  C  C944  1  0.443000  0.694000  0.827210  1.0
  C  C945  1  0.943000  0.806000  0.827210  1.0
  C  C946  1  0.557000  0.194000  0.827210  1.0
  C  C947  1  0.943000  0.694000  0.172790  1.0
  C  C948  1  0.557000  0.306000  0.172790  1.0
  C  C949  1  0.085700  0.229900  0.181200  1.0
  C  C950  1  0.414300  0.770100  0.181200  1.0
  C  C951  1  0.085700  0.270100  0.818800  1.0
  C  C952  1  0.414300  0.729900  0.818800  1.0
  C  C953  1  0.914300  0.770100  0.818800  1.0
  C  C954  1  0.585700  0.229900  0.818800  1.0
  C  C955  1  0.914300  0.729900  0.181200  1.0
  C  C956  1  0.585700  0.270100  0.181200  1.0
  C  C957  1  0.055600  0.266100  0.187700  1.0
  C  C958  1  0.444400  0.733900  0.187700  1.0
  C  C959  1  0.055600  0.233900  0.812300  1.0
  C  C960  1  0.444400  0.766100  0.812300  1.0
  C  C961  1  0.944400  0.733900  0.812300  1.0
  C  C962  1  0.555600  0.266100  0.812300  1.0
  C  C963  1  0.944400  0.766100  0.187700  1.0
  C  C964  1  0.555600  0.233900  0.187700  1.0
  C  C965  1  0.997700  0.266200  0.186800  1.0
  C  C966  1  0.502300  0.733800  0.186800  1.0
  C  C967  1  0.997700  0.233800  0.813200  1.0
  C  C968  1  0.502300  0.766200  0.813200  1.0
  C  C969  1  0.002300  0.733800  0.813200  1.0
  C  C970  1  0.497700  0.266200  0.813200  1.0
  C  C971  1  0.002300  0.766200  0.186800  1.0
  C  C972  1  0.497700  0.233800  0.186800  1.0
  C  C973  1  0.969200  0.229600  0.180200  1.0
  C  C974  1  0.530800  0.770400  0.180200  1.0
  C  C975  1  0.969200  0.270400  0.819800  1.0
  C  C976  1  0.530800  0.729600  0.819800  1.0
  C  C977  1  0.030800  0.770400  0.819800  1.0
  C  C978  1  0.469200  0.229600  0.819800  1.0
  C  C979  1  0.030800  0.729600  0.180200  1.0
  C  C980  1  0.469200  0.270400  0.180200  1.0
  C  C981  1  0.998700  0.193500  0.173100  1.0
  C  C982  1  0.501300  0.806500  0.173100  1.0
  C  C983  1  0.998700  0.306500  0.826900  1.0
  C  C984  1  0.501300  0.693500  0.826900  1.0
  C  C985  1  0.001300  0.806500  0.826900  1.0
  C  C986  1  0.498700  0.193500  0.826900  1.0
  C  C987  1  0.001300  0.693500  0.173100  1.0
  C  C988  1  0.498700  0.306500  0.173100  1.0
  C  C989  1  0.394200  0.156000  0.110400  1.0
  C  C990  1  0.105800  0.844000  0.110400  1.0
  C  C991  1  0.394200  0.344000  0.889600  1.0
  C  C992  1  0.105800  0.656000  0.889600  1.0
  C  C993  1  0.605800  0.844000  0.889600  1.0
  C  C994  1  0.894200  0.156000  0.889600  1.0
  C  C995  1  0.605800  0.656000  0.110400  1.0
  C  C996  1  0.894200  0.344000  0.110400  1.0
  C  C997  1  0.420600  0.194000  0.118100  1.0
  C  C998  1  0.079400  0.806000  0.118100  1.0
  C  C999  1  0.420600  0.306000  0.881900  1.0
  C  C1000  1  0.079400  0.694000  0.881900  1.0
  C  C1001  1  0.579400  0.806000  0.881900  1.0
  C  C1002  1  0.920600  0.194000  0.881900  1.0
  C  C1003  1  0.579400  0.694000  0.118100  1.0
  C  C1004  1  0.920600  0.306000  0.118100  1.0
  C  C1005  1  0.472900  0.203200  0.104500  1.0
  C  C1006  1  0.027100  0.796800  0.104500  1.0
  C  C1007  1  0.472900  0.296800  0.895500  1.0
  C  C1008  1  0.027100  0.703200  0.895500  1.0
  C  C1009  1  0.527100  0.796800  0.895500  1.0
  C  C1010  1  0.972900  0.203200  0.895500  1.0
  C  C1011  1  0.527100  0.703200  0.104500  1.0
  C  C1012  1  0.972900  0.296800  0.104500  1.0
  C  C1013  1  0.490800  0.187900  0.078400  1.0
  C  C1014  1  0.009200  0.812100  0.078400  1.0
  C  C1015  1  0.490800  0.312100  0.921600  1.0
  C  C1016  1  0.009200  0.687900  0.921600  1.0
  C  C1017  1  0.509200  0.812100  0.921600  1.0
  C  C1018  1  0.990800  0.187900  0.921600  1.0
  C  C1019  1  0.509200  0.687900  0.078400  1.0
  C  C1020  1  0.990800  0.312100  0.078400  1.0
  C  C1021  1  0.468300  0.148500  0.070500  1.0
  C  C1022  1  0.031700  0.851500  0.070500  1.0
  C  C1023  1  0.468300  0.351500  0.929500  1.0
  C  C1024  1  0.031700  0.648500  0.929500  1.0
  C  C1025  1  0.531700  0.851500  0.929500  1.0
  C  C1026  1  0.968300  0.148500  0.929500  1.0
  C  C1027  1  0.531700  0.648500  0.070500  1.0
  C  C1028  1  0.968300  0.351500  0.070500  1.0
  C  C1029  1  0.417500  0.135600  0.084000  1.0
  C  C1030  1  0.082500  0.864400  0.084000  1.0
  C  C1031  1  0.417500  0.364400  0.916000  1.0
  C  C1032  1  0.082500  0.635600  0.916000  1.0
  C  C1033  1  0.582500  0.864400  0.916000  1.0
  C  C1034  1  0.917500  0.135600  0.916000  1.0
  C  C1035  1  0.582500  0.635600  0.084000  1.0
  C  C1036  1  0.917500  0.364400  0.084000  1.0
  C  C1037  1  0.971200  0.043400  0.130990  1.0
  C  C1038  1  0.528800  0.956600  0.130990  1.0
  C  C1039  1  0.971200  0.456600  0.869010  1.0
  C  C1040  1  0.528800  0.543400  0.869010  1.0
  C  C1041  1  0.028800  0.956600  0.869010  1.0
  C  C1042  1  0.471200  0.043400  0.869010  1.0
  C  C1043  1  0.028800  0.543400  0.130990  1.0
  C  C1044  1  0.471200  0.456600  0.130990  1.0
  C  C1045  1  0.967900  0.073800  0.107400  1.0
  C  C1046  1  0.532100  0.926200  0.107400  1.0
  C  C1047  1  0.967900  0.426200  0.892600  1.0
  C  C1048  1  0.532100  0.573800  0.892600  1.0
  C  C1049  1  0.032100  0.926200  0.892600  1.0
  C  C1050  1  0.467900  0.073800  0.892600  1.0
  C  C1051  1  0.032100  0.573800  0.107400  1.0
  C  C1052  1  0.467900  0.426200  0.107400  1.0
  C  C1053  1  0.943700  0.064000  0.077300  1.0
  C  C1054  1  0.556300  0.936000  0.077300  1.0
  C  C1055  1  0.943700  0.436000  0.922700  1.0
  C  C1056  1  0.556300  0.564000  0.922700  1.0
  C  C1057  1  0.056300  0.936000  0.922700  1.0
  C  C1058  1  0.443700  0.064000  0.922700  1.0
  C  C1059  1  0.056300  0.564000  0.077300  1.0
  C  C1060  1  0.443700  0.436000  0.077300  1.0
  C  C1061  1  0.924000  0.023600  0.070600  1.0
  C  C1062  1  0.576000  0.976400  0.070600  1.0
  C  C1063  1  0.924000  0.476400  0.929400  1.0
  C  C1064  1  0.576000  0.523600  0.929400  1.0
  C  C1065  1  0.076000  0.976400  0.929400  1.0
  C  C1066  1  0.424000  0.023600  0.929400  1.0
  C  C1067  1  0.076000  0.523600  0.070600  1.0
  C  C1068  1  0.424000  0.476400  0.070600  1.0
  C  C1069  1  0.928800  0.992900  0.095900  1.0
  C  C1070  1  0.571200  0.007100  0.095900  1.0
  C  C1071  1  0.928800  0.507100  0.904100  1.0
  C  C1072  1  0.571200  0.492900  0.904100  1.0
  C  C1073  1  0.071200  0.007100  0.904100  1.0
  C  C1074  1  0.428800  0.992900  0.904100  1.0
  C  C1075  1  0.071200  0.492900  0.095900  1.0
  C  C1076  1  0.428800  0.507100  0.095900  1.0
  C  C1077  1  0.952000  0.002200  0.125400  1.0
  C  C1078  1  0.548000  0.997800  0.125400  1.0
  C  C1079  1  0.952000  0.497800  0.874600  1.0
  C  C1080  1  0.548000  0.502200  0.874600  1.0
  C  C1081  1  0.048000  0.997800  0.874600  1.0
  C  C1082  1  0.452000  0.002200  0.874600  1.0
  C  C1083  1  0.048000  0.502200  0.125400  1.0
  C  C1084  1  0.452000  0.497800  0.125400  1.0
  C  C1085  1  0.937800  0.934100  0.324170  1.0
  C  C1086  1  0.562200  0.065900  0.324170  1.0
  C  C1087  1  0.937800  0.565900  0.675830  1.0
  C  C1088  1  0.562200  0.434100  0.675830  1.0
  C  C1089  1  0.062200  0.065900  0.675830  1.0
  C  C1090  1  0.437800  0.934100  0.675830  1.0
  C  C1091  1  0.062200  0.434100  0.324170  1.0
  C  C1092  1  0.437800  0.565900  0.324170  1.0
  C  C1093  1  0.912000  0.895200  0.320300  1.0
  C  C1094  1  0.588000  0.104800  0.320300  1.0
  C  C1095  1  0.912000  0.604800  0.679700  1.0
  C  C1096  1  0.588000  0.395200  0.679700  1.0
  C  C1097  1  0.088000  0.104800  0.679700  1.0
  C  C1098  1  0.412000  0.895200  0.679700  1.0
  C  C1099  1  0.088000  0.395200  0.320300  1.0
  C  C1100  1  0.412000  0.604800  0.320300  1.0
  C  C1101  1  0.891400  0.875000  0.347500  1.0
  C  C1102  1  0.608600  0.125000  0.347500  1.0
  C  C1103  1  0.891400  0.625000  0.652500  1.0
  C  C1104  1  0.608600  0.375000  0.652500  1.0
  C  C1105  1  0.108600  0.125000  0.652500  1.0
  C  C1106  1  0.391400  0.875000  0.652500  1.0
  C  C1107  1  0.108600  0.375000  0.347500  1.0
  C  C1108  1  0.391400  0.625000  0.347500  1.0
  C  C1109  1  0.896800  0.891100  0.378300  1.0
  C  C1110  1  0.603200  0.108900  0.378300  1.0
  C  C1111  1  0.896800  0.608900  0.621700  1.0
  C  C1112  1  0.603200  0.391100  0.621700  1.0
  C  C1113  1  0.103200  0.108900  0.621700  1.0
  C  C1114  1  0.396800  0.891100  0.621700  1.0
  C  C1115  1  0.103200  0.391100  0.378300  1.0
  C  C1116  1  0.396800  0.608900  0.378300  1.0
  C  C1117  1  0.924100  0.930300  0.382000  1.0
  C  C1118  1  0.575900  0.069700  0.382000  1.0
  C  C1119  1  0.924100  0.569700  0.618000  1.0
  C  C1120  1  0.575900  0.430300  0.618000  1.0
  C  C1121  1  0.075900  0.069700  0.618000  1.0
  C  C1122  1  0.424100  0.930300  0.618000  1.0
  C  C1123  1  0.075900  0.430300  0.382000  1.0
  C  C1124  1  0.424100  0.569700  0.382000  1.0
  C  C1125  1  0.945100  0.951500  0.355000  1.0
  C  C1126  1  0.554900  0.048500  0.355000  1.0
  C  C1127  1  0.945100  0.548500  0.645000  1.0
  C  C1128  1  0.554900  0.451500  0.645000  1.0
  C  C1129  1  0.054900  0.048500  0.645000  1.0
  C  C1130  1  0.445100  0.951500  0.645000  1.0
  C  C1131  1  0.054900  0.451500  0.355000  1.0
  C  C1132  1  0.445100  0.548500  0.355000  1.0
  C  C1133  1  0.029100  0.191900  0.300560  1.0
  C  C1134  1  0.470900  0.808100  0.300560  1.0
  C  C1135  1  0.029100  0.308100  0.699440  1.0
  C  C1136  1  0.470900  0.691900  0.699440  1.0
  C  C1137  1  0.970900  0.808100  0.699440  1.0
  C  C1138  1  0.529100  0.191900  0.699440  1.0
  C  C1139  1  0.970900  0.691900  0.300560  1.0
  C  C1140  1  0.529100  0.308100  0.300560  1.0
  C  C1141  1  0.024700  0.208700  0.331270  1.0
  C  C1142  1  0.475300  0.791300  0.331270  1.0
  C  C1143  1  0.024700  0.291300  0.668730  1.0
  C  C1144  1  0.475300  0.708700  0.668730  1.0
  C  C1145  1  0.975300  0.791300  0.668730  1.0
  C  C1146  1  0.524700  0.208700  0.668730  1.0
  C  C1147  1  0.975300  0.708700  0.331270  1.0
  C  C1148  1  0.524700  0.291300  0.331270  1.0
  C  C1149  1  0.023900  0.252400  0.335200  1.0
  C  C1150  1  0.476100  0.747600  0.335200  1.0
  C  C1151  1  0.023900  0.247600  0.664800  1.0
  C  C1152  1  0.476100  0.752400  0.664800  1.0
  C  C1153  1  0.976100  0.747600  0.664800  1.0
  C  C1154  1  0.523900  0.252400  0.664800  1.0
  C  C1155  1  0.976100  0.752400  0.335200  1.0
  C  C1156  1  0.523900  0.247600  0.335200  1.0
  C  C1157  1  0.028800  0.278100  0.308400  1.0
  C  C1158  1  0.471200  0.721900  0.308400  1.0
  C  C1159  1  0.028800  0.221900  0.691600  1.0
  C  C1160  1  0.471200  0.778100  0.691600  1.0
  C  C1161  1  0.971200  0.721900  0.691600  1.0
  C  C1162  1  0.528800  0.278100  0.691600  1.0
  C  C1163  1  0.971200  0.778100  0.308400  1.0
  C  C1164  1  0.528800  0.221900  0.308400  1.0
  C  C1165  1  0.033300  0.260700  0.276900  1.0
  C  C1166  1  0.466700  0.739300  0.276900  1.0
  C  C1167  1  0.033300  0.239300  0.723100  1.0
  C  C1168  1  0.466700  0.760700  0.723100  1.0
  C  C1169  1  0.966700  0.739300  0.723100  1.0
  C  C1170  1  0.533300  0.260700  0.723100  1.0
  C  C1171  1  0.966700  0.760700  0.276900  1.0
  C  C1172  1  0.533300  0.239300  0.276900  1.0
  C  C1173  1  0.033400  0.217100  0.272430  1.0
  C  C1174  1  0.466600  0.782900  0.272430  1.0
  C  C1175  1  0.033400  0.282900  0.727570  1.0
  C  C1176  1  0.466600  0.717100  0.727570  1.0
  C  C1177  1  0.966600  0.782900  0.727570  1.0
  C  C1178  1  0.533400  0.217100  0.727570  1.0
  C  C1179  1  0.966600  0.717100  0.272430  1.0
  C  C1180  1  0.533400  0.282900  0.272430  1.0
  C  C1181  1  0.001800  0.064200  0.393010  1.0
  C  C1182  1  0.498200  0.935800  0.393010  1.0
  C  C1183  1  0.001800  0.435800  0.606990  1.0
  C  C1184  1  0.498200  0.564200  0.606990  1.0
  C  C1185  1  0.998200  0.935800  0.606990  1.0
  C  C1186  1  0.501800  0.064200  0.606990  1.0
  C  C1187  1  0.998200  0.564200  0.393010  1.0
  C  C1188  1  0.501800  0.435800  0.393010  1.0
  C  C1189  1  0.949800  0.081200  0.384400  1.0
  C  C1190  1  0.550200  0.918800  0.384400  1.0
  C  C1191  1  0.949800  0.418800  0.615600  1.0
  C  C1192  1  0.550200  0.581200  0.615600  1.0
  C  C1193  1  0.050200  0.918800  0.615600  1.0
  C  C1194  1  0.449800  0.081200  0.615600  1.0
  C  C1195  1  0.050200  0.581200  0.384400  1.0
  C  C1196  1  0.449800  0.418800  0.384400  1.0
  C  C1197  1  0.902100  0.065300  0.399600  1.0
  C  C1198  1  0.597900  0.934700  0.399600  1.0
  C  C1199  1  0.902100  0.434700  0.600400  1.0
  C  C1200  1  0.597900  0.565300  0.600400  1.0
  C  C1201  1  0.097900  0.934700  0.600400  1.0
  C  C1202  1  0.402100  0.065300  0.600400  1.0
  C  C1203  1  0.097900  0.565300  0.399600  1.0
  C  C1204  1  0.402100  0.434700  0.399600  1.0
  C  C1205  1  0.905800  0.033200  0.422400  1.0
  C  C1206  1  0.594200  0.966800  0.422400  1.0
  C  C1207  1  0.905800  0.466800  0.577600  1.0
  C  C1208  1  0.594200  0.533200  0.577600  1.0
  C  C1209  1  0.094200  0.966800  0.577600  1.0
  C  C1210  1  0.405800  0.033200  0.577600  1.0
  C  C1211  1  0.094200  0.533200  0.422400  1.0
  C  C1212  1  0.405800  0.466800  0.422400  1.0
  C  C1213  1  0.957500  0.016400  0.430200  1.0
  C  C1214  1  0.542500  0.983600  0.430200  1.0
  C  C1215  1  0.957500  0.483600  0.569800  1.0
  C  C1216  1  0.542500  0.516400  0.569800  1.0
  C  C1217  1  0.042500  0.983600  0.569800  1.0
  C  C1218  1  0.457500  0.016400  0.569800  1.0
  C  C1219  1  0.042500  0.516400  0.430200  1.0
  C  C1220  1  0.457500  0.483600  0.430200  1.0
  C  C1221  1  0.006200  0.031400  0.415770  1.0
  C  C1222  1  0.493800  0.968600  0.415770  1.0
  C  C1223  1  0.006200  0.468600  0.584230  1.0
  C  C1224  1  0.493800  0.531400  0.584230  1.0
  C  C1225  1  0.993800  0.968600  0.584230  1.0
  C  C1226  1  0.506200  0.031400  0.584230  1.0
  C  C1227  1  0.993800  0.531400  0.415770  1.0
  C  C1228  1  0.506200  0.468600  0.415770  1.0
  C  C1229  1  0.351100  0.045000  0.440990  1.0
  C  C1230  1  0.148900  0.955000  0.440990  1.0
  C  C1231  1  0.351100  0.455000  0.559010  1.0
  C  C1232  1  0.148900  0.545000  0.559010  1.0
  C  C1233  1  0.648900  0.955000  0.559010  1.0
  C  C1234  1  0.851100  0.045000  0.559010  1.0
  C  C1235  1  0.648900  0.545000  0.440990  1.0
  C  C1236  1  0.851100  0.455000  0.440990  1.0
  C  C1237  1  0.354000  0.014700  0.465580  1.0
  C  C1238  1  0.146000  0.985300  0.465580  1.0
  C  C1239  1  0.354000  0.485300  0.534420  1.0
  C  C1240  1  0.146000  0.514700  0.534420  1.0
  C  C1241  1  0.646000  0.985300  0.534420  1.0
  C  C1242  1  0.854000  0.014700  0.534420  1.0
  C  C1243  1  0.646000  0.514700  0.465580  1.0
  C  C1244  1  0.854000  0.485300  0.465580  1.0
  C  C1245  1  0.400800  0.011600  0.485100  1.0
  C  C1246  1  0.099200  0.988400  0.485100  1.0
  C  C1247  1  0.400800  0.488400  0.514900  1.0
  C  C1248  1  0.099200  0.511600  0.514900  1.0
  C  C1249  1  0.599200  0.988400  0.514900  1.0
  C  C1250  1  0.900800  0.011600  0.514900  1.0
  C  C1251  1  0.599200  0.511600  0.485100  1.0
  C  C1252  1  0.900800  0.488400  0.485100  1.0
  C  C1253  1  0.446200  0.037900  0.479700  1.0
  C  C1254  1  0.053800  0.962100  0.479700  1.0
  C  C1255  1  0.446200  0.462100  0.520300  1.0
  C  C1256  1  0.053800  0.537900  0.520300  1.0
  C  C1257  1  0.553800  0.962100  0.520300  1.0
  C  C1258  1  0.946200  0.037900  0.520300  1.0
  C  C1259  1  0.553800  0.537900  0.479700  1.0
  C  C1260  1  0.946200  0.462100  0.479700  1.0
  C  C1261  1  0.443600  0.068300  0.454600  1.0
  C  C1262  1  0.056400  0.931700  0.454600  1.0
  C  C1263  1  0.443600  0.431700  0.545400  1.0
  C  C1264  1  0.056400  0.568300  0.545400  1.0
  C  C1265  1  0.556400  0.931700  0.545400  1.0
  C  C1266  1  0.943600  0.068300  0.545400  1.0
  C  C1267  1  0.556400  0.568300  0.454600  1.0
  C  C1268  1  0.943600  0.431700  0.454600  1.0
  C  C1269  1  0.396500  0.072000  0.435400  1.0
  C  C1270  1  0.103500  0.928000  0.435400  1.0
  C  C1271  1  0.396500  0.428000  0.564600  1.0
  C  C1272  1  0.103500  0.572000  0.564600  1.0
  C  C1273  1  0.603500  0.928000  0.564600  1.0
  C  C1274  1  0.896500  0.072000  0.564600  1.0
  C  C1275  1  0.603500  0.572000  0.435400  1.0
  C  C1276  1  0.896500  0.428000  0.435400  1.0
  C  C1277  1  0.229000  0.247200  0.321300  1.0
  C  C1278  1  0.271000  0.752800  0.321300  1.0
  C  C1279  1  0.229000  0.252800  0.678700  1.0
  C  C1280  1  0.271000  0.747200  0.678700  1.0
  C  C1281  1  0.771000  0.752800  0.678700  1.0
  C  C1282  1  0.729000  0.247200  0.678700  1.0
  C  C1283  1  0.771000  0.747200  0.321300  1.0
  C  C1284  1  0.729000  0.252800  0.321300  1.0
  C  C1285  1  0.268800  0.277800  0.325100  1.0
  C  C1286  1  0.231200  0.722200  0.325100  1.0
  C  C1287  1  0.268800  0.222200  0.674900  1.0
  C  C1288  1  0.231200  0.777800  0.674900  1.0
  C  C1289  1  0.731200  0.722200  0.674900  1.0
  C  C1290  1  0.768800  0.277800  0.674900  1.0
  C  C1291  1  0.731200  0.777800  0.325100  1.0
  C  C1292  1  0.768800  0.222200  0.325100  1.0
  C  C1293  1  0.263300  0.319000  0.321400  1.0
  C  C1294  1  0.236700  0.681000  0.321400  1.0
  C  C1295  1  0.263300  0.181000  0.678600  1.0
  C  C1296  1  0.236700  0.819000  0.678600  1.0
  C  C1297  1  0.736700  0.681000  0.678600  1.0
  C  C1298  1  0.763300  0.319000  0.678600  1.0
  C  C1299  1  0.736700  0.819000  0.321400  1.0
  C  C1300  1  0.763300  0.181000  0.321400  1.0
  C  C1301  1  0.210700  0.326400  0.296500  1.0
  C  C1302  1  0.289300  0.673600  0.296500  1.0
  C  C1303  1  0.210700  0.173600  0.703500  1.0
  C  C1304  1  0.289300  0.826400  0.703500  1.0
  C  C1305  1  0.789300  0.673600  0.703500  1.0
  C  C1306  1  0.710700  0.326400  0.703500  1.0
  C  C1307  1  0.789300  0.826400  0.296500  1.0
  C  C1308  1  0.710700  0.173600  0.296500  1.0
  C  C1309  1  0.170600  0.295500  0.292600  1.0
  C  C1310  1  0.329400  0.704500  0.292600  1.0
  C  C1311  1  0.170600  0.204500  0.707400  1.0
  C  C1312  1  0.329400  0.795500  0.707400  1.0
  C  C1313  1  0.829400  0.704500  0.707400  1.0
  C  C1314  1  0.670600  0.295500  0.707400  1.0
  C  C1315  1  0.829400  0.795500  0.292600  1.0
  C  C1316  1  0.670600  0.204500  0.292600  1.0
  C  C1317  1  0.179700  0.255300  0.304900  1.0
  C  C1318  1  0.320300  0.744700  0.304900  1.0
  C  C1319  1  0.179700  0.244700  0.695100  1.0
  C  C1320  1  0.320300  0.755300  0.695100  1.0
  C  C1321  1  0.820300  0.744700  0.695100  1.0
  C  C1322  1  0.679700  0.255300  0.695100  1.0
  C  C1323  1  0.820300  0.755300  0.304900  1.0
  C  C1324  1  0.679700  0.244700  0.304900  1.0
  C  C1325  1  0.938800  0.896200  0.187500  1.0
  C  C1326  1  0.561200  0.103800  0.187500  1.0
  C  C1327  1  0.938800  0.603800  0.812500  1.0
  C  C1328  1  0.561200  0.396200  0.812500  1.0
  C  C1329  1  0.061200  0.103800  0.812500  1.0
  C  C1330  1  0.438800  0.896200  0.812500  1.0
  C  C1331  1  0.061200  0.396200  0.187500  1.0
  C  C1332  1  0.438800  0.603800  0.187500  1.0
  C  C1333  1  0.888800  0.917400  0.201200  1.0
  C  C1334  1  0.611200  0.082600  0.201200  1.0
  C  C1335  1  0.888800  0.582600  0.798800  1.0
  C  C1336  1  0.611200  0.417400  0.798800  1.0
  C  C1337  1  0.111200  0.082600  0.798800  1.0
  C  C1338  1  0.388800  0.917400  0.798800  1.0
  C  C1339  1  0.111200  0.417400  0.201200  1.0
  C  C1340  1  0.388800  0.582600  0.201200  1.0
  C  C1341  1  0.849100  0.926700  0.174800  1.0
  C  C1342  1  0.650900  0.073300  0.174800  1.0
  C  C1343  1  0.849100  0.573300  0.825200  1.0
  C  C1344  1  0.650900  0.426700  0.825200  1.0
  C  C1345  1  0.150900  0.073300  0.825200  1.0
  C  C1346  1  0.349100  0.926700  0.825200  1.0
  C  C1347  1  0.150900  0.426700  0.174800  1.0
  C  C1348  1  0.349100  0.573300  0.174800  1.0
  C  C1349  1  0.859700  0.915300  0.143600  1.0
  C  C1350  1  0.640300  0.084700  0.143600  1.0
  C  C1351  1  0.859700  0.584700  0.856400  1.0
  C  C1352  1  0.640300  0.415300  0.856400  1.0
  C  C1353  1  0.140300  0.084700  0.856400  1.0
  C  C1354  1  0.359700  0.915300  0.856400  1.0
  C  C1355  1  0.140300  0.415300  0.143600  1.0
  C  C1356  1  0.359700  0.584700  0.143600  1.0
  C  C1357  1  0.906600  0.893700  0.135100  1.0
  C  C1358  1  0.593400  0.106300  0.135100  1.0
  C  C1359  1  0.906600  0.606300  0.864900  1.0
  C  C1360  1  0.593400  0.393700  0.864900  1.0
  C  C1361  1  0.093400  0.106300  0.864900  1.0
  C  C1362  1  0.406600  0.893700  0.864900  1.0
  C  C1363  1  0.093400  0.393700  0.135100  1.0
  C  C1364  1  0.406600  0.606300  0.135100  1.0
  C  C1365  1  0.949300  0.880800  0.156700  1.0
  C  C1366  1  0.550700  0.119200  0.156700  1.0
  C  C1367  1  0.949300  0.619200  0.843300  1.0
  C  C1368  1  0.550700  0.380800  0.843300  1.0
  C  C1369  1  0.050700  0.119200  0.843300  1.0
  C  C1370  1  0.449300  0.880800  0.843300  1.0
  C  C1371  1  0.050700  0.380800  0.156700  1.0
  C  C1372  1  0.449300  0.619200  0.156700  1.0
  C  C1373  1  0.422100  0.179600  0.372100  1.0
  C  C1374  1  0.077900  0.820400  0.372100  1.0
  C  C1375  1  0.422100  0.320400  0.627900  1.0
  C  C1376  1  0.077900  0.679600  0.627900  1.0
  C  C1377  1  0.577900  0.820400  0.627900  1.0
  C  C1378  1  0.922100  0.179600  0.627900  1.0
  C  C1379  1  0.577900  0.679600  0.372100  1.0
  C  C1380  1  0.922100  0.320400  0.372100  1.0
  C  C1381  1  0.469000  0.157100  0.381060  1.0
  C  C1382  1  0.031000  0.842900  0.381060  1.0
  C  C1383  1  0.469000  0.342900  0.618940  1.0
  C  C1384  1  0.031000  0.657100  0.618940  1.0
  C  C1385  1  0.531000  0.842900  0.618940  1.0
  C  C1386  1  0.969000  0.157100  0.618940  1.0
  C  C1387  1  0.531000  0.657100  0.381060  1.0
  C  C1388  1  0.969000  0.342900  0.381060  1.0
  C  C1389  1  0.492300  0.163200  0.411700  1.0
  C  C1390  1  0.007700  0.836800  0.411700  1.0
  C  C1391  1  0.492300  0.336800  0.588300  1.0
  C  C1392  1  0.007700  0.663200  0.588300  1.0
  C  C1393  1  0.507700  0.836800  0.588300  1.0
  C  C1394  1  0.992300  0.163200  0.588300  1.0
  C  C1395  1  0.507700  0.663200  0.411700  1.0
  C  C1396  1  0.992300  0.336800  0.411700  1.0
  C  C1397  1  0.467900  0.205400  0.429800  1.0
  C  C1398  1  0.032100  0.794600  0.429800  1.0
  C  C1399  1  0.467900  0.294600  0.570200  1.0
  C  C1400  1  0.032100  0.705400  0.570200  1.0
  C  C1401  1  0.532100  0.794600  0.570200  1.0
  C  C1402  1  0.967900  0.205400  0.570200  1.0
  C  C1403  1  0.532100  0.705400  0.429800  1.0
  C  C1404  1  0.967900  0.294600  0.429800  1.0
  C  C1405  1  0.422800  0.228800  0.418000  1.0
  C  C1406  1  0.077200  0.771200  0.418000  1.0
  C  C1407  1  0.422800  0.271200  0.582000  1.0
  C  C1408  1  0.077200  0.728800  0.582000  1.0
  C  C1409  1  0.577200  0.771200  0.582000  1.0
  C  C1410  1  0.922800  0.228800  0.582000  1.0
  C  C1411  1  0.577200  0.728800  0.418000  1.0
  C  C1412  1  0.922800  0.271200  0.418000  1.0
  C  C1413  1  0.399500  0.217800  0.390000  1.0
  C  C1414  1  0.100500  0.782200  0.390000  1.0
  C  C1415  1  0.399500  0.282200  0.610000  1.0
  C  C1416  1  0.100500  0.717800  0.610000  1.0
  C  C1417  1  0.600500  0.782200  0.610000  1.0
  C  C1418  1  0.899500  0.217800  0.610000  1.0
  C  C1419  1  0.600500  0.717800  0.390000  1.0
  C  C1420  1  0.899500  0.282200  0.390000  1.0
  C  C1421  1  0.267400  0.252400  0.192400  1.0
  C  C1422  1  0.232600  0.747600  0.192400  1.0
  C  C1423  1  0.267400  0.247600  0.807600  1.0
  C  C1424  1  0.232600  0.752400  0.807600  1.0
  C  C1425  1  0.732600  0.747600  0.807600  1.0
  C  C1426  1  0.767400  0.252400  0.807600  1.0
  C  C1427  1  0.732600  0.752400  0.192400  1.0
  C  C1428  1  0.767400  0.247600  0.192400  1.0
  C  C1429  1  0.237000  0.271400  0.217700  1.0
  C  C1430  1  0.263000  0.728600  0.217700  1.0
  C  C1431  1  0.237000  0.228600  0.782300  1.0
  C  C1432  1  0.263000  0.771400  0.782300  1.0
  C  C1433  1  0.763000  0.728600  0.782300  1.0
  C  C1434  1  0.737000  0.271400  0.782300  1.0
  C  C1435  1  0.763000  0.771400  0.217700  1.0
  C  C1436  1  0.737000  0.228600  0.217700  1.0
  C  C1437  1  0.199900  0.304100  0.209300  1.0
  C  C1438  1  0.300100  0.695900  0.209300  1.0
  C  C1439  1  0.199900  0.195900  0.790700  1.0
  C  C1440  1  0.300100  0.804100  0.790700  1.0
  C  C1441  1  0.800100  0.695900  0.790700  1.0
  C  C1442  1  0.699900  0.304100  0.790700  1.0
  C  C1443  1  0.800100  0.804100  0.209300  1.0
  C  C1444  1  0.699900  0.195900  0.209300  1.0
  C  C1445  1  0.194400  0.316900  0.178000  1.0
  C  C1446  1  0.305600  0.683100  0.178000  1.0
  C  C1447  1  0.194400  0.183100  0.822000  1.0
  C  C1448  1  0.305600  0.816900  0.822000  1.0
  C  C1449  1  0.805600  0.683100  0.822000  1.0
  C  C1450  1  0.694400  0.316900  0.822000  1.0
  C  C1451  1  0.805600  0.816900  0.178000  1.0
  C  C1452  1  0.694400  0.183100  0.178000  1.0
  C  C1453  1  0.224400  0.298100  0.152700  1.0
  C  C1454  1  0.275600  0.701900  0.152700  1.0
  C  C1455  1  0.224400  0.201900  0.847300  1.0
  C  C1456  1  0.275600  0.798100  0.847300  1.0
  C  C1457  1  0.775600  0.701900  0.847300  1.0
  C  C1458  1  0.724400  0.298100  0.847300  1.0
  C  C1459  1  0.775600  0.798100  0.152700  1.0
  C  C1460  1  0.724400  0.201900  0.152700  1.0
  C  C1461  1  0.262300  0.265000  0.159800  1.0
  C  C1462  1  0.237700  0.735000  0.159800  1.0
  C  C1463  1  0.262300  0.235000  0.840200  1.0
  C  C1464  1  0.237700  0.765000  0.840200  1.0
  C  C1465  1  0.737700  0.735000  0.840200  1.0
  C  C1466  1  0.762300  0.265000  0.840200  1.0
  C  C1467  1  0.737700  0.765000  0.159800  1.0
  C  C1468  1  0.762300  0.235000  0.159800  1.0
  C  C1469  1  0.130900  0.228500  0.506000  0.5
  N  N1470  1  0.130900  0.228500  0.506000  0.5
  C  C1471  1  0.369100  0.771500  0.506000  0.5
  N  N1472  1  0.369100  0.771500  0.506000  0.5
  C  C1473  1  0.130900  0.271500  0.494000  0.5
  N  N1474  1  0.130900  0.271500  0.494000  0.5
  C  C1475  1  0.369100  0.728500  0.494000  0.5
  N  N1476  1  0.369100  0.728500  0.494000  0.5
  C  C1477  1  0.869100  0.771500  0.494000  0.5
  N  N1478  1  0.869100  0.771500  0.494000  0.5
  C  C1479  1  0.630900  0.228500  0.494000  0.5
  N  N1480  1  0.630900  0.228500  0.494000  0.5
  C  C1481  1  0.869100  0.728500  0.506000  0.5
  N  N1482  1  0.869100  0.728500  0.506000  0.5
  C  C1483  1  0.630900  0.271500  0.506000  0.5
  N  N1484  1  0.630900  0.271500  0.506000  0.5
  N  N1485  1  0.677100  0.005900  0.303600  1
  N  N1486  1  0.822900  0.994100  0.303600  1
  N  N1487  1  0.677100  0.494100  0.696400  1
  N  N1488  1  0.822900  0.505900  0.696400  1
  N  N1489  1  0.322900  0.994100  0.696400  1
  N  N1490  1  0.177100  0.005900  0.696400  1
  N  N1491  1  0.322900  0.505900  0.303600  1
  N  N1492  1  0.177100  0.494100  0.303600  1
  N  N1493  1  0.389400  0.168200  0.715500  1
  N  N1494  1  0.110600  0.831800  0.715500  1
  N  N1495  1  0.389400  0.331800  0.284500  1
  N  N1496  1  0.110600  0.668200  0.284500  1
  N  N1497  1  0.610600  0.831800  0.284500  1
  N  N1498  1  0.889400  0.168200  0.284500  1
  N  N1499  1  0.610600  0.668200  0.715500  1
  N  N1500  1  0.889400  0.331800  0.715500  1
  N  N1501  1  0.821000  0.080500  0.193500  1
  N  N1502  1  0.679000  0.919500  0.193500  1
  N  N1503  1  0.821000  0.419500  0.806500  1
  N  N1504  1  0.679000  0.580500  0.806500  1
  N  N1505  1  0.179000  0.919500  0.806500  1
  N  N1506  1  0.321000  0.080500  0.806500  1
  N  N1507  1  0.179000  0.580500  0.193500  1
  N  N1508  1  0.321000  0.419500  0.193500  1
  N  N1509  1  0.443300  0.171600  0.542400  1
  N  N1510  1  0.056700  0.828400  0.542400  1
  N  N1511  1  0.443300  0.328400  0.457600  1
  N  N1512  1  0.056700  0.671600  0.457600  1
  N  N1513  1  0.556700  0.828400  0.457600  1
  N  N1514  1  0.943300  0.171600  0.457600  1
  N  N1515  1  0.556700  0.671600  0.542400  1
  N  N1516  1  0.943300  0.328400  0.542400  1
  N  N1517  1  0.785500  0.114100  0.511500  1
  N  N1518  1  0.714500  0.885900  0.511500  1
  N  N1519  1  0.785500  0.385900  0.488500  1
  N  N1520  1  0.714500  0.614100  0.488500  1
  N  N1521  1  0.214500  0.885900  0.488500  1
  N  N1522  1  0.285500  0.114100  0.488500  1
  N  N1523  1  0.214500  0.614100  0.511500  1
  N  N1524  1  0.285500  0.385900  0.511500  1
  N  N1525  1  0.692800  0.263500  0.593800  1
  N  N1526  1  0.807200  0.736500  0.593800  1
  N  N1527  1  0.692800  0.236500  0.406200  1
  N  N1528  1  0.807200  0.763500  0.406200  1
  N  N1529  1  0.307200  0.736500  0.406200  1
  N  N1530  1  0.192800  0.263500  0.406200  1
  N  N1531  1  0.307200  0.763500  0.593800  1
  N  N1532  1  0.192800  0.236500  0.593800  1
  N  N1533  1  0.253300  0.969700  0.566300  1
  N  N1534  1  0.246700  0.030300  0.566300  1
  N  N1535  1  0.253300  0.530300  0.433700  1
  N  N1536  1  0.246700  0.469700  0.433700  1
  N  N1537  1  0.746700  0.030300  0.433700  1
  N  N1538  1  0.753300  0.969700  0.433700  1
  N  N1539  1  0.746700  0.469700  0.566300  1
  N  N1540  1  0.753300  0.530300  0.566300  1
  N  N1541  1  0.776900  0.145500  0.404500  1
  N  N1542  1  0.723100  0.854500  0.404500  1
  N  N1543  1  0.776900  0.354500  0.595500  1
  N  N1544  1  0.723100  0.645500  0.595500  1
  N  N1545  1  0.223100  0.854500  0.595500  1
  N  N1546  1  0.276900  0.145500  0.595500  1
  N  N1547  1  0.223100  0.645500  0.404500  1
  N  N1548  1  0.276900  0.354500  0.404500  1
  N  N1549  1  0.044800  0.143200  0.454400  1
  N  N1550  1  0.455200  0.856800  0.454400  1
  N  N1551  1  0.044800  0.356800  0.545600  1
  N  N1552  1  0.455200  0.643200  0.545600  1
  N  N1553  1  0.955200  0.856800  0.545600  1
  N  N1554  1  0.544800  0.143200  0.545600  1
  N  N1555  1  0.955200  0.643200  0.454400  1
  N  N1556  1  0.544800  0.356800  0.454400  1
  N  N1557  1  0.815200  0.188900  0.504300  1
  N  N1558  1  0.684800  0.811100  0.504300  1
  N  N1559  1  0.815200  0.311100  0.495700  1
  N  N1560  1  0.684800  0.688900  0.495700  1
  N  N1561  1  0.184800  0.811100  0.495700  1
  N  N1562  1  0.315200  0.188900  0.495700  1
  N  N1563  1  0.184800  0.688900  0.504300  1
  N  N1564  1  0.315200  0.311100  0.504300  1
  N  N1565  1  0.122900  0.113800  0.490500  1
  N  N1566  1  0.377100  0.886200  0.490500  1
  N  N1567  1  0.122900  0.386200  0.509500  1
  N  N1568  1  0.377100  0.613800  0.509500  1
  N  N1569  1  0.877100  0.886200  0.509500  1
  N  N1570  1  0.622900  0.113800  0.509500  1
  N  N1571  1  0.877100  0.613800  0.490500  1
  N  N1572  1  0.622900  0.386200  0.490500  1
  N  N1573  1  0.194600  0.132500  0.261700  1
  N  N1574  1  0.305400  0.867500  0.261700  1
  N  N1575  1  0.194600  0.367500  0.738300  1
  N  N1576  1  0.305400  0.632500  0.738300  1
  N  N1577  1  0.805400  0.867500  0.738300  1
  N  N1578  1  0.694600  0.132500  0.738300  1
  N  N1579  1  0.805400  0.632500  0.261700  1
  N  N1580  1  0.694600  0.367500  0.261700  1
  N  N1581  1  0.216500  0.125900  0.248000  1
  N  N1582  1  0.283500  0.874100  0.248000  1
  N  N1583  1  0.216500  0.374100  0.752000  1
  N  N1584  1  0.283500  0.625900  0.752000  1
  N  N1585  1  0.783500  0.874100  0.752000  1
  N  N1586  1  0.716500  0.125900  0.752000  1
  N  N1587  1  0.783500  0.625900  0.248000  1
  N  N1588  1  0.716500  0.374100  0.248000  1
  N  N1589  1  0.125000  0.973300  0.325300  1
  N  N1590  1  0.375000  0.026700  0.325300  1
  N  N1591  1  0.125000  0.526700  0.674700  1
  N  N1592  1  0.375000  0.473300  0.674700  1
  N  N1593  1  0.875000  0.026700  0.674700  1
  N  N1594  1  0.625000  0.973300  0.674700  1
  N  N1595  1  0.875000  0.473300  0.325300  1
  N  N1596  1  0.625000  0.526700  0.325300  1
  N  N1597  1  0.891100  0.020900  0.822300  1
  N  N1598  1  0.608900  0.979100  0.822300  1
  N  N1599  1  0.891100  0.479100  0.177700  1
  N  N1600  1  0.608900  0.520900  0.177700  1
  N  N1601  1  0.108900  0.979100  0.177700  1
  N  N1602  1  0.391100  0.020900  0.177700  1
  N  N1603  1  0.108900  0.520900  0.822300  1
  N  N1604  1  0.391100  0.479100  0.822300  1
  N  N1605  1  0.145800  0.041900  0.085180  1.0
  N  N1606  1  0.354200  0.958100  0.085180  1.0
  N  N1607  1  0.145800  0.458100  0.914820  1.0
  N  N1608  1  0.354200  0.541900  0.914820  1.0
  N  N1609  1  0.854200  0.958100  0.914820  1.0
  N  N1610  1  0.645800  0.041900  0.914820  1.0
  N  N1611  1  0.854200  0.541900  0.085180  1.0
  N  N1612  1  0.645800  0.458100  0.085180  1.0
  N  N1613  1  0.169800  0.013100  0.068190  1.0
  N  N1614  1  0.330200  0.986900  0.068190  1.0
  N  N1615  1  0.169800  0.486900  0.931810  1.0
  N  N1616  1  0.330200  0.513100  0.931810  1.0
  N  N1617  1  0.830200  0.986900  0.931810  1.0
  N  N1618  1  0.669800  0.013100  0.931810  1.0
  N  N1619  1  0.830200  0.513100  0.068190  1.0
  N  N1620  1  0.669800  0.486900  0.068190  1.0
  N  N1621  1  0.135500  0.162130  0.154620  1.0
  N  N1622  1  0.364500  0.837870  0.154620  1.0
  N  N1623  1  0.135500  0.337870  0.845380  1.0
  N  N1624  1  0.364500  0.662130  0.845380  1.0
  N  N1625  1  0.864500  0.837870  0.845380  1.0
  N  N1626  1  0.635500  0.162130  0.845380  1.0
  N  N1627  1  0.864500  0.662130  0.154620  1.0
  N  N1628  1  0.635500  0.337870  0.154620  1.0
  N  N1629  1  0.084600  0.156750  0.162560  1.0
  N  N1630  1  0.415400  0.843250  0.162560  1.0
  N  N1631  1  0.084600  0.343250  0.837440  1.0
  N  N1632  1  0.415400  0.656750  0.837440  1.0
  N  N1633  1  0.915400  0.843250  0.837440  1.0
  N  N1634  1  0.584600  0.156750  0.837440  1.0
  N  N1635  1  0.915400  0.656750  0.162560  1.0
  N  N1636  1  0.584600  0.343250  0.162560  1.0
  N  N1637  1  0.312300  0.121700  0.108220  1.0
  N  N1638  1  0.187700  0.878300  0.108220  1.0
  N  N1639  1  0.312300  0.378300  0.891780  1.0
  N  N1640  1  0.187700  0.621700  0.891780  1.0
  N  N1641  1  0.687700  0.878300  0.891780  1.0
  N  N1642  1  0.812300  0.121700  0.891780  1.0
  N  N1643  1  0.687700  0.621700  0.108220  1.0
  N  N1644  1  0.812300  0.378300  0.108220  1.0
  N  N1645  1  0.340900  0.149100  0.123840  1.0
  N  N1646  1  0.159100  0.850900  0.123840  1.0
  N  N1647  1  0.340900  0.350900  0.876160  1.0
  N  N1648  1  0.159100  0.649100  0.876160  1.0
  N  N1649  1  0.659100  0.850900  0.876160  1.0
  N  N1650  1  0.840900  0.149100  0.876160  1.0
  N  N1651  1  0.659100  0.649100  0.123840  1.0
  N  N1652  1  0.840900  0.350900  0.123840  1.0
  N  N1653  1  0.979800  0.032230  0.186010  1.0
  N  N1654  1  0.520200  0.967770  0.186010  1.0
  N  N1655  1  0.979800  0.467770  0.813990  1.0
  N  N1656  1  0.520200  0.532230  0.813990  1.0
  N  N1657  1  0.020200  0.967770  0.813990  1.0
  N  N1658  1  0.479800  0.032230  0.813990  1.0
  N  N1659  1  0.020200  0.532230  0.186010  1.0
  N  N1660  1  0.479800  0.467770  0.186010  1.0
  N  N1661  1  0.994200  0.055750  0.161710  1.0
  N  N1662  1  0.505800  0.944250  0.161710  1.0
  N  N1663  1  0.994200  0.444250  0.838290  1.0
  N  N1664  1  0.505800  0.555750  0.838290  1.0
  N  N1665  1  0.005800  0.944250  0.838290  1.0
  N  N1666  1  0.494200  0.055750  0.838290  1.0
  N  N1667  1  0.005800  0.555750  0.161710  1.0
  N  N1668  1  0.494200  0.444250  0.161710  1.0
  N  N1669  1  0.968100  0.993520  0.299550  1.0
  N  N1670  1  0.531900  0.006480  0.299550  1.0
  N  N1671  1  0.968100  0.506480  0.700450  1.0
  N  N1672  1  0.531900  0.493520  0.700450  1.0
  N  N1673  1  0.031900  0.006480  0.700450  1.0
  N  N1674  1  0.468100  0.993520  0.700450  1.0
  N  N1675  1  0.031900  0.493520  0.299550  1.0
  N  N1676  1  0.468100  0.506480  0.299550  1.0
  N  N1677  1  0.956000  0.954630  0.294890  1.0
  N  N1678  1  0.544000  0.045370  0.294890  1.0
  N  N1679  1  0.956000  0.545370  0.705110  1.0
  N  N1680  1  0.544000  0.454630  0.705110  1.0
  N  N1681  1  0.044000  0.045370  0.705110  1.0
  N  N1682  1  0.456000  0.954630  0.705110  1.0
  N  N1683  1  0.044000  0.454630  0.294890  1.0
  N  N1684  1  0.456000  0.545370  0.294890  1.0
  N  N1685  1  0.019400  0.133560  0.268740  1.0
  N  N1686  1  0.480600  0.866440  0.268740  1.0
  N  N1687  1  0.019400  0.366440  0.731260  1.0
  N  N1688  1  0.480600  0.633560  0.731260  1.0
  N  N1689  1  0.980600  0.866440  0.731260  1.0
  N  N1690  1  0.519400  0.133560  0.731260  1.0
  N  N1691  1  0.980600  0.633560  0.268740  1.0
  N  N1692  1  0.519400  0.366440  0.268740  1.0
  N  N1693  1  0.026700  0.146940  0.297920  1.0
  N  N1694  1  0.473300  0.853060  0.297920  1.0
  N  N1695  1  0.026700  0.353060  0.702080  1.0
  N  N1696  1  0.473300  0.646940  0.702080  1.0
  N  N1697  1  0.973300  0.853060  0.702080  1.0
  N  N1698  1  0.526700  0.146940  0.702080  1.0
  N  N1699  1  0.973300  0.646940  0.297920  1.0
  N  N1700  1  0.526700  0.353060  0.297920  1.0
  N  N1701  1  0.096200  0.072470  0.391080  1.0
  N  N1702  1  0.403800  0.927530  0.391080  1.0
  N  N1703  1  0.096200  0.427530  0.608920  1.0
  N  N1704  1  0.403800  0.572470  0.608920  1.0
  N  N1705  1  0.903800  0.927530  0.608920  1.0
  N  N1706  1  0.596200  0.072470  0.608920  1.0
  N  N1707  1  0.903800  0.572470  0.391080  1.0
  N  N1708  1  0.596200  0.427530  0.391080  1.0
  N  N1709  1  0.049600  0.082180  0.377660  1.0
  N  N1710  1  0.450400  0.917820  0.377660  1.0
  N  N1711  1  0.049600  0.417820  0.622340  1.0
  N  N1712  1  0.450400  0.582180  0.622340  1.0
  N  N1713  1  0.950400  0.917820  0.622340  1.0
  N  N1714  1  0.549600  0.082180  0.622340  1.0
  N  N1715  1  0.950400  0.582180  0.377660  1.0
  N  N1716  1  0.549600  0.417820  0.377660  1.0
  N  N1717  1  0.294500  0.082740  0.407600  1.0
  N  N1718  1  0.205500  0.917260  0.407600  1.0
  N  N1719  1  0.294500  0.417260  0.592400  1.0
  N  N1720  1  0.205500  0.582740  0.592400  1.0
  N  N1721  1  0.705500  0.917260  0.592400  1.0
  N  N1722  1  0.794500  0.082740  0.592400  1.0
  N  N1723  1  0.705500  0.582740  0.407600  1.0
  N  N1724  1  0.794500  0.417260  0.407600  1.0
  N  N1725  1  0.299800  0.048030  0.422890  1.0
  N  N1726  1  0.200200  0.951970  0.422890  1.0
  N  N1727  1  0.299800  0.451970  0.577110  1.0
  N  N1728  1  0.200200  0.548030  0.577110  1.0
  N  N1729  1  0.700200  0.951970  0.577110  1.0
  N  N1730  1  0.799800  0.048030  0.577110  1.0
  N  N1731  1  0.700200  0.548030  0.422890  1.0
  N  N1732  1  0.799800  0.451970  0.422890  1.0
  N  N1733  1  0.198100  0.186140  0.342840  1.0
  N  N1734  1  0.301900  0.813860  0.342840  1.0
  N  N1735  1  0.198100  0.313860  0.657160  1.0
  N  N1736  1  0.301900  0.686140  0.657160  1.0
  N  N1737  1  0.801900  0.813860  0.657160  1.0
  N  N1738  1  0.698100  0.186140  0.657160  1.0
  N  N1739  1  0.801900  0.686140  0.342840  1.0
  N  N1740  1  0.698100  0.313860  0.342840  1.0
  N  N1741  1  0.241400  0.207090  0.335380  1.0
  N  N1742  1  0.258600  0.792910  0.335380  1.0
  N  N1743  1  0.241400  0.292910  0.664620  1.0
  N  N1744  1  0.258600  0.707090  0.664620  1.0
  N  N1745  1  0.758600  0.792910  0.664620  1.0
  N  N1746  1  0.741400  0.207090  0.664620  1.0
  N  N1747  1  0.758600  0.707090  0.335380  1.0
  N  N1748  1  0.741400  0.292910  0.335380  1.0
  N  N1749  1  0.018300  0.868350  0.207140  1.0
  N  N1750  1  0.481700  0.131650  0.207140  1.0
  N  N1751  1  0.018300  0.631650  0.792860  1.0
  N  N1752  1  0.481700  0.368350  0.792860  1.0
  N  N1753  1  0.981700  0.131650  0.792860  1.0
  N  N1754  1  0.518300  0.868350  0.792860  1.0
  N  N1755  1  0.981700  0.368350  0.207140  1.0
  N  N1756  1  0.518300  0.631650  0.207140  1.0
  N  N1757  1  0.976400  0.890860  0.213920  1.0
  N  N1758  1  0.523600  0.109140  0.213920  1.0
  N  N1759  1  0.976400  0.609140  0.786080  1.0
  N  N1760  1  0.523600  0.390860  0.786080  1.0
  N  N1761  1  0.023600  0.109140  0.786080  1.0
  N  N1762  1  0.476400  0.890860  0.786080  1.0
  N  N1763  1  0.023600  0.390860  0.213920  1.0
  N  N1764  1  0.476400  0.609140  0.213920  1.0
  N  N1765  1  0.428900  0.162130  0.318240  1.0
  N  N1766  1  0.071100  0.837870  0.318240  1.0
  N  N1767  1  0.428900  0.337870  0.681760  1.0
  N  N1768  1  0.071100  0.662130  0.681760  1.0
  N  N1769  1  0.571100  0.837870  0.681760  1.0
  N  N1770  1  0.928900  0.162130  0.681760  1.0
  N  N1771  1  0.571100  0.662130  0.318240  1.0
  N  N1772  1  0.928900  0.337870  0.318240  1.0
  N  N1773  1  0.396900  0.175900  0.340340  1.0
  N  N1774  1  0.103100  0.824100  0.340340  1.0
  N  N1775  1  0.396900  0.324100  0.659660  1.0
  N  N1776  1  0.103100  0.675900  0.659660  1.0
  N  N1777  1  0.603100  0.824100  0.659660  1.0
  N  N1778  1  0.896900  0.175900  0.659660  1.0
  N  N1779  1  0.603100  0.675900  0.340340  1.0
  N  N1780  1  0.896900  0.324100  0.340340  1.0
  N  N1781  1  0.320500  0.216180  0.228490  1.0
  N  N1782  1  0.179500  0.783820  0.228490  1.0
  N  N1783  1  0.320500  0.283820  0.771510  1.0
  N  N1784  1  0.179500  0.716180  0.771510  1.0
  N  N1785  1  0.679500  0.783820  0.771510  1.0
  N  N1786  1  0.820500  0.216180  0.771510  1.0
  N  N1787  1  0.679500  0.716180  0.228490  1.0
  N  N1788  1  0.820500  0.283820  0.228490  1.0
  N  N1789  1  0.305600  0.218600  0.198420  1.0
  N  N1790  1  0.194400  0.781400  0.198420  1.0
  N  N1791  1  0.305600  0.281400  0.801580  1.0
  N  N1792  1  0.194400  0.718600  0.801580  1.0
  N  N1793  1  0.694400  0.781400  0.801580  1.0
  N  N1794  1  0.805600  0.218600  0.801580  1.0
  N  N1795  1  0.694400  0.718600  0.198420  1.0
  N  N1796  1  0.805600  0.281400  0.198420  1.0
  O  O1797  1  0.713000  0.067600  0.292600  1
  O  O1798  1  0.787000  0.932400  0.292600  1
  O  O1799  1  0.713000  0.432400  0.707400  1
  O  O1800  1  0.787000  0.567600  0.707400  1
  O  O1801  1  0.287000  0.932400  0.707400  1
  O  O1802  1  0.213000  0.067600  0.707400  1
  O  O1803  1  0.287000  0.567600  0.292600  1
  O  O1804  1  0.213000  0.432400  0.292600  1
  O  O1805  1  0.139000  0.095400  0.747800  1
  O  O1806  1  0.361000  0.904600  0.747800  1
  O  O1807  1  0.139000  0.404600  0.252200  1
  O  O1808  1  0.361000  0.595400  0.252200  1
  O  O1809  1  0.861000  0.904600  0.252200  1
  O  O1810  1  0.639000  0.095400  0.252200  1
  O  O1811  1  0.861000  0.595400  0.747800  1
  O  O1812  1  0.639000  0.404600  0.747800  1
  O  O1813  1  0.398800  0.162000  0.660300  1
  O  O1814  1  0.101200  0.838000  0.660300  1
  O  O1815  1  0.398800  0.338000  0.339700  1
  O  O1816  1  0.101200  0.662000  0.339700  1
  O  O1817  1  0.601200  0.838000  0.339700  1
  O  O1818  1  0.898800  0.162000  0.339700  1
  O  O1819  1  0.601200  0.662000  0.660300  1
  O  O1820  1  0.898800  0.338000  0.660300  1
  O  O1821  1  0.730500  0.067400  0.213200  1
  O  O1822  1  0.769500  0.932600  0.213200  1
  O  O1823  1  0.730500  0.432600  0.786800  1
  O  O1824  1  0.769500  0.567400  0.786800  1
  O  O1825  1  0.269500  0.932600  0.786800  1
  O  O1826  1  0.230500  0.067400  0.786800  1
  O  O1827  1  0.269500  0.567400  0.213200  1
  O  O1828  1  0.230500  0.432600  0.213200  1
  O  O1829  1  0.486900  0.225200  0.517700  1
  O  O1830  1  0.013100  0.774800  0.517700  1
  O  O1831  1  0.486900  0.274800  0.482300  1
  O  O1832  1  0.013100  0.725200  0.482300  1
  O  O1833  1  0.513100  0.774800  0.482300  1
  O  O1834  1  0.986900  0.225200  0.482300  1
  O  O1835  1  0.513100  0.725200  0.517700  1
  O  O1836  1  0.986900  0.274800  0.517700  1
  O  O1837  1  0.722300  0.064200  0.497600  1
  O  O1838  1  0.777700  0.935800  0.497600  1
  O  O1839  1  0.722300  0.435800  0.502400  1
  O  O1840  1  0.777700  0.564200  0.502400  1
  O  O1841  1  0.277700  0.935800  0.502400  1
  O  O1842  1  0.222300  0.064200  0.502400  1
  O  O1843  1  0.277700  0.564200  0.497600  1
  O  O1844  1  0.222300  0.435800  0.497600  1
  O  O1845  1  0.776100  0.240300  0.577300  1
  O  O1846  1  0.723900  0.759700  0.577300  1
  O  O1847  1  0.776100  0.259700  0.422700  1
  O  O1848  1  0.723900  0.740300  0.422700  1
  O  O1849  1  0.223900  0.759700  0.422700  1
  O  O1850  1  0.276100  0.240300  0.422700  1
  O  O1851  1  0.223900  0.740300  0.577300  1
  O  O1852  1  0.276100  0.259700  0.577300  1
  O  O1853  1  0.645400  0.246000  0.596700  1
  O  O1854  1  0.854600  0.754000  0.596700  1
  O  O1855  1  0.645400  0.254000  0.403300  1
  O  O1856  1  0.854600  0.746000  0.403300  1
  O  O1857  1  0.354600  0.754000  0.403300  1
  O  O1858  1  0.145400  0.246000  0.403300  1
  O  O1859  1  0.354600  0.746000  0.596700  1
  O  O1860  1  0.145400  0.254000  0.596700  1
  O  O1861  1  0.252200  0.016100  0.609800  1
  O  O1862  1  0.247800  0.983900  0.609800  1
  O  O1863  1  0.252200  0.483900  0.390200  1
  O  O1864  1  0.247800  0.516100  0.390200  1
  O  O1865  1  0.747800  0.983900  0.390200  1
  O  O1866  1  0.752200  0.016100  0.390200  1
  O  O1867  1  0.747800  0.516100  0.609800  1
  O  O1868  1  0.752200  0.483900  0.609800  1
  O  O1869  1  0.831300  0.194000  0.433200  1
  O  O1870  1  0.668700  0.806000  0.433200  1
  O  O1871  1  0.831300  0.306000  0.566800  1
  O  O1872  1  0.668700  0.694000  0.566800  1
  O  O1873  1  0.168700  0.806000  0.566800  1
  O  O1874  1  0.331300  0.194000  0.566800  1
  O  O1875  1  0.168700  0.694000  0.433200  1
  O  O1876  1  0.331300  0.306000  0.433200  1
  O  O1877  1  0.134200  0.156600  0.438900  1
  O  O1878  1  0.365800  0.843400  0.438900  1
  O  O1879  1  0.134200  0.343400  0.561100  1
  O  O1880  1  0.365800  0.656600  0.561100  1
  O  O1881  1  0.865800  0.843400  0.561100  1
  O  O1882  1  0.634200  0.156600  0.561100  1
  O  O1883  1  0.865800  0.656600  0.438900  1
  O  O1884  1  0.634200  0.343400  0.438900  1
  O  O1885  1  0.770800  0.141400  0.470100  1
  O  O1886  1  0.729200  0.858600  0.470100  1
  O  O1887  1  0.770800  0.358600  0.529900  1
  O  O1888  1  0.729200  0.641400  0.529900  1
  O  O1889  1  0.229200  0.858600  0.529900  1
  O  O1890  1  0.270800  0.141400  0.529900  1
  O  O1891  1  0.229200  0.641400  0.470100  1
  O  O1892  1  0.270800  0.358600  0.470100  1
  O  O1893  1  0.103300  0.169100  0.532700  1
  O  O1894  1  0.396700  0.830900  0.532700  1
  O  O1895  1  0.103300  0.330900  0.467300  1
  O  O1896  1  0.396700  0.669100  0.467300  1
  O  O1897  1  0.896700  0.830900  0.467300  1
  O  O1898  1  0.603300  0.169100  0.467300  1
  O  O1899  1  0.896700  0.669100  0.532700  1
  O  O1900  1  0.603300  0.330900  0.532700  1
  O  O1901  1  0.078500  0.119200  0.538500  1
  O  O1902  1  0.421500  0.880800  0.538500  1
  O  O1903  1  0.078500  0.380800  0.461500  1
  O  O1904  1  0.421500  0.619200  0.461500  1
  O  O1905  1  0.921500  0.880800  0.461500  1
  O  O1906  1  0.578500  0.119200  0.461500  1
  O  O1907  1  0.921500  0.619200  0.538500  1
  O  O1908  1  0.578500  0.380800  0.538500  1
  O  O1909  1  0.105800  0.080500  0.533600  1
  O  O1910  1  0.394200  0.919500  0.533600  1
  O  O1911  1  0.105800  0.419500  0.466400  1
  O  O1912  1  0.394200  0.580500  0.466400  1
  O  O1913  1  0.894200  0.919500  0.466400  1
  O  O1914  1  0.605800  0.080500  0.466400  1
  O  O1915  1  0.894200  0.580500  0.533600  1
  O  O1916  1  0.605800  0.419500  0.533600  1
  O  O1917  1  0.254700  0.979400  0.954200  1
  O  O1918  1  0.245300  0.020600  0.954200  1
  O  O1919  1  0.254700  0.520600  0.045800  1
  O  O1920  1  0.245300  0.479400  0.045800  1
  O  O1921  1  0.745300  0.020600  0.045800  1
  O  O1922  1  0.754700  0.979400  0.045800  1
  O  O1923  1  0.745300  0.479400  0.954200  1
  O  O1924  1  0.754700  0.520600  0.954200  1
  O  O1925  1  0.250000  0.000000  0.007700  1
  O  O1926  1  0.250000  0.500000  0.992300  1
  O  O1927  1  0.750000  0.000000  0.992300  1
  O  O1928  1  0.750000  0.500000  0.007700  1
  O  O1929  1  0.691000  0.902000  0.808700  1
  O  O1930  1  0.809000  0.098000  0.808700  1
  O  O1931  1  0.691000  0.598000  0.191300  1
  O  O1932  1  0.809000  0.402000  0.191300  1
  O  O1933  1  0.309000  0.098000  0.191300  1
  O  O1934  1  0.191000  0.902000  0.191300  1
  O  O1935  1  0.309000  0.402000  0.808700  1
  O  O1936  1  0.191000  0.598000  0.808700  1
  O  O1937  1  0.272800  0.125200  0.294800  1
  O  O1938  1  0.227200  0.874800  0.294800  1
  O  O1939  1  0.272800  0.374800  0.705200  1
  O  O1940  1  0.227200  0.625200  0.705200  1
  O  O1941  1  0.727200  0.874800  0.705200  1
  O  O1942  1  0.772800  0.125200  0.705200  1
  O  O1943  1  0.727200  0.625200  0.294800  1
  O  O1944  1  0.772800  0.374800  0.294800  1
  O  O1945  1  0.277700  0.121600  0.207100  1
  O  O1946  1  0.222300  0.878400  0.207100  1
  O  O1947  1  0.277700  0.378400  0.792900  1
  O  O1948  1  0.222300  0.621600  0.792900  1
  O  O1949  1  0.722300  0.878400  0.792900  1
  O  O1950  1  0.777700  0.121600  0.792900  1
  O  O1951  1  0.722300  0.621600  0.207100  1
  O  O1952  1  0.777700  0.378400  0.207100  1
  O  O1953  1  0.082800  0.950700  0.268200  1
  O  O1954  1  0.417200  0.049300  0.268200  1
  O  O1955  1  0.082800  0.549300  0.731800  1
  O  O1956  1  0.417200  0.450700  0.731800  1
  O  O1957  1  0.917200  0.049300  0.731800  1
  O  O1958  1  0.582800  0.950700  0.731800  1
  O  O1959  1  0.917200  0.450700  0.268200  1
  O  O1960  1  0.582800  0.549300  0.268200  1
  O  O1961  1  0.117300  0.055300  0.311500  1
  O  O1962  1  0.382700  0.944700  0.311500  1
  O  O1963  1  0.117300  0.444700  0.688500  1
  O  O1964  1  0.382700  0.555300  0.688500  1
  O  O1965  1  0.882700  0.944700  0.688500  1
  O  O1966  1  0.617300  0.055300  0.688500  1
  O  O1967  1  0.882700  0.555300  0.311500  1
  O  O1968  1  0.617300  0.444700  0.311500  1
  O  O1969  1  0.233500  0.995000  0.353400  1
  O  O1970  1  0.266500  0.005000  0.353400  1
  O  O1971  1  0.233500  0.505000  0.646600  1
  O  O1972  1  0.266500  0.495000  0.646600  1
  O  O1973  1  0.766500  0.005000  0.646600  1
  O  O1974  1  0.733500  0.995000  0.646600  1
  O  O1975  1  0.766500  0.495000  0.353400  1
  O  O1976  1  0.733500  0.505000  0.353400  1
  O  O1977  1  0.881100  0.947000  0.809900  1
  O  O1978  1  0.618900  0.053000  0.809900  1
  O  O1979  1  0.881100  0.553000  0.190100  1
  O  O1980  1  0.618900  0.447000  0.190100  1
  O  O1981  1  0.118900  0.053000  0.190100  1
  O  O1982  1  0.381100  0.947000  0.190100  1
  O  O1983  1  0.118900  0.447000  0.809900  1
  O  O1984  1  0.381100  0.553000  0.809900  1
  O  O1985  1  0.265300  0.056950  0.080490  1.0
  O  O1986  1  0.234700  0.943050  0.080490  1.0
  O  O1987  1  0.265300  0.443050  0.919510  1.0
  O  O1988  1  0.234700  0.556950  0.919510  1.0
  O  O1989  1  0.734700  0.943050  0.919510  1.0
  O  O1990  1  0.765300  0.056950  0.919510  1.0
  O  O1991  1  0.734700  0.556950  0.080490  1.0
  O  O1992  1  0.765300  0.443050  0.080490  1.0
  O  O1993  1  0.089200  0.087570  0.125570  1.0
  O  O1994  1  0.410800  0.912430  0.125570  1.0
  O  O1995  1  0.089200  0.412430  0.874430  1.0
  O  O1996  1  0.410800  0.587570  0.874430  1.0
  O  O1997  1  0.910800  0.912430  0.874430  1.0
  O  O1998  1  0.589200  0.087570  0.874430  1.0
  O  O1999  1  0.910800  0.587570  0.125570  1.0
  O  O2000  1  0.589200  0.412430  0.125570  1.0
  O  O2001  1  0.243600  0.171240  0.152400  1.0
  O  O2002  1  0.256400  0.828760  0.152400  1.0
  O  O2003  1  0.243600  0.328760  0.847600  1.0
  O  O2004  1  0.256400  0.671240  0.847600  1.0
  O  O2005  1  0.756400  0.828760  0.847600  1.0
  O  O2006  1  0.743600  0.171240  0.847600  1.0
  O  O2007  1  0.756400  0.671240  0.152400  1.0
  O  O2008  1  0.743600  0.328760  0.152400  1.0
  O  O2009  1  0.022100  0.112450  0.207790  1.0
  O  O2010  1  0.477900  0.887550  0.207790  1.0
  O  O2011  1  0.022100  0.387550  0.792210  1.0
  O  O2012  1  0.477900  0.612450  0.792210  1.0
  O  O2013  1  0.977900  0.887550  0.792210  1.0
  O  O2014  1  0.522100  0.112450  0.792210  1.0
  O  O2015  1  0.977900  0.612450  0.207790  1.0
  O  O2016  1  0.522100  0.387550  0.207790  1.0
  O  O2017  1  0.965400  0.974460  0.229740  1.0
  O  O2018  1  0.534600  0.025540  0.229740  1.0
  O  O2019  1  0.965400  0.525540  0.770260  1.0
  O  O2020  1  0.534600  0.474460  0.770260  1.0
  O  O2021  1  0.034600  0.025540  0.770260  1.0
  O  O2022  1  0.465400  0.974460  0.770260  1.0
  O  O2023  1  0.034600  0.474460  0.229740  1.0
  O  O2024  1  0.465400  0.525540  0.229740  1.0
  O  O2025  1  0.000200  0.067230  0.316690  1.0
  O  O2026  1  0.499800  0.932770  0.316690  1.0
  O  O2027  1  0.000200  0.432770  0.683310  1.0
  O  O2028  1  0.499800  0.567230  0.683310  1.0
  O  O2029  1  0.999800  0.932770  0.683310  1.0
  O  O2030  1  0.500200  0.067230  0.683310  1.0
  O  O2031  1  0.999800  0.567230  0.316690  1.0
  O  O2032  1  0.500200  0.432770  0.316690  1.0
  O  O2033  1  0.106000  0.144020  0.347960  1.0
  O  O2034  1  0.394000  0.855980  0.347960  1.0
  O  O2035  1  0.106000  0.355980  0.652040  1.0
  O  O2036  1  0.394000  0.644020  0.652040  1.0
  O  O2037  1  0.894000  0.855980  0.652040  1.0
  O  O2038  1  0.606000  0.144020  0.652040  1.0
  O  O2039  1  0.894000  0.644020  0.347960  1.0
  O  O2040  1  0.606000  0.355980  0.347960  1.0
  O  O2041  1  0.189750  0.037480  0.410400  1.0
  O  O2042  1  0.310250  0.962520  0.410400  1.0
  O  O2043  1  0.189750  0.462520  0.589600  1.0
  O  O2044  1  0.310250  0.537480  0.589600  1.0
  O  O2045  1  0.810250  0.962520  0.589600  1.0
  O  O2046  1  0.689750  0.037480  0.589600  1.0
  O  O2047  1  0.810250  0.537480  0.410400  1.0
  O  O2048  1  0.689750  0.462520  0.410400  1.0
  O  O2049  1  0.299400  0.147840  0.369560  1.0
  O  O2050  1  0.200600  0.852160  0.369560  1.0
  O  O2051  1  0.299400  0.352160  0.630440  1.0
  O  O2052  1  0.200600  0.647840  0.630440  1.0
  O  O2053  1  0.700600  0.852160  0.630440  1.0
  O  O2054  1  0.799400  0.147840  0.630440  1.0
  O  O2055  1  0.700600  0.647840  0.369560  1.0
  O  O2056  1  0.799400  0.352160  0.369560  1.0
  O  O2057  1  0.389200  0.164680  0.185630  1.0
  O  O2058  1  0.110800  0.835320  0.185630  1.0
  O  O2059  1  0.389200  0.335320  0.814370  1.0
  O  O2060  1  0.110800  0.664680  0.814370  1.0
  O  O2061  1  0.610800  0.835320  0.814370  1.0
  O  O2062  1  0.889200  0.164680  0.814370  1.0
  O  O2063  1  0.610800  0.664680  0.185630  1.0
  O  O2064  1  0.889200  0.335320  0.185630  1.0
  O  O2065  1  0.006800  0.878080  0.277280  1.0
  O  O2066  1  0.493200  0.121920  0.277280  1.0
  O  O2067  1  0.006800  0.621920  0.722720  1.0
  O  O2068  1  0.493200  0.378080  0.722720  1.0
  O  O2069  1  0.993200  0.121920  0.722720  1.0
  O  O2070  1  0.506800  0.878080  0.722720  1.0
  O  O2071  1  0.993200  0.378080  0.277280  1.0
  O  O2072  1  0.506800  0.621920  0.277280  1.0
  O  O2073  1  0.332400  0.204590  0.291440  1.0
  O  O2074  1  0.167600  0.795410  0.291440  1.0
  O  O2075  1  0.332400  0.295410  0.708560  1.0
  O  O2076  1  0.167600  0.704590  0.708560  1.0
  O  O2077  1  0.667600  0.795410  0.708560  1.0
  O  O2078  1  0.832400  0.204590  0.708560  1.0
  O  O2079  1  0.667600  0.704590  0.291440  1.0
  O  O2080  1  0.832400  0.295410  0.291440  1.0
