
#######################################################################
#
#                 Cambridge Crystallographic Data Centre
#                                CCDC 
#
#######################################################################
#
# If this CIF has been generated from an entry in the Cambridge 
# Structural Database, then it will include bibliographic, chemical, 
# crystal, experimental, refinement or atomic coordinate data resulting 
# from the CCDC's data processing and validation procedures.
#
#######################################################################

data_BEBHOF
_chemical_formula_moiety         
'C192 H120 Cu12 N48 O24,24(C3 H7 N1 O1),4(H2 O1)'
_chemical_name_systematic        
'octakis(\m~3~-2,4,6-tris(Phenylazo)-1,3,5-trihydroxybenzene)-dodeca-copper(ii) dimethylformamide solvate tetrahydrate'
_symmetry_cell_setting           orthorhombic
_symmetry_space_group_name_H-M   'P b a a'
_symmetry_Int_Tables_number      54
_space_group_name_Hall           '-P 2a 2b'
loop_
_symmetry_equiv_pos_site_id
_symmetry_equiv_pos_as_xyz
1 x,y,z
2 1/2-x,-y,z
3 x,1/2-y,-z
4 1/2-x,1/2+y,-z
5 -x,-y,-z
6 1/2+x,y,-z
7 -x,1/2+y,z
8 1/2+x,1/2-y,z
_cell_length_a                   23.939(5)
_cell_length_b                   31.949(2)
_cell_length_c                   40.837(8)
_cell_angle_alpha                90
_cell_angle_beta                 90
_cell_angle_gamma                90
_cell_volume                     31233.2
_exptl_crystal_colour            'dark brown'
_exptl_crystal_description       'truncated octahedron'
_cell_formula_units_Z            4
loop_
_atom_site_label
_atom_site_type_symbol
_atom_site_fract_x
_atom_site_fract_y
_atom_site_fract_z
Cu1 Cu 0.04356(4) 0.11124(3) 0.33562(3)
Cu2 Cu -0.02845(8) -0.07641(4) 0.25469(3)
Cu3 Cu 0.31721(4) 0.18570(4) 0.33498(3)
Cu4 Cu 0.04911(5) 0.10156(3) 0.16479(3)
Cu5 Cu 0.31958(5) 0.17573(4) 0.16505(3)
Cu6 Cu 0.2500 0.0000 0.41790(4)
Cu7 Cu 0.2500 0.0000 0.07035(6)
N1 N 0.1458(3) 0.0419(2) 0.08518(16)
N2 N 0.1698(3) 0.0131(2) 0.06819(16)
N3 N 0.1355(3) 0.16213(18) 0.15462(15)
N4 N 0.0846(3) 0.15675(18) 0.16256(15)
N5 N 0.3123(3) 0.1217(2) 0.10822(17)
N6 N 0.3409(3) 0.1491(2) 0.12384(18)
C1 C 0.2338(3) 0.0792(2) 0.0991(2)
C2 C 0.1756(3) 0.0707(2) 0.10231(19)
C3 C 0.1408(3) 0.0962(2) 0.12324(17)
C4 C 0.1658(3) 0.1313(2) 0.13968(18)
C5 C 0.2242(3) 0.1401(2) 0.13696(17)
C6 C 0.2578(3) 0.1140(2) 0.11677(18)
O1 O 0.2653(2) 0.05695(19) 0.08049(15)
O2 O 0.0892(2) 0.08757(16) 0.12557(13)
O3 O 0.2436(2) 0.17124(16) 0.15240(13)
N7 N -0.0202(3) 0.03223(19) 0.18601(15)
N8 N -0.0058(3) 0.05575(18) 0.16171(14)
N9 N -0.0319(2) -0.00648(17) 0.29955(15)
N10 N -0.0440(3) -0.04537(18) 0.29489(15)
N11 N 0.0194(2) 0.13356(17) 0.26874(14)
N12 N 0.0267(2) 0.14694(17) 0.29792(14)
C7 C 0.0101(3) 0.0835(2) 0.22762(18)
C8 C -0.0072(3) 0.0428(2) 0.21673(18)
C9 C -0.0195(3) 0.0102(2) 0.24070(18)
C10 C -0.0164(3) 0.0191(2) 0.27491(17)
C11 C -0.0007(3) 0.0610(2) 0.28580(17)
C12 C 0.0112(3) 0.09237(19) 0.26231(17)
O4 O 0.0221(2) 0.11245(15) 0.20779(13)
O5 O -0.0346(3) -0.02554(15) 0.22974(13)
O6 O 0.0002(2) 0.06723(15) 0.31669(12)
N13 N 0.0962(2) 0.07247(17) 0.39108(13)
N14 N 0.0496(2) 0.08218(18) 0.37766(14)
N15 N 0.2945(2) 0.08274(18) 0.40760(14)
N16 N 0.2998(2) 0.04803(18) 0.42289(14)
N17 N 0.1981(2) 0.18614(18) 0.34284(15)
N18 N 0.2414(2) 0.20709(19) 0.33538(16)
C13 C 0.1486(3) 0.1277(2) 0.36217(17)
C14 C 0.1446(3) 0.0908(2) 0.38114(17)
C15 C 0.1942(3) 0.0715(2) 0.39506(16)
C16 C 0.2467(3) 0.0932(2) 0.39178(16)
C17 C 0.2510(3) 0.1314(2) 0.37265(17)
C18 C 0.2018(3) 0.1484(2) 0.35843(17)
O7 O 0.1060(2) 0.14402(15) 0.34796(13)
O8 O 0.18975(19) 0.03748(16) 0.41040(13)
O9 O 0.2994(2) 0.14784(17) 0.36956(13)
N19 N 0.0183(3) -0.13165(18) 0.20714(16)
N20 N -0.0236(3) -0.10914(18) 0.21392(18)
N21 N 0.4289(3) 0.16213(19) 0.31824(15)
N22 N 0.3969(3) 0.1759(2) 0.34034(16)
N23 N 0.3205(3) 0.21618(19) 0.22849(15)
N24 N 0.3056(3) 0.2186(2) 0.19842(16)
C19 C 0.1039(3) -0.1656(2) 0.21703(18)
C20 C 0.0560(3) -0.1440(2) 0.23024(18)
C21 C 0.0481(3) -0.1413(2) 0.26460(19)
C22 C 0.4132(3) 0.1623(2) 0.28610(17)
C23 C 0.3672(3) 0.1852(2) 0.27319(18)
C24 C 0.3602(3) 0.1875(2) 0.23799(18)
O10 O 0.3892(2) 0.16468(18) 0.18563(12)
O11 O 0.0068(2) -0.12192(16) 0.27728(13)
O12 O 0.3324(2) 0.20459(17) 0.29144(13)
C25 C 0.1314(4) -0.0125(3) 0.0506(2)
C26 C 0.1537(5) -0.0401(3) 0.0280(2)
C27 C 0.1159(7) -0.0652(3) 0.0089(3)
C28 C 0.0582(7) -0.0618(4) 0.0129(3)
C29 C 0.0377(6) -0.0344(4) 0.0355(3)
C30 C 0.0738(5) -0.0089(4) 0.0549(3)
C31 C 0.0570(3) 0.1940(2) 0.17279(18)
C32 C 0.0857(4) 0.2299(2) 0.1812(2)
C33 C 0.0556(4) 0.2661(3) 0.1877(2)
C34 C -0.0023(4) 0.2662(3) 0.1868(2)
C35 C -0.0308(4) 0.2296(3) 0.1802(2)
C36 C -0.0013(4) 0.1935(3) 0.1731(2)
C37 C 0.3942(4) 0.1560(4) 0.1104(2)
C38 C 0.4206(4) 0.1940(4) 0.1181(2)
C39 C 0.4729(5) 0.2032(5) 0.1045(3)
C40 C 0.4908(11) 0.1879(9) 0.0784(7)
C42 C 0.4683(10) 0.1485(8) 0.0705(6)
C44 C 0.4175(10) 0.1356(8) 0.0840(6)
C46 C -0.0288(4) 0.0434(2) 0.13099(18)
C47 C -0.0321(4) 0.0738(3) 0.1074(2)
C48 C -0.0563(5) 0.0640(3) 0.0773(2)
C49 C -0.0760(6) 0.0236(4) 0.0706(2)
C50 C -0.0712(6) -0.0071(4) 0.0959(3)
C51 C -0.0480(5) 0.0022(3) 0.1254(2)
C52 C -0.0622(3) -0.0659(2) 0.32417(18)
C53 C -0.0880(3) -0.1048(2) 0.3203(2)
C54 C -0.1086(3) -0.1250(2) 0.3475(2)
C55 C -0.1032(4) -0.1089(3) 0.3783(2)
C56 C -0.0759(4) -0.0697(3) 0.3820(2)
C57 C -0.0549(4) -0.0485(2) 0.3550(2)
C58 C 0.0291(3) 0.1919(2) 0.30056(18)
C59 C 0.0247(3) 0.2087(2) 0.33127(19)
C60 C 0.0239(3) 0.2524(2) 0.3352(2)
C61 C 0.0288(3) 0.2781(2) 0.3084(2)
C62 C 0.0333(3) 0.2607(2) 0.2769(2)
C63 C 0.0334(3) 0.2171(2) 0.27243(19)
C64 C 0.0018(3) 0.0642(2) 0.39301(17)
C65 C -0.0502(3) 0.0812(2) 0.3844(2)
C66 C -0.0979(3) 0.0653(3) 0.3996(2)
C67 C -0.0942(4) 0.0332(3) 0.4224(2)
C68 C -0.0425(3) 0.0164(3) 0.4302(2)
C69 C 0.0062(3) 0.0314(2) 0.41577(18)
C70 C 0.3511(3) 0.0450(2) 0.44099(18)
C71 C 0.3540(3) 0.0147(2) 0.46558(18)
C72 C 0.4008(4) 0.0116(3) 0.4851(2)
C73 C 0.4462(3) 0.0379(3) 0.4797(2)
C74 C 0.4436(3) 0.0683(3) 0.4546(2)
C75 C 0.3965(3) 0.0720(3) 0.4354(2)
C76 C 0.2290(3) 0.2472(2) 0.3213(2)
C77 C 0.2688(4) 0.2778(3) 0.3251(3)
C78 C 0.2633(7) 0.3190(5) 0.3214(5)
C80 C 0.2107(4) 0.3264(3) 0.2965(4)
C81 C 0.1706(4) 0.2955(3) 0.2926(3)
C82 C 0.1797(3) 0.2553(3) 0.3049(3)
C83 C -0.0612(4) -0.1038(2) 0.1875(3)
C84 C -0.1112(6) -0.0826(5) 0.2012(4)
C86 C -0.1509(7) -0.0733(5) 0.1748(4)
C88 C -0.1403(7) -0.0847(5) 0.1436(5)
C90 C -0.0934(7) -0.1063(6) 0.1351(4)
C92 C -0.0507(4) -0.1192(4) 0.1567(3)
C93 C 0.4221(3) 0.1796(3) 0.3721(2)
C94 C 0.4690(3) 0.1571(3) 0.38106(19)
C95 C 0.4923(4) 0.1632(4) 0.4117(2)
C96 C 0.4679(8) 0.2054(7) 0.4298(5)
C98 C 0.4228(8) 0.2288(6) 0.4180(5)
C100 C 0.3995(8) 0.2178(6) 0.3900(4)
C102 C 0.2674(4) 0.2524(3) 0.1924(2)
C103 C 0.2370(4) 0.2714(3) 0.2177(3)
C104 C 0.1999(5) 0.3041(3) 0.2093(3)
C105 C 0.1944(6) 0.3169(3) 0.1780(4)
C106 C 0.2244(6) 0.2981(4) 0.1527(3)
C107 C 0.2623(5) 0.2650(3) 0.1598(2)
N2A N 0.3302(3) -0.0131(2) 0.06819(16)
N1A N 0.3542(3) -0.0419(2) 0.08518(16)
C2A C 0.3244(3) -0.0707(2) 0.10231(19)
C1A C 0.2662(3) -0.0792(2) 0.0991(2)
C6A C 0.2422(3) -0.1140(2) 0.11677(18)
N5A N 0.1877(3) -0.1217(2) 0.10822(17)
N6A N 0.1591(3) -0.1491(2) 0.12384(18)
Cu5A Cu 0.18042(5) -0.17573(4) 0.16505(3)
O3A O 0.2564(2) -0.17124(16) 0.15240(13)
C5A C 0.2758(3) -0.1401(2) 0.13696(17)
C4A C 0.3342(3) -0.1313(2) 0.13968(18)
N3A N 0.3645(3) -0.16213(18) 0.15462(15)
N4A N 0.4154(3) -0.15675(18) 0.16256(15)
Cu4A Cu 0.45089(5) -0.10156(3) 0.16479(3)
O2A O 0.4108(2) -0.08757(16) 0.12557(13)
C3A C 0.3592(3) -0.0962(2) 0.12324(17)
N8A N 0.5058(3) -0.05575(18) 0.16171(14)
N7A N 0.5202(3) -0.03223(19) 0.18601(15)
C8A C 0.5072(3) -0.0428(2) 0.21673(18)
C7A C 0.4899(3) -0.0835(2) 0.22762(18)
C12A C 0.4888(3) -0.09237(19) 0.26231(17)
N11A N 0.4806(2) -0.13356(17) 0.26874(14)
N12A N 0.4733(2) -0.14694(17) 0.29792(14)
Cu1A Cu 0.45644(4) -0.11124(3) 0.33562(3)
O6A O 0.4998(2) -0.06723(15) 0.31669(12)
C11A C 0.5007(3) -0.0610(2) 0.28580(17)
C10A C 0.5164(3) -0.0191(2) 0.27491(17)
N9A N 0.5319(2) 0.00648(17) 0.29955(15)
N10A N 0.5440(3) 0.04537(18) 0.29489(15)
Cu2A Cu 0.52845(8) 0.07641(4) 0.25469(3)
O5A O 0.5346(3) 0.02554(15) 0.22974(13)
C9A C 0.5195(3) -0.0102(2) 0.24070(18)
N20A N 0.5236(3) 0.10914(18) 0.21392(18)
N19A N 0.4817(3) 0.13165(18) 0.20714(16)
C20A C 0.4440(3) 0.1440(2) 0.23024(18)
C19A C 0.3961(3) 0.1656(2) 0.21703(18)
O1A O 0.2347(2) -0.05695(19) 0.08049(15)
C24A C 0.1398(3) -0.1875(2) 0.23799(18)
N23A N 0.1795(3) -0.21618(19) 0.22849(15)
N24A N 0.1944(3) -0.2186(2) 0.19842(16)
O10A O 0.1108(2) -0.16468(18) 0.18563(12)
C102A C 0.2326(4) -0.2524(3) 0.1924(2)
C103A C 0.2630(4) -0.2714(3) 0.2177(3)
C104A C 0.3001(5) -0.3041(3) 0.2093(3)
C105A C 0.3056(6) -0.3169(3) 0.1780(4)
C106A C 0.2756(6) -0.2981(4) 0.1527(3)
C107A C 0.2377(5) -0.2650(3) 0.1598(2)
C23A C 0.1328(3) -0.1852(2) 0.27319(18)
C22A C 0.0868(3) -0.1623(2) 0.28610(17)
N21A N 0.0711(3) -0.16213(19) 0.31824(15)
N22A N 0.1031(3) -0.1759(2) 0.34034(16)
Cu3A Cu 0.18279(4) -0.18570(4) 0.33498(3)
N18A N 0.2586(2) -0.20709(19) 0.33538(16)
N17A N 0.3019(2) -0.18614(18) 0.34284(15)
C18A C 0.2982(3) -0.1484(2) 0.35843(17)
C13A C 0.3514(3) -0.1277(2) 0.36217(17)
C14A C 0.3554(3) -0.0908(2) 0.38114(17)
N13A N 0.4038(2) -0.07247(17) 0.39108(13)
N14A N 0.4504(2) -0.08218(18) 0.37766(14)
O7A O 0.3940(2) -0.14402(15) 0.34796(13)
C64A C 0.4982(3) -0.0642(2) 0.39301(17)
C65A C 0.5502(3) -0.0812(2) 0.3844(2)
C66A C 0.5979(3) -0.0653(3) 0.3996(2)
C67A C 0.5942(4) -0.0332(3) 0.4224(2)
C68A C 0.5425(3) -0.0164(3) 0.4302(2)
C69A C 0.4938(3) -0.0314(2) 0.41577(18)
C15A C 0.3058(3) -0.0715(2) 0.39506(16)
C16A C 0.2533(3) -0.0932(2) 0.39178(16)
N15A N 0.2055(2) -0.08274(18) 0.40760(14)
N16A N 0.2002(2) -0.04803(18) 0.42289(14)
O8A O 0.31025(19) -0.03748(16) 0.41040(13)
C70A C 0.1489(3) -0.0450(2) 0.44099(18)
C71A C 0.1460(3) -0.0147(2) 0.46558(18)
C72A C 0.0992(4) -0.0116(3) 0.4851(2)
C73A C 0.0538(3) -0.0379(3) 0.4797(2)
C74A C 0.0564(3) -0.0683(3) 0.4546(2)
C75A C 0.1035(3) -0.0720(3) 0.4354(2)
C17A C 0.2490(3) -0.1314(2) 0.37265(17)
O9A O 0.2006(2) -0.14784(17) 0.36956(13)
O12A O 0.1676(2) -0.20459(17) 0.29144(13)
C76A C 0.2710(3) -0.2472(2) 0.3213(2)
C77A C 0.2312(4) -0.2778(3) 0.3251(3)
C78A C 0.2367(7) -0.3190(5) 0.3214(5)
C80A C 0.2893(4) -0.3264(3) 0.2965(4)
C81A C 0.3294(4) -0.2955(3) 0.2926(3)
C82A C 0.3203(3) -0.2553(3) 0.3049(3)
C93A C 0.0779(3) -0.1796(3) 0.3721(2)
C94A C 0.0310(3) -0.1571(3) 0.38106(19)
C95A C 0.0077(4) -0.1632(4) 0.4117(2)
C96A C 0.0321(8) -0.2054(7) 0.4298(5)
C98A C 0.0772(8) -0.2288(6) 0.4180(5)
C100A C 0.1005(8) -0.2178(6) 0.3900(4)
C21A C 0.4519(3) 0.1413(2) 0.26460(19)
O11A O 0.4932(2) 0.12192(16) 0.27728(13)
C83A C 0.5612(4) 0.1038(2) 0.1875(3)
C84A C 0.6112(6) 0.0826(5) 0.2012(4)
C86A C 0.6509(7) 0.0733(5) 0.1748(4)
C88A C 0.6403(7) 0.0847(5) 0.1436(5)
C90A C 0.5934(7) 0.1063(6) 0.1351(4)
C92A C 0.5507(4) 0.1192(4) 0.1567(3)
C52A C 0.5622(3) 0.0659(2) 0.32417(18)
C53A C 0.5880(3) 0.1048(2) 0.3203(2)
C54A C 0.6086(3) 0.1250(2) 0.3475(2)
C55A C 0.6032(4) 0.1089(3) 0.3783(2)
C56A C 0.5759(4) 0.0697(3) 0.3820(2)
C57A C 0.5549(4) 0.0485(2) 0.3550(2)
C58A C 0.4709(3) -0.1919(2) 0.30056(18)
C59A C 0.4753(3) -0.2087(2) 0.33127(19)
C60A C 0.4761(3) -0.2524(2) 0.3352(2)
C61A C 0.4712(3) -0.2781(2) 0.3084(2)
C62A C 0.4667(3) -0.2607(2) 0.2769(2)
C63A C 0.4666(3) -0.2171(2) 0.27243(19)
O4A O 0.4779(2) -0.11245(15) 0.20779(13)
C46A C 0.5288(4) -0.0434(2) 0.13099(18)
C47A C 0.5321(4) -0.0738(3) 0.1074(2)
C48A C 0.5563(5) -0.0640(3) 0.0773(2)
C49A C 0.5760(6) -0.0236(4) 0.0706(2)
C50A C 0.5712(6) 0.0071(4) 0.0959(3)
C51A C 0.5480(5) -0.0022(3) 0.1254(2)
C31A C 0.4430(3) -0.1940(2) 0.17279(18)
C32A C 0.4143(4) -0.2299(2) 0.1812(2)
C33A C 0.4444(4) -0.2661(3) 0.1877(2)
C34A C 0.5023(4) -0.2662(3) 0.1868(2)
C35A C 0.5308(4) -0.2296(3) 0.1802(2)
C36A C 0.5013(4) -0.1935(3) 0.1731(2)
C37A C 0.1058(4) -0.1560(4) 0.1104(2)
C38A C 0.0794(4) -0.1940(4) 0.1181(2)
C39A C 0.0271(5) -0.2032(5) 0.1045(3)
C40A C 0.0092(11) -0.1879(9) 0.0784(7)
C42A C 0.0317(10) -0.1485(8) 0.0705(6)
C44A C 0.0825(10) -0.1356(8) 0.0840(6)
C25A C 0.3686(4) 0.0125(3) 0.0506(2)
C26A C 0.3463(5) 0.0401(3) 0.0280(2)
C27A C 0.3841(7) 0.0652(3) 0.0089(3)
C28A C 0.4418(7) 0.0618(4) 0.0129(3)
C29A C 0.4623(6) 0.0344(4) 0.0355(3)
C30A C 0.4262(5) 0.0089(4) 0.0549(3)
C111 C 0.6988(6) 0.0430(5) 0.3136(4)
C112 C 0.6606(6) -0.0228(4) 0.3290(3)
C113 C 0.6733(5) -0.0088(4) 0.2688(3)
N26 N 0.6771(4) 0.0059(3) 0.3036(2)
O14 O 0.7130(5) 0.0676(4) 0.2926(3)
O28 O 0.1390(9) 0.0954(7) 0.7478(5)
loop_
_geom_bond_atom_site_label_1
_geom_bond_atom_site_label_2
_geom_bond_site_symmetry_1
_geom_bond_site_symmetry_2
Cu1 N12 1_555 1_555
Cu2 N10 1_555 1_555
Cu3 N18 1_555 1_555
Cu4 N4 1_555 1_555
Cu5 N6 1_555 1_555
Cu6 N16 1_555 1_555
Cu7 N2 1_555 1_555
N1 N2 1_555 1_555
N2 C25 1_555 1_555
N3 N4 1_555 1_555
N4 C31 1_555 1_555
N5 N6 1_555 1_555
N6 C37 1_555 1_555
C1 C2 1_555 1_555
C2 N1 1_555 1_555
C3 C2 1_555 1_555
C4 N3 1_555 1_555
C5 C4 1_555 1_555
C6 N5 1_555 1_555
O1 Cu7 1_555 1_555
O2 Cu4 1_555 1_555
O3 Cu5 1_555 1_555
N7 N8 1_555 1_555
N8 Cu4 1_555 1_555
N9 N10 1_555 1_555
N10 C52 1_555 1_555
N11 N12 1_555 1_555
N12 C58 1_555 1_555
C7 C8 1_555 1_555
C8 N7 1_555 1_555
C9 C8 1_555 1_555
C10 N9 1_555 1_555
C11 C10 1_555 1_555
C12 N11 1_555 1_555
O4 Cu4 1_555 1_555
O5 Cu2 1_555 1_555
O6 Cu1 1_555 1_555
N13 N14 1_555 1_555
N14 Cu1 1_555 1_555
N15 N16 1_555 1_555
N16 C70 1_555 1_555
N17 N18 1_555 1_555
N18 C76 1_555 1_555
C13 C14 1_555 1_555
C14 N13 1_555 1_555
C15 C14 1_555 1_555
C16 N15 1_555 1_555
C17 C16 1_555 1_555
C18 N17 1_555 1_555
O7 Cu1 1_555 1_555
O8 Cu6 1_555 1_555
O9 Cu3 1_555 1_555
N19 N20 1_555 1_555
N20 Cu2 1_555 1_555
N21 N22 1_555 1_555
N22 Cu3 1_555 1_555
N23 N24 1_555 1_555
N24 Cu5 1_555 1_555
C19 C20 1_555 1_555
C20 N19 1_555 1_555
C21 C20 1_555 1_555
C22 N21 1_555 1_555
C23 C22 1_555 1_555
C24 N23 1_555 1_555
O10 Cu5 1_555 1_555
O11 Cu2 1_555 1_555
O12 Cu3 1_555 1_555
C25 C26 1_555 1_555
C26 C27 1_555 1_555
C27 C28 1_555 1_555
C28 C29 1_555 1_555
C29 C30 1_555 1_555
C30 C25 1_555 1_555
C31 C32 1_555 1_555
C32 C33 1_555 1_555
C33 C34 1_555 1_555
C34 C35 1_555 1_555
C35 C36 1_555 1_555
C36 C31 1_555 1_555
C37 C38 1_555 1_555
C38 C39 1_555 1_555
C39 C40 1_555 1_555
C40 C42 1_555 1_555
C42 C44 1_555 1_555
C44 C37 1_555 1_555
C46 N8 1_555 1_555
C47 C46 1_555 1_555
C48 C47 1_555 1_555
C49 C48 1_555 1_555
C50 C49 1_555 1_555
C51 C46 1_555 1_555
C52 C53 1_555 1_555
C53 C54 1_555 1_555
C54 C55 1_555 1_555
C55 C56 1_555 1_555
C56 C57 1_555 1_555
C57 C52 1_555 1_555
C58 C59 1_555 1_555
C59 C60 1_555 1_555
C60 C61 1_555 1_555
C61 C62 1_555 1_555
C62 C63 1_555 1_555
C63 C58 1_555 1_555
C64 N14 1_555 1_555
C65 C64 1_555 1_555
C66 C65 1_555 1_555
C67 C66 1_555 1_555
C68 C67 1_555 1_555
C69 C64 1_555 1_555
C70 C71 1_555 1_555
C71 C72 1_555 1_555
C72 C73 1_555 1_555
C73 C74 1_555 1_555
C74 C75 1_555 1_555
C75 C70 1_555 1_555
C76 C77 1_555 1_555
C77 C78 1_555 1_555
C78 C80 1_555 1_555
C80 C81 1_555 1_555
C81 C82 1_555 1_555
C82 C76 1_555 1_555
C83 N20 1_555 1_555
C84 C83 1_555 1_555
C86 C84 1_555 1_555
C88 C86 1_555 1_555
C90 C88 1_555 1_555
C92 C83 1_555 1_555
C93 N22 1_555 1_555
C94 C93 1_555 1_555
C95 C94 1_555 1_555
C96 C95 1_555 1_555
C98 C96 1_555 1_555
C100 C93 1_555 1_555
C102 N24 1_555 1_555
C103 C102 1_555 1_555
C104 C103 1_555 1_555
C105 C104 1_555 1_555
C106 C105 1_555 1_555
C107 C102 1_555 1_555
C111 N26 1_555 1_555
C112 N26 1_555 1_555
C113 N26 1_555 1_555
O14 C111 1_555 1_555
N2A Cu7 1_555 1_555
N1A N2A 1_555 1_555
C2A N1A 1_555 1_555
C1A C2A 1_555 1_555
C6A C1A 1_555 1_555
N5A C6A 1_555 1_555
N6A N5A 1_555 1_555
Cu5A N6A 1_555 1_555
O3A Cu5A 1_555 1_555
C5A C6A 1_555 1_555
C4A C5A 1_555 1_555
N3A C4A 1_555 1_555
N4A N3A 1_555 1_555
Cu4A N4A 1_555 1_555
O2A Cu4A 1_555 1_555
C3A C2A 1_555 1_555
N8A Cu4A 1_555 1_555
N7A N8A 1_555 1_555
C8A N7A 1_555 1_555
C7A C8A 1_555 1_555
C12A C7A 1_555 1_555
N11A C12A 1_555 1_555
N12A N11A 1_555 1_555
Cu1A N12A 1_555 1_555
O6A Cu1A 1_555 1_555
C11A C12A 1_555 1_555
C10A C11A 1_555 1_555
N9A C10A 1_555 1_555
N10A N9A 1_555 1_555
Cu2A N10A 1_555 1_555
O5A Cu2A 1_555 1_555
C9A C8A 1_555 1_555
N20A Cu2A 1_555 1_555
N19A N20A 1_555 1_555
C20A N19A 1_555 1_555
C19A C24 1_555 1_555
O1A Cu7 1_555 1_555
C24A C19 1_555 1_555
N23A C24A 1_555 1_555
N24A Cu5A 1_555 1_555
O10A C19 1_555 1_555
C102A N24A 1_555 1_555
C103A C102A 1_555 1_555
C104A C103A 1_555 1_555
C105A C104A 1_555 1_555
C106A C105A 1_555 1_555
C107A C102A 1_555 1_555
C23A C24A 1_555 1_555
C22A C21 1_555 1_555
N21A C22A 1_555 1_555
N22A N21A 1_555 1_555
Cu3A N22A 1_555 1_555
N18A Cu3A 1_555 1_555
N17A N18A 1_555 1_555
C18A N17A 1_555 1_555
C13A C18A 1_555 1_555
C14A C13A 1_555 1_555
N13A C14A 1_555 1_555
N14A Cu1A 1_555 1_555
O7A Cu1A 1_555 1_555
C64A N14A 1_555 1_555
C65A C64A 1_555 1_555
C66A C65A 1_555 1_555
C67A C66A 1_555 1_555
C68A C67A 1_555 1_555
C69A C64A 1_555 1_555
C15A C14A 1_555 1_555
C16A C15A 1_555 1_555
N15A C16A 1_555 1_555
N16A Cu6 1_555 1_555
O8A Cu6 1_555 1_555
C70A N16A 1_555 1_555
C71A C70A 1_555 1_555
C72A C71A 1_555 1_555
C73A C72A 1_555 1_555
C74A C73A 1_555 1_555
C75A C70A 1_555 1_555
C17A C18A 1_555 1_555
O9A Cu3A 1_555 1_555
O12A C23A 1_555 1_555
C76A N18A 1_555 1_555
C77A C76A 1_555 1_555
C78A C77A 1_555 1_555
C80A C78A 1_555 1_555
C81A C80A 1_555 1_555
C82A C76A 1_555 1_555
C93A N22A 1_555 1_555
C94A C93A 1_555 1_555
C95A C94A 1_555 1_555
C96A C95A 1_555 1_555
C98A C96A 1_555 1_555
C100A C93A 1_555 1_555
C21A C22 1_555 1_555
O11A Cu2A 1_555 1_555
C83A N20A 1_555 1_555
C84A C83A 1_555 1_555
C86A C84A 1_555 1_555
C88A C86A 1_555 1_555
C90A C88A 1_555 1_555
C92A C83A 1_555 1_555
C52A N10A 1_555 1_555
C53A C52A 1_555 1_555
C54A C53A 1_555 1_555
C55A C54A 1_555 1_555
C56A C55A 1_555 1_555
C57A C52A 1_555 1_555
C58A N12A 1_555 1_555
C59A C58A 1_555 1_555
C60A C59A 1_555 1_555
C61A C60A 1_555 1_555
C62A C61A 1_555 1_555
C63A C58A 1_555 1_555
O4A Cu4A 1_555 1_555
C46A N8A 1_555 1_555
C47A C46A 1_555 1_555
C48A C47A 1_555 1_555
C49A C48A 1_555 1_555
C50A C49A 1_555 1_555
C51A C46A 1_555 1_555
C31A N4A 1_555 1_555
C32A C31A 1_555 1_555
C33A C32A 1_555 1_555
C34A C33A 1_555 1_555
C35A C34A 1_555 1_555
C36A C31A 1_555 1_555
C37A N6A 1_555 1_555
C38A C37A 1_555 1_555
C39A C38A 1_555 1_555
C40A C39A 1_555 1_555
C42A C40A 1_555 1_555
C44A C37A 1_555 1_555
C25A N2A 1_555 1_555
C26A C25A 1_555 1_555
C27A C26A 1_555 1_555
C28A C27A 1_555 1_555
C29A C28A 1_555 1_555
C30A C25A 1_555 1_555
C1 C6 1_555 1_555
C1 O1 1_555 1_555
C3 C4 1_555 1_555
C3 O2 1_555 1_555
C5 C6 1_555 1_555
C5 O3 1_555 1_555
C7 C12 1_555 1_555
C7 O4 1_555 1_555
C9 O5 1_555 1_555
C9 C10 1_555 1_555
C11 O6 1_555 1_555
C11 C12 1_555 1_555
C13 C18 1_555 1_555
C13 O7 1_555 1_555
C15 C16 1_555 1_555
C15 O8 1_555 1_555
C17 O9 1_555 1_555
C17 C18 1_555 1_555
C21 O11 1_555 1_555
C23 C24 1_555 1_555
C23 O12 1_555 1_555
O10 C19A 1_555 1_555
C50 C51 1_555 1_555
C68 C69 1_555 1_555
C90 C92 1_555 1_555
C98 C100 1_555 1_555
C106 C107 1_555 1_555
C1A O1A 1_555 1_555
Cu5A O10A 1_555 1_555
O3A C5A 1_555 1_555
C4A C3A 1_555 1_555
O2A C3A 1_555 1_555
C7A O4A 1_555 1_555
O6A C11A 1_555 1_555
C10A C9A 1_555 1_555
O5A C9A 1_555 1_555
C20A C19A 1_555 1_555
C20A C21A 1_555 1_555
N23A N24A 1_555 1_555
C106A C107A 1_555 1_555
C23A C22A 1_555 1_555
Cu3A O12A 1_555 1_555
C13A O7A 1_555 1_555
N13A N14A 1_555 1_555
C68A C69A 1_555 1_555
C15A O8A 1_555 1_555
C16A C17A 1_555 1_555
N15A N16A 1_555 1_555
C74A C75A 1_555 1_555
C17A O9A 1_555 1_555
C81A C82A 1_555 1_555
C98A C100A 1_555 1_555
C21A O11A 1_555 1_555
C90A C92A 1_555 1_555
C56A C57A 1_555 1_555
C62A C63A 1_555 1_555
C50A C51A 1_555 1_555
C35A C36A 1_555 1_555
C42A C44A 1_555 1_555
C29A C30A 1_555 1_555

#END
