
#######################################################################
#
#                 Cambridge Crystallographic Data Centre
#                                CCDC 
#
#######################################################################
#
# If this CIF has been generated from an entry in the Cambridge 
# Structural Database, then it will include bibliographic, chemical, 
# crystal, experimental, refinement or atomic coordinate data resulting 
# from the CCDC's data processing and validation procedures.
#
#######################################################################

data_BEHKIJ
_chemical_name_common            
'bis((mu!2$-Anthracene-1,8-diyl)-(mu!2$-terephthalato)-tetrakis(triethylphosphine)-di-platinum(ii)) dichloromethane solvate'
_chemical_formula_moiety         'C92 H144 O8 P8 Pt4,4(C1 H2 Cl2)'
_chemical_name_systematic        
'bis((\m~2~-Anthracene-1,8-diyl)-(\m~2~-benzene-1,4-dicarboxylato)-tetrakis(triethylphosphine)-di-platinum(ii)) dichloromethane solvate'
_symmetry_cell_setting           triclinic
_symmetry_space_group_name_H-M   'P -1'
_symmetry_Int_Tables_number      2
_space_group_name_Hall           '-P 1'
loop_
_symmetry_equiv_pos_site_id
_symmetry_equiv_pos_as_xyz
1 x,y,z
2 -x,-y,-z
_cell_length_a                   11.8720(2)
_cell_length_b                   12.8355(3)
_cell_length_c                   20.9817(4)
_cell_angle_alpha                79.8348(10)
_cell_angle_beta                 74.1654(11)
_cell_angle_gamma                73.5959(12)
_cell_volume                     2933.55
_exptl_crystal_colour            orange
_exptl_crystal_description       plate
_cell_formula_units_Z            1
_exptl_crystal_recrystallization_method chloroform/dichloromethane/acetone
loop_
_atom_site_label
_atom_site_type_symbol
_atom_site_fract_x
_atom_site_fract_y
_atom_site_fract_z
Pt1 Pt 0.82679(2) 0.80328(2) 0.845319(12)
Pt2 Pt 0.32355(2) 0.40424(2) 1.309209(12)
P1 P 0.94863(16) 0.62938(15) 0.84528(9)
P2 P 0.49840(17) 0.26817(18) 1.28767(10)
O1 O 0.7185(4) 0.7489(4) 0.9371(2)
O2 O 0.7829(6) 0.8375(5) 0.9974(3)
O3 O 0.4636(6) 0.5916(5) 1.2889(3)
O4 O 0.3963(4) 0.5085(4) 1.2271(2)
C1 C 0.7253(6) 0.7741(6) 0.9926(4)
C2 C 0.6536(6) 0.7214(6) 1.0549(3)
C3 C 0.5877(7) 0.6489(6) 1.0511(4)
H1 H 0.5872 0.6322 1.0089
C4 C 0.5234(6) 0.6015(7) 1.1083(4)
H2 H 0.4793 0.5521 1.1051
C5 C 0.5222(6) 0.6255(6) 1.1713(3)
C6 C 0.5870(6) 0.6990(5) 1.1743(3)
H3 H 0.5867 0.7170 1.2164
C7 C 0.6513(6) 0.7457(6) 1.1170(3)
H4 H 0.6948 0.7956 1.1201
C8 C 0.4561(6) 0.5722(6) 1.2346(3)
C9 C 0.2515(6) 0.3016(6) 1.3837(3)
C10 C 0.2673(7) 0.2984(6) 1.4475(4)
H5 H 0.3217 0.3360 1.4532
C11 C 0.2057(8) 0.2415(7) 1.5041(4)
H6 H 0.2213 0.2397 1.5464
C12 C 0.1245(8) 0.1894(7) 1.4987(4)
H7 H 0.0794 0.1560 1.5375
C13 C 0.1066(7) 0.1845(6) 1.4346(3)
C14 C 0.0236(7) 0.1316(6) 1.4286(4)
H8 H -0.0233 0.1007 1.4678
C15 C 0.0066(6) 0.1220(6) 1.3660(4)
C16 C -0.0807(7) 0.0697(6) 1.3605(4)
H9 H -0.1302 0.0413 1.3995
C17 C -0.0931(6) 0.0604(6) 1.3006(4)
H10 H -0.1533 0.0273 1.2974
C18 C -0.0177(6) 0.0991(6) 1.2416(4)
H11 H -0.0272 0.0890 1.1998
C19 C 0.9316(6) 0.8494(5) 0.7573(3)
C20 C 0.0808(5) 0.1664(5) 1.3059(3)
C21 C 0.1594(5) 0.2257(5) 1.3141(3)
H12 H 0.2050 0.2586 1.2753
C22 C 0.1733(6) 0.2382(6) 1.3761(3)
C23 C 1.0911(7) 0.6119(6) 0.7806(4)
H13 H 1.0719 0.6240 0.7364
H14 H 1.1315 0.6688 0.7823
C24 C 1.1799(8) 0.4992(7) 0.7871(5)
H15 H 1.2013 0.4870 0.8302
H16 H 1.2531 0.4968 0.7511
H17 H 1.1420 0.4423 0.7840
C25 C 0.9907(8) 0.5862(7) 0.9236(4)
H18 H 0.9168 0.5895 0.9600
H19 H 1.0387 0.5093 0.9239
C26 C 1.0640(9) 0.6564(9) 0.9365(5)
H20 H 1.1305 0.6626 0.8975
H21 H 1.0968 0.6227 0.9754
H22 H 1.0119 0.7293 0.9449
C27 C 0.8805(8) 0.5255(7) 0.8331(4)
H23 H 0.8611 0.5438 0.7888
H24 H 0.9411 0.4543 0.8325
C28 C 0.7681(8) 0.5126(8) 0.8845(5)
H25 H 0.7898 0.4727 0.9255
H26 H 0.7257 0.4718 0.8678
H27 H 0.7152 0.5849 0.8939
C29 C 0.8037(8) 1.0555(7) 0.8840(6)
H28 H 0.8259 1.0120 0.9247
H29 H 0.8798 1.0585 0.8502
C30 C 0.7378(13) 1.1717(10) 0.9007(9)
H30 H 0.7240 1.2184 0.8599
H31 H 0.7871 1.2002 0.9207
H32 H 0.6600 1.1711 0.9323
C31 C 0.5745(7) 1.0029(9) 0.9139(4)
H33 H 0.5895 0.9772 0.9588
H34 H 0.5356 1.0821 0.9128
C32 C 0.4877(8) 0.9456(11) 0.9037(5)
H35 H 0.4758 0.9667 0.8584
H36 H 0.4101 0.9664 0.9359
H37 H 0.5205 0.8664 0.9103
P3 P 0.72073(19) 0.9836(2) 0.85288(11)
C33 C 0.7198(16) 1.0899(12) 0.7768(8)
H38 H 0.6806 1.1636 0.7914
H39 H 0.8039 1.0890 0.7520
C34 C 0.653(2) 1.0665(17) 0.7324(10)
H40 H 0.6986 0.9985 0.7128
H41 H 0.6444 1.1267 0.6968
H42 H 0.5733 1.0589 0.7583
C37 C 0.5773(9) 0.2410(9) 1.3552(5)
H48 H 0.5248 0.2144 1.3966
H49 H 0.6515 0.1818 1.3442
C38 C 0.6113(10) 0.3371(9) 1.3681(5)
H50 H 0.6735 0.3569 1.3300
H51 H 0.6428 0.3188 1.4083
H52 H 0.5399 0.3989 1.3744
C39 C 0.6173(8) 0.2990(9) 1.2149(5)
H53 H 0.6298 0.3714 1.2166
H54 H 0.6944 0.2436 1.2160
C40 C 0.5794(9) 0.2986(9) 1.1487(5)
H55 H 0.5901 0.2231 1.1407
H56 H 0.6301 0.3344 1.1113
H57 H 0.4945 0.3381 1.1528
C41 C 0.4829(8) 0.1373(7) 1.2789(5)
H58 H 0.4252 0.1147 1.3193
H59 H 0.4460 0.1457 1.2407
C42 C 0.5985(9) 0.0440(8) 1.2682(7)
H60 H 0.6587 0.0662 1.2298
H61 H 0.5796 -0.0212 1.2600
H62 H 0.6309 0.0277 1.3081
C43 C 0.1278(10) 0.6598(7) 1.2850(5)
H63 H 0.2020 0.6859 1.2650
H64 H 0.1077 0.6328 1.2492
C44 C 0.0257(9) 0.7569(7) 1.3092(5)
H65 H -0.0475 0.7320 1.3317
H66 H 0.0102 0.8103 1.2710
H67 H 0.0487 0.7909 1.3404
P4 P 0.1615(2) 0.5462(2) 1.34679(12)
C45 C 0.0282(11) 0.5229(12) 1.4043(6)
H68 H 0.0484 0.4645 1.4400
H69 H -0.0203 0.5903 1.4248
C46 C -0.0370(14) 0.4905(13) 1.3659(8)
H70 H -0.0743 0.5546 1.3389
H71 H -0.1000 0.4577 1.3960
H72 H 0.0188 0.4369 1.3365
C47 C 0.210(3) 0.629(3) 1.3960(15)
H73 H 0.2618 0.6718 1.3634
H74 H 0.1359 0.6825 1.4165
C48 C 0.262(2) 0.586(2) 1.4396(19)
H75 H 0.2166 0.5379 1.4710
H76 H 0.2690 0.6426 1.4633
H77 H 0.3430 0.5435 1.4199
C19A C 0.0684(6) 0.1506(5) 1.2427(3)
Pt1A Pt 0.17321(2) 0.19672(2) 1.154681(12)
P1A P 0.05137(16) 0.37062(15) 1.15472(9)
C23A C -0.0911(7) 0.3881(6) 1.2194(4)
H13A H -0.0719 0.3760 1.2636
H14A H -0.1315 0.3312 1.2177
C24A C -0.1799(8) 0.5008(7) 1.2129(5)
H15A H -0.2013 0.5130 1.1698
H16A H -0.2531 0.5032 1.2489
H17A H -0.1420 0.5577 1.2160
C25A C 0.0093(8) 0.4138(7) 1.0764(4)
H18A H 0.0832 0.4105 1.0400
H19A H -0.0387 0.4907 1.0761
C26A C -0.0640(9) 0.3436(9) 1.0635(5)
H20A H -0.1305 0.3374 1.1025
H21A H -0.0968 0.3773 1.0246
H22A H -0.0119 0.2707 1.0551
C27A C 0.1195(8) 0.4745(7) 1.1669(4)
H23A H 0.1389 0.4562 1.2112
H24A H 0.0589 0.5457 1.1675
C28A C 0.2319(8) 0.4874(8) 1.1155(5)
H25A H 0.2102 0.5273 1.0745
H26A H 0.2743 0.5282 1.1322
H27A H 0.2848 0.4151 1.1061
O1A O 0.2815(4) 0.2511(4) 1.0629(2)
C1A C 0.2747(6) 0.2259(6) 1.0074(4)
O2A O 0.2171(6) 0.1625(5) 1.0026(3)
C2A C 0.3464(6) 0.2786(6) 0.9451(3)
C3A C 0.4123(7) 0.3511(6) 0.9489(4)
H1A H 0.4128 0.3678 0.9911
C4A C 0.4766(6) 0.3985(7) 0.8917(4)
H2A H 0.5207 0.4479 0.8949
C5A C 0.4778(6) 0.3745(6) 0.8287(3)
C6A C 0.4130(6) 0.3010(5) 0.8257(3)
H3A H 0.4133 0.2830 0.7836
C7A C 0.3487(6) 0.2543(6) 0.8830(3)
H4A H 0.3052 0.2044 0.8799
C8A C 0.5439(6) 0.4278(6) 0.7654(3)
O3A O 0.5364(6) 0.4084(5) 0.7111(3)
O4A O 0.6037(4) 0.4915(4) 0.7729(2)
Pt2A Pt 0.67645(2) 0.59576(2) 0.690791(12)
P2A P 0.50160(17) 0.73183(18) 0.71233(10)
C37A C 0.4227(9) 0.7590(9) 0.6448(5)
H48A H 0.4752 0.7856 0.6034
H49A H 0.3485 0.8182 0.6558
C38A C 0.3887(10) 0.6629(9) 0.6319(5)
H50A H 0.3265 0.6431 0.6700
H51A H 0.3572 0.6812 0.5917
H52A H 0.4601 0.6011 0.6256
C39A C 0.3827(8) 0.7010(9) 0.7851(5)
H53A H 0.3702 0.6286 0.7834
H54A H 0.3056 0.7564 0.7840
C40A C 0.4206(9) 0.7014(9) 0.8513(5)
H55A H 0.4099 0.7769 0.8593
H56A H 0.3699 0.6656 0.8887
H57A H 0.5055 0.6619 0.8472
C41A C 0.5171(8) 0.8627(7) 0.7211(5)
H58A H 0.5748 0.8853 0.6807
H59A H 0.5540 0.8543 0.7593
C42A C 0.4015(9) 0.9560(8) 0.7318(7)
H60A H 0.3413 0.9338 0.7702
H61A H 0.4204 1.0212 0.7400
H62A H 0.3691 0.9723 0.6919
C9A C 0.7485(6) 0.6984(6) 0.6163(3)
C10A C 0.7327(7) 0.7016(6) 0.5525(4)
H5A H 0.6783 0.6640 0.5468
C11A C 0.7943(8) 0.7585(7) 0.4959(4)
H6A H 0.7787 0.7603 0.4536
C12A C 0.8755(8) 0.8106(7) 0.5013(4)
H7A H 0.9206 0.8440 0.4625
C13A C 0.8934(7) 0.8155(6) 0.5654(3)
C14A C 0.9764(7) 0.8684(6) 0.5714(4)
H8A H 1.0233 0.8993 0.5322
C15A C 0.9934(6) 0.8780(6) 0.6340(4)
C16A C 1.0807(7) 0.9303(6) 0.6395(4)
H9A H 1.1302 0.9587 0.6005
C17A C 1.0931(6) 0.9396(6) 0.6994(4)
H10A H 1.1533 0.9727 0.7026
C18A C 1.0177(6) 0.9009(6) 0.7584(4)
H11A H 1.0272 0.9110 0.8002
C20A C 0.9192(5) 0.8336(5) 0.6941(3)
C21A C 0.8406(5) 0.7743(5) 0.6859(3)
H12A H 0.7950 0.7414 0.7247
C22A C 0.8267(6) 0.7618(6) 0.6239(3)
P4A P 0.8385(2) 0.4538(2) 0.65321(12)
C43A C 0.8722(10) 0.3402(7) 0.7150(5)
H63A H 0.7980 0.3141 0.7350
H64A H 0.8923 0.3672 0.7508
C44A C 0.9743(9) 0.2431(7) 0.6908(5)
H65A H 1.0475 0.2680 0.6683
H66A H 0.9898 0.1897 0.7290
H67A H 0.9513 0.2091 0.6596
C45A C 0.9718(11) 0.4771(12) 0.5957(6)
H68A H 0.9516 0.5355 0.5600
H69A H 1.0203 0.4097 0.5752
C46A C 1.0370(14) 0.5095(13) 0.6341(8)
H70A H 1.0743 0.4454 0.6611
H71A H 1.1000 0.5423 0.6040
H72A H 0.9812 0.5631 0.6635
C47A C 0.790(3) 0.371(3) 0.6040(15)
H73A H 0.7382 0.3282 0.6366
H74A H 0.8641 0.3175 0.5835
C48A C 0.738(2) 0.414(2) 0.5604(19)
H75A H 0.7834 0.4621 0.5290
H76A H 0.7310 0.3574 0.5367
H77A H 0.6570 0.4565 0.5801
P3A P 0.27927(19) 0.0164(2) 1.14712(11)
C29A C 0.1963(8) -0.0555(7) 1.1160(6)
H28A H 0.1741 -0.0120 1.0753
H29A H 0.1202 -0.0585 1.1498
C30A C 0.2622(13) -0.1717(10) 1.0993(9)
H30A H 0.2760 -0.2184 1.1401
H31A H 0.2129 -0.2002 1.0793
H32A H 0.3400 -0.1711 1.0677
C31A C 0.4255(7) -0.0029(9) 1.0861(4)
H33A H 0.4105 0.0228 1.0412
H34A H 0.4644 -0.0821 1.0872
C32A C 0.5123(8) 0.0544(11) 1.0963(5)
H35A H 0.5242 0.0333 1.1416
H36A H 0.5899 0.0336 1.0641
H37A H 0.4795 0.1336 1.0897
C33A C 0.2802(16) -0.0899(12) 1.2232(8)
H38A H 0.3194 -0.1636 1.2086
H39A H 0.1961 -0.0890 1.2480
C34A C 0.347(2) -0.0665(17) 1.2676(10)
H40A H 0.3014 0.0015 1.2872
H41A H 0.3556 -0.1267 1.3032
H42A H 0.4267 -0.0589 1.2417
Cl1 Cl 1.1426(4) 0.9439(4) 0.9173(2)
Cl2 Cl 1.1068(6) 1.1489(6) 0.8394(2)
C51 C 1.0876(15) 1.0857(11) 0.9186(6)
H83 H 1.0007 1.1032 0.9413
H84 H 1.1313 1.1124 0.9437
Cl3 Cl 1.3155(3) 0.2598(3) 0.66818(16)
Cl4 Cl 1.4108(5) 0.4042(4) 0.5571(2)
C52 C 1.4410(12) 0.3088(12) 0.6207(6)
H85 H 1.4716 0.3402 0.6505
H86 H 1.5060 0.2464 0.6025
loop_
_geom_bond_atom_site_label_1
_geom_bond_atom_site_label_2
_geom_bond_site_symmetry_1
_geom_bond_site_symmetry_2
Pt1 P1 1_555 1_555
Pt2 P2 1_555 1_555
P1 C23 1_555 1_555
P2 C37 1_555 1_555
O1 Pt1 1_555 1_555
O2 C1 1_555 1_555
O3 C8 1_555 1_555
O4 Pt2 1_555 1_555
C1 O1 1_555 1_555
C2 C1 1_555 1_555
C3 C2 1_555 1_555
H1 C3 1_555 1_555
C4 C3 1_555 1_555
H2 C4 1_555 1_555
C5 C4 1_555 1_555
C6 C5 1_555 1_555
H3 C6 1_555 1_555
C7 C2 1_555 1_555
H4 C7 1_555 1_555
C8 O4 1_555 1_555
C9 Pt2 1_555 1_555
C10 C9 1_555 1_555
H5 C10 1_555 1_555
C11 C10 1_555 1_555
H6 C11 1_555 1_555
C12 C11 1_555 1_555
H7 C12 1_555 1_555
C13 C12 1_555 1_555
C14 C13 1_555 1_555
H8 C14 1_555 1_555
C15 C14 1_555 1_555
C16 C15 1_555 1_555
H9 C16 1_555 1_555
C17 C16 1_555 1_555
H10 C17 1_555 1_555
C18 C17 1_555 1_555
H11 C18 1_555 1_555
C19 Pt1 1_555 1_555
C20 C15 1_555 1_555
C21 C20 1_555 1_555
H12 C21 1_555 1_555
C22 C9 1_555 1_555
C23 H13 1_555 1_555
H14 C23 1_555 1_555
C24 C23 1_555 1_555
H15 C24 1_555 1_555
H16 C24 1_555 1_555
H17 C24 1_555 1_555
C25 P1 1_555 1_555
H18 C25 1_555 1_555
H19 C25 1_555 1_555
C26 C25 1_555 1_555
H20 C26 1_555 1_555
H21 C26 1_555 1_555
H22 C26 1_555 1_555
C27 P1 1_555 1_555
H23 C27 1_555 1_555
H24 C27 1_555 1_555
C28 C27 1_555 1_555
H25 C28 1_555 1_555
H26 C28 1_555 1_555
H27 C28 1_555 1_555
C29 H28 1_555 1_555
H29 C29 1_555 1_555
C30 C29 1_555 1_555
H30 C30 1_555 1_555
H31 C30 1_555 1_555
H32 C30 1_555 1_555
C31 H33 1_555 1_555
H34 C31 1_555 1_555
C32 C31 1_555 1_555
H35 C32 1_555 1_555
H36 C32 1_555 1_555
H37 C32 1_555 1_555
P3 Pt1 1_555 1_555
C33 P3 1_555 1_555
H38 C33 1_555 1_555
H39 C33 1_555 1_555
C34 C33 1_555 1_555
H40 C34 1_555 1_555
H41 C34 1_555 1_555
H42 C34 1_555 1_555
C37 H48 1_555 1_555
H49 C37 1_555 1_555
C38 C37 1_555 1_555
H50 C38 1_555 1_555
H51 C38 1_555 1_555
H52 C38 1_555 1_555
C39 P2 1_555 1_555
H53 C39 1_555 1_555
H54 C39 1_555 1_555
C40 C39 1_555 1_555
H55 C40 1_555 1_555
H56 C40 1_555 1_555
H57 C40 1_555 1_555
C41 P2 1_555 1_555
H58 C41 1_555 1_555
H59 C41 1_555 1_555
C42 C41 1_555 1_555
H60 C42 1_555 1_555
H61 C42 1_555 1_555
H62 C42 1_555 1_555
C43 H63 1_555 1_555
H64 C43 1_555 1_555
C44 C43 1_555 1_555
H65 C44 1_555 1_555
H66 C44 1_555 1_555
H67 C44 1_555 1_555
P4 Pt2 1_555 1_555
C45 P4 1_555 1_555
H68 C45 1_555 1_555
H69 C45 1_555 1_555
C46 C45 1_555 1_555
H70 C46 1_555 1_555
H71 C46 1_555 1_555
H72 C46 1_555 1_555
C47 P4 1_555 1_555
H73 C47 1_555 1_555
H74 C47 1_555 1_555
C48 C47 1_555 1_555
H75 C48 1_555 1_555
H76 C48 1_555 1_555
H77 C48 1_555 1_555
Cl1 C51 1_555 1_555
Cl2 C51 1_555 1_555
C51 H83 1_555 1_555
H84 C51 1_555 1_555
Cl3 C52 1_555 1_555
Cl4 C52 1_555 1_555
C52 H85 1_555 1_555
H86 C52 1_555 1_555
C19A C18 1_555 1_555
Pt1A C19A 1_555 1_555
P1A Pt1A 1_555 1_555
C23A P1A 1_555 1_555
H13A C23A 1_555 1_555
H14A C23A 1_555 1_555
C24A C23A 1_555 1_555
H15A C24A 1_555 1_555
H16A C24A 1_555 1_555
H17A C24A 1_555 1_555
C25A P1A 1_555 1_555
H18A C25A 1_555 1_555
H19A C25A 1_555 1_555
C26A C25A 1_555 1_555
H20A C26A 1_555 1_555
H21A C26A 1_555 1_555
H22A C26A 1_555 1_555
C27A P1A 1_555 1_555
H23A C27A 1_555 1_555
H24A C27A 1_555 1_555
C28A C27A 1_555 1_555
H25A C28A 1_555 1_555
H26A C28A 1_555 1_555
H27A C28A 1_555 1_555
O1A Pt1A 1_555 1_555
C1A O1A 1_555 1_555
O2A C1A 1_555 1_555
C2A C1A 1_555 1_555
C3A C2A 1_555 1_555
H1A C3A 1_555 1_555
C4A C3A 1_555 1_555
H2A C4A 1_555 1_555
C5A C4A 1_555 1_555
C6A C5A 1_555 1_555
H3A C6A 1_555 1_555
C7A C2A 1_555 1_555
H4A C7A 1_555 1_555
C8A C5A 1_555 1_555
O3A C8A 1_555 1_555
O4A C8A 1_555 1_555
Pt2A O4A 1_555 1_555
P2A Pt2A 1_555 1_555
C37A P2A 1_555 1_555
H48A C37A 1_555 1_555
H49A C37A 1_555 1_555
C38A C37A 1_555 1_555
H50A C38A 1_555 1_555
H51A C38A 1_555 1_555
H52A C38A 1_555 1_555
C39A P2A 1_555 1_555
H53A C39A 1_555 1_555
H54A C39A 1_555 1_555
C40A C39A 1_555 1_555
H55A C40A 1_555 1_555
H56A C40A 1_555 1_555
H57A C40A 1_555 1_555
C41A P2A 1_555 1_555
H58A C41A 1_555 1_555
H59A C41A 1_555 1_555
C42A C41A 1_555 1_555
H60A C42A 1_555 1_555
H61A C42A 1_555 1_555
H62A C42A 1_555 1_555
C9A Pt2A 1_555 1_555
C10A C9A 1_555 1_555
H5A C10A 1_555 1_555
C11A C10A 1_555 1_555
H6A C11A 1_555 1_555
C12A C11A 1_555 1_555
H7A C12A 1_555 1_555
C13A C12A 1_555 1_555
C14A C13A 1_555 1_555
H8A C14A 1_555 1_555
C15A C14A 1_555 1_555
C16A C15A 1_555 1_555
H9A C16A 1_555 1_555
C17A C16A 1_555 1_555
H10A C17A 1_555 1_555
C18A C19 1_555 1_555
H11A C18A 1_555 1_555
C20A C19 1_555 1_555
C21A C20A 1_555 1_555
H12A C21A 1_555 1_555
C22A C9A 1_555 1_555
P4A Pt2A 1_555 1_555
C43A P4A 1_555 1_555
H63A C43A 1_555 1_555
H64A C43A 1_555 1_555
C44A C43A 1_555 1_555
H65A C44A 1_555 1_555
H66A C44A 1_555 1_555
H67A C44A 1_555 1_555
C45A P4A 1_555 1_555
H68A C45A 1_555 1_555
H69A C45A 1_555 1_555
C46A C45A 1_555 1_555
H70A C46A 1_555 1_555
H71A C46A 1_555 1_555
H72A C46A 1_555 1_555
C47A P4A 1_555 1_555
H73A C47A 1_555 1_555
H74A C47A 1_555 1_555
C48A C47A 1_555 1_555
H75A C48A 1_555 1_555
H76A C48A 1_555 1_555
H77A C48A 1_555 1_555
P3A Pt1A 1_555 1_555
C29A P3A 1_555 1_555
H28A C29A 1_555 1_555
H29A C29A 1_555 1_555
C30A C29A 1_555 1_555
H30A C30A 1_555 1_555
H31A C30A 1_555 1_555
H32A C30A 1_555 1_555
C31A P3A 1_555 1_555
H33A C31A 1_555 1_555
H34A C31A 1_555 1_555
C32A C31A 1_555 1_555
H35A C32A 1_555 1_555
H36A C32A 1_555 1_555
H37A C32A 1_555 1_555
C33A P3A 1_555 1_555
H38A C33A 1_555 1_555
H39A C33A 1_555 1_555
C34A C33A 1_555 1_555
H40A C34A 1_555 1_555
H41A C34A 1_555 1_555
H42A C34A 1_555 1_555
C5 C8 1_555 1_555
C6 C7 1_555 1_555
C13 C22 1_555 1_555
C20 C19A 1_555 1_555
C21 C22 1_555 1_555
C29 P3 1_555 1_555
C31 P3 1_555 1_555
C43 P4 1_555 1_555
C6A C7A 1_555 1_555
C13A C22A 1_555 1_555
C15A C20A 1_555 1_555
C17A C18A 1_555 1_555
C21A C22A 1_555 1_555

#END
