
#######################################################################
#
#                 Cambridge Crystallographic Data Centre
#                                CCDC 
#
#######################################################################
#
# If this CIF has been generated from an entry in the Cambridge 
# Structural Database, then it will include bibliographic, chemical, 
# crystal, experimental, refinement or atomic coordinate data resulting 
# from the CCDC's data processing and validation procedures.
#
#######################################################################

data_BEPXIF
_chemical_formula_moiety         'C156 H112 Cd6 N20 O18,2(C1 H4 O1),4(C5 H5 N1)'
_chemical_name_systematic        
'bis(\m~5~-5,10,15,20-tetrakis(3-Carboxylatophenyl)porphyrinato)-diaqua-dodecapyridine-hexa-cadmium(ii) methanol pyridine solvate'
_symmetry_cell_setting           monoclinic
_symmetry_space_group_name_H-M   'P 21/c'
_symmetry_Int_Tables_number      14
_space_group_name_Hall           '-P 2ybc'
loop_
_symmetry_equiv_pos_site_id
_symmetry_equiv_pos_as_xyz
1 x,y,z
2 -x,1/2+y,1/2-z
3 -x,-y,-z
4 x,1/2-y,1/2+z
_cell_length_a                   18.2876(3)
_cell_length_b                   15.7800(3)
_cell_length_c                   29.0197(5)
_cell_angle_alpha                90
_cell_angle_beta                 108.5978(12)
_cell_angle_gamma                90
_cell_volume                     7937.15
_exptl_crystal_colour            red
_exptl_crystal_description       plates
_cell_formula_units_Z            2
loop_
_atom_site_label
_atom_site_type_symbol
_atom_site_fract_x
_atom_site_fract_y
_atom_site_fract_z
Cd1 Cd -0.05173(3) 1.02184(3) 0.120197(17)
C1 C 0.0461(3) 1.1728(4) 0.18449(19)
C2 C 0.1241(3) 1.1940(4) 0.2141(2)
H1 H 0.1427 1.2487 0.2257
C3 C 0.1652(3) 1.1214(4) 0.2221(2)
H2 H 0.2183 1.1161 0.2403
C4 C 0.1145(3) 1.0528(4) 0.19808(19)
C5 C 0.1340(3) 0.9674(4) 0.2001(2)
C6 C 0.0852(3) 0.8978(4) 0.1789(2)
C7 C 0.1070(3) 0.8100(4) 0.1828(2)
H3 H 0.1576 0.7881 0.1974
C8 C 0.0420(3) 0.7637(4) 0.1620(2)
H4 H 0.0385 0.7037 0.1599
C9 C -0.0212(3) 0.8240(3) 0.14345(19)
C10 C -0.0990(3) 0.8031(3) 0.1230(2)
C11 C -0.1608(3) 0.8599(3) 0.1070(2)
C12 C -0.2415(3) 0.8361(4) 0.0877(2)
H5 H -0.2613 0.7799 0.0828
C13 C -0.2832(3) 0.9078(4) 0.0779(2)
H6 H -0.3378 0.9118 0.0645
C14 C -0.2291(3) 0.9786(4) 0.09169(19)
C15 C -0.2499(3) 1.0655(4) 0.0909(2)
C16 C -0.1998(3) 1.1337(4) 0.10981(19)
C17 C -0.2213(3) 1.2228(4) 0.1060(2)
H7 H -0.2716 1.2451 0.0911
C18 C -0.1564(3) 1.2682(4) 0.1277(2)
H8 H -0.1525 1.3281 0.1308
C19 C -0.0945(3) 1.2082(4) 0.1451(2)
C20 C -0.0163(3) 1.2289(4) 0.16918(19)
N1 N 0.0435(3) 1.0862(3) 0.17506(17)
N2 N 0.0080(3) 0.9045(3) 0.15332(16)
N3 N -0.1561(3) 0.9473(3) 0.10812(17)
N4 N -0.1222(3) 1.1277(3) 0.13359(16)
C21 C 0.2134(3) 0.9427(4) 0.2324(2)
C22 C 0.2768(3) 0.9430(4) 0.2156(2)
H9 H 0.2708 0.9603 0.1832
C23 C 0.3492(3) 0.9179(4) 0.2463(2)
C24 C 0.3574(3) 0.8944(4) 0.2940(2)
H10 H 0.4070 0.8801 0.3156
C25 C 0.2945(4) 0.8916(4) 0.3104(2)
H11 H 0.3005 0.8735 0.3426
C26 C 0.2224(3) 0.9154(4) 0.2796(2)
H12 H 0.1790 0.9130 0.2908
C27 C 0.4169(3) 0.9143(4) 0.2271(2)
O1 O 0.3998(2) 0.9061(3) 0.18142(15)
O2 O 0.4838(2) 0.9187(3) 0.25549(16)
C28 C -0.1189(3) 0.7105(4) 0.1213(2)
C29 C -0.1160(3) 0.6589(4) 0.0832(2)
H13 H -0.0995 0.6819 0.0579
C30 C -0.1370(3) 0.5737(4) 0.0816(2)
C31 C -0.1596(4) 0.5397(4) 0.1193(2)
H14 H -0.1735 0.4816 0.1185
C32 C -0.1618(4) 0.5903(4) 0.1579(2)
H15 H -0.1771 0.5673 0.1837
C33 C -0.1412(4) 0.6760(4) 0.1583(2)
H16 H -0.1427 0.7110 0.1846
C34 C -0.1365(3) 0.5192(4) 0.0386(2)
O3 O -0.1594(3) 0.4447(3) 0.03605(16)
O4 O -0.1146(3) 0.5541(3) 0.00584(16)
C35 C -0.3326(3) 1.0858(3) 0.0669(2)
C36 C -0.3662(3) 1.0672(4) 0.0177(2)
H17 H -0.3363 1.0406 0.0005
C37 C -0.4428(3) 1.0871(4) -0.0064(2)
C38 C -0.4880(3) 1.1227(4) 0.0197(2)
H18 H -0.5410 1.1344 0.0037
C39 C -0.4557(3) 1.1407(4) 0.0681(2)
H19 H -0.4864 1.1654 0.0855
C40 C -0.3781(3) 1.1228(4) 0.0920(2)
H20 H -0.3561 1.1359 0.1255
C41 C -0.4735(3) 1.0737(4) -0.0605(2)
O5 O -0.4265(2) 1.0513(3) -0.08196(15)
O6 O -0.5431(2) 1.0887(3) -0.08300(15)
C42 C 0.0009(3) 1.3216(4) 0.1801(2)
C43 C 0.0258(3) 1.3719(4) 0.1485(2)
H21 H 0.0314 1.3474 0.1200
C44 C 0.0426(3) 1.4576(4) 0.1581(2)
C45 C 0.0325(3) 1.4942(4) 0.1991(2)
H22 H 0.0433 1.5526 0.2056
C46 C 0.0067(3) 1.4455(4) 0.2308(2)
H23 H -0.0007 1.4710 0.2586
C47 C -0.0084(3) 1.3593(4) 0.2218(2)
H24 H -0.0250 1.3260 0.2439
C48 C 0.0752(3) 1.5078(4) 0.1248(2)
O7 O 0.1128(3) 1.5742(3) 0.14004(16)
O8 O 0.0640(3) 1.4784(3) 0.08230(15)
N5 N -0.0538(3) 1.0651(4) 0.0434(2)
C49 C -0.0176(4) 1.1368(4) 0.0391(3)
H25 H 0.0112 1.1653 0.0680
C50 C -0.0196(5) 1.1717(5) -0.0048(3)
H26 H 0.0067 1.2231 -0.0060
C51 C -0.0601(4) 1.1307(5) -0.0464(3)
H27 H -0.0623 1.1530 -0.0773
C52 C -0.0980(4) 1.0562(5) -0.0431(3)
H28 H -0.1265 1.0263 -0.0716
C53 C -0.0936(4) 1.0261(4) 0.0026(3)
H29 H -0.1201 0.9753 0.0048
Cd2 Cd 0.50506(2) 0.92038(3) 0.158857(15)
N6 N 0.5005(3) 1.0661(3) 0.1746(2)
C54 C 0.4329(4) 1.1041(5) 0.1553(3)
H30 H 0.3903 1.0710 0.1368
C55 C 0.4214(5) 1.1896(5) 0.1609(3)
H31 H 0.3726 1.2149 0.1453
C56 C 0.4818(5) 1.2373(5) 0.1893(3)
H32 H 0.4752 1.2959 0.1945
C57 C 0.5523(5) 1.1986(5) 0.2102(3)
H33 H 0.5951 1.2305 0.2297
C58 C 0.5600(4) 1.1136(4) 0.2026(2)
H34 H 0.6085 1.0873 0.2175
N7 N 0.6339(3) 0.9187(4) 0.20503(18)
C59 C 0.6870(4) 0.9417(5) 0.1843(2)
H35 H 0.6699 0.9652 0.1526
C60 C 0.7646(4) 0.9326(4) 0.2070(3)
H36 H 0.8008 0.9488 0.1913
C61 C 0.7887(4) 0.8993(4) 0.2532(3)
H37 H 0.8422 0.8940 0.2705
C62 C 0.7343(4) 0.8737(5) 0.2743(3)
H38 H 0.7500 0.8487 0.3057
C63 C 0.6588(4) 0.8846(5) 0.2497(3)
H39 H 0.6219 0.8675 0.2646
N8 N 0.5309(3) 0.7714(4) 0.1575(2)
C64 C 0.5897(5) 0.7475(5) 0.1408(3)
H40 H 0.6063 0.7859 0.1210
C65 C 0.6260(6) 0.6697(6) 0.1513(3)
H41 H 0.6662 0.6547 0.1387
C66 C 0.6029(7) 0.6152(6) 0.1803(4)
H42 H 0.6277 0.5619 0.1886
C67 C 0.5439(6) 0.6369(5) 0.1976(3)
H43 H 0.5272 0.5994 0.2178
C68 C 0.5089(5) 0.7162(6) 0.1845(3)
H44 H 0.4671 0.7309 0.1957
Cd3 Cd -0.13129(2) 0.44101(3) -0.046540(15)
N9 N -0.2569(3) 0.4946(4) -0.08799(19)
C69 C -0.2978(5) 0.5292(6) -0.0629(3)
H45 H -0.2733 0.5398 -0.0292
C70 C -0.3759(5) 0.5512(7) -0.0835(4)
H46 H -0.4035 0.5773 -0.0646
C71 C -0.4110(5) 0.5336(7) -0.1320(3)
H47 H -0.4642 0.5460 -0.1469
C72 C -0.3695(5) 0.4985(6) -0.1586(3)
H48 H -0.3926 0.4871 -0.1923
C73 C -0.2930(4) 0.4798(5) -0.1353(3)
H49 H -0.2641 0.4550 -0.1538
N10 N -0.1845(3) 0.3103(3) -0.05842(18)
C74 C -0.1961(4) 0.2685(4) -0.0205(2)
H50 H -0.1738 0.2902 0.0115
C75 C -0.2393(4) 0.1959(4) -0.0271(3)
H51 H -0.2457 0.1673 0.0001
C76 C -0.2735(4) 0.1642(4) -0.0736(3)
H52 H -0.3052 0.1152 -0.0788
C77 C -0.2604(4) 0.2061(4) -0.1124(3)
H53 H -0.2822 0.1857 -0.1446
C78 C -0.2153(4) 0.2776(4) -0.1031(2)
H54 H -0.2054 0.3052 -0.1296
O9 O -0.0167(3) 0.3804(3) 0.00272(17)
H55 H 0.0030 0.3987 0.0308
H56 H 0.0181 0.3976 -0.0073
Cd1B Cd 0.05173(3) 0.97816(3) -0.120197(17)
C1B C -0.0461(3) 0.8272(4) -0.18449(19)
C2B C -0.1241(3) 0.8060(4) -0.2141(2)
H1B H -0.1427 0.7513 -0.2257
C3B C -0.1652(3) 0.8786(4) -0.2221(2)
H2B H -0.2183 0.8839 -0.2403
C4B C -0.1145(3) 0.9472(4) -0.19808(19)
C5B C -0.1340(3) 1.0326(4) -0.2001(2)
C6B C -0.0852(3) 1.1022(4) -0.1789(2)
C7B C -0.1070(3) 1.1900(4) -0.1828(2)
H3B H -0.1576 1.2119 -0.1974
C8B C -0.0420(3) 1.2363(4) -0.1620(2)
H4B H -0.0385 1.2963 -0.1599
C9B C 0.0212(3) 1.1760(3) -0.14345(19)
C10B C 0.0990(3) 1.1969(3) -0.1230(2)
C11B C 0.1608(3) 1.1401(3) -0.1070(2)
C12B C 0.2415(3) 1.1639(4) -0.0877(2)
H5B H 0.2613 1.2201 -0.0828
C13B C 0.2832(3) 1.0922(4) -0.0779(2)
H6B H 0.3378 1.0882 -0.0645
C14B C 0.2291(3) 1.0214(4) -0.09169(19)
C15B C 0.2499(3) 0.9345(4) -0.0909(2)
C16B C 0.1998(3) 0.8663(4) -0.10981(19)
C17B C 0.2213(3) 0.7772(4) -0.1060(2)
H7B H 0.2716 0.7549 -0.0911
C18B C 0.1564(3) 0.7318(4) -0.1277(2)
H8B H 0.1525 0.6719 -0.1308
C19B C 0.0945(3) 0.7918(4) -0.1451(2)
C20B C 0.0163(3) 0.7711(4) -0.16918(19)
N1B N -0.0435(3) 0.9138(3) -0.17506(17)
N2B N -0.0080(3) 1.0955(3) -0.15332(16)
N3B N 0.1561(3) 1.0527(3) -0.10812(17)
N4B N 0.1222(3) 0.8723(3) -0.13359(16)
C21B C -0.2134(3) 1.0573(4) -0.2324(2)
C22B C -0.2768(3) 1.0570(4) -0.2156(2)
H9B H -0.2708 1.0397 -0.1832
C23B C -0.3492(3) 1.0821(4) -0.2463(2)
C24B C -0.3574(3) 1.1056(4) -0.2940(2)
H10B H -0.4070 1.1199 -0.3156
C25B C -0.2945(4) 1.1084(4) -0.3104(2)
H11B H -0.3005 1.1265 -0.3426
C26B C -0.2224(3) 1.0846(4) -0.2796(2)
H12B H -0.1790 1.0870 -0.2908
C27B C -0.4169(3) 1.0857(4) -0.2271(2)
O1B O -0.3998(2) 1.0939(3) -0.18142(15)
O2B O -0.4838(2) 1.0813(3) -0.25549(16)
C28B C 0.1189(3) 1.2895(4) -0.1213(2)
C29B C 0.1160(3) 1.3411(4) -0.0832(2)
H13B H 0.0995 1.3181 -0.0579
C30B C 0.1370(3) 1.4263(4) -0.0816(2)
C31B C 0.1596(4) 1.4603(4) -0.1193(2)
H14B H 0.1735 1.5184 -0.1185
C32B C 0.1618(4) 1.4097(4) -0.1579(2)
H15B H 0.1771 1.4327 -0.1837
C33B C 0.1412(4) 1.3240(4) -0.1583(2)
H16B H 0.1427 1.2890 -0.1846
C34B C 0.1365(3) 1.4808(4) -0.0386(2)
O3B O 0.1594(3) 1.5553(3) -0.03605(16)
O4B O 0.1146(3) 1.4459(3) -0.00584(16)
C35B C 0.3326(3) 0.9142(3) -0.0669(2)
C36B C 0.3662(3) 0.9328(4) -0.0177(2)
H17B H 0.3363 0.9594 -0.0005
C37B C 0.4428(3) 0.9129(4) 0.0064(2)
C38B C 0.4880(3) 0.8773(4) -0.0197(2)
H18B H 0.5410 0.8656 -0.0037
C39B C 0.4557(3) 0.8593(4) -0.0681(2)
H19B H 0.4864 0.8346 -0.0855
C40B C 0.3781(3) 0.8772(4) -0.0920(2)
H20B H 0.3561 0.8641 -0.1255
C41B C 0.4735(3) 0.9263(4) 0.0605(2)
O5B O 0.4265(2) 0.9487(3) 0.08196(15)
O6B O 0.5431(2) 0.9113(3) 0.08300(15)
C42B C -0.0009(3) 0.6784(4) -0.1801(2)
C43B C -0.0258(3) 0.6281(4) -0.1485(2)
H21B H -0.0314 0.6526 -0.1200
C44B C -0.0426(3) 0.5424(4) -0.1581(2)
C45B C -0.0325(3) 0.5058(4) -0.1991(2)
H22B H -0.0433 0.4474 -0.2056
C46B C -0.0067(3) 0.5545(4) -0.2308(2)
H23B H 0.0007 0.5290 -0.2586
C47B C 0.0084(3) 0.6407(4) -0.2218(2)
H24B H 0.0250 0.6740 -0.2439
C48B C -0.0752(3) 0.4922(4) -0.1248(2)
O7B O -0.1128(3) 0.4258(3) -0.14004(16)
O8B O -0.0640(3) 0.5216(3) -0.08230(15)
N5B N 0.0538(3) 0.9349(4) -0.0434(2)
C49B C 0.0176(4) 0.8632(4) -0.0391(3)
H25B H -0.0112 0.8347 -0.0680
C50B C 0.0196(5) 0.8283(5) 0.0048(3)
H26B H -0.0067 0.7769 0.0060
C51B C 0.0601(4) 0.8693(5) 0.0464(3)
H27B H 0.0623 0.8470 0.0773
C52B C 0.0980(4) 0.9438(5) 0.0431(3)
H28B H 0.1265 0.9737 0.0716
C53B C 0.0936(4) 0.9739(4) -0.0026(3)
H29B H 0.1201 1.0247 -0.0048
Cd2B Cd -0.50506(2) 1.07962(3) -0.158857(15)
N6B N -0.5005(3) 0.9339(3) -0.1746(2)
C54B C -0.4329(4) 0.8959(5) -0.1553(3)
H30B H -0.3903 0.9290 -0.1368
C55B C -0.4214(5) 0.8104(5) -0.1609(3)
H31B H -0.3726 0.7851 -0.1453
C56B C -0.4818(5) 0.7627(5) -0.1893(3)
H32B H -0.4752 0.7041 -0.1945
C57B C -0.5523(5) 0.8014(5) -0.2102(3)
H33B H -0.5951 0.7695 -0.2297
C58B C -0.5600(4) 0.8864(4) -0.2026(2)
H34B H -0.6085 0.9127 -0.2175
N7B N -0.6339(3) 1.0813(4) -0.20503(18)
C59B C -0.6870(4) 1.0583(5) -0.1843(2)
H35B H -0.6699 1.0348 -0.1526
C60B C -0.7646(4) 1.0674(4) -0.2070(3)
H36B H -0.8008 1.0512 -0.1913
C61B C -0.7887(4) 1.1007(4) -0.2532(3)
H37B H -0.8422 1.1060 -0.2705
C62B C -0.7343(4) 1.1263(5) -0.2743(3)
H38B H -0.7500 1.1513 -0.3057
C63B C -0.6588(4) 1.1154(5) -0.2497(3)
H39B H -0.6219 1.1325 -0.2646
N8B N -0.5309(3) 1.2286(4) -0.1575(2)
C64B C -0.5897(5) 1.2525(5) -0.1408(3)
H40B H -0.6063 1.2141 -0.1210
C65B C -0.6260(6) 1.3303(6) -0.1513(3)
H41B H -0.6662 1.3453 -0.1387
C66B C -0.6029(7) 1.3848(6) -0.1803(4)
H42B H -0.6277 1.4381 -0.1886
C67B C -0.5439(6) 1.3631(5) -0.1976(3)
H43B H -0.5272 1.4006 -0.2178
C68B C -0.5089(5) 1.2838(6) -0.1845(3)
H44B H -0.4671 1.2691 -0.1957
Cd3B Cd 0.13129(2) 1.55899(3) 0.046540(15)
N9B N 0.2569(3) 1.5054(4) 0.08799(19)
C69B C 0.2978(5) 1.4708(6) 0.0629(3)
H45B H 0.2733 1.4602 0.0292
C70B C 0.3759(5) 1.4488(7) 0.0835(4)
H46B H 0.4035 1.4227 0.0646
C71B C 0.4110(5) 1.4664(7) 0.1320(3)
H47B H 0.4642 1.4540 0.1469
C72B C 0.3695(5) 1.5015(6) 0.1586(3)
H48B H 0.3926 1.5129 0.1923
C73B C 0.2930(4) 1.5202(5) 0.1353(3)
H49B H 0.2641 1.5450 0.1538
N10B N 0.1845(3) 1.6897(3) 0.05842(18)
C74B C 0.1961(4) 1.7315(4) 0.0205(2)
H50B H 0.1738 1.7098 -0.0115
C75B C 0.2393(4) 1.8041(4) 0.0271(3)
H51B H 0.2457 1.8327 -0.0001
C76B C 0.2735(4) 1.8358(4) 0.0736(3)
H52B H 0.3052 1.8848 0.0788
C77B C 0.2604(4) 1.7939(4) 0.1124(3)
H53B H 0.2822 1.8143 0.1446
C78B C 0.2153(4) 1.7224(4) 0.1031(2)
H54B H 0.2054 1.6948 0.1296
O9B O 0.0167(3) 1.6196(3) -0.00272(17)
H55B H -0.0030 1.6013 -0.0308
H56B H -0.0181 1.6024 0.0073
C79 C 0.5290(4) 0.3332(5) -0.0067(3)
H57 H 0.4935 0.2944 -0.0271
C80 C 0.6048(4) 0.3358(5) -0.0070(4)
H58 H 0.6211 0.2987 -0.0276
C81 C 0.6568(3) 0.3926(5) 0.0228(4)
H59 H 0.7086 0.3943 0.0226
C82 C 0.6330(5) 0.4468(6) 0.0530(3)
H60 H 0.6685 0.4857 0.0733
C83 C 0.5572(5) 0.4443(5) 0.0533(4)
H61 H 0.5409 0.4814 0.0739
N11 N 0.5052(3) 0.3875(4) 0.0234(3)
N12 N 0.2383(4) 0.1054(4) 0.0812(2)
C84 C 0.2535(3) 0.1499(4) 0.0453(2)
H62 H 0.2800 0.1219 0.0263
C85 C 0.2332(8) 0.2313(9) 0.0351(4)
H63 H 0.2455 0.2607 0.0100
C86 C 0.1942(7) 0.2703(7) 0.0623(4)
H64 H 0.1771 0.3271 0.0552
C87 C 0.1797(5) 0.2284(7) 0.0994(4)
H65 H 0.1551 0.2560 0.1196
C88 C 0.2016(6) 0.1458(7) 0.1069(3)
H66 H 0.1898 0.1156 0.1319
C89 C 0.2100(5) 0.6540(5) 0.2671(3)
H67 H 0.2109 0.6012 0.2851
H68 H 0.1585 0.6794 0.2586
H69 H 0.2482 0.6935 0.2874
O10 O 0.2279(3) 0.6365(4) 0.22433(18)
H70 H 0.1957 0.6019 0.2072
loop_
_geom_bond_atom_site_label_1
_geom_bond_atom_site_label_2
_geom_bond_site_symmetry_1
_geom_bond_site_symmetry_2
Cd1 N1 1_555 1_555
C1 C2 1_555 1_555
C2 H1 1_555 1_555
C3 C2 1_555 1_555
H2 C3 1_555 1_555
C4 C3 1_555 1_555
C5 C4 1_555 1_555
C6 C5 1_555 1_555
C7 C6 1_555 1_555
H3 C7 1_555 1_555
C8 C7 1_555 1_555
H4 C8 1_555 1_555
C9 C8 1_555 1_555
C10 C9 1_555 1_555
C11 C10 1_555 1_555
C12 C11 1_555 1_555
H5 C12 1_555 1_555
C13 C12 1_555 1_555
H6 C13 1_555 1_555
C14 C13 1_555 1_555
C15 C14 1_555 1_555
C16 C15 1_555 1_555
C17 C16 1_555 1_555
H7 C17 1_555 1_555
C18 C17 1_555 1_555
H8 C18 1_555 1_555
C19 C18 1_555 1_555
C20 C1 1_555 1_555
N1 C1 1_555 1_555
N2 Cd1 1_555 1_555
N3 Cd1 1_555 1_555
N4 Cd1 1_555 1_555
C21 C5 1_555 1_555
C22 C21 1_555 1_555
H9 C22 1_555 1_555
C23 C22 1_555 1_555
C24 C23 1_555 1_555
H10 C24 1_555 1_555
C25 C24 1_555 1_555
H11 C25 1_555 1_555
C26 C21 1_555 1_555
H12 C26 1_555 1_555
C27 C23 1_555 1_555
O1 C27 1_555 1_555
O2 C27 1_555 1_555
C28 C10 1_555 1_555
C29 C28 1_555 1_555
H13 C29 1_555 1_555
C30 C29 1_555 1_555
C31 C30 1_555 1_555
H14 C31 1_555 1_555
C32 C31 1_555 1_555
H15 C32 1_555 1_555
C33 C28 1_555 1_555
H16 C33 1_555 1_555
C34 C30 1_555 1_555
O3 C34 1_555 1_555
O4 C34 1_555 1_555
C35 C15 1_555 1_555
C36 C35 1_555 1_555
H17 C36 1_555 1_555
C37 C36 1_555 1_555
C38 C37 1_555 1_555
H18 C38 1_555 1_555
C39 C38 1_555 1_555
H19 C39 1_555 1_555
C40 C35 1_555 1_555
H20 C40 1_555 1_555
C41 C37 1_555 1_555
O5 C41 1_555 1_555
O6 C41 1_555 1_555
C42 C20 1_555 1_555
C43 C42 1_555 1_555
H21 C43 1_555 1_555
C44 C43 1_555 1_555
C45 C44 1_555 1_555
H22 C45 1_555 1_555
C46 C45 1_555 1_555
H23 C46 1_555 1_555
C47 C42 1_555 1_555
H24 C47 1_555 1_555
C48 C44 1_555 1_555
O7 C48 1_555 1_555
O8 C48 1_555 1_555
N5 Cd1 1_555 1_555
C49 N5 1_555 1_555
H25 C49 1_555 1_555
C50 C49 1_555 1_555
H26 C50 1_555 1_555
C51 C50 1_555 1_555
H27 C51 1_555 1_555
C52 C51 1_555 1_555
H28 C52 1_555 1_555
C53 N5 1_555 1_555
H29 C53 1_555 1_555
Cd2 O1 1_555 1_555
N6 Cd2 1_555 1_555
C54 N6 1_555 1_555
H30 C54 1_555 1_555
C55 C54 1_555 1_555
H31 C55 1_555 1_555
C56 C55 1_555 1_555
H32 C56 1_555 1_555
C57 C56 1_555 1_555
H33 C57 1_555 1_555
C58 N6 1_555 1_555
H34 C58 1_555 1_555
N7 Cd2 1_555 1_555
C59 N7 1_555 1_555
H35 C59 1_555 1_555
C60 C59 1_555 1_555
H36 C60 1_555 1_555
C61 C60 1_555 1_555
H37 C61 1_555 1_555
C62 C61 1_555 1_555
H38 C62 1_555 1_555
C63 N7 1_555 1_555
H39 C63 1_555 1_555
N8 Cd2 1_555 1_555
C64 N8 1_555 1_555
H40 C64 1_555 1_555
C65 C64 1_555 1_555
H41 C65 1_555 1_555
C66 C65 1_555 1_555
H42 C66 1_555 1_555
C67 C66 1_555 1_555
H43 C67 1_555 1_555
C68 N8 1_555 1_555
H44 C68 1_555 1_555
Cd3 O3 1_555 1_555
N9 Cd3 1_555 1_555
C69 N9 1_555 1_555
H45 C69 1_555 1_555
C70 C69 1_555 1_555
H46 C70 1_555 1_555
C71 C70 1_555 1_555
H47 C71 1_555 1_555
C72 C71 1_555 1_555
H48 C72 1_555 1_555
C73 N9 1_555 1_555
H49 C73 1_555 1_555
N10 Cd3 1_555 1_555
C74 N10 1_555 1_555
H50 C74 1_555 1_555
C75 C74 1_555 1_555
H51 C75 1_555 1_555
C76 C75 1_555 1_555
H52 C76 1_555 1_555
C77 C76 1_555 1_555
H53 C77 1_555 1_555
C78 N10 1_555 1_555
H54 C78 1_555 1_555
O9 Cd3 1_555 1_555
H55 O9 1_555 1_555
H56 O9 1_555 1_555
C79 H57 1_555 1_555
C80 C79 1_555 1_555
H58 C80 1_555 1_555
C81 C80 1_555 1_555
H59 C81 1_555 1_555
C82 C81 1_555 1_555
H60 C82 1_555 1_555
C83 C82 1_555 1_555
H61 C83 1_555 1_555
N11 C79 1_555 1_555
N12 C84 1_555 1_555
C84 H62 1_555 1_555
C85 C84 1_555 1_555
H63 C85 1_555 1_555
C86 C85 1_555 1_555
H64 C86 1_555 1_555
C87 C86 1_555 1_555
H65 C87 1_555 1_555
C88 N12 1_555 1_555
H66 C88 1_555 1_555
C89 H67 1_555 1_555
H68 C89 1_555 1_555
H69 C89 1_555 1_555
O10 C89 1_555 1_555
H70 O10 1_555 1_555
Cd1B N1B 1_555 1_555
C1B C2B 1_555 1_555
C2B H1B 1_555 1_555
C3B C2B 1_555 1_555
H2B C3B 1_555 1_555
C4B C3B 1_555 1_555
C5B C4B 1_555 1_555
C6B C5B 1_555 1_555
C7B C6B 1_555 1_555
H3B C7B 1_555 1_555
C8B C7B 1_555 1_555
H4B C8B 1_555 1_555
C9B C8B 1_555 1_555
C10B C9B 1_555 1_555
C11B C10B 1_555 1_555
C12B C11B 1_555 1_555
H5B C12B 1_555 1_555
C13B C12B 1_555 1_555
H6B C13B 1_555 1_555
C14B C13B 1_555 1_555
C15B C14B 1_555 1_555
C16B C15B 1_555 1_555
C17B C16B 1_555 1_555
H7B C17B 1_555 1_555
C18B C17B 1_555 1_555
H8B C18B 1_555 1_555
C19B C18B 1_555 1_555
C20B C1B 1_555 1_555
N1B C1B 1_555 1_555
N2B Cd1B 1_555 1_555
N3B Cd1B 1_555 1_555
N4B Cd1B 1_555 1_555
C21B C5B 1_555 1_555
C22B C21B 1_555 1_555
H9B C22B 1_555 1_555
C23B C22B 1_555 1_555
C24B C23B 1_555 1_555
H10B C24B 1_555 1_555
C25B C24B 1_555 1_555
H11B C25B 1_555 1_555
C26B C21B 1_555 1_555
H12B C26B 1_555 1_555
C27B C23B 1_555 1_555
O1B C27B 1_555 1_555
O2B C27B 1_555 1_555
C28B C10B 1_555 1_555
C29B C28B 1_555 1_555
H13B C29B 1_555 1_555
C30B C29B 1_555 1_555
C31B C30B 1_555 1_555
H14B C31B 1_555 1_555
C32B C31B 1_555 1_555
H15B C32B 1_555 1_555
C33B C28B 1_555 1_555
H16B C33B 1_555 1_555
C34B C30B 1_555 1_555
O3B C34B 1_555 1_555
O4B C34B 1_555 1_555
C35B C15B 1_555 1_555
C36B C35B 1_555 1_555
H17B C36B 1_555 1_555
C37B C36B 1_555 1_555
C38B C37B 1_555 1_555
H18B C38B 1_555 1_555
C39B C38B 1_555 1_555
H19B C39B 1_555 1_555
C40B C35B 1_555 1_555
H20B C40B 1_555 1_555
C41B C37B 1_555 1_555
O5B Cd2 1_555 1_555
O6B Cd2 1_555 1_555
C42B C20B 1_555 1_555
C43B C42B 1_555 1_555
H21B C43B 1_555 1_555
C44B C43B 1_555 1_555
C45B C44B 1_555 1_555
H22B C45B 1_555 1_555
C46B C45B 1_555 1_555
H23B C46B 1_555 1_555
C47B C42B 1_555 1_555
H24B C47B 1_555 1_555
C48B C44B 1_555 1_555
O7B C48B 1_555 1_555
O8B Cd3 1_555 1_555
N5B Cd1B 1_555 1_555
C49B N5B 1_555 1_555
H25B C49B 1_555 1_555
C50B C49B 1_555 1_555
H26B C50B 1_555 1_555
C51B C50B 1_555 1_555
H27B C51B 1_555 1_555
C52B C51B 1_555 1_555
H28B C52B 1_555 1_555
C53B N5B 1_555 1_555
H29B C53B 1_555 1_555
Cd2B O5 1_555 1_555
N6B Cd2B 1_555 1_555
C54B N6B 1_555 1_555
H30B C54B 1_555 1_555
C55B C54B 1_555 1_555
H31B C55B 1_555 1_555
C56B C55B 1_555 1_555
H32B C56B 1_555 1_555
C57B C56B 1_555 1_555
H33B C57B 1_555 1_555
C58B N6B 1_555 1_555
H34B C58B 1_555 1_555
N7B Cd2B 1_555 1_555
C59B N7B 1_555 1_555
H35B C59B 1_555 1_555
C60B C59B 1_555 1_555
H36B C60B 1_555 1_555
C61B C60B 1_555 1_555
H37B C61B 1_555 1_555
C62B C61B 1_555 1_555
H38B C62B 1_555 1_555
C63B N7B 1_555 1_555
H39B C63B 1_555 1_555
N8B Cd2B 1_555 1_555
C64B N8B 1_555 1_555
H40B C64B 1_555 1_555
C65B C64B 1_555 1_555
H41B C65B 1_555 1_555
C66B C65B 1_555 1_555
H42B C66B 1_555 1_555
C67B C66B 1_555 1_555
H43B C67B 1_555 1_555
C68B N8B 1_555 1_555
H44B C68B 1_555 1_555
Cd3B O8 1_555 1_555
N9B Cd3B 1_555 1_555
C69B N9B 1_555 1_555
H45B C69B 1_555 1_555
C70B C69B 1_555 1_555
H46B C70B 1_555 1_555
C71B C70B 1_555 1_555
H47B C71B 1_555 1_555
C72B C71B 1_555 1_555
H48B C72B 1_555 1_555
C73B N9B 1_555 1_555
H49B C73B 1_555 1_555
N10B Cd3B 1_555 1_555
C74B N10B 1_555 1_555
H50B C74B 1_555 1_555
C75B C74B 1_555 1_555
H51B C75B 1_555 1_555
C76B C75B 1_555 1_555
H52B C76B 1_555 1_555
C77B C76B 1_555 1_555
H53B C77B 1_555 1_555
C78B N10B 1_555 1_555
H54B C78B 1_555 1_555
O9B Cd3B 1_555 1_555
H55B O9B 1_555 1_555
H56B O9B 1_555 1_555
C4 N1 1_555 1_555
C6 N2 1_555 1_555
C9 N2 1_555 1_555
C11 N3 1_555 1_555
C14 N3 1_555 1_555
C16 N4 1_555 1_555
C19 C20 1_555 1_555
C19 N4 1_555 1_555
C25 C26 1_555 1_555
C32 C33 1_555 1_555
O4 Cd3 1_555 1_555
C39 C40 1_555 1_555
O6 Cd2B 1_555 1_555
C46 C47 1_555 1_555
C52 C53 1_555 1_555
C57 C58 1_555 1_555
C62 C63 1_555 1_555
C67 C68 1_555 1_555
C72 C73 1_555 1_555
C77 C78 1_555 1_555
C83 N11 1_555 1_555
C87 C88 1_555 1_555
C4B N1B 1_555 1_555
C6B N2B 1_555 1_555
C9B N2B 1_555 1_555
C11B N3B 1_555 1_555
C14B N3B 1_555 1_555
C16B N4B 1_555 1_555
C19B C20B 1_555 1_555
C19B N4B 1_555 1_555
C25B C26B 1_555 1_555
O1B Cd2B 1_555 1_555
C32B C33B 1_555 1_555
O3B Cd3B 1_555 1_555
O4B Cd3B 1_555 1_555
C39B C40B 1_555 1_555
C41B O5B 1_555 1_555
C41B O6B 1_555 1_555
C46B C47B 1_555 1_555
C48B O8B 1_555 1_555
C52B C53B 1_555 1_555
C57B C58B 1_555 1_555
C62B C63B 1_555 1_555
C67B C68B 1_555 1_555
C72B C73B 1_555 1_555
C77B C78B 1_555 1_555

#END
