# generated using pymatgen
data_Fe4B138P4H398C240S14N63O31F42
_symmetry_space_group_name_H-M   'P 1'
_cell_length_a   23.94610000
_cell_length_b   28.49200000
_cell_length_c   43.97410000
_cell_angle_alpha   90.00000000
_cell_angle_beta   90.00000000
_cell_angle_gamma   91.41900000
_symmetry_Int_Tables_number   1
_chemical_formula_structural   Fe4B138P4H398C240S14N63O31F42
_chemical_formula_sum   'Fe16 B552 P16 H1592 C960 S56 N252 O124 F168'
_cell_volume   29993.10879638
_cell_formula_units_Z   4
loop_
 _symmetry_equiv_pos_site_id
 _symmetry_equiv_pos_as_xyz
  1  'x, y, z'
loop_
 _atom_site_type_symbol
 _atom_site_label
 _atom_site_symmetry_multiplicity
 _atom_site_fract_x
 _atom_site_fract_y
 _atom_site_fract_z
 _atom_site_occupancy
  Fe  Fe1  1  0.630630  0.157700  0.460790  1
  Fe  Fe2  1  0.869370  0.342300  0.960790  1
  Fe  Fe3  1  0.369370  0.842300  0.539210  1
  Fe  Fe4  1  0.130630  0.657700  0.039210  1
  Fe  Fe5  1  0.356600  0.593760  0.313570  1
  Fe  Fe6  1  0.143400  0.906240  0.813570  1
  Fe  Fe7  1  0.643400  0.406240  0.686430  1
  Fe  Fe8  1  0.856600  0.093760  0.186430  1
  Fe  Fe9  1  0.290210  0.156760  0.161140  1
  Fe  Fe10  1  0.209790  0.343240  0.661140  1
  Fe  Fe11  1  0.709790  0.843240  0.838860  1
  Fe  Fe12  1  0.790210  0.656760  0.338860  1
  Fe  Fe13  1  0.045090  0.165390  0.460750  1
  Fe  Fe14  1  0.454910  0.334610  0.960750  1
  Fe  Fe15  1  0.954910  0.834610  0.539250  1
  Fe  Fe16  1  0.545090  0.665390  0.039250  1
  B  B17  1  0.399700  0.257800  0.364700  1
  B  B18  1  0.100300  0.242200  0.864700  1
  B  B19  1  0.600300  0.742200  0.635300  1
  B  B20  1  0.899700  0.757800  0.135300  1
  B  B21  1  0.284800  0.304100  0.336600  1
  B  B22  1  0.215200  0.195900  0.836600  1
  B  B23  1  0.715200  0.695900  0.663400  1
  B  B24  1  0.784800  0.804100  0.163400  1
  B  B25  1  0.340100  0.259000  0.385670  1
  B  B26  1  0.159900  0.241000  0.885670  1
  B  B27  1  0.659900  0.741000  0.614330  1
  B  B28  1  0.840100  0.759000  0.114330  1
  B  B29  1  0.341400  0.223200  0.353710  1
  B  B30  1  0.158600  0.276800  0.853710  1
  B  B31  1  0.658600  0.776800  0.646290  1
  B  B32  1  0.841400  0.723200  0.146290  1
  B  B33  1  0.383300  0.251900  0.326860  1
  B  B34  1  0.116700  0.248100  0.826860  1
  B  B35  1  0.616700  0.748100  0.673140  1
  B  B36  1  0.883300  0.751900  0.173140  1
  B  B37  1  0.401600  0.306100  0.341100  1
  B  B38  1  0.098400  0.193900  0.841100  1
  B  B39  1  0.598400  0.693900  0.658900  1
  B  B40  1  0.901600  0.806100  0.158900  1
  B  B41  1  0.374600  0.310800  0.377410  1
  B  B42  1  0.125400  0.189200  0.877410  1
  B  B43  1  0.625400  0.689200  0.622590  1
  B  B44  1  0.874600  0.810800  0.122590  1
  B  B45  1  0.304400  0.310400  0.374880  1
  B  B46  1  0.195600  0.189600  0.874880  1
  B  B47  1  0.695600  0.689600  0.625120  1
  B  B48  1  0.804400  0.810400  0.125120  1
  B  B49  1  0.283100  0.256300  0.361000  1
  B  B50  1  0.216900  0.243700  0.861000  1
  B  B51  1  0.716900  0.743700  0.639000  1
  B  B52  1  0.783100  0.756300  0.139000  1
  B  B53  1  0.310600  0.251200  0.323250  1
  B  B54  1  0.189400  0.248800  0.823250  1
  B  B55  1  0.689400  0.748800  0.676750  1
  B  B56  1  0.810600  0.751200  0.176750  1
  B  B57  1  0.347800  0.303200  0.315480  1
  B  B58  1  0.152200  0.196800  0.815480  1
  B  B59  1  0.652200  0.696800  0.684520  1
  B  B60  1  0.847800  0.803200  0.184520  1
  B  B61  1  0.387800  0.088400  0.563340  1
  B  B62  1  0.112200  0.411600  0.063340  1
  B  B63  1  0.612200  0.911600  0.436660  1
  B  B64  1  0.887800  0.588400  0.936660  1
  B  B65  1  0.281300  0.123200  0.521110  1
  B  B66  1  0.218700  0.376800  0.021110  1
  B  B67  1  0.718700  0.876800  0.478890  1
  B  B68  1  0.781300  0.623200  0.978890  1
  B  B69  1  0.344100  0.133600  0.574560  1
  B  B70  1  0.155900  0.366400  0.074560  1
  B  B71  1  0.655900  0.866400  0.425440  1
  B  B72  1  0.844100  0.633600  0.925440  1
  B  B73  1  0.318500  0.077400  0.571630  1
  B  B74  1  0.181500  0.422600  0.071630  1
  B  B75  1  0.681500  0.922600  0.428370  1
  B  B76  1  0.818500  0.577400  0.928370  1
  B  B77  1  0.347800  0.048600  0.540980  1
  B  B78  1  0.152200  0.451400  0.040980  1
  B  B79  1  0.652200  0.951400  0.459020  1
  B  B80  1  0.847800  0.548600  0.959020  1
  B  B81  1  0.392700  0.089700  0.523600  1
  B  B82  1  0.107300  0.410300  0.023600  1
  B  B83  1  0.607300  0.910300  0.476400  1
  B  B84  1  0.892700  0.589700  0.976400  1
  B  B85  1  0.390000  0.141800  0.544820  1
  B  B86  1  0.110000  0.358200  0.044820  1
  B  B87  1  0.610000  0.858200  0.455180  1
  B  B88  1  0.890000  0.641800  0.955180  1
  B  B89  1  0.322900  0.163200  0.542230  1
  B  B90  1  0.177100  0.336800  0.042230  1
  B  B91  1  0.677100  0.836800  0.457770  1
  B  B92  1  0.822900  0.663200  0.957770  1
  B  B93  1  0.277700  0.122200  0.559980  1
  B  B94  1  0.222300  0.377800  0.059980  1
  B  B95  1  0.722300  0.877800  0.440020  1
  B  B96  1  0.777700  0.622200  0.940020  1
  B  B97  1  0.280300  0.069200  0.539330  1
  B  B98  1  0.219700  0.430800  0.039330  1
  B  B99  1  0.719700  0.930800  0.460670  1
  B  B100  1  0.780300  0.569200  0.960670  1
  B  B101  1  0.351800  0.136200  0.510600  1
  B  B102  1  0.148200  0.363800  0.010600  1
  B  B103  1  0.648200  0.863800  0.489400  1
  B  B104  1  0.851800  0.636200  0.989400  1
  B  B105  1  0.916000  0.061530  0.537020  1
  B  B106  1  0.584000  0.438470  0.037020  1
  B  B107  1  0.084000  0.938470  0.462980  1
  B  B108  1  0.416000  0.561530  0.962980  1
  B  B109  1  0.779600  0.061820  0.555250  1
  B  B110  1  0.720400  0.438180  0.055250  1
  B  B111  1  0.220400  0.938180  0.444750  1
  B  B112  1  0.279600  0.561820  0.944750  1
  B  B113  1  0.870100  0.014810  0.527770  1
  B  B114  1  0.629900  0.485190  0.027770  1
  B  B115  1  0.129900  0.985190  0.472230  1
  B  B116  1  0.370100  0.514810  0.972230  1
  B  B117  1  0.863800  0.069500  0.509250  1
  B  B118  1  0.636200  0.430500  0.009250  1
  B  B119  1  0.136200  0.930500  0.490750  1
  B  B120  1  0.363800  0.569500  0.990750  1
  B  B121  1  0.878500  0.113100  0.536290  1
  B  B122  1  0.621500  0.386900  0.036290  1
  B  B123  1  0.121500  0.886900  0.463710  1
  B  B124  1  0.378500  0.613100  0.963710  1
  B  B125  1  0.892500  0.086180  0.571100  1
  B  B126  1  0.607500  0.413820  0.071100  1
  B  B127  1  0.107500  0.913820  0.428900  1
  B  B128  1  0.392500  0.586180  0.928900  1
  B  B129  1  0.887800  0.024970  0.565920  1
  B  B130  1  0.612200  0.475030  0.065920  1
  B  B131  1  0.112200  0.975030  0.434080  1
  B  B132  1  0.387800  0.524970  0.934080  1
  B  B133  1  0.818300  0.009870  0.556240  1
  B  B134  1  0.681700  0.490130  0.056240  1
  B  B135  1  0.181700  0.990130  0.443760  1
  B  B136  1  0.318300  0.509870  0.943760  1
  B  B137  1  0.803000  0.037280  0.521050  1
  B  B138  1  0.697000  0.462720  0.021050  1
  B  B139  1  0.197000  0.962720  0.478950  1
  B  B140  1  0.303000  0.537280  0.978950  1
  B  B141  1  0.807800  0.098740  0.526610  1
  B  B142  1  0.692200  0.401260  0.026610  1
  B  B143  1  0.192200  0.901260  0.473390  1
  B  B144  1  0.307800  0.598740  0.973390  1
  B  B145  1  0.827800  0.106220  0.563860  1
  B  B146  1  0.672200  0.393780  0.063860  1
  B  B147  1  0.172200  0.893780  0.436140  1
  B  B148  1  0.327800  0.606220  0.936140  1
  B  B149  1  0.832500  0.054370  0.583180  1
  B  B150  1  0.667500  0.445630  0.083180  1
  B  B151  1  0.167500  0.945630  0.416820  1
  B  B152  1  0.332500  0.554370  0.916820  1
  B  B153  1  0.385600  0.571900  0.576700  1
  B  B154  1  0.114400  0.928100  0.076700  1
  B  B155  1  0.614400  0.428100  0.423300  1
  B  B156  1  0.885600  0.071900  0.923300  1
  B  B157  1  0.257200  0.570900  0.601600  1
  B  B158  1  0.242800  0.929100  0.101600  1
  B  B159  1  0.742800  0.429100  0.398400  1
  B  B160  1  0.757200  0.070900  0.898400  1
  B  B161  1  0.366900  0.549700  0.614100  1
  B  B162  1  0.133100  0.950300  0.114100  1
  B  B163  1  0.633100  0.450300  0.385900  1
  B  B164  1  0.866900  0.049700  0.885900  1
  B  B165  1  0.349400  0.519300  0.581750  1
  B  B166  1  0.150600  0.980700  0.081750  1
  B  B167  1  0.650600  0.480700  0.418250  1
  B  B168  1  0.849400  0.019300  0.918250  1
  B  B169  1  0.327500  0.559600  0.552600  1
  B  B170  1  0.172500  0.940400  0.052600  1
  B  B171  1  0.672500  0.440400  0.447400  1
  B  B172  1  0.827500  0.059600  0.947400  1
  B  B173  1  0.342200  0.617700  0.568600  1
  B  B174  1  0.157800  0.882300  0.068600  1
  B  B175  1  0.657800  0.382300  0.431400  1
  B  B176  1  0.842200  0.117700  0.931400  1
  B  B177  1  0.364300  0.610200  0.605400  1
  B  B178  1  0.135700  0.889800  0.105400  1
  B  B179  1  0.635700  0.389800  0.394600  1
  B  B180  1  0.864300  0.110200  0.894600  1
  B  B181  1  0.310100  0.582800  0.626000  1
  B  B182  1  0.189900  0.917200  0.126000  1
  B  B183  1  0.689900  0.417200  0.374000  1
  B  B184  1  0.810100  0.082800  0.874000  1
  B  B185  1  0.301000  0.526300  0.611640  1
  B  B186  1  0.199000  0.973700  0.111640  1
  B  B187  1  0.699000  0.473700  0.388360  1
  B  B188  1  0.801000  0.026300  0.888360  1
  B  B189  1  0.277000  0.532800  0.574460  1
  B  B190  1  0.223000  0.967200  0.074460  1
  B  B191  1  0.723000  0.467200  0.425540  1
  B  B192  1  0.777000  0.032800  0.925540  1
  B  B193  1  0.275000  0.593000  0.565600  1
  B  B194  1  0.225000  0.907000  0.065600  1
  B  B195  1  0.725000  0.407000  0.434400  1
  B  B196  1  0.775000  0.093000  0.934400  1
  B  B197  1  0.765900  0.269000  0.370000  1
  B  B198  1  0.734100  0.231000  0.870000  1
  B  B199  1  0.234100  0.731000  0.630000  1
  B  B200  1  0.265900  0.769000  0.130000  1
  B  B201  1  0.902000  0.245400  0.357860  1
  B  B202  1  0.598000  0.254600  0.857860  1
  B  B203  1  0.098000  0.754600  0.642140  1
  B  B204  1  0.402000  0.745400  0.142140  1
  B  B205  1  0.800100  0.283700  0.335520  1
  B  B206  1  0.699900  0.216300  0.835520  1
  B  B207  1  0.199900  0.716300  0.664480  1
  B  B208  1  0.300100  0.783700  0.164480  1
  B  B209  1  0.785700  0.226500  0.344990  1
  B  B210  1  0.714300  0.273500  0.844990  1
  B  B211  1  0.214300  0.773500  0.655010  1
  B  B212  1  0.285700  0.726500  0.155010  1
  B  B213  1  0.796200  0.220700  0.385430  1
  B  B214  1  0.703800  0.279300  0.885430  1
  B  B215  1  0.203800  0.779300  0.614570  1
  B  B216  1  0.296200  0.720700  0.114570  1
  B  B217  1  0.817300  0.278100  0.397680  1
  B  B218  1  0.682700  0.221900  0.897680  1
  B  B219  1  0.182700  0.721900  0.602320  1
  B  B220  1  0.317300  0.778100  0.102320  1
  B  B221  1  0.819900  0.312000  0.366500  1
  B  B222  1  0.680100  0.188000  0.866500  1
  B  B223  1  0.180100  0.688000  0.633500  1
  B  B224  1  0.319900  0.812000  0.133500  1
  B  B225  1  0.870700  0.296000  0.342100  1
  B  B226  1  0.629300  0.204000  0.842100  1
  B  B227  1  0.129300  0.704000  0.657900  1
  B  B228  1  0.370700  0.796000  0.157900  1
  B  B229  1  0.849800  0.242500  0.329980  1
  B  B230  1  0.650200  0.257500  0.829980  1
  B  B231  1  0.150200  0.757500  0.670020  1
  B  B232  1  0.349800  0.742500  0.170020  1
  B  B233  1  0.847100  0.200800  0.358630  1
  B  B234  1  0.652900  0.299200  0.858630  1
  B  B235  1  0.152900  0.799200  0.641370  1
  B  B236  1  0.347100  0.700800  0.141370  1
  B  B237  1  0.869300  0.234300  0.392500  1
  B  B238  1  0.630700  0.265700  0.892500  1
  B  B239  1  0.130700  0.765700  0.607500  1
  B  B240  1  0.369300  0.734300  0.107500  1
  B  B241  1  0.881600  0.291200  0.380600  1
  B  B242  1  0.618400  0.208800  0.880600  1
  B  B243  1  0.118400  0.708800  0.619400  1
  B  B244  1  0.381600  0.791200  0.119400  1
  B  B245  1  0.770000  0.965100  0.348530  1
  B  B246  1  0.730000  0.534900  0.848530  1
  B  B247  1  0.230000  0.034900  0.651470  1
  B  B248  1  0.270000  0.465100  0.151470  1
  B  B249  1  0.885500  0.915300  0.324690  1
  B  B250  1  0.614500  0.584700  0.824690  1
  B  B251  1  0.114500  0.084700  0.675310  1
  B  B252  1  0.385500  0.415300  0.175310  1
  B  B253  1  0.803100  0.980900  0.314130  1
  B  B254  1  0.696900  0.519100  0.814130  1
  B  B255  1  0.196900  0.019100  0.685870  1
  B  B256  1  0.303100  0.480900  0.185870  1
  B  B257  1  0.769100  0.925400  0.317510  1
  B  B258  1  0.730900  0.574600  0.817510  1
  B  B259  1  0.230900  0.074600  0.682490  1
  B  B260  1  0.269100  0.425400  0.182490  1
  B  B261  1  0.781200  0.905000  0.354650  1
  B  B262  1  0.718800  0.595000  0.854650  1
  B  B263  1  0.218800  0.095000  0.645350  1
  B  B264  1  0.281200  0.405000  0.145350  1
  B  B265  1  0.822100  0.949000  0.374380  1
  B  B266  1  0.677900  0.551000  0.874380  1
  B  B267  1  0.177900  0.051000  0.625620  1
  B  B268  1  0.322100  0.449000  0.125620  1
  B  B269  1  0.835400  0.995900  0.349460  1
  B  B270  1  0.664600  0.504100  0.849460  1
  B  B271  1  0.164600  0.004100  0.650540  1
  B  B272  1  0.335400  0.495900  0.150540  1
  B  B273  1  0.873900  0.974000  0.319340  1
  B  B274  1  0.626100  0.526000  0.819340  1
  B  B275  1  0.126100  0.026000  0.680660  1
  B  B276  1  0.373900  0.474000  0.180660  1
  B  B277  1  0.833500  0.931600  0.299360  1
  B  B278  1  0.666500  0.568400  0.799360  1
  B  B279  1  0.166500  0.068400  0.700640  1
  B  B280  1  0.333500  0.431600  0.200640  1
  B  B281  1  0.820000  0.884100  0.324340  1
  B  B282  1  0.680000  0.615900  0.824340  1
  B  B283  1  0.180000  0.115900  0.675660  1
  B  B284  1  0.320000  0.384100  0.175660  1
  B  B285  1  0.854300  0.898300  0.358950  1
  B  B286  1  0.645700  0.601700  0.858950  1
  B  B287  1  0.145700  0.101700  0.641050  1
  B  B288  1  0.354300  0.398300  0.141050  1
  B  B289  1  0.887700  0.953900  0.356110  1
  B  B290  1  0.612300  0.546100  0.856110  1
  B  B291  1  0.112300  0.046100  0.643890  1
  B  B292  1  0.387700  0.453900  0.143890  1
  B  B293  1  0.080500  0.715900  0.435400  1
  B  B294  1  0.419500  0.784100  0.935400  1
  B  B295  1  0.919500  0.284100  0.564600  1
  B  B296  1  0.580500  0.215900  0.064600  1
  B  B297  1  0.023300  0.722400  0.367700  1
  B  B298  1  0.476700  0.777600  0.867700  1
  B  B299  1  0.976700  0.277600  0.632300  1
  B  B300  1  0.523300  0.222400  0.132300  1
  B  B301  1  0.112900  0.748300  0.406600  1
  B  B302  1  0.387100  0.751700  0.906600  1
  B  B303  1  0.887100  0.251700  0.593400  1
  B  B304  1  0.612900  0.248300  0.093400  1
  B  B305  1  0.050600  0.767600  0.422600  1
  B  B306  1  0.449400  0.732400  0.922600  1
  B  B307  1  0.949400  0.232400  0.577400  1
  B  B308  1  0.550600  0.267600  0.077400  1
  B  B309  1  0.009000  0.718000  0.431900  1
  B  B310  1  0.491000  0.782000  0.931900  1
  B  B311  1  0.991000  0.282000  0.568100  1
  B  B312  1  0.509000  0.218000  0.068100  1
  B  B313  1  0.044900  0.668500  0.420600  1
  B  B314  1  0.455100  0.831500  0.920600  1
  B  B315  1  0.955100  0.331500  0.579400  1
  B  B316  1  0.544900  0.168500  0.079400  1
  B  B317  1  0.109600  0.687600  0.404900  1
  B  B318  1  0.390400  0.812400  0.904900  1
  B  B319  1  0.890400  0.312400  0.595100  1
  B  B320  1  0.609600  0.187600  0.095100  1
  B  B321  1  0.060000  0.770500  0.383100  1
  B  B322  1  0.440000  0.729500  0.883100  1
  B  B323  1  0.940000  0.229500  0.616900  1
  B  B324  1  0.560000  0.270500  0.116900  1
  B  B325  1  0.995000  0.752100  0.399000  1
  B  B326  1  0.505000  0.747900  0.899000  1
  B  B327  1  0.005000  0.247900  0.601000  1
  B  B328  1  0.495000  0.252100  0.101000  1
  B  B329  1  0.992300  0.689700  0.398000  1
  B  B330  1  0.507700  0.810300  0.898000  1
  B  B331  1  0.007700  0.310300  0.602000  1
  B  B332  1  0.492300  0.189700  0.102000  1
  B  B333  1  0.053700  0.670500  0.381100  1
  B  B334  1  0.446300  0.829500  0.881100  1
  B  B335  1  0.946300  0.329500  0.618900  1
  B  B336  1  0.553700  0.170500  0.118900  1
  B  B337  1  0.118600  0.611400  0.304300  1
  B  B338  1  0.381400  0.888600  0.804300  1
  B  B339  1  0.881400  0.388600  0.695700  1
  B  B340  1  0.618600  0.111400  0.195700  1
  B  B341  1  0.064900  0.612000  0.235600  1
  B  B342  1  0.435100  0.888000  0.735600  1
  B  B343  1  0.935100  0.388000  0.764400  1
  B  B344  1  0.564900  0.112000  0.264400  1
  B  B345  1  0.131200  0.658400  0.280200  1
  B  B346  1  0.368800  0.841600  0.780200  1
  B  B347  1  0.868800  0.341600  0.719800  1
  B  B348  1  0.631200  0.158400  0.219800  1
  B  B349  1  0.064100  0.647300  0.295000  1
  B  B350  1  0.435900  0.852700  0.795000  1
  B  B351  1  0.935900  0.352700  0.705000  1
  B  B352  1  0.564100  0.147300  0.205000  1
  B  B353  1  0.053300  0.586300  0.299100  1
  B  B354  1  0.446700  0.913700  0.799100  1
  B  B355  1  0.946700  0.413700  0.700900  1
  B  B356  1  0.553300  0.086300  0.200900  1
  B  B357  1  0.112000  0.559300  0.284700  1
  B  B358  1  0.388000  0.940700  0.784700  1
  B  B359  1  0.888000  0.440700  0.715300  1
  B  B360  1  0.612000  0.059300  0.215300  1
  B  B361  1  0.158600  0.605300  0.272700  1
  B  B362  1  0.341400  0.894700  0.772700  1
  B  B363  1  0.841400  0.394700  0.727300  1
  B  B364  1  0.658600  0.105300  0.227300  1
  B  B365  1  0.129400  0.635000  0.243200  1
  B  B366  1  0.370600  0.865000  0.743200  1
  B  B367  1  0.870600  0.365000  0.756800  1
  B  B368  1  0.629400  0.135000  0.256800  1
  B  B369  1  0.071000  0.663600  0.257100  1
  B  B370  1  0.429000  0.836400  0.757100  1
  B  B371  1  0.929000  0.336400  0.742900  1
  B  B372  1  0.571000  0.163600  0.242900  1
  B  B373  1  0.022700  0.619800  0.267600  1
  B  B374  1  0.477300  0.880200  0.767600  1
  B  B375  1  0.977300  0.380200  0.732400  1
  B  B376  1  0.522700  0.119800  0.232400  1
  B  B377  1  0.053000  0.565200  0.261200  1
  B  B378  1  0.447000  0.934800  0.761200  1
  B  B379  1  0.947000  0.434800  0.738800  1
  B  B380  1  0.553000  0.065200  0.238800  1
  B  B381  1  0.118200  0.573600  0.245900  1
  B  B382  1  0.381800  0.926400  0.745900  1
  B  B383  1  0.881800  0.426400  0.754100  1
  B  B384  1  0.618200  0.073600  0.254100  1
  B  B385  1  0.389900  0.033060  0.033970  1
  B  B386  1  0.110100  0.466940  0.533970  1
  B  B387  1  0.610100  0.966940  0.966030  1
  B  B388  1  0.889900  0.533060  0.466030  1
  B  B389  1  0.402000  0.104890  0.973130  1
  B  B390  1  0.098000  0.395110  0.473130  1
  B  B391  1  0.598000  0.895110  0.026870  1
  B  B392  1  0.902000  0.604890  0.526870  1
  B  B393  1  0.420100  0.090000  0.036620  1
  B  B394  1  0.079900  0.410000  0.536620  1
  B  B395  1  0.579900  0.910000  0.963380  1
  B  B396  1  0.920100  0.590000  0.463380  1
  B  B397  1  0.348000  0.082970  0.030040  1
  B  B398  1  0.152000  0.417030  0.530040  1
  B  B399  1  0.652000  0.917030  0.969960  1
  B  B400  1  0.848000  0.582970  0.469960  1
  B  B401  1  0.338500  0.033760  0.005550  1
  B  B402  1  0.161500  0.466240  0.505550  1
  B  B403  1  0.661500  0.966240  0.994450  1
  B  B404  1  0.838500  0.533760  0.494450  1
  B  B405  1  0.404080  0.011490  0.997120  1
  B  B406  1  0.095920  0.488510  0.497120  1
  B  B407  1  0.595920  0.988510  0.002880  1
  B  B408  1  0.904080  0.511490  0.502880  1
  B  B409  1  0.453200  0.103600  0.001930  1
  B  B410  1  0.046800  0.396400  0.501930  1
  B  B411  1  0.546800  0.896400  0.998070  1
  B  B412  1  0.953200  0.603600  0.498070  1
  B  B413  1  0.387100  0.126290  0.009910  1
  B  B414  1  0.112900  0.373710  0.509910  1
  B  B415  1  0.612900  0.873710  0.990090  1
  B  B416  1  0.887100  0.626290  0.490090  1
  B  B417  1  0.336100  0.091710  0.990560  1
  B  B418  1  0.163900  0.408290  0.490560  1
  B  B419  1  0.663900  0.908290  0.009440  1
  B  B420  1  0.836100  0.591710  0.509440  1
  B  B421  1  0.371600  0.047630  0.970340  1
  B  B422  1  0.128400  0.452370  0.470340  1
  B  B423  1  0.628400  0.952370  0.029660  1
  B  B424  1  0.871600  0.547630  0.529660  1
  B  B425  1  0.443700  0.055090  0.977370  1
  B  B426  1  0.056300  0.444910  0.477370  1
  B  B427  1  0.556300  0.944910  0.022630  1
  B  B428  1  0.943700  0.555090  0.522630  1
  B  B429  1  0.677400  0.149700  0.747700  1
  B  B430  1  0.822600  0.350300  0.247700  1
  B  B431  1  0.322600  0.850300  0.252300  1
  B  B432  1  0.177400  0.649700  0.752300  1
  B  B433  1  0.623900  0.188300  0.682670  1
  B  B434  1  0.876100  0.311700  0.182670  1
  B  B435  1  0.376100  0.811700  0.317330  1
  B  B436  1  0.123900  0.688300  0.817330  1
  B  B437  1  0.633800  0.196800  0.745150  1
  B  B438  1  0.866200  0.303200  0.245150  1
  B  B439  1  0.366200  0.803200  0.254850  1
  B  B440  1  0.133800  0.696800  0.754850  1
  B  B441  1  0.606900  0.139700  0.738550  1
  B  B442  1  0.893100  0.360300  0.238550  1
  B  B443  1  0.393100  0.860300  0.261450  1
  B  B444  1  0.106900  0.639700  0.761450  1
  B  B445  1  0.715500  0.149400  0.714460  1
  B  B446  1  0.784500  0.350600  0.214460  1
  B  B447  1  0.284500  0.850600  0.285540  1
  B  B448  1  0.215500  0.649400  0.785540  1
  B  B449  1  0.699400  0.203500  0.731840  1
  B  B450  1  0.800600  0.296500  0.231840  1
  B  B451  1  0.300600  0.796500  0.268160  1
  B  B452  1  0.199400  0.703500  0.768160  1
  B  B453  1  0.642900  0.226800  0.711770  1
  B  B454  1  0.857100  0.273200  0.211770  1
  B  B455  1  0.357100  0.773200  0.288230  1
  B  B456  1  0.142900  0.726800  0.788230  1
  B  B457  1  0.585400  0.188700  0.715730  1
  B  B458  1  0.914600  0.311300  0.215730  1
  B  B459  1  0.414600  0.811300  0.284270  1
  B  B460  1  0.085400  0.688700  0.784270  1
  B  B461  1  0.601600  0.135000  0.698620  1
  B  B462  1  0.898400  0.365000  0.198620  1
  B  B463  1  0.398400  0.865000  0.301380  1
  B  B464  1  0.101600  0.635000  0.801380  1
  B  B465  1  0.669600  0.140900  0.684110  1
  B  B466  1  0.830400  0.359100  0.184110  1
  B  B467  1  0.330400  0.859100  0.315890  1
  B  B468  1  0.169600  0.640900  0.815890  1
  B  B469  1  0.694900  0.197600  0.692130  1
  B  B470  1  0.805100  0.302400  0.192130  1
  B  B471  1  0.305100  0.802400  0.307870  1
  B  B472  1  0.194900  0.697600  0.807870  1
  B  B473  1  0.003700  0.025800  0.262000  1
  B  B474  1  0.496300  0.474200  0.762000  1
  B  B475  1  0.996300  0.974200  0.738000  1
  B  B476  1  0.503700  0.525800  0.238000  1
  B  B477  1  0.099600  0.094600  0.298400  1
  B  B478  1  0.400400  0.405400  0.798400  1
  B  B479  1  0.900400  0.905400  0.701600  1
  B  B480  1  0.599600  0.594600  0.201600  1
  B  B481  1  0.022300  0.082800  0.249000  1
  B  B482  1  0.477700  0.417200  0.749000  1
  B  B483  1  0.977700  0.917200  0.751000  1
  B  B484  1  0.522300  0.582800  0.251000  1
  B  B485  1  0.070700  0.037300  0.246700  1
  B  B486  1  0.429300  0.462700  0.746700  1
  B  B487  1  0.929300  0.962700  0.753300  1
  B  B488  1  0.570700  0.537300  0.253300  1
  B  B489  1  0.062600  0.002300  0.279700  1
  B  B490  1  0.437400  0.497700  0.779700  1
  B  B491  1  0.937400  0.997700  0.720300  1
  B  B492  1  0.562600  0.502300  0.220300  1
  B  B493  1  0.009900  0.026200  0.301900  1
  B  B494  1  0.490100  0.473800  0.801900  1
  B  B495  1  0.990100  0.973800  0.698100  1
  B  B496  1  0.509900  0.526200  0.198100  1
  B  B497  1  0.988400  0.074800  0.282800  1
  B  B498  1  0.511600  0.425200  0.782800  1
  B  B499  1  0.011600  0.925200  0.717200  1
  B  B500  1  0.488400  0.574800  0.217200  1
  B  B501  1  0.039700  0.118000  0.280800  1
  B  B502  1  0.460300  0.382000  0.780800  1
  B  B503  1  0.960300  0.882000  0.719200  1
  B  B504  1  0.539700  0.618000  0.219200  1
  B  B505  1  0.093200  0.094000  0.258300  1
  B  B506  1  0.406800  0.406000  0.758300  1
  B  B507  1  0.906800  0.906000  0.741700  1
  B  B508  1  0.593200  0.594000  0.241700  1
  B  B509  1  0.118500  0.044200  0.277300  1
  B  B510  1  0.381500  0.455800  0.777300  1
  B  B511  1  0.881500  0.955800  0.722700  1
  B  B512  1  0.618500  0.544200  0.222700  1
  B  B513  1  0.080200  0.037600  0.311500  1
  B  B514  1  0.419800  0.462400  0.811500  1
  B  B515  1  0.919800  0.962400  0.688500  1
  B  B516  1  0.580200  0.537600  0.188500  1
  B  B517  1  0.031700  0.083500  0.313700  1
  B  B518  1  0.468300  0.416500  0.813700  1
  B  B519  1  0.968300  0.916500  0.686300  1
  B  B520  1  0.531700  0.583500  0.186300  1
  B  B521  1  0.995900  0.768700  0.384100  1
  B  B522  1  0.504100  0.731300  0.884100  1
  B  B523  1  0.004100  0.231300  0.615900  1
  B  B524  1  0.495900  0.268700  0.115900  1
  B  B525  1  0.099400  0.698700  0.403700  1
  B  B526  1  0.400600  0.801300  0.903700  1
  B  B527  1  0.900600  0.301300  0.596300  1
  B  B528  1  0.599400  0.198700  0.096300  1
  B  B529  1  0.022200  0.727700  0.358600  1
  B  B530  1  0.477800  0.772300  0.858600  1
  B  B531  1  0.977800  0.272300  0.641400  1
  B  B532  1  0.522200  0.227700  0.141400  1
  B  B533  1  0.983900  0.708200  0.390800  1
  B  B534  1  0.516100  0.791800  0.890800  1
  B  B535  1  0.016100  0.291800  0.609200  1
  B  B536  1  0.483900  0.208200  0.109200  1
  B  B537  1  0.000000  0.746100  0.420700  1
  B  B538  1  0.500000  0.753900  0.920700  1
  B  B539  1  0.000000  0.253900  0.579300  1
  B  B540  1  0.500000  0.246100  0.079300  1
  B  B541  1  0.049300  0.787300  0.407800  1
  B  B542  1  0.450700  0.712700  0.907800  1
  B  B543  1  0.950700  0.212700  0.592200  1
  B  B544  1  0.549300  0.287300  0.092200  1
  B  B545  1  0.062300  0.776100  0.369200  1
  B  B546  1  0.437700  0.723900  0.869200  1
  B  B547  1  0.937700  0.223900  0.630800  1
  B  B548  1  0.562300  0.276100  0.130800  1
  B  B549  1  0.093200  0.721800  0.366800  1
  B  B550  1  0.406800  0.778200  0.866800  1
  B  B551  1  0.906800  0.278200  0.633200  1
  B  B552  1  0.593200  0.221800  0.133200  1
  B  B553  1  0.044500  0.679100  0.379800  1
  B  B554  1  0.455500  0.820900  0.879800  1
  B  B555  1  0.955500  0.320900  0.620200  1
  B  B556  1  0.544500  0.179100  0.120200  1
  B  B557  1  0.031900  0.690600  0.418500  1
  B  B558  1  0.468100  0.809400  0.918500  1
  B  B559  1  0.968100  0.309400  0.581500  1
  B  B560  1  0.531900  0.190600  0.081500  1
  B  B561  1  0.071500  0.740000  0.428800  1
  B  B562  1  0.428500  0.760000  0.928800  1
  B  B563  1  0.928500  0.260000  0.571200  1
  B  B564  1  0.571500  0.240000  0.071200  1
  B  B565  1  0.110300  0.759600  0.397100  1
  B  B566  1  0.389700  0.740400  0.897100  1
  B  B567  1  0.889700  0.240400  0.602900  1
  B  B568  1  0.610300  0.259600  0.102900  1
  P  P569  1  0.554980  0.323960  0.282280  1
  P  P570  1  0.945020  0.176040  0.782280  1
  P  P571  1  0.445020  0.676040  0.717720  1
  P  P572  1  0.054980  0.823960  0.217720  1
  P  P573  1  0.355370  0.376170  0.471830  1
  P  P574  1  0.144630  0.123830  0.971830  1
  P  P575  1  0.644630  0.623830  0.528170  1
  P  P576  1  0.855370  0.876170  0.028170  1
  P  P577  1  0.325350  0.068120  0.350890  1
  P  P578  1  0.174650  0.431880  0.850890  1
  P  P579  1  0.674650  0.931880  0.649110  1
  P  P580  1  0.825350  0.568120  0.149110  1
  P  P581  1  0.117650  0.339560  0.298340  1
  P  P582  1  0.382350  0.160440  0.798340  1
  P  P583  1  0.882350  0.660440  0.701660  1
  P  P584  1  0.617650  0.839560  0.201660  1
  H  H585  1  0.438528  0.242396  0.374219  1
  H  H586  1  0.061472  0.257604  0.874219  1
  H  H587  1  0.561472  0.757604  0.625781  1
  H  H588  1  0.938528  0.742396  0.125781  1
  H  H589  1  0.245341  0.318836  0.327393  1
  H  H590  1  0.254659  0.181164  0.827393  1
  H  H591  1  0.754659  0.681164  0.672607  1
  H  H592  1  0.745341  0.818836  0.172607  1
  H  H593  1  0.338762  0.243715  0.409130  1
  H  H594  1  0.161238  0.256285  0.909130  1
  H  H595  1  0.661238  0.756285  0.590870  1
  H  H596  1  0.838762  0.743715  0.090870  1
  H  H597  1  0.339187  0.184032  0.355468  1
  H  H598  1  0.160813  0.315968  0.855468  1
  H  H599  1  0.660813  0.815968  0.644532  1
  H  H600  1  0.839187  0.684032  0.144532  1
  H  H601  1  0.410930  0.232029  0.311114  1
  H  H602  1  0.089070  0.267971  0.811114  1
  H  H603  1  0.589070  0.767971  0.688886  1
  H  H604  1  0.910930  0.732029  0.188886  1
  H  H605  1  0.442391  0.323541  0.334731  1
  H  H606  1  0.057609  0.176459  0.834731  1
  H  H607  1  0.557609  0.676459  0.665269  1
  H  H608  1  0.942391  0.823541  0.165269  1
  H  H609  1  0.396119  0.331530  0.395829  1
  H  H610  1  0.103881  0.168470  0.895829  1
  H  H611  1  0.603881  0.668470  0.604171  1
  H  H612  1  0.896119  0.831530  0.104171  1
  H  H613  1  0.278550  0.330556  0.391340  1
  H  H614  1  0.221450  0.169444  0.891340  1
  H  H615  1  0.721450  0.669444  0.608660  1
  H  H616  1  0.778550  0.830556  0.108660  1
  H  H617  1  0.242404  0.239766  0.368372  1
  H  H618  1  0.257596  0.260234  0.868372  1
  H  H619  1  0.757596  0.760234  0.631628  1
  H  H620  1  0.742404  0.739766  0.131628  1
  H  H621  1  0.289075  0.231144  0.304560  1
  H  H622  1  0.210925  0.268856  0.804560  1
  H  H623  1  0.710925  0.768856  0.695440  1
  H  H624  1  0.789075  0.731144  0.195440  1
  H  H625  1  0.351247  0.318169  0.291979  1
  H  H626  1  0.148753  0.181831  0.791979  1
  H  H627  1  0.648753  0.681831  0.708021  1
  H  H628  1  0.851247  0.818169  0.208021  1
  H  H629  1  0.343488  0.377708  0.343533  1
  H  H630  1  0.156512  0.122292  0.843533  1
  H  H631  1  0.656512  0.622292  0.656467  1
  H  H632  1  0.843488  0.877708  0.156467  1
  H  H633  1  0.422996  0.076431  0.577975  1
  H  H634  1  0.077004  0.423569  0.077975  1
  H  H635  1  0.577004  0.923569  0.422025  1
  H  H636  1  0.922996  0.576431  0.922025  1
  H  H637  1  0.244528  0.134572  0.507440  1
  H  H638  1  0.255472  0.365428  0.007440  1
  H  H639  1  0.755472  0.865428  0.492560  1
  H  H640  1  0.744528  0.634572  0.992560  1
  H  H641  1  0.350024  0.152054  0.596856  1
  H  H642  1  0.149976  0.347946  0.096856  1
  H  H643  1  0.649976  0.847946  0.403144  1
  H  H644  1  0.850024  0.652054  0.903144  1
  H  H645  1  0.306788  0.057363  0.592700  1
  H  H646  1  0.193212  0.442637  0.092700  1
  H  H647  1  0.693212  0.942637  0.407300  1
  H  H648  1  0.806788  0.557363  0.907300  1
  H  H649  1  0.355960  0.010019  0.540708  1
  H  H650  1  0.144040  0.489981  0.040708  1
  H  H651  1  0.644040  0.989981  0.459292  1
  H  H652  1  0.855960  0.510019  0.959292  1
  H  H653  1  0.431530  0.078957  0.511495  1
  H  H654  1  0.068470  0.421043  0.011495  1
  H  H655  1  0.568470  0.921043  0.488505  1
  H  H656  1  0.931530  0.578957  0.988505  1
  H  H657  1  0.427409  0.165995  0.546935  1
  H  H658  1  0.072591  0.334005  0.046935  1
  H  H659  1  0.572591  0.834005  0.453065  1
  H  H660  1  0.927409  0.665995  0.953065  1
  H  H661  1  0.315240  0.201856  0.542215  1
  H  H662  1  0.184760  0.298144  0.042215  1
  H  H663  1  0.684760  0.798144  0.457785  1
  H  H664  1  0.815240  0.701856  0.957785  1
  H  H665  1  0.239223  0.133061  0.572320  1
  H  H666  1  0.260777  0.366939  0.072320  1
  H  H667  1  0.760777  0.866939  0.427680  1
  H  H668  1  0.739223  0.633061  0.927680  1
  H  H669  1  0.243682  0.044114  0.537780  1
  H  H670  1  0.256318  0.455886  0.037780  1
  H  H671  1  0.756318  0.955886  0.462220  1
  H  H672  1  0.743682  0.544114  0.962220  1
  H  H673  1  0.321999  0.060364  0.485506  1
  H  H674  1  0.178001  0.439636  0.985506  1
  H  H675  1  0.678001  0.939636  0.514494  1
  H  H676  1  0.821999  0.560364  0.014494  1
  H  H677  1  0.362608  0.156768  0.489601  1
  H  H678  1  0.137392  0.343232  0.989601  1
  H  H679  1  0.637392  0.843232  0.510399  1
  H  H680  1  0.862608  0.656768  0.010399  1
  H  H681  1  0.961420  0.061190  0.530909  1
  H  H682  1  0.538580  0.438810  0.030909  1
  H  H683  1  0.038580  0.938810  0.469091  1
  H  H684  1  0.461420  0.561190  0.969091  1
  H  H685  1  0.734204  0.062247  0.561305  1
  H  H686  1  0.765796  0.437753  0.061305  1
  H  H687  1  0.265796  0.937753  0.438695  1
  H  H688  1  0.234204  0.562247  0.938695  1
  H  H689  1  0.885052  0.983201  0.515316  1
  H  H690  1  0.614948  0.516799  0.015316  1
  H  H691  1  0.114948  0.016799  0.484684  1
  H  H692  1  0.385052  0.483201  0.984684  1
  H  H693  1  0.874126  0.074636  0.484607  1
  H  H694  1  0.625874  0.425364  0.984607  1
  H  H695  1  0.125874  0.925364  0.515393  1
  H  H696  1  0.374126  0.574636  0.015393  1
  H  H697  1  0.898575  0.147565  0.529798  1
  H  H698  1  0.601425  0.352435  0.029798  1
  H  H699  1  0.101425  0.852435  0.470202  1
  H  H700  1  0.398575  0.647565  0.970202  1
  H  H701  1  0.921860  0.102971  0.587909  1
  H  H702  1  0.578140  0.397029  0.087909  1
  H  H703  1  0.078140  0.897029  0.412091  1
  H  H704  1  0.421860  0.602971  0.912091  1
  H  H705  1  0.914381  0.000327  0.579059  1
  H  H706  1  0.585619  0.499673  0.079059  1
  H  H707  1  0.085619  0.999673  0.420941  1
  H  H708  1  0.414381  0.500327  0.920941  1
  H  H709  1  0.798671  0.975308  0.562916  1
  H  H710  1  0.701329  0.524692  0.062916  1
  H  H711  1  0.201329  0.024692  0.437084  1
  H  H712  1  0.298671  0.475308  0.937084  1
  H  H713  1  0.773314  0.020861  0.504250  1
  H  H714  1  0.726686  0.479139  0.004250  1
  H  H715  1  0.226686  0.979139  0.495750  1
  H  H716  1  0.273314  0.520861  0.995750  1
  H  H717  1  0.780986  0.123722  0.513906  1
  H  H718  1  0.719014  0.376278  0.013906  1
  H  H719  1  0.219014  0.876278  0.486094  1
  H  H720  1  0.280986  0.623722  0.986094  1
  H  H721  1  0.813413  0.137897  0.576438  1
  H  H722  1  0.686587  0.362103  0.076438  1
  H  H723  1  0.186587  0.862103  0.423562  1
  H  H724  1  0.313413  0.637897  0.923562  1
  H  H725  1  0.822029  0.049954  0.607854  1
  H  H726  1  0.677971  0.450046  0.107854  1
  H  H727  1  0.177971  0.950046  0.392146  1
  H  H728  1  0.322029  0.549954  0.892146  1
  H  H729  1  0.429123  0.572421  0.567348  1
  H  H730  1  0.070877  0.927579  0.067348  1
  H  H731  1  0.570877  0.427579  0.432652  1
  H  H732  1  0.929123  0.072421  0.932652  1
  H  H733  1  0.212772  0.570797  0.609523  1
  H  H734  1  0.287228  0.929203  0.109523  1
  H  H735  1  0.787228  0.429203  0.390477  1
  H  H736  1  0.712772  0.070797  0.890477  1
  H  H737  1  0.397652  0.535432  0.630653  1
  H  H738  1  0.102348  0.964568  0.130653  1
  H  H739  1  0.602348  0.464568  0.369347  1
  H  H740  1  0.897652  0.035432  0.869347  1
  H  H741  1  0.369470  0.485160  0.576452  1
  H  H742  1  0.130530  0.014840  0.076452  1
  H  H743  1  0.630530  0.514840  0.423548  1
  H  H744  1  0.869470  0.985160  0.923548  1
  H  H745  1  0.330695  0.550954  0.527861  1
  H  H746  1  0.169305  0.949046  0.027861  1
  H  H747  1  0.669305  0.449046  0.472139  1
  H  H748  1  0.830695  0.050954  0.972139  1
  H  H749  1  0.356619  0.648995  0.555099  1
  H  H750  1  0.143381  0.851005  0.055099  1
  H  H751  1  0.643381  0.351005  0.444901  1
  H  H752  1  0.856619  0.148995  0.944901  1
  H  H753  1  0.393935  0.636339  0.616181  1
  H  H754  1  0.106065  0.863661  0.116181  1
  H  H755  1  0.606065  0.363661  0.383819  1
  H  H756  1  0.893935  0.136339  0.883819  1
  H  H757  1  0.302129  0.591486  0.650461  1
  H  H758  1  0.197871  0.908514  0.150461  1
  H  H759  1  0.697871  0.408514  0.349539  1
  H  H760  1  0.802129  0.091486  0.849539  1
  H  H761  1  0.287409  0.495869  0.626201  1
  H  H762  1  0.212591  0.004131  0.126201  1
  H  H763  1  0.712591  0.504131  0.373799  1
  H  H764  1  0.787409  0.995869  0.873799  1
  H  H765  1  0.246769  0.506496  0.564343  1
  H  H766  1  0.253231  0.993504  0.064343  1
  H  H767  1  0.753231  0.493504  0.435657  1
  H  H768  1  0.746769  0.006496  0.935657  1
  H  H769  1  0.244404  0.608454  0.549448  1
  H  H770  1  0.255596  0.891546  0.049448  1
  H  H771  1  0.755596  0.391546  0.450552  1
  H  H772  1  0.744404  0.108454  0.950552  1
  H  H773  1  0.278907  0.653323  0.604317  1
  H  H774  1  0.221093  0.846677  0.104317  1
  H  H775  1  0.721093  0.346677  0.395683  1
  H  H776  1  0.778907  0.153323  0.895683  1
  H  H777  1  0.720771  0.275310  0.374675  1
  H  H778  1  0.779229  0.224690  0.874675  1
  H  H779  1  0.279229  0.724690  0.625325  1
  H  H780  1  0.220771  0.775310  0.125325  1
  H  H781  1  0.946727  0.236228  0.354248  1
  H  H782  1  0.553273  0.263772  0.854248  1
  H  H783  1  0.053273  0.763772  0.645752  1
  H  H784  1  0.446727  0.736228  0.145752  1
  H  H785  1  0.777161  0.301415  0.316682  1
  H  H786  1  0.722839  0.198585  0.816682  1
  H  H787  1  0.222839  0.698585  0.683318  1
  H  H788  1  0.277161  0.801415  0.183318  1
  H  H789  1  0.753765  0.205239  0.331973  1
  H  H790  1  0.746235  0.294761  0.831973  1
  H  H791  1  0.246235  0.794761  0.668027  1
  H  H792  1  0.253765  0.705239  0.168027  1
  H  H793  1  0.772341  0.195437  0.400351  1
  H  H794  1  0.727659  0.304563  0.900351  1
  H  H795  1  0.227659  0.804563  0.599649  1
  H  H796  1  0.272341  0.695437  0.099649  1
  H  H797  1  0.806295  0.292457  0.420549  1
  H  H798  1  0.693705  0.207543  0.920549  1
  H  H799  1  0.193705  0.707543  0.579451  1
  H  H800  1  0.306295  0.792457  0.079451  1
  H  H801  1  0.810018  0.350077  0.368489  1
  H  H802  1  0.689982  0.149923  0.868489  1
  H  H803  1  0.189982  0.649923  0.631511  1
  H  H804  1  0.310018  0.850077  0.131511  1
  H  H805  1  0.895425  0.321361  0.327619  1
  H  H806  1  0.604575  0.178639  0.827619  1
  H  H807  1  0.104575  0.678639  0.672381  1
  H  H808  1  0.395425  0.821361  0.172381  1
  H  H809  1  0.861419  0.231437  0.306430  1
  H  H810  1  0.638581  0.268563  0.806430  1
  H  H811  1  0.138581  0.768563  0.693570  1
  H  H812  1  0.361419  0.731437  0.193570  1
  H  H813  1  0.854954  0.162599  0.355075  1
  H  H814  1  0.645046  0.337401  0.855075  1
  H  H815  1  0.145046  0.837401  0.644925  1
  H  H816  1  0.354954  0.662599  0.144925  1
  H  H817  1  0.892456  0.218381  0.411895  1
  H  H818  1  0.607544  0.281619  0.911895  1
  H  H819  1  0.107544  0.781619  0.588105  1
  H  H820  1  0.392456  0.718381  0.088105  1
  H  H821  1  0.913759  0.313911  0.392376  1
  H  H822  1  0.586241  0.186089  0.892376  1
  H  H823  1  0.086241  0.686089  0.607624  1
  H  H824  1  0.413759  0.813911  0.107624  1
  H  H825  1  0.730791  0.982005  0.356407  1
  H  H826  1  0.769209  0.517995  0.856407  1
  H  H827  1  0.269209  0.017995  0.643593  1
  H  H828  1  0.230791  0.482005  0.143593  1
  H  H829  1  0.924530  0.898734  0.316209  1
  H  H830  1  0.575470  0.601266  0.816209  1
  H  H831  1  0.075470  0.101266  0.683791  1
  H  H832  1  0.424530  0.398734  0.183791  1
  H  H833  1  0.786534  0.008682  0.298788  1
  H  H834  1  0.713466  0.491318  0.798788  1
  H  H835  1  0.213466  0.991318  0.701212  1
  H  H836  1  0.286534  0.508682  0.201212  1
  H  H837  1  0.729928  0.916103  0.304745  1
  H  H838  1  0.770072  0.583897  0.804745  1
  H  H839  1  0.270072  0.083897  0.695255  1
  H  H840  1  0.229928  0.416103  0.195255  1
  H  H841  1  0.750097  0.881851  0.366832  1
  H  H842  1  0.749903  0.618149  0.866832  1
  H  H843  1  0.249903  0.118149  0.633168  1
  H  H844  1  0.250097  0.381851  0.133168  1
  H  H845  1  0.817716  0.954945  0.399425  1
  H  H846  1  0.682284  0.545055  0.899425  1
  H  H847  1  0.182284  0.045055  0.600575  1
  H  H848  1  0.317716  0.454945  0.100575  1
  H  H849  1  0.840024  0.032963  0.357692  1
  H  H850  1  0.659976  0.467037  0.857692  1
  H  H851  1  0.159976  0.967037  0.642308  1
  H  H852  1  0.340024  0.532963  0.142308  1
  H  H853  1  0.905303  0.997284  0.307439  1
  H  H854  1  0.594697  0.502716  0.807439  1
  H  H855  1  0.094697  0.002716  0.692561  1
  H  H856  1  0.405303  0.497284  0.192561  1
  H  H857  1  0.837490  0.926204  0.274232  1
  H  H858  1  0.662510  0.573796  0.774232  1
  H  H859  1  0.162510  0.073796  0.725768  1
  H  H860  1  0.337490  0.426204  0.225768  1
  H  H861  1  0.814883  0.846939  0.316296  1
  H  H862  1  0.685117  0.653061  0.816296  1
  H  H863  1  0.185117  0.153061  0.683704  1
  H  H864  1  0.314883  0.346939  0.183704  1
  H  H865  1  0.872071  0.870378  0.373725  1
  H  H866  1  0.627929  0.629622  0.873725  1
  H  H867  1  0.127929  0.129622  0.626275  1
  H  H868  1  0.372071  0.370378  0.126275  1
  H  H869  1  0.927074  0.962637  0.368856  1
  H  H870  1  0.572926  0.537363  0.868856  1
  H  H871  1  0.072926  0.037363  0.631144  1
  H  H872  1  0.427074  0.462637  0.131144  1
  H  H873  1  0.099962  0.713532  0.458545  1
  H  H874  1  0.400038  0.786468  0.958545  1
  H  H875  1  0.900038  0.286468  0.541455  1
  H  H876  1  0.599962  0.213532  0.041455  1
  H  H877  1  0.003554  0.724385  0.344708  1
  H  H878  1  0.496446  0.775615  0.844708  1
  H  H879  1  0.996446  0.275615  0.655292  1
  H  H880  1  0.503554  0.224385  0.155292  1
  H  H881  1  0.153607  0.767835  0.410083  1
  H  H882  1  0.346393  0.732165  0.910083  1
  H  H883  1  0.846393  0.232165  0.589917  1
  H  H884  1  0.653607  0.267835  0.089917  1
  H  H885  1  0.049513  0.800303  0.436715  1
  H  H886  1  0.450487  0.699697  0.936715  1
  H  H887  1  0.950487  0.199697  0.563285  1
  H  H888  1  0.549513  0.300303  0.063285  1
  H  H889  1  0.980228  0.717329  0.452004  1
  H  H890  1  0.519772  0.782671  0.952004  1
  H  H891  1  0.019772  0.282671  0.547996  1
  H  H892  1  0.480228  0.217329  0.047996  1
  H  H893  1  0.040056  0.634319  0.433095  1
  H  H894  1  0.459944  0.865681  0.933095  1
  H  H895  1  0.959944  0.365681  0.566905  1
  H  H896  1  0.540056  0.134319  0.066905  1
  H  H897  1  0.148291  0.666468  0.406841  1
  H  H898  1  0.351709  0.833532  0.906841  1
  H  H899  1  0.851709  0.333532  0.593159  1
  H  H900  1  0.648291  0.166468  0.093159  1
  H  H901  1  0.125148  0.721271  0.352480  1
  H  H902  1  0.374852  0.778729  0.852480  1
  H  H903  1  0.874852  0.278729  0.647520  1
  H  H904  1  0.625148  0.221271  0.147520  1
  H  H905  1  0.065244  0.804518  0.370580  1
  H  H906  1  0.434756  0.695482  0.870580  1
  H  H907  1  0.934756  0.195482  0.629420  1
  H  H908  1  0.565244  0.304518  0.129420  1
  H  H909  1  0.956771  0.773798  0.397002  1
  H  H910  1  0.543229  0.726202  0.897002  1
  H  H911  1  0.043229  0.226202  0.602998  1
  H  H912  1  0.456771  0.273798  0.102998  1
  H  H913  1  0.951804  0.669711  0.395168  1
  H  H914  1  0.548196  0.830289  0.895168  1
  H  H915  1  0.048196  0.330289  0.604832  1
  H  H916  1  0.451804  0.169711  0.104832  1
  H  H917  1  0.054453  0.637787  0.366977  1
  H  H918  1  0.445547  0.862213  0.866977  1
  H  H919  1  0.945547  0.362213  0.633023  1
  H  H920  1  0.554453  0.137787  0.133023  1
  H  H921  1  0.137515  0.611657  0.327587  1
  H  H922  1  0.362485  0.888343  0.827587  1
  H  H923  1  0.862485  0.388343  0.672413  1
  H  H924  1  0.637515  0.111657  0.172413  1
  H  H925  1  0.047388  0.612317  0.211991  1
  H  H926  1  0.452612  0.887683  0.711991  1
  H  H927  1  0.952612  0.387683  0.788009  1
  H  H928  1  0.547388  0.112317  0.288009  1
  H  H929  1  0.157861  0.689530  0.286840  1
  H  H930  1  0.342139  0.810470  0.786840  1
  H  H931  1  0.842139  0.310470  0.713160  1
  H  H932  1  0.657861  0.189530  0.213160  1
  H  H933  1  0.044923  0.671612  0.311834  1
  H  H934  1  0.455077  0.828388  0.811834  1
  H  H935  1  0.955077  0.328388  0.688166  1
  H  H936  1  0.544923  0.171612  0.188166  1
  H  H937  1  0.028281  0.569889  0.317946  1
  H  H938  1  0.471719  0.930111  0.817946  1
  H  H939  1  0.971719  0.430111  0.682054  1
  H  H940  1  0.528281  0.069889  0.182054  1
  H  H941  1  0.125962  0.524933  0.293965  1
  H  H942  1  0.374038  0.975067  0.793965  1
  H  H943  1  0.874038  0.475067  0.706035  1
  H  H944  1  0.625962  0.024933  0.206035  1
  H  H945  1  0.204987  0.601615  0.273972  1
  H  H946  1  0.295013  0.898385  0.773972  1
  H  H947  1  0.795013  0.398385  0.726028  1
  H  H948  1  0.704987  0.101615  0.226028  1
  H  H949  1  0.155311  0.650583  0.224324  1
  H  H950  1  0.344689  0.849417  0.724324  1
  H  H951  1  0.844689  0.349417  0.775676  1
  H  H952  1  0.655311  0.150583  0.275676  1
  H  H953  1  0.057432  0.698533  0.248460  1
  H  H954  1  0.442568  0.801467  0.748460  1
  H  H955  1  0.942568  0.301467  0.751540  1
  H  H956  1  0.557432  0.198533  0.251540  1
  H  H957  1  0.976704  0.625203  0.265607  1
  H  H958  1  0.523296  0.874797  0.765607  1
  H  H959  1  0.023296  0.374797  0.734393  1
  H  H960  1  0.476704  0.125203  0.234393  1
  H  H961  1  0.026102  0.534076  0.254631  1
  H  H962  1  0.473898  0.965924  0.754631  1
  H  H963  1  0.973898  0.465924  0.745369  1
  H  H964  1  0.526102  0.034076  0.245369  1
  H  H965  1  0.136099  0.547731  0.229603  1
  H  H966  1  0.363901  0.952269  0.729603  1
  H  H967  1  0.863901  0.452269  0.770397  1
  H  H968  1  0.636099  0.047731  0.270397  1
  H  H969  1  0.213456  0.618584  0.168754  1
  H  H970  1  0.286544  0.881416  0.668754  1
  H  H971  1  0.786544  0.381416  0.831246  1
  H  H972  1  0.713456  0.118584  0.331246  1
  H  H973  1  0.206094  0.586371  0.198367  1
  H  H974  1  0.293906  0.913629  0.698367  1
  H  H975  1  0.793906  0.413629  0.801633  1
  H  H976  1  0.706094  0.086371  0.301633  1
  H  H977  1  0.239019  0.567226  0.169416  1
  H  H978  1  0.260981  0.932774  0.669416  1
  H  H979  1  0.760981  0.432774  0.830584  1
  H  H980  1  0.739019  0.067226  0.330584  1
  H  H981  1  0.149423  0.305359  0.159163  1
  H  H982  1  0.350577  0.194641  0.659163  1
  H  H983  1  0.850577  0.694641  0.840837  1
  H  H984  1  0.649423  0.805359  0.340837  1
  H  H985  1  0.141455  0.321905  0.193636  1
  H  H986  1  0.358545  0.178095  0.693636  1
  H  H987  1  0.858545  0.678095  0.806364  1
  H  H988  1  0.641455  0.821905  0.306364  1
  H  H989  1  0.088064  0.307872  0.173398  1
  H  H990  1  0.411936  0.192128  0.673398  1
  H  H991  1  0.911936  0.692128  0.826602  1
  H  H992  1  0.588064  0.807872  0.326602  1
  H  H993  1  0.159778  0.385709  0.162312  1
  H  H994  1  0.340222  0.114291  0.662312  1
  H  H995  1  0.840222  0.614291  0.837688  1
  H  H996  1  0.659778  0.885709  0.337688  1
  H  H997  1  0.106384  0.371676  0.142073  1
  H  H998  1  0.393616  0.128324  0.642073  1
  H  H999  1  0.893616  0.628324  0.857927  1
  H  H1000  1  0.606384  0.871676  0.357927  1
  H  H1001  1  0.077484  0.444581  0.148534  1
  H  H1002  1  0.422516  0.055419  0.648534  1
  H  H1003  1  0.922516  0.555419  0.851466  1
  H  H1004  1  0.577484  0.944581  0.351466  1
  H  H1005  1  0.124520  0.460329  0.172992  1
  H  H1006  1  0.375480  0.039671  0.672992  1
  H  H1007  1  0.875480  0.539671  0.827008  1
  H  H1008  1  0.624520  0.960329  0.327008  1
  H  H1009  1  0.040828  0.498961  0.182951  1
  H  H1010  1  0.459172  0.001039  0.682951  1
  H  H1011  1  0.959172  0.501039  0.817049  1
  H  H1012  1  0.540828  0.998961  0.317049  1
  H  H1013  1  0.008895  0.449223  0.186301  1
  H  H1014  1  0.491105  0.050777  0.686301  1
  H  H1015  1  0.991105  0.550777  0.813699  1
  H  H1016  1  0.508895  0.949223  0.313699  1
  H  H1017  1  0.055563  0.464847  0.210568  1
  H  H1018  1  0.444437  0.035153  0.710568  1
  H  H1019  1  0.944437  0.535153  0.789432  1
  H  H1020  1  0.555563  0.964847  0.289432  1
  H  H1021  1  0.386597  0.009254  0.054195  1
  H  H1022  1  0.113403  0.490746  0.554195  1
  H  H1023  1  0.613403  0.990746  0.945805  1
  H  H1024  1  0.886597  0.509254  0.445805  1
  H  H1025  1  0.406074  0.128753  0.952968  1
  H  H1026  1  0.093926  0.371247  0.452968  1
  H  H1027  1  0.593926  0.871247  0.047032  1
  H  H1028  1  0.906074  0.628753  0.547032  1
  H  H1029  1  0.436900  0.103922  0.058694  1
  H  H1030  1  0.063100  0.396078  0.558694  1
  H  H1031  1  0.563100  0.896078  0.941306  1
  H  H1032  1  0.936900  0.603922  0.441306  1
  H  H1033  1  0.316301  0.092485  0.047575  1
  H  H1034  1  0.183699  0.407515  0.547575  1
  H  H1035  1  0.683699  0.907515  0.952425  1
  H  H1036  1  0.816301  0.592485  0.452425  1
  H  H1037  1  0.300360  0.010318  0.006859  1
  H  H1038  1  0.199640  0.489682  0.506859  1
  H  H1039  1  0.699640  0.989682  0.993141  1
  H  H1040  1  0.800360  0.510318  0.493141  1
  H  H1041  1  0.410027  0.973190  0.992839  1
  H  H1042  1  0.089973  0.526810  0.492839  1
  H  H1043  1  0.589973  0.026810  0.007161  1
  H  H1044  1  0.910027  0.473190  0.507161  1
  H  H1045  1  0.490571  0.031743  0.024354  1
  H  H1046  1  0.009429  0.468257  0.524354  1
  H  H1047  1  0.509429  0.968257  0.975646  1
  H  H1048  1  0.990571  0.531743  0.475646  1
  H  H1049  1  0.491823  0.126490  0.001059  1
  H  H1050  1  0.008177  0.373510  0.501059  1
  H  H1051  1  0.508177  0.873510  0.998941  1
  H  H1052  1  0.991823  0.626490  0.498941  1
  H  H1053  1  0.381168  0.164624  0.014089  1
  H  H1054  1  0.118832  0.335376  0.514089  1
  H  H1055  1  0.618832  0.835376  0.985911  1
  H  H1056  1  0.881168  0.664624  0.485911  1
  H  H1057  1  0.296321  0.106707  0.981911  1
  H  H1058  1  0.203679  0.393293  0.481911  1
  H  H1059  1  0.703679  0.893293  0.018089  1
  H  H1060  1  0.796321  0.606707  0.518089  1
  H  H1061  1  0.355486  0.033532  0.948161  1
  H  H1062  1  0.144514  0.466468  0.448161  1
  H  H1063  1  0.644514  0.966468  0.051839  1
  H  H1064  1  0.855486  0.533532  0.551839  1
  H  H1065  1  0.476014  0.045760  0.960152  1
  H  H1066  1  0.023986  0.454240  0.460152  1
  H  H1067  1  0.523986  0.954240  0.039848  1
  H  H1068  1  0.976014  0.545760  0.539848  1
  H  H1069  1  0.695055  0.137039  0.769721  1
  H  H1070  1  0.804945  0.362961  0.269721  1
  H  H1071  1  0.304945  0.862961  0.230279  1
  H  H1072  1  0.195055  0.637039  0.730279  1
  H  H1073  1  0.606029  0.201155  0.660745  1
  H  H1074  1  0.893971  0.298845  0.160745  1
  H  H1075  1  0.393971  0.798845  0.339255  1
  H  H1076  1  0.106029  0.701155  0.839255  1
  H  H1077  1  0.621709  0.216137  0.766217  1
  H  H1078  1  0.878291  0.283863  0.266217  1
  H  H1079  1  0.378291  0.783863  0.233783  1
  H  H1080  1  0.121709  0.716137  0.733783  1
  H  H1081  1  0.577398  0.120504  0.754232  1
  H  H1082  1  0.922602  0.379496  0.254232  1
  H  H1083  1  0.422602  0.879496  0.245768  1
  H  H1084  1  0.077398  0.620504  0.745768  1
  H  H1085  1  0.664625  0.072359  0.721247  1
  H  H1086  1  0.835375  0.427641  0.221247  1
  H  H1087  1  0.335375  0.927641  0.278753  1
  H  H1088  1  0.164625  0.572359  0.778753  1
  H  H1089  1  0.759100  0.136219  0.713766  1
  H  H1090  1  0.740900  0.363781  0.213766  1
  H  H1091  1  0.240900  0.863781  0.286234  1
  H  H1092  1  0.259100  0.636219  0.786234  1
  H  H1093  1  0.731780  0.226633  0.743099  1
  H  H1094  1  0.768220  0.273367  0.243099  1
  H  H1095  1  0.268220  0.773367  0.256901  1
  H  H1096  1  0.231780  0.726633  0.756901  1
  H  H1097  1  0.637513  0.265600  0.709571  1
  H  H1098  1  0.862487  0.234400  0.209571  1
  H  H1099  1  0.362487  0.734400  0.290429  1
  H  H1100  1  0.137513  0.765600  0.790429  1
  H  H1101  1  0.541755  0.201805  0.716446  1
  H  H1102  1  0.958245  0.298195  0.216446  1
  H  H1103  1  0.458245  0.798195  0.283554  1
  H  H1104  1  0.041755  0.701805  0.783554  1
  H  H1105  1  0.568730  0.112225  0.687485  1
  H  H1106  1  0.931270  0.387775  0.187485  1
  H  H1107  1  0.431270  0.887775  0.312515  1
  H  H1108  1  0.068730  0.612225  0.812515  1
  H  H1109  1  0.682386  0.121944  0.662997  1
  H  H1110  1  0.817614  0.378056  0.162997  1
  H  H1111  1  0.317614  0.878056  0.337003  1
  H  H1112  1  0.182386  0.621944  0.837003  1
  H  H1113  1  0.724853  0.216627  0.676605  1
  H  H1114  1  0.775147  0.283373  0.176605  1
  H  H1115  1  0.275147  0.783373  0.323395  1
  H  H1116  1  0.224853  0.716627  0.823395  1
  H  H1117  1  0.971753  0.003210  0.249953  1
  H  H1118  1  0.528247  0.496790  0.749953  1
  H  H1119  1  0.028247  0.996790  0.750047  1
  H  H1120  1  0.471753  0.503210  0.250047  1
  H  H1121  1  0.131484  0.117302  0.310386  1
  H  H1122  1  0.368516  0.382698  0.810386  1
  H  H1123  1  0.868516  0.882698  0.689614  1
  H  H1124  1  0.631484  0.617302  0.189614  1
  H  H1125  1  0.002513  0.098114  0.228319  1
  H  H1126  1  0.497487  0.401886  0.728319  1
  H  H1127  1  0.997487  0.901886  0.771681  1
  H  H1128  1  0.502513  0.598114  0.271681  1
  H  H1129  1  0.083675  0.022226  0.224293  1
  H  H1130  1  0.416325  0.477774  0.724293  1
  H  H1131  1  0.916325  0.977774  0.775707  1
  H  H1132  1  0.583675  0.522226  0.275707  1
  H  H1133  1  0.070174  0.963675  0.279430  1
  H  H1134  1  0.429826  0.536325  0.779430  1
  H  H1135  1  0.929826  0.036325  0.720570  1
  H  H1136  1  0.570174  0.463675  0.220570  1
  H  H1137  1  0.981901  0.003639  0.316557  1
  H  H1138  1  0.518099  0.496361  0.816557  1
  H  H1139  1  0.018099  0.996361  0.683443  1
  H  H1140  1  0.481901  0.503639  0.183443  1
  H  H1141  1  0.943686  0.085035  0.284673  1
  H  H1142  1  0.556314  0.414965  0.784673  1
  H  H1143  1  0.056314  0.914965  0.715327  1
  H  H1144  1  0.443686  0.585035  0.215327  1
  H  H1145  1  0.031455  0.156504  0.281187  1
  H  H1146  1  0.468545  0.343496  0.781187  1
  H  H1147  1  0.968545  0.843496  0.718813  1
  H  H1148  1  0.531455  0.656504  0.218813  1
  H  H1149  1  0.121167  0.116538  0.243696  1
  H  H1150  1  0.378833  0.383462  0.743696  1
  H  H1151  1  0.878833  0.883462  0.756304  1
  H  H1152  1  0.621167  0.616538  0.256304  1
  H  H1153  1  0.163029  0.033473  0.275410  1
  H  H1154  1  0.336971  0.466527  0.775410  1
  H  H1155  1  0.836971  0.966527  0.724590  1
  H  H1156  1  0.663029  0.533473  0.224590  1
  H  H1157  1  0.099304  0.022549  0.332488  1
  H  H1158  1  0.400696  0.477451  0.832488  1
  H  H1159  1  0.900696  0.977451  0.667512  1
  H  H1160  1  0.599304  0.522549  0.167512  1
  H  H1161  1  0.018016  0.098995  0.335775  1
  H  H1162  1  0.481984  0.401005  0.835775  1
  H  H1163  1  0.981984  0.901005  0.664225  1
  H  H1164  1  0.518016  0.598995  0.164225  1
  H  H1165  1  0.894478  0.364081  0.436947  1
  H  H1166  1  0.605522  0.135919  0.936947  1
  H  H1167  1  0.105522  0.635919  0.563053  1
  H  H1168  1  0.394478  0.864081  0.063053  1
  H  H1169  1  0.870362  0.415512  0.441402  1
  H  H1170  1  0.629638  0.084488  0.941402  1
  H  H1171  1  0.129638  0.584488  0.558598  1
  H  H1172  1  0.370362  0.915512  0.058598  1
  H  H1173  1  0.926724  0.401342  0.458260  1
  H  H1174  1  0.573276  0.098658  0.958260  1
  H  H1175  1  0.073276  0.598658  0.541740  1
  H  H1176  1  0.426724  0.901342  0.041740  1
  H  H1177  1  0.766785  0.408463  0.548509  1
  H  H1178  1  0.733215  0.091537  0.048509  1
  H  H1179  1  0.233215  0.591537  0.451491  1
  H  H1180  1  0.266785  0.908463  0.951491  1
  H  H1181  1  0.756418  0.432954  0.516317  1
  H  H1182  1  0.743582  0.067046  0.016317  1
  H  H1183  1  0.243582  0.567046  0.483683  1
  H  H1184  1  0.256418  0.932954  0.983683  1
  H  H1185  1  0.809810  0.447979  0.536276  1
  H  H1186  1  0.690190  0.052021  0.036276  1
  H  H1187  1  0.190190  0.552021  0.463724  1
  H  H1188  1  0.309810  0.947979  0.963724  1
  H  H1189  1  0.062841  0.522560  0.424733  1
  H  H1190  1  0.437159  0.977440  0.924733  1
  H  H1191  1  0.937159  0.477440  0.575267  1
  H  H1192  1  0.562841  0.022560  0.075267  1
  H  H1193  1  0.045040  0.503746  0.391752  1
  H  H1194  1  0.454960  0.996254  0.891752  1
  H  H1195  1  0.954960  0.496254  0.608248  1
  H  H1196  1  0.545040  0.003746  0.108248  1
  H  H1197  1  0.041989  0.558521  0.399445  1
  H  H1198  1  0.458011  0.941479  0.899445  1
  H  H1199  1  0.958011  0.441479  0.600555  1
  H  H1200  1  0.541989  0.058521  0.100555  1
  H  H1201  1  0.838371  0.179599  0.636538  1
  H  H1202  1  0.661629  0.320401  0.136538  1
  H  H1203  1  0.161629  0.820401  0.363462  1
  H  H1204  1  0.338371  0.679599  0.863462  1
  H  H1205  1  0.810396  0.130824  0.647378  1
  H  H1206  1  0.689604  0.369176  0.147378  1
  H  H1207  1  0.189604  0.869176  0.352622  1
  H  H1208  1  0.310396  0.630824  0.852622  1
  H  H1209  1  0.793853  0.178729  0.663687  1
  H  H1210  1  0.706147  0.321271  0.163687  1
  H  H1211  1  0.206147  0.821271  0.336313  1
  H  H1212  1  0.293853  0.678729  0.836313  1
  H  H1213  1  0.492220  0.482424  0.460258  1
  H  H1214  1  0.007780  0.017576  0.960258  1
  H  H1215  1  0.507780  0.517576  0.539742  1
  H  H1216  1  0.992220  0.982424  0.039742  1
  H  H1217  1  0.453967  0.469669  0.431435  1
  H  H1218  1  0.046033  0.030331  0.931435  1
  H  H1219  1  0.546033  0.530331  0.568565  1
  H  H1220  1  0.953967  0.969669  0.068565  1
  H  H1221  1  0.435158  0.509280  0.454841  1
  H  H1222  1  0.064842  0.990720  0.954841  1
  H  H1223  1  0.564842  0.490720  0.545159  1
  H  H1224  1  0.935158  0.009280  0.045159  1
  H  H1225  1  0.036043  0.919371  0.365160  1
  H  H1226  1  0.463957  0.580629  0.865160  1
  H  H1227  1  0.963957  0.080629  0.634840  1
  H  H1228  1  0.536043  0.419371  0.134840  1
  H  H1229  1  0.017524  0.945562  0.334725  1
  H  H1230  1  0.482476  0.554438  0.834725  1
  H  H1231  1  0.982476  0.054438  0.665275  1
  H  H1232  1  0.517524  0.445562  0.165275  1
  H  H1233  1  0.054950  0.972921  0.359479  1
  H  H1234  1  0.445050  0.527079  0.859479  1
  H  H1235  1  0.945050  0.027079  0.640521  1
  H  H1236  1  0.554950  0.472921  0.140521  1
  H  H1237  1  0.359339  0.965634  0.190186  1
  H  H1238  1  0.140661  0.534366  0.690186  1
  H  H1239  1  0.640661  0.034366  0.809814  1
  H  H1240  1  0.859339  0.465634  0.309814  1
  H  H1241  1  0.325846  0.943404  0.161949  1
  H  H1242  1  0.174154  0.556596  0.661949  1
  H  H1243  1  0.674154  0.056596  0.838051  1
  H  H1244  1  0.825846  0.443404  0.338051  1
  H  H1245  1  0.334633  0.913013  0.192100  1
  H  H1246  1  0.165367  0.586987  0.692100  1
  H  H1247  1  0.665367  0.086987  0.807900  1
  H  H1248  1  0.834633  0.413013  0.307900  1
  H  H1249  1  0.126670  0.237279  0.095594  1
  H  H1250  1  0.373330  0.262721  0.595594  1
  H  H1251  1  0.873330  0.762721  0.904406  1
  H  H1252  1  0.626670  0.737279  0.404406  1
  H  H1253  1  0.123013  0.221516  0.067035  1
  H  H1254  1  0.376987  0.278484  0.567035  1
  H  H1255  1  0.876987  0.778484  0.932965  1
  H  H1256  1  0.623013  0.721516  0.432965  1
  H  H1257  1  0.505100  0.314700  0.295200  1
  H  H1258  1  0.994900  0.185300  0.795200  1
  H  H1259  1  0.494900  0.685300  0.704800  1
  H  H1260  1  0.005100  0.814700  0.204800  1
  H  H1261  1  0.679522  0.164207  0.526289  1
  H  H1262  1  0.820478  0.335793  0.026289  1
  H  H1263  1  0.320478  0.835793  0.473711  1
  H  H1264  1  0.179522  0.664207  0.973711  1
  H  H1265  1  0.737430  0.217513  0.552310  1
  H  H1266  1  0.762570  0.282487  0.052310  1
  H  H1267  1  0.262570  0.782487  0.447690  1
  H  H1268  1  0.237430  0.717513  0.947690  1
  H  H1269  1  0.774829  0.282976  0.527303  1
  H  H1270  1  0.725171  0.217024  0.027303  1
  H  H1271  1  0.225171  0.717024  0.472697  1
  H  H1272  1  0.274829  0.782976  0.972697  1
  H  H1273  1  0.749827  0.296138  0.476268  1
  H  H1274  1  0.750173  0.203862  0.976268  1
  H  H1275  1  0.250173  0.703862  0.523732  1
  H  H1276  1  0.249827  0.796138  0.023732  1
  H  H1277  1  0.691831  0.267346  0.429225  1
  H  H1278  1  0.808169  0.232654  0.929225  1
  H  H1279  1  0.308169  0.732654  0.570775  1
  H  H1280  1  0.191831  0.767346  0.070775  1
  H  H1281  1  0.577114  0.272578  0.412950  1
  H  H1282  1  0.922886  0.227422  0.912950  1
  H  H1283  1  0.422886  0.727422  0.587050  1
  H  H1284  1  0.077114  0.772578  0.087050  1
  H  H1285  1  0.541387  0.284845  0.364701  1
  H  H1286  1  0.958613  0.215155  0.864701  1
  H  H1287  1  0.458613  0.715155  0.635299  1
  H  H1288  1  0.041387  0.784845  0.135299  1
  H  H1289  1  0.626477  0.173768  0.333475  1
  H  H1290  1  0.873523  0.326232  0.833475  1
  H  H1291  1  0.373523  0.826232  0.666525  1
  H  H1292  1  0.126477  0.673768  0.166525  1
  H  H1293  1  0.663012  0.161815  0.381911  1
  H  H1294  1  0.836988  0.338185  0.881911  1
  H  H1295  1  0.336988  0.838185  0.618089  1
  H  H1296  1  0.163012  0.661815  0.118089  1
  H  H1297  1  0.562836  0.211597  0.299786  1
  H  H1298  1  0.937164  0.288403  0.799786  1
  H  H1299  1  0.437164  0.788403  0.700214  1
  H  H1300  1  0.062836  0.711597  0.200214  1
  H  H1301  1  0.517964  0.246495  0.313644  1
  H  H1302  1  0.982036  0.253505  0.813644  1
  H  H1303  1  0.482036  0.753505  0.686356  1
  H  H1304  1  0.017964  0.746495  0.186356  1
  H  H1305  1  0.557337  0.406295  0.337715  1
  H  H1306  1  0.942663  0.093705  0.837715  1
  H  H1307  1  0.442663  0.593705  0.662285  1
  H  H1308  1  0.057337  0.906295  0.162285  1
  H  H1309  1  0.508139  0.369056  0.330245  1
  H  H1310  1  0.991861  0.130944  0.830245  1
  H  H1311  1  0.491861  0.630944  0.669755  1
  H  H1312  1  0.008139  0.869056  0.169755  1
  H  H1313  1  0.426988  0.394650  0.299178  1
  H  H1314  1  0.073012  0.105350  0.799178  1
  H  H1315  1  0.573012  0.605350  0.700822  1
  H  H1316  1  0.926988  0.894650  0.200822  1
  H  H1317  1  0.369328  0.455730  0.285282  1
  H  H1318  1  0.130672  0.044270  0.785282  1
  H  H1319  1  0.630672  0.544270  0.714718  1
  H  H1320  1  0.869328  0.955730  0.214718  1
  H  H1321  1  0.491662  0.549273  0.310260  1
  H  H1322  1  0.008338  0.950727  0.810260  1
  H  H1323  1  0.508338  0.450727  0.689740  1
  H  H1324  1  0.991662  0.049273  0.189740  1
  H  H1325  1  0.547575  0.488075  0.325091  1
  H  H1326  1  0.952425  0.011925  0.825091  1
  H  H1327  1  0.452425  0.511925  0.674909  1
  H  H1328  1  0.047575  0.988075  0.174909  1
  H  H1329  1  0.397350  0.530452  0.244134  1
  H  H1330  1  0.102650  0.969548  0.744134  1
  H  H1331  1  0.602650  0.469548  0.755866  1
  H  H1332  1  0.897350  0.030452  0.255866  1
  H  H1333  1  0.351191  0.582547  0.203263  1
  H  H1334  1  0.148809  0.917453  0.703263  1
  H  H1335  1  0.648809  0.417453  0.796737  1
  H  H1336  1  0.851191  0.082547  0.296737  1
  H  H1337  1  0.291925  0.645275  0.193639  1
  H  H1338  1  0.208075  0.854725  0.693639  1
  H  H1339  1  0.708075  0.354725  0.806361  1
  H  H1340  1  0.791925  0.145275  0.306361  1
  H  H1341  1  0.261815  0.691600  0.233816  1
  H  H1342  1  0.238185  0.808400  0.733816  1
  H  H1343  1  0.738185  0.308400  0.766184  1
  H  H1344  1  0.761815  0.191600  0.266184  1
  H  H1345  1  0.286629  0.672388  0.284034  1
  H  H1346  1  0.213371  0.827612  0.784034  1
  H  H1347  1  0.713371  0.327612  0.715966  1
  H  H1348  1  0.786629  0.172388  0.215966  1
  H  H1349  1  0.462864  0.355320  0.232334  1
  H  H1350  1  0.037136  0.144680  0.732334  1
  H  H1351  1  0.537136  0.644680  0.767666  1
  H  H1352  1  0.962864  0.855320  0.267666  1
  H  H1353  1  0.447978  0.329077  0.263600  1
  H  H1354  1  0.052022  0.170923  0.763600  1
  H  H1355  1  0.552022  0.670923  0.736400  1
  H  H1356  1  0.947978  0.829077  0.236400  1
  H  H1357  1  0.439673  0.237423  0.259136  1
  H  H1358  1  0.060327  0.262577  0.759136  1
  H  H1359  1  0.560327  0.762577  0.740864  1
  H  H1360  1  0.939673  0.737423  0.240864  1
  H  H1361  1  0.396409  0.176574  0.232015  1
  H  H1362  1  0.103591  0.323426  0.732015  1
  H  H1363  1  0.603591  0.823426  0.767985  1
  H  H1364  1  0.896409  0.676574  0.267985  1
  H  H1365  1  0.383380  0.261738  0.159387  1
  H  H1366  1  0.116620  0.238262  0.659387  1
  H  H1367  1  0.616620  0.738262  0.840613  1
  H  H1368  1  0.883380  0.761738  0.340613  1
  H  H1369  1  0.424855  0.323056  0.187247  1
  H  H1370  1  0.075145  0.176944  0.687247  1
  H  H1371  1  0.575145  0.676944  0.812753  1
  H  H1372  1  0.924855  0.823056  0.312753  1
  H  H1373  1  0.443037  0.151603  0.171632  1
  H  H1374  1  0.056963  0.348397  0.671632  1
  H  H1375  1  0.556963  0.848397  0.828368  1
  H  H1376  1  0.943037  0.651603  0.328368  1
  H  H1377  1  0.462038  0.075365  0.142145  1
  H  H1378  1  0.037962  0.424635  0.642145  1
  H  H1379  1  0.537962  0.924635  0.857855  1
  H  H1380  1  0.962038  0.575365  0.357855  1
  H  H1381  1  0.425662  0.011517  0.113613  1
  H  H1382  1  0.074338  0.488483  0.613613  1
  H  H1383  1  0.574338  0.988483  0.886387  1
  H  H1384  1  0.925662  0.511517  0.386387  1
  H  H1385  1  0.329784  0.007558  0.104127  1
  H  H1386  1  0.170216  0.492442  0.604127  1
  H  H1387  1  0.670216  0.992442  0.895873  1
  H  H1388  1  0.829784  0.507558  0.395873  1
  H  H1389  1  0.272315  0.064773  0.122895  1
  H  H1390  1  0.227685  0.435227  0.622895  1
  H  H1391  1  0.727685  0.935227  0.877105  1
  H  H1392  1  0.772315  0.564773  0.377105  1
  H  H1393  1  0.651563  0.246295  0.277277  1
  H  H1394  1  0.848437  0.253705  0.777277  1
  H  H1395  1  0.348437  0.753705  0.722723  1
  H  H1396  1  0.151563  0.746295  0.222723  1
  H  H1397  1  0.667446  0.263682  0.311089  1
  H  H1398  1  0.832554  0.236318  0.811089  1
  H  H1399  1  0.332554  0.736318  0.688911  1
  H  H1400  1  0.167446  0.763682  0.188911  1
  H  H1401  1  0.680188  0.339728  0.296088  1
  H  H1402  1  0.819812  0.160272  0.796088  1
  H  H1403  1  0.319812  0.660272  0.703912  1
  H  H1404  1  0.180188  0.839728  0.203912  1
  H  H1405  1  0.704132  0.312221  0.267114  1
  H  H1406  1  0.795868  0.187779  0.767114  1
  H  H1407  1  0.295868  0.687779  0.732886  1
  H  H1408  1  0.204132  0.812221  0.232886  1
  H  H1409  1  0.607314  0.398966  0.239292  1
  H  H1410  1  0.892686  0.101034  0.739292  1
  H  H1411  1  0.392686  0.601034  0.760708  1
  H  H1412  1  0.107314  0.898966  0.260708  1
  H  H1413  1  0.669683  0.398043  0.252912  1
  H  H1414  1  0.830317  0.101957  0.752912  1
  H  H1415  1  0.330317  0.601957  0.747088  1
  H  H1416  1  0.169683  0.898043  0.247088  1
  H  H1417  1  0.639491  0.408617  0.301656  1
  H  H1418  1  0.860509  0.091383  0.801656  1
  H  H1419  1  0.360509  0.591383  0.698344  1
  H  H1420  1  0.139491  0.908617  0.198344  1
  H  H1421  1  0.597204  0.441028  0.283140  1
  H  H1422  1  0.902796  0.058972  0.783140  1
  H  H1423  1  0.402796  0.558972  0.716860  1
  H  H1424  1  0.097204  0.941028  0.216860  1
  H  H1425  1  0.626507  0.278002  0.232941  1
  H  H1426  1  0.873493  0.221998  0.732941  1
  H  H1427  1  0.373493  0.721998  0.767059  1
  H  H1428  1  0.126507  0.778002  0.267059  1
  H  H1429  1  0.645563  0.325307  0.215372  1
  H  H1430  1  0.854437  0.174693  0.715372  1
  H  H1431  1  0.354437  0.674693  0.784628  1
  H  H1432  1  0.145563  0.825307  0.284628  1
  H  H1433  1  0.555667  0.350056  0.210976  1
  H  H1434  1  0.944333  0.149944  0.710976  1
  H  H1435  1  0.444333  0.649944  0.789024  1
  H  H1436  1  0.055667  0.850056  0.289024  1
  H  H1437  1  0.547498  0.294397  0.205934  1
  H  H1438  1  0.952502  0.205603  0.705934  1
  H  H1439  1  0.452502  0.705603  0.794066  1
  H  H1440  1  0.047498  0.794397  0.294066  1
  H  H1441  1  0.355400  0.355700  0.444300  1
  H  H1442  1  0.144600  0.144300  0.944300  1
  H  H1443  1  0.644600  0.644300  0.555700  1
  H  H1444  1  0.855400  0.855700  0.055700  1
  H  H1445  1  0.678414  0.066680  0.489450  1
  H  H1446  1  0.821586  0.433320  0.989450  1
  H  H1447  1  0.321586  0.933320  0.510550  1
  H  H1448  1  0.178414  0.566680  0.010550  1
  H  H1449  1  0.647521  0.013567  0.525909  1
  H  H1450  1  0.852479  0.486433  0.025909  1
  H  H1451  1  0.352479  0.986433  0.474091  1
  H  H1452  1  0.147521  0.513567  0.974091  1
  H  H1453  1  0.566154  0.026588  0.553003  1
  H  H1454  1  0.933846  0.473412  0.053003  1
  H  H1455  1  0.433846  0.973412  0.446997  1
  H  H1456  1  0.066154  0.526588  0.946997  1
  H  H1457  1  0.515583  0.094614  0.542650  1
  H  H1458  1  0.984417  0.405386  0.042650  1
  H  H1459  1  0.484417  0.905386  0.457350  1
  H  H1460  1  0.015583  0.594614  0.957350  1
  H  H1461  1  0.507383  0.170719  0.510076  1
  H  H1462  1  0.992617  0.329281  0.010076  1
  H  H1463  1  0.492617  0.829281  0.489924  1
  H  H1464  1  0.007383  0.670719  0.989924  1
  H  H1465  1  0.600671  0.270684  0.486858  1
  H  H1466  1  0.899329  0.229316  0.986858  1
  H  H1467  1  0.399329  0.729316  0.513142  1
  H  H1468  1  0.100671  0.770684  0.013142  1
  H  H1469  1  0.559489  0.341237  0.474467  1
  H  H1470  1  0.940511  0.158763  0.974467  1
  H  H1471  1  0.440511  0.658763  0.525533  1
  H  H1472  1  0.059489  0.841237  0.025533  1
  H  H1473  1  0.426343  0.270442  0.440292  1
  H  H1474  1  0.073657  0.229558  0.940292  1
  H  H1475  1  0.573657  0.729558  0.559708  1
  H  H1476  1  0.926343  0.770442  0.059708  1
  H  H1477  1  0.466938  0.199261  0.451934  1
  H  H1478  1  0.033062  0.300739  0.951934  1
  H  H1479  1  0.533062  0.800739  0.548066  1
  H  H1480  1  0.966938  0.699261  0.048066  1
  H  H1481  1  0.489890  0.384124  0.447510  1
  H  H1482  1  0.010110  0.115876  0.947510  1
  H  H1483  1  0.510110  0.615876  0.552490  1
  H  H1484  1  0.989890  0.884124  0.052490  1
  H  H1485  1  0.438495  0.356708  0.431594  1
  H  H1486  1  0.061505  0.143292  0.931594  1
  H  H1487  1  0.561505  0.643292  0.568406  1
  H  H1488  1  0.938495  0.856708  0.068406  1
  H  H1489  1  0.329996  0.267644  0.489182  1
  H  H1490  1  0.170004  0.232356  0.989182  1
  H  H1491  1  0.670004  0.732356  0.510818  1
  H  H1492  1  0.829996  0.767644  0.010818  1
  H  H1493  1  0.326047  0.288049  0.455348  1
  H  H1494  1  0.173953  0.211951  0.955348  1
  H  H1495  1  0.673953  0.711951  0.544652  1
  H  H1496  1  0.826047  0.788049  0.044652  1
  H  H1497  1  0.225868  0.312820  0.438917  1
  H  H1498  1  0.274132  0.187180  0.938917  1
  H  H1499  1  0.774132  0.687180  0.561083  1
  H  H1500  1  0.725868  0.812820  0.061083  1
  H  H1501  1  0.132733  0.288194  0.437495  1
  H  H1502  1  0.367267  0.211806  0.937495  1
  H  H1503  1  0.867267  0.711806  0.562505  1
  H  H1504  1  0.632733  0.788194  0.062505  1
  H  H1505  1  0.161374  0.196313  0.505691  1
  H  H1506  1  0.338626  0.303687  0.005691  1
  H  H1507  1  0.838626  0.803687  0.494309  1
  H  H1508  1  0.661374  0.696313  0.994309  1
  H  H1509  1  0.254161  0.221926  0.507042  1
  H  H1510  1  0.245839  0.278074  0.007042  1
  H  H1511  1  0.745839  0.778074  0.492958  1
  H  H1512  1  0.754161  0.721926  0.992958  1
  H  H1513  1  0.057867  0.289505  0.484218  1
  H  H1514  1  0.442133  0.210495  0.984218  1
  H  H1515  1  0.942133  0.710495  0.515782  1
  H  H1516  1  0.557867  0.789505  0.015782  1
  H  H1517  1  0.952075  0.308431  0.489349  1
  H  H1518  1  0.547925  0.191569  0.989349  1
  H  H1519  1  0.047925  0.691569  0.510651  1
  H  H1520  1  0.452075  0.808431  0.010651  1
  H  H1521  1  0.858991  0.279700  0.487306  1
  H  H1522  1  0.641009  0.220300  0.987306  1
  H  H1523  1  0.141009  0.720300  0.512694  1
  H  H1524  1  0.358991  0.779700  0.012694  1
  H  H1525  1  0.842202  0.200343  0.478148  1
  H  H1526  1  0.657798  0.299657  0.978148  1
  H  H1527  1  0.157798  0.799657  0.521852  1
  H  H1528  1  0.342202  0.700343  0.021852  1
  H  H1529  1  0.915936  0.151103  0.468679  1
  H  H1530  1  0.584064  0.348897  0.968679  1
  H  H1531  1  0.084064  0.848897  0.531321  1
  H  H1532  1  0.415936  0.651103  0.031321  1
  H  H1533  1  0.257240  0.434474  0.435844  1
  H  H1534  1  0.242760  0.065526  0.935844  1
  H  H1535  1  0.742760  0.565526  0.564156  1
  H  H1536  1  0.757240  0.934474  0.064156  1
  H  H1537  1  0.297261  0.396651  0.420863  1
  H  H1538  1  0.202739  0.103349  0.920863  1
  H  H1539  1  0.702739  0.603349  0.579137  1
  H  H1540  1  0.797261  0.896651  0.079137  1
  H  H1541  1  0.380316  0.425973  0.391039  1
  H  H1542  1  0.119684  0.074027  0.891039  1
  H  H1543  1  0.619684  0.574027  0.608961  1
  H  H1544  1  0.880316  0.925973  0.108961  1
  H  H1545  1  0.417183  0.483498  0.359334  1
  H  H1546  1  0.082817  0.016502  0.859334  1
  H  H1547  1  0.582817  0.516502  0.640666  1
  H  H1548  1  0.917183  0.983498  0.140666  1
  H  H1549  1  0.303758  0.574333  0.389551  1
  H  H1550  1  0.196242  0.925667  0.889551  1
  H  H1551  1  0.696242  0.425667  0.610449  1
  H  H1552  1  0.803758  0.074333  0.110449  1
  H  H1553  1  0.264788  0.515943  0.420200  1
  H  H1554  1  0.235212  0.984057  0.920200  1
  H  H1555  1  0.735212  0.484057  0.579800  1
  H  H1556  1  0.764788  0.015943  0.079800  1
  H  H1557  1  0.450679  0.584957  0.379254  1
  H  H1558  1  0.049321  0.915043  0.879254  1
  H  H1559  1  0.549321  0.415043  0.620746  1
  H  H1560  1  0.950679  0.084957  0.120746  1
  H  H1561  1  0.522076  0.651747  0.365267  1
  H  H1562  1  0.977924  0.848253  0.865267  1
  H  H1563  1  0.477924  0.348253  0.634733  1
  H  H1564  1  0.022076  0.151747  0.134733  1
  H  H1565  1  0.554493  0.705390  0.328359  1
  H  H1566  1  0.945507  0.794610  0.828359  1
  H  H1567  1  0.445507  0.294610  0.671641  1
  H  H1568  1  0.054493  0.205390  0.171641  1
  H  H1569  1  0.505623  0.711761  0.282904  1
  H  H1570  1  0.994377  0.788239  0.782904  1
  H  H1571  1  0.494377  0.288239  0.717096  1
  H  H1572  1  0.005623  0.211761  0.217096  1
  H  H1573  1  0.426364  0.665423  0.274353  1
  H  H1574  1  0.073636  0.834577  0.774353  1
  H  H1575  1  0.573636  0.334577  0.725647  1
  H  H1576  1  0.926364  0.165423  0.225647  1
  H  H1577  1  0.471221  0.416976  0.501180  1
  H  H1578  1  0.028779  0.083024  0.001180  1
  H  H1579  1  0.528779  0.583024  0.498820  1
  H  H1580  1  0.971221  0.916976  0.998820  1
  H  H1581  1  0.479604  0.362707  0.509651  1
  H  H1582  1  0.020396  0.137293  0.009651  1
  H  H1583  1  0.520396  0.637293  0.490349  1
  H  H1584  1  0.979604  0.862707  0.990349  1
  H  H1585  1  0.398143  0.358097  0.537181  1
  H  H1586  1  0.101857  0.141903  0.037181  1
  H  H1587  1  0.601857  0.641903  0.462819  1
  H  H1588  1  0.898143  0.858097  0.962819  1
  H  H1589  1  0.418284  0.411224  0.544555  1
  H  H1590  1  0.081716  0.088776  0.044555  1
  H  H1591  1  0.581716  0.588776  0.455445  1
  H  H1592  1  0.918284  0.911224  0.955445  1
  H  H1593  1  0.273363  0.413933  0.519348  1
  H  H1594  1  0.226637  0.086067  0.019348  1
  H  H1595  1  0.726637  0.586067  0.480652  1
  H  H1596  1  0.773363  0.913933  0.980652  1
  H  H1597  1  0.306891  0.398516  0.549303  1
  H  H1598  1  0.193109  0.101484  0.049303  1
  H  H1599  1  0.693109  0.601484  0.450697  1
  H  H1600  1  0.806891  0.898516  0.950697  1
  H  H1601  1  0.312871  0.322268  0.533292  1
  H  H1602  1  0.187129  0.177732  0.033292  1
  H  H1603  1  0.687129  0.677732  0.466708  1
  H  H1604  1  0.812871  0.822268  0.966708  1
  H  H1605  1  0.252079  0.335095  0.520613  1
  H  H1606  1  0.247921  0.164905  0.020613  1
  H  H1607  1  0.747921  0.664905  0.479387  1
  H  H1608  1  0.752079  0.835095  0.979387  1
  H  H1609  1  0.401557  0.468090  0.501110  1
  H  H1610  1  0.098443  0.031910  0.001110  1
  H  H1611  1  0.598443  0.531910  0.498890  1
  H  H1612  1  0.901557  0.968090  0.998890  1
  H  H1613  1  0.350229  0.477160  0.523853  1
  H  H1614  1  0.149771  0.022840  0.023853  1
  H  H1615  1  0.649771  0.522840  0.476147  1
  H  H1616  1  0.850229  0.977160  0.976147  1
  H  H1617  1  0.285477  0.470526  0.485747  1
  H  H1618  1  0.214523  0.029474  0.985747  1
  H  H1619  1  0.714523  0.529474  0.514253  1
  H  H1620  1  0.785477  0.970526  0.014253  1
  H  H1621  1  0.336431  0.496458  0.468176  1
  H  H1622  1  0.163569  0.003542  0.968176  1
  H  H1623  1  0.663569  0.503542  0.531824  1
  H  H1624  1  0.836431  0.996458  0.031824  1
  H  H1625  1  0.334000  0.114800  0.349400  1
  H  H1626  1  0.166000  0.385200  0.849400  1
  H  H1627  1  0.666000  0.885200  0.650600  1
  H  H1628  1  0.834000  0.614800  0.150600  1
  H  H1629  1  0.760883  0.153122  0.462386  1
  H  H1630  1  0.739117  0.346878  0.962386  1
  H  H1631  1  0.239117  0.846878  0.537614  1
  H  H1632  1  0.260883  0.653122  0.037614  1
  H  H1633  1  0.826909  0.106788  0.439729  1
  H  H1634  1  0.673091  0.393212  0.939729  1
  H  H1635  1  0.173091  0.893212  0.560271  1
  H  H1636  1  0.326909  0.606788  0.060271  1
  H  H1637  1  0.799547  0.045681  0.407976  1
  H  H1638  1  0.700453  0.454319  0.907976  1
  H  H1639  1  0.200453  0.954319  0.592024  1
  H  H1640  1  0.299547  0.545681  0.092024  1
  H  H1641  1  0.703575  0.032567  0.398226  1
  H  H1642  1  0.796425  0.467433  0.898226  1
  H  H1643  1  0.296425  0.967433  0.601774  1
  H  H1644  1  0.203575  0.532567  0.101774  1
  H  H1645  1  0.602017  0.061133  0.406332  1
  H  H1646  1  0.897983  0.438867  0.906332  1
  H  H1647  1  0.397983  0.938867  0.593668  1
  H  H1648  1  0.102017  0.561133  0.093668  1
  H  H1649  1  0.507387  0.075599  0.463906  1
  H  H1650  1  0.992613  0.424401  0.963906  1
  H  H1651  1  0.492613  0.924401  0.536094  1
  H  H1652  1  0.007387  0.575599  0.036094  1
  H  H1653  1  0.412318  0.072709  0.454172  1
  H  H1654  1  0.087682  0.427291  0.954172  1
  H  H1655  1  0.587682  0.927291  0.545828  1
  H  H1656  1  0.912318  0.572709  0.045828  1
  H  H1657  1  0.436700  0.145471  0.377104  1
  H  H1658  1  0.063300  0.354529  0.877104  1
  H  H1659  1  0.563300  0.854529  0.622896  1
  H  H1660  1  0.936700  0.645471  0.122896  1
  H  H1661  1  0.532681  0.151679  0.387311  1
  H  H1662  1  0.967319  0.348321  0.887311  1
  H  H1663  1  0.467319  0.848321  0.612689  1
  H  H1664  1  0.032681  0.651679  0.112689  1
  H  H1665  1  0.332591  0.101455  0.426801  1
  H  H1666  1  0.167409  0.398545  0.926801  1
  H  H1667  1  0.667409  0.898545  0.573199  1
  H  H1668  1  0.832591  0.601455  0.073199  1
  H  H1669  1  0.342383  0.133100  0.397175  1
  H  H1670  1  0.157617  0.366900  0.897175  1
  H  H1671  1  0.657617  0.866900  0.602825  1
  H  H1672  1  0.842383  0.633100  0.102825  1
  H  H1673  1  0.438127  0.095666  0.302021  1
  H  H1674  1  0.061873  0.404334  0.802021  1
  H  H1675  1  0.561873  0.904334  0.697979  1
  H  H1676  1  0.938127  0.595666  0.197979  1
  H  H1677  1  0.396233  0.130303  0.318539  1
  H  H1678  1  0.103767  0.369697  0.818539  1
  H  H1679  1  0.603767  0.869697  0.681461  1
  H  H1680  1  0.896233  0.630303  0.181461  1
  H  H1681  1  0.411171  0.060311  0.252222  1
  H  H1682  1  0.088829  0.439689  0.752222  1
  H  H1683  1  0.588829  0.939689  0.747778  1
  H  H1684  1  0.911171  0.560311  0.247778  1
  H  H1685  1  0.358461  0.066848  0.207802  1
  H  H1686  1  0.141539  0.433152  0.707802  1
  H  H1687  1  0.641539  0.933152  0.792198  1
  H  H1688  1  0.858461  0.566848  0.292198  1
  H  H1689  1  0.257065  0.157367  0.249954  1
  H  H1690  1  0.242935  0.342633  0.749954  1
  H  H1691  1  0.742935  0.842633  0.750046  1
  H  H1692  1  0.757065  0.657367  0.250046  1
  H  H1693  1  0.310838  0.151947  0.293781  1
  H  H1694  1  0.189162  0.348053  0.793781  1
  H  H1695  1  0.689162  0.848053  0.706219  1
  H  H1696  1  0.810838  0.651947  0.206219  1
  H  H1697  1  0.214817  0.072227  0.210518  1
  H  H1698  1  0.285183  0.427773  0.710518  1
  H  H1699  1  0.785183  0.927773  0.789482  1
  H  H1700  1  0.714817  0.572227  0.289482  1
  H  H1701  1  0.130314  0.051036  0.175697  1
  H  H1702  1  0.369686  0.448964  0.675697  1
  H  H1703  1  0.869686  0.948964  0.824303  1
  H  H1704  1  0.630314  0.551036  0.324303  1
  H  H1705  1  0.082877  0.065558  0.130797  1
  H  H1706  1  0.417123  0.434442  0.630797  1
  H  H1707  1  0.917123  0.934442  0.869203  1
  H  H1708  1  0.582877  0.565558  0.369203  1
  H  H1709  1  0.118122  0.123464  0.097620  1
  H  H1710  1  0.381878  0.376536  0.597620  1
  H  H1711  1  0.881878  0.876536  0.902380  1
  H  H1712  1  0.618122  0.623464  0.402380  1
  H  H1713  1  0.202614  0.162682  0.109082  1
  H  H1714  1  0.297386  0.337318  0.609082  1
  H  H1715  1  0.797386  0.837318  0.890918  1
  H  H1716  1  0.702614  0.662682  0.390918  1
  H  H1717  1  0.198602  0.108540  0.321929  1
  H  H1718  1  0.301398  0.391460  0.821929  1
  H  H1719  1  0.801398  0.891460  0.678071  1
  H  H1720  1  0.698602  0.608540  0.178071  1
  H  H1721  1  0.251206  0.137978  0.334783  1
  H  H1722  1  0.248794  0.362022  0.834783  1
  H  H1723  1  0.748794  0.862022  0.665217  1
  H  H1724  1  0.751206  0.637978  0.165217  1
  H  H1725  1  0.127417  0.077104  0.357995  1
  H  H1726  1  0.372583  0.422896  0.857995  1
  H  H1727  1  0.872583  0.922896  0.642005  1
  H  H1728  1  0.627417  0.577104  0.142005  1
  H  H1729  1  0.082517  0.084828  0.404775  1
  H  H1730  1  0.417483  0.415172  0.904775  1
  H  H1731  1  0.917483  0.915172  0.595225  1
  H  H1732  1  0.582517  0.584828  0.095225  1
  H  H1733  1  0.210158  0.168133  0.435070  1
  H  H1734  1  0.289842  0.331867  0.935070  1
  H  H1735  1  0.789842  0.831867  0.564930  1
  H  H1736  1  0.710158  0.668133  0.064930  1
  H  H1737  1  0.254307  0.160315  0.387888  1
  H  H1738  1  0.245693  0.339685  0.887888  1
  H  H1739  1  0.745693  0.839685  0.612112  1
  H  H1740  1  0.754307  0.660315  0.112112  1
  H  H1741  1  0.167081  0.091516  0.474224  1
  H  H1742  1  0.332919  0.408484  0.974224  1
  H  H1743  1  0.832919  0.908484  0.525776  1
  H  H1744  1  0.667081  0.591516  0.025776  1
  H  H1745  1  0.155600  0.077093  0.532320  1
  H  H1746  1  0.344400  0.422907  0.032320  1
  H  H1747  1  0.844400  0.922907  0.467680  1
  H  H1748  1  0.655600  0.577093  0.967680  1
  H  H1749  1  0.105281  0.094157  0.577038  1
  H  H1750  1  0.394719  0.405843  0.077038  1
  H  H1751  1  0.894719  0.905843  0.422962  1
  H  H1752  1  0.605281  0.594157  0.922962  1
  H  H1753  1  0.027619  0.142292  0.573624  1
  H  H1754  1  0.472381  0.357708  0.073624  1
  H  H1755  1  0.972381  0.857708  0.426376  1
  H  H1756  1  0.527619  0.642292  0.926376  1
  H  H1757  1  0.999049  0.169425  0.526686  1
  H  H1758  1  0.500951  0.330575  0.026686  1
  H  H1759  1  0.000951  0.830575  0.473314  1
  H  H1760  1  0.499049  0.669425  0.973314  1
  H  H1761  1  0.320311  0.019507  0.423200  1
  H  H1762  1  0.179689  0.480493  0.923200  1
  H  H1763  1  0.679689  0.980493  0.576800  1
  H  H1764  1  0.820311  0.519507  0.076800  1
  H  H1765  1  0.376394  0.007325  0.404991  1
  H  H1766  1  0.123606  0.492675  0.904991  1
  H  H1767  1  0.623606  0.992675  0.595009  1
  H  H1768  1  0.876394  0.507325  0.095009  1
  H  H1769  1  0.314883  0.951748  0.385909  1
  H  H1770  1  0.185117  0.548252  0.885909  1
  H  H1771  1  0.685117  0.048252  0.614091  1
  H  H1772  1  0.814883  0.451748  0.114091  1
  H  H1773  1  0.263641  0.987274  0.386187  1
  H  H1774  1  0.236359  0.512726  0.886187  1
  H  H1775  1  0.736359  0.012726  0.613813  1
  H  H1776  1  0.763641  0.487274  0.113813  1
  H  H1777  1  0.368258  0.949297  0.332648  1
  H  H1778  1  0.131742  0.550703  0.832648  1
  H  H1779  1  0.631742  0.050703  0.667352  1
  H  H1780  1  0.868258  0.449297  0.167352  1
  H  H1781  1  0.399596  0.981568  0.357726  1
  H  H1782  1  0.100404  0.518432  0.857726  1
  H  H1783  1  0.600404  0.018432  0.642274  1
  H  H1784  1  0.899596  0.481568  0.142274  1
  H  H1785  1  0.433258  0.012826  0.312901  1
  H  H1786  1  0.066742  0.487174  0.812901  1
  H  H1787  1  0.566742  0.987174  0.687099  1
  H  H1788  1  0.933258  0.512826  0.187099  1
  H  H1789  1  0.373362  0.007582  0.296463  1
  H  H1790  1  0.126638  0.492418  0.796463  1
  H  H1791  1  0.626638  0.992418  0.703537  1
  H  H1792  1  0.873362  0.507582  0.203537  1
  H  H1793  1  0.255849  0.955531  0.333900  1
  H  H1794  1  0.244151  0.544469  0.833900  1
  H  H1795  1  0.744151  0.044469  0.666100  1
  H  H1796  1  0.755849  0.455531  0.166100  1
  H  H1797  1  0.285522  0.987388  0.308047  1
  H  H1798  1  0.214478  0.512612  0.808047  1
  H  H1799  1  0.714478  0.012612  0.691953  1
  H  H1800  1  0.785522  0.487388  0.191953  1
  H  H1801  1  0.203912  0.025672  0.315806  1
  H  H1802  1  0.296088  0.474328  0.815806  1
  H  H1803  1  0.796088  0.974328  0.684194  1
  H  H1804  1  0.703912  0.525672  0.184194  1
  H  H1805  1  0.205561  0.016811  0.351932  1
  H  H1806  1  0.294439  0.483189  0.851932  1
  H  H1807  1  0.794439  0.983189  0.648068  1
  H  H1808  1  0.705561  0.516811  0.148068  1
  H  H1809  1  0.168300  0.331400  0.310000  1
  H  H1810  1  0.331700  0.168600  0.810000  1
  H  H1811  1  0.831700  0.668600  0.690000  1
  H  H1812  1  0.668300  0.831400  0.190000  1
  H  H1813  1  0.373991  0.692691  0.343896  1
  H  H1814  1  0.126009  0.807309  0.843896  1
  H  H1815  1  0.626009  0.307309  0.656104  1
  H  H1816  1  0.873991  0.192691  0.156104  1
  H  H1817  1  0.319074  0.740956  0.373457  1
  H  H1818  1  0.180926  0.759044  0.873457  1
  H  H1819  1  0.680926  0.259044  0.626543  1
  H  H1820  1  0.819074  0.240956  0.126543  1
  H  H1821  1  0.228382  0.718415  0.385552  1
  H  H1822  1  0.271618  0.781585  0.885552  1
  H  H1823  1  0.771618  0.281585  0.614448  1
  H  H1824  1  0.728382  0.218415  0.114448  1
  H  H1825  1  0.192679  0.645699  0.366849  1
  H  H1826  1  0.307321  0.854301  0.866849  1
  H  H1827  1  0.807321  0.354301  0.633151  1
  H  H1828  1  0.692679  0.145699  0.133151  1
  H  H1829  1  0.210502  0.569888  0.335676  1
  H  H1830  1  0.289498  0.930112  0.835676  1
  H  H1831  1  0.789498  0.430112  0.664324  1
  H  H1832  1  0.710502  0.069888  0.164324  1
  H  H1833  1  0.267463  0.481025  0.346679  1
  H  H1834  1  0.232537  0.018975  0.846679  1
  H  H1835  1  0.732537  0.518975  0.653321  1
  H  H1836  1  0.767463  0.981025  0.153321  1
  H  H1837  1  0.236676  0.408962  0.327181  1
  H  H1838  1  0.263324  0.091038  0.827181  1
  H  H1839  1  0.763324  0.591038  0.672819  1
  H  H1840  1  0.736676  0.908962  0.172819  1
  H  H1841  1  0.233260  0.463237  0.243584  1
  H  H1842  1  0.266740  0.036763  0.743584  1
  H  H1843  1  0.766740  0.536763  0.756416  1
  H  H1844  1  0.733260  0.963237  0.256416  1
  H  H1845  1  0.265811  0.534932  0.262515  1
  H  H1846  1  0.234189  0.965068  0.762515  1
  H  H1847  1  0.734189  0.465068  0.737485  1
  H  H1848  1  0.765811  0.034932  0.237485  1
  H  H1849  1  0.218035  0.381284  0.249515  1
  H  H1850  1  0.281965  0.118716  0.749515  1
  H  H1851  1  0.781965  0.618716  0.750485  1
  H  H1852  1  0.718035  0.881284  0.250485  1
  H  H1853  1  0.226170  0.357611  0.282073  1
  H  H1854  1  0.273830  0.142389  0.782073  1
  H  H1855  1  0.773830  0.642389  0.717927  1
  H  H1856  1  0.726170  0.857611  0.217927  1
  H  H1857  1  0.113604  0.379235  0.373524  1
  H  H1858  1  0.386396  0.120765  0.873524  1
  H  H1859  1  0.886396  0.620765  0.626476  1
  H  H1860  1  0.613604  0.879235  0.126476  1
  H  H1861  1  0.159442  0.348048  0.357163  1
  H  H1862  1  0.340558  0.151952  0.857163  1
  H  H1863  1  0.840558  0.651952  0.642837  1
  H  H1864  1  0.659442  0.848048  0.142837  1
  H  H1865  1  0.151565  0.263378  0.358796  1
  H  H1866  1  0.348435  0.236622  0.858796  1
  H  H1867  1  0.848435  0.736622  0.641204  1
  H  H1868  1  0.651565  0.763378  0.141204  1
  H  H1869  1  0.115049  0.195130  0.381517  1
  H  H1870  1  0.384951  0.304870  0.881517  1
  H  H1871  1  0.884951  0.804870  0.618483  1
  H  H1872  1  0.615049  0.695130  0.118483  1
  H  H1873  1  0.992771  0.270600  0.419398  1
  H  H1874  1  0.507229  0.229400  0.919398  1
  H  H1875  1  0.007229  0.729400  0.580602  1
  H  H1876  1  0.492771  0.770600  0.080602  1
  H  H1877  1  0.029523  0.338535  0.397374  1
  H  H1878  1  0.470477  0.161465  0.897374  1
  H  H1879  1  0.970477  0.661465  0.602626  1
  H  H1880  1  0.529523  0.838535  0.102626  1
  H  H1881  1  0.982804  0.166054  0.384157  1
  H  H1882  1  0.517196  0.333946  0.884157  1
  H  H1883  1  0.017196  0.833946  0.615843  1
  H  H1884  1  0.482804  0.666054  0.115843  1
  H  H1885  1  0.930361  0.084044  0.385564  1
  H  H1886  1  0.569639  0.415956  0.885564  1
  H  H1887  1  0.069639  0.915956  0.614436  1
  H  H1888  1  0.430361  0.584044  0.114436  1
  H  H1889  1  0.914397  0.013297  0.411820  1
  H  H1890  1  0.585603  0.486703  0.911820  1
  H  H1891  1  0.085603  0.986703  0.588180  1
  H  H1892  1  0.414397  0.513297  0.088180  1
  H  H1893  1  0.955437  0.003688  0.459390  1
  H  H1894  1  0.544563  0.496312  0.959390  1
  H  H1895  1  0.044563  0.996312  0.540610  1
  H  H1896  1  0.455437  0.503688  0.040610  1
  H  H1897  1  0.008295  0.064675  0.480847  1
  H  H1898  1  0.491705  0.435325  0.980847  1
  H  H1899  1  0.991705  0.935325  0.519153  1
  H  H1900  1  0.508295  0.564675  0.019153  1
  H  H1901  1  0.121897  0.217448  0.294842  1
  H  H1902  1  0.378103  0.282552  0.794842  1
  H  H1903  1  0.878103  0.782552  0.705158  1
  H  H1904  1  0.621897  0.717448  0.205158  1
  H  H1905  1  0.170485  0.253958  0.304341  1
  H  H1906  1  0.329515  0.246042  0.804341  1
  H  H1907  1  0.829515  0.746042  0.695659  1
  H  H1908  1  0.670485  0.753958  0.195659  1
  H  H1909  1  0.113691  0.192640  0.240319  1
  H  H1910  1  0.386309  0.307360  0.740319  1
  H  H1911  1  0.886309  0.807360  0.759681  1
  H  H1912  1  0.613691  0.692640  0.259681  1
  H  H1913  1  0.161008  0.179277  0.194934  1
  H  H1914  1  0.338992  0.320723  0.694934  1
  H  H1915  1  0.838992  0.820723  0.805066  1
  H  H1916  1  0.661008  0.679277  0.305066  1
  H  H1917  1  0.285124  0.268944  0.221573  1
  H  H1918  1  0.214876  0.231056  0.721573  1
  H  H1919  1  0.714876  0.731056  0.778427  1
  H  H1920  1  0.785124  0.768944  0.278427  1
  H  H1921  1  0.237968  0.280995  0.267193  1
  H  H1922  1  0.262032  0.219005  0.767193  1
  H  H1923  1  0.762032  0.719005  0.732807  1
  H  H1924  1  0.737968  0.780995  0.232807  1
  H  H1925  1  0.242445  0.278778  0.161943  1
  H  H1926  1  0.257555  0.221222  0.661943  1
  H  H1927  1  0.757555  0.721222  0.838057  1
  H  H1928  1  0.742445  0.778778  0.338057  1
  H  H1929  1  0.277317  0.305928  0.108850  1
  H  H1930  1  0.222683  0.194072  0.608850  1
  H  H1931  1  0.722683  0.694072  0.891150  1
  H  H1932  1  0.777317  0.805928  0.391150  1
  H  H1933  1  0.321519  0.286674  0.062747  1
  H  H1934  1  0.178481  0.213326  0.562747  1
  H  H1935  1  0.678481  0.713326  0.937253  1
  H  H1936  1  0.821519  0.786674  0.437253  1
  H  H1937  1  0.349532  0.208645  0.055853  1
  H  H1938  1  0.150468  0.291355  0.555853  1
  H  H1939  1  0.650468  0.791355  0.944147  1
  H  H1940  1  0.849532  0.708645  0.444147  1
  H  H1941  1  0.338815  0.154848  0.094863  1
  H  H1942  1  0.161185  0.345152  0.594863  1
  H  H1943  1  0.661185  0.845152  0.905137  1
  H  H1944  1  0.838815  0.654848  0.405137  1
  H  H1945  1  0.131981  0.406765  0.233256  1
  H  H1946  1  0.368019  0.093235  0.733256  1
  H  H1947  1  0.868019  0.593235  0.766744  1
  H  H1948  1  0.631981  0.906765  0.266744  1
  H  H1949  1  0.104367  0.432895  0.261886  1
  H  H1950  1  0.395633  0.067105  0.761886  1
  H  H1951  1  0.895633  0.567105  0.738114  1
  H  H1952  1  0.604367  0.932895  0.238114  1
  H  H1953  1  0.026793  0.387346  0.240577  1
  H  H1954  1  0.473207  0.112654  0.740577  1
  H  H1955  1  0.973207  0.612654  0.759423  1
  H  H1956  1  0.526793  0.887346  0.259423  1
  H  H1957  1  0.064762  0.341663  0.236786  1
  H  H1958  1  0.435238  0.158337  0.736786  1
  H  H1959  1  0.935238  0.658337  0.763214  1
  H  H1960  1  0.564762  0.841663  0.263214  1
  H  H1961  1  0.982277  0.392472  0.297424  1
  H  H1962  1  0.517723  0.107528  0.797424  1
  H  H1963  1  0.017723  0.607528  0.702576  1
  H  H1964  1  0.482277  0.892472  0.202576  1
  H  H1965  1  0.039823  0.422529  0.296067  1
  H  H1966  1  0.460177  0.077471  0.796067  1
  H  H1967  1  0.960177  0.577471  0.703933  1
  H  H1968  1  0.539823  0.922529  0.203933  1
  H  H1969  1  0.033403  0.404950  0.346230  1
  H  H1970  1  0.466597  0.095050  0.846230  1
  H  H1971  1  0.966597  0.595050  0.653770  1
  H  H1972  1  0.533403  0.904950  0.153770  1
  H  H1973  1  0.009171  0.352639  0.339613  1
  H  H1974  1  0.490829  0.147361  0.839613  1
  H  H1975  1  0.990829  0.647361  0.660387  1
  H  H1976  1  0.509171  0.852639  0.160387  1
  H  H1977  1  0.998822  0.306069  0.304139  1
  H  H1978  1  0.501178  0.193931  0.804139  1
  H  H1979  1  0.001178  0.693931  0.695861  1
  H  H1980  1  0.498822  0.806069  0.195861  1
  H  H1981  1  0.978284  0.312392  0.269553  1
  H  H1982  1  0.521716  0.187608  0.769553  1
  H  H1983  1  0.021716  0.687608  0.730447  1
  H  H1984  1  0.478284  0.812392  0.230447  1
  H  H1985  1  0.034865  0.241712  0.279183  1
  H  H1986  1  0.465135  0.258288  0.779183  1
  H  H1987  1  0.965135  0.758288  0.720817  1
  H  H1988  1  0.534865  0.741712  0.220817  1
  H  H1989  1  0.055079  0.273396  0.250671  1
  H  H1990  1  0.444921  0.226604  0.750671  1
  H  H1991  1  0.944921  0.726604  0.749329  1
  H  H1992  1  0.555079  0.773396  0.249329  1
  H  H1993  1  0.961583  0.792656  0.377444  1
  H  H1994  1  0.538417  0.707344  0.877444  1
  H  H1995  1  0.038417  0.207344  0.622556  1
  H  H1996  1  0.461583  0.292656  0.122556  1
  H  H1997  1  0.134322  0.675294  0.410193  1
  H  H1998  1  0.365678  0.824706  0.910193  1
  H  H1999  1  0.865678  0.324706  0.589807  1
  H  H2000  1  0.634322  0.175294  0.089807  1
  H  H2001  1  0.005281  0.723577  0.334966  1
  H  H2002  1  0.494719  0.776423  0.834966  1
  H  H2003  1  0.994719  0.276423  0.665034  1
  H  H2004  1  0.505281  0.223577  0.165034  1
  H  H2005  1  0.941551  0.690906  0.388827  1
  H  H2006  1  0.558449  0.809094  0.888827  1
  H  H2007  1  0.058449  0.309094  0.611173  1
  H  H2008  1  0.441551  0.190906  0.111173  1
  H  H2009  1  0.968350  0.754432  0.438511  1
  H  H2010  1  0.531650  0.745568  0.938511  1
  H  H2011  1  0.031650  0.245568  0.561489  1
  H  H2012  1  0.468350  0.254432  0.061489  1
  H  H2013  1  0.051032  0.823692  0.417526  1
  H  H2014  1  0.448968  0.676308  0.917526  1
  H  H2015  1  0.948968  0.176308  0.582474  1
  H  H2016  1  0.551032  0.323692  0.082474  1
  H  H2017  1  0.072504  0.804741  0.352453  1
  H  H2018  1  0.427496  0.695259  0.852453  1
  H  H2019  1  0.927496  0.195259  0.647547  1
  H  H2020  1  0.572504  0.304741  0.147547  1
  H  H2021  1  0.124405  0.713774  0.348663  1
  H  H2022  1  0.375595  0.786226  0.848663  1
  H  H2023  1  0.875595  0.286226  0.651337  1
  H  H2024  1  0.624405  0.213774  0.151337  1
  H  H2025  1  0.042604  0.642627  0.370371  1
  H  H2026  1  0.457396  0.857373  0.870371  1
  H  H2027  1  0.957396  0.357373  0.629629  1
  H  H2028  1  0.542604  0.142627  0.129629  1
  H  H2029  1  0.022011  0.661767  0.435126  1
  H  H2030  1  0.477989  0.838233  0.935126  1
  H  H2031  1  0.977989  0.338233  0.564874  1
  H  H2032  1  0.522011  0.161767  0.064874  1
  H  H2033  1  0.088079  0.744352  0.452451  1
  H  H2034  1  0.411921  0.755648  0.952451  1
  H  H2035  1  0.911921  0.255648  0.547549  1
  H  H2036  1  0.588079  0.244352  0.047549  1
  H  H2037  1  0.152523  0.777109  0.399316  1
  H  H2038  1  0.347477  0.722891  0.899316  1
  H  H2039  1  0.847477  0.222891  0.600684  1
  H  H2040  1  0.652523  0.277109  0.100684  1
  H  H2041  1  0.809724  0.444071  0.539542  1
  H  H2042  1  0.690276  0.055929  0.039542  1
  H  H2043  1  0.190276  0.555929  0.460458  1
  H  H2044  1  0.309724  0.944071  0.960458  1
  H  H2045  1  0.862564  0.421591  0.555777  1
  H  H2046  1  0.637436  0.078409  0.055777  1
  H  H2047  1  0.137436  0.578409  0.444223  1
  H  H2048  1  0.362564  0.921591  0.944223  1
  H  H2049  1  0.801366  0.399331  0.561220  1
  H  H2050  1  0.698634  0.100669  0.061220  1
  H  H2051  1  0.198634  0.600669  0.438780  1
  H  H2052  1  0.301366  0.899331  0.938780  1
  H  H2053  1  0.057053  0.540646  0.434178  1
  H  H2054  1  0.442947  0.959354  0.934178  1
  H  H2055  1  0.942947  0.459354  0.565822  1
  H  H2056  1  0.557053  0.040646  0.065822  1
  H  H2057  1  0.044282  0.580992  0.410018  1
  H  H2058  1  0.455718  0.919008  0.910018  1
  H  H2059  1  0.955718  0.419008  0.589982  1
  H  H2060  1  0.544282  0.080992  0.089982  1
  H  H2061  1  0.076227  0.593812  0.441001  1
  H  H2062  1  0.423773  0.906188  0.941001  1
  H  H2063  1  0.923773  0.406188  0.558999  1
  H  H2064  1  0.576227  0.093812  0.058999  1
  H  H2065  1  0.526610  0.507386  0.411709  1
  H  H2066  1  0.973390  0.992614  0.911709  1
  H  H2067  1  0.473390  0.492614  0.588291  1
  H  H2068  1  0.026610  0.007386  0.088291  1
  H  H2069  1  0.464157  0.525452  0.415038  1
  H  H2070  1  0.035843  0.974548  0.915038  1
  H  H2071  1  0.535843  0.474548  0.584962  1
  H  H2072  1  0.964157  0.025452  0.084962  1
  H  H2073  1  0.475313  0.470376  0.413209  1
  H  H2074  1  0.024687  0.029624  0.913209  1
  H  H2075  1  0.524687  0.529624  0.586791  1
  H  H2076  1  0.975313  0.970376  0.086791  1
  H  H2077  1  0.467696  0.009839  0.592843  1
  H  H2078  1  0.032304  0.490161  0.092843  1
  H  H2079  1  0.532304  0.990161  0.407157  1
  H  H2080  1  0.967696  0.509839  0.907157  1
  H  H2081  1  0.470073  0.998364  0.628438  1
  H  H2082  1  0.029927  0.501636  0.128438  1
  H  H2083  1  0.529927  0.001636  0.371562  1
  H  H2084  1  0.970073  0.498364  0.871562  1
  H  H2085  1  0.523091  0.988918  0.607350  1
  H  H2086  1  0.976909  0.511082  0.107350  1
  H  H2087  1  0.476909  0.011082  0.392650  1
  H  H2088  1  0.023091  0.488918  0.892650  1
  H  H2089  1  0.480382  0.074293  0.610920  1
  H  H2090  1  0.019618  0.425707  0.110920  1
  H  H2091  1  0.519618  0.925707  0.389080  1
  H  H2092  1  0.980382  0.574293  0.889080  1
  H  H2093  1  0.514997  0.055532  0.638792  1
  H  H2094  1  0.985003  0.444468  0.138792  1
  H  H2095  1  0.485003  0.944468  0.361208  1
  H  H2096  1  0.014997  0.555532  0.861208  1
  H  H2097  1  0.570950  0.126330  0.630336  1
  H  H2098  1  0.929050  0.373670  0.130336  1
  H  H2099  1  0.429050  0.873670  0.369664  1
  H  H2100  1  0.070950  0.626330  0.869664  1
  H  H2101  1  0.540504  0.137130  0.599180  1
  H  H2102  1  0.959496  0.362870  0.099180  1
  H  H2103  1  0.459496  0.862870  0.400820  1
  H  H2104  1  0.040504  0.637130  0.900820  1
  H  H2105  1  0.649488  0.129229  0.610838  1
  H  H2106  1  0.850512  0.370771  0.110838  1
  H  H2107  1  0.350512  0.870771  0.389162  1
  H  H2108  1  0.149488  0.629229  0.889162  1
  H  H2109  1  0.616122  0.170532  0.594898  1
  H  H2110  1  0.883878  0.329468  0.094898  1
  H  H2111  1  0.383878  0.829468  0.405102  1
  H  H2112  1  0.116122  0.670532  0.905102  1
  H  H2113  1  0.625696  0.122427  0.577074  1
  H  H2114  1  0.874304  0.377573  0.077074  1
  H  H2115  1  0.374304  0.877573  0.422926  1
  H  H2116  1  0.125696  0.622427  0.922926  1
  H  H2117  1  0.257528  0.967970  0.258030  1
  H  H2118  1  0.242472  0.532030  0.758030  1
  H  H2119  1  0.742472  0.032030  0.741970  1
  H  H2120  1  0.757528  0.467970  0.241970  1
  H  H2121  1  0.205856  0.973230  0.235307  1
  H  H2122  1  0.294144  0.526770  0.735307  1
  H  H2123  1  0.794144  0.026770  0.764693  1
  H  H2124  1  0.705856  0.473230  0.264693  1
  H  H2125  1  0.247126  0.017167  0.241679  1
  H  H2126  1  0.252874  0.482833  0.741679  1
  H  H2127  1  0.752874  0.982833  0.758321  1
  H  H2128  1  0.747126  0.517167  0.258321  1
  H  H2129  1  0.352460  0.891320  0.195239  1
  H  H2130  1  0.147540  0.608680  0.695239  1
  H  H2131  1  0.647540  0.108680  0.804761  1
  H  H2132  1  0.852460  0.391320  0.304761  1
  H  H2133  1  0.334781  0.913615  0.163364  1
  H  H2134  1  0.165219  0.586385  0.663364  1
  H  H2135  1  0.665219  0.086385  0.836636  1
  H  H2136  1  0.834781  0.413615  0.336636  1
  H  H2137  1  0.312086  0.935232  0.194458  1
  H  H2138  1  0.187914  0.564768  0.694458  1
  H  H2139  1  0.687914  0.064768  0.805542  1
  H  H2140  1  0.812086  0.435232  0.305542  1
  H  H2141  1  0.243065  0.599765  0.185928  1
  H  H2142  1  0.256935  0.900235  0.685928  1
  H  H2143  1  0.756935  0.400235  0.814072  1
  H  H2144  1  0.743065  0.099765  0.314072  1
  H  H2145  1  0.261570  0.575498  0.154819  1
  H  H2146  1  0.238430  0.924502  0.654819  1
  H  H2147  1  0.738430  0.424502  0.845181  1
  H  H2148  1  0.761570  0.075498  0.345181  1
  H  H2149  1  0.237705  0.627464  0.154444  1
  H  H2150  1  0.262295  0.872536  0.654444  1
  H  H2151  1  0.762295  0.372536  0.845556  1
  H  H2152  1  0.737705  0.127464  0.345556  1
  H  H2153  1  0.180535  0.504776  0.184212  1
  H  H2154  1  0.319465  0.995224  0.684212  1
  H  H2155  1  0.819465  0.495224  0.815788  1
  H  H2156  1  0.680535  0.004776  0.315788  1
  H  H2157  1  0.159700  0.550602  0.201452  1
  H  H2158  1  0.340300  0.949398  0.701452  1
  H  H2159  1  0.840300  0.449398  0.798548  1
  H  H2160  1  0.659700  0.050602  0.298548  1
  H  H2161  1  0.127748  0.501218  0.206486  1
  H  H2162  1  0.372252  0.998782  0.706486  1
  H  H2163  1  0.872252  0.498782  0.793514  1
  H  H2164  1  0.627748  0.001218  0.293514  1
  H  H2165  1  0.013856  0.357613  0.147038  1
  H  H2166  1  0.486144  0.142387  0.647038  1
  H  H2167  1  0.986144  0.642387  0.852962  1
  H  H2168  1  0.513856  0.857613  0.352962  1
  H  H2169  1  0.997173  0.303429  0.142019  1
  H  H2170  1  0.502827  0.196571  0.642019  1
  H  H2171  1  0.002827  0.696571  0.857981  1
  H  H2172  1  0.497173  0.803429  0.357981  1
  H  H2173  1  0.042499  0.328570  0.120345  1
  H  H2174  1  0.457501  0.171430  0.620345  1
  H  H2175  1  0.957501  0.671430  0.879655  1
  H  H2176  1  0.542499  0.828570  0.379655  1
  C  C2177  1  0.343100  0.338660  0.346480  1
  C  C2178  1  0.156900  0.161340  0.846480  1
  C  C2179  1  0.656900  0.661340  0.653520  1
  C  C2180  1  0.843100  0.838660  0.153520  1
  C  C2181  1  0.327100  0.078300  0.508050  1
  C  C2182  1  0.172900  0.421700  0.008050  1
  C  C2183  1  0.672900  0.921700  0.491950  1
  C  C2184  1  0.827100  0.578300  0.991950  1
  C  C2185  1  0.297100  0.618800  0.598060  1
  C  C2186  1  0.202900  0.881200  0.098060  1
  C  C2187  1  0.702900  0.381200  0.401940  1
  C  C2188  1  0.797100  0.118800  0.901940  1
  C  C2189  1  0.096000  0.720600  0.372400  1
  C  C2190  1  0.404000  0.779400  0.872400  1
  C  C2191  1  0.904000  0.279400  0.627600  1
  C  C2192  1  0.596000  0.220600  0.127600  1
  C  C2193  1  0.207800  0.586300  0.176100  1
  C  C2194  1  0.292200  0.913700  0.676100  1
  C  C2195  1  0.792200  0.413700  0.823900  1
  C  C2196  1  0.707800  0.086300  0.323900  1
  C  C2197  1  0.158100  0.567700  0.164300  1
  C  C2198  1  0.341900  0.932300  0.664300  1
  C  C2199  1  0.841900  0.432300  0.835700  1
  C  C2200  1  0.658100  0.067700  0.335700  1
  C  C2201  1  0.125500  0.322600  0.173100  1
  C  C2202  1  0.374500  0.177400  0.673100  1
  C  C2203  1  0.874500  0.677400  0.826900  1
  C  C2204  1  0.625500  0.822600  0.326900  1
  C  C2205  1  0.121800  0.371200  0.163000  1
  C  C2206  1  0.378200  0.128800  0.663000  1
  C  C2207  1  0.878200  0.628800  0.837000  1
  C  C2208  1  0.621800  0.871200  0.337000  1
  C  C2209  1  0.087800  0.444200  0.170300  1
  C  C2210  1  0.412200  0.055800  0.670300  1
  C  C2211  1  0.912200  0.555800  0.829700  1
  C  C2212  1  0.587800  0.944200  0.329700  1
  C  C2213  1  0.044700  0.466100  0.189100  1
  C  C2214  1  0.455300  0.033900  0.689100  1
  C  C2215  1  0.955300  0.533900  0.810900  1
  C  C2216  1  0.544700  0.966100  0.310900  1
  C  C2217  1  0.451070  0.047250  0.015730  1
  C  C2218  1  0.048930  0.452750  0.515730  1
  C  C2219  1  0.548930  0.952750  0.984270  1
  C  C2220  1  0.951070  0.547250  0.484270  1
  C  C2221  1  0.659100  0.111100  0.718870  1
  C  C2222  1  0.840900  0.388900  0.218870  1
  C  C2223  1  0.340900  0.888900  0.281130  1
  C  C2224  1  0.159100  0.611100  0.781130  1
  C  C2225  1  0.937000  0.414050  0.413580  1
  C  C2226  1  0.563000  0.085950  0.913580  1
  C  C2227  1  0.063000  0.585950  0.586420  1
  C  C2228  1  0.437000  0.914050  0.086420  1
  C  C2229  1  0.904500  0.397400  0.439690  1
  C  C2230  1  0.595500  0.102600  0.939690  1
  C  C2231  1  0.095500  0.602600  0.560310  1
  C  C2232  1  0.404500  0.897400  0.060310  1
  C  C2233  1  0.816300  0.386800  0.515900  1
  C  C2234  1  0.683700  0.113200  0.015900  1
  C  C2235  1  0.183700  0.613200  0.484100  1
  C  C2236  1  0.316300  0.886800  0.984100  1
  C  C2237  1  0.784900  0.421700  0.530400  1
  C  C2238  1  0.715100  0.078300  0.030400  1
  C  C2239  1  0.215100  0.578300  0.469600  1
  C  C2240  1  0.284900  0.921700  0.969600  1
  C  C2241  1  0.119700  0.536700  0.392500  1
  C  C2242  1  0.380300  0.963300  0.892500  1
  C  C2243  1  0.880300  0.463300  0.607500  1
  C  C2244  1  0.619700  0.036700  0.107500  1
  C  C2245  1  0.062800  0.529800  0.403000  1
  C  C2246  1  0.437200  0.970200  0.903000  1
  C  C2247  1  0.937200  0.470200  0.597000  1
  C  C2248  1  0.562800  0.029800  0.097000  1
  C  C2249  1  0.757700  0.170300  0.621700  1
  C  C2250  1  0.742300  0.329700  0.121700  1
  C  C2251  1  0.242300  0.829700  0.378300  1
  C  C2252  1  0.257700  0.670300  0.878300  1
  C  C2253  1  0.804100  0.164300  0.644300  1
  C  C2254  1  0.695900  0.335700  0.144300  1
  C  C2255  1  0.195900  0.835700  0.355700  1
  C  C2256  1  0.304100  0.664300  0.855700  1
  C  C2257  1  0.496400  0.529700  0.427400  1
  C  C2258  1  0.003600  0.970300  0.927400  1
  C  C2259  1  0.503600  0.470300  0.572600  1
  C  C2260  1  0.996400  0.029700  0.072600  1
  C  C2261  1  0.467200  0.495100  0.444800  1
  C  C2262  1  0.032800  0.004900  0.944800  1
  C  C2263  1  0.532800  0.504900  0.555200  1
  C  C2264  1  0.967200  0.995100  0.055200  1
  C  C2265  1  0.098000  0.927000  0.334500  1
  C  C2266  1  0.402000  0.573000  0.834500  1
  C  C2267  1  0.902000  0.073000  0.665500  1
  C  C2268  1  0.598000  0.427000  0.165500  1
  C  C2269  1  0.047500  0.942500  0.349700  1
  C  C2270  1  0.452500  0.557500  0.849700  1
  C  C2271  1  0.952500  0.057500  0.650300  1
  C  C2272  1  0.547500  0.442500  0.150300  1
  C  C2273  1  0.281600  0.960200  0.195300  1
  C  C2274  1  0.218400  0.539800  0.695300  1
  C  C2275  1  0.718400  0.039800  0.804700  1
  C  C2276  1  0.781600  0.460200  0.304700  1
  C  C2277  1  0.328300  0.944600  0.184200  1
  C  C2278  1  0.171700  0.555400  0.684200  1
  C  C2279  1  0.671700  0.055400  0.815800  1
  C  C2280  1  0.828300  0.444600  0.315800  1
  C  C2281  1  0.374100  0.623200  0.467000  1
  C  C2282  1  0.125900  0.876800  0.967000  1
  C  C2283  1  0.625900  0.376800  0.533000  1
  C  C2284  1  0.874100  0.123200  0.033000  1
  C  C2285  1  0.504900  0.720100  0.435220  1
  C  C2286  1  0.995100  0.779900  0.935220  1
  C  C2287  1  0.495100  0.279900  0.564780  1
  C  C2288  1  0.004900  0.220100  0.064780  1
  C  C2289  1  0.693590  0.191260  0.515930  1
  C  C2290  1  0.806410  0.308740  0.015930  1
  C  C2291  1  0.306410  0.808740  0.484070  1
  C  C2292  1  0.193590  0.691260  0.984070  1
  C  C2293  1  0.728600  0.222920  0.531560  1
  C  C2294  1  0.771400  0.277080  0.031560  1
  C  C2295  1  0.271400  0.777080  0.468440  1
  C  C2296  1  0.228600  0.722920  0.968440  1
  C  C2297  1  0.750300  0.261660  0.516990  1
  C  C2298  1  0.749700  0.238340  0.016990  1
  C  C2299  1  0.249700  0.738340  0.483010  1
  C  C2300  1  0.250300  0.761660  0.983010  1
  C  C2301  1  0.735730  0.269300  0.486850  1
  C  C2302  1  0.764270  0.230700  0.986850  1
  C  C2303  1  0.264270  0.730700  0.513150  1
  C  C2304  1  0.235730  0.769300  0.013150  1
  C  C2305  1  0.700290  0.237110  0.472470  1
  C  C2306  1  0.799710  0.262890  0.972470  1
  C  C2307  1  0.299710  0.762890  0.527530  1
  C  C2308  1  0.200290  0.737110  0.027530  1
  C  C2309  1  0.680340  0.241680  0.441720  1
  C  C2310  1  0.819660  0.258320  0.941720  1
  C  C2311  1  0.319660  0.758320  0.558280  1
  C  C2312  1  0.180340  0.741680  0.058280  1
  C  C2313  1  0.623320  0.215920  0.401900  1
  C  C2314  1  0.876680  0.284080  0.901900  1
  C  C2315  1  0.376680  0.784080  0.598100  1
  C  C2316  1  0.123320  0.715920  0.098100  1
  C  C2317  1  0.587170  0.252520  0.396690  1
  C  C2318  1  0.912830  0.247480  0.896690  1
  C  C2319  1  0.412830  0.747480  0.603310  1
  C  C2320  1  0.087170  0.752520  0.103310  1
  C  C2321  1  0.565990  0.259720  0.368080  1
  C  C2322  1  0.934010  0.240280  0.868080  1
  C  C2323  1  0.434010  0.740280  0.631920  1
  C  C2324  1  0.065990  0.759720  0.131920  1
  C  C2325  1  0.580120  0.230650  0.343990  1
  C  C2326  1  0.919880  0.269350  0.843990  1
  C  C2327  1  0.419880  0.769350  0.656010  1
  C  C2328  1  0.080120  0.730650  0.156010  1
  C  C2329  1  0.616470  0.194010  0.349640  1
  C  C2330  1  0.883530  0.305990  0.849640  1
  C  C2331  1  0.383530  0.805990  0.650360  1
  C  C2332  1  0.116470  0.694010  0.150360  1
  C  C2333  1  0.638150  0.186720  0.378400  1
  C  C2334  1  0.861850  0.313280  0.878400  1
  C  C2335  1  0.361850  0.813280  0.621600  1
  C  C2336  1  0.138150  0.686720  0.121600  1
  C  C2337  1  0.558310  0.239880  0.312540  1
  C  C2338  1  0.941690  0.260120  0.812540  1
  C  C2339  1  0.441690  0.760120  0.687460  1
  C  C2340  1  0.058310  0.739880  0.187460  1
  C  C2341  1  0.530980  0.395350  0.321730  1
  C  C2342  1  0.969020  0.104650  0.821730  1
  C  C2343  1  0.469020  0.604650  0.678270  1
  C  C2344  1  0.030980  0.895350  0.178270  1
  C  C2345  1  0.493030  0.435030  0.313410  1
  C  C2346  1  0.006970  0.064970  0.813410  1
  C  C2347  1  0.506970  0.564970  0.686590  1
  C  C2348  1  0.993030  0.935030  0.186590  1
  C  C2349  1  0.439970  0.426220  0.301540  1
  C  C2350  1  0.060030  0.073780  0.801540  1
  C  C2351  1  0.560030  0.573780  0.698460  1
  C  C2352  1  0.939970  0.926220  0.198460  1
  C  C2353  1  0.405700  0.462270  0.293080  1
  C  C2354  1  0.094300  0.037730  0.793080  1
  C  C2355  1  0.594300  0.537730  0.706920  1
  C  C2356  1  0.905700  0.962270  0.206920  1
  C  C2357  1  0.425500  0.508380  0.296230  1
  C  C2358  1  0.074500  0.991620  0.796230  1
  C  C2359  1  0.574500  0.491620  0.703770  1
  C  C2360  1  0.925500  0.008380  0.203770  1
  C  C2361  1  0.478400  0.517730  0.308120  1
  C  C2362  1  0.021600  0.982270  0.808120  1
  C  C2363  1  0.521600  0.482270  0.691880  1
  C  C2364  1  0.978400  0.017730  0.191880  1
  C  C2365  1  0.511600  0.481460  0.316760  1
  C  C2366  1  0.988400  0.018540  0.816760  1
  C  C2367  1  0.488400  0.518540  0.683240  1
  C  C2368  1  0.011600  0.981460  0.183240  1
  C  C2369  1  0.382500  0.551600  0.258570  1
  C  C2370  1  0.117500  0.948400  0.758570  1
  C  C2371  1  0.617500  0.448400  0.741430  1
  C  C2372  1  0.882500  0.051600  0.241430  1
  C  C2373  1  0.349500  0.590730  0.249480  1
  C  C2374  1  0.150500  0.909270  0.749480  1
  C  C2375  1  0.650500  0.409270  0.750520  1
  C  C2376  1  0.849500  0.090730  0.250520  1
  C  C2377  1  0.336900  0.600800  0.219450  1
  C  C2378  1  0.163100  0.899200  0.719450  1
  C  C2379  1  0.663100  0.399200  0.780550  1
  C  C2380  1  0.836900  0.100800  0.280550  1
  C  C2381  1  0.302800  0.638200  0.213880  1
  C  C2382  1  0.197200  0.861800  0.713880  1
  C  C2383  1  0.697200  0.361800  0.786120  1
  C  C2384  1  0.802800  0.138200  0.286120  1
  C  C2385  1  0.284400  0.665300  0.237640  1
  C  C2386  1  0.215600  0.834700  0.737640  1
  C  C2387  1  0.715600  0.334700  0.762360  1
  C  C2388  1  0.784400  0.165300  0.262360  1
  C  C2389  1  0.299500  0.653850  0.267630  1
  C  C2390  1  0.200500  0.846150  0.767630  1
  C  C2391  1  0.700500  0.346150  0.732370  1
  C  C2392  1  0.799500  0.153850  0.232370  1
  C  C2393  1  0.466230  0.325410  0.243570  1
  C  C2394  1  0.033770  0.174590  0.743570  1
  C  C2395  1  0.533770  0.674590  0.756430  1
  C  C2396  1  0.966230  0.825410  0.256430  1
  C  C2397  1  0.436460  0.286450  0.226020  1
  C  C2398  1  0.063540  0.213550  0.726020  1
  C  C2399  1  0.563540  0.713550  0.773980  1
  C  C2400  1  0.936460  0.786450  0.273980  1
  C  C2401  1  0.428000  0.242680  0.238810  1
  C  C2402  1  0.072000  0.257320  0.738810  1
  C  C2403  1  0.572000  0.757320  0.761190  1
  C  C2404  1  0.928000  0.742680  0.261190  1
  C  C2405  1  0.402800  0.206320  0.222710  1
  C  C2406  1  0.097200  0.293680  0.722710  1
  C  C2407  1  0.597200  0.793680  0.777290  1
  C  C2408  1  0.902800  0.706320  0.277290  1
  C  C2409  1  0.387050  0.213670  0.193080  1
  C  C2410  1  0.112950  0.286330  0.693080  1
  C  C2411  1  0.612950  0.786330  0.806920  1
  C  C2412  1  0.887050  0.713670  0.306920  1
  C  C2413  1  0.394800  0.256740  0.179800  1
  C  C2414  1  0.105200  0.243260  0.679800  1
  C  C2415  1  0.605200  0.743260  0.820200  1
  C  C2416  1  0.894800  0.756740  0.320200  1
  C  C2417  1  0.419500  0.293100  0.196430  1
  C  C2418  1  0.080500  0.206900  0.696430  1
  C  C2419  1  0.580500  0.706900  0.803570  1
  C  C2420  1  0.919500  0.793100  0.303570  1
  C  C2421  1  0.404910  0.146150  0.166440  1
  C  C2422  1  0.095090  0.353850  0.666440  1
  C  C2423  1  0.595090  0.853850  0.833560  1
  C  C2424  1  0.904910  0.646150  0.333560  1
  C  C2425  1  0.387340  0.105770  0.148570  1
  C  C2426  1  0.112660  0.394230  0.648570  1
  C  C2427  1  0.612660  0.894230  0.851430  1
  C  C2428  1  0.887340  0.605770  0.351430  1
  C  C2429  1  0.423200  0.072630  0.138000  1
  C  C2430  1  0.076800  0.427370  0.638000  1
  C  C2431  1  0.576800  0.927370  0.862000  1
  C  C2432  1  0.923200  0.572630  0.362000  1
  C  C2433  1  0.401800  0.035030  0.121140  1
  C  C2434  1  0.098200  0.464970  0.621140  1
  C  C2435  1  0.598200  0.964970  0.878860  1
  C  C2436  1  0.901800  0.535030  0.378860  1
  C  C2437  1  0.345400  0.032810  0.115680  1
  C  C2438  1  0.154600  0.467190  0.615680  1
  C  C2439  1  0.654600  0.967190  0.884320  1
  C  C2440  1  0.845400  0.532810  0.384320  1
  C  C2441  1  0.311300  0.067120  0.126900  1
  C  C2442  1  0.188700  0.432880  0.626900  1
  C  C2443  1  0.688700  0.932880  0.873100  1
  C  C2444  1  0.811300  0.567120  0.373100  1
  C  C2445  1  0.647540  0.272000  0.292190  1
  C  C2446  1  0.852460  0.228000  0.792190  1
  C  C2447  1  0.352460  0.728000  0.707810  1
  C  C2448  1  0.147540  0.772000  0.207810  1
  C  C2449  1  0.670320  0.317600  0.279460  1
  C  C2450  1  0.829680  0.182400  0.779460  1
  C  C2451  1  0.329680  0.682400  0.720540  1
  C  C2452  1  0.170320  0.817600  0.220540  1
  C  C2453  1  0.630300  0.388300  0.256570  1
  C  C2454  1  0.869700  0.111700  0.756570  1
  C  C2455  1  0.369700  0.611700  0.743430  1
  C  C2456  1  0.130300  0.888300  0.243430  1
  C  C2457  1  0.609500  0.408440  0.286140  1
  C  C2458  1  0.890500  0.091560  0.786140  1
  C  C2459  1  0.390500  0.591560  0.713860  1
  C  C2460  1  0.109500  0.908440  0.213860  1
  C  C2461  1  0.619100  0.311800  0.230530  1
  C  C2462  1  0.880900  0.188200  0.730530  1
  C  C2463  1  0.380900  0.688200  0.769470  1
  C  C2464  1  0.119100  0.811800  0.269470  1
  C  C2465  1  0.559400  0.318900  0.220670  1
  C  C2466  1  0.940600  0.181100  0.720670  1
  C  C2467  1  0.440600  0.681100  0.779330  1
  C  C2468  1  0.059400  0.818900  0.279330  1
  C  C2469  1  0.644600  0.072230  0.500000  1
  C  C2470  1  0.855400  0.427770  0.000000  1
  C  C2471  1  0.355400  0.927770  0.500000  1
  C  C2472  1  0.144600  0.572230  0.000000  1
  C  C2473  1  0.626500  0.040740  0.521910  1
  C  C2474  1  0.873500  0.459260  0.021910  1
  C  C2475  1  0.373500  0.959260  0.478090  1
  C  C2476  1  0.126500  0.540740  0.978090  1
  C  C2477  1  0.578700  0.048300  0.537930  1
  C  C2478  1  0.921300  0.451700  0.037930  1
  C  C2479  1  0.421300  0.951700  0.462070  1
  C  C2480  1  0.078700  0.548300  0.962070  1
  C  C2481  1  0.548800  0.088300  0.531760  1
  C  C2482  1  0.951200  0.411700  0.031760  1
  C  C2483  1  0.451200  0.911700  0.468240  1
  C  C2484  1  0.048800  0.588300  0.968240  1
  C  C2485  1  0.568360  0.118730  0.509410  1
  C  C2486  1  0.931640  0.381270  0.009410  1
  C  C2487  1  0.431640  0.881270  0.490590  1
  C  C2488  1  0.068360  0.618730  0.990590  1
  C  C2489  1  0.540670  0.161080  0.500400  1
  C  C2490  1  0.959330  0.338920  0.000400  1
  C  C2491  1  0.459330  0.838920  0.499600  1
  C  C2492  1  0.040670  0.661080  0.999600  1
  C  C2493  1  0.537680  0.228520  0.470630  1
  C  C2494  1  0.962320  0.271480  0.970630  1
  C  C2495  1  0.462320  0.771480  0.529370  1
  C  C2496  1  0.037680  0.728520  0.029370  1
  C  C2497  1  0.565060  0.270590  0.477330  1
  C  C2498  1  0.934940  0.229410  0.977330  1
  C  C2499  1  0.434940  0.729410  0.522670  1
  C  C2500  1  0.065060  0.770590  0.022670  1
  C  C2501  1  0.540390  0.312400  0.470110  1
  C  C2502  1  0.959610  0.187600  0.970110  1
  C  C2503  1  0.459610  0.687600  0.529890  1
  C  C2504  1  0.040390  0.812400  0.029890  1
  C  C2505  1  0.488440  0.312900  0.456670  1
  C  C2506  1  0.011560  0.187100  0.956670  1
  C  C2507  1  0.511560  0.687100  0.543330  1
  C  C2508  1  0.988440  0.812900  0.043330  1
  C  C2509  1  0.461890  0.270420  0.449880  1
  C  C2510  1  0.038110  0.229580  0.949880  1
  C  C2511  1  0.538110  0.729580  0.550120  1
  C  C2512  1  0.961890  0.770420  0.050120  1
  C  C2513  1  0.485730  0.228090  0.456690  1
  C  C2514  1  0.014270  0.271910  0.956690  1
  C  C2515  1  0.514270  0.771910  0.543310  1
  C  C2516  1  0.985730  0.728090  0.043310  1
  C  C2517  1  0.460810  0.359250  0.450500  1
  C  C2518  1  0.039190  0.140750  0.950500  1
  C  C2519  1  0.539190  0.640750  0.549500  1
  C  C2520  1  0.960810  0.859250  0.049500  1
  C  C2521  1  0.308750  0.288680  0.475790  1
  C  C2522  1  0.191250  0.211320  0.975790  1
  C  C2523  1  0.691250  0.711320  0.524210  1
  C  C2524  1  0.808750  0.788680  0.024210  1
  C  C2525  1  0.249010  0.270740  0.473610  1
  C  C2526  1  0.250990  0.229260  0.973610  1
  C  C2527  1  0.750990  0.729260  0.526390  1
  C  C2528  1  0.749010  0.770740  0.026390  1
  C  C2529  1  0.212650  0.289490  0.452770  1
  C  C2530  1  0.287350  0.210510  0.952770  1
  C  C2531  1  0.787350  0.710510  0.547230  1
  C  C2532  1  0.712650  0.789490  0.047230  1
  C  C2533  1  0.157420  0.274790  0.451800  1
  C  C2534  1  0.342580  0.225210  0.951800  1
  C  C2535  1  0.842580  0.725210  0.548200  1
  C  C2536  1  0.657420  0.774790  0.048200  1
  C  C2537  1  0.137960  0.240520  0.471670  1
  C  C2538  1  0.362040  0.259480  0.971670  1
  C  C2539  1  0.862040  0.759480  0.528330  1
  C  C2540  1  0.637960  0.740520  0.028330  1
  C  C2541  1  0.174310  0.220350  0.492280  1
  C  C2542  1  0.325690  0.279650  0.992280  1
  C  C2543  1  0.825690  0.779650  0.507720  1
  C  C2544  1  0.674310  0.720350  0.007720  1
  C  C2545  1  0.229240  0.235660  0.492990  1
  C  C2546  1  0.270760  0.264340  0.992990  1
  C  C2547  1  0.770760  0.764340  0.507010  1
  C  C2548  1  0.729240  0.735660  0.007010  1
  C  C2549  1  0.045280  0.258640  0.479050  1
  C  C2550  1  0.454720  0.241360  0.979050  1
  C  C2551  1  0.954720  0.741360  0.520950  1
  C  C2552  1  0.545280  0.758640  0.020950  1
  C  C2553  1  0.986850  0.245510  0.478900  1
  C  C2554  1  0.513150  0.254490  0.978900  1
  C  C2555  1  0.013150  0.754490  0.521100  1
  C  C2556  1  0.486850  0.745510  0.021100  1
  C  C2557  1  0.943990  0.276380  0.484820  1
  C  C2558  1  0.556010  0.223620  0.984820  1
  C  C2559  1  0.056010  0.723620  0.515180  1
  C  C2560  1  0.443990  0.776380  0.015180  1
  C  C2561  1  0.889180  0.259300  0.483970  1
  C  C2562  1  0.610820  0.240700  0.983970  1
  C  C2563  1  0.110820  0.740700  0.516030  1
  C  C2564  1  0.389180  0.759300  0.016030  1
  C  C2565  1  0.879410  0.212720  0.478260  1
  C  C2566  1  0.620590  0.287280  0.978260  1
  C  C2567  1  0.120590  0.787280  0.521740  1
  C  C2568  1  0.379410  0.712720  0.021740  1
  C  C2569  1  0.923590  0.183410  0.472620  1
  C  C2570  1  0.576410  0.316590  0.972620  1
  C  C2571  1  0.076410  0.816590  0.527380  1
  C  C2572  1  0.423590  0.683410  0.027380  1
  C  C2573  1  0.296600  0.427800  0.430810  1
  C  C2574  1  0.203400  0.072200  0.930810  1
  C  C2575  1  0.703400  0.572200  0.569190  1
  C  C2576  1  0.796600  0.927800  0.069190  1
  C  C2577  1  0.318860  0.464560  0.409160  1
  C  C2578  1  0.181140  0.035440  0.909160  1
  C  C2579  1  0.681140  0.535440  0.590840  1
  C  C2580  1  0.818860  0.964560  0.090840  1
  C  C2581  1  0.364200  0.456090  0.390770  1
  C  C2582  1  0.135800  0.043910  0.890770  1
  C  C2583  1  0.635800  0.543910  0.609230  1
  C  C2584  1  0.864200  0.956090  0.109230  1
  C  C2585  1  0.386400  0.490390  0.372050  1
  C  C2586  1  0.113600  0.009610  0.872050  1
  C  C2587  1  0.613600  0.509610  0.627950  1
  C  C2588  1  0.886400  0.990390  0.127950  1
  C  C2589  1  0.364600  0.534510  0.371530  1
  C  C2590  1  0.135400  0.965490  0.871530  1
  C  C2591  1  0.635400  0.465490  0.628470  1
  C  C2592  1  0.864600  0.034510  0.128470  1
  C  C2593  1  0.319200  0.543950  0.389700  1
  C  C2594  1  0.180800  0.956050  0.889700  1
  C  C2595  1  0.680800  0.456050  0.610300  1
  C  C2596  1  0.819200  0.043950  0.110300  1
  C  C2597  1  0.296400  0.509280  0.408050  1
  C  C2598  1  0.203600  0.990720  0.908050  1
  C  C2599  1  0.703600  0.490720  0.591950  1
  C  C2600  1  0.796400  0.009280  0.091950  1
  C  C2601  1  0.433000  0.592040  0.360510  1
  C  C2602  1  0.067000  0.907960  0.860510  1
  C  C2603  1  0.567000  0.407960  0.639490  1
  C  C2604  1  0.933000  0.092040  0.139490  1
  C  C2605  1  0.455700  0.627430  0.340240  1
  C  C2606  1  0.044300  0.872570  0.840240  1
  C  C2607  1  0.544300  0.372570  0.659760  1
  C  C2608  1  0.955700  0.127430  0.159760  1
  C  C2609  1  0.503000  0.654750  0.346450  1
  C  C2610  1  0.997000  0.845250  0.846450  1
  C  C2611  1  0.497000  0.345250  0.653550  1
  C  C2612  1  0.003000  0.154750  0.153550  1
  C  C2613  1  0.521900  0.686500  0.324770  1
  C  C2614  1  0.978100  0.813500  0.824770  1
  C  C2615  1  0.478100  0.313500  0.675230  1
  C  C2616  1  0.021900  0.186500  0.175230  1
  C  C2617  1  0.493100  0.690200  0.298060  1
  C  C2618  1  0.006900  0.809800  0.798060  1
  C  C2619  1  0.506900  0.309800  0.701940  1
  C  C2620  1  0.993100  0.190200  0.201940  1
  C  C2621  1  0.445700  0.662610  0.293110  1
  C  C2622  1  0.054300  0.837390  0.793110  1
  C  C2623  1  0.554300  0.337390  0.706890  1
  C  C2624  1  0.945700  0.162610  0.206890  1
  C  C2625  1  0.451760  0.386180  0.503790  1
  C  C2626  1  0.048240  0.113820  0.003790  1
  C  C2627  1  0.548240  0.613820  0.496210  1
  C  C2628  1  0.951760  0.886180  0.996210  1
  C  C2629  1  0.406420  0.389340  0.528170  1
  C  C2630  1  0.093580  0.110660  0.028170  1
  C  C2631  1  0.593580  0.610660  0.471830  1
  C  C2632  1  0.906420  0.889340  0.971830  1
  C  C2633  1  0.303820  0.394260  0.527020  1
  C  C2634  1  0.196180  0.105740  0.027020  1
  C  C2635  1  0.696180  0.605740  0.472980  1
  C  C2636  1  0.803820  0.894260  0.972980  1
  C  C2637  1  0.292500  0.342900  0.519220  1
  C  C2638  1  0.207500  0.157100  0.019220  1
  C  C2639  1  0.707500  0.657100  0.480780  1
  C  C2640  1  0.792500  0.842900  0.980780  1
  C  C2641  1  0.362400  0.458960  0.505970  1
  C  C2642  1  0.137600  0.041040  0.005970  1
  C  C2643  1  0.637600  0.541040  0.494030  1
  C  C2644  1  0.862400  0.958960  0.994030  1
  C  C2645  1  0.324600  0.467380  0.478980  1
  C  C2646  1  0.175400  0.032620  0.978980  1
  C  C2647  1  0.675400  0.532620  0.521020  1
  C  C2648  1  0.824600  0.967380  0.021020  1
  C  C2649  1  0.748820  0.128710  0.449030  1
  C  C2650  1  0.751180  0.371290  0.949030  1
  C  C2651  1  0.251180  0.871290  0.550970  1
  C  C2652  1  0.248820  0.628710  0.050970  1
  C  C2653  1  0.788400  0.100900  0.435730  1
  C  C2654  1  0.711600  0.399100  0.935730  1
  C  C2655  1  0.211600  0.899100  0.564270  1
  C  C2656  1  0.288400  0.600900  0.064270  1
  C  C2657  1  0.772500  0.065160  0.416960  1
  C  C2658  1  0.727500  0.434840  0.916960  1
  C  C2659  1  0.227500  0.934840  0.583040  1
  C  C2660  1  0.272500  0.565160  0.083040  1
  C  C2661  1  0.715900  0.057510  0.411100  1
  C  C2662  1  0.784100  0.442490  0.911100  1
  C  C2663  1  0.284100  0.942490  0.588900  1
  C  C2664  1  0.215900  0.557510  0.088900  1
  C  C2665  1  0.677700  0.087220  0.424520  1
  C  C2666  1  0.822300  0.412780  0.924520  1
  C  C2667  1  0.322300  0.912780  0.575480  1
  C  C2668  1  0.177700  0.587220  0.075480  1
  C  C2669  1  0.618500  0.084600  0.419070  1
  C  C2670  1  0.881500  0.415400  0.919070  1
  C  C2671  1  0.381500  0.915400  0.580930  1
  C  C2672  1  0.118500  0.584600  0.080930  1
  C  C2673  1  0.529610  0.113170  0.426260  1
  C  C2674  1  0.970390  0.386830  0.926260  1
  C  C2675  1  0.470390  0.886830  0.573740  1
  C  C2676  1  0.029610  0.613170  0.073740  1
  C  C2677  1  0.493300  0.090000  0.446100  1
  C  C2678  1  0.006700  0.410000  0.946100  1
  C  C2679  1  0.506700  0.910000  0.553900  1
  C  C2680  1  0.993300  0.590000  0.053900  1
  C  C2681  1  0.436800  0.087800  0.440040  1
  C  C2682  1  0.063200  0.412200  0.940040  1
  C  C2683  1  0.563200  0.912200  0.559960  1
  C  C2684  1  0.936800  0.587800  0.059960  1
  C  C2685  1  0.415100  0.106860  0.414230  1
  C  C2686  1  0.084900  0.393140  0.914230  1
  C  C2687  1  0.584900  0.893140  0.585770  1
  C  C2688  1  0.915100  0.606860  0.085770  1
  C  C2689  1  0.451200  0.131050  0.394800  1
  C  C2690  1  0.048800  0.368950  0.894800  1
  C  C2691  1  0.548800  0.868950  0.605200  1
  C  C2692  1  0.951200  0.631050  0.105200  1
  C  C2693  1  0.508500  0.134660  0.400710  1
  C  C2694  1  0.991500  0.365340  0.900710  1
  C  C2695  1  0.491500  0.865340  0.599290  1
  C  C2696  1  0.008500  0.634660  0.099290  1
  C  C2697  1  0.353400  0.103760  0.407380  1
  C  C2698  1  0.146600  0.396240  0.907380  1
  C  C2699  1  0.646600  0.896240  0.592620  1
  C  C2700  1  0.853400  0.603760  0.092620  1
  C  C2701  1  0.398400  0.100530  0.307040  1
  C  C2702  1  0.101600  0.399470  0.807040  1
  C  C2703  1  0.601600  0.899470  0.692960  1
  C  C2704  1  0.898400  0.600530  0.192960  1
  C  C2705  1  0.365730  0.105010  0.277840  1
  C  C2706  1  0.134270  0.394990  0.777840  1
  C  C2707  1  0.634270  0.894990  0.722160  1
  C  C2708  1  0.865730  0.605010  0.222160  1
  C  C2709  1  0.379900  0.080200  0.251870  1
  C  C2710  1  0.120100  0.419800  0.751870  1
  C  C2711  1  0.620100  0.919800  0.748130  1
  C  C2712  1  0.879900  0.580200  0.248130  1
  C  C2713  1  0.348800  0.084170  0.225410  1
  C  C2714  1  0.151200  0.415830  0.725410  1
  C  C2715  1  0.651200  0.915830  0.774590  1
  C  C2716  1  0.848800  0.584170  0.274590  1
  C  C2717  1  0.303780  0.113280  0.224760  1
  C  C2718  1  0.196220  0.386720  0.724760  1
  C  C2719  1  0.696220  0.886720  0.775240  1
  C  C2720  1  0.803780  0.613280  0.275240  1
  C  C2721  1  0.288760  0.137970  0.250290  1
  C  C2722  1  0.211240  0.362030  0.750290  1
  C  C2723  1  0.711240  0.862030  0.749710  1
  C  C2724  1  0.788760  0.637970  0.249710  1
  C  C2725  1  0.320430  0.134120  0.276370  1
  C  C2726  1  0.179570  0.365880  0.776370  1
  C  C2727  1  0.679570  0.865880  0.723630  1
  C  C2728  1  0.820430  0.634120  0.223630  1
  C  C2729  1  0.226400  0.093020  0.194730  1
  C  C2730  1  0.273600  0.406980  0.694730  1
  C  C2731  1  0.773600  0.906980  0.805270  1
  C  C2732  1  0.726400  0.593020  0.305270  1
  C  C2733  1  0.194500  0.097820  0.167780  1
  C  C2734  1  0.305500  0.402180  0.667780  1
  C  C2735  1  0.805500  0.902180  0.832220  1
  C  C2736  1  0.694500  0.597820  0.332220  1
  C  C2737  1  0.144700  0.073600  0.161660  1
  C  C2738  1  0.355300  0.426400  0.661660  1
  C  C2739  1  0.855300  0.926400  0.838340  1
  C  C2740  1  0.644700  0.573600  0.338340  1
  C  C2741  1  0.116500  0.082400  0.135460  1
  C  C2742  1  0.383500  0.417600  0.635460  1
  C  C2743  1  0.883500  0.917600  0.864540  1
  C  C2744  1  0.616500  0.582400  0.364540  1
  C  C2745  1  0.137700  0.116200  0.115750  1
  C  C2746  1  0.362300  0.383800  0.615750  1
  C  C2747  1  0.862300  0.883800  0.884250  1
  C  C2748  1  0.637700  0.616200  0.384250  1
  C  C2749  1  0.188200  0.139600  0.122770  1
  C  C2750  1  0.311800  0.360400  0.622770  1
  C  C2751  1  0.811800  0.860400  0.877230  1
  C  C2752  1  0.688200  0.639600  0.377230  1
  C  C2753  1  0.226400  0.110260  0.338560  1
  C  C2754  1  0.273600  0.389740  0.838560  1
  C  C2755  1  0.773600  0.889740  0.661440  1
  C  C2756  1  0.726400  0.610260  0.161440  1
  C  C2757  1  0.196070  0.116970  0.368590  1
  C  C2758  1  0.303930  0.383030  0.868590  1
  C  C2759  1  0.803930  0.883030  0.631410  1
  C  C2760  1  0.696070  0.616970  0.131410  1
  C  C2761  1  0.144580  0.095330  0.373660  1
  C  C2762  1  0.355420  0.404670  0.873660  1
  C  C2763  1  0.855420  0.904670  0.626340  1
  C  C2764  1  0.644580  0.595330  0.126340  1
  C  C2765  1  0.117760  0.099980  0.401420  1
  C  C2766  1  0.382240  0.400020  0.901420  1
  C  C2767  1  0.882240  0.900020  0.598580  1
  C  C2768  1  0.617760  0.599980  0.098580  1
  C  C2769  1  0.142530  0.126820  0.424270  1
  C  C2770  1  0.357470  0.373180  0.924270  1
  C  C2771  1  0.857470  0.873180  0.575730  1
  C  C2772  1  0.642530  0.626820  0.075730  1
  C  C2773  1  0.193340  0.149480  0.419510  1
  C  C2774  1  0.306660  0.350520  0.919510  1
  C  C2775  1  0.806660  0.850520  0.580490  1
  C  C2776  1  0.693340  0.649480  0.080490  1
  C  C2777  1  0.219540  0.144480  0.391430  1
  C  C2778  1  0.280460  0.355520  0.891430  1
  C  C2779  1  0.780460  0.855520  0.608570  1
  C  C2780  1  0.719540  0.644480  0.108570  1
  C  C2781  1  0.134700  0.109920  0.476010  1
  C  C2782  1  0.365300  0.390080  0.976010  1
  C  C2783  1  0.865300  0.890080  0.523990  1
  C  C2784  1  0.634700  0.609920  0.023990  1
  C  C2785  1  0.105940  0.115010  0.504610  1
  C  C2786  1  0.394060  0.384990  0.004610  1
  C  C2787  1  0.894060  0.884990  0.495390  1
  C  C2788  1  0.605940  0.615010  0.995390  1
  C  C2789  1  0.123790  0.096340  0.531620  1
  C  C2790  1  0.376210  0.403660  0.031620  1
  C  C2791  1  0.876210  0.903660  0.468380  1
  C  C2792  1  0.623790  0.596340  0.968380  1
  C  C2793  1  0.094000  0.106370  0.557950  1
  C  C2794  1  0.406000  0.393630  0.057950  1
  C  C2795  1  0.906000  0.893630  0.442050  1
  C  C2796  1  0.594000  0.606370  0.942050  1
  C  C2797  1  0.047900  0.134410  0.555850  1
  C  C2798  1  0.452100  0.365590  0.055850  1
  C  C2799  1  0.952100  0.865590  0.444150  1
  C  C2800  1  0.547900  0.634410  0.944150  1
  C  C2801  1  0.031410  0.150890  0.527880  1
  C  C2802  1  0.468590  0.349110  0.027880  1
  C  C2803  1  0.968590  0.849110  0.472120  1
  C  C2804  1  0.531410  0.650890  0.972120  1
  C  C2805  1  0.337600  0.017960  0.402780  1
  C  C2806  1  0.162400  0.482040  0.902780  1
  C  C2807  1  0.662400  0.982040  0.597220  1
  C  C2808  1  0.837600  0.517960  0.097220  1
  C  C2809  1  0.304200  0.984640  0.382350  1
  C  C2810  1  0.195800  0.515360  0.882350  1
  C  C2811  1  0.695800  0.015360  0.617650  1
  C  C2812  1  0.804200  0.484640  0.117650  1
  C  C2813  1  0.372600  0.981650  0.340660  1
  C  C2814  1  0.127400  0.518350  0.840660  1
  C  C2815  1  0.627400  0.018350  0.659340  1
  C  C2816  1  0.872600  0.481650  0.159340  1
  C  C2817  1  0.392400  0.014950  0.315920  1
  C  C2818  1  0.107600  0.485050  0.815920  1
  C  C2819  1  0.607600  0.985050  0.684080  1
  C  C2820  1  0.892400  0.514950  0.184080  1
  C  C2821  1  0.271820  0.987110  0.329290  1
  C  C2822  1  0.228180  0.512890  0.829290  1
  C  C2823  1  0.728180  0.012890  0.670710  1
  C  C2824  1  0.771820  0.487110  0.170710  1
  C  C2825  1  0.228680  0.023990  0.333780  1
  C  C2826  1  0.271320  0.476010  0.833780  1
  C  C2827  1  0.771320  0.976010  0.666220  1
  C  C2828  1  0.728680  0.523990  0.166220  1
  C  C2829  1  0.336700  0.683020  0.348430  1
  C  C2830  1  0.163300  0.816980  0.848430  1
  C  C2831  1  0.663300  0.316980  0.651570  1
  C  C2832  1  0.836700  0.183020  0.151570  1
  C  C2833  1  0.304000  0.711890  0.366230  1
  C  C2834  1  0.196000  0.788110  0.866230  1
  C  C2835  1  0.696000  0.288110  0.633770  1
  C  C2836  1  0.804000  0.211890  0.133770  1
  C  C2837  1  0.250800  0.698870  0.373340  1
  C  C2838  1  0.249200  0.801130  0.873340  1
  C  C2839  1  0.749200  0.301130  0.626660  1
  C  C2840  1  0.750800  0.198870  0.126660  1
  C  C2841  1  0.229800  0.655930  0.362260  1
  C  C2842  1  0.270200  0.844070  0.862260  1
  C  C2843  1  0.770200  0.344070  0.637740  1
  C  C2844  1  0.729800  0.155930  0.137740  1
  C  C2845  1  0.263500  0.628950  0.344730  1
  C  C2846  1  0.236500  0.871050  0.844730  1
  C  C2847  1  0.736500  0.371050  0.655270  1
  C  C2848  1  0.763500  0.128950  0.155270  1
  C  C2849  1  0.247100  0.582760  0.332690  1
  C  C2850  1  0.252900  0.917240  0.832690  1
  C  C2851  1  0.752900  0.417240  0.667310  1
  C  C2852  1  0.747100  0.082760  0.167310  1
  C  C2853  1  0.266800  0.515370  0.306360  1
  C  C2854  1  0.233200  0.984630  0.806360  1
  C  C2855  1  0.733200  0.484630  0.693640  1
  C  C2856  1  0.766800  0.015370  0.193640  1
  C  C2857  1  0.259700  0.477780  0.325590  1
  C  C2858  1  0.240300  0.022220  0.825590  1
  C  C2859  1  0.740300  0.522220  0.674410  1
  C  C2860  1  0.759700  0.977780  0.174410  1
  C  C2861  1  0.241100  0.435100  0.313910  1
  C  C2862  1  0.258900  0.064900  0.813910  1
  C  C2863  1  0.758900  0.564900  0.686090  1
  C  C2864  1  0.741100  0.935100  0.186090  1
  C  C2865  1  0.229000  0.429670  0.283750  1
  C  C2866  1  0.271000  0.070330  0.783750  1
  C  C2867  1  0.771000  0.570330  0.716250  1
  C  C2868  1  0.729000  0.929670  0.216250  1
  C  C2869  1  0.239300  0.466800  0.264820  1
  C  C2870  1  0.260700  0.033200  0.764820  1
  C  C2871  1  0.760700  0.533200  0.735180  1
  C  C2872  1  0.739300  0.966800  0.235180  1
  C  C2873  1  0.258500  0.509500  0.276050  1
  C  C2874  1  0.241500  0.990500  0.776050  1
  C  C2875  1  0.741500  0.490500  0.723950  1
  C  C2876  1  0.758500  0.009500  0.223950  1
  C  C2877  1  0.207300  0.383200  0.271220  1
  C  C2878  1  0.292700  0.116800  0.771220  1
  C  C2879  1  0.792700  0.616800  0.728780  1
  C  C2880  1  0.707300  0.883200  0.228780  1
  C  C2881  1  0.118800  0.351710  0.360180  1
  C  C2882  1  0.381200  0.148290  0.860180  1
  C  C2883  1  0.881200  0.648290  0.639820  1
  C  C2884  1  0.618800  0.851710  0.139820  1
  C  C2885  1  0.094900  0.308210  0.375780  1
  C  C2886  1  0.405100  0.191790  0.875780  1
  C  C2887  1  0.905100  0.691790  0.624220  1
  C  C2888  1  0.594900  0.808210  0.124220  1
  C  C2889  1  0.119400  0.265110  0.371350  1
  C  C2890  1  0.380600  0.234890  0.871350  1
  C  C2891  1  0.880600  0.734890  0.628650  1
  C  C2892  1  0.619400  0.765110  0.128650  1
  C  C2893  1  0.097880  0.224380  0.384880  1
  C  C2894  1  0.402120  0.275620  0.884880  1
  C  C2895  1  0.902120  0.775620  0.615120  1
  C  C2896  1  0.597880  0.724380  0.115120  1
  C  C2897  1  0.051560  0.226950  0.403140  1
  C  C2898  1  0.448440  0.273050  0.903140  1
  C  C2899  1  0.948440  0.773050  0.596860  1
  C  C2900  1  0.551560  0.726950  0.096860  1
  C  C2901  1  0.025600  0.269290  0.407330  1
  C  C2902  1  0.474400  0.230710  0.907330  1
  C  C2903  1  0.974400  0.730710  0.592670  1
  C  C2904  1  0.525600  0.769290  0.092670  1
  C  C2905  1  0.047220  0.309500  0.394060  1
  C  C2906  1  0.452780  0.190500  0.894060  1
  C  C2907  1  0.952780  0.690500  0.605940  1
  C  C2908  1  0.547220  0.809500  0.105940  1
  C  C2909  1  0.996150  0.157860  0.403750  1
  C  C2910  1  0.503850  0.342140  0.903750  1
  C  C2911  1  0.003850  0.842140  0.596250  1
  C  C2912  1  0.496150  0.657860  0.096250  1
  C  C2913  1  0.978540  0.114310  0.418520  1
  C  C2914  1  0.521460  0.385690  0.918520  1
  C  C2915  1  0.021460  0.885690  0.581480  1
  C  C2916  1  0.478540  0.614310  0.081480  1
  C  C2917  1  0.946100  0.079450  0.405130  1
  C  C2918  1  0.553900  0.420550  0.905130  1
  C  C2919  1  0.053900  0.920550  0.594870  1
  C  C2920  1  0.446100  0.579450  0.094870  1
  C  C2921  1  0.936850  0.037750  0.420520  1
  C  C2922  1  0.563150  0.462250  0.920520  1
  C  C2923  1  0.063150  0.962250  0.579480  1
  C  C2924  1  0.436850  0.537750  0.079480  1
  C  C2925  1  0.960660  0.032340  0.448590  1
  C  C2926  1  0.539340  0.467660  0.948590  1
  C  C2927  1  0.039340  0.967660  0.551410  1
  C  C2928  1  0.460660  0.532340  0.051410  1
  C  C2929  1  0.992480  0.068840  0.461250  1
  C  C2930  1  0.507520  0.431160  0.961250  1
  C  C2931  1  0.007520  0.931160  0.538750  1
  C  C2932  1  0.492480  0.568840  0.038750  1
  C  C2933  1  0.141600  0.246900  0.288750  1
  C  C2934  1  0.358400  0.253100  0.788750  1
  C  C2935  1  0.858400  0.753100  0.711250  1
  C  C2936  1  0.641600  0.746900  0.211250  1
  C  C2937  1  0.170900  0.238710  0.258300  1
  C  C2938  1  0.329100  0.261290  0.758300  1
  C  C2939  1  0.829100  0.761290  0.741700  1
  C  C2940  1  0.670900  0.738710  0.241700  1
  C  C2941  1  0.148500  0.208250  0.236610  1
  C  C2942  1  0.351500  0.291750  0.736610  1
  C  C2943  1  0.851500  0.791750  0.763390  1
  C  C2944  1  0.648500  0.708250  0.263390  1
  C  C2945  1  0.176600  0.200360  0.209550  1
  C  C2946  1  0.323400  0.299640  0.709550  1
  C  C2947  1  0.823400  0.799640  0.790450  1
  C  C2948  1  0.676600  0.700360  0.290450  1
  C  C2949  1  0.226710  0.222850  0.203830  1
  C  C2950  1  0.273290  0.277150  0.703830  1
  C  C2951  1  0.773290  0.777150  0.796170  1
  C  C2952  1  0.726710  0.722850  0.296170  1
  C  C2953  1  0.250300  0.253370  0.225360  1
  C  C2954  1  0.249700  0.246630  0.725360  1
  C  C2955  1  0.749700  0.746630  0.774640  1
  C  C2956  1  0.750300  0.753370  0.274640  1
  C  C2957  1  0.221900  0.260530  0.252360  1
  C  C2958  1  0.278100  0.239470  0.752360  1
  C  C2959  1  0.778100  0.739470  0.747640  1
  C  C2960  1  0.721900  0.760530  0.247640  1
  C  C2961  1  0.257700  0.249330  0.156890  1
  C  C2962  1  0.242300  0.250670  0.656890  1
  C  C2963  1  0.742300  0.750670  0.843110  1
  C  C2964  1  0.757700  0.749330  0.343110  1
  C  C2965  1  0.284300  0.241870  0.127840  1
  C  C2966  1  0.215700  0.258130  0.627840  1
  C  C2967  1  0.715700  0.758130  0.872160  1
  C  C2968  1  0.784300  0.741870  0.372160  1
  C  C2969  1  0.290500  0.275100  0.105610  1
  C  C2970  1  0.209500  0.224900  0.605610  1
  C  C2971  1  0.709500  0.724900  0.894390  1
  C  C2972  1  0.790500  0.775100  0.394390  1
  C  C2973  1  0.316000  0.263900  0.078280  1
  C  C2974  1  0.184000  0.236100  0.578280  1
  C  C2975  1  0.684000  0.736100  0.921720  1
  C  C2976  1  0.816000  0.763900  0.421720  1
  C  C2977  1  0.333000  0.217930  0.074480  1
  C  C2978  1  0.167000  0.282070  0.574480  1
  C  C2979  1  0.667000  0.782070  0.925520  1
  C  C2980  1  0.833000  0.717930  0.425520  1
  C  C2981  1  0.326000  0.185830  0.097750  1
  C  C2982  1  0.174000  0.314170  0.597750  1
  C  C2983  1  0.674000  0.814170  0.902250  1
  C  C2984  1  0.826000  0.685830  0.402250  1
  C  C2985  1  0.113100  0.402000  0.253090  1
  C  C2986  1  0.386900  0.098000  0.753090  1
  C  C2987  1  0.886900  0.598000  0.746910  1
  C  C2988  1  0.613100  0.902000  0.246910  1
  C  C2989  1  0.057800  0.369600  0.249500  1
  C  C2990  1  0.442200  0.130400  0.749500  1
  C  C2991  1  0.942200  0.630400  0.750500  1
  C  C2992  1  0.557800  0.869600  0.250500  1
  C  C2993  1  0.023200  0.391100  0.300490  1
  C  C2994  1  0.476800  0.108900  0.800490  1
  C  C2995  1  0.976800  0.608900  0.699510  1
  C  C2996  1  0.523200  0.891100  0.199510  1
  C  C2997  1  0.035500  0.377600  0.332440  1
  C  C2998  1  0.464500  0.122400  0.832440  1
  C  C2999  1  0.964500  0.622400  0.667560  1
  C  C3000  1  0.535500  0.877600  0.167560  1
  C  C3001  1  0.011500  0.311300  0.282950  1
  C  C3002  1  0.488500  0.188700  0.782950  1
  C  C3003  1  0.988500  0.688700  0.717050  1
  C  C3004  1  0.511500  0.811300  0.217050  1
  C  C3005  1  0.049800  0.273000  0.273000  1
  C  C3006  1  0.450200  0.227000  0.773000  1
  C  C3007  1  0.950200  0.727000  0.727000  1
  C  C3008  1  0.549800  0.773000  0.227000  1
  C  C3009  1  0.833400  0.384200  0.520700  1
  C  C3010  1  0.666600  0.115800  0.020700  1
  C  C3011  1  0.166600  0.615800  0.479300  1
  C  C3012  1  0.333400  0.884200  0.979300  1
  C  C3013  1  0.826200  0.414700  0.546300  1
  C  C3014  1  0.673800  0.085300  0.046300  1
  C  C3015  1  0.173800  0.585300  0.453700  1
  C  C3016  1  0.326200  0.914700  0.953700  1
  C  C3017  1  0.125000  0.561900  0.410200  1
  C  C3018  1  0.375000  0.938100  0.910200  1
  C  C3019  1  0.875000  0.438100  0.589800  1
  C  C3020  1  0.625000  0.061900  0.089800  1
  C  C3021  1  0.071200  0.570000  0.425100  1
  C  C3022  1  0.428800  0.930000  0.925100  1
  C  C3023  1  0.928800  0.430000  0.574900  1
  C  C3024  1  0.571200  0.070000  0.074900  1
  C  C3025  1  0.495000  0.498900  0.453800  1
  C  C3026  1  0.005000  0.001100  0.953800  1
  C  C3027  1  0.505000  0.501100  0.546200  1
  C  C3028  1  0.995000  0.998900  0.046200  1
  C  C3029  1  0.489800  0.500700  0.420700  1
  C  C3030  1  0.010200  0.999300  0.920700  1
  C  C3031  1  0.510200  0.499300  0.579300  1
  C  C3032  1  0.989800  0.000700  0.079300  1
  C  C3033  1  0.491700  0.009700  0.610900  1
  C  C3034  1  0.008300  0.490300  0.110900  1
  C  C3035  1  0.508300  0.990300  0.389100  1
  C  C3036  1  0.991700  0.509700  0.889100  1
  C  C3037  1  0.511400  0.053500  0.616400  1
  C  C3038  1  0.988600  0.446500  0.116400  1
  C  C3039  1  0.488600  0.946500  0.383600  1
  C  C3040  1  0.011400  0.553500  0.883600  1
  C  C3041  1  0.570700  0.118700  0.608400  1
  C  C3042  1  0.929300  0.381300  0.108400  1
  C  C3043  1  0.429300  0.881300  0.391600  1
  C  C3044  1  0.070700  0.618700  0.891600  1
  C  C3045  1  0.618700  0.136400  0.597000  1
  C  C3046  1  0.881300  0.363600  0.097000  1
  C  C3047  1  0.381300  0.863600  0.403000  1
  C  C3048  1  0.118700  0.636400  0.903000  1
  C  C3049  1  0.286000  0.966500  0.209500  1
  C  C3050  1  0.214000  0.533500  0.709500  1
  C  C3051  1  0.714000  0.033500  0.790500  1
  C  C3052  1  0.786000  0.466500  0.290500  1
  C  C3053  1  0.244700  0.983000  0.239300  1
  C  C3054  1  0.255300  0.517000  0.739300  1
  C  C3055  1  0.755300  0.017000  0.760700  1
  C  C3056  1  0.744700  0.483000  0.260700  1
  C  C3057  1  0.392100  0.955500  0.184900  1
  C  C3058  1  0.107900  0.544500  0.684900  1
  C  C3059  1  0.607900  0.044500  0.815100  1
  C  C3060  1  0.892100  0.455500  0.315100  1
  C  C3061  1  0.344000  0.920500  0.184600  1
  C  C3062  1  0.156000  0.579500  0.684600  1
  C  C3063  1  0.656000  0.079500  0.815400  1
  C  C3064  1  0.844000  0.420500  0.315400  1
  C  C3065  1  0.997100  0.144400  0.311700  1
  C  C3066  1  0.502900  0.355600  0.811700  1
  C  C3067  1  0.002900  0.855600  0.688300  1
  C  C3068  1  0.497100  0.644400  0.188300  1
  C  C3069  1  0.081300  0.022500  0.276700  1
  C  C3070  1  0.418700  0.477500  0.776700  1
  C  C3071  1  0.918700  0.977500  0.723300  1
  C  C3072  1  0.581300  0.522500  0.223300  1
  C  C3073  1  0.998600  0.118600  0.320600  1
  C  C3074  1  0.501400  0.381400  0.820600  1
  C  C3075  1  0.001400  0.881400  0.679400  1
  C  C3076  1  0.498600  0.618600  0.179400  1
  C  C3077  1  0.103100  0.019500  0.256700  1
  C  C3078  1  0.396900  0.480500  0.756700  1
  C  C3079  1  0.896900  0.980500  0.743300  1
  C  C3080  1  0.603100  0.519500  0.243300  1
  C  C3081  1  0.063500  0.522600  0.319700  1
  C  C3082  1  0.436500  0.977400  0.819700  1
  C  C3083  1  0.936500  0.477400  0.680300  1
  C  C3084  1  0.563500  0.022600  0.180300  1
  C  C3085  1  0.061600  0.638000  0.261700  1
  C  C3086  1  0.438400  0.862000  0.761700  1
  C  C3087  1  0.938400  0.362000  0.738300  1
  C  C3088  1  0.561600  0.138000  0.238300  1
  C  C3089  1  0.071900  0.537700  0.215300  1
  C  C3090  1  0.428100  0.962300  0.715300  1
  C  C3091  1  0.928100  0.462300  0.784700  1
  C  C3092  1  0.571900  0.037700  0.284700  1
  C  C3093  1  0.097600  0.664200  0.288800  1
  C  C3094  1  0.402400  0.835800  0.788800  1
  C  C3095  1  0.902400  0.335800  0.711200  1
  C  C3096  1  0.597600  0.164200  0.211200  1
  C  C3097  1  0.177900  0.576900  0.160800  1
  C  C3098  1  0.322100  0.923100  0.660800  1
  C  C3099  1  0.822100  0.423100  0.839200  1
  C  C3100  1  0.677900  0.076900  0.339200  1
  C  C3101  1  0.234800  0.596600  0.164200  1
  C  C3102  1  0.265200  0.903400  0.664200  1
  C  C3103  1  0.765200  0.403400  0.835800  1
  C  C3104  1  0.734800  0.096600  0.335800  1
  C  C3105  1  0.147700  0.521100  0.191700  1
  C  C3106  1  0.352300  0.978900  0.691700  1
  C  C3107  1  0.852300  0.478900  0.808300  1
  C  C3108  1  0.647700  0.021100  0.308300  1
  C  C3109  1  0.114800  0.523000  0.164300  1
  C  C3110  1  0.385200  0.977000  0.664300  1
  C  C3111  1  0.885200  0.477000  0.835700  1
  C  C3112  1  0.614800  0.023000  0.335700  1
  C  C3113  1  0.072500  0.313400  0.162100  1
  C  C3114  1  0.427500  0.186600  0.662100  1
  C  C3115  1  0.927500  0.686600  0.837900  1
  C  C3116  1  0.572500  0.813400  0.337900  1
  C  C3117  1  0.027800  0.326900  0.141100  1
  C  C3118  1  0.472200  0.173100  0.641100  1
  C  C3119  1  0.972200  0.673100  0.858900  1
  C  C3120  1  0.527800  0.826900  0.358900  1
  C  C3121  1  0.326800  0.622000  0.463600  1
  C  C3122  1  0.173200  0.878000  0.963600  1
  C  C3123  1  0.673200  0.378000  0.536400  1
  C  C3124  1  0.826800  0.122000  0.036400  1
  C  C3125  1  0.503500  0.730900  0.437500  1
  C  C3126  1  0.996500  0.769100  0.937500  1
  C  C3127  1  0.496500  0.269100  0.562500  1
  C  C3128  1  0.003500  0.230900  0.062500  1
  C  C3129  1  0.348400  0.633300  0.454700  1
  C  C3130  1  0.151600  0.866700  0.954700  1
  C  C3131  1  0.651600  0.366700  0.545300  1
  C  C3132  1  0.848400  0.133300  0.045300  1
  C  C3133  1  0.483000  0.760900  0.413400  1
  C  C3134  1  0.017000  0.739100  0.913400  1
  C  C3135  1  0.517000  0.239100  0.586600  1
  C  C3136  1  0.983000  0.260900  0.086600  1
  S  S3137  1  0.365800  0.663700  0.435770  1
  S  S3138  1  0.134200  0.836300  0.935770  1
  S  S3139  1  0.634200  0.336300  0.564230  1
  S  S3140  1  0.865800  0.163700  0.064230  1
  S  S3141  1  0.432800  0.740600  0.429980  1
  S  S3142  1  0.067200  0.759400  0.929980  1
  S  S3143  1  0.567200  0.259400  0.570020  1
  S  S3144  1  0.932800  0.240600  0.070020  1
  S  S3145  1  0.015100  0.083200  0.312170  1
  S  S3146  1  0.484900  0.416800  0.812170  1
  S  S3147  1  0.984900  0.916800  0.687830  1
  S  S3148  1  0.515100  0.583200  0.187830  1
  S  S3149  1  0.102200  0.081400  0.263990  1
  S  S3150  1  0.397800  0.418600  0.763990  1
  S  S3151  1  0.897800  0.918600  0.736010  1
  S  S3152  1  0.602200  0.581400  0.236010  1
  S  S3153  1  0.016000  0.122560  0.281000  1
  S  S3154  1  0.484000  0.377440  0.781000  1
  S  S3155  1  0.984000  0.877440  0.719000  1
  S  S3156  1  0.516000  0.622560  0.219000  1
  S  S3157  1  0.105500  0.081800  0.259200  1
  S  S3158  1  0.394500  0.418200  0.759200  1
  S  S3159  1  0.894500  0.918200  0.740800  1
  S  S3160  1  0.605500  0.581800  0.240800  1
  S  S3161  1  0.032500  0.537800  0.283500  1
  S  S3162  1  0.467500  0.962200  0.783500  1
  S  S3163  1  0.967500  0.462200  0.716500  1
  S  S3164  1  0.532500  0.037800  0.216500  1
  S  S3165  1  0.095100  0.592900  0.239100  1
  S  S3166  1  0.404900  0.907100  0.739100  1
  S  S3167  1  0.904900  0.407100  0.760900  1
  S  S3168  1  0.595100  0.092900  0.260900  1
  S  S3169  1  0.114300  0.632000  0.253900  1
  S  S3170  1  0.385700  0.868000  0.753900  1
  S  S3171  1  0.885700  0.368000  0.746100  1
  S  S3172  1  0.614300  0.132000  0.246100  1
  S  S3173  1  0.028700  0.563700  0.244800  1
  S  S3174  1  0.471300  0.936300  0.744800  1
  S  S3175  1  0.971300  0.436300  0.755200  1
  S  S3176  1  0.528700  0.063700  0.255200  1
  S  S3177  1  0.466600  0.676000  0.428900  1
  S  S3178  1  0.033400  0.824000  0.928900  1
  S  S3179  1  0.533400  0.324000  0.571100  1
  S  S3180  1  0.966600  0.176000  0.071100  1
  S  S3181  1  0.402500  0.607100  0.461000  1
  S  S3182  1  0.097500  0.892900  0.961000  1
  S  S3183  1  0.597500  0.392900  0.539000  1
  S  S3184  1  0.902500  0.107100  0.039000  1
  S  S3185  1  0.501800  0.712200  0.440100  1
  S  S3186  1  0.998200  0.787800  0.940100  1
  S  S3187  1  0.498200  0.287800  0.559900  1
  S  S3188  1  0.001800  0.212200  0.059900  1
  S  S3189  1  0.417600  0.641400  0.438100  1
  S  S3190  1  0.082400  0.858600  0.938100  1
  S  S3191  1  0.582400  0.358600  0.561900  1
  S  S3192  1  0.917600  0.141400  0.061900  1
  N  N3193  1  0.115600  0.555300  0.153200  1
  N  N3194  1  0.384400  0.944700  0.653200  1
  N  N3195  1  0.884400  0.444700  0.846800  1
  N  N3196  1  0.615600  0.055300  0.346800  1
  N  N3197  1  0.964400  0.427660  0.393970  1
  N  N3198  1  0.535600  0.072340  0.893970  1
  N  N3199  1  0.035600  0.572340  0.606030  1
  N  N3200  1  0.464400  0.927660  0.106030  1
  N  N3201  1  0.849300  0.359600  0.507000  1
  N  N3202  1  0.650700  0.140400  0.007000  1
  N  N3203  1  0.150700  0.640400  0.493000  1
  N  N3204  1  0.349300  0.859600  0.993000  1
  N  N3205  1  0.164700  0.546200  0.386600  1
  N  N3206  1  0.335300  0.953800  0.886600  1
  N  N3207  1  0.835300  0.453800  0.613400  1
  N  N3208  1  0.664700  0.046200  0.113400  1
  N  N3209  1  0.725400  0.176100  0.602700  1
  N  N3210  1  0.774600  0.323900  0.102700  1
  N  N3211  1  0.274600  0.823900  0.397300  1
  N  N3212  1  0.225400  0.676100  0.897300  1
  N  N3213  1  0.519800  0.559200  0.414200  1
  N  N3214  1  0.980200  0.940800  0.914200  1
  N  N3215  1  0.480200  0.440800  0.585800  1
  N  N3216  1  0.019800  0.059200  0.085800  1
  N  N3217  1  0.139300  0.916000  0.321610  1
  N  N3218  1  0.360700  0.584000  0.821610  1
  N  N3219  1  0.860700  0.084000  0.678390  1
  N  N3220  1  0.639300  0.416000  0.178390  1
  N  N3221  1  0.245500  0.974600  0.209300  1
  N  N3222  1  0.254500  0.525400  0.709300  1
  N  N3223  1  0.754500  0.025400  0.790700  1
  N  N3224  1  0.745500  0.474600  0.290700  1
  N  N3225  1  0.387900  0.712200  0.450000  1
  N  N3226  1  0.112100  0.787800  0.950000  1
  N  N3227  1  0.612100  0.287800  0.550000  1
  N  N3228  1  0.887900  0.212200  0.050000  1
  N  N3229  1  0.679140  0.197800  0.486770  1
  N  N3230  1  0.820860  0.302200  0.986770  1
  N  N3231  1  0.320860  0.802200  0.513230  1
  N  N3232  1  0.179140  0.697800  0.013230  1
  N  N3233  1  0.646330  0.209500  0.431950  1
  N  N3234  1  0.853670  0.290500  0.931950  1
  N  N3235  1  0.353670  0.790500  0.568050  1
  N  N3236  1  0.146330  0.709500  0.068050  1
  N  N3237  1  0.390800  0.546710  0.287470  1
  N  N3238  1  0.109200  0.953290  0.787470  1
  N  N3239  1  0.609200  0.453290  0.712530  1
  N  N3240  1  0.890800  0.046710  0.212530  1
  N  N3241  1  0.332000  0.616790  0.273370  1
  N  N3242  1  0.168000  0.883210  0.773370  1
  N  N3243  1  0.668000  0.383210  0.726630  1
  N  N3244  1  0.832000  0.116790  0.226630  1
  N  N3245  1  0.367010  0.174270  0.175000  1
  N  N3246  1  0.132990  0.325730  0.675000  1
  N  N3247  1  0.632990  0.825730  0.825000  1
  N  N3248  1  0.867010  0.674270  0.325000  1
  N  N3249  1  0.331210  0.103900  0.143370  1
  N  N3250  1  0.168790  0.396100  0.643370  1
  N  N3251  1  0.668790  0.896100  0.856630  1
  N  N3252  1  0.831210  0.603900  0.356630  1
  N  N3253  1  0.588440  0.280140  0.298440  1
  N  N3254  1  0.911560  0.219860  0.798440  1
  N  N3255  1  0.411560  0.719860  0.701560  1
  N  N3256  1  0.088440  0.780140  0.201560  1
  N  N3257  1  0.562800  0.378270  0.295730  1
  N  N3258  1  0.937200  0.121730  0.795730  1
  N  N3259  1  0.437200  0.621730  0.704270  1
  N  N3260  1  0.062800  0.878270  0.204270  1
  N  N3261  1  0.525460  0.315810  0.248150  1
  N  N3262  1  0.974540  0.184190  0.748150  1
  N  N3263  1  0.474540  0.684190  0.751850  1
  N  N3264  1  0.025460  0.815810  0.251850  1
  N  N3265  1  0.625000  0.336760  0.260210  1
  N  N3266  1  0.875000  0.163240  0.760210  1
  N  N3267  1  0.375000  0.663240  0.739790  1
  N  N3268  1  0.125000  0.836760  0.239790  1
  N  N3269  1  0.615470  0.110640  0.493190  1
  N  N3270  1  0.884530  0.389360  0.993190  1
  N  N3271  1  0.384530  0.889360  0.506810  1
  N  N3272  1  0.115470  0.610640  0.006810  1
  N  N3273  1  0.563280  0.185110  0.478640  1
  N  N3274  1  0.936720  0.314890  0.978640  1
  N  N3275  1  0.436720  0.814890  0.521360  1
  N  N3276  1  0.063280  0.685110  0.021360  1
  N  N3277  1  0.079680  0.226340  0.471810  1
  N  N3278  1  0.420320  0.273660  0.971810  1
  N  N3279  1  0.920320  0.773660  0.528190  1
  N  N3280  1  0.579680  0.726340  0.028190  1
  N  N3281  1  0.977030  0.199320  0.472550  1
  N  N3282  1  0.522970  0.300680  0.972550  1
  N  N3283  1  0.022970  0.800680  0.527450  1
  N  N3284  1  0.477030  0.699320  0.027450  1
  N  N3285  1  0.387780  0.570480  0.352020  1
  N  N3286  1  0.112220  0.929520  0.852020  1
  N  N3287  1  0.612220  0.429520  0.647980  1
  N  N3288  1  0.887780  0.070480  0.147980  1
  N  N3289  1  0.425800  0.631770  0.314060  1
  N  N3290  1  0.074200  0.868230  0.814060  1
  N  N3291  1  0.574200  0.368230  0.685940  1
  N  N3292  1  0.925800  0.131770  0.185940  1
  N  N3293  1  0.424120  0.372300  0.476010  1
  N  N3294  1  0.075880  0.127700  0.976010  1
  N  N3295  1  0.575880  0.627700  0.523990  1
  N  N3296  1  0.924120  0.872300  0.023990  1
  N  N3297  1  0.312470  0.337020  0.487930  1
  N  N3298  1  0.187530  0.162980  0.987930  1
  N  N3299  1  0.687530  0.662980  0.512070  1
  N  N3300  1  0.812470  0.837020  0.012070  1
  N  N3301  1  0.329720  0.426640  0.459080  1
  N  N3302  1  0.170280  0.073360  0.959080  1
  N  N3303  1  0.670280  0.573360  0.540920  1
  N  N3304  1  0.829720  0.926640  0.040920  1
  N  N3305  1  0.356970  0.407030  0.512020  1
  N  N3306  1  0.143030  0.092970  0.012020  1
  N  N3307  1  0.643030  0.592970  0.487980  1
  N  N3308  1  0.856970  0.907030  0.987980  1
  N  N3309  1  0.693710  0.122510  0.443760  1
  N  N3310  1  0.806290  0.377490  0.943760  1
  N  N3311  1  0.306290  0.877490  0.556240  1
  N  N3312  1  0.193710  0.622510  0.056240  1
  N  N3313  1  0.588750  0.115800  0.432380  1
  N  N3314  1  0.911250  0.384200  0.932380  1
  N  N3315  1  0.411250  0.884200  0.567620  1
  N  N3316  1  0.088750  0.615800  0.067620  1
  N  N3317  1  0.271820  0.117960  0.196920  1
  N  N3318  1  0.228180  0.382040  0.696920  1
  N  N3319  1  0.728180  0.882040  0.803080  1
  N  N3320  1  0.771820  0.617960  0.303080  1
  N  N3321  1  0.216940  0.130410  0.148310  1
  N  N3322  1  0.283060  0.369590  0.648310  1
  N  N3323  1  0.783060  0.869590  0.851690  1
  N  N3324  1  0.716940  0.630410  0.351690  1
  N  N3325  1  0.114120  0.131710  0.452950  1
  N  N3326  1  0.385880  0.368290  0.952950  1
  N  N3327  1  0.885880  0.868290  0.547050  1
  N  N3328  1  0.614120  0.631710  0.047050  1
  N  N3329  1  0.059440  0.141640  0.502350  1
  N  N3330  1  0.440560  0.358360  0.002350  1
  N  N3331  1  0.940560  0.858360  0.497650  1
  N  N3332  1  0.559440  0.641640  0.997650  1
  N  N3333  1  0.336780  0.063600  0.388010  1
  N  N3334  1  0.163220  0.436400  0.888010  1
  N  N3335  1  0.663220  0.936400  0.611990  1
  N  N3336  1  0.836780  0.563600  0.111990  1
  N  N3337  1  0.378140  0.061630  0.326550  1
  N  N3338  1  0.121860  0.438370  0.826550  1
  N  N3339  1  0.621860  0.938370  0.673450  1
  N  N3340  1  0.878140  0.561630  0.173450  1
  N  N3341  1  0.259830  0.067990  0.337840  1
  N  N3342  1  0.240170  0.432010  0.837840  1
  N  N3343  1  0.740170  0.932010  0.662160  1
  N  N3344  1  0.759830  0.567990  0.162160  1
  N  N3345  1  0.318240  0.999390  0.350810  1
  N  N3346  1  0.181760  0.500610  0.850810  1
  N  N3347  1  0.681760  0.000610  0.649190  1
  N  N3348  1  0.818240  0.499390  0.149190  1
  N  N3349  1  0.316920  0.641820  0.337470  1
  N  N3350  1  0.183080  0.858180  0.837470  1
  N  N3351  1  0.683080  0.358180  0.662530  1
  N  N3352  1  0.816920  0.141820  0.162530  1
  N  N3353  1  0.284150  0.560450  0.317960  1
  N  N3354  1  0.215850  0.939550  0.817960  1
  N  N3355  1  0.715850  0.439550  0.682040  1
  N  N3356  1  0.784150  0.060450  0.182040  1
  N  N3357  1  0.030560  0.184740  0.418380  1
  N  N3358  1  0.469440  0.315260  0.918380  1
  N  N3359  1  0.969440  0.815260  0.581620  1
  N  N3360  1  0.530560  0.684740  0.081620  1
  N  N3361  1  0.001640  0.109680  0.446780  1
  N  N3362  1  0.498360  0.390320  0.946780  1
  N  N3363  1  0.998360  0.890320  0.553220  1
  N  N3364  1  0.501640  0.609680  0.053220  1
  N  N3365  1  0.255500  0.215010  0.175490  1
  N  N3366  1  0.244500  0.284990  0.675490  1
  N  N3367  1  0.744500  0.784990  0.824510  1
  N  N3368  1  0.755500  0.715010  0.324510  1
  N  N3369  1  0.301790  0.196650  0.124340  1
  N  N3370  1  0.198210  0.303350  0.624340  1
  N  N3371  1  0.698210  0.803350  0.875660  1
  N  N3372  1  0.801790  0.696650  0.375660  1
  N  N3373  1  0.147300  0.375200  0.273590  1
  N  N3374  1  0.352700  0.124800  0.773590  1
  N  N3375  1  0.852700  0.624800  0.726410  1
  N  N3376  1  0.647300  0.875200  0.226410  1
  N  N3377  1  0.092600  0.360440  0.330760  1
  N  N3378  1  0.407400  0.139560  0.830760  1
  N  N3379  1  0.907400  0.639560  0.669240  1
  N  N3380  1  0.592600  0.860440  0.169240  1
  N  N3381  1  0.101930  0.284470  0.288740  1
  N  N3382  1  0.398070  0.215530  0.788740  1
  N  N3383  1  0.898070  0.715530  0.711260  1
  N  N3384  1  0.601930  0.784470  0.211260  1
  N  N3385  1  0.046300  0.356730  0.280470  1
  N  N3386  1  0.453700  0.143270  0.780470  1
  N  N3387  1  0.953700  0.643270  0.719530  1
  N  N3388  1  0.546300  0.856730  0.219530  1
  N  N3389  1  0.826900  0.360700  0.498800  1
  N  N3390  1  0.673100  0.139300  0.998800  1
  N  N3391  1  0.173100  0.639300  0.501200  1
  N  N3392  1  0.326900  0.860700  0.001200  1
  N  N3393  1  0.170800  0.564800  0.401900  1
  N  N3394  1  0.329200  0.935200  0.901900  1
  N  N3395  1  0.829200  0.435200  0.598100  1
  N  N3396  1  0.670800  0.064800  0.098100  1
  N  N3397  1  0.502000  0.495900  0.479200  1
  N  N3398  1  0.998000  0.004100  0.979200  1
  N  N3399  1  0.498000  0.504100  0.520800  1
  N  N3400  1  0.002000  0.995900  0.020800  1
  N  N3401  1  0.324300  0.970100  0.209100  1
  N  N3402  1  0.175700  0.529900  0.709100  1
  N  N3403  1  0.675700  0.029900  0.790900  1
  N  N3404  1  0.824300  0.470100  0.290900  1
  N  N3405  1  0.433000  0.976700  0.196400  1
  N  N3406  1  0.067000  0.523300  0.696400  1
  N  N3407  1  0.567000  0.023300  0.803600  1
  N  N3408  1  0.933000  0.476700  0.303600  1
  N  N3409  1  0.078300  0.086800  0.299300  1
  N  N3410  1  0.421700  0.413200  0.799300  1
  N  N3411  1  0.921700  0.913200  0.700700  1
  N  N3412  1  0.578300  0.586800  0.200700  1
  N  N3413  1  0.079400  0.115500  0.282400  1
  N  N3414  1  0.420600  0.384500  0.782400  1
  N  N3415  1  0.920600  0.884500  0.717600  1
  N  N3416  1  0.579400  0.615500  0.217600  1
  N  N3417  1  0.086500  0.544400  0.259700  1
  N  N3418  1  0.413500  0.955600  0.759700  1
  N  N3419  1  0.913500  0.455600  0.740300  1
  N  N3420  1  0.586500  0.044400  0.240300  1
  N  N3421  1  0.046700  0.619100  0.246300  1
  N  N3422  1  0.453300  0.880900  0.746300  1
  N  N3423  1  0.953300  0.380900  0.753700  1
  N  N3424  1  0.546700  0.119100  0.253700  1
  N  N3425  1  0.135300  0.567800  0.149000  1
  N  N3426  1  0.364700  0.932200  0.649000  1
  N  N3427  1  0.864700  0.432200  0.851000  1
  N  N3428  1  0.635300  0.067800  0.351000  1
  N  N3429  1  0.087500  0.519200  0.141100  1
  N  N3430  1  0.412500  0.980800  0.641100  1
  N  N3431  1  0.912500  0.480800  0.858900  1
  N  N3432  1  0.587500  0.019200  0.358900  1
  N  N3433  1  0.106000  0.300500  0.178700  1
  N  N3434  1  0.394000  0.199500  0.678700  1
  N  N3435  1  0.894000  0.699500  0.821300  1
  N  N3436  1  0.606000  0.800500  0.321300  1
  N  N3437  1  0.433100  0.660100  0.459000  1
  N  N3438  1  0.066900  0.839900  0.959000  1
  N  N3439  1  0.566900  0.339900  0.541000  1
  N  N3440  1  0.933100  0.160100  0.041000  1
  N  N3441  1  0.442200  0.691700  0.451100  1
  N  N3442  1  0.057800  0.808300  0.951100  1
  N  N3443  1  0.557800  0.308300  0.548900  1
  N  N3444  1  0.942200  0.191700  0.048900  1
  O  O3445  1  0.088500  0.397500  0.181700  1
  O  O3446  1  0.411500  0.102500  0.681700  1
  O  O3447  1  0.911500  0.602500  0.818300  1
  O  O3448  1  0.588500  0.897500  0.318300  1
  O  O3449  1  0.387700  0.641100  0.409950  1
  O  O3450  1  0.112300  0.858900  0.909950  1
  O  O3451  1  0.612300  0.358900  0.590050  1
  O  O3452  1  0.887700  0.141100  0.090050  1
  O  O3453  1  0.426400  0.739200  0.397300  1
  O  O3454  1  0.073600  0.760800  0.897300  1
  O  O3455  1  0.573600  0.260800  0.602700  1
  O  O3456  1  0.926400  0.239200  0.102700  1
  O  O3457  1  0.306000  0.672200  0.435800  1
  O  O3458  1  0.194000  0.827800  0.935800  1
  O  O3459  1  0.694000  0.327800  0.564200  1
  O  O3460  1  0.806000  0.172200  0.064200  1
  O  O3461  1  0.430000  0.784400  0.445300  1
  O  O3462  1  0.070000  0.715600  0.945300  1
  O  O3463  1  0.570000  0.215600  0.554700  1
  O  O3464  1  0.930000  0.284400  0.054700  1
  O  O3465  1  0.146000  0.226700  0.081300  1
  O  O3466  1  0.354000  0.273300  0.581300  1
  O  O3467  1  0.854000  0.773300  0.918700  1
  O  O3468  1  0.646000  0.726700  0.418700  1
  O  O3469  1  0.554600  0.073700  0.606200  1
  O  O3470  1  0.945400  0.426300  0.106200  1
  O  O3471  1  0.445400  0.926300  0.393800  1
  O  O3472  1  0.054600  0.573700  0.893800  1
  O  O3473  1  0.018900  0.068300  0.343200  1
  O  O3474  1  0.481100  0.431700  0.843200  1
  O  O3475  1  0.981100  0.931700  0.656800  1
  O  O3476  1  0.518900  0.568300  0.156800  1
  O  O3477  1  0.975700  0.057800  0.295900  1
  O  O3478  1  0.524300  0.442200  0.795900  1
  O  O3479  1  0.024300  0.942200  0.704100  1
  O  O3480  1  0.475700  0.557800  0.204100  1
  O  O3481  1  0.164200  0.079100  0.264900  1
  O  O3482  1  0.335800  0.420900  0.764900  1
  O  O3483  1  0.835800  0.920900  0.735100  1
  O  O3484  1  0.664200  0.579100  0.235100  1
  O  O3485  1  0.059000  0.100400  0.244600  1
  O  O3486  1  0.441000  0.399600  0.744600  1
  O  O3487  1  0.941000  0.899600  0.755400  1
  O  O3488  1  0.559000  0.600400  0.255400  1
  O  O3489  1  0.010400  0.172700  0.274300  1
  O  O3490  1  0.489600  0.327300  0.774300  1
  O  O3491  1  0.989600  0.827300  0.725700  1
  O  O3492  1  0.510400  0.672700  0.225700  1
  O  O3493  1  0.979000  0.090200  0.265300  1
  O  O3494  1  0.521000  0.409800  0.765300  1
  O  O3495  1  0.021000  0.909800  0.734700  1
  O  O3496  1  0.479000  0.590200  0.234700  1
  O  O3497  1  0.088200  0.079600  0.228400  1
  O  O3498  1  0.411800  0.420400  0.728400  1
  O  O3499  1  0.911800  0.920400  0.771600  1
  O  O3500  1  0.588200  0.579600  0.271600  1
  O  O3501  1  0.157200  0.100700  0.262100  1
  O  O3502  1  0.342800  0.399300  0.762100  1
  O  O3503  1  0.842800  0.899300  0.737900  1
  O  O3504  1  0.657200  0.600700  0.237900  1
  O  O3505  1  0.070300  0.577000  0.211000  1
  O  O3506  1  0.429700  0.923000  0.711000  1
  O  O3507  1  0.929700  0.423000  0.789000  1
  O  O3508  1  0.570300  0.077000  0.289000  1
  O  O3509  1  0.152900  0.604400  0.243200  1
  O  O3510  1  0.347100  0.895600  0.743200  1
  O  O3511  1  0.847100  0.395600  0.756800  1
  O  O3512  1  0.652900  0.104400  0.256800  1
  O  O3513  1  0.005400  0.581200  0.287000  1
  O  O3514  1  0.494600  0.918800  0.787000  1
  O  O3515  1  0.994600  0.418800  0.713000  1
  O  O3516  1  0.505400  0.081200  0.213000  1
  O  O3517  1  0.003300  0.496400  0.273500  1
  O  O3518  1  0.496700  0.003600  0.773500  1
  O  O3519  1  0.996700  0.503600  0.726500  1
  O  O3520  1  0.503300  0.996400  0.226500  1
  O  O3521  1  0.972300  0.557800  0.236000  1
  O  O3522  1  0.527700  0.942200  0.736000  1
  O  O3523  1  0.027700  0.442200  0.764000  1
  O  O3524  1  0.472300  0.057800  0.264000  1
  O  O3525  1  0.133800  0.663800  0.231700  1
  O  O3526  1  0.366200  0.836200  0.731700  1
  O  O3527  1  0.866200  0.336200  0.768300  1
  O  O3528  1  0.633800  0.163800  0.268300  1
  O  O3529  1  0.049000  0.538900  0.271700  1
  O  O3530  1  0.451000  0.961100  0.771700  1
  O  O3531  1  0.951000  0.461100  0.728300  1
  O  O3532  1  0.549000  0.038900  0.228300  1
  O  O3533  1  0.141300  0.593000  0.266000  1
  O  O3534  1  0.358700  0.907000  0.766000  1
  O  O3535  1  0.858700  0.407000  0.734000  1
  O  O3536  1  0.641300  0.093000  0.234000  1
  O  O3537  1  0.413200  0.593100  0.489900  1
  O  O3538  1  0.086800  0.906900  0.989900  1
  O  O3539  1  0.586800  0.406900  0.510100  1
  O  O3540  1  0.913200  0.093100  0.010100  1
  O  O3541  1  0.510400  0.646700  0.418300  1
  O  O3542  1  0.989600  0.853300  0.918300  1
  O  O3543  1  0.489600  0.353300  0.581700  1
  O  O3544  1  0.010400  0.146700  0.081700  1
  O  O3545  1  0.426500  0.687800  0.405000  1
  O  O3546  1  0.073500  0.812200  0.905000  1
  O  O3547  1  0.573500  0.312200  0.595000  1
  O  O3548  1  0.926500  0.187800  0.095000  1
  O  O3549  1  0.406700  0.579400  0.434300  1
  O  O3550  1  0.093300  0.920600  0.934300  1
  O  O3551  1  0.593300  0.420600  0.565700  1
  O  O3552  1  0.906700  0.079400  0.065700  1
  O  O3553  1  0.543000  0.690200  0.421700  1
  O  O3554  1  0.957000  0.809800  0.921700  1
  O  O3555  1  0.457000  0.309800  0.578300  1
  O  O3556  1  0.043000  0.190200  0.078300  1
  O  O3557  1  0.458800  0.605600  0.436500  1
  O  O3558  1  0.041200  0.894400  0.936500  1
  O  O3559  1  0.541200  0.394400  0.563500  1
  O  O3560  1  0.958800  0.105600  0.063500  1
  O  O3561  1  0.404300  0.657300  0.406500  1
  O  O3562  1  0.095700  0.842700  0.906500  1
  O  O3563  1  0.595700  0.342700  0.593500  1
  O  O3564  1  0.904300  0.157300  0.093500  1
  O  O3565  1  0.522600  0.743200  0.465100  1
  O  O3566  1  0.977400  0.756800  0.965100  1
  O  O3567  1  0.477400  0.256800  0.534900  1
  O  O3568  1  0.022600  0.243200  0.034900  1
  F  F3569  1  0.425600  0.610200  0.467200  1
  F  F3570  1  0.074400  0.889800  0.967200  1
  F  F3571  1  0.574400  0.389800  0.532800  1
  F  F3572  1  0.925600  0.110200  0.032800  1
  F  F3573  1  0.350200  0.642800  0.491100  1
  F  F3574  1  0.149800  0.857200  0.991100  1
  F  F3575  1  0.649800  0.357200  0.508900  1
  F  F3576  1  0.850200  0.142800  0.008900  1
  F  F3577  1  0.350600  0.582400  0.458400  1
  F  F3578  1  0.149400  0.917600  0.958400  1
  F  F3579  1  0.649400  0.417600  0.541600  1
  F  F3580  1  0.850600  0.082400  0.041600  1
  F  F3581  1  0.521400  0.723300  0.464240  1
  F  F3582  1  0.978600  0.776700  0.964240  1
  F  F3583  1  0.478600  0.276700  0.535760  1
  F  F3584  1  0.021400  0.223300  0.035760  1
  F  F3585  1  0.509700  0.675100  0.427000  1
  F  F3586  1  0.990300  0.824900  0.927000  1
  F  F3587  1  0.490300  0.324900  0.573000  1
  F  F3588  1  0.009700  0.175100  0.073000  1
  F  F3589  1  0.541800  0.745100  0.418700  1
  F  F3590  1  0.958200  0.754900  0.918700  1
  F  F3591  1  0.458200  0.254900  0.581300  1
  F  F3592  1  0.041800  0.245100  0.081300  1
  F  F3593  1  0.032800  0.172900  0.327000  1
  F  F3594  1  0.467200  0.327100  0.827000  1
  F  F3595  1  0.967200  0.827100  0.673000  1
  F  F3596  1  0.532800  0.672900  0.173000  1
  F  F3597  1  0.948800  0.147100  0.324600  1
  F  F3598  1  0.551200  0.352900  0.824600  1
  F  F3599  1  0.051200  0.852900  0.675400  1
  F  F3600  1  0.448800  0.647100  0.175400  1
  F  F3601  1  0.992500  0.160700  0.283800  1
  F  F3602  1  0.507500  0.339300  0.783800  1
  F  F3603  1  0.007500  0.839300  0.716200  1
  F  F3604  1  0.492500  0.660700  0.216200  1
  F  F3605  1  0.097600  0.022200  0.305900  1
  F  F3606  1  0.402400  0.477800  0.805900  1
  F  F3607  1  0.902400  0.977800  0.694100  1
  F  F3608  1  0.597600  0.522200  0.194100  1
  F  F3609  1  0.036100  0.005500  0.267000  1
  F  F3610  1  0.463900  0.494500  0.767000  1
  F  F3611  1  0.963900  0.994500  0.733000  1
  F  F3612  1  0.536100  0.505500  0.233000  1
  F  F3613  1  0.125700  0.995700  0.271100  1
  F  F3614  1  0.374300  0.504300  0.771100  1
  F  F3615  1  0.874300  0.004300  0.728900  1
  F  F3616  1  0.625700  0.495700  0.228900  1
  F  F3617  1  0.012600  0.083500  0.337600  1
  F  F3618  1  0.487400  0.416500  0.837600  1
  F  F3619  1  0.987400  0.916500  0.662400  1
  F  F3620  1  0.512600  0.583500  0.162400  1
  F  F3621  1  0.945900  0.123300  0.326700  1
  F  F3622  1  0.554100  0.376700  0.826700  1
  F  F3623  1  0.054100  0.876700  0.673300  1
  F  F3624  1  0.445900  0.623300  0.173300  1
  F  F3625  1  0.031500  0.148600  0.336700  1
  F  F3626  1  0.468500  0.351400  0.836700  1
  F  F3627  1  0.968500  0.851400  0.663300  1
  F  F3628  1  0.531500  0.648600  0.163300  1
  F  F3629  1  0.118800  0.020800  0.226800  1
  F  F3630  1  0.381200  0.479200  0.726800  1
  F  F3631  1  0.881200  0.979200  0.773200  1
  F  F3632  1  0.618800  0.520800  0.273200  1
  F  F3633  1  0.053100  0.998200  0.258400  1
  F  F3634  1  0.446900  0.501800  0.758400  1
  F  F3635  1  0.946900  0.001800  0.741600  1
  F  F3636  1  0.553100  0.498200  0.241600  1
  F  F3637  1  0.144100  0.997000  0.267100  1
  F  F3638  1  0.355900  0.503000  0.767100  1
  F  F3639  1  0.855900  0.003000  0.732900  1
  F  F3640  1  0.644100  0.497000  0.232900  1
  F  F3641  1  0.028800  0.500000  0.337700  1
  F  F3642  1  0.471200  1.000000  0.837700  1
  F  F3643  1  0.971200  0.500000  0.662300  1
  F  F3644  1  0.528800  0.000000  0.162300  1
  F  F3645  1  0.083400  0.559300  0.334900  1
  F  F3646  1  0.416600  0.940700  0.834900  1
  F  F3647  1  0.916600  0.440700  0.665100  1
  F  F3648  1  0.583400  0.059300  0.165100  1
  F  F3649  1  0.050600  0.629500  0.291000  1
  F  F3650  1  0.449400  0.870500  0.791000  1
  F  F3651  1  0.949400  0.370500  0.709000  1
  F  F3652  1  0.550600  0.129500  0.209000  1
  F  F3653  1  0.080400  0.682900  0.266500  1
  F  F3654  1  0.419600  0.817100  0.766500  1
  F  F3655  1  0.919600  0.317100  0.733500  1
  F  F3656  1  0.580400  0.182900  0.233500  1
  F  F3657  1  0.013400  0.643100  0.248000  1
  F  F3658  1  0.486600  0.856900  0.748000  1
  F  F3659  1  0.986600  0.356900  0.752000  1
  F  F3660  1  0.513400  0.143100  0.252000  1
  F  F3661  1  0.103800  0.493600  0.314000  1
  F  F3662  1  0.396200  0.006400  0.814000  1
  F  F3663  1  0.896200  0.506400  0.686000  1
  F  F3664  1  0.603800  0.993600  0.186000  1
  F  F3665  1  0.047000  0.510000  0.195900  1
  F  F3666  1  0.453000  0.990000  0.695900  1
  F  F3667  1  0.953000  0.490000  0.804100  1
  F  F3668  1  0.547000  0.010000  0.304100  1
  F  F3669  1  0.101000  0.571600  0.201800  1
  F  F3670  1  0.399000  0.928400  0.701800  1
  F  F3671  1  0.899000  0.428400  0.798200  1
  F  F3672  1  0.601000  0.071600  0.298200  1
  F  F3673  1  0.081700  0.705600  0.280400  1
  F  F3674  1  0.418300  0.794400  0.780400  1
  F  F3675  1  0.918300  0.294400  0.719600  1
  F  F3676  1  0.581700  0.205600  0.219600  1
  F  F3677  1  0.051600  0.641900  0.299000  1
  F  F3678  1  0.448400  0.858100  0.799000  1
  F  F3679  1  0.948400  0.358100  0.701000  1
  F  F3680  1  0.551600  0.141900  0.201000  1
  F  F3681  1  0.139500  0.656600  0.306700  1
  F  F3682  1  0.360500  0.843400  0.806700  1
  F  F3683  1  0.860500  0.343400  0.693300  1
  F  F3684  1  0.639500  0.156600  0.193300  1
  F  F3685  1  0.107500  0.512700  0.231400  1
  F  F3686  1  0.392500  0.987300  0.731400  1
  F  F3687  1  0.892500  0.487300  0.768600  1
  F  F3688  1  0.607500  0.012700  0.268600  1
  F  F3689  1  0.298500  0.582500  0.470000  1
  F  F3690  1  0.201500  0.917500  0.970000  1
  F  F3691  1  0.701500  0.417500  0.530000  1
  F  F3692  1  0.798500  0.082500  0.030000  1
  F  F3693  1  0.318600  0.650200  0.486100  1
  F  F3694  1  0.181400  0.849800  0.986100  1
  F  F3695  1  0.681400  0.349800  0.513900  1
  F  F3696  1  0.818600  0.150200  0.013900  1
  F  F3697  1  0.312700  0.629900  0.435400  1
  F  F3698  1  0.187300  0.870100  0.935400  1
  F  F3699  1  0.687300  0.370100  0.564600  1
  F  F3700  1  0.812700  0.129900  0.064600  1
  F  F3701  1  0.518000  0.747800  0.409000  1
  F  F3702  1  0.982000  0.752200  0.909000  1
  F  F3703  1  0.482000  0.252200  0.591000  1
  F  F3704  1  0.018000  0.247800  0.091000  1
  F  F3705  1  0.550200  0.723600  0.455700  1
  F  F3706  1  0.949800  0.776400  0.955700  1
  F  F3707  1  0.449800  0.276400  0.544300  1
  F  F3708  1  0.050200  0.223600  0.044300  1
  F  F3709  1  0.470800  0.759300  0.452900  1
  F  F3710  1  0.029200  0.740700  0.952900  1
  F  F3711  1  0.529200  0.240700  0.547100  1
  F  F3712  1  0.970800  0.259300  0.047100  1
  F  F3713  1  0.460000  0.737500  0.391400  1
  F  F3714  1  0.040000  0.762500  0.891400  1
  F  F3715  1  0.540000  0.262500  0.608600  1
  F  F3716  1  0.960000  0.237500  0.108600  1
  F  F3717  1  0.353600  0.663600  0.476100  1
  F  F3718  1  0.146400  0.836400  0.976100  1
  F  F3719  1  0.646400  0.336400  0.523900  1
  F  F3720  1  0.853600  0.163600  0.023900  1
  F  F3721  1  0.529500  0.784300  0.407000  1
  F  F3722  1  0.970500  0.715700  0.907000  1
  F  F3723  1  0.470500  0.215700  0.593000  1
  F  F3724  1  0.029500  0.284300  0.093000  1
  F  F3725  1  0.457100  0.791700  0.427400  1
  F  F3726  1  0.042900  0.708300  0.927400  1
  F  F3727  1  0.542900  0.208300  0.572600  1
  F  F3728  1  0.957100  0.291700  0.072600  1
  F  F3729  1  0.301600  0.656600  0.444300  1
  F  F3730  1  0.198400  0.843400  0.944300  1
  F  F3731  1  0.698400  0.343400  0.555700  1
  F  F3732  1  0.801600  0.156600  0.055700  1
  F  F3733  1  0.317400  0.594800  0.455900  1
  F  F3734  1  0.182600  0.905200  0.955900  1
  F  F3735  1  0.682600  0.405200  0.544100  1
  F  F3736  1  0.817400  0.094800  0.044100  1
