# generated using pymatgen
data_Fe48Re72.0P48H2406C2408.0S108.0N592O513.968F324
_symmetry_space_group_name_H-M   'P 1'
_cell_length_a   41.01400000
_cell_length_b   41.49000000
_cell_length_c   48.11700000
_cell_angle_alpha   90.00000000
_cell_angle_beta   90.00000000
_cell_angle_gamma   90.00000000
_symmetry_Int_Tables_number   1
_chemical_formula_structural
Fe48Re72.0P48H2406C2408.0S108.0N592O513.968F324
_chemical_formula_sum
'Fe48 Re72.0 P48 H2406 C2408.0 S108.0 N592 O513.968 F324'
_cell_volume   81879.29677062
_cell_formula_units_Z   1
loop_
 _symmetry_equiv_pos_site_id
 _symmetry_equiv_pos_as_xyz
  1  'x, y, z'
loop_
 _atom_site_type_symbol
 _atom_site_label
 _atom_site_symmetry_multiplicity
 _atom_site_fract_x
 _atom_site_fract_y
 _atom_site_fract_z
 _atom_site_occupancy
  Fe  Fe1  1  0.272350  0.925800  0.519740  1.0
  Fe  Fe2  1  0.227650  0.074200  0.019740  1.0
  Fe  Fe3  1  0.727650  0.425800  0.980260  1.0
  Fe  Fe4  1  0.772350  0.574200  0.480260  1.0
  Fe  Fe5  1  0.077950  0.629950  0.537730  1.0
  Fe  Fe6  1  0.422050  0.370050  0.037730  1.0
  Fe  Fe7  1  0.922050  0.129950  0.962270  1.0
  Fe  Fe8  1  0.577950  0.870050  0.462270  1.0
  Fe  Fe9  1  0.423370  0.605320  0.447280  1.0
  Fe  Fe10  1  0.076630  0.394680  0.947280  1.0
  Fe  Fe11  1  0.576630  0.105320  0.052720  1.0
  Fe  Fe12  1  0.923370  0.894680  0.552720  1.0
  Fe  Fe13  1  0.338440  0.703270  0.737280  1.0
  Fe  Fe14  1  0.161560  0.296730  0.237280  1.0
  Fe  Fe15  1  0.661560  0.203270  0.762720  1.0
  Fe  Fe16  1  0.838440  0.796730  0.262720  1.0
  Fe  Fe17  1  0.554770  0.546470  0.867560  1.0
  Fe  Fe18  1  0.945230  0.453530  0.367560  1.0
  Fe  Fe19  1  0.445230  0.046470  0.632440  1.0
  Fe  Fe20  1  0.054770  0.953530  0.132440  1.0
  Fe  Fe21  1  0.424230  0.217180  0.846560  1.0
  Fe  Fe22  1  0.075770  0.782820  0.346560  1.0
  Fe  Fe23  1  0.575770  0.717180  0.653440  1.0
  Fe  Fe24  1  0.924230  0.282820  0.153440  1.0
  Fe  Fe25  1  0.531620  0.388780  0.594960  1.0
  Fe  Fe26  1  0.968380  0.611220  0.094960  1.0
  Fe  Fe27  1  0.468380  0.888780  0.905040  1.0
  Fe  Fe28  1  0.031620  0.111220  0.405040  1.0
  Fe  Fe29  1  0.225080  0.472130  0.740490  1.0
  Fe  Fe30  1  0.274920  0.527870  0.240490  1.0
  Fe  Fe31  1  0.774920  0.972130  0.759510  1.0
  Fe  Fe32  1  0.725080  0.027870  0.259510  1.0
  Fe  Fe33  1  0.559340  0.350700  0.217850  1.0
  Fe  Fe34  1  0.940660  0.649300  0.717850  1.0
  Fe  Fe35  1  0.440660  0.850700  0.282150  1.0
  Fe  Fe36  1  0.059340  0.149300  0.782150  1.0
  Fe  Fe37  1  0.315610  0.095890  0.262960  1.0
  Fe  Fe38  1  0.184390  0.904110  0.762960  1.0
  Fe  Fe39  1  0.684390  0.595890  0.237040  1.0
  Fe  Fe40  1  0.815610  0.404110  0.737040  1.0
  Fe  Fe41  1  0.599540  0.126020  0.437280  1.0
  Fe  Fe42  1  0.900460  0.873980  0.937280  1.0
  Fe  Fe43  1  0.400460  0.626020  0.062720  1.0
  Fe  Fe44  1  0.099540  0.373980  0.562720  1.0
  Fe  Fe45  1  0.338130  0.377040  0.458260  1.0
  Fe  Fe46  1  0.161870  0.622960  0.958260  1.0
  Fe  Fe47  1  0.661870  0.877040  0.041740  1.0
  Fe  Fe48  1  0.838130  0.122960  0.541740  1.0
  Re  Re49  1  0.927500  0.600600  0.416470  0.153
  Re  Re50  1  0.572500  0.399400  0.916470  0.153
  Re  Re51  1  0.072500  0.100600  0.083530  0.153
  Re  Re52  1  0.427500  0.899400  0.583530  0.153
  Re  Re53  1  0.560970  0.781300  0.339370  0.336
  Re  Re54  1  0.939030  0.218700  0.839370  0.336
  Re  Re55  1  0.439030  0.281300  0.160630  0.336
  Re  Re56  1  0.060970  0.718700  0.660630  0.336
  Re  Re57  1  0.607500  0.723900  0.523000  0.53
  Re  Re58  1  0.892500  0.276100  0.023000  0.53
  Re  Re59  1  0.392500  0.223900  0.977000  0.53
  Re  Re60  1  0.107500  0.776100  0.477000  0.53
  Re  Re61  1  0.277970  0.710500  0.554010  1.0
  Re  Re62  1  0.222030  0.289500  0.054010  1.0
  Re  Re63  1  0.722030  0.210500  0.945990  1.0
  Re  Re64  1  0.777970  0.789500  0.445990  1.0
  Re  Re65  1  0.431100  0.409120  0.761490  1.0
  Re  Re66  1  0.068900  0.590880  0.261490  1.0
  Re  Re67  1  0.568900  0.909120  0.738510  1.0
  Re  Re68  1  0.931100  0.090880  0.238510  1.0
  Re  Re69  1  0.449320  0.239080  0.354850  1.0
  Re  Re70  1  0.050680  0.760920  0.854850  1.0
  Re  Re71  1  0.550680  0.739080  0.145150  1.0
  Re  Re72  1  0.949320  0.260920  0.645150  1.0
  Re  Re73  1  0.454810  0.655280  0.648890  1.0
  Re  Re74  1  0.045190  0.344720  0.148890  1.0
  Re  Re75  1  0.545190  0.155280  0.851110  1.0
  Re  Re76  1  0.954810  0.844720  0.351110  1.0
  Re  Re77  1  0.214700  0.604350  0.707770  1.0
  Re  Re78  1  0.285300  0.395650  0.207770  1.0
  Re  Re79  1  0.785300  0.104350  0.792230  1.0
  Re  Re80  1  0.714700  0.895650  0.292230  1.0
  Re  Re81  1  0.705540  0.347010  0.794220  1.0
  Re  Re82  1  0.794460  0.652990  0.294220  1.0
  Re  Re83  1  0.294460  0.847010  0.705780  1.0
  Re  Re84  1  0.205540  0.152990  0.205780  1.0
  Re  Re85  1  0.331230  0.581700  0.795860  1.0
  Re  Re86  1  0.168770  0.418300  0.295860  1.0
  Re  Re87  1  0.668770  0.081700  0.704140  1.0
  Re  Re88  1  0.831230  0.918300  0.204140  1.0
  Re  Re89  1  0.526250  0.839560  0.568980  1.0
  Re  Re90  1  0.973750  0.160440  0.068980  1.0
  Re  Re91  1  0.473750  0.339560  0.931020  1.0
  Re  Re92  1  0.026250  0.660440  0.431020  1.0
  Re  Re93  1  0.741070  0.278960  0.678000  1.0
  Re  Re94  1  0.758930  0.721040  0.178000  1.0
  Re  Re95  1  0.258930  0.778960  0.822000  1.0
  Re  Re96  1  0.241070  0.221040  0.322000  1.0
  Re  Re97  1  0.292140  0.428200  0.619310  1.0
  Re  Re98  1  0.207860  0.571800  0.119310  1.0
  Re  Re99  1  0.707860  0.928200  0.880690  1.0
  Re  Re100  1  0.792140  0.071800  0.380690  1.0
  Re  Re101  1  0.392300  0.429500  0.360800  0.049
  Re  Re102  1  0.107700  0.570500  0.860800  0.049
  Re  Re103  1  0.607700  0.929500  0.139200  0.049
  Re  Re104  1  0.892300  0.070500  0.639200  0.049
  Re  Re105  1  0.395900  0.696200  0.318800  0.15
  Re  Re106  1  0.104100  0.303800  0.818800  0.15
  Re  Re107  1  0.604100  0.196200  0.181200  0.15
  Re  Re108  1  0.895900  0.803800  0.681200  0.15
  Re  Re109  1  0.390000  0.637200  0.331200  0.2
  Re  Re110  1  0.110000  0.362800  0.831200  0.2
  Re  Re111  1  0.610000  0.137200  0.168800  0.2
  Re  Re112  1  0.890000  0.862800  0.668800  0.2
  Re  Re113  1  0.416800  0.761000  0.432200  0.2
  Re  Re114  1  0.083200  0.239000  0.932200  0.2
  Re  Re115  1  0.583200  0.261000  0.067800  0.2
  Re  Re116  1  0.916800  0.739000  0.567800  0.2
  Re  Re117  1  0.034100  0.751600  0.612900  0.3
  Re  Re118  1  0.465900  0.248400  0.112900  0.3
  Re  Re119  1  0.965900  0.251600  0.887100  0.3
  Re  Re120  1  0.534100  0.748400  0.387100  0.3
  Re  Re121  1  0.034100  0.740100  0.613200  0.3
  Re  Re122  1  0.465900  0.259900  0.113200  0.3
  Re  Re123  1  0.965900  0.240100  0.886800  0.3
  Re  Re124  1  0.534100  0.759900  0.386800  0.3
  Re  Re125  1  0.685120  0.176030  0.608170  0.4
  Re  Re126  1  0.814880  0.823970  0.108170  0.4
  Re  Re127  1  0.314880  0.676030  0.891830  0.4
  Re  Re128  1  0.185120  0.323970  0.391830  0.4
  Re  Re129  1  0.605000  0.723800  0.532000  0.47
  Re  Re130  1  0.895000  0.276200  0.032000  0.47
  Re  Re131  1  0.395000  0.223800  0.968000  0.47
  Re  Re132  1  0.105000  0.776200  0.468000  0.47
  Re  Re133  1  0.232060  0.315060  0.519320  0.5
  Re  Re134  1  0.267940  0.684940  0.019320  0.5
  Re  Re135  1  0.767940  0.815060  0.980680  0.5
  Re  Re136  1  0.732060  0.184940  0.480680  0.5
  Re  Re137  1  0.611210  0.864840  0.323390  0.664
  Re  Re138  1  0.888790  0.135160  0.823390  0.664
  Re  Re139  1  0.388790  0.364840  0.176610  0.664
  Re  Re140  1  0.111210  0.635160  0.676610  0.664
  Re  Re141  1  0.478800  0.727650  0.768760  0.818
  Re  Re142  1  0.021200  0.272350  0.268760  0.818
  Re  Re143  1  0.521200  0.227650  0.731240  0.818
  Re  Re144  1  0.978800  0.772350  0.231240  0.818
  Re  Re145  1  0.851060  0.595650  0.362950  0.847
  Re  Re146  1  0.648940  0.404350  0.862950  0.847
  Re  Re147  1  0.148940  0.095650  0.137050  0.847
  Re  Re148  1  0.351060  0.904350  0.637050  0.847
  Re  Re149  1  0.410170  0.435200  0.346000  0.951
  Re  Re150  1  0.089830  0.564800  0.846000  0.951
  Re  Re151  1  0.589830  0.935200  0.154000  0.951
  Re  Re152  1  0.910170  0.064800  0.654000  0.951
  Re  Re153  1  0.490400  0.725600  0.780200  0.182
  Re  Re154  1  0.009600  0.274400  0.280200  0.182
  Re  Re155  1  0.509600  0.225600  0.719800  0.182
  Re  Re156  1  0.990400  0.774400  0.219800  0.182
  Re  Re157  1  0.172620  0.505110  0.561110  0.95
  Re  Re158  1  0.327380  0.494890  0.061110  0.95
  Re  Re159  1  0.827380  0.005110  0.938890  0.95
  Re  Re160  1  0.672620  0.994890  0.438890  0.95
  P  P161  1  0.243450  0.725520  0.450470  1.0
  P  P162  1  0.256550  0.274480  0.950470  1.0
  P  P163  1  0.756550  0.225520  0.049530  1.0
  P  P164  1  0.743450  0.774480  0.549530  1.0
  P  P165  1  0.197480  0.769670  0.620300  1.0
  P  P166  1  0.302520  0.230330  0.120300  1.0
  P  P167  1  0.802520  0.269670  0.879700  1.0
  P  P168  1  0.697480  0.730330  0.379700  1.0
  P  P169  1  0.391380  0.762340  0.566840  1.0
  P  P170  1  0.108620  0.237660  0.066840  1.0
  P  P171  1  0.608620  0.262340  0.933160  1.0
  P  P172  1  0.891380  0.737660  0.433160  1.0
  P  P173  1  0.282800  0.587960  0.587510  1.0
  P  P174  1  0.217200  0.412040  0.087510  1.0
  P  P175  1  0.717200  0.087960  0.912490  1.0
  P  P176  1  0.782800  0.912040  0.412490  1.0
  P  P177  1  0.434460  0.520110  0.715580  1.0
  P  P178  1  0.065540  0.479890  0.215580  1.0
  P  P179  1  0.565540  0.020110  0.784420  1.0
  P  P180  1  0.934460  0.979890  0.284420  1.0
  P  P181  1  0.375750  0.424050  0.861910  1.0
  P  P182  1  0.124250  0.575950  0.361910  1.0
  P  P183  1  0.624250  0.924050  0.638090  1.0
  P  P184  1  0.875750  0.075950  0.138090  1.0
  P  P185  1  0.367000  0.323290  0.698170  1.0
  P  P186  1  0.133000  0.676710  0.198170  1.0
  P  P187  1  0.633000  0.823290  0.801830  1.0
  P  P188  1  0.867000  0.176710  0.301830  1.0
  P  P189  1  0.548690  0.366800  0.773920  1.0
  P  P190  1  0.951310  0.633200  0.273920  1.0
  P  P191  1  0.451310  0.866800  0.726080  1.0
  P  P192  1  0.048690  0.133200  0.226080  1.0
  P  P193  1  0.511800  0.164200  0.279650  1.0
  P  P194  1  0.988200  0.835800  0.779650  1.0
  P  P195  1  0.488200  0.664200  0.220350  1.0
  P  P196  1  0.011800  0.335800  0.720350  1.0
  P  P197  1  0.367040  0.302200  0.289890  1.0
  P  P198  1  0.132960  0.697800  0.789890  1.0
  P  P199  1  0.632960  0.802200  0.210110  1.0
  P  P200  1  0.867040  0.197800  0.710110  1.0
  P  P201  1  0.535500  0.319600  0.398480  1.0
  P  P202  1  0.964500  0.680400  0.898480  1.0
  P  P203  1  0.464500  0.819600  0.101520  1.0
  P  P204  1  0.035500  0.180400  0.601520  1.0
  P  P205  1  0.382000  0.168880  0.426880  1.0
  P  P206  1  0.118000  0.831120  0.926880  1.0
  P  P207  1  0.618000  0.668880  0.073120  1.0
  P  P208  1  0.882000  0.331120  0.573120  1.0
  H  H209  1  0.251003  0.722959  0.472728  1.0
  H  H210  1  0.248997  0.277041  0.972728  1.0
  H  H211  1  0.748997  0.222959  0.027272  1.0
  H  H212  1  0.751003  0.777041  0.527272  1.0
  H  H213  1  0.315606  0.988102  0.515321  1.0
  H  H214  1  0.184394  0.011898  0.015321  1.0
  H  H215  1  0.684394  0.488102  0.984679  1.0
  H  H216  1  0.815606  0.511898  0.484679  1.0
  H  H217  1  0.347827  0.011214  0.480674  1.0
  H  H218  1  0.152173  0.988786  0.980674  1.0
  H  H219  1  0.652173  0.511214  0.019326  1.0
  H  H220  1  0.847827  0.488786  0.519326  1.0
  H  H221  1  0.358219  0.981726  0.440676  1.0
  H  H222  1  0.141781  0.018274  0.940676  1.0
  H  H223  1  0.641781  0.481726  0.059324  1.0
  H  H224  1  0.858219  0.518274  0.559324  1.0
  H  H225  1  0.333829  0.931663  0.433744  1.0
  H  H226  1  0.166171  0.068337  0.933744  1.0
  H  H227  1  0.666171  0.431663  0.066256  1.0
  H  H228  1  0.833829  0.568337  0.566256  1.0
  H  H229  1  0.290004  0.891371  0.450470  1.0
  H  H230  1  0.209996  0.108629  0.950470  1.0
  H  H231  1  0.709996  0.391371  0.049530  1.0
  H  H232  1  0.790004  0.608629  0.549530  1.0
  H  H233  1  0.209804  0.878323  0.481927  1.0
  H  H234  1  0.290196  0.121677  0.981927  1.0
  H  H235  1  0.790196  0.378323  0.018073  1.0
  H  H236  1  0.709804  0.621677  0.518073  1.0
  H  H237  1  0.186155  0.827311  0.482042  1.0
  H  H238  1  0.313845  0.172689  0.982042  1.0
  H  H239  1  0.813845  0.327311  0.017958  1.0
  H  H240  1  0.686155  0.672689  0.517958  1.0
  H  H241  1  0.274386  0.787562  0.491959  1.0
  H  H242  1  0.225614  0.212438  0.991959  1.0
  H  H243  1  0.725614  0.287562  0.008041  1.0
  H  H244  1  0.774386  0.712438  0.508041  1.0
  H  H245  1  0.298577  0.837923  0.487863  1.0
  H  H246  1  0.201423  0.162077  0.987863  1.0
  H  H247  1  0.701423  0.337923  0.012137  1.0
  H  H248  1  0.798577  0.662077  0.512137  1.0
  H  H249  1  0.224597  0.756231  0.498839  1.0
  H  H250  1  0.275403  0.243769  0.998839  1.0
  H  H251  1  0.775403  0.256231  0.001161  1.0
  H  H252  1  0.724597  0.743769  0.501161  1.0
  H  H253  1  0.190185  0.771415  0.490249  1.0
  H  H254  1  0.309815  0.228585  0.990249  1.0
  H  H255  1  0.809815  0.271415  0.009751  1.0
  H  H256  1  0.690185  0.728585  0.509751  1.0
  H  H257  1  0.243760  0.672587  0.486331  1.0
  H  H258  1  0.256240  0.327413  0.986331  1.0
  H  H259  1  0.756240  0.172587  0.013669  1.0
  H  H260  1  0.743760  0.827413  0.513669  1.0
  H  H261  1  0.237040  0.643112  0.465709  1.0
  H  H262  1  0.262960  0.356888  0.965709  1.0
  H  H263  1  0.762960  0.143112  0.034291  1.0
  H  H264  1  0.737040  0.856888  0.534291  1.0
  H  H265  1  0.196144  0.705301  0.501767  1.0
  H  H266  1  0.303856  0.294699  0.001767  1.0
  H  H267  1  0.803856  0.205301  0.998233  1.0
  H  H268  1  0.696144  0.794699  0.498233  1.0
  H  H269  1  0.142690  0.702509  0.519074  1.0
  H  H270  1  0.357310  0.297491  0.019074  1.0
  H  H271  1  0.857310  0.202509  0.980926  1.0
  H  H272  1  0.642690  0.797491  0.480926  1.0
  H  H273  1  0.128626  0.619901  0.476691  1.0
  H  H274  1  0.371374  0.380099  0.976691  1.0
  H  H275  1  0.871374  0.119901  0.023309  1.0
  H  H276  1  0.628626  0.880099  0.523309  1.0
  H  H277  1  0.182434  0.621793  0.460969  1.0
  H  H278  1  0.317566  0.378207  0.960969  1.0
  H  H279  1  0.817566  0.121793  0.039031  1.0
  H  H280  1  0.682434  0.878207  0.539031  1.0
  H  H281  1  0.085688  0.698999  0.489595  1.0
  H  H282  1  0.414312  0.301001  0.989595  1.0
  H  H283  1  0.914312  0.198999  0.010405  1.0
  H  H284  1  0.585688  0.801001  0.510405  1.0
  H  H285  1  0.031268  0.727575  0.499004  1.0
  H  H286  1  0.468732  0.272425  0.999004  1.0
  H  H287  1  0.968732  0.227575  0.000996  1.0
  H  H288  1  0.531268  0.772425  0.500996  1.0
  H  H289  1  0.980052  0.724719  0.520398  1.0
  H  H290  1  0.519948  0.275281  0.020398  1.0
  H  H291  1  0.019948  0.224719  0.979602  1.0
  H  H292  1  0.480052  0.775281  0.479602  1.0
  H  H293  1  0.966454  0.680905  0.548618  1.0
  H  H294  1  0.533546  0.319095  0.048618  1.0
  H  H295  1  0.033546  0.180905  0.951382  1.0
  H  H296  1  0.466454  0.819095  0.451382  1.0
  H  H297  1  0.004240  0.639896  0.553995  1.0
  H  H298  1  0.495760  0.360104  0.053995  1.0
  H  H299  1  0.995760  0.139896  0.946005  1.0
  H  H300  1  0.504240  0.860104  0.446005  1.0
  H  H301  1  0.303378  0.734227  0.475478  1.0
  H  H302  1  0.196622  0.265773  0.975478  1.0
  H  H303  1  0.696622  0.234227  0.024522  1.0
  H  H304  1  0.803378  0.765773  0.524522  1.0
  H  H305  1  0.323422  0.753808  0.452405  1.0
  H  H306  1  0.176578  0.246192  0.952405  1.0
  H  H307  1  0.676578  0.253808  0.047595  1.0
  H  H308  1  0.823422  0.746192  0.547595  1.0
  H  H309  1  0.302817  0.675686  0.475271  1.0
  H  H310  1  0.197183  0.324314  0.975271  1.0
  H  H311  1  0.697183  0.175686  0.024729  1.0
  H  H312  1  0.802817  0.824314  0.524729  1.0
  H  H313  1  0.333087  0.628928  0.466072  1.0
  H  H314  1  0.166913  0.371072  0.966072  1.0
  H  H315  1  0.666913  0.128928  0.033928  1.0
  H  H316  1  0.833087  0.871072  0.533928  1.0
  H  H317  1  0.386223  0.677283  0.408968  1.0
  H  H318  1  0.113777  0.322717  0.908968  1.0
  H  H319  1  0.613777  0.177283  0.091032  1.0
  H  H320  1  0.886223  0.822717  0.591032  1.0
  H  H321  1  0.357825  0.723768  0.419938  1.0
  H  H322  1  0.142175  0.276232  0.919938  1.0
  H  H323  1  0.642175  0.223768  0.080062  1.0
  H  H324  1  0.857825  0.776232  0.580062  1.0
  H  H325  1  0.352345  0.609129  0.400425  1.0
  H  H326  1  0.147655  0.390871  0.900425  1.0
  H  H327  1  0.647655  0.109129  0.099575  1.0
  H  H328  1  0.852345  0.890871  0.599575  1.0
  H  H329  1  0.360894  0.555043  0.373082  1.0
  H  H330  1  0.139106  0.444957  0.873082  1.0
  H  H331  1  0.639106  0.055043  0.126918  1.0
  H  H332  1  0.860894  0.944957  0.626918  1.0
  H  H333  1  0.397587  0.513031  0.364155  1.0
  H  H334  1  0.102413  0.486969  0.864155  1.0
  H  H335  1  0.602413  0.013031  0.135845  1.0
  H  H336  1  0.897587  0.986969  0.635845  1.0
  H  H337  1  0.435982  0.499363  0.397845  1.0
  H  H338  1  0.064018  0.500637  0.897845  1.0
  H  H339  1  0.564018  0.999363  0.102155  1.0
  H  H340  1  0.935982  0.000637  0.602155  1.0
  H  H341  1  0.450706  0.539279  0.430380  1.0
  H  H342  1  0.049294  0.460721  0.930380  1.0
  H  H343  1  0.549294  0.039279  0.069620  1.0
  H  H344  1  0.950706  0.960721  0.569620  1.0
  H  H345  1  0.180077  0.726429  0.416445  1.0
  H  H346  1  0.319923  0.273571  0.916445  1.0
  H  H347  1  0.819923  0.226429  0.083555  1.0
  H  H348  1  0.680077  0.773571  0.583555  1.0
  H  H349  1  0.190421  0.754390  0.395068  1.0
  H  H350  1  0.309579  0.245610  0.895068  1.0
  H  H351  1  0.809579  0.254390  0.104932  1.0
  H  H352  1  0.690421  0.745610  0.604932  1.0
  H  H353  1  0.205933  0.788258  0.429983  1.0
  H  H354  1  0.294067  0.211742  0.929983  1.0
  H  H355  1  0.794067  0.288258  0.070017  1.0
  H  H356  1  0.705933  0.711742  0.570017  1.0
  H  H357  1  0.173597  0.771777  0.442536  1.0
  H  H358  1  0.326403  0.228223  0.942536  1.0
  H  H359  1  0.826403  0.271777  0.057464  1.0
  H  H360  1  0.673597  0.728223  0.557464  1.0
  H  H361  1  0.215811  0.695133  0.382591  1.0
  H  H362  1  0.284189  0.304867  0.882591  1.0
  H  H363  1  0.784189  0.195133  0.117409  1.0
  H  H364  1  0.715811  0.804867  0.617409  1.0
  H  H365  1  0.252602  0.690659  0.393666  1.0
  H  H366  1  0.247398  0.309341  0.893666  1.0
  H  H367  1  0.747398  0.190659  0.106334  1.0
  H  H368  1  0.752602  0.809341  0.606334  1.0
  H  H369  1  0.194226  0.677519  0.423051  1.0
  H  H370  1  0.305774  0.322481  0.923051  1.0
  H  H371  1  0.805774  0.177519  0.076949  1.0
  H  H372  1  0.694226  0.822481  0.576949  1.0
  H  H373  1  0.223981  0.653124  0.417693  1.0
  H  H374  1  0.276019  0.346876  0.917693  1.0
  H  H375  1  0.776019  0.153124  0.082307  1.0
  H  H376  1  0.723981  0.846876  0.582307  1.0
  H  H377  1  0.247378  0.774475  0.402303  1.0
  H  H378  1  0.252622  0.225525  0.902303  1.0
  H  H379  1  0.752622  0.274475  0.097697  1.0
  H  H380  1  0.747378  0.725525  0.597697  1.0
  H  H381  1  0.252425  0.748872  0.377608  1.0
  H  H382  1  0.247575  0.251128  0.877608  1.0
  H  H383  1  0.747575  0.248872  0.122392  1.0
  H  H384  1  0.752425  0.751128  0.622392  1.0
  H  H385  1  0.294351  0.724093  0.399990  1.0
  H  H386  1  0.205649  0.275907  0.899990  1.0
  H  H387  1  0.705649  0.224093  0.100010  1.0
  H  H388  1  0.794351  0.775907  0.600010  1.0
  H  H389  1  0.300903  0.761605  0.406618  1.0
  H  H390  1  0.199097  0.238395  0.906618  1.0
  H  H391  1  0.699097  0.261605  0.093382  1.0
  H  H392  1  0.800903  0.738395  0.593382  1.0
  H  H393  1  0.214924  0.756129  0.606730  1.0
  H  H394  1  0.285076  0.243871  0.106730  1.0
  H  H395  1  0.785076  0.256129  0.893270  1.0
  H  H396  1  0.714924  0.743871  0.393270  1.0
  H  H397  1  0.251094  0.974478  0.474579  1.0
  H  H398  1  0.248906  0.025522  0.974579  1.0
  H  H399  1  0.748906  0.474478  0.025421  1.0
  H  H400  1  0.751094  0.525522  0.525421  1.0
  H  H401  1  0.202200  0.994983  0.458356  1.0
  H  H402  1  0.297800  0.005017  0.958356  1.0
  H  H403  1  0.797800  0.494983  0.041644  1.0
  H  H404  1  0.702200  0.505017  0.541644  1.0
  H  H405  1  0.153988  0.981596  0.481826  1.0
  H  H406  1  0.346012  0.018404  0.981826  1.0
  H  H407  1  0.846012  0.481596  0.018174  1.0
  H  H408  1  0.653988  0.518404  0.518174  1.0
  H  H409  1  0.155570  0.943008  0.516668  1.0
  H  H410  1  0.344430  0.056992  0.016668  1.0
  H  H411  1  0.844430  0.443008  0.983332  1.0
  H  H412  1  0.655570  0.556992  0.483332  1.0
  H  H413  1  0.191740  0.903973  0.547011  1.0
  H  H414  1  0.308260  0.096027  0.047011  1.0
  H  H415  1  0.808260  0.403973  0.952989  1.0
  H  H416  1  0.691740  0.596027  0.452989  1.0
  H  H417  1  0.259353  0.906083  0.594225  1.0
  H  H418  1  0.240647  0.093917  0.094225  1.0
  H  H419  1  0.740647  0.406083  0.905775  1.0
  H  H420  1  0.759353  0.593917  0.405775  1.0
  H  H421  1  0.270477  0.863016  0.623638  1.0
  H  H422  1  0.229523  0.136984  0.123638  1.0
  H  H423  1  0.729523  0.363016  0.876362  1.0
  H  H424  1  0.770477  0.636984  0.376362  1.0
  H  H425  1  0.235837  0.800842  0.567333  1.0
  H  H426  1  0.264163  0.199158  0.067333  1.0
  H  H427  1  0.764163  0.300842  0.932667  1.0
  H  H428  1  0.735837  0.699158  0.432667  1.0
  H  H429  1  0.225730  0.843149  0.537027  1.0
  H  H430  1  0.274270  0.156851  0.037027  1.0
  H  H431  1  0.774270  0.343149  0.962973  1.0
  H  H432  1  0.725730  0.656851  0.462973  1.0
  H  H433  1  0.263249  0.780413  0.609065  1.0
  H  H434  1  0.236751  0.219587  0.109065  1.0
  H  H435  1  0.736751  0.280413  0.890935  1.0
  H  H436  1  0.763249  0.719587  0.390935  1.0
  H  H437  1  0.273979  0.805090  0.633008  1.0
  H  H438  1  0.226021  0.194910  0.133008  1.0
  H  H439  1  0.726021  0.305090  0.866992  1.0
  H  H440  1  0.773979  0.694910  0.366992  1.0
  H  H441  1  0.217505  0.704996  0.622520  1.0
  H  H442  1  0.282495  0.295004  0.122520  1.0
  H  H443  1  0.782495  0.204996  0.877480  1.0
  H  H444  1  0.717505  0.795004  0.377480  1.0
  H  H445  1  0.193393  0.689995  0.645193  1.0
  H  H446  1  0.306607  0.310005  0.145193  1.0
  H  H447  1  0.806607  0.189995  0.854807  1.0
  H  H448  1  0.693393  0.810005  0.354807  1.0
  H  H449  1  0.206727  0.695183  0.694731  1.0
  H  H450  1  0.293273  0.304817  0.194731  1.0
  H  H451  1  0.793273  0.195183  0.805269  1.0
  H  H452  1  0.706727  0.804817  0.305269  1.0
  H  H453  1  0.244261  0.708345  0.729536  1.0
  H  H454  1  0.255739  0.291655  0.229536  1.0
  H  H455  1  0.755739  0.208345  0.770464  1.0
  H  H456  1  0.744261  0.791655  0.270464  1.0
  H  H457  1  0.305119  0.743141  0.671257  1.0
  H  H458  1  0.194881  0.256859  0.171257  1.0
  H  H459  1  0.694881  0.243141  0.828743  1.0
  H  H460  1  0.805119  0.756859  0.328743  1.0
  H  H461  1  0.267078  0.732573  0.637995  1.0
  H  H462  1  0.232922  0.267427  0.137995  1.0
  H  H463  1  0.732922  0.232573  0.862005  1.0
  H  H464  1  0.767078  0.767427  0.362005  1.0
  H  H465  1  0.285349  0.774689  0.734694  1.0
  H  H466  1  0.214651  0.225311  0.234694  1.0
  H  H467  1  0.714651  0.274689  0.765306  1.0
  H  H468  1  0.785349  0.725311  0.265306  1.0
  H  H469  1  0.314271  0.808662  0.772235  1.0
  H  H470  1  0.185729  0.191338  0.272235  1.0
  H  H471  1  0.685729  0.308662  0.727765  1.0
  H  H472  1  0.814271  0.691338  0.227765  1.0
  H  H473  1  0.357613  0.812905  0.803705  1.0
  H  H474  1  0.142387  0.187095  0.303705  1.0
  H  H475  1  0.642387  0.312905  0.696295  1.0
  H  H476  1  0.857613  0.687095  0.196295  1.0
  H  H477  1  0.396623  0.772060  0.806642  1.0
  H  H478  1  0.103377  0.227940  0.306642  1.0
  H  H479  1  0.603377  0.272060  0.693358  1.0
  H  H480  1  0.896623  0.727940  0.193358  1.0
  H  H481  1  0.391247  0.727219  0.777667  1.0
  H  H482  1  0.108753  0.272781  0.277667  1.0
  H  H483  1  0.608753  0.227219  0.722333  1.0
  H  H484  1  0.891247  0.772781  0.222333  1.0
  H  H485  1  0.196200  0.759918  0.561099  1.0
  H  H486  1  0.303800  0.240082  0.061099  1.0
  H  H487  1  0.803800  0.259918  0.938901  1.0
  H  H488  1  0.696200  0.740082  0.438901  1.0
  H  H489  1  0.166225  0.782601  0.552312  1.0
  H  H490  1  0.333775  0.217399  0.052312  1.0
  H  H491  1  0.833775  0.282601  0.947688  1.0
  H  H492  1  0.666225  0.717399  0.447688  1.0
  H  H493  1  0.110840  0.760110  0.552134  1.0
  H  H494  1  0.389160  0.239890  0.052134  1.0
  H  H495  1  0.889160  0.260110  0.947866  1.0
  H  H496  1  0.610840  0.739890  0.447866  1.0
  H  H497  1  0.075092  0.716812  0.557504  1.0
  H  H498  1  0.424908  0.283188  0.057504  1.0
  H  H499  1  0.924908  0.216812  0.942496  1.0
  H  H500  1  0.575092  0.783188  0.442496  1.0
  H  H501  1  0.149685  0.663137  0.585636  1.0
  H  H502  1  0.350315  0.336863  0.085636  1.0
  H  H503  1  0.850315  0.163137  0.914364  1.0
  H  H504  1  0.649685  0.836863  0.414364  1.0
  H  H505  1  0.185256  0.705565  0.578532  1.0
  H  H506  1  0.314744  0.294435  0.078532  1.0
  H  H507  1  0.814744  0.205565  0.921468  1.0
  H  H508  1  0.685256  0.794435  0.421468  1.0
  H  H509  1  0.082437  0.657606  0.610399  1.0
  H  H510  1  0.417563  0.342394  0.110399  1.0
  H  H511  1  0.917563  0.157606  0.889601  1.0
  H  H512  1  0.582437  0.842394  0.389601  1.0
  H  H513  1  0.044082  0.615038  0.633815  1.0
  H  H514  1  0.455918  0.384962  0.133815  1.0
  H  H515  1  0.955918  0.115038  0.866185  1.0
  H  H516  1  0.544082  0.884962  0.366185  1.0
  H  H517  1  0.014741  0.567380  0.628295  1.0
  H  H518  1  0.485259  0.432620  0.128295  1.0
  H  H519  1  0.985259  0.067380  0.871705  1.0
  H  H520  1  0.514741  0.932620  0.371705  1.0
  H  H521  1  0.010551  0.543890  0.584784  1.0
  H  H522  1  0.489449  0.456110  0.084784  1.0
  H  H523  1  0.989449  0.043890  0.915216  1.0
  H  H524  1  0.510551  0.956110  0.415216  1.0
  H  H525  1  0.034245  0.569547  0.546618  1.0
  H  H526  1  0.465755  0.430453  0.046618  1.0
  H  H527  1  0.965755  0.069547  0.953382  1.0
  H  H528  1  0.534245  0.930453  0.453382  1.0
  H  H529  1  0.188657  0.788397  0.681429  1.0
  H  H530  1  0.311343  0.211603  0.181429  1.0
  H  H531  1  0.811343  0.288397  0.818571  1.0
  H  H532  1  0.688657  0.711603  0.318571  1.0
  H  H533  1  0.174819  0.824141  0.676411  1.0
  H  H534  1  0.325181  0.175859  0.176411  1.0
  H  H535  1  0.825181  0.324141  0.823589  1.0
  H  H536  1  0.674819  0.675859  0.323589  1.0
  H  H537  1  0.217141  0.838141  0.649109  1.0
  H  H538  1  0.282859  0.161859  0.149109  1.0
  H  H539  1  0.782859  0.338141  0.850891  1.0
  H  H540  1  0.717141  0.661859  0.350891  1.0
  H  H541  1  0.234994  0.814848  0.671063  1.0
  H  H542  1  0.265006  0.185152  0.171063  1.0
  H  H543  1  0.765006  0.314848  0.828937  1.0
  H  H544  1  0.734994  0.685152  0.328937  1.0
  H  H545  1  0.127383  0.776504  0.667487  1.0
  H  H546  1  0.372617  0.223496  0.167487  1.0
  H  H547  1  0.872617  0.276504  0.832513  1.0
  H  H548  1  0.627383  0.723496  0.332513  1.0
  H  H549  1  0.125592  0.765820  0.635304  1.0
  H  H550  1  0.374408  0.234180  0.135304  1.0
  H  H551  1  0.874408  0.265820  0.864696  1.0
  H  H552  1  0.625592  0.734180  0.364696  1.0
  H  H553  1  0.168597  0.741117  0.676872  1.0
  H  H554  1  0.331403  0.258883  0.176872  1.0
  H  H555  1  0.831403  0.241117  0.823128  1.0
  H  H556  1  0.668597  0.758883  0.323128  1.0
  H  H557  1  0.145300  0.720487  0.656804  1.0
  H  H558  1  0.354700  0.279513  0.156804  1.0
  H  H559  1  0.854700  0.220487  0.843196  1.0
  H  H560  1  0.645300  0.779513  0.343196  1.0
  H  H561  1  0.169709  0.837776  0.625333  1.0
  H  H562  1  0.330291  0.162224  0.125333  1.0
  H  H563  1  0.830291  0.337776  0.874667  1.0
  H  H564  1  0.669709  0.662224  0.374667  1.0
  H  H565  1  0.133046  0.828645  0.634252  1.0
  H  H566  1  0.366954  0.171355  0.134252  1.0
  H  H567  1  0.866954  0.328645  0.865748  1.0
  H  H568  1  0.633046  0.671355  0.365748  1.0
  H  H569  1  0.126929  0.793855  0.598244  1.0
  H  H570  1  0.373071  0.206145  0.098244  1.0
  H  H571  1  0.873071  0.293855  0.901756  1.0
  H  H572  1  0.626929  0.706145  0.401756  1.0
  H  H573  1  0.147750  0.822345  0.584133  1.0
  H  H574  1  0.352250  0.177655  0.084133  1.0
  H  H575  1  0.852250  0.322345  0.915867  1.0
  H  H576  1  0.647750  0.677655  0.415867  1.0
  H  H577  1  0.366157  0.752479  0.564174  1.0
  H  H578  1  0.133843  0.247521  0.064174  1.0
  H  H579  1  0.633843  0.252479  0.935826  1.0
  H  H580  1  0.866157  0.747521  0.435826  1.0
  H  H581  1  0.243992  0.990245  0.542128  1.0
  H  H582  1  0.256008  0.009755  0.042128  1.0
  H  H583  1  0.756008  0.490245  0.957872  1.0
  H  H584  1  0.743992  0.509755  0.457872  1.0
  H  H585  1  0.253220  0.023027  0.580384  1.0
  H  H586  1  0.246780  0.976973  0.080384  1.0
  H  H587  1  0.746780  0.523027  0.919616  1.0
  H  H588  1  0.753220  0.476973  0.419616  1.0
  H  H589  1  0.300496  0.014438  0.606679  1.0
  H  H590  1  0.199504  0.985562  0.106679  1.0
  H  H591  1  0.699504  0.514438  0.893321  1.0
  H  H592  1  0.800496  0.485562  0.393321  1.0
  H  H593  1  0.332666  0.969855  0.597048  1.0
  H  H594  1  0.167334  0.030145  0.097048  1.0
  H  H595  1  0.667334  0.469855  0.902952  1.0
  H  H596  1  0.832666  0.530145  0.402952  1.0
  H  H597  1  0.341830  0.917156  0.568178  1.0
  H  H598  1  0.158170  0.082844  0.068178  1.0
  H  H599  1  0.658170  0.417156  0.931822  1.0
  H  H600  1  0.841830  0.582844  0.431822  1.0
  H  H601  1  0.353042  0.890097  0.500490  1.0
  H  H602  1  0.146958  0.109903  0.000490  1.0
  H  H603  1  0.646958  0.390097  0.999510  1.0
  H  H604  1  0.853042  0.609903  0.499510  1.0
  H  H605  1  0.376339  0.840035  0.492317  1.0
  H  H606  1  0.123661  0.159965  0.992317  1.0
  H  H607  1  0.623661  0.340035  0.007683  1.0
  H  H608  1  0.876339  0.659965  0.507683  1.0
  H  H609  1  0.322173  0.800104  0.553305  1.0
  H  H610  1  0.177827  0.199896  0.053305  1.0
  H  H611  1  0.677827  0.300104  0.946695  1.0
  H  H612  1  0.822173  0.699896  0.446695  1.0
  H  H613  1  0.304270  0.852128  0.565414  1.0
  H  H614  1  0.195730  0.147872  0.065414  1.0
  H  H615  1  0.695730  0.352128  0.934586  1.0
  H  H616  1  0.804270  0.647872  0.434586  1.0
  H  H617  1  0.348595  0.766021  0.521414  1.0
  H  H618  1  0.151405  0.233979  0.021414  1.0
  H  H619  1  0.651405  0.266021  0.978586  1.0
  H  H620  1  0.848595  0.733979  0.478586  1.0
  H  H621  1  0.371302  0.779734  0.497157  1.0
  H  H622  1  0.128698  0.220266  0.997157  1.0
  H  H623  1  0.628698  0.279734  0.002843  1.0
  H  H624  1  0.871302  0.720266  0.502843  1.0
  H  H625  1  0.368112  0.698624  0.570736  1.0
  H  H626  1  0.131888  0.301376  0.070736  1.0
  H  H627  1  0.631888  0.198624  0.929264  1.0
  H  H628  1  0.868112  0.801376  0.429264  1.0
  H  H629  1  0.397862  0.680728  0.585655  1.0
  H  H630  1  0.102138  0.319272  0.085655  1.0
  H  H631  1  0.602138  0.180728  0.914345  1.0
  H  H632  1  0.897862  0.819272  0.414345  1.0
  H  H633  1  0.371548  0.709324  0.520123  1.0
  H  H634  1  0.128452  0.290676  0.020123  1.0
  H  H635  1  0.628452  0.209324  0.979877  1.0
  H  H636  1  0.871548  0.790676  0.479877  1.0
  H  H637  1  0.386032  0.686910  0.477429  1.0
  H  H638  1  0.113968  0.313090  0.977429  1.0
  H  H639  1  0.613968  0.186910  0.022571  1.0
  H  H640  1  0.886032  0.813090  0.522571  1.0
  H  H641  1  0.452902  0.630086  0.515216  1.0
  H  H642  1  0.047098  0.369914  0.015216  1.0
  H  H643  1  0.547098  0.130086  0.984784  1.0
  H  H644  1  0.952902  0.869914  0.484784  1.0
  H  H645  1  0.438808  0.653602  0.557398  1.0
  H  H646  1  0.061192  0.346398  0.057398  1.0
  H  H647  1  0.561192  0.153602  0.942602  1.0
  H  H648  1  0.938808  0.846398  0.442602  1.0
  H  H649  1  0.449829  0.689201  0.457322  1.0
  H  H650  1  0.050171  0.310799  0.957322  1.0
  H  H651  1  0.550171  0.189201  0.042678  1.0
  H  H652  1  0.949829  0.810799  0.542678  1.0
  H  H653  1  0.479625  0.698703  0.411316  1.0
  H  H654  1  0.020375  0.301297  0.911316  1.0
  H  H655  1  0.520375  0.198703  0.088684  1.0
  H  H656  1  0.979625  0.801297  0.588684  1.0
  H  H657  1  0.481518  0.683279  0.363832  1.0
  H  H658  1  0.018482  0.316721  0.863832  1.0
  H  H659  1  0.518482  0.183279  0.136168  1.0
  H  H660  1  0.981518  0.816721  0.636168  1.0
  H  H661  1  0.476415  0.627564  0.354707  1.0
  H  H662  1  0.023585  0.372436  0.854707  1.0
  H  H663  1  0.523585  0.127564  0.145293  1.0
  H  H664  1  0.976415  0.872436  0.645293  1.0
  H  H665  1  0.445453  0.597191  0.385579  1.0
  H  H666  1  0.054547  0.402809  0.885579  1.0
  H  H667  1  0.554547  0.097191  0.114421  1.0
  H  H668  1  0.945453  0.902809  0.614421  1.0
  H  H669  1  0.334127  0.773528  0.597353  1.0
  H  H670  1  0.165873  0.226472  0.097353  1.0
  H  H671  1  0.665873  0.273528  0.902647  1.0
  H  H672  1  0.834127  0.726472  0.402647  1.0
  H  H673  1  0.342476  0.806315  0.613382  1.0
  H  H674  1  0.157524  0.193685  0.113382  1.0
  H  H675  1  0.657524  0.306315  0.886618  1.0
  H  H676  1  0.842476  0.693685  0.386618  1.0
  H  H677  1  0.348594  0.802751  0.661991  1.0
  H  H678  1  0.151406  0.197249  0.161991  1.0
  H  H679  1  0.651406  0.302751  0.838009  1.0
  H  H680  1  0.848594  0.697249  0.338009  1.0
  H  H681  1  0.360133  0.774040  0.702791  1.0
  H  H682  1  0.139867  0.225960  0.202791  1.0
  H  H683  1  0.639867  0.274040  0.797209  1.0
  H  H684  1  0.860133  0.725960  0.297209  1.0
  H  H685  1  0.376558  0.695087  0.657012  1.0
  H  H686  1  0.123442  0.304913  0.157012  1.0
  H  H687  1  0.623442  0.195087  0.842988  1.0
  H  H688  1  0.876558  0.804913  0.342988  1.0
  H  H689  1  0.360873  0.721884  0.616791  1.0
  H  H690  1  0.139127  0.278116  0.116791  1.0
  H  H691  1  0.639127  0.221884  0.883209  1.0
  H  H692  1  0.860873  0.778116  0.383209  1.0
  H  H693  1  0.417464  0.703256  0.700861  1.0
  H  H694  1  0.082536  0.296744  0.200861  1.0
  H  H695  1  0.582536  0.203256  0.799139  1.0
  H  H696  1  0.917464  0.796744  0.299139  1.0
  H  H697  1  0.450892  0.667011  0.734417  1.0
  H  H698  1  0.049108  0.332989  0.234417  1.0
  H  H699  1  0.549108  0.167011  0.765583  1.0
  H  H700  1  0.950892  0.832989  0.265583  1.0
  H  H701  1  0.452635  0.640616  0.777335  1.0
  H  H702  1  0.047365  0.359384  0.277335  1.0
  H  H703  1  0.547365  0.140616  0.722665  1.0
  H  H704  1  0.952635  0.859384  0.222665  1.0
  H  H705  1  0.403076  0.628805  0.798787  1.0
  H  H706  1  0.096924  0.371195  0.298787  1.0
  H  H707  1  0.596924  0.128805  0.701213  1.0
  H  H708  1  0.903076  0.871195  0.201213  1.0
  H  H709  1  0.357195  0.658691  0.787116  1.0
  H  H710  1  0.142805  0.341309  0.287116  1.0
  H  H711  1  0.642805  0.158691  0.712884  1.0
  H  H712  1  0.857195  0.841309  0.212884  1.0
  H  H713  1  0.469734  0.793642  0.541992  1.0
  H  H714  1  0.030266  0.206358  0.041992  1.0
  H  H715  1  0.530266  0.293642  0.958008  1.0
  H  H716  1  0.969734  0.706358  0.458008  1.0
  H  H717  1  0.458541  0.756710  0.538202  1.0
  H  H718  1  0.041459  0.243290  0.038202  1.0
  H  H719  1  0.541459  0.256710  0.961798  1.0
  H  H720  1  0.958541  0.743290  0.461798  1.0
  H  H721  1  0.423154  0.812950  0.523430  1.0
  H  H722  1  0.076846  0.187050  0.023430  1.0
  H  H723  1  0.576846  0.312950  0.976570  1.0
  H  H724  1  0.923154  0.687050  0.476570  1.0
  H  H725  1  0.429123  0.781433  0.504696  1.0
  H  H726  1  0.070877  0.218567  0.004696  1.0
  H  H727  1  0.570877  0.281433  0.995304  1.0
  H  H728  1  0.929123  0.718567  0.495304  1.0
  H  H729  1  0.476665  0.758560  0.589602  1.0
  H  H730  1  0.023335  0.241440  0.089602  1.0
  H  H731  1  0.523335  0.258560  0.910398  1.0
  H  H732  1  0.976665  0.741440  0.410398  1.0
  H  H733  1  0.446318  0.761872  0.610617  1.0
  H  H734  1  0.053682  0.238128  0.110617  1.0
  H  H735  1  0.553682  0.261872  0.889383  1.0
  H  H736  1  0.946318  0.738128  0.389383  1.0
  H  H737  1  0.454569  0.716053  0.567663  1.0
  H  H738  1  0.045431  0.283947  0.067663  1.0
  H  H739  1  0.545431  0.216053  0.932337  1.0
  H  H740  1  0.954569  0.783947  0.432337  1.0
  H  H741  1  0.444495  0.709278  0.599420  1.0
  H  H742  1  0.055505  0.290722  0.099420  1.0
  H  H743  1  0.555505  0.209278  0.900580  1.0
  H  H744  1  0.944495  0.790722  0.400580  1.0
  H  H745  1  0.426941  0.827140  0.566900  1.0
  H  H746  1  0.073059  0.172860  0.066900  1.0
  H  H747  1  0.573059  0.327140  0.933100  1.0
  H  H748  1  0.926941  0.672860  0.433100  1.0
  H  H749  1  0.452525  0.819133  0.591266  1.0
  H  H750  1  0.047475  0.180867  0.091266  1.0
  H  H751  1  0.547475  0.319133  0.908734  1.0
  H  H752  1  0.952525  0.680867  0.408734  1.0
  H  H753  1  0.412660  0.802929  0.621016  1.0
  H  H754  1  0.087340  0.197071  0.121016  1.0
  H  H755  1  0.587340  0.302929  0.878984  1.0
  H  H756  1  0.912660  0.697071  0.378984  1.0
  H  H757  1  0.394955  0.832295  0.605255  1.0
  H  H758  1  0.105045  0.167705  0.105255  1.0
  H  H759  1  0.605045  0.332295  0.894745  1.0
  H  H760  1  0.894955  0.667705  0.394745  1.0
  H  H761  1  0.281061  0.613451  0.579999  1.0
  H  H762  1  0.218939  0.386549  0.079999  1.0
  H  H763  1  0.718939  0.113451  0.920001  1.0
  H  H764  1  0.781061  0.886549  0.420001  1.0
  H  H765  1  0.023471  0.614854  0.494291  1.0
  H  H766  1  0.476529  0.385146  0.994291  1.0
  H  H767  1  0.976529  0.114854  0.005709  1.0
  H  H768  1  0.523471  0.885146  0.505709  1.0
  H  H769  1  0.015319  0.576846  0.460697  1.0
  H  H770  1  0.484681  0.423154  0.960697  1.0
  H  H771  1  0.984681  0.076846  0.039303  1.0
  H  H772  1  0.515319  0.923154  0.539303  1.0
  H  H773  1  0.051825  0.533079  0.456262  1.0
  H  H774  1  0.448175  0.466921  0.956262  1.0
  H  H775  1  0.948175  0.033079  0.043738  1.0
  H  H776  1  0.551825  0.966921  0.543738  1.0
  H  H777  1  0.099480  0.534748  0.482909  1.0
  H  H778  1  0.400520  0.465252  0.982909  1.0
  H  H779  1  0.900520  0.034748  0.017091  1.0
  H  H780  1  0.599480  0.965252  0.517091  1.0
  H  H781  1  0.132812  0.561418  0.521877  1.0
  H  H782  1  0.367188  0.438582  0.021877  1.0
  H  H783  1  0.867188  0.061418  0.978123  1.0
  H  H784  1  0.632812  0.938582  0.478123  1.0
  H  H785  1  0.122824  0.594280  0.594596  1.0
  H  H786  1  0.377176  0.405720  0.094596  1.0
  H  H787  1  0.877176  0.094280  0.905404  1.0
  H  H788  1  0.622824  0.905720  0.405404  1.0
  H  H789  1  0.169690  0.599996  0.622122  1.0
  H  H790  1  0.330310  0.400004  0.122122  1.0
  H  H791  1  0.830310  0.099996  0.877878  1.0
  H  H792  1  0.669690  0.900004  0.377878  1.0
  H  H793  1  0.221344  0.625878  0.554163  1.0
  H  H794  1  0.278656  0.374122  0.054163  1.0
  H  H795  1  0.778656  0.125878  0.945837  1.0
  H  H796  1  0.721344  0.874122  0.445837  1.0
  H  H797  1  0.174492  0.619094  0.526625  1.0
  H  H798  1  0.325508  0.380906  0.026625  1.0
  H  H799  1  0.825508  0.119094  0.973375  1.0
  H  H800  1  0.674492  0.880906  0.473375  1.0
  H  H801  1  0.241650  0.637542  0.599751  1.0
  H  H802  1  0.258350  0.362458  0.099751  1.0
  H  H803  1  0.758350  0.137542  0.900249  1.0
  H  H804  1  0.741650  0.862458  0.400249  1.0
  H  H805  1  0.222894  0.624897  0.626793  1.0
  H  H806  1  0.277106  0.375103  0.126793  1.0
  H  H807  1  0.777106  0.124897  0.873207  1.0
  H  H808  1  0.722894  0.875103  0.373207  1.0
  H  H809  1  0.322767  0.639818  0.594457  1.0
  H  H810  1  0.177233  0.360182  0.094457  1.0
  H  H811  1  0.677233  0.139818  0.905543  1.0
  H  H812  1  0.822767  0.860182  0.405543  1.0
  H  H813  1  0.357553  0.624139  0.600535  1.0
  H  H814  1  0.142447  0.375861  0.100535  1.0
  H  H815  1  0.642447  0.124139  0.899465  1.0
  H  H816  1  0.857553  0.875861  0.399465  1.0
  H  H817  1  0.284521  0.647016  0.633414  1.0
  H  H818  1  0.215479  0.352984  0.133414  1.0
  H  H819  1  0.715479  0.147016  0.866586  1.0
  H  H820  1  0.784521  0.852984  0.366586  1.0
  H  H821  1  0.277659  0.660914  0.679906  1.0
  H  H822  1  0.222341  0.339086  0.179906  1.0
  H  H823  1  0.722341  0.160914  0.820094  1.0
  H  H824  1  0.777659  0.839086  0.320094  1.0
  H  H825  1  0.372266  0.639587  0.693983  1.0
  H  H826  1  0.127734  0.360413  0.193983  1.0
  H  H827  1  0.627734  0.139587  0.806017  1.0
  H  H828  1  0.872266  0.860413  0.306017  1.0
  H  H829  1  0.377326  0.622241  0.648288  1.0
  H  H830  1  0.122674  0.377759  0.148288  1.0
  H  H831  1  0.622674  0.122241  0.851712  1.0
  H  H832  1  0.877326  0.877759  0.351712  1.0
  H  H833  1  0.291545  0.628122  0.727663  1.0
  H  H834  1  0.208455  0.371878  0.227663  1.0
  H  H835  1  0.708455  0.128122  0.772337  1.0
  H  H836  1  0.791545  0.871878  0.272337  1.0
  H  H837  1  0.262787  0.624313  0.774365  1.0
  H  H838  1  0.237213  0.375687  0.274365  1.0
  H  H839  1  0.737213  0.124313  0.725635  1.0
  H  H840  1  0.762787  0.875687  0.225635  1.0
  H  H841  1  0.254490  0.647998  0.818041  1.0
  H  H842  1  0.245510  0.352002  0.318041  1.0
  H  H843  1  0.745510  0.147998  0.681959  1.0
  H  H844  1  0.754490  0.852002  0.181959  1.0
  H  H845  1  0.282675  0.694538  0.830833  1.0
  H  H846  1  0.217325  0.305462  0.330833  1.0
  H  H847  1  0.717325  0.194538  0.669167  1.0
  H  H848  1  0.782675  0.805462  0.169167  1.0
  H  H849  1  0.314149  0.720606  0.797285  1.0
  H  H850  1  0.185851  0.279394  0.297285  1.0
  H  H851  1  0.685851  0.220606  0.702715  1.0
  H  H852  1  0.814149  0.779394  0.202715  1.0
  H  H853  1  0.271728  0.612962  0.534404  1.0
  H  H854  1  0.228272  0.387038  0.034404  1.0
  H  H855  1  0.728272  0.112962  0.965596  1.0
  H  H856  1  0.771728  0.887038  0.465596  1.0
  H  H857  1  0.261048  0.581604  0.517326  1.0
  H  H858  1  0.238952  0.418396  0.017326  1.0
  H  H859  1  0.738952  0.081604  0.982674  1.0
  H  H860  1  0.761048  0.918396  0.482674  1.0
  H  H861  1  0.297180  0.562698  0.482278  1.0
  H  H862  1  0.202820  0.437302  0.982278  1.0
  H  H863  1  0.702820  0.062698  0.017722  1.0
  H  H864  1  0.797180  0.937302  0.517722  1.0
  H  H865  1  0.348692  0.560068  0.461677  1.0
  H  H866  1  0.151308  0.439932  0.961677  1.0
  H  H867  1  0.651308  0.060068  0.038323  1.0
  H  H868  1  0.848692  0.939932  0.538323  1.0
  H  H869  1  0.386389  0.609119  0.525422  1.0
  H  H870  1  0.113611  0.390881  0.025422  1.0
  H  H871  1  0.613611  0.109119  0.974578  1.0
  H  H872  1  0.886389  0.890881  0.474578  1.0
  H  H873  1  0.335342  0.615237  0.544923  1.0
  H  H874  1  0.164658  0.384763  0.044923  1.0
  H  H875  1  0.664658  0.115237  0.955077  1.0
  H  H876  1  0.835342  0.884763  0.455077  1.0
  H  H877  1  0.419587  0.553605  0.510863  1.0
  H  H878  1  0.080413  0.446395  0.010863  1.0
  H  H879  1  0.580413  0.053605  0.989137  1.0
  H  H880  1  0.919587  0.946395  0.489137  1.0
  H  H881  1  0.477219  0.530470  0.508092  1.0
  H  H882  1  0.022781  0.469530  0.008092  1.0
  H  H883  1  0.522781  0.030470  0.991908  1.0
  H  H884  1  0.977219  0.969530  0.491908  1.0
  H  H885  1  0.530987  0.539244  0.493410  1.0
  H  H886  1  0.969013  0.460756  0.993410  1.0
  H  H887  1  0.469013  0.039244  0.006590  1.0
  H  H888  1  0.030987  0.960756  0.506590  1.0
  H  H889  1  0.540091  0.571572  0.455048  1.0
  H  H890  1  0.959909  0.428428  0.955048  1.0
  H  H891  1  0.459909  0.071572  0.044952  1.0
  H  H892  1  0.040091  0.928428  0.544952  1.0
  H  H893  1  0.498045  0.602825  0.436228  1.0
  H  H894  1  0.001955  0.397175  0.936228  1.0
  H  H895  1  0.501955  0.102825  0.063772  1.0
  H  H896  1  0.998045  0.897175  0.563772  1.0
  H  H897  1  0.283493  0.549206  0.642799  1.0
  H  H898  1  0.216507  0.450794  0.142799  1.0
  H  H899  1  0.716507  0.049206  0.857201  1.0
  H  H900  1  0.783493  0.950794  0.357201  1.0
  H  H901  1  0.261431  0.519754  0.631876  1.0
  H  H902  1  0.238569  0.480246  0.131876  1.0
  H  H903  1  0.738569  0.019754  0.868124  1.0
  H  H904  1  0.761431  0.980246  0.368124  1.0
  H  H905  1  0.221905  0.553378  0.615419  1.0
  H  H906  1  0.278095  0.446622  0.115419  1.0
  H  H907  1  0.778095  0.053378  0.884581  1.0
  H  H908  1  0.721905  0.946622  0.384581  1.0
  H  H909  1  0.232658  0.571391  0.643594  1.0
  H  H910  1  0.267342  0.428609  0.143594  1.0
  H  H911  1  0.767342  0.071391  0.856406  1.0
  H  H912  1  0.732658  0.928609  0.356406  1.0
  H  H913  1  0.325878  0.517227  0.615588  1.0
  H  H914  1  0.174122  0.482773  0.115588  1.0
  H  H915  1  0.674122  0.017227  0.884412  1.0
  H  H916  1  0.825878  0.982773  0.384412  1.0
  H  H917  1  0.331759  0.531544  0.584859  1.0
  H  H918  1  0.168241  0.468456  0.084859  1.0
  H  H919  1  0.668241  0.031544  0.915141  1.0
  H  H920  1  0.831759  0.968456  0.415141  1.0
  H  H921  1  0.329837  0.567386  0.635428  1.0
  H  H922  1  0.170163  0.432614  0.135428  1.0
  H  H923  1  0.670163  0.067386  0.864572  1.0
  H  H924  1  0.829837  0.932614  0.364572  1.0
  H  H925  1  0.359663  0.566019  0.613730  1.0
  H  H926  1  0.140337  0.433981  0.113730  1.0
  H  H927  1  0.640337  0.066019  0.886270  1.0
  H  H928  1  0.859663  0.933981  0.386270  1.0
  H  H929  1  0.246551  0.522423  0.582195  1.0
  H  H930  1  0.253449  0.477577  0.082195  1.0
  H  H931  1  0.753449  0.022423  0.917805  1.0
  H  H932  1  0.746551  0.977577  0.417805  1.0
  H  H933  1  0.278650  0.500193  0.581204  1.0
  H  H934  1  0.221350  0.499807  0.081204  1.0
  H  H935  1  0.721350  0.000193  0.918796  1.0
  H  H936  1  0.778650  0.999807  0.418796  1.0
  H  H937  1  0.301668  0.530297  0.546754  1.0
  H  H938  1  0.198332  0.469703  0.046754  1.0
  H  H939  1  0.698332  0.030297  0.953246  1.0
  H  H940  1  0.801668  0.969703  0.453246  1.0
  H  H941  1  0.263906  0.529244  0.537631  1.0
  H  H942  1  0.236094  0.470756  0.037631  1.0
  H  H943  1  0.736094  0.029244  0.962369  1.0
  H  H944  1  0.763906  0.970756  0.462369  1.0
  H  H945  1  0.433783  0.495237  0.724602  1.0
  H  H946  1  0.066217  0.504763  0.224602  1.0
  H  H947  1  0.566217  0.995237  0.775398  1.0
  H  H948  1  0.933783  0.004763  0.275398  1.0
  H  H949  1  0.625290  0.560977  0.888690  1.0
  H  H950  1  0.874710  0.439023  0.388690  1.0
  H  H951  1  0.374710  0.060977  0.611310  1.0
  H  H952  1  0.125290  0.939023  0.111310  1.0
  H  H953  1  0.672997  0.578159  0.867923  1.0
  H  H954  1  0.827003  0.421841  0.367923  1.0
  H  H955  1  0.327003  0.078159  0.632077  1.0
  H  H956  1  0.172997  0.921841  0.132077  1.0
  H  H957  1  0.673485  0.592798  0.821433  1.0
  H  H958  1  0.826515  0.407202  0.321433  1.0
  H  H959  1  0.326515  0.092798  0.678567  1.0
  H  H960  1  0.173485  0.907202  0.178567  1.0
  H  H961  1  0.626330  0.584872  0.794895  1.0
  H  H962  1  0.873670  0.415128  0.294895  1.0
  H  H963  1  0.373670  0.084872  0.705105  1.0
  H  H964  1  0.126330  0.915128  0.205105  1.0
  H  H965  1  0.565722  0.569892  0.794164  1.0
  H  H966  1  0.934278  0.430108  0.294164  1.0
  H  H967  1  0.434278  0.069892  0.705836  1.0
  H  H968  1  0.065722  0.930108  0.205836  1.0
  H  H969  1  0.485453  0.583631  0.831126  1.0
  H  H970  1  0.014547  0.416369  0.331126  1.0
  H  H971  1  0.514547  0.083631  0.668874  1.0
  H  H972  1  0.985453  0.916369  0.168874  1.0
  H  H973  1  0.436748  0.569702  0.808964  1.0
  H  H974  1  0.063252  0.430298  0.308964  1.0
  H  H975  1  0.563252  0.069702  0.691036  1.0
  H  H976  1  0.936748  0.930298  0.191036  1.0
  H  H977  1  0.484207  0.499737  0.767336  1.0
  H  H978  1  0.015793  0.500263  0.267336  1.0
  H  H979  1  0.515793  0.999737  0.732664  1.0
  H  H980  1  0.984207  0.000263  0.232664  1.0
  H  H981  1  0.532085  0.511311  0.791341  1.0
  H  H982  1  0.967915  0.488689  0.291341  1.0
  H  H983  1  0.467915  0.011311  0.708659  1.0
  H  H984  1  0.032085  0.988689  0.208659  1.0
  H  H985  1  0.424123  0.498662  0.769564  1.0
  H  H986  1  0.075877  0.501338  0.269564  1.0
  H  H987  1  0.575877  0.998662  0.730436  1.0
  H  H988  1  0.924123  0.001338  0.230436  1.0
  H  H989  1  0.405312  0.528383  0.783535  1.0
  H  H990  1  0.094688  0.471617  0.283535  1.0
  H  H991  1  0.594688  0.028383  0.716465  1.0
  H  H992  1  0.905312  0.971617  0.216465  1.0
  H  H993  1  0.397415  0.466416  0.704429  1.0
  H  H994  1  0.102585  0.533584  0.204429  1.0
  H  H995  1  0.602585  0.966416  0.795571  1.0
  H  H996  1  0.897415  0.033584  0.295571  1.0
  H  H997  1  0.384331  0.473512  0.673710  1.0
  H  H998  1  0.115669  0.526488  0.173710  1.0
  H  H999  1  0.615669  0.973512  0.826290  1.0
  H  H1000  1  0.884331  0.026488  0.326290  1.0
  H  H1001  1  0.366155  0.487328  0.744584  1.0
  H  H1002  1  0.133845  0.512672  0.244584  1.0
  H  H1003  1  0.633845  0.987328  0.755416  1.0
  H  H1004  1  0.866155  0.012672  0.255416  1.0
  H  H1005  1  0.316695  0.502733  0.762994  1.0
  H  H1006  1  0.183305  0.497267  0.262994  1.0
  H  H1007  1  0.683305  0.002733  0.737006  1.0
  H  H1008  1  0.816695  0.997267  0.237006  1.0
  H  H1009  1  0.276929  0.500562  0.686175  1.0
  H  H1010  1  0.223071  0.499438  0.186175  1.0
  H  H1011  1  0.723071  0.000562  0.813825  1.0
  H  H1012  1  0.776929  0.999438  0.313825  1.0
  H  H1013  1  0.328991  0.493880  0.667792  1.0
  H  H1014  1  0.171009  0.506120  0.167792  1.0
  H  H1015  1  0.671009  0.993880  0.832208  1.0
  H  H1016  1  0.828991  0.006120  0.332208  1.0
  H  H1017  1  0.268431  0.548805  0.753230  1.0
  H  H1018  1  0.231569  0.451195  0.253230  1.0
  H  H1019  1  0.731569  0.048805  0.746770  1.0
  H  H1020  1  0.768431  0.951195  0.246770  1.0
  H  H1021  1  0.228181  0.574866  0.788516  1.0
  H  H1022  1  0.271819  0.425134  0.288516  1.0
  H  H1023  1  0.771819  0.074866  0.711484  1.0
  H  H1024  1  0.728181  0.925134  0.211484  1.0
  H  H1025  1  0.177098  0.571795  0.809666  1.0
  H  H1026  1  0.322902  0.428205  0.309666  1.0
  H  H1027  1  0.822902  0.071795  0.690334  1.0
  H  H1028  1  0.677098  0.928205  0.190334  1.0
  H  H1029  1  0.144808  0.525924  0.804170  1.0
  H  H1030  1  0.355192  0.474076  0.304170  1.0
  H  H1031  1  0.855192  0.025924  0.695830  1.0
  H  H1032  1  0.644808  0.974076  0.195830  1.0
  H  H1033  1  0.162307  0.485872  0.774053  1.0
  H  H1034  1  0.337693  0.514128  0.274053  1.0
  H  H1035  1  0.837693  0.985872  0.725947  1.0
  H  H1036  1  0.662307  0.014128  0.225947  1.0
  H  H1037  1  0.483070  0.474324  0.722318  1.0
  H  H1038  1  0.016930  0.525676  0.222318  1.0
  H  H1039  1  0.516930  0.974324  0.777682  1.0
  H  H1040  1  0.983070  0.025676  0.277682  1.0
  H  H1041  1  0.515522  0.494778  0.716752  1.0
  H  H1042  1  0.984478  0.505222  0.216752  1.0
  H  H1043  1  0.484478  0.994778  0.783248  1.0
  H  H1044  1  0.015522  0.005222  0.283248  1.0
  H  H1045  1  0.540455  0.494630  0.670307  1.0
  H  H1046  1  0.959545  0.505370  0.170307  1.0
  H  H1047  1  0.459545  0.994630  0.829693  1.0
  H  H1048  1  0.040455  0.005370  0.329693  1.0
  H  H1049  1  0.547044  0.468418  0.627644  1.0
  H  H1050  1  0.952956  0.531582  0.127644  1.0
  H  H1051  1  0.452956  0.968418  0.872356  1.0
  H  H1052  1  0.047044  0.031582  0.372356  1.0
  H  H1053  1  0.458639  0.427756  0.638043  1.0
  H  H1054  1  0.041361  0.572244  0.138043  1.0
  H  H1055  1  0.541361  0.927756  0.861957  1.0
  H  H1056  1  0.958639  0.072244  0.361957  1.0
  H  H1057  1  0.451125  0.457193  0.678729  1.0
  H  H1058  1  0.048875  0.542807  0.178729  1.0
  H  H1059  1  0.548875  0.957193  0.821271  1.0
  H  H1060  1  0.951125  0.042807  0.321271  1.0
  H  H1061  1  0.475237  0.457128  0.585385  1.0
  H  H1062  1  0.024763  0.542872  0.085385  1.0
  H  H1063  1  0.524763  0.957128  0.914615  1.0
  H  H1064  1  0.975237  0.042872  0.414615  1.0
  H  H1065  1  0.462730  0.450383  0.533391  1.0
  H  H1066  1  0.037270  0.549617  0.033391  1.0
  H  H1067  1  0.537270  0.950383  0.966609  1.0
  H  H1068  1  0.962730  0.049617  0.466609  1.0
  H  H1069  1  0.468474  0.419568  0.493007  1.0
  H  H1070  1  0.031526  0.580432  0.993007  1.0
  H  H1071  1  0.531526  0.919568  0.006993  1.0
  H  H1072  1  0.968474  0.080432  0.506993  1.0
  H  H1073  1  0.504582  0.376655  0.493458  1.0
  H  H1074  1  0.995418  0.623345  0.993458  1.0
  H  H1075  1  0.495418  0.876655  0.006542  1.0
  H  H1076  1  0.004582  0.123345  0.506542  1.0
  H  H1077  1  0.529019  0.360004  0.534811  1.0
  H  H1078  1  0.970981  0.639996  0.034811  1.0
  H  H1079  1  0.470981  0.860004  0.965189  1.0
  H  H1080  1  0.029019  0.139996  0.465189  1.0
  H  H1081  1  0.390219  0.580332  0.709356  1.0
  H  H1082  1  0.109781  0.419668  0.209356  1.0
  H  H1083  1  0.609781  0.080332  0.790644  1.0
  H  H1084  1  0.890219  0.919668  0.290644  1.0
  H  H1085  1  0.418453  0.606567  0.714498  1.0
  H  H1086  1  0.081547  0.393433  0.214498  1.0
  H  H1087  1  0.581547  0.106567  0.785502  1.0
  H  H1088  1  0.918453  0.893433  0.285502  1.0
  H  H1089  1  0.434686  0.583235  0.754628  1.0
  H  H1090  1  0.065314  0.416765  0.254628  1.0
  H  H1091  1  0.565314  0.083235  0.745372  1.0
  H  H1092  1  0.934686  0.916765  0.245372  1.0
  H  H1093  1  0.396100  0.576734  0.756003  1.0
  H  H1094  1  0.103900  0.423266  0.256003  1.0
  H  H1095  1  0.603900  0.076734  0.743997  1.0
  H  H1096  1  0.896100  0.923266  0.243997  1.0
  H  H1097  1  0.416896  0.580099  0.661974  1.0
  H  H1098  1  0.083104  0.419901  0.161974  1.0
  H  H1099  1  0.583104  0.080099  0.838026  1.0
  H  H1100  1  0.916896  0.919901  0.338026  1.0
  H  H1101  1  0.443485  0.551962  0.658103  1.0
  H  H1102  1  0.056515  0.448038  0.158103  1.0
  H  H1103  1  0.556515  0.051962  0.841897  1.0
  H  H1104  1  0.943485  0.948038  0.341897  1.0
  H  H1105  1  0.377443  0.545189  0.674718  1.0
  H  H1106  1  0.122557  0.454811  0.174718  1.0
  H  H1107  1  0.622557  0.045189  0.825282  1.0
  H  H1108  1  0.877443  0.954811  0.325282  1.0
  H  H1109  1  0.396554  0.524556  0.651598  1.0
  H  H1110  1  0.103446  0.475444  0.151598  1.0
  H  H1111  1  0.603446  0.024556  0.848402  1.0
  H  H1112  1  0.896554  0.975444  0.348402  1.0
  H  H1113  1  0.473513  0.583459  0.721116  1.0
  H  H1114  1  0.026487  0.416541  0.221116  1.0
  H  H1115  1  0.526487  0.083459  0.778884  1.0
  H  H1116  1  0.973513  0.916541  0.278884  1.0
  H  H1117  1  0.473577  0.593345  0.688730  1.0
  H  H1118  1  0.026423  0.406655  0.188730  1.0
  H  H1119  1  0.526423  0.093345  0.811270  1.0
  H  H1120  1  0.973577  0.906655  0.311270  1.0
  H  H1121  1  0.491415  0.543592  0.675136  1.0
  H  H1122  1  0.008585  0.456408  0.175136  1.0
  H  H1123  1  0.508585  0.043592  0.824864  1.0
  H  H1124  1  0.991415  0.956408  0.324864  1.0
  H  H1125  1  0.512198  0.549635  0.702983  1.0
  H  H1126  1  0.987802  0.450365  0.202983  1.0
  H  H1127  1  0.487802  0.049635  0.797017  1.0
  H  H1128  1  0.012198  0.950365  0.297017  1.0
  H  H1129  1  0.387942  0.421622  0.841188  1.0
  H  H1130  1  0.112058  0.578378  0.341188  1.0
  H  H1131  1  0.612058  0.921622  0.658812  1.0
  H  H1132  1  0.887942  0.078378  0.158812  1.0
  H  H1133  1  0.467080  0.161983  0.870174  1.0
  H  H1134  1  0.032920  0.838017  0.370174  1.0
  H  H1135  1  0.532920  0.661983  0.629826  1.0
  H  H1136  1  0.967080  0.338017  0.129826  1.0
  H  H1137  1  0.489307  0.149298  0.913105  1.0
  H  H1138  1  0.010693  0.850702  0.413105  1.0
  H  H1139  1  0.510693  0.649298  0.586895  1.0
  H  H1140  1  0.989307  0.350702  0.086895  1.0
  H  H1141  1  0.493122  0.190737  0.945839  1.0
  H  H1142  1  0.006878  0.809263  0.445839  1.0
  H  H1143  1  0.506878  0.690737  0.554161  1.0
  H  H1144  1  0.993122  0.309263  0.054161  1.0
  H  H1145  1  0.465836  0.238678  0.938488  1.0
  H  H1146  1  0.034164  0.761322  0.438488  1.0
  H  H1147  1  0.534164  0.738678  0.561512  1.0
  H  H1148  1  0.965836  0.261322  0.061512  1.0
  H  H1149  1  0.431944  0.274362  0.905089  1.0
  H  H1150  1  0.068056  0.725638  0.405089  1.0
  H  H1151  1  0.568056  0.774362  0.594911  1.0
  H  H1152  1  0.931944  0.225638  0.094911  1.0
  H  H1153  1  0.442531  0.312450  0.855631  1.0
  H  H1154  1  0.057469  0.687550  0.355631  1.0
  H  H1155  1  0.557469  0.812450  0.644369  1.0
  H  H1156  1  0.942531  0.187550  0.144369  1.0
  H  H1157  1  0.415873  0.359317  0.841533  1.0
  H  H1158  1  0.084127  0.640683  0.341533  1.0
  H  H1159  1  0.584127  0.859317  0.658467  1.0
  H  H1160  1  0.915873  0.140683  0.158467  1.0
  H  H1161  1  0.329368  0.314185  0.846646  1.0
  H  H1162  1  0.170632  0.685815  0.346646  1.0
  H  H1163  1  0.670632  0.814185  0.653354  1.0
  H  H1164  1  0.829368  0.185815  0.153354  1.0
  H  H1165  1  0.356011  0.267510  0.862154  1.0
  H  H1166  1  0.143989  0.732490  0.362154  1.0
  H  H1167  1  0.643989  0.767510  0.637846  1.0
  H  H1168  1  0.856011  0.232490  0.137846  1.0
  H  H1169  1  0.365872  0.381714  0.817842  1.0
  H  H1170  1  0.134128  0.618286  0.317842  1.0
  H  H1171  1  0.634128  0.881714  0.682158  1.0
  H  H1172  1  0.865872  0.118286  0.182158  1.0
  H  H1173  1  0.331328  0.365877  0.825178  1.0
  H  H1174  1  0.168672  0.634123  0.325178  1.0
  H  H1175  1  0.668672  0.865877  0.674822  1.0
  H  H1176  1  0.831328  0.134123  0.174822  1.0
  H  H1177  1  0.380295  0.467303  0.817476  1.0
  H  H1178  1  0.119705  0.532697  0.317476  1.0
  H  H1179  1  0.619705  0.967303  0.682524  1.0
  H  H1180  1  0.880295  0.032697  0.182524  1.0
  H  H1181  1  0.365914  0.499730  0.830410  1.0
  H  H1182  1  0.134086  0.500270  0.330410  1.0
  H  H1183  1  0.634086  0.999730  0.669590  1.0
  H  H1184  1  0.865914  0.000270  0.169590  1.0
  H  H1185  1  0.306547  0.508623  0.829989  1.0
  H  H1186  1  0.193453  0.491377  0.329989  1.0
  H  H1187  1  0.693453  0.008623  0.670011  1.0
  H  H1188  1  0.806547  0.991377  0.170011  1.0
  H  H1189  1  0.257346  0.498992  0.807407  1.0
  H  H1190  1  0.242654  0.501008  0.307407  1.0
  H  H1191  1  0.742654  0.998992  0.692593  1.0
  H  H1192  1  0.757346  0.001008  0.192593  1.0
  H  H1193  1  0.293374  0.415712  0.777349  1.0
  H  H1194  1  0.206626  0.584288  0.277349  1.0
  H  H1195  1  0.706626  0.915712  0.722651  1.0
  H  H1196  1  0.793374  0.084288  0.222651  1.0
  H  H1197  1  0.344399  0.429586  0.795031  1.0
  H  H1198  1  0.155601  0.570414  0.295031  1.0
  H  H1199  1  0.655601  0.929586  0.704969  1.0
  H  H1200  1  0.844399  0.070414  0.204969  1.0
  H  H1201  1  0.227709  0.417062  0.800521  1.0
  H  H1202  1  0.272291  0.582938  0.300521  1.0
  H  H1203  1  0.772291  0.917062  0.699479  1.0
  H  H1204  1  0.727709  0.082938  0.199479  1.0
  H  H1205  1  0.178276  0.381924  0.790261  1.0
  H  H1206  1  0.321724  0.618076  0.290261  1.0
  H  H1207  1  0.821724  0.881924  0.709739  1.0
  H  H1208  1  0.678276  0.118076  0.209739  1.0
  H  H1209  1  0.132032  0.373780  0.762445  1.0
  H  H1210  1  0.367968  0.626220  0.262445  1.0
  H  H1211  1  0.867968  0.873780  0.737555  1.0
  H  H1212  1  0.632032  0.126220  0.237555  1.0
  H  H1213  1  0.130608  0.398091  0.717995  1.0
  H  H1214  1  0.369392  0.601909  0.217995  1.0
  H  H1215  1  0.869392  0.898091  0.782005  1.0
  H  H1216  1  0.630608  0.101909  0.282005  1.0
  H  H1217  1  0.158460  0.447316  0.714840  1.0
  H  H1218  1  0.341540  0.552684  0.214840  1.0
  H  H1219  1  0.841540  0.947316  0.785160  1.0
  H  H1220  1  0.658460  0.052684  0.285160  1.0
  H  H1221  1  0.439928  0.413223  0.846395  1.0
  H  H1222  1  0.060072  0.586777  0.346395  1.0
  H  H1223  1  0.560072  0.913223  0.653605  1.0
  H  H1224  1  0.939928  0.086777  0.153605  1.0
  H  H1225  1  0.455319  0.398172  0.874091  1.0
  H  H1226  1  0.044681  0.601828  0.374091  1.0
  H  H1227  1  0.544681  0.898172  0.625909  1.0
  H  H1228  1  0.955319  0.101828  0.125909  1.0
  H  H1229  1  0.435677  0.472670  0.841650  1.0
  H  H1230  1  0.064323  0.527330  0.341650  1.0
  H  H1231  1  0.564323  0.972670  0.658350  1.0
  H  H1232  1  0.935677  0.027330  0.158350  1.0
  H  H1233  1  0.458150  0.523004  0.852219  1.0
  H  H1234  1  0.041850  0.476996  0.352219  1.0
  H  H1235  1  0.541850  0.023004  0.647781  1.0
  H  H1236  1  0.958150  0.976996  0.147781  1.0
  H  H1237  1  0.519261  0.481963  0.906791  1.0
  H  H1238  1  0.980739  0.518037  0.406791  1.0
  H  H1239  1  0.480739  0.981963  0.593209  1.0
  H  H1240  1  0.019261  0.018037  0.093209  1.0
  H  H1241  1  0.488890  0.434589  0.904220  1.0
  H  H1242  1  0.011110  0.565411  0.404220  1.0
  H  H1243  1  0.511110  0.934589  0.595780  1.0
  H  H1244  1  0.988890  0.065411  0.095780  1.0
  H  H1245  1  0.471982  0.558616  0.895786  1.0
  H  H1246  1  0.028018  0.441384  0.395786  1.0
  H  H1247  1  0.528018  0.058616  0.604214  1.0
  H  H1248  1  0.971982  0.941384  0.104214  1.0
  H  H1249  1  0.476226  0.620514  0.906036  1.0
  H  H1250  1  0.023774  0.379486  0.406036  1.0
  H  H1251  1  0.523774  0.120514  0.593964  1.0
  H  H1252  1  0.976226  0.879486  0.093964  1.0
  H  H1253  1  0.507378  0.667373  0.903823  1.0
  H  H1254  1  0.992622  0.332627  0.403823  1.0
  H  H1255  1  0.492622  0.167373  0.596177  1.0
  H  H1256  1  0.007378  0.832627  0.096177  1.0
  H  H1257  1  0.557035  0.666563  0.880291  1.0
  H  H1258  1  0.942965  0.333437  0.380291  1.0
  H  H1259  1  0.442965  0.166563  0.619709  1.0
  H  H1260  1  0.057035  0.833437  0.119709  1.0
  H  H1261  1  0.580543  0.616467  0.870359  1.0
  H  H1262  1  0.919457  0.383533  0.370359  1.0
  H  H1263  1  0.419457  0.116467  0.629641  1.0
  H  H1264  1  0.080543  0.883533  0.129641  1.0
  H  H1265  1  0.306349  0.429105  0.885622  1.0
  H  H1266  1  0.193651  0.570895  0.385622  1.0
  H  H1267  1  0.693651  0.929105  0.614378  1.0
  H  H1268  1  0.806349  0.070895  0.114378  1.0
  H  H1269  1  0.311947  0.407236  0.912828  1.0
  H  H1270  1  0.188053  0.592764  0.412828  1.0
  H  H1271  1  0.688053  0.907236  0.587172  1.0
  H  H1272  1  0.811947  0.092764  0.087172  1.0
  H  H1273  1  0.335265  0.366368  0.887448  1.0
  H  H1274  1  0.164735  0.633632  0.387448  1.0
  H  H1275  1  0.664735  0.866368  0.612552  1.0
  H  H1276  1  0.835265  0.133632  0.112552  1.0
  H  H1277  1  0.305332  0.377642  0.868087  1.0
  H  H1278  1  0.194668  0.622358  0.368087  1.0
  H  H1279  1  0.694668  0.877642  0.631913  1.0
  H  H1280  1  0.805332  0.122358  0.131913  1.0
  H  H1281  1  0.334719  0.468433  0.917605  1.0
  H  H1282  1  0.165281  0.531567  0.417605  1.0
  H  H1283  1  0.665281  0.968433  0.582395  1.0
  H  H1284  1  0.834719  0.031567  0.082395  1.0
  H  H1285  1  0.373256  0.471423  0.911900  1.0
  H  H1286  1  0.126744  0.528577  0.411900  1.0
  H  H1287  1  0.626744  0.971423  0.588100  1.0
  H  H1288  1  0.873256  0.028577  0.088100  1.0
  H  H1289  1  0.322203  0.477251  0.872673  1.0
  H  H1290  1  0.177797  0.522749  0.372673  1.0
  H  H1291  1  0.677797  0.977251  0.627327  1.0
  H  H1292  1  0.822203  0.022749  0.127327  1.0
  H  H1293  1  0.351543  0.502192  0.878028  1.0
  H  H1294  1  0.148457  0.497808  0.378028  1.0
  H  H1295  1  0.648457  0.002192  0.621972  1.0
  H  H1296  1  0.851543  0.997808  0.121972  1.0
  H  H1297  1  0.370313  0.386639  0.916769  1.0
  H  H1298  1  0.129687  0.613361  0.416769  1.0
  H  H1299  1  0.629687  0.886639  0.583231  1.0
  H  H1300  1  0.870313  0.113361  0.083231  1.0
  H  H1301  1  0.370172  0.417189  0.937366  1.0
  H  H1302  1  0.129828  0.582811  0.437366  1.0
  H  H1303  1  0.629828  0.917189  0.562634  1.0
  H  H1304  1  0.870172  0.082811  0.062634  1.0
  H  H1305  1  0.415445  0.439155  0.916722  1.0
  H  H1306  1  0.084555  0.560845  0.416722  1.0
  H  H1307  1  0.584555  0.939155  0.583278  1.0
  H  H1308  1  0.915445  0.060845  0.083278  1.0
  H  H1309  1  0.424178  0.401361  0.918188  1.0
  H  H1310  1  0.075822  0.598639  0.418188  1.0
  H  H1311  1  0.575822  0.901361  0.581812  1.0
  H  H1312  1  0.924178  0.098639  0.081812  1.0
  H  H1313  1  0.379751  0.342059  0.710873  1.0
  H  H1314  1  0.120249  0.657941  0.210873  1.0
  H  H1315  1  0.620249  0.842059  0.789127  1.0
  H  H1316  1  0.879751  0.157941  0.289127  1.0
  H  H1317  1  0.396144  0.184533  0.899665  1.0
  H  H1318  1  0.103856  0.815467  0.399665  1.0
  H  H1319  1  0.603856  0.684533  0.600335  1.0
  H  H1320  1  0.896144  0.315467  0.100335  1.0
  H  H1321  1  0.346407  0.164185  0.913206  1.0
  H  H1322  1  0.153593  0.835815  0.413206  1.0
  H  H1323  1  0.653593  0.664185  0.586794  1.0
  H  H1324  1  0.846407  0.335815  0.086794  1.0
  H  H1325  1  0.302428  0.167299  0.882231  1.0
  H  H1326  1  0.197572  0.832701  0.382231  1.0
  H  H1327  1  0.697572  0.667299  0.617769  1.0
  H  H1328  1  0.802428  0.332701  0.117769  1.0
  H  H1329  1  0.309172  0.194657  0.840739  1.0
  H  H1330  1  0.190828  0.805343  0.340739  1.0
  H  H1331  1  0.690828  0.694657  0.659261  1.0
  H  H1332  1  0.809172  0.305343  0.159261  1.0
  H  H1333  1  0.346891  0.224147  0.806351  1.0
  H  H1334  1  0.153109  0.775853  0.306351  1.0
  H  H1335  1  0.653109  0.724147  0.693649  1.0
  H  H1336  1  0.846891  0.275853  0.193649  1.0
  H  H1337  1  0.421439  0.207348  0.769840  1.0
  H  H1338  1  0.078561  0.792652  0.269840  1.0
  H  H1339  1  0.578561  0.707348  0.730160  1.0
  H  H1340  1  0.921439  0.292652  0.230160  1.0
  H  H1341  1  0.429499  0.235925  0.728749  1.0
  H  H1342  1  0.070501  0.764075  0.228749  1.0
  H  H1343  1  0.570501  0.735925  0.771251  1.0
  H  H1344  1  0.929499  0.264075  0.271251  1.0
  H  H1345  1  0.398146  0.317659  0.763822  1.0
  H  H1346  1  0.101854  0.682341  0.263822  1.0
  H  H1347  1  0.601854  0.817659  0.736178  1.0
  H  H1348  1  0.898146  0.182341  0.236178  1.0
  H  H1349  1  0.383220  0.288198  0.803492  1.0
  H  H1350  1  0.116780  0.711802  0.303492  1.0
  H  H1351  1  0.616780  0.788198  0.696508  1.0
  H  H1352  1  0.883220  0.211802  0.196508  1.0
  H  H1353  1  0.429369  0.321144  0.721446  1.0
  H  H1354  1  0.070631  0.678856  0.221446  1.0
  H  H1355  1  0.570631  0.821144  0.778554  1.0
  H  H1356  1  0.929369  0.178856  0.278554  1.0
  H  H1357  1  0.444836  0.289585  0.707730  1.0
  H  H1358  1  0.055164  0.710415  0.207730  1.0
  H  H1359  1  0.555164  0.789585  0.792270  1.0
  H  H1360  1  0.944836  0.210415  0.292270  1.0
  H  H1361  1  0.384689  0.386822  0.686817  1.0
  H  H1362  1  0.115311  0.613178  0.186817  1.0
  H  H1363  1  0.615311  0.886822  0.813183  1.0
  H  H1364  1  0.884689  0.113178  0.313183  1.0
  H  H1365  1  0.364568  0.394781  0.659174  1.0
  H  H1366  1  0.135432  0.605219  0.159174  1.0
  H  H1367  1  0.635432  0.894781  0.840826  1.0
  H  H1368  1  0.864568  0.105219  0.340826  1.0
  H  H1369  1  0.436206  0.358099  0.683553  1.0
  H  H1370  1  0.063794  0.641901  0.183553  1.0
  H  H1371  1  0.563794  0.858099  0.816447  1.0
  H  H1372  1  0.936206  0.141901  0.316447  1.0
  H  H1373  1  0.483834  0.348665  0.657966  1.0
  H  H1374  1  0.016166  0.651335  0.157966  1.0
  H  H1375  1  0.516166  0.848665  0.842034  1.0
  H  H1376  1  0.983834  0.151335  0.342034  1.0
  H  H1377  1  0.439431  0.380459  0.588280  1.0
  H  H1378  1  0.060569  0.619541  0.088280  1.0
  H  H1379  1  0.560569  0.880459  0.911720  1.0
  H  H1380  1  0.939431  0.119541  0.411720  1.0
  H  H1381  1  0.393018  0.391957  0.614422  1.0
  H  H1382  1  0.106982  0.608043  0.114422  1.0
  H  H1383  1  0.606982  0.891957  0.885578  1.0
  H  H1384  1  0.893018  0.108043  0.385578  1.0
  H  H1385  1  0.487066  0.312499  0.605922  1.0
  H  H1386  1  0.012934  0.687501  0.105922  1.0
  H  H1387  1  0.512934  0.812499  0.894078  1.0
  H  H1388  1  0.987066  0.187501  0.394078  1.0
  H  H1389  1  0.526886  0.272567  0.584102  1.0
  H  H1390  1  0.973114  0.727433  0.084102  1.0
  H  H1391  1  0.473114  0.772567  0.915898  1.0
  H  H1392  1  0.026886  0.227433  0.415898  1.0
  H  H1393  1  0.578246  0.264391  0.563275  1.0
  H  H1394  1  0.921754  0.735609  0.063275  1.0
  H  H1395  1  0.421754  0.764391  0.936725  1.0
  H  H1396  1  0.078246  0.235609  0.436725  1.0
  H  H1397  1  0.610303  0.309509  0.553118  1.0
  H  H1398  1  0.889697  0.690491  0.053118  1.0
  H  H1399  1  0.389697  0.809509  0.946882  1.0
  H  H1400  1  0.110303  0.190491  0.446882  1.0
  H  H1401  1  0.596222  0.358655  0.571409  1.0
  H  H1402  1  0.903778  0.641345  0.071409  1.0
  H  H1403  1  0.403778  0.858655  0.928591  1.0
  H  H1404  1  0.096222  0.141345  0.428591  1.0
  H  H1405  1  0.354869  0.350325  0.749509  1.0
  H  H1406  1  0.145131  0.649675  0.249509  1.0
  H  H1407  1  0.645131  0.850325  0.750491  1.0
  H  H1408  1  0.854869  0.149675  0.250491  1.0
  H  H1409  1  0.325025  0.329350  0.760972  1.0
  H  H1410  1  0.174975  0.670650  0.260972  1.0
  H  H1411  1  0.674975  0.829350  0.739028  1.0
  H  H1412  1  0.825025  0.170650  0.239028  1.0
  H  H1413  1  0.268237  0.343743  0.747676  1.0
  H  H1414  1  0.231763  0.656257  0.247676  1.0
  H  H1415  1  0.731763  0.843743  0.752324  1.0
  H  H1416  1  0.768237  0.156257  0.252324  1.0
  H  H1417  1  0.232301  0.384923  0.735323  1.0
  H  H1418  1  0.267699  0.615077  0.235323  1.0
  H  H1419  1  0.767699  0.884923  0.764677  1.0
  H  H1420  1  0.732301  0.115077  0.264677  1.0
  H  H1421  1  0.308373  0.438669  0.708598  1.0
  H  H1422  1  0.191627  0.561331  0.208598  1.0
  H  H1423  1  0.691627  0.938669  0.791402  1.0
  H  H1424  1  0.808373  0.061331  0.291402  1.0
  H  H1425  1  0.343653  0.398413  0.722261  1.0
  H  H1426  1  0.156347  0.601587  0.222261  1.0
  H  H1427  1  0.656347  0.898413  0.777739  1.0
  H  H1428  1  0.843653  0.101587  0.277739  1.0
  H  H1429  1  0.243647  0.431179  0.674461  1.0
  H  H1430  1  0.256353  0.568821  0.174461  1.0
  H  H1431  1  0.756353  0.931179  0.825539  1.0
  H  H1432  1  0.743647  0.068821  0.325539  1.0
  H  H1433  1  0.211965  0.468060  0.640670  1.0
  H  H1434  1  0.288035  0.531940  0.140670  1.0
  H  H1435  1  0.788035  0.968060  0.859330  1.0
  H  H1436  1  0.711965  0.031940  0.359330  1.0
  H  H1437  1  0.178652  0.513169  0.635012  1.0
  H  H1438  1  0.321348  0.486831  0.135012  1.0
  H  H1439  1  0.821348  0.013169  0.864988  1.0
  H  H1440  1  0.678652  0.986831  0.364988  1.0
  H  H1441  1  0.162681  0.542476  0.674170  1.0
  H  H1442  1  0.337319  0.457524  0.174170  1.0
  H  H1443  1  0.837319  0.042476  0.825830  1.0
  H  H1444  1  0.662681  0.957524  0.325830  1.0
  H  H1445  1  0.184947  0.529460  0.717315  1.0
  H  H1446  1  0.315053  0.470540  0.217315  1.0
  H  H1447  1  0.815053  0.029460  0.782685  1.0
  H  H1448  1  0.684947  0.970540  0.282685  1.0
  H  H1449  1  0.376042  0.285170  0.644069  1.0
  H  H1450  1  0.123958  0.714830  0.144069  1.0
  H  H1451  1  0.623958  0.785170  0.855931  1.0
  H  H1452  1  0.876042  0.214830  0.355931  1.0
  H  H1453  1  0.359632  0.251845  0.653993  1.0
  H  H1454  1  0.140368  0.748155  0.153993  1.0
  H  H1455  1  0.640368  0.751845  0.846007  1.0
  H  H1456  1  0.859632  0.248155  0.346007  1.0
  H  H1457  1  0.390062  0.250080  0.693613  1.0
  H  H1458  1  0.109938  0.749920  0.193613  1.0
  H  H1459  1  0.609938  0.750080  0.806387  1.0
  H  H1460  1  0.890062  0.249920  0.306387  1.0
  H  H1461  1  0.415893  0.262764  0.670982  1.0
  H  H1462  1  0.084107  0.737236  0.170982  1.0
  H  H1463  1  0.584107  0.762764  0.829018  1.0
  H  H1464  1  0.915893  0.237236  0.329018  1.0
  H  H1465  1  0.314689  0.298051  0.640731  1.0
  H  H1466  1  0.185311  0.701949  0.140731  1.0
  H  H1467  1  0.685311  0.798051  0.859269  1.0
  H  H1468  1  0.814689  0.201949  0.359269  1.0
  H  H1469  1  0.301749  0.318109  0.667081  1.0
  H  H1470  1  0.198251  0.681891  0.167081  1.0
  H  H1471  1  0.698251  0.818109  0.832919  1.0
  H  H1472  1  0.801749  0.181891  0.332919  1.0
  H  H1473  1  0.354407  0.333295  0.631843  1.0
  H  H1474  1  0.145593  0.666705  0.131843  1.0
  H  H1475  1  0.645593  0.833295  0.868157  1.0
  H  H1476  1  0.854407  0.166705  0.368157  1.0
  H  H1477  1  0.325805  0.356827  0.642388  1.0
  H  H1478  1  0.174195  0.643173  0.142388  1.0
  H  H1479  1  0.674195  0.856827  0.857612  1.0
  H  H1480  1  0.825805  0.143173  0.357612  1.0
  H  H1481  1  0.339014  0.254310  0.703757  1.0
  H  H1482  1  0.160986  0.745690  0.203757  1.0
  H  H1483  1  0.660986  0.754310  0.796243  1.0
  H  H1484  1  0.839014  0.245690  0.296243  1.0
  H  H1485  1  0.306340  0.259887  0.685779  1.0
  H  H1486  1  0.193660  0.740113  0.185779  1.0
  H  H1487  1  0.693660  0.759887  0.814221  1.0
  H  H1488  1  0.806340  0.240113  0.314221  1.0
  H  H1489  1  0.293102  0.305739  0.709786  1.0
  H  H1490  1  0.206898  0.694261  0.209786  1.0
  H  H1491  1  0.706898  0.805739  0.790214  1.0
  H  H1492  1  0.793102  0.194261  0.290214  1.0
  H  H1493  1  0.306291  0.282379  0.733973  1.0
  H  H1494  1  0.193709  0.717621  0.233973  1.0
  H  H1495  1  0.693709  0.782379  0.766027  1.0
  H  H1496  1  0.806291  0.217621  0.266027  1.0
  H  H1497  1  0.523684  0.377515  0.772508  1.0
  H  H1498  1  0.976316  0.622485  0.272508  1.0
  H  H1499  1  0.476316  0.877515  0.727492  1.0
  H  H1500  1  0.023684  0.122485  0.227492  1.0
  H  H1501  1  0.564729  0.424781  0.545458  1.0
  H  H1502  1  0.935271  0.575219  0.045458  1.0
  H  H1503  1  0.435271  0.924781  0.954542  1.0
  H  H1504  1  0.064729  0.075219  0.454542  1.0
  H  H1505  1  0.613894  0.450348  0.538278  1.0
  H  H1506  1  0.886106  0.549652  0.038278  1.0
  H  H1507  1  0.386106  0.950348  0.961722  1.0
  H  H1508  1  0.113894  0.049652  0.461722  1.0
  H  H1509  1  0.654380  0.446624  0.572422  1.0
  H  H1510  1  0.845620  0.553376  0.072422  1.0
  H  H1511  1  0.345620  0.946624  0.927578  1.0
  H  H1512  1  0.154380  0.053376  0.427578  1.0
  H  H1513  1  0.638838  0.430759  0.617163  1.0
  H  H1514  1  0.861162  0.569241  0.117163  1.0
  H  H1515  1  0.361162  0.930759  0.882837  1.0
  H  H1516  1  0.138838  0.069241  0.382837  1.0
  H  H1517  1  0.597798  0.398591  0.646847  1.0
  H  H1518  1  0.902202  0.601409  0.146847  1.0
  H  H1519  1  0.402202  0.898591  0.853153  1.0
  H  H1520  1  0.097798  0.101409  0.353153  1.0
  H  H1521  1  0.534892  0.416535  0.674293  1.0
  H  H1522  1  0.965108  0.583465  0.174293  1.0
  H  H1523  1  0.465108  0.916535  0.825707  1.0
  H  H1524  1  0.034892  0.083465  0.325707  1.0
  H  H1525  1  0.511176  0.395277  0.714699  1.0
  H  H1526  1  0.988824  0.604723  0.214699  1.0
  H  H1527  1  0.488824  0.895277  0.785301  1.0
  H  H1528  1  0.011176  0.104723  0.285301  1.0
  H  H1529  1  0.534316  0.305276  0.689325  1.0
  H  H1530  1  0.965684  0.694724  0.189325  1.0
  H  H1531  1  0.465684  0.805276  0.810675  1.0
  H  H1532  1  0.034316  0.194724  0.310675  1.0
  H  H1533  1  0.555966  0.326753  0.648172  1.0
  H  H1534  1  0.944034  0.673247  0.148172  1.0
  H  H1535  1  0.444034  0.826753  0.851828  1.0
  H  H1536  1  0.055966  0.173247  0.351828  1.0
  H  H1537  1  0.494722  0.349316  0.742026  1.0
  H  H1538  1  0.005278  0.650684  0.242026  1.0
  H  H1539  1  0.505278  0.849316  0.757974  1.0
  H  H1540  1  0.994722  0.150684  0.257974  1.0
  H  H1541  1  0.503697  0.313520  0.731989  1.0
  H  H1542  1  0.996303  0.686480  0.231989  1.0
  H  H1543  1  0.496303  0.813520  0.768011  1.0
  H  H1544  1  0.003697  0.186480  0.268011  1.0
  H  H1545  1  0.499467  0.373277  0.813585  1.0
  H  H1546  1  0.000533  0.626723  0.313585  1.0
  H  H1547  1  0.500533  0.873277  0.686415  1.0
  H  H1548  1  0.999467  0.126723  0.186415  1.0
  H  H1549  1  0.518360  0.367211  0.842143  1.0
  H  H1550  1  0.981640  0.632789  0.342143  1.0
  H  H1551  1  0.481640  0.867211  0.657857  1.0
  H  H1552  1  0.018360  0.132789  0.157857  1.0
  H  H1553  1  0.483731  0.325326  0.785398  1.0
  H  H1554  1  0.016269  0.674674  0.285398  1.0
  H  H1555  1  0.516269  0.825326  0.714602  1.0
  H  H1556  1  0.983731  0.174674  0.214602  1.0
  H  H1557  1  0.462458  0.272833  0.786057  1.0
  H  H1558  1  0.037542  0.727167  0.286057  1.0
  H  H1559  1  0.537542  0.772833  0.713943  1.0
  H  H1560  1  0.962458  0.227167  0.213943  1.0
  H  H1561  1  0.497724  0.262503  0.863786  1.0
  H  H1562  1  0.002276  0.737497  0.363786  1.0
  H  H1563  1  0.502276  0.762503  0.636214  1.0
  H  H1564  1  0.997724  0.237497  0.136214  1.0
  H  H1565  1  0.518824  0.314213  0.862626  1.0
  H  H1566  1  0.981176  0.685787  0.362626  1.0
  H  H1567  1  0.481176  0.814213  0.637374  1.0
  H  H1568  1  0.018824  0.185787  0.137374  1.0
  H  H1569  1  0.495573  0.213505  0.799393  1.0
  H  H1570  1  0.004427  0.786495  0.299393  1.0
  H  H1571  1  0.504427  0.713505  0.700607  1.0
  H  H1572  1  0.995573  0.286495  0.200607  1.0
  H  H1573  1  0.489603  0.155328  0.781774  1.0
  H  H1574  1  0.010397  0.844672  0.281774  1.0
  H  H1575  1  0.510397  0.655328  0.718226  1.0
  H  H1576  1  0.989603  0.344672  0.218226  1.0
  H  H1577  1  0.459775  0.106898  0.783319  1.0
  H  H1578  1  0.040225  0.893102  0.283319  1.0
  H  H1579  1  0.540225  0.606898  0.716681  1.0
  H  H1580  1  0.959775  0.393102  0.216681  1.0
  H  H1581  1  0.415232  0.102384  0.813360  1.0
  H  H1582  1  0.084768  0.897616  0.313360  1.0
  H  H1583  1  0.584768  0.602384  0.686640  1.0
  H  H1584  1  0.915232  0.397616  0.186640  1.0
  H  H1585  1  0.398971  0.146767  0.838934  1.0
  H  H1586  1  0.101029  0.853233  0.338934  1.0
  H  H1587  1  0.601029  0.646767  0.661066  1.0
  H  H1588  1  0.898971  0.353233  0.161066  1.0
  H  H1589  1  0.527036  0.428574  0.755146  1.0
  H  H1590  1  0.972964  0.571426  0.255146  1.0
  H  H1591  1  0.472964  0.928574  0.744854  1.0
  H  H1592  1  0.027036  0.071426  0.244854  1.0
  H  H1593  1  0.560216  0.444099  0.743859  1.0
  H  H1594  1  0.939784  0.555901  0.243859  1.0
  H  H1595  1  0.439784  0.944099  0.756141  1.0
  H  H1596  1  0.060216  0.055901  0.256141  1.0
  H  H1597  1  0.597426  0.471343  0.775143  1.0
  H  H1598  1  0.902574  0.528657  0.275143  1.0
  H  H1599  1  0.402574  0.971343  0.724857  1.0
  H  H1600  1  0.097426  0.028657  0.224857  1.0
  H  H1601  1  0.603968  0.501197  0.816096  1.0
  H  H1602  1  0.896032  0.498803  0.316096  1.0
  H  H1603  1  0.396032  0.001197  0.683904  1.0
  H  H1604  1  0.103968  0.998803  0.183904  1.0
  H  H1605  1  0.523250  0.459915  0.847368  1.0
  H  H1606  1  0.976750  0.540085  0.347368  1.0
  H  H1607  1  0.476750  0.959915  0.652632  1.0
  H  H1608  1  0.023250  0.040085  0.152632  1.0
  H  H1609  1  0.514785  0.431936  0.806300  1.0
  H  H1610  1  0.985215  0.568064  0.306300  1.0
  H  H1611  1  0.485215  0.931936  0.693700  1.0
  H  H1612  1  0.014785  0.068064  0.193700  1.0
  H  H1613  1  0.590872  0.466202  0.879757  1.0
  H  H1614  1  0.909128  0.533798  0.379757  1.0
  H  H1615  1  0.409128  0.966202  0.620243  1.0
  H  H1616  1  0.090872  0.033798  0.120243  1.0
  H  H1617  1  0.607091  0.472530  0.931215  1.0
  H  H1618  1  0.892909  0.527470  0.431215  1.0
  H  H1619  1  0.392909  0.972530  0.568785  1.0
  H  H1620  1  0.107091  0.027470  0.068785  1.0
  H  H1621  1  0.610601  0.506933  0.969739  1.0
  H  H1622  1  0.889399  0.493067  0.469739  1.0
  H  H1623  1  0.389399  0.006933  0.530261  1.0
  H  H1624  1  0.110601  0.993067  0.030261  1.0
  H  H1625  1  0.589497  0.558685  0.966717  1.0
  H  H1626  1  0.910503  0.441315  0.466717  1.0
  H  H1627  1  0.410503  0.058685  0.533283  1.0
  H  H1628  1  0.089497  0.941315  0.033283  1.0
  H  H1629  1  0.565864  0.576376  0.925472  1.0
  H  H1630  1  0.934136  0.423624  0.425472  1.0
  H  H1631  1  0.434136  0.076376  0.574528  1.0
  H  H1632  1  0.065864  0.923624  0.074528  1.0
  H  H1633  1  0.611229  0.305498  0.762300  1.0
  H  H1634  1  0.888771  0.694502  0.262300  1.0
  H  H1635  1  0.388771  0.805498  0.737700  1.0
  H  H1636  1  0.111229  0.194502  0.237700  1.0
  H  H1637  1  0.583944  0.301447  0.786044  1.0
  H  H1638  1  0.916056  0.698553  0.286044  1.0
  H  H1639  1  0.416056  0.801447  0.713956  1.0
  H  H1640  1  0.083944  0.198553  0.213956  1.0
  H  H1641  1  0.574045  0.315096  0.728946  1.0
  H  H1642  1  0.925955  0.684904  0.228946  1.0
  H  H1643  1  0.425955  0.815096  0.771054  1.0
  H  H1644  1  0.074045  0.184904  0.271054  1.0
  H  H1645  1  0.554713  0.289486  0.747828  1.0
  H  H1646  1  0.945287  0.710514  0.247828  1.0
  H  H1647  1  0.445287  0.789486  0.752172  1.0
  H  H1648  1  0.054713  0.210514  0.252172  1.0
  H  H1649  1  0.621402  0.340341  0.811085  1.0
  H  H1650  1  0.878598  0.659659  0.311085  1.0
  H  H1651  1  0.378598  0.840341  0.688915  1.0
  H  H1652  1  0.121402  0.159659  0.188915  1.0
  H  H1653  1  0.611542  0.377624  0.807644  1.0
  H  H1654  1  0.888458  0.622376  0.307644  1.0
  H  H1655  1  0.388458  0.877624  0.692356  1.0
  H  H1656  1  0.111542  0.122376  0.192356  1.0
  H  H1657  1  0.572465  0.326777  0.827679  1.0
  H  H1658  1  0.927535  0.673223  0.327679  1.0
  H  H1659  1  0.427535  0.826777  0.672321  1.0
  H  H1660  1  0.072465  0.173223  0.172321  1.0
  H  H1661  1  0.577416  0.361869  0.841157  1.0
  H  H1662  1  0.922584  0.638131  0.341157  1.0
  H  H1663  1  0.422584  0.861869  0.658843  1.0
  H  H1664  1  0.077416  0.138131  0.158843  1.0
  H  H1665  1  0.609393  0.356935  0.736596  1.0
  H  H1666  1  0.890607  0.643065  0.236596  1.0
  H  H1667  1  0.390607  0.856935  0.763404  1.0
  H  H1668  1  0.109393  0.143065  0.263404  1.0
  H  H1669  1  0.636597  0.364220  0.759907  1.0
  H  H1670  1  0.863403  0.635780  0.259907  1.0
  H  H1671  1  0.363403  0.864220  0.740093  1.0
  H  H1672  1  0.136597  0.135780  0.240093  1.0
  H  H1673  1  0.612366  0.411116  0.772830  1.0
  H  H1674  1  0.887634  0.588884  0.272830  1.0
  H  H1675  1  0.387634  0.911116  0.727170  1.0
  H  H1676  1  0.112366  0.088884  0.227170  1.0
  H  H1677  1  0.607880  0.411660  0.739645  1.0
  H  H1678  1  0.892120  0.588340  0.239645  1.0
  H  H1679  1  0.392120  0.911660  0.760355  1.0
  H  H1680  1  0.107880  0.088340  0.260355  1.0
  H  H1681  1  0.498390  0.180582  0.294256  1.0
  H  H1682  1  0.001610  0.819418  0.794256  1.0
  H  H1683  1  0.501610  0.680582  0.205744  1.0
  H  H1684  1  0.998390  0.319418  0.705744  1.0
  H  H1685  1  0.258923  0.091788  0.219666  1.0
  H  H1686  1  0.241077  0.908212  0.719666  1.0
  H  H1687  1  0.741077  0.591788  0.280334  1.0
  H  H1688  1  0.758923  0.408212  0.780334  1.0
  H  H1689  1  0.254417  0.095946  0.172276  1.0
  H  H1690  1  0.245583  0.904054  0.672276  1.0
  H  H1691  1  0.745583  0.595946  0.327724  1.0
  H  H1692  1  0.754417  0.404054  0.827724  1.0
  H  H1693  1  0.302719  0.094510  0.145627  1.0
  H  H1694  1  0.197281  0.905490  0.645627  1.0
  H  H1695  1  0.697281  0.594510  0.354373  1.0
  H  H1696  1  0.802719  0.405490  0.854373  1.0
  H  H1697  1  0.351503  0.107133  0.168690  1.0
  H  H1698  1  0.148497  0.892867  0.668690  1.0
  H  H1699  1  0.648497  0.607133  0.331310  1.0
  H  H1700  1  0.851503  0.392867  0.831310  1.0
  H  H1701  1  0.383577  0.106161  0.215314  1.0
  H  H1702  1  0.116423  0.893839  0.715314  1.0
  H  H1703  1  0.616423  0.606161  0.284686  1.0
  H  H1704  1  0.883577  0.393839  0.784686  1.0
  H  H1705  1  0.399763  0.062126  0.274712  1.0
  H  H1706  1  0.100237  0.937874  0.774712  1.0
  H  H1707  1  0.600237  0.562126  0.225288  1.0
  H  H1708  1  0.899763  0.437874  0.725288  1.0
  H  H1709  1  0.444564  0.072600  0.303113  1.0
  H  H1710  1  0.055436  0.927400  0.803113  1.0
  H  H1711  1  0.555436  0.572600  0.196887  1.0
  H  H1712  1  0.944564  0.427400  0.696887  1.0
  H  H1713  1  0.433356  0.167319  0.290781  1.0
  H  H1714  1  0.066644  0.832681  0.790781  1.0
  H  H1715  1  0.566644  0.667319  0.209219  1.0
  H  H1716  1  0.933356  0.332681  0.709219  1.0
  H  H1717  1  0.386486  0.157715  0.264511  1.0
  H  H1718  1  0.113514  0.842285  0.764511  1.0
  H  H1719  1  0.613514  0.657715  0.235489  1.0
  H  H1720  1  0.886486  0.342285  0.735489  1.0
  H  H1721  1  0.471089  0.150711  0.324355  1.0
  H  H1722  1  0.028911  0.849289  0.824355  1.0
  H  H1723  1  0.528911  0.650711  0.175645  1.0
  H  H1724  1  0.971089  0.349289  0.675645  1.0
  H  H1725  1  0.477650  0.113284  0.330171  1.0
  H  H1726  1  0.022350  0.886716  0.830171  1.0
  H  H1727  1  0.522350  0.613284  0.169829  1.0
  H  H1728  1  0.977650  0.386716  0.669829  1.0
  H  H1729  1  0.534139  0.213251  0.315657  1.0
  H  H1730  1  0.965861  0.786749  0.815657  1.0
  H  H1731  1  0.465861  0.713251  0.184343  1.0
  H  H1732  1  0.034139  0.286749  0.684343  1.0
  H  H1733  1  0.571888  0.215710  0.307429  1.0
  H  H1734  1  0.928112  0.784290  0.807429  1.0
  H  H1735  1  0.428112  0.715710  0.192571  1.0
  H  H1736  1  0.071888  0.284290  0.692571  1.0
  H  H1737  1  0.611538  0.177596  0.329596  1.0
  H  H1738  1  0.888462  0.822404  0.829596  1.0
  H  H1739  1  0.388462  0.677596  0.170404  1.0
  H  H1740  1  0.111538  0.322404  0.670404  1.0
  H  H1741  1  0.621865  0.140055  0.364687  1.0
  H  H1742  1  0.878135  0.859945  0.864687  1.0
  H  H1743  1  0.378135  0.640055  0.135313  1.0
  H  H1744  1  0.121865  0.359945  0.635313  1.0
  H  H1745  1  0.525656  0.135893  0.383073  1.0
  H  H1746  1  0.974344  0.864107  0.883073  1.0
  H  H1747  1  0.474344  0.635893  0.116927  1.0
  H  H1748  1  0.025656  0.364107  0.616927  1.0
  H  H1749  1  0.516116  0.172150  0.347280  1.0
  H  H1750  1  0.983884  0.827850  0.847280  1.0
  H  H1751  1  0.483884  0.672150  0.152720  1.0
  H  H1752  1  0.016116  0.327850  0.652720  1.0
  H  H1753  1  0.568275  0.077507  0.380367  1.0
  H  H1754  1  0.931725  0.922493  0.880367  1.0
  H  H1755  1  0.431725  0.577507  0.119633  1.0
  H  H1756  1  0.068275  0.422493  0.619633  1.0
  H  H1757  1  0.563009  0.022909  0.404442  1.0
  H  H1758  1  0.936991  0.977091  0.904442  1.0
  H  H1759  1  0.436991  0.522909  0.095558  1.0
  H  H1760  1  0.063009  0.477091  0.595558  1.0
  H  H1761  1  0.571151  0.991368  0.444568  1.0
  H  H1762  1  0.928849  0.008632  0.944568  1.0
  H  H1763  1  0.428849  0.491368  0.055432  1.0
  H  H1764  1  0.071151  0.508632  0.555432  1.0
  H  H1765  1  0.594538  0.017037  0.483981  1.0
  H  H1766  1  0.905462  0.982963  0.983981  1.0
  H  H1767  1  0.405462  0.517037  0.016019  1.0
  H  H1768  1  0.094538  0.482963  0.516019  1.0
  H  H1769  1  0.607488  0.070656  0.481499  1.0
  H  H1770  1  0.892512  0.929344  0.981499  1.0
  H  H1771  1  0.392512  0.570656  0.018501  1.0
  H  H1772  1  0.107488  0.429344  0.518501  1.0
  H  H1773  1  0.462850  0.210152  0.269646  1.0
  H  H1774  1  0.037150  0.789848  0.769646  1.0
  H  H1775  1  0.537150  0.710152  0.230354  1.0
  H  H1776  1  0.962850  0.289848  0.730354  1.0
  H  H1777  1  0.454394  0.204260  0.237544  1.0
  H  H1778  1  0.045606  0.795740  0.737544  1.0
  H  H1779  1  0.545606  0.704260  0.262456  1.0
  H  H1780  1  0.954394  0.295740  0.762456  1.0
  H  H1781  1  0.506391  0.244580  0.283306  1.0
  H  H1782  1  0.993609  0.755420  0.783306  1.0
  H  H1783  1  0.493609  0.744580  0.216694  1.0
  H  H1784  1  0.006391  0.255420  0.716694  1.0
  H  H1785  1  0.544107  0.285310  0.272601  1.0
  H  H1786  1  0.955893  0.714690  0.772601  1.0
  H  H1787  1  0.455893  0.785310  0.227399  1.0
  H  H1788  1  0.044107  0.214690  0.727399  1.0
  H  H1789  1  0.528407  0.269757  0.190864  1.0
  H  H1790  1  0.971593  0.730243  0.690864  1.0
  H  H1791  1  0.471593  0.769757  0.309136  1.0
  H  H1792  1  0.028407  0.230243  0.809136  1.0
  H  H1793  1  0.488390  0.232071  0.201635  1.0
  H  H1794  1  0.011610  0.767929  0.701635  1.0
  H  H1795  1  0.511610  0.732071  0.298365  1.0
  H  H1796  1  0.988390  0.267929  0.798365  1.0
  H  H1797  1  0.598735  0.272956  0.229366  1.0
  H  H1798  1  0.901265  0.727044  0.729366  1.0
  H  H1799  1  0.401265  0.772956  0.270634  1.0
  H  H1800  1  0.098735  0.227044  0.770634  1.0
  H  H1801  1  0.660033  0.289014  0.223366  1.0
  H  H1802  1  0.839967  0.710986  0.723366  1.0
  H  H1803  1  0.339967  0.789014  0.276634  1.0
  H  H1804  1  0.160033  0.210986  0.776634  1.0
  H  H1805  1  0.697306  0.331290  0.217861  1.0
  H  H1806  1  0.802694  0.668710  0.717861  1.0
  H  H1807  1  0.302694  0.831290  0.282139  1.0
  H  H1808  1  0.197306  0.168710  0.782139  1.0
  H  H1809  1  0.677922  0.384119  0.213315  1.0
  H  H1810  1  0.822078  0.615881  0.713315  1.0
  H  H1811  1  0.322078  0.884119  0.286685  1.0
  H  H1812  1  0.177922  0.115881  0.786685  1.0
  H  H1813  1  0.621805  0.393258  0.212037  1.0
  H  H1814  1  0.878195  0.606742  0.712037  1.0
  H  H1815  1  0.378195  0.893258  0.287963  1.0
  H  H1816  1  0.121805  0.106742  0.787963  1.0
  H  H1817  1  0.564874  0.112567  0.281963  1.0
  H  H1818  1  0.935126  0.887433  0.781963  1.0
  H  H1819  1  0.435126  0.612567  0.218037  1.0
  H  H1820  1  0.064874  0.387433  0.718037  1.0
  H  H1821  1  0.550246  0.088796  0.258690  1.0
  H  H1822  1  0.949754  0.911204  0.758690  1.0
  H  H1823  1  0.449754  0.588796  0.241310  1.0
  H  H1824  1  0.050246  0.411204  0.741310  1.0
  H  H1825  1  0.500838  0.086400  0.279498  1.0
  H  H1826  1  0.999162  0.913600  0.779498  1.0
  H  H1827  1  0.499162  0.586400  0.220502  1.0
  H  H1828  1  0.000838  0.413600  0.720502  1.0
  H  H1829  1  0.524304  0.088533  0.306197  1.0
  H  H1830  1  0.975696  0.911467  0.806197  1.0
  H  H1831  1  0.475696  0.588533  0.193803  1.0
  H  H1832  1  0.024304  0.411467  0.693803  1.0
  H  H1833  1  0.580784  0.142574  0.235229  1.0
  H  H1834  1  0.919216  0.857426  0.735229  1.0
  H  H1835  1  0.419216  0.642574  0.264771  1.0
  H  H1836  1  0.080784  0.357426  0.764771  1.0
  H  H1837  1  0.556184  0.172313  0.230335  1.0
  H  H1838  1  0.943816  0.827687  0.730335  1.0
  H  H1839  1  0.443816  0.672313  0.269665  1.0
  H  H1840  1  0.056184  0.327687  0.769665  1.0
  H  H1841  1  0.589242  0.156384  0.280700  1.0
  H  H1842  1  0.910758  0.843616  0.780700  1.0
  H  H1843  1  0.410758  0.656384  0.219300  1.0
  H  H1844  1  0.089242  0.343616  0.719300  1.0
  H  H1845  1  0.589996  0.190517  0.264878  1.0
  H  H1846  1  0.910004  0.809483  0.764878  1.0
  H  H1847  1  0.410004  0.690517  0.235122  1.0
  H  H1848  1  0.089996  0.309483  0.735122  1.0
  H  H1849  1  0.496541  0.110065  0.239336  1.0
  H  H1850  1  0.003459  0.889935  0.739336  1.0
  H  H1851  1  0.503459  0.610065  0.260664  1.0
  H  H1852  1  0.996541  0.389935  0.760664  1.0
  H  H1853  1  0.523097  0.117950  0.215608  1.0
  H  H1854  1  0.976903  0.882050  0.715608  1.0
  H  H1855  1  0.476903  0.617950  0.284392  1.0
  H  H1856  1  0.023097  0.382050  0.784392  1.0
  H  H1857  1  0.507684  0.170881  0.212929  1.0
  H  H1858  1  0.992316  0.829119  0.712929  1.0
  H  H1859  1  0.492316  0.670881  0.287071  1.0
  H  H1860  1  0.007684  0.329119  0.787071  1.0
  H  H1861  1  0.473213  0.153005  0.216805  1.0
  H  H1862  1  0.026787  0.846995  0.716805  1.0
  H  H1863  1  0.526787  0.653005  0.283195  1.0
  H  H1864  1  0.973213  0.346995  0.783195  1.0
  H  H1865  1  0.385198  0.288907  0.302959  1.0
  H  H1866  1  0.114802  0.711093  0.802959  1.0
  H  H1867  1  0.614802  0.788907  0.197041  1.0
  H  H1868  1  0.885198  0.211093  0.697041  1.0
  H  H1869  1  0.263586  0.042228  0.271114  1.0
  H  H1870  1  0.236414  0.957772  0.771114  1.0
  H  H1871  1  0.736414  0.542228  0.228886  1.0
  H  H1872  1  0.763586  0.457772  0.728886  1.0
  H  H1873  1  0.208297  0.039704  0.280666  1.0
  H  H1874  1  0.291703  0.960296  0.780666  1.0
  H  H1875  1  0.791703  0.539704  0.219334  1.0
  H  H1876  1  0.708297  0.460296  0.719334  1.0
  H  H1877  1  0.180324  0.087763  0.290591  1.0
  H  H1878  1  0.319676  0.912237  0.790591  1.0
  H  H1879  1  0.819676  0.587763  0.209409  1.0
  H  H1880  1  0.680324  0.412237  0.709409  1.0
  H  H1881  1  0.207634  0.136915  0.286368  1.0
  H  H1882  1  0.292366  0.863085  0.786368  1.0
  H  H1883  1  0.792366  0.636915  0.213632  1.0
  H  H1884  1  0.707634  0.363085  0.713632  1.0
  H  H1885  1  0.262479  0.166898  0.277037  1.0
  H  H1886  1  0.237521  0.833102  0.777037  1.0
  H  H1887  1  0.737521  0.666898  0.222963  1.0
  H  H1888  1  0.762479  0.333102  0.722963  1.0
  H  H1889  1  0.334198  0.165118  0.224835  1.0
  H  H1890  1  0.165802  0.834882  0.724835  1.0
  H  H1891  1  0.665802  0.665118  0.275165  1.0
  H  H1892  1  0.834198  0.334882  0.775165  1.0
  H  H1893  1  0.362895  0.213416  0.221159  1.0
  H  H1894  1  0.137105  0.786584  0.721159  1.0
  H  H1895  1  0.637105  0.713416  0.278841  1.0
  H  H1896  1  0.862895  0.286584  0.778841  1.0
  H  H1897  1  0.354433  0.224869  0.303522  1.0
  H  H1898  1  0.145567  0.775131  0.803522  1.0
  H  H1899  1  0.645567  0.724869  0.196478  1.0
  H  H1900  1  0.854433  0.275131  0.696478  1.0
  H  H1901  1  0.320136  0.180593  0.305960  1.0
  H  H1902  1  0.179864  0.819407  0.805960  1.0
  H  H1903  1  0.679864  0.680593  0.194040  1.0
  H  H1904  1  0.820136  0.319407  0.694040  1.0
  H  H1905  1  0.403040  0.247876  0.278629  1.0
  H  H1906  1  0.096960  0.752124  0.778629  1.0
  H  H1907  1  0.596960  0.747876  0.221371  1.0
  H  H1908  1  0.903040  0.252124  0.721371  1.0
  H  H1909  1  0.403305  0.246383  0.245460  1.0
  H  H1910  1  0.096695  0.753617  0.745460  1.0
  H  H1911  1  0.596695  0.746383  0.254540  1.0
  H  H1912  1  0.903305  0.253617  0.754540  1.0
  H  H1913  1  0.424148  0.321786  0.315888  1.0
  H  H1914  1  0.075852  0.678214  0.815888  1.0
  H  H1915  1  0.575852  0.821786  0.184112  1.0
  H  H1916  1  0.924148  0.178214  0.684112  1.0
  H  H1917  1  0.419960  0.360140  0.316948  1.0
  H  H1918  1  0.080040  0.639860  0.816948  1.0
  H  H1919  1  0.580040  0.860140  0.183052  1.0
  H  H1920  1  0.919960  0.139860  0.683052  1.0
  H  H1921  1  0.441075  0.296678  0.271740  1.0
  H  H1922  1  0.058925  0.703322  0.771740  1.0
  H  H1923  1  0.558925  0.796678  0.228260  1.0
  H  H1924  1  0.941075  0.203322  0.728260  1.0
  H  H1925  1  0.476566  0.300101  0.233914  1.0
  H  H1926  1  0.023434  0.699899  0.733914  1.0
  H  H1927  1  0.523434  0.800101  0.266086  1.0
  H  H1928  1  0.976566  0.199899  0.766086  1.0
  H  H1929  1  0.490141  0.394977  0.248901  1.0
  H  H1930  1  0.009859  0.605023  0.748901  1.0
  H  H1931  1  0.509859  0.894977  0.251099  1.0
  H  H1932  1  0.990141  0.105023  0.751099  1.0
  H  H1933  1  0.452844  0.392053  0.285414  1.0
  H  H1934  1  0.047156  0.607947  0.785414  1.0
  H  H1935  1  0.547156  0.892053  0.214586  1.0
  H  H1936  1  0.952844  0.107947  0.714586  1.0
  H  H1937  1  0.476620  0.342512  0.187828  1.0
  H  H1938  1  0.023380  0.657488  0.687828  1.0
  H  H1939  1  0.523380  0.842512  0.312172  1.0
  H  H1940  1  0.976620  0.157488  0.812172  1.0
  H  H1941  1  0.491287  0.334798  0.137025  1.0
  H  H1942  1  0.008713  0.665202  0.637025  1.0
  H  H1943  1  0.508713  0.834798  0.362975  1.0
  H  H1944  1  0.991287  0.165202  0.862975  1.0
  H  H1945  1  0.531797  0.340866  0.102782  1.0
  H  H1946  1  0.968203  0.659134  0.602782  1.0
  H  H1947  1  0.468203  0.840866  0.397218  1.0
  H  H1948  1  0.031797  0.159134  0.897218  1.0
  H  H1949  1  0.586648  0.337598  0.116536  1.0
  H  H1950  1  0.913352  0.662402  0.616536  1.0
  H  H1951  1  0.413352  0.837598  0.383464  1.0
  H  H1952  1  0.086648  0.162402  0.883464  1.0
  H  H1953  1  0.599373  0.340526  0.163722  1.0
  H  H1954  1  0.900627  0.659474  0.663722  1.0
  H  H1955  1  0.400627  0.840526  0.336278  1.0
  H  H1956  1  0.099373  0.159474  0.836278  1.0
  H  H1957  1  0.362459  0.268536  0.338896  1.0
  H  H1958  1  0.137541  0.731464  0.838896  1.0
  H  H1959  1  0.637541  0.768536  0.161104  1.0
  H  H1960  1  0.862459  0.231464  0.661104  1.0
  H  H1961  1  0.323984  0.263649  0.342742  1.0
  H  H1962  1  0.176016  0.736351  0.842742  1.0
  H  H1963  1  0.676016  0.763649  0.157258  1.0
  H  H1964  1  0.823984  0.236351  0.657258  1.0
  H  H1965  1  0.291489  0.309005  0.364803  1.0
  H  H1966  1  0.208511  0.690995  0.864803  1.0
  H  H1967  1  0.708511  0.809005  0.135197  1.0
  H  H1968  1  0.791489  0.190995  0.635197  1.0
  H  H1969  1  0.291328  0.353585  0.394880  1.0
  H  H1970  1  0.208672  0.646415  0.894880  1.0
  H  H1971  1  0.708672  0.853585  0.105120  1.0
  H  H1972  1  0.791328  0.146415  0.605120  1.0
  H  H1973  1  0.389178  0.356924  0.389547  1.0
  H  H1974  1  0.110822  0.643076  0.889547  1.0
  H  H1975  1  0.610822  0.856924  0.110453  1.0
  H  H1976  1  0.889178  0.143076  0.610453  1.0
  H  H1977  1  0.388954  0.314766  0.358127  1.0
  H  H1978  1  0.111046  0.685234  0.858127  1.0
  H  H1979  1  0.611046  0.814766  0.141873  1.0
  H  H1980  1  0.888954  0.185234  0.641873  1.0
  H  H1981  1  0.350380  0.415600  0.390813  1.0
  H  H1982  1  0.149620  0.584400  0.890813  1.0
  H  H1983  1  0.649620  0.915600  0.109187  1.0
  H  H1984  1  0.850380  0.084400  0.609187  1.0
  H  H1985  1  0.361017  0.473885  0.406922  1.0
  H  H1986  1  0.138983  0.526115  0.906922  1.0
  H  H1987  1  0.638983  0.973885  0.093078  1.0
  H  H1988  1  0.861017  0.026115  0.593078  1.0
  H  H1989  1  0.367009  0.509740  0.443736  1.0
  H  H1990  1  0.132991  0.490260  0.943736  1.0
  H  H1991  1  0.632991  0.009740  0.056264  1.0
  H  H1992  1  0.867009  0.990260  0.556264  1.0
  H  H1993  1  0.357480  0.492794  0.488887  1.0
  H  H1994  1  0.142520  0.507206  0.988887  1.0
  H  H1995  1  0.642520  0.992794  0.011113  1.0
  H  H1996  1  0.857480  0.007206  0.511113  1.0
  H  H1997  1  0.346880  0.437704  0.497243  1.0
  H  H1998  1  0.153120  0.562296  0.997243  1.0
  H  H1999  1  0.653120  0.937704  0.002757  1.0
  H  H2000  1  0.846880  0.062296  0.502757  1.0
  H  H2001  1  0.363035  0.338763  0.234169  1.0
  H  H2002  1  0.136965  0.661237  0.734169  1.0
  H  H2003  1  0.636965  0.838763  0.265831  1.0
  H  H2004  1  0.863035  0.161237  0.765831  1.0
  H  H2005  1  0.327427  0.326263  0.225394  1.0
  H  H2006  1  0.172573  0.673737  0.725394  1.0
  H  H2007  1  0.672573  0.826263  0.274606  1.0
  H  H2008  1  0.827427  0.173737  0.774606  1.0
  H  H2009  1  0.341060  0.274249  0.230826  1.0
  H  H2010  1  0.158940  0.725751  0.730826  1.0
  H  H2011  1  0.658940  0.774249  0.269174  1.0
  H  H2012  1  0.841060  0.225751  0.769174  1.0
  H  H2013  1  0.374767  0.288886  0.219305  1.0
  H  H2014  1  0.125233  0.711114  0.719305  1.0
  H  H2015  1  0.625233  0.788886  0.280695  1.0
  H  H2016  1  0.874767  0.211114  0.780695  1.0
  H  H2017  1  0.328487  0.375170  0.261670  1.0
  H  H2018  1  0.171513  0.624830  0.761670  1.0
  H  H2019  1  0.671513  0.875170  0.238330  1.0
  H  H2020  1  0.828487  0.124830  0.738330  1.0
  H  H2021  1  0.322359  0.363912  0.293257  1.0
  H  H2022  1  0.177641  0.636088  0.793257  1.0
  H  H2023  1  0.677641  0.863912  0.206743  1.0
  H  H2024  1  0.822359  0.136088  0.706743  1.0
  H  H2025  1  0.382712  0.373234  0.266084  1.0
  H  H2026  1  0.117288  0.626766  0.766084  1.0
  H  H2027  1  0.617288  0.873234  0.233916  1.0
  H  H2028  1  0.882712  0.126766  0.733916  1.0
  H  H2029  1  0.372669  0.384597  0.296803  1.0
  H  H2030  1  0.127331  0.615403  0.796803  1.0
  H  H2031  1  0.627331  0.884597  0.203197  1.0
  H  H2032  1  0.872669  0.115403  0.703197  1.0
  H  H2033  1  0.301466  0.290174  0.261048  1.0
  H  H2034  1  0.198534  0.709826  0.761048  1.0
  H  H2035  1  0.698534  0.790174  0.238952  1.0
  H  H2036  1  0.801466  0.209826  0.738952  1.0
  H  H2037  1  0.284949  0.324435  0.267817  1.0
  H  H2038  1  0.215051  0.675565  0.767817  1.0
  H  H2039  1  0.715051  0.824435  0.232183  1.0
  H  H2040  1  0.784949  0.175565  0.732183  1.0
  H  H2041  1  0.296366  0.320534  0.314044  1.0
  H  H2042  1  0.203634  0.679466  0.814044  1.0
  H  H2043  1  0.703634  0.820534  0.185956  1.0
  H  H2044  1  0.796366  0.179466  0.685956  1.0
  H  H2045  1  0.286856  0.283959  0.306374  1.0
  H  H2046  1  0.213144  0.716041  0.806374  1.0
  H  H2047  1  0.713144  0.783959  0.193626  1.0
  H  H2048  1  0.786856  0.216041  0.693626  1.0
  H  H2049  1  0.518448  0.301468  0.389258  1.0
  H  H2050  1  0.981552  0.698532  0.889258  1.0
  H  H2051  1  0.481552  0.801468  0.110742  1.0
  H  H2052  1  0.018448  0.198532  0.610742  1.0
  H  H2053  1  0.652445  0.074012  0.425776  1.0
  H  H2054  1  0.847555  0.925988  0.925776  1.0
  H  H2055  1  0.347555  0.574012  0.074224  1.0
  H  H2056  1  0.152445  0.425988  0.574224  1.0
  H  H2057  1  0.703454  0.073721  0.404307  1.0
  H  H2058  1  0.796546  0.926279  0.904307  1.0
  H  H2059  1  0.296546  0.573721  0.095693  1.0
  H  H2060  1  0.203454  0.426279  0.595693  1.0
  H  H2061  1  0.730944  0.123150  0.399970  1.0
  H  H2062  1  0.769056  0.876850  0.899970  1.0
  H  H2063  1  0.269056  0.623150  0.100030  1.0
  H  H2064  1  0.230944  0.376850  0.600030  1.0
  H  H2065  1  0.700844  0.170284  0.402094  1.0
  H  H2066  1  0.799156  0.829716  0.902094  1.0
  H  H2067  1  0.299156  0.670284  0.097906  1.0
  H  H2068  1  0.200844  0.329716  0.597906  1.0
  H  H2069  1  0.645244  0.198186  0.415263  1.0
  H  H2070  1  0.854756  0.801814  0.915263  1.0
  H  H2071  1  0.354756  0.698186  0.084737  1.0
  H  H2072  1  0.145244  0.301814  0.584737  1.0
  H  H2073  1  0.576167  0.200295  0.390860  1.0
  H  H2074  1  0.923833  0.799705  0.890860  1.0
  H  H2075  1  0.423833  0.700295  0.109140  1.0
  H  H2076  1  0.076167  0.299705  0.609140  1.0
  H  H2077  1  0.535687  0.239140  0.395462  1.0
  H  H2078  1  0.964313  0.760860  0.895462  1.0
  H  H2079  1  0.464313  0.739140  0.104538  1.0
  H  H2080  1  0.035687  0.260860  0.604538  1.0
  H  H2081  1  0.556280  0.248944  0.476283  1.0
  H  H2082  1  0.943720  0.751056  0.976283  1.0
  H  H2083  1  0.443720  0.748944  0.023717  1.0
  H  H2084  1  0.056280  0.251056  0.523717  1.0
  H  H2085  1  0.593341  0.206778  0.473110  1.0
  H  H2086  1  0.906659  0.793222  0.973110  1.0
  H  H2087  1  0.406659  0.706778  0.026890  1.0
  H  H2088  1  0.093341  0.293222  0.526890  1.0
  H  H2089  1  0.498970  0.270524  0.424811  1.0
  H  H2090  1  0.001030  0.729476  0.924811  1.0
  H  H2091  1  0.501030  0.770524  0.075189  1.0
  H  H2092  1  0.998970  0.229476  0.575189  1.0
  H  H2093  1  0.508086  0.275711  0.456751  1.0
  H  H2094  1  0.991914  0.724289  0.956751  1.0
  H  H2095  1  0.491914  0.775711  0.043249  1.0
  H  H2096  1  0.008086  0.224289  0.543249  1.0
  H  H2097  1  0.475237  0.326780  0.372312  1.0
  H  H2098  1  0.024763  0.673220  0.872312  1.0
  H  H2099  1  0.524763  0.826780  0.127688  1.0
  H  H2100  1  0.975237  0.173220  0.627688  1.0
  H  H2101  1  0.474544  0.364494  0.365622  1.0
  H  H2102  1  0.025456  0.635506  0.865622  1.0
  H  H2103  1  0.525456  0.864494  0.134378  1.0
  H  H2104  1  0.974544  0.135506  0.634378  1.0
  H  H2105  1  0.450353  0.306385  0.414167  1.0
  H  H2106  1  0.049647  0.693615  0.914167  1.0
  H  H2107  1  0.549647  0.806385  0.085833  1.0
  H  H2108  1  0.950353  0.193615  0.585833  1.0
  H  H2109  1  0.410961  0.314464  0.448159  1.0
  H  H2110  1  0.089039  0.685536  0.948159  1.0
  H  H2111  1  0.589039  0.814464  0.051841  1.0
  H  H2112  1  0.910961  0.185536  0.551841  1.0
  H  H2113  1  0.416432  0.410257  0.435548  1.0
  H  H2114  1  0.083568  0.589743  0.935548  1.0
  H  H2115  1  0.583568  0.910257  0.064452  1.0
  H  H2116  1  0.916432  0.089743  0.564452  1.0
  H  H2117  1  0.454354  0.402516  0.401081  1.0
  H  H2118  1  0.045646  0.597484  0.901081  1.0
  H  H2119  1  0.545646  0.902516  0.098919  1.0
  H  H2120  1  0.954354  0.097484  0.598919  1.0
  H  H2121  1  0.414379  0.365489  0.497307  1.0
  H  H2122  1  0.085621  0.634511  0.997307  1.0
  H  H2123  1  0.585621  0.865489  0.002693  1.0
  H  H2124  1  0.914379  0.134511  0.502693  1.0
  H  H2125  1  0.391584  0.368112  0.547511  1.0
  H  H2126  1  0.108416  0.631888  0.047511  1.0
  H  H2127  1  0.608416  0.868112  0.952489  1.0
  H  H2128  1  0.891584  0.131888  0.452489  1.0
  H  H2129  1  0.346537  0.379569  0.575067  1.0
  H  H2130  1  0.153463  0.620431  0.075067  1.0
  H  H2131  1  0.653463  0.879569  0.924933  1.0
  H  H2132  1  0.846537  0.120431  0.424933  1.0
  H  H2133  1  0.293686  0.378725  0.556292  1.0
  H  H2134  1  0.206314  0.621275  0.056292  1.0
  H  H2135  1  0.706314  0.878725  0.943708  1.0
  H  H2136  1  0.793686  0.121275  0.443708  1.0
  H  H2137  1  0.289884  0.381969  0.507714  1.0
  H  H2138  1  0.210116  0.618031  0.007714  1.0
  H  H2139  1  0.710116  0.881969  0.992286  1.0
  H  H2140  1  0.789884  0.118031  0.492286  1.0
  H  H2141  1  0.540814  0.273568  0.356862  1.0
  H  H2142  1  0.959186  0.726432  0.856862  1.0
  H  H2143  1  0.459186  0.773568  0.143138  1.0
  H  H2144  1  0.040814  0.226432  0.643138  1.0
  H  H2145  1  0.579493  0.269066  0.354065  1.0
  H  H2146  1  0.920507  0.730934  0.854065  1.0
  H  H2147  1  0.420507  0.769066  0.145935  1.0
  H  H2148  1  0.079493  0.230934  0.645935  1.0
  H  H2149  1  0.606361  0.291821  0.315148  1.0
  H  H2150  1  0.893639  0.708179  0.815148  1.0
  H  H2151  1  0.393639  0.791821  0.184852  1.0
  H  H2152  1  0.106361  0.208179  0.684852  1.0
  H  H2153  1  0.607335  0.324332  0.275121  1.0
  H  H2154  1  0.892665  0.675668  0.775121  1.0
  H  H2155  1  0.392665  0.824332  0.224879  1.0
  H  H2156  1  0.107335  0.175668  0.724879  1.0
  H  H2157  1  0.517623  0.356989  0.294544  1.0
  H  H2158  1  0.982377  0.643011  0.794544  1.0
  H  H2159  1  0.482377  0.856989  0.205456  1.0
  H  H2160  1  0.017623  0.143011  0.705456  1.0
  H  H2161  1  0.515917  0.322809  0.332432  1.0
  H  H2162  1  0.984083  0.677191  0.832432  1.0
  H  H2163  1  0.484083  0.822809  0.167568  1.0
  H  H2164  1  0.015917  0.177191  0.667568  1.0
  H  H2165  1  0.564251  0.403682  0.279101  1.0
  H  H2166  1  0.935749  0.596318  0.779101  1.0
  H  H2167  1  0.435749  0.903682  0.220899  1.0
  H  H2168  1  0.064251  0.096318  0.720899  1.0
  H  H2169  1  0.567943  0.459965  0.253757  1.0
  H  H2170  1  0.932057  0.540035  0.753757  1.0
  H  H2171  1  0.432057  0.959965  0.246243  1.0
  H  H2172  1  0.067943  0.040035  0.746243  1.0
  H  H2173  1  0.565796  0.487794  0.211473  1.0
  H  H2174  1  0.934204  0.512206  0.711473  1.0
  H  H2175  1  0.434204  0.987794  0.288527  1.0
  H  H2176  1  0.065796  0.012206  0.788527  1.0
  H  H2177  1  0.558328  0.459152  0.170473  1.0
  H  H2178  1  0.941672  0.540848  0.670473  1.0
  H  H2179  1  0.441672  0.959152  0.329527  1.0
  H  H2180  1  0.058328  0.040848  0.829527  1.0
  H  H2181  1  0.557687  0.403238  0.171733  1.0
  H  H2182  1  0.942313  0.596762  0.671733  1.0
  H  H2183  1  0.442313  0.903238  0.328267  1.0
  H  H2184  1  0.057687  0.096762  0.828267  1.0
  H  H2185  1  0.538861  0.370881  0.444461  1.0
  H  H2186  1  0.961139  0.629119  0.944461  1.0
  H  H2187  1  0.461139  0.870881  0.055539  1.0
  H  H2188  1  0.038861  0.129119  0.555539  1.0
  H  H2189  1  0.575916  0.363852  0.453562  1.0
  H  H2190  1  0.924084  0.636148  0.953562  1.0
  H  H2191  1  0.424084  0.863852  0.046438  1.0
  H  H2192  1  0.075916  0.136148  0.546438  1.0
  H  H2193  1  0.566825  0.310184  0.458451  1.0
  H  H2194  1  0.933175  0.689816  0.958451  1.0
  H  H2195  1  0.433175  0.810184  0.041549  1.0
  H  H2196  1  0.066825  0.189816  0.541549  1.0
  H  H2197  1  0.533211  0.325073  0.469853  1.0
  H  H2198  1  0.966789  0.674927  0.969853  1.0
  H  H2199  1  0.466789  0.825073  0.030147  1.0
  H  H2200  1  0.033211  0.174927  0.530147  1.0
  H  H2201  1  0.568033  0.400535  0.407917  1.0
  H  H2202  1  0.931967  0.599465  0.907917  1.0
  H  H2203  1  0.431967  0.900535  0.092083  1.0
  H  H2204  1  0.068033  0.099465  0.592083  1.0
  H  H2205  1  0.573660  0.380908  0.379494  1.0
  H  H2206  1  0.926340  0.619092  0.879494  1.0
  H  H2207  1  0.426340  0.880908  0.120506  1.0
  H  H2208  1  0.073660  0.119092  0.620506  1.0
  H  H2209  1  0.514009  0.393954  0.406574  1.0
  H  H2210  1  0.985991  0.606046  0.906574  1.0
  H  H2211  1  0.485991  0.893954  0.093426  1.0
  H  H2212  1  0.014009  0.106046  0.593426  1.0
  H  H2213  1  0.521658  0.395768  0.373881  1.0
  H  H2214  1  0.978342  0.604232  0.873881  1.0
  H  H2215  1  0.478342  0.895768  0.126119  1.0
  H  H2216  1  0.021658  0.104232  0.626119  1.0
  H  H2217  1  0.603286  0.321192  0.425042  1.0
  H  H2218  1  0.896714  0.678808  0.925042  1.0
  H  H2219  1  0.396714  0.821192  0.074958  1.0
  H  H2220  1  0.103286  0.178808  0.574958  1.0
  H  H2221  1  0.615922  0.353935  0.410704  1.0
  H  H2222  1  0.884078  0.646065  0.910704  1.0
  H  H2223  1  0.384078  0.853935  0.089296  1.0
  H  H2224  1  0.115922  0.146065  0.589296  1.0
  H  H2225  1  0.601746  0.336806  0.367412  1.0
  H  H2226  1  0.898254  0.663194  0.867412  1.0
  H  H2227  1  0.398254  0.836806  0.132588  1.0
  H  H2228  1  0.101746  0.163194  0.632588  1.0
  H  H2229  1  0.616349  0.304630  0.381318  1.0
  H  H2230  1  0.883651  0.695370  0.881318  1.0
  H  H2231  1  0.383651  0.804630  0.118682  1.0
  H  H2232  1  0.116349  0.195370  0.618682  1.0
  H  H2233  1  0.394325  0.185556  0.411878  1.0
  H  H2234  1  0.105675  0.814444  0.911878  1.0
  H  H2235  1  0.605675  0.685556  0.088122  1.0
  H  H2236  1  0.894325  0.314444  0.588122  1.0
  H  H2237  1  0.316101  0.034761  0.225280  1.0
  H  H2238  1  0.183899  0.965239  0.725280  1.0
  H  H2239  1  0.683899  0.534761  0.274720  1.0
  H  H2240  1  0.816101  0.465239  0.774720  1.0
  H  H2241  1  0.332925  0.981647  0.229425  1.0
  H  H2242  1  0.167075  0.018353  0.729425  1.0
  H  H2243  1  0.667075  0.481647  0.270575  1.0
  H  H2244  1  0.832925  0.518353  0.770575  1.0
  H  H2245  1  0.350037  0.962971  0.273048  1.0
  H  H2246  1  0.149963  0.037029  0.773048  1.0
  H  H2247  1  0.649963  0.462971  0.226952  1.0
  H  H2248  1  0.850037  0.537029  0.726952  1.0
  H  H2249  1  0.359288  0.000983  0.308524  1.0
  H  H2250  1  0.140712  0.999017  0.808524  1.0
  H  H2251  1  0.640712  0.500983  0.191476  1.0
  H  H2252  1  0.859288  0.499017  0.691476  1.0
  H  H2253  1  0.342823  0.057011  0.328591  1.0
  H  H2254  1  0.157177  0.942989  0.828591  1.0
  H  H2255  1  0.657177  0.557011  0.171409  1.0
  H  H2256  1  0.842823  0.442989  0.671409  1.0
  H  H2257  1  0.280867  0.121815  0.329597  1.0
  H  H2258  1  0.219133  0.878185  0.829597  1.0
  H  H2259  1  0.719133  0.621815  0.170403  1.0
  H  H2260  1  0.780867  0.378185  0.670403  1.0
  H  H2261  1  0.285808  0.162472  0.362507  1.0
  H  H2262  1  0.214192  0.837528  0.862507  1.0
  H  H2263  1  0.714192  0.662472  0.137493  1.0
  H  H2264  1  0.785808  0.337528  0.637493  1.0
  H  H2265  1  0.383226  0.157012  0.357153  1.0
  H  H2266  1  0.116774  0.842988  0.857153  1.0
  H  H2267  1  0.616774  0.657012  0.142847  1.0
  H  H2268  1  0.883226  0.342988  0.642847  1.0
  H  H2269  1  0.379258  0.115497  0.324726  1.0
  H  H2270  1  0.120742  0.884503  0.824726  1.0
  H  H2271  1  0.620742  0.615497  0.175274  1.0
  H  H2272  1  0.879258  0.384503  0.675274  1.0
  H  H2273  1  0.359464  0.201534  0.380462  1.0
  H  H2274  1  0.140536  0.798466  0.880462  1.0
  H  H2275  1  0.640536  0.701534  0.119538  1.0
  H  H2276  1  0.859464  0.298466  0.619538  1.0
  H  H2277  1  0.320973  0.203003  0.385851  1.0
  H  H2278  1  0.179027  0.796997  0.885851  1.0
  H  H2279  1  0.679027  0.703003  0.114149  1.0
  H  H2280  1  0.820973  0.296997  0.614149  1.0
  H  H2281  1  0.419555  0.223315  0.434691  1.0
  H  H2282  1  0.080445  0.776685  0.934691  1.0
  H  H2283  1  0.580445  0.723315  0.065309  1.0
  H  H2284  1  0.919555  0.276685  0.565309  1.0
  H  H2285  1  0.424693  0.223964  0.467528  1.0
  H  H2286  1  0.075307  0.776036  0.967528  1.0
  H  H2287  1  0.575307  0.723964  0.032472  1.0
  H  H2288  1  0.924693  0.276036  0.532472  1.0
  H  H2289  1  0.371698  0.248359  0.414601  1.0
  H  H2290  1  0.128302  0.751641  0.914601  1.0
  H  H2291  1  0.628302  0.748359  0.085399  1.0
  H  H2292  1  0.871698  0.251641  0.585399  1.0
  H  H2293  1  0.337042  0.293020  0.415741  1.0
  H  H2294  1  0.162958  0.706980  0.915741  1.0
  H  H2295  1  0.662958  0.793020  0.084259  1.0
  H  H2296  1  0.837042  0.206980  0.584259  1.0
  H  H2297  1  0.357845  0.304843  0.497304  1.0
  H  H2298  1  0.142155  0.695157  0.997304  1.0
  H  H2299  1  0.642155  0.804843  0.002696  1.0
  H  H2300  1  0.857845  0.195157  0.502696  1.0
  H  H2301  1  0.390074  0.258847  0.496431  1.0
  H  H2302  1  0.109926  0.741153  0.996431  1.0
  H  H2303  1  0.609926  0.758847  0.003569  1.0
  H  H2304  1  0.890074  0.241153  0.503569  1.0
  H  H2305  1  0.282180  0.307659  0.454938  1.0
  H  H2306  1  0.217820  0.692341  0.954938  1.0
  H  H2307  1  0.717820  0.807659  0.045062  1.0
  H  H2308  1  0.782180  0.192341  0.545062  1.0
  H  H2309  1  0.227791  0.336945  0.448827  1.0
  H  H2310  1  0.272209  0.663055  0.948827  1.0
  H  H2311  1  0.772209  0.836945  0.051173  1.0
  H  H2312  1  0.727791  0.163055  0.551173  1.0
  H  H2313  1  0.202559  0.386528  0.440113  1.0
  H  H2314  1  0.297441  0.613472  0.940113  1.0
  H  H2315  1  0.797441  0.886528  0.059887  1.0
  H  H2316  1  0.702559  0.113472  0.559887  1.0
  H  H2317  1  0.232282  0.434820  0.440896  1.0
  H  H2318  1  0.267718  0.565180  0.940896  1.0
  H  H2319  1  0.767718  0.934820  0.059104  1.0
  H  H2320  1  0.732282  0.065180  0.559104  1.0
  H  H2321  1  0.286656  0.431734  0.455125  1.0
  H  H2322  1  0.213344  0.568266  0.955125  1.0
  H  H2323  1  0.713344  0.931734  0.044875  1.0
  H  H2324  1  0.786656  0.068266  0.544875  1.0
  H  H2325  1  0.432377  0.157627  0.388485  1.0
  H  H2326  1  0.067623  0.842373  0.888485  1.0
  H  H2327  1  0.567623  0.657627  0.111515  1.0
  H  H2328  1  0.932377  0.342373  0.611515  1.0
  H  H2329  1  0.431185  0.119225  0.386475  1.0
  H  H2330  1  0.068815  0.880775  0.886475  1.0
  H  H2331  1  0.568815  0.619225  0.113525  1.0
  H  H2332  1  0.931185  0.380775  0.613525  1.0
  H  H2333  1  0.470464  0.184065  0.419193  1.0
  H  H2334  1  0.029536  0.815935  0.919193  1.0
  H  H2335  1  0.529536  0.684065  0.080807  1.0
  H  H2336  1  0.970464  0.315935  0.580807  1.0
  H  H2337  1  0.517028  0.182511  0.447043  1.0
  H  H2338  1  0.982972  0.817489  0.947043  1.0
  H  H2339  1  0.482972  0.682511  0.052957  1.0
  H  H2340  1  0.017028  0.317489  0.552957  1.0
  H  H2341  1  0.518999  0.086796  0.438536  1.0
  H  H2342  1  0.981001  0.913204  0.938536  1.0
  H  H2343  1  0.481001  0.586796  0.061464  1.0
  H  H2344  1  0.018999  0.413204  0.561464  1.0
  H  H2345  1  0.471718  0.087379  0.412679  1.0
  H  H2346  1  0.028282  0.912621  0.912679  1.0
  H  H2347  1  0.528282  0.587379  0.087321  1.0
  H  H2348  1  0.971718  0.412621  0.587321  1.0
  H  H2349  1  0.538936  0.146477  0.492563  1.0
  H  H2350  1  0.961064  0.853523  0.992563  1.0
  H  H2351  1  0.461064  0.646477  0.007437  1.0
  H  H2352  1  0.038936  0.353523  0.507437  1.0
  H  H2353  1  0.578213  0.159957  0.532120  1.0
  H  H2354  1  0.921787  0.840043  0.032120  1.0
  H  H2355  1  0.421787  0.659957  0.967880  1.0
  H  H2356  1  0.078213  0.340043  0.467880  1.0
  H  H2357  1  0.631123  0.153470  0.550370  1.0
  H  H2358  1  0.868877  0.846530  0.050370  1.0
  H  H2359  1  0.368877  0.653470  0.949630  1.0
  H  H2360  1  0.131123  0.346530  0.449630  1.0
  H  H2361  1  0.674079  0.143930  0.519222  1.0
  H  H2362  1  0.825921  0.856070  0.019222  1.0
  H  H2363  1  0.325921  0.643930  0.980778  1.0
  H  H2364  1  0.174079  0.356070  0.480778  1.0
  H  H2365  1  0.662139  0.132747  0.472789  1.0
  H  H2366  1  0.837861  0.867253  0.972789  1.0
  H  H2367  1  0.337861  0.632747  0.027211  1.0
  H  H2368  1  0.162139  0.367253  0.527211  1.0
  H  H2369  1  0.322279  0.168879  0.466162  1.0
  H  H2370  1  0.177721  0.831121  0.966162  1.0
  H  H2371  1  0.677721  0.668879  0.033838  1.0
  H  H2372  1  0.822279  0.331121  0.533838  1.0
  H  H2373  1  0.311504  0.132163  0.460702  1.0
  H  H2374  1  0.188496  0.867837  0.960702  1.0
  H  H2375  1  0.688496  0.632163  0.039298  1.0
  H  H2376  1  0.811504  0.367837  0.539298  1.0
  H  H2377  1  0.311091  0.138795  0.413704  1.0
  H  H2378  1  0.188909  0.861205  0.913704  1.0
  H  H2379  1  0.688909  0.638795  0.086296  1.0
  H  H2380  1  0.811091  0.361205  0.586296  1.0
  H  H2381  1  0.297399  0.173121  0.424056  1.0
  H  H2382  1  0.202601  0.826879  0.924056  1.0
  H  H2383  1  0.702601  0.673121  0.075944  1.0
  H  H2384  1  0.797399  0.326879  0.575944  1.0
  H  H2385  1  0.362089  0.138596  0.496768  1.0
  H  H2386  1  0.137911  0.861404  0.996768  1.0
  H  H2387  1  0.637911  0.638596  0.003232  1.0
  H  H2388  1  0.862089  0.361404  0.503232  1.0
  H  H2389  1  0.397224  0.133278  0.482482  1.0
  H  H2390  1  0.102776  0.866722  0.982482  1.0
  H  H2391  1  0.602776  0.633278  0.017518  1.0
  H  H2392  1  0.897224  0.366722  0.517518  1.0
  H  H2393  1  0.362002  0.192036  0.486915  1.0
  H  H2394  1  0.137998  0.807964  0.986915  1.0
  H  H2395  1  0.637998  0.692036  0.013085  1.0
  H  H2396  1  0.862002  0.307964  0.513085  1.0
  H  H2397  1  0.398998  0.185648  0.496403  1.0
  H  H2398  1  0.101002  0.814352  0.996403  1.0
  H  H2399  1  0.601002  0.685648  0.003597  1.0
  H  H2400  1  0.898998  0.314352  0.503597  1.0
  H  H2401  1  0.348829  0.102908  0.427154  1.0
  H  H2402  1  0.151171  0.897092  0.927154  1.0
  H  H2403  1  0.651171  0.602908  0.072846  1.0
  H  H2404  1  0.848829  0.397092  0.572846  1.0
  H  H2405  1  0.361126  0.090847  0.457214  1.0
  H  H2406  1  0.138874  0.909153  0.957214  1.0
  H  H2407  1  0.638874  0.590847  0.042786  1.0
  H  H2408  1  0.861126  0.409153  0.542786  1.0
  H  H2409  1  0.414216  0.104900  0.447833  1.0
  H  H2410  1  0.085784  0.895100  0.947833  1.0
  H  H2411  1  0.585784  0.604900  0.052167  1.0
  H  H2412  1  0.914216  0.395100  0.552167  1.0
  H  H2413  1  0.402224  0.088161  0.419472  1.0
  H  H2414  1  0.097776  0.911839  0.919472  1.0
  H  H2415  1  0.597776  0.588161  0.080528  1.0
  H  H2416  1  0.902224  0.411839  0.580528  1.0
  H  H2417  1  0.224369  0.424328  0.510676  1.0
  H  H2418  1  0.275631  0.575672  0.010676  1.0
  H  H2419  1  0.775631  0.924328  0.989324  1.0
  H  H2420  1  0.724369  0.075672  0.489324  1.0
  H  H2421  1  0.221695  0.442677  0.539842  1.0
  H  H2422  1  0.278305  0.557323  0.039842  1.0
  H  H2423  1  0.778305  0.942677  0.960158  1.0
  H  H2424  1  0.721695  0.057323  0.460158  1.0
  H  H2425  1  0.245756  0.412549  0.536574  1.0
  H  H2426  1  0.254244  0.587451  0.036574  1.0
  H  H2427  1  0.754244  0.912549  0.963426  1.0
  H  H2428  1  0.745756  0.087451  0.463426  1.0
  H  H2429  1  0.212892  0.500516  0.500779  1.0
  H  H2430  1  0.287108  0.499484  0.000779  1.0
  H  H2431  1  0.787108  0.000516  0.999221  1.0
  H  H2432  1  0.712892  0.999484  0.499221  1.0
  H  H2433  1  0.235715  0.518582  0.478756  1.0
  H  H2434  1  0.264285  0.481418  0.978756  1.0
  H  H2435  1  0.764285  0.018582  0.021244  1.0
  H  H2436  1  0.735715  0.981418  0.521244  1.0
  H  H2437  1  0.210283  0.491888  0.468439  1.0
  H  H2438  1  0.289717  0.508112  0.968439  1.0
  H  H2439  1  0.789717  0.991888  0.031561  1.0
  H  H2440  1  0.710283  0.008112  0.531561  1.0
  H  H2441  1  0.244633  0.357121  0.666519  1.0
  H  H2442  1  0.255367  0.642879  0.166519  1.0
  H  H2443  1  0.755367  0.857121  0.833481  1.0
  H  H2444  1  0.744633  0.142879  0.333481  1.0
  H  H2445  1  0.221590  0.331454  0.651334  1.0
  H  H2446  1  0.278410  0.668546  0.151334  1.0
  H  H2447  1  0.778410  0.831454  0.848666  1.0
  H  H2448  1  0.721590  0.168546  0.348666  1.0
  H  H2449  1  0.223234  0.332565  0.684550  1.0
  H  H2450  1  0.276766  0.667435  0.184550  1.0
  H  H2451  1  0.776766  0.832565  0.815450  1.0
  H  H2452  1  0.723234  0.167435  0.315450  1.0
  H  H2453  1  0.839020  0.541197  0.290665  1.0
  H  H2454  1  0.660980  0.458803  0.790665  1.0
  H  H2455  1  0.160980  0.041197  0.209335  1.0
  H  H2456  1  0.339020  0.958803  0.709335  1.0
  H  H2457  1  0.805526  0.556437  0.301547  1.0
  H  H2458  1  0.694474  0.443563  0.801547  1.0
  H  H2459  1  0.194474  0.056437  0.198453  1.0
  H  H2460  1  0.305526  0.943563  0.698453  1.0
  H  H2461  1  0.805306  0.522835  0.285219  1.0
  H  H2462  1  0.694694  0.477165  0.785219  1.0
  H  H2463  1  0.194694  0.022835  0.214781  1.0
  H  H2464  1  0.305306  0.977165  0.714781  1.0
  H  H2465  1  0.575001  0.606681  0.562829  1.0
  H  H2466  1  0.924999  0.393319  0.062829  1.0
  H  H2467  1  0.424999  0.106681  0.937171  1.0
  H  H2468  1  0.075001  0.893319  0.437171  1.0
  H  H2469  1  0.589764  0.627262  0.537671  1.0
  H  H2470  1  0.910236  0.372738  0.037671  1.0
  H  H2471  1  0.410236  0.127262  0.962329  1.0
  H  H2472  1  0.089764  0.872738  0.462329  1.0
  H  H2473  1  0.582095  0.589744  0.533566  1.0
  H  H2474  1  0.917905  0.410256  0.033566  1.0
  H  H2475  1  0.417905  0.089744  0.966434  1.0
  H  H2476  1  0.082095  0.910256  0.466434  1.0
  H  H2477  1  0.523289  0.534515  0.031690  1.0
  H  H2478  1  0.976711  0.465485  0.531690  1.0
  H  H2479  1  0.476711  0.034515  0.468310  1.0
  H  H2480  1  0.023289  0.965485  0.968310  1.0
  H  H2481  1  0.536229  0.510897  0.055557  1.0
  H  H2482  1  0.963771  0.489103  0.555557  1.0
  H  H2483  1  0.463771  0.010897  0.444443  1.0
  H  H2484  1  0.036229  0.989103  0.944443  1.0
  H  H2485  1  0.535539  0.499021  0.023925  1.0
  H  H2486  1  0.964461  0.500979  0.523925  1.0
  H  H2487  1  0.464461  0.999021  0.476075  1.0
  H  H2488  1  0.035539  0.000979  0.976075  1.0
  H  H2489  1  0.587168  0.179041  0.644440  1.0
  H  H2490  1  0.912832  0.820959  0.144440  1.0
  H  H2491  1  0.412832  0.679041  0.855560  1.0
  H  H2492  1  0.087168  0.320959  0.355560  1.0
  H  H2493  1  0.553437  0.195847  0.649412  1.0
  H  H2494  1  0.946563  0.804153  0.149412  1.0
  H  H2495  1  0.446563  0.695847  0.850588  1.0
  H  H2496  1  0.053437  0.304153  0.350588  1.0
  H  H2497  1  0.585103  0.216706  0.646344  1.0
  H  H2498  1  0.914897  0.783294  0.146344  1.0
  H  H2499  1  0.414897  0.716706  0.853656  1.0
  H  H2500  1  0.085103  0.283294  0.353656  1.0
  H  H2501  1  0.485283  0.114343  0.498890  1.0
  H  H2502  1  0.014717  0.885657  0.998890  1.0
  H  H2503  1  0.514717  0.614343  0.001110  1.0
  H  H2504  1  0.985283  0.385657  0.501110  1.0
  H  H2505  1  0.451311  0.127256  0.486904  1.0
  H  H2506  1  0.048689  0.872744  0.986904  1.0
  H  H2507  1  0.548689  0.627256  0.013096  1.0
  H  H2508  1  0.951311  0.372744  0.513096  1.0
  H  H2509  1  0.451760  0.103561  0.513145  1.0
  H  H2510  1  0.048240  0.896439  0.013145  1.0
  H  H2511  1  0.548240  0.603561  0.986855  1.0
  H  H2512  1  0.951760  0.396439  0.486855  1.0
  H  H2513  1  0.463877  0.139221  0.540355  1.0
  H  H2514  1  0.036123  0.860779  0.040355  1.0
  H  H2515  1  0.536123  0.639221  0.959645  1.0
  H  H2516  1  0.963877  0.360779  0.459645  1.0
  H  H2517  1  0.445921  0.160983  0.517457  1.0
  H  H2518  1  0.054079  0.839017  0.017457  1.0
  H  H2519  1  0.554079  0.660983  0.982543  1.0
  H  H2520  1  0.945921  0.339017  0.482543  1.0
  H  H2521  1  0.535486  0.206788  0.547945  1.0
  H  H2522  1  0.964514  0.793212  0.047945  1.0
  H  H2523  1  0.464514  0.706788  0.952055  1.0
  H  H2524  1  0.035486  0.293212  0.452055  1.0
  H  H2525  1  0.519665  0.235803  0.530671  1.0
  H  H2526  1  0.980335  0.764197  0.030671  1.0
  H  H2527  1  0.480335  0.735803  0.969329  1.0
  H  H2528  1  0.019665  0.264197  0.469329  1.0
  H  H2529  1  0.537558  0.206936  0.514733  1.0
  H  H2530  1  0.962442  0.793064  0.014733  1.0
  H  H2531  1  0.462442  0.706936  0.985267  1.0
  H  H2532  1  0.037558  0.293064  0.485267  1.0
  H  H2533  1  0.484889  0.192343  0.548519  1.0
  H  H2534  1  0.015111  0.807657  0.048519  1.0
  H  H2535  1  0.515111  0.692343  0.951481  1.0
  H  H2536  1  0.984889  0.307657  0.451481  1.0
  H  H2537  1  0.477312  0.208582  0.519201  1.0
  H  H2538  1  0.022688  0.791418  0.019201  1.0
  H  H2539  1  0.522688  0.708582  0.980799  1.0
  H  H2540  1  0.977312  0.291418  0.480799  1.0
  H  H2541  1  0.533610  0.661215  0.498188  0.22
  H  H2542  1  0.966390  0.338785  0.998188  0.22
  H  H2543  1  0.466390  0.161215  0.001812  0.22
  H  H2544  1  0.033610  0.838785  0.501812  0.22
  H  H2545  1  0.533808  0.667390  0.466046  0.22
  H  H2546  1  0.966192  0.332610  0.966046  0.22
  H  H2547  1  0.466192  0.167390  0.033954  0.22
  H  H2548  1  0.033808  0.832610  0.533954  0.22
  H  H2549  1  0.501040  0.659127  0.481232  0.22
  H  H2550  1  0.998960  0.340873  0.981232  0.22
  H  H2551  1  0.498960  0.159127  0.018768  0.22
  H  H2552  1  0.001040  0.840873  0.518768  0.22
  H  H2553  1  0.676174  0.591241  0.635630  0.39
  H  H2554  1  0.823826  0.408759  0.135630  0.39
  H  H2555  1  0.323826  0.091241  0.864370  0.39
  H  H2556  1  0.176174  0.908759  0.364370  0.39
  H  H2557  1  0.639878  0.605202  0.637652  0.39
  H  H2558  1  0.860122  0.394798  0.137652  0.39
  H  H2559  1  0.360122  0.105202  0.862348  0.39
  H  H2560  1  0.139878  0.894798  0.362348  0.39
  H  H2561  1  0.648277  0.570712  0.650708  0.39
  H  H2562  1  0.851723  0.429288  0.150708  0.39
  H  H2563  1  0.351723  0.070712  0.849292  0.39
  H  H2564  1  0.148277  0.929288  0.349292  0.39
  H  H2565  1  0.438320  0.519894  0.301224  0.5
  H  H2566  1  0.061680  0.480106  0.801224  0.5
  H  H2567  1  0.561680  0.019894  0.198776  0.5
  H  H2568  1  0.938320  0.980106  0.698776  0.5
  H  H2569  1  0.449386  0.556192  0.307352  0.5
  H  H2570  1  0.050614  0.443808  0.807352  0.5
  H  H2571  1  0.550614  0.056192  0.192648  0.5
  H  H2572  1  0.949386  0.943808  0.692648  0.5
  H  H2573  1  0.436264  0.546460  0.277175  0.5
  H  H2574  1  0.063736  0.453540  0.777175  0.5
  H  H2575  1  0.563736  0.046460  0.222825  0.5
  H  H2576  1  0.936264  0.953540  0.722825  0.5
  H  H2577  1  0.381657  0.632161  0.362739  0.5
  H  H2578  1  0.118343  0.367839  0.862739  0.5
  H  H2579  1  0.618343  0.132161  0.137261  0.5
  H  H2580  1  0.881657  0.867839  0.637261  0.5
  H  H2581  1  0.352678  0.620860  0.342607  0.5
  H  H2582  1  0.147322  0.379140  0.842607  0.5
  H  H2583  1  0.647322  0.120860  0.157393  0.5
  H  H2584  1  0.852678  0.879140  0.657393  0.5
  H  H2585  1  0.422665  0.545615  0.303933  0.5
  H  H2586  1  0.077335  0.454385  0.803933  0.5
  H  H2587  1  0.577335  0.045615  0.196067  0.5
  H  H2588  1  0.922665  0.954385  0.696067  0.5
  H  H2589  1  0.434904  0.579921  0.292874  0.5
  H  H2590  1  0.065096  0.420079  0.792874  0.5
  H  H2591  1  0.565096  0.079921  0.207126  0.5
  H  H2592  1  0.934904  0.920079  0.707126  0.5
  H  H2593  1  0.443336  0.568743  0.323884  0.5
  H  H2594  1  0.056664  0.431257  0.823884  0.5
  H  H2595  1  0.556664  0.068743  0.176116  0.5
  H  H2596  1  0.943336  0.931257  0.676116  0.5
  H  H2597  1  0.381451  0.580142  0.303632  0.5
  H  H2598  1  0.118549  0.419858  0.803632  0.5
  H  H2599  1  0.618549  0.080142  0.196368  0.5
  H  H2600  1  0.881451  0.919858  0.696368  0.5
  H  H2601  1  0.389817  0.569050  0.334400  0.5
  H  H2602  1  0.110183  0.430950  0.834400  0.5
  H  H2603  1  0.610183  0.069050  0.165600  0.5
  H  H2604  1  0.889817  0.930950  0.665600  0.5
  H  H2605  1  0.355870  0.677741  0.343107  0.5
  H  H2606  1  0.144130  0.322259  0.843107  0.5
  H  H2607  1  0.644130  0.177741  0.156893  0.5
  H  H2608  1  0.855870  0.822259  0.656893  0.5
  H  H2609  1  0.392869  0.676048  0.332644  0.5
  H  H2610  1  0.107131  0.323952  0.832644  0.5
  H  H2611  1  0.607131  0.176048  0.167356  0.5
  H  H2612  1  0.892869  0.823952  0.667356  0.5
  H  H2613  1  0.363945  0.664769  0.312550  0.5
  H  H2614  1  0.136055  0.335231  0.812550  0.5
  H  H2615  1  0.636055  0.164769  0.187450  0.5
  H  H2616  1  0.863945  0.835231  0.687450  0.5
  H  H2617  1  0.493938  0.478544  0.338906  0.5
  H  H2618  1  0.006062  0.521456  0.838906  0.5
  H  H2619  1  0.506062  0.978544  0.161094  0.5
  H  H2620  1  0.993938  0.021456  0.661094  0.5
  H  H2621  1  0.529708  0.463200  0.337717  0.5
  H  H2622  1  0.970292  0.536800  0.837717  0.5
  H  H2623  1  0.470292  0.963200  0.162283  0.5
  H  H2624  1  0.029708  0.036800  0.662283  0.5
  H  H2625  1  0.498797  0.440652  0.343537  0.5
  H  H2626  1  0.001203  0.559348  0.843537  0.5
  H  H2627  1  0.501203  0.940652  0.156463  0.5
  H  H2628  1  0.998797  0.059348  0.656463  0.5
  H  H2629  1  0.304303  0.939562  0.367601  0.5
  H  H2630  1  0.195697  0.060438  0.867601  0.5
  H  H2631  1  0.695697  0.439562  0.132399  0.5
  H  H2632  1  0.804303  0.560438  0.632399  0.5
  H  H2633  1  0.335666  0.955924  0.381474  0.5
  H  H2634  1  0.164334  0.044076  0.881474  0.5
  H  H2635  1  0.664334  0.455924  0.118526  0.5
  H  H2636  1  0.835666  0.544076  0.618526  0.5
  H  H2637  1  0.331018  0.917657  0.382796  0.5
  H  H2638  1  0.168982  0.082343  0.882796  0.5
  H  H2639  1  0.668982  0.417657  0.117204  0.5
  H  H2640  1  0.831018  0.582343  0.617204  0.5
  H  H2641  1  0.721444  0.381136  0.545997  0.5
  H  H2642  1  0.778556  0.618864  0.045997  0.5
  H  H2643  1  0.278556  0.881136  0.954003  0.5
  H  H2644  1  0.221444  0.118864  0.454003  0.5
  H  H2645  1  0.724025  0.345527  0.535325  0.5
  H  H2646  1  0.775975  0.654473  0.035325  0.5
  H  H2647  1  0.275975  0.845527  0.964675  0.5
  H  H2648  1  0.224025  0.154473  0.464675  0.5
  H  H2649  1  0.731955  0.353600  0.566428  0.5
  H  H2650  1  0.768045  0.646400  0.066428  0.5
  H  H2651  1  0.268045  0.853600  0.933572  0.5
  H  H2652  1  0.231955  0.146400  0.433572  0.5
  H  H2653  1  0.649188  0.402401  0.502766  0.5
  H  H2654  1  0.850812  0.597599  0.002766  0.5
  H  H2655  1  0.350812  0.902401  0.997234  0.5
  H  H2656  1  0.149188  0.097599  0.497234  0.5
  H  H2657  1  0.643574  0.389443  0.472538  0.5
  H  H2658  1  0.856426  0.610557  0.972538  0.5
  H  H2659  1  0.356426  0.889443  0.027462  0.5
  H  H2660  1  0.143574  0.110557  0.527462  0.5
  H  H2661  1  0.668502  0.372168  0.492238  0.5
  H  H2662  1  0.831498  0.627832  0.992238  0.5
  H  H2663  1  0.331498  0.872168  0.007762  0.5
  H  H2664  1  0.168502  0.127832  0.507762  0.5
  H  H2665  1  0.518088  0.571296  0.627315  0.61
  H  H2666  1  0.981912  0.428704  0.127315  0.61
  H  H2667  1  0.481912  0.071296  0.872685  0.61
  H  H2668  1  0.018088  0.928704  0.372685  0.61
  H  H2669  1  0.544088  0.559939  0.650099  0.61
  H  H2670  1  0.955912  0.440061  0.150099  0.61
  H  H2671  1  0.455912  0.059939  0.849901  0.61
  H  H2672  1  0.044088  0.940061  0.349901  0.61
  H  H2673  1  0.544787  0.544640  0.619574  0.61
  H  H2674  1  0.955213  0.455360  0.119574  0.61
  H  H2675  1  0.455213  0.044640  0.880426  0.61
  H  H2676  1  0.044787  0.955360  0.380426  0.61
  H  H2677  1  0.532074  0.703073  0.457231  0.78
  H  H2678  1  0.967926  0.296927  0.957231  0.78
  H  H2679  1  0.467926  0.203073  0.042769  0.78
  H  H2680  1  0.032074  0.796927  0.542769  0.78
  H  H2681  1  0.524754  0.667810  0.469178  0.78
  H  H2682  1  0.975246  0.332190  0.969178  0.78
  H  H2683  1  0.475246  0.167810  0.030822  0.78
  H  H2684  1  0.024754  0.832190  0.530822  0.78
  H  H2685  1  0.550976  0.690436  0.484209  0.78
  H  H2686  1  0.949024  0.309564  0.984209  0.78
  H  H2687  1  0.449024  0.190436  0.015791  0.78
  H  H2688  1  0.050976  0.809564  0.515791  0.78
  C  C2689  1  0.318300  0.977300  0.498100  1.0
  C  C2690  1  0.181700  0.022700  0.998100  1.0
  C  C2691  1  0.681700  0.477300  0.001900  1.0
  C  C2692  1  0.818300  0.522700  0.501900  1.0
  C  C2693  1  0.338300  0.990600  0.478100  1.0
  C  C2694  1  0.161700  0.009400  0.978100  1.0
  C  C2695  1  0.661700  0.490600  0.021900  1.0
  C  C2696  1  0.838300  0.509400  0.521900  1.0
  C  C2697  1  0.343900  0.973300  0.454400  1.0
  C  C2698  1  0.156100  0.026700  0.954400  1.0
  C  C2699  1  0.656100  0.473300  0.045600  1.0
  C  C2700  1  0.843900  0.526700  0.545600  1.0
  C  C2701  1  0.329200  0.944000  0.449900  1.0
  C  C2702  1  0.170800  0.056000  0.949900  1.0
  C  C2703  1  0.670800  0.444000  0.050100  1.0
  C  C2704  1  0.829200  0.556000  0.550100  1.0
  C  C2705  1  0.307500  0.933000  0.469900  1.0
  C  C2706  1  0.192500  0.067000  0.969900  1.0
  C  C2707  1  0.692500  0.433000  0.030100  1.0
  C  C2708  1  0.807500  0.567000  0.530100  1.0
  C  C2709  1  0.289400  0.903500  0.467200  1.0
  C  C2710  1  0.210600  0.096500  0.967200  1.0
  C  C2711  1  0.710600  0.403500  0.032800  1.0
  C  C2712  1  0.789400  0.596500  0.532800  1.0
  C  C2713  1  0.256600  0.862600  0.486600  1.0
  C  C2714  1  0.243400  0.137400  0.986600  1.0
  C  C2715  1  0.743400  0.362600  0.013400  1.0
  C  C2716  1  0.756600  0.637400  0.513400  1.0
  C  C2717  1  0.223100  0.859700  0.483600  1.0
  C  C2718  1  0.276900  0.140300  0.983600  1.0
  C  C2719  1  0.776900  0.359700  0.016400  1.0
  C  C2720  1  0.723100  0.640300  0.516400  1.0
  C  C2721  1  0.209200  0.829400  0.483100  1.0
  C  C2722  1  0.290800  0.170600  0.983100  1.0
  C  C2723  1  0.790800  0.329400  0.016900  1.0
  C  C2724  1  0.709200  0.670600  0.516900  1.0
  C  C2725  1  0.228300  0.802300  0.484200  1.0
  C  C2726  1  0.271700  0.197700  0.984200  1.0
  C  C2727  1  0.771700  0.302300  0.015800  1.0
  C  C2728  1  0.728300  0.697700  0.515800  1.0
  C  C2729  1  0.261300  0.806000  0.488500  1.0
  C  C2730  1  0.238700  0.194000  0.988500  1.0
  C  C2731  1  0.738700  0.306000  0.011500  1.0
  C  C2732  1  0.761300  0.694000  0.511500  1.0
  C  C2733  1  0.275500  0.836000  0.487700  1.0
  C  C2734  1  0.224500  0.164000  0.987700  1.0
  C  C2735  1  0.724500  0.336000  0.012300  1.0
  C  C2736  1  0.775500  0.664000  0.512300  1.0
  C  C2737  1  0.213300  0.769500  0.484700  1.0
  C  C2738  1  0.286700  0.230500  0.984700  1.0
  C  C2739  1  0.786700  0.269500  0.015300  1.0
  C  C2740  1  0.713300  0.730500  0.515300  1.0
  C  C2741  1  0.229600  0.665000  0.471000  1.0
  C  C2742  1  0.270400  0.335000  0.971000  1.0
  C  C2743  1  0.770400  0.165000  0.029000  1.0
  C  C2744  1  0.729600  0.835000  0.529000  1.0
  C  C2745  1  0.195200  0.662800  0.481400  1.0
  C  C2746  1  0.304800  0.337200  0.981400  1.0
  C  C2747  1  0.804800  0.162800  0.018600  1.0
  C  C2748  1  0.695200  0.837200  0.518600  1.0
  C  C2749  1  0.182800  0.687300  0.497400  1.0
  C  C2750  1  0.317200  0.312700  0.997400  1.0
  C  C2751  1  0.817200  0.187300  0.002600  1.0
  C  C2752  1  0.682800  0.812700  0.502600  1.0
  C  C2753  1  0.150700  0.685900  0.507300  1.0
  C  C2754  1  0.349300  0.314100  0.007300  1.0
  C  C2755  1  0.849300  0.185900  0.992700  1.0
  C  C2756  1  0.650700  0.814100  0.492700  1.0
  C  C2757  1  0.130900  0.660700  0.500100  1.0
  C  C2758  1  0.369100  0.339300  0.000100  1.0
  C  C2759  1  0.869100  0.160700  0.999900  1.0
  C  C2760  1  0.630900  0.839300  0.499900  1.0
  C  C2761  1  0.142500  0.637000  0.482400  1.0
  C  C2762  1  0.357500  0.363000  0.982400  1.0
  C  C2763  1  0.857500  0.137000  0.017600  1.0
  C  C2764  1  0.642500  0.863000  0.517600  1.0
  C  C2765  1  0.174600  0.638100  0.473100  1.0
  C  C2766  1  0.325400  0.361900  0.973100  1.0
  C  C2767  1  0.825400  0.138100  0.026900  1.0
  C  C2768  1  0.674600  0.861900  0.526900  1.0
  C  C2769  1  0.078500  0.683000  0.502400  1.0
  C  C2770  1  0.421500  0.317000  0.002400  1.0
  C  C2771  1  0.921500  0.183000  0.997600  1.0
  C  C2772  1  0.578500  0.817000  0.497600  1.0
  C  C2773  1  0.046200  0.684200  0.514000  1.0
  C  C2774  1  0.453800  0.315800  0.014000  1.0
  C  C2775  1  0.953800  0.184200  0.986000  1.0
  C  C2776  1  0.546200  0.815800  0.486000  1.0
  C  C2777  1  0.025300  0.709600  0.510100  1.0
  C  C2778  1  0.474700  0.290400  0.010100  1.0
  C  C2779  1  0.974700  0.209600  0.989900  1.0
  C  C2780  1  0.525300  0.790400  0.489900  1.0
  C  C2781  1  0.995300  0.707800  0.523000  1.0
  C  C2782  1  0.504700  0.292200  0.023000  1.0
  C  C2783  1  0.004700  0.207800  0.977000  1.0
  C  C2784  1  0.495300  0.792200  0.477000  1.0
  C  C2785  1  0.987100  0.682000  0.539700  1.0
  C  C2786  1  0.512900  0.318000  0.039700  1.0
  C  C2787  1  0.012900  0.182000  0.960300  1.0
  C  C2788  1  0.487100  0.818000  0.460300  1.0
  C  C2789  1  0.009800  0.658000  0.542900  1.0
  C  C2790  1  0.490200  0.342000  0.042900  1.0
  C  C2791  1  0.990200  0.158000  0.957100  1.0
  C  C2792  1  0.509800  0.842000  0.457100  1.0
  C  C2793  1  0.309400  0.734700  0.455600  1.0
  C  C2794  1  0.190600  0.265300  0.955600  1.0
  C  C2795  1  0.690600  0.234700  0.044400  1.0
  C  C2796  1  0.809400  0.765300  0.544400  1.0
  C  C2797  1  0.327900  0.704600  0.448200  1.0
  C  C2798  1  0.172100  0.295400  0.948200  1.0
  C  C2799  1  0.672100  0.204600  0.051800  1.0
  C  C2800  1  0.827900  0.795400  0.551800  1.0
  C  C2801  1  0.320100  0.676100  0.462100  1.0
  C  C2802  1  0.179900  0.323900  0.962100  1.0
  C  C2803  1  0.679900  0.176100  0.037900  1.0
  C  C2804  1  0.820100  0.823900  0.537900  1.0
  C  C2805  1  0.337900  0.648400  0.456500  1.0
  C  C2806  1  0.162100  0.351600  0.956500  1.0
  C  C2807  1  0.662100  0.148400  0.043500  1.0
  C  C2808  1  0.837900  0.851600  0.543500  1.0
  C  C2809  1  0.362300  0.649000  0.437200  1.0
  C  C2810  1  0.137700  0.351000  0.937200  1.0
  C  C2811  1  0.637700  0.149000  0.062800  1.0
  C  C2812  1  0.862300  0.851000  0.562800  1.0
  C  C2813  1  0.369700  0.677000  0.422800  1.0
  C  C2814  1  0.130300  0.323000  0.922800  1.0
  C  C2815  1  0.630300  0.177000  0.077200  1.0
  C  C2816  1  0.869700  0.823000  0.577200  1.0
  C  C2817  1  0.352400  0.704300  0.429200  1.0
  C  C2818  1  0.147600  0.295700  0.929200  1.0
  C  C2819  1  0.647600  0.204300  0.070800  1.0
  C  C2820  1  0.852400  0.795700  0.570800  1.0
  C  C2821  1  0.370600  0.602600  0.411200  1.0
  C  C2822  1  0.129400  0.397400  0.911200  1.0
  C  C2823  1  0.629400  0.102600  0.088800  1.0
  C  C2824  1  0.870600  0.897400  0.588800  1.0
  C  C2825  1  0.387700  0.572800  0.405200  1.0
  C  C2826  1  0.112300  0.427200  0.905200  1.0
  C  C2827  1  0.612300  0.072800  0.094800  1.0
  C  C2828  1  0.887700  0.927200  0.594800  1.0
  C  C2829  1  0.379700  0.551900  0.384300  1.0
  C  C2830  1  0.120300  0.448100  0.884300  1.0
  C  C2831  1  0.620300  0.051900  0.115700  1.0
  C  C2832  1  0.879700  0.948100  0.615700  1.0
  C  C2833  1  0.400300  0.526200  0.380100  1.0
  C  C2834  1  0.099700  0.473800  0.880100  1.0
  C  C2835  1  0.599700  0.026200  0.119900  1.0
  C  C2836  1  0.900300  0.973800  0.619900  1.0
  C  C2837  1  0.424500  0.519300  0.398700  1.0
  C  C2838  1  0.075500  0.480700  0.898700  1.0
  C  C2839  1  0.575500  0.019300  0.101300  1.0
  C  C2840  1  0.924500  0.980700  0.601300  1.0
  C  C2841  1  0.432000  0.542200  0.419000  1.0
  C  C2842  1  0.068000  0.457800  0.919000  1.0
  C  C2843  1  0.568000  0.042200  0.081000  1.0
  C  C2844  1  0.932000  0.957800  0.581000  1.0
  C  C2845  1  0.196200  0.743700  0.412800  1.0
  C  C2846  1  0.303800  0.256300  0.912800  1.0
  C  C2847  1  0.803800  0.243700  0.087200  1.0
  C  C2848  1  0.696200  0.756300  0.587200  1.0
  C  C2849  1  0.196100  0.767600  0.436000  1.0
  C  C2850  1  0.303900  0.232400  0.936000  1.0
  C  C2851  1  0.803900  0.267600  0.064000  1.0
  C  C2852  1  0.696100  0.732400  0.564000  1.0
  C  C2853  1  0.230100  0.696700  0.399100  1.0
  C  C2854  1  0.269900  0.303300  0.899100  1.0
  C  C2855  1  0.769900  0.196700  0.100900  1.0
  C  C2856  1  0.730100  0.803300  0.600900  1.0
  C  C2857  1  0.218200  0.675900  0.421500  1.0
  C  C2858  1  0.281800  0.324100  0.921500  1.0
  C  C2859  1  0.781800  0.175900  0.078500  1.0
  C  C2860  1  0.718200  0.824100  0.578500  1.0
  C  C2861  1  0.252800  0.751800  0.398000  1.0
  C  C2862  1  0.247200  0.248200  0.898000  1.0
  C  C2863  1  0.747200  0.251800  0.102000  1.0
  C  C2864  1  0.752800  0.748200  0.602000  1.0
  C  C2865  1  0.285500  0.743500  0.409200  1.0
  C  C2866  1  0.214500  0.256500  0.909200  1.0
  C  C2867  1  0.714500  0.243500  0.090800  1.0
  C  C2868  1  0.785500  0.756500  0.590800  1.0
  C  C2869  1  0.231300  0.968000  0.483200  1.0
  C  C2870  1  0.268700  0.032000  0.983200  1.0
  C  C2871  1  0.768700  0.468000  0.016800  1.0
  C  C2872  1  0.731300  0.532000  0.516800  1.0
  C  C2873  1  0.202600  0.980700  0.473800  1.0
  C  C2874  1  0.297400  0.019300  0.973800  1.0
  C  C2875  1  0.797400  0.480700  0.026200  1.0
  C  C2876  1  0.702600  0.519300  0.526200  1.0
  C  C2877  1  0.174200  0.972200  0.487200  1.0
  C  C2878  1  0.325800  0.027800  0.987200  1.0
  C  C2879  1  0.825800  0.472200  0.012800  1.0
  C  C2880  1  0.674200  0.527800  0.512800  1.0
  C  C2881  1  0.175200  0.950300  0.508300  1.0
  C  C2882  1  0.324800  0.049700  0.008300  1.0
  C  C2883  1  0.824800  0.450300  0.991700  1.0
  C  C2884  1  0.675200  0.549700  0.491700  1.0
  C  C2885  1  0.204900  0.938900  0.517400  1.0
  C  C2886  1  0.295100  0.061100  0.017400  1.0
  C  C2887  1  0.795100  0.438900  0.982600  1.0
  C  C2888  1  0.704900  0.561100  0.482600  1.0
  C  C2889  1  0.209500  0.913400  0.537300  1.0
  C  C2890  1  0.290500  0.086600  0.037300  1.0
  C  C2891  1  0.790500  0.413400  0.962700  1.0
  C  C2892  1  0.709500  0.586600  0.462700  1.0
  C  C2893  1  0.243100  0.877900  0.562000  1.0
  C  C2894  1  0.256900  0.122100  0.062000  1.0
  C  C2895  1  0.756900  0.377900  0.938000  1.0
  C  C2896  1  0.743100  0.622100  0.438000  1.0
  C  C2897  1  0.255100  0.884600  0.588500  1.0
  C  C2898  1  0.244900  0.115400  0.088500  1.0
  C  C2899  1  0.744900  0.384600  0.911500  1.0
  C  C2900  1  0.755100  0.615400  0.411500  1.0
  C  C2901  1  0.260600  0.858900  0.606100  1.0
  C  C2902  1  0.239400  0.141100  0.106100  1.0
  C  C2903  1  0.739400  0.358900  0.893900  1.0
  C  C2904  1  0.760600  0.641100  0.393900  1.0
  C  C2905  1  0.252500  0.827600  0.599500  1.0
  C  C2906  1  0.247500  0.172400  0.099500  1.0
  C  C2907  1  0.747500  0.327600  0.900500  1.0
  C  C2908  1  0.752500  0.672400  0.400500  1.0
  C  C2909  1  0.240500  0.822300  0.573000  1.0
  C  C2910  1  0.259500  0.177700  0.073000  1.0
  C  C2911  1  0.759500  0.322300  0.927000  1.0
  C  C2912  1  0.740500  0.677700  0.427000  1.0
  C  C2913  1  0.235100  0.847300  0.554700  1.0
  C  C2914  1  0.264900  0.152700  0.054700  1.0
  C  C2915  1  0.764900  0.347300  0.945300  1.0
  C  C2916  1  0.735100  0.652700  0.445300  1.0
  C  C2917  1  0.256600  0.799900  0.619400  1.0
  C  C2918  1  0.243400  0.200100  0.119400  1.0
  C  C2919  1  0.743400  0.299900  0.880600  1.0
  C  C2920  1  0.756600  0.700100  0.380600  1.0
  C  C2921  1  0.206800  0.709100  0.640600  1.0
  C  C2922  1  0.293200  0.290900  0.140600  1.0
  C  C2923  1  0.793200  0.209100  0.859400  1.0
  C  C2924  1  0.706800  0.790900  0.359400  1.0
  C  C2925  1  0.232400  0.712800  0.662200  1.0
  C  C2926  1  0.267600  0.287200  0.162200  1.0
  C  C2927  1  0.767600  0.212800  0.837800  1.0
  C  C2928  1  0.732400  0.787200  0.337800  1.0
  C  C2929  1  0.226600  0.705500  0.689800  1.0
  C  C2930  1  0.273400  0.294500  0.189800  1.0
  C  C2931  1  0.773400  0.205500  0.810200  1.0
  C  C2932  1  0.726600  0.794500  0.310200  1.0
  C  C2933  1  0.249300  0.713000  0.710700  1.0
  C  C2934  1  0.250700  0.287000  0.210700  1.0
  C  C2935  1  0.750700  0.213000  0.789300  1.0
  C  C2936  1  0.749300  0.787000  0.289300  1.0
  C  C2937  1  0.278500  0.726900  0.704300  1.0
  C  C2938  1  0.221500  0.273100  0.204300  1.0
  C  C2939  1  0.721500  0.226900  0.795700  1.0
  C  C2940  1  0.778500  0.773100  0.295700  1.0
  C  C2941  1  0.284900  0.733800  0.676400  1.0
  C  C2942  1  0.215100  0.266200  0.176400  1.0
  C  C2943  1  0.715100  0.233800  0.823600  1.0
  C  C2944  1  0.784900  0.766200  0.323600  1.0
  C  C2945  1  0.262200  0.727100  0.656700  1.0
  C  C2946  1  0.237800  0.272900  0.156700  1.0
  C  C2947  1  0.737800  0.227100  0.843300  1.0
  C  C2948  1  0.762200  0.772900  0.343300  1.0
  C  C2949  1  0.302200  0.759400  0.738000  1.0
  C  C2950  1  0.197800  0.240600  0.238000  1.0
  C  C2951  1  0.697800  0.259400  0.762000  1.0
  C  C2952  1  0.802200  0.740600  0.262000  1.0
  C  C2953  1  0.326700  0.764400  0.758700  1.0
  C  C2954  1  0.173300  0.235600  0.258700  1.0
  C  C2955  1  0.673300  0.264400  0.741300  1.0
  C  C2956  1  0.826700  0.735600  0.241300  1.0
  C  C2957  1  0.329700  0.791700  0.774000  1.0
  C  C2958  1  0.170300  0.208300  0.274000  1.0
  C  C2959  1  0.670300  0.291700  0.726000  1.0
  C  C2960  1  0.829700  0.708300  0.226000  1.0
  C  C2961  1  0.355700  0.794300  0.792300  1.0
  C  C2962  1  0.144300  0.205700  0.292300  1.0
  C  C2963  1  0.644300  0.294300  0.707700  1.0
  C  C2964  1  0.855700  0.705700  0.207700  1.0
  C  C2965  1  0.378900  0.770400  0.794100  1.0
  C  C2966  1  0.121100  0.229600  0.294100  1.0
  C  C2967  1  0.621100  0.270400  0.705900  1.0
  C  C2968  1  0.878900  0.729600  0.205900  1.0
  C  C2969  1  0.375400  0.743900  0.777000  1.0
  C  C2970  1  0.124600  0.256100  0.277000  1.0
  C  C2971  1  0.624600  0.243900  0.723000  1.0
  C  C2972  1  0.875400  0.756100  0.223000  1.0
  C  C2973  1  0.174100  0.767100  0.566500  1.0
  C  C2974  1  0.325900  0.232900  0.066500  1.0
  C  C2975  1  0.825900  0.267100  0.933500  1.0
  C  C2976  1  0.674100  0.732900  0.433500  1.0
  C  C2977  1  0.151400  0.738600  0.568000  1.0
  C  C2978  1  0.348600  0.261400  0.068000  1.0
  C  C2979  1  0.848600  0.238600  0.932000  1.0
  C  C2980  1  0.651400  0.761400  0.432000  1.0
  C  C2981  1  0.118800  0.740400  0.559600  1.0
  C  C2982  1  0.381200  0.259600  0.059600  1.0
  C  C2983  1  0.881200  0.240400  0.940400  1.0
  C  C2984  1  0.618800  0.759600  0.440400  1.0
  C  C2985  1  0.097600  0.714400  0.561600  1.0
  C  C2986  1  0.402400  0.285600  0.061600  1.0
  C  C2987  1  0.902400  0.214400  0.938400  1.0
  C  C2988  1  0.597600  0.785600  0.438400  1.0
  C  C2989  1  0.109600  0.685600  0.569700  1.0
  C  C2990  1  0.390400  0.314400  0.069700  1.0
  C  C2991  1  0.890400  0.185600  0.930300  1.0
  C  C2992  1  0.609600  0.814400  0.430300  1.0
  C  C2993  1  0.141900  0.682800  0.578000  1.0
  C  C2994  1  0.358100  0.317200  0.078000  1.0
  C  C2995  1  0.858100  0.182800  0.922000  1.0
  C  C2996  1  0.641900  0.817200  0.422000  1.0
  C  C2997  1  0.162600  0.708600  0.575300  1.0
  C  C2998  1  0.337400  0.291400  0.075300  1.0
  C  C2999  1  0.837400  0.208600  0.924700  1.0
  C  C3000  1  0.662600  0.791400  0.424700  1.0
  C  C3001  1  0.078000  0.646500  0.593500  1.0
  C  C3002  1  0.422000  0.353500  0.093500  1.0
  C  C3003  1  0.922000  0.146500  0.906500  1.0
  C  C3004  1  0.578000  0.853500  0.406500  1.0
  C  C3005  1  0.058000  0.618100  0.593300  1.0
  C  C3006  1  0.442000  0.381900  0.093300  1.0
  C  C3007  1  0.942000  0.118100  0.906700  1.0
  C  C3008  1  0.558000  0.881900  0.406700  1.0
  C  C3009  1  0.042600  0.605000  0.616100  1.0
  C  C3010  1  0.457400  0.395000  0.116100  1.0
  C  C3011  1  0.957400  0.105000  0.883900  1.0
  C  C3012  1  0.542600  0.895000  0.383900  1.0
  C  C3013  1  0.025000  0.577100  0.612700  1.0
  C  C3014  1  0.475000  0.422900  0.112700  1.0
  C  C3015  1  0.975000  0.077100  0.887300  1.0
  C  C3016  1  0.525000  0.922900  0.387300  1.0
  C  C3017  1  0.022300  0.563400  0.587200  1.0
  C  C3018  1  0.477700  0.436600  0.087200  1.0
  C  C3019  1  0.977700  0.063400  0.912800  1.0
  C  C3020  1  0.522300  0.936600  0.412800  1.0
  C  C3021  1  0.036900  0.578500  0.564600  1.0
  C  C3022  1  0.463100  0.421500  0.064600  1.0
  C  C3023  1  0.963100  0.078500  0.935400  1.0
  C  C3024  1  0.536900  0.921500  0.435400  1.0
  C  C3025  1  0.185800  0.805600  0.667400  1.0
  C  C3026  1  0.314200  0.194400  0.167400  1.0
  C  C3027  1  0.814200  0.305600  0.832600  1.0
  C  C3028  1  0.685800  0.694400  0.332600  1.0
  C  C3029  1  0.218200  0.815800  0.656300  1.0
  C  C3030  1  0.281800  0.184200  0.156300  1.0
  C  C3031  1  0.781800  0.315800  0.843700  1.0
  C  C3032  1  0.718200  0.684200  0.343700  1.0
  C  C3033  1  0.140400  0.769500  0.651300  1.0
  C  C3034  1  0.359600  0.230500  0.151300  1.0
  C  C3035  1  0.859600  0.269500  0.848700  1.0
  C  C3036  1  0.640400  0.730500  0.348700  1.0
  C  C3037  1  0.159600  0.739700  0.657800  1.0
  C  C3038  1  0.340400  0.260300  0.157800  1.0
  C  C3039  1  0.840400  0.239700  0.842200  1.0
  C  C3040  1  0.659600  0.760300  0.342200  1.0
  C  C3041  1  0.153700  0.820000  0.626600  1.0
  C  C3042  1  0.346300  0.180000  0.126600  1.0
  C  C3043  1  0.846300  0.320000  0.873400  1.0
  C  C3044  1  0.653700  0.680000  0.373400  1.0
  C  C3045  1  0.148000  0.805400  0.598600  1.0
  C  C3046  1  0.352000  0.194600  0.098600  1.0
  C  C3047  1  0.852000  0.305400  0.901400  1.0
  C  C3048  1  0.648000  0.694600  0.401400  1.0
  C  C3049  1  0.261400  0.985200  0.554400  1.0
  C  C3050  1  0.238600  0.014800  0.054400  1.0
  C  C3051  1  0.738600  0.485200  0.945600  1.0
  C  C3052  1  0.761400  0.514800  0.445600  1.0
  C  C3053  1  0.267500  0.005600  0.576300  1.0
  C  C3054  1  0.232500  0.994400  0.076300  1.0
  C  C3055  1  0.732500  0.505600  0.923700  1.0
  C  C3056  1  0.767500  0.494400  0.423700  1.0
  C  C3057  1  0.294700  0.000100  0.592100  1.0
  C  C3058  1  0.205300  0.999900  0.092100  1.0
  C  C3059  1  0.705300  0.500100  0.907900  1.0
  C  C3060  1  0.794700  0.499900  0.407900  1.0
  C  C3061  1  0.313400  0.973500  0.586600  1.0
  C  C3062  1  0.186600  0.026500  0.086600  1.0
  C  C3063  1  0.686600  0.473500  0.913400  1.0
  C  C3064  1  0.813400  0.526500  0.413400  1.0
  C  C3065  1  0.304700  0.952000  0.565900  1.0
  C  C3066  1  0.195300  0.048000  0.065900  1.0
  C  C3067  1  0.695300  0.452000  0.934100  1.0
  C  C3068  1  0.804700  0.548000  0.434100  1.0
  C  C3069  1  0.322500  0.923200  0.558700  1.0
  C  C3070  1  0.177500  0.076800  0.058700  1.0
  C  C3071  1  0.677500  0.423200  0.941300  1.0
  C  C3072  1  0.822500  0.576800  0.441300  1.0
  C  C3073  1  0.325900  0.875100  0.533800  1.0
  C  C3074  1  0.174100  0.124900  0.033800  1.0
  C  C3075  1  0.674100  0.375100  0.966200  1.0
  C  C3076  1  0.825900  0.624900  0.466200  1.0
  C  C3077  1  0.347500  0.872100  0.511700  1.0
  C  C3078  1  0.152500  0.127900  0.011700  1.0
  C  C3079  1  0.652500  0.372100  0.988300  1.0
  C  C3080  1  0.847500  0.627900  0.488300  1.0
  C  C3081  1  0.360500  0.842200  0.506600  1.0
  C  C3082  1  0.139500  0.157800  0.006600  1.0
  C  C3083  1  0.639500  0.342200  0.993400  1.0
  C  C3084  1  0.860500  0.657800  0.493400  1.0
  C  C3085  1  0.351400  0.815300  0.521300  1.0
  C  C3086  1  0.148600  0.184700  0.021300  1.0
  C  C3087  1  0.648600  0.315300  0.978700  1.0
  C  C3088  1  0.851400  0.684700  0.478700  1.0
  C  C3089  1  0.329300  0.818400  0.543100  1.0
  C  C3090  1  0.170700  0.181600  0.043100  1.0
  C  C3091  1  0.670700  0.318400  0.956900  1.0
  C  C3092  1  0.829300  0.681600  0.456900  1.0
  C  C3093  1  0.317900  0.849200  0.549600  1.0
  C  C3094  1  0.182100  0.150800  0.049600  1.0
  C  C3095  1  0.682100  0.349200  0.950400  1.0
  C  C3096  1  0.817900  0.650800  0.450400  1.0
  C  C3097  1  0.365500  0.782200  0.517000  1.0
  C  C3098  1  0.134500  0.217800  0.017000  1.0
  C  C3099  1  0.634500  0.282200  0.983000  1.0
  C  C3100  1  0.865500  0.717800  0.483000  1.0
  C  C3101  1  0.392100  0.695800  0.570500  1.0
  C  C3102  1  0.107900  0.304200  0.070500  1.0
  C  C3103  1  0.607900  0.195800  0.929500  1.0
  C  C3104  1  0.892100  0.804200  0.429500  1.0
  C  C3105  1  0.401800  0.681300  0.543400  1.0
  C  C3106  1  0.098200  0.318700  0.043400  1.0
  C  C3107  1  0.598200  0.181300  0.956600  1.0
  C  C3108  1  0.901800  0.818700  0.456600  1.0
  C  C3109  1  0.387500  0.692800  0.519300  1.0
  C  C3110  1  0.112500  0.307200  0.019300  1.0
  C  C3111  1  0.612500  0.192800  0.980700  1.0
  C  C3112  1  0.887500  0.807200  0.480700  1.0
  C  C3113  1  0.396600  0.680000  0.493900  1.0
  C  C3114  1  0.103400  0.320000  0.993900  1.0
  C  C3115  1  0.603400  0.180000  0.006100  1.0
  C  C3116  1  0.896600  0.820000  0.506100  1.0
  C  C3117  1  0.421000  0.657300  0.492400  1.0
  C  C3118  1  0.079000  0.342700  0.992400  1.0
  C  C3119  1  0.579000  0.157300  0.007600  1.0
  C  C3120  1  0.921000  0.842700  0.507600  1.0
  C  C3121  1  0.436500  0.646200  0.516100  1.0
  C  C3122  1  0.063500  0.353800  0.016100  1.0
  C  C3123  1  0.563500  0.146200  0.983900  1.0
  C  C3124  1  0.936500  0.853800  0.483900  1.0
  C  C3125  1  0.427200  0.659600  0.541100  1.0
  C  C3126  1  0.072800  0.340400  0.041100  1.0
  C  C3127  1  0.572800  0.159600  0.958900  1.0
  C  C3128  1  0.927200  0.840400  0.458900  1.0
  C  C3129  1  0.445200  0.668300  0.450200  1.0
  C  C3130  1  0.054800  0.331700  0.950200  1.0
  C  C3131  1  0.554800  0.168300  0.049800  1.0
  C  C3132  1  0.945200  0.831700  0.549800  1.0
  C  C3133  1  0.453400  0.659600  0.422400  1.0
  C  C3134  1  0.046600  0.340400  0.922400  1.0
  C  C3135  1  0.546600  0.159600  0.077600  1.0
  C  C3136  1  0.953400  0.840400  0.577600  1.0
  C  C3137  1  0.470700  0.678900  0.405100  1.0
  C  C3138  1  0.029300  0.321100  0.905100  1.0
  C  C3139  1  0.529300  0.178900  0.094900  1.0
  C  C3140  1  0.970700  0.821100  0.594900  1.0
  C  C3141  1  0.474900  0.668600  0.377900  1.0
  C  C3142  1  0.025100  0.331400  0.877900  1.0
  C  C3143  1  0.525100  0.168600  0.122100  1.0
  C  C3144  1  0.974900  0.831400  0.622100  1.0
  C  C3145  1  0.469300  0.636600  0.371800  1.0
  C  C3146  1  0.030700  0.363400  0.871800  1.0
  C  C3147  1  0.530700  0.136600  0.128200  1.0
  C  C3148  1  0.969300  0.863400  0.628200  1.0
  C  C3149  1  0.453000  0.617900  0.391000  1.0
  C  C3150  1  0.047000  0.382100  0.891000  1.0
  C  C3151  1  0.547000  0.117900  0.109000  1.0
  C  C3152  1  0.953000  0.882100  0.609000  1.0
  C  C3153  1  0.351000  0.784700  0.608500  1.0
  C  C3154  1  0.149000  0.215300  0.108500  1.0
  C  C3155  1  0.649000  0.284700  0.891500  1.0
  C  C3156  1  0.851000  0.715300  0.391500  1.0
  C  C3157  1  0.357300  0.765900  0.634800  1.0
  C  C3158  1  0.142700  0.234100  0.134800  1.0
  C  C3159  1  0.642700  0.265900  0.865200  1.0
  C  C3160  1  0.857300  0.734100  0.365200  1.0
  C  C3161  1  0.354700  0.780700  0.660900  1.0
  C  C3162  1  0.145300  0.219300  0.160900  1.0
  C  C3163  1  0.645300  0.280700  0.839100  1.0
  C  C3164  1  0.854700  0.719300  0.339100  1.0
  C  C3165  1  0.361000  0.763600  0.685300  1.0
  C  C3166  1  0.139000  0.236400  0.185300  1.0
  C  C3167  1  0.639000  0.263600  0.814700  1.0
  C  C3168  1  0.861000  0.736400  0.314700  1.0
  C  C3169  1  0.368400  0.732000  0.683600  1.0
  C  C3170  1  0.131600  0.268000  0.183600  1.0
  C  C3171  1  0.631600  0.232000  0.816400  1.0
  C  C3172  1  0.868400  0.768000  0.316400  1.0
  C  C3173  1  0.370100  0.717000  0.658000  1.0
  C  C3174  1  0.129900  0.283000  0.158000  1.0
  C  C3175  1  0.629900  0.217000  0.842000  1.0
  C  C3176  1  0.870100  0.783000  0.342000  1.0
  C  C3177  1  0.362500  0.733200  0.633900  1.0
  C  C3178  1  0.137500  0.266800  0.133900  1.0
  C  C3179  1  0.637500  0.233200  0.866100  1.0
  C  C3180  1  0.862500  0.766800  0.366100  1.0
  C  C3181  1  0.399500  0.699400  0.712900  1.0
  C  C3182  1  0.100500  0.300600  0.212900  1.0
  C  C3183  1  0.600500  0.199400  0.787100  1.0
  C  C3184  1  0.899500  0.800600  0.287100  1.0
  C  C3185  1  0.402900  0.678400  0.736800  1.0
  C  C3186  1  0.097100  0.321600  0.236800  1.0
  C  C3187  1  0.597100  0.178400  0.763200  1.0
  C  C3188  1  0.902900  0.821600  0.263200  1.0
  C  C3189  1  0.431800  0.664900  0.745400  1.0
  C  C3190  1  0.068200  0.335100  0.245400  1.0
  C  C3191  1  0.568200  0.164900  0.754600  1.0
  C  C3192  1  0.931800  0.835100  0.254600  1.0
  C  C3193  1  0.432600  0.648400  0.770000  1.0
  C  C3194  1  0.067400  0.351600  0.270000  1.0
  C  C3195  1  0.567400  0.148400  0.730000  1.0
  C  C3196  1  0.932600  0.851600  0.230000  1.0
  C  C3197  1  0.403900  0.643600  0.783700  1.0
  C  C3198  1  0.096100  0.356400  0.283700  1.0
  C  C3199  1  0.596100  0.143600  0.716300  1.0
  C  C3200  1  0.903900  0.856400  0.216300  1.0
  C  C3201  1  0.376200  0.659900  0.775800  1.0
  C  C3202  1  0.123800  0.340100  0.275800  1.0
  C  C3203  1  0.623800  0.159900  0.724200  1.0
  C  C3204  1  0.876200  0.840100  0.224200  1.0
  C  C3205  1  0.451000  0.778700  0.543000  1.0
  C  C3206  1  0.049000  0.221300  0.043000  1.0
  C  C3207  1  0.549000  0.278700  0.957000  1.0
  C  C3208  1  0.951000  0.721300  0.457000  1.0
  C  C3209  1  0.424600  0.789100  0.523800  1.0
  C  C3210  1  0.075400  0.210900  0.023800  1.0
  C  C3211  1  0.575400  0.289100  0.976200  1.0
  C  C3212  1  0.924600  0.710900  0.476200  1.0
  C  C3213  1  0.452700  0.756800  0.591300  1.0
  C  C3214  1  0.047300  0.243200  0.091300  1.0
  C  C3215  1  0.547300  0.256800  0.908700  1.0
  C  C3216  1  0.952700  0.743200  0.408700  1.0
  C  C3217  1  0.441700  0.724300  0.583600  1.0
  C  C3218  1  0.058300  0.275700  0.083600  1.0
  C  C3219  1  0.558300  0.224300  0.916400  1.0
  C  C3220  1  0.941700  0.775700  0.416400  1.0
  C  C3221  1  0.432200  0.811900  0.582100  1.0
  C  C3222  1  0.067800  0.188100  0.082100  1.0
  C  C3223  1  0.567800  0.311900  0.917900  1.0
  C  C3224  1  0.932200  0.688100  0.417900  1.0
  C  C3225  1  0.404700  0.810600  0.602800  1.0
  C  C3226  1  0.095300  0.189400  0.102800  1.0
  C  C3227  1  0.595300  0.310600  0.897200  1.0
  C  C3228  1  0.904700  0.689400  0.397200  1.0
  C  C3229  1  0.039300  0.598300  0.492000  1.0
  C  C3230  1  0.460700  0.401700  0.992000  1.0
  C  C3231  1  0.960700  0.098300  0.008000  1.0
  C  C3232  1  0.539300  0.901700  0.508000  1.0
  C  C3233  1  0.034000  0.575500  0.472300  1.0
  C  C3234  1  0.466000  0.424500  0.972300  1.0
  C  C3235  1  0.966000  0.075500  0.027700  1.0
  C  C3236  1  0.534000  0.924500  0.527700  1.0
  C  C3237  1  0.055800  0.550200  0.469000  1.0
  C  C3238  1  0.444200  0.449800  0.969000  1.0
  C  C3239  1  0.944200  0.050200  0.031000  1.0
  C  C3240  1  0.555800  0.949800  0.531000  1.0
  C  C3241  1  0.083500  0.551100  0.484900  1.0
  C  C3242  1  0.416500  0.448900  0.984900  1.0
  C  C3243  1  0.916500  0.051100  0.015100  1.0
  C  C3244  1  0.583500  0.948900  0.515100  1.0
  C  C3245  1  0.088300  0.575600  0.504000  1.0
  C  C3246  1  0.411700  0.424400  0.004000  1.0
  C  C3247  1  0.911700  0.075600  0.996000  1.0
  C  C3248  1  0.588300  0.924400  0.496000  1.0
  C  C3249  1  0.115800  0.576900  0.522700  1.0
  C  C3250  1  0.384200  0.423100  0.022700  1.0
  C  C3251  1  0.884200  0.076900  0.977300  1.0
  C  C3252  1  0.615800  0.923100  0.477300  1.0
  C  C3253  1  0.145500  0.603600  0.557800  1.0
  C  C3254  1  0.354500  0.396400  0.057800  1.0
  C  C3255  1  0.854500  0.103600  0.942200  1.0
  C  C3256  1  0.645500  0.896400  0.442200  1.0
  C  C3257  1  0.143100  0.599600  0.586300  1.0
  C  C3258  1  0.356900  0.400400  0.086300  1.0
  C  C3259  1  0.856900  0.099600  0.913700  1.0
  C  C3260  1  0.643100  0.900400  0.413700  1.0
  C  C3261  1  0.170800  0.603500  0.602600  1.0
  C  C3262  1  0.329200  0.396500  0.102600  1.0
  C  C3263  1  0.829200  0.103500  0.897400  1.0
  C  C3264  1  0.670800  0.896500  0.397400  1.0
  C  C3265  1  0.200000  0.612600  0.590500  1.0
  C  C3266  1  0.300000  0.387400  0.090500  1.0
  C  C3267  1  0.800000  0.112600  0.909500  1.0
  C  C3268  1  0.700000  0.887400  0.409500  1.0
  C  C3269  1  0.201500  0.618800  0.562300  1.0
  C  C3270  1  0.298500  0.381200  0.062300  1.0
  C  C3271  1  0.798500  0.118800  0.937700  1.0
  C  C3272  1  0.701500  0.881200  0.437700  1.0
  C  C3273  1  0.173800  0.614500  0.546000  1.0
  C  C3274  1  0.326200  0.385500  0.046000  1.0
  C  C3275  1  0.826200  0.114500  0.954000  1.0
  C  C3276  1  0.673800  0.885500  0.454000  1.0
  C  C3277  1  0.229700  0.619000  0.607700  1.0
  C  C3278  1  0.270300  0.381000  0.107700  1.0
  C  C3279  1  0.770300  0.119000  0.892300  1.0
  C  C3280  1  0.729700  0.881000  0.392300  1.0
  C  C3281  1  0.334300  0.623800  0.606100  1.0
  C  C3282  1  0.165700  0.376200  0.106100  1.0
  C  C3283  1  0.665700  0.123800  0.893900  1.0
  C  C3284  1  0.834300  0.876200  0.393900  1.0
  C  C3285  1  0.332200  0.634500  0.635500  1.0
  C  C3286  1  0.167800  0.365500  0.135500  1.0
  C  C3287  1  0.667800  0.134500  0.864500  1.0
  C  C3288  1  0.832200  0.865500  0.364500  1.0
  C  C3289  1  0.302600  0.645400  0.645700  1.0
  C  C3290  1  0.197400  0.354600  0.145700  1.0
  C  C3291  1  0.697400  0.145400  0.854300  1.0
  C  C3292  1  0.802600  0.854600  0.354300  1.0
  C  C3293  1  0.298400  0.654100  0.673400  1.0
  C  C3294  1  0.201600  0.345900  0.173400  1.0
  C  C3295  1  0.701600  0.154100  0.826600  1.0
  C  C3296  1  0.798400  0.845900  0.326600  1.0
  C  C3297  1  0.324200  0.652900  0.691200  1.0
  C  C3298  1  0.175800  0.347100  0.191200  1.0
  C  C3299  1  0.675800  0.152900  0.808800  1.0
  C  C3300  1  0.824200  0.847100  0.308800  1.0
  C  C3301  1  0.354200  0.641000  0.681700  1.0
  C  C3302  1  0.145800  0.359000  0.181700  1.0
  C  C3303  1  0.645800  0.141000  0.818300  1.0
  C  C3304  1  0.854200  0.859000  0.318300  1.0
  C  C3305  1  0.357300  0.631300  0.654300  1.0
  C  C3306  1  0.142700  0.368700  0.154300  1.0
  C  C3307  1  0.642700  0.131300  0.845700  1.0
  C  C3308  1  0.857300  0.868700  0.345700  1.0
  C  C3309  1  0.300800  0.647700  0.734200  1.0
  C  C3310  1  0.199200  0.352300  0.234200  1.0
  C  C3311  1  0.699200  0.147700  0.765800  1.0
  C  C3312  1  0.800800  0.852300  0.265800  1.0
  C  C3313  1  0.293500  0.659600  0.761400  1.0
  C  C3314  1  0.206500  0.340400  0.261400  1.0
  C  C3315  1  0.706500  0.159600  0.738600  1.0
  C  C3316  1  0.793500  0.840400  0.238600  1.0
  C  C3317  1  0.273300  0.643900  0.779300  1.0
  C  C3318  1  0.226700  0.356100  0.279300  1.0
  C  C3319  1  0.726700  0.143900  0.720700  1.0
  C  C3320  1  0.773300  0.856100  0.220700  1.0
  C  C3321  1  0.268900  0.657900  0.805100  1.0
  C  C3322  1  0.231100  0.342100  0.305100  1.0
  C  C3323  1  0.731100  0.157900  0.694900  1.0
  C  C3324  1  0.768900  0.842100  0.194900  1.0
  C  C3325  1  0.284900  0.685800  0.812700  1.0
  C  C3326  1  0.215100  0.314200  0.312700  1.0
  C  C3327  1  0.715100  0.185800  0.687300  1.0
  C  C3328  1  0.784900  0.814200  0.187300  1.0
  C  C3329  1  0.304100  0.700600  0.792900  1.0
  C  C3330  1  0.195900  0.299400  0.292900  1.0
  C  C3331  1  0.695900  0.200600  0.707100  1.0
  C  C3332  1  0.804100  0.799400  0.207100  1.0
  C  C3333  1  0.277600  0.590300  0.530200  1.0
  C  C3334  1  0.222400  0.409700  0.030200  1.0
  C  C3335  1  0.722400  0.090300  0.969800  1.0
  C  C3336  1  0.777600  0.909700  0.469800  1.0
  C  C3337  1  0.310700  0.589700  0.516100  1.0
  C  C3338  1  0.189300  0.410300  0.016100  1.0
  C  C3339  1  0.689300  0.089700  0.983900  1.0
  C  C3340  1  0.810700  0.910300  0.483900  1.0
  C  C3341  1  0.315300  0.572700  0.491100  1.0
  C  C3342  1  0.184700  0.427300  0.991100  1.0
  C  C3343  1  0.684700  0.072700  0.008900  1.0
  C  C3344  1  0.815300  0.927300  0.508900  1.0
  C  C3345  1  0.346100  0.570600  0.479100  1.0
  C  C3346  1  0.153900  0.429400  0.979100  1.0
  C  C3347  1  0.653900  0.070600  0.020900  1.0
  C  C3348  1  0.846100  0.929400  0.520900  1.0
  C  C3349  1  0.372300  0.583400  0.491800  1.0
  C  C3350  1  0.127700  0.416600  0.991800  1.0
  C  C3351  1  0.627700  0.083400  0.008200  1.0
  C  C3352  1  0.872300  0.916600  0.508200  1.0
  C  C3353  1  0.368000  0.599900  0.516400  1.0
  C  C3354  1  0.132000  0.400100  0.016400  1.0
  C  C3355  1  0.632000  0.099900  0.983600  1.0
  C  C3356  1  0.868000  0.900100  0.483600  1.0
  C  C3357  1  0.337700  0.603300  0.528200  1.0
  C  C3358  1  0.162300  0.396700  0.028200  1.0
  C  C3359  1  0.662300  0.103300  0.971800  1.0
  C  C3360  1  0.837700  0.896700  0.471800  1.0
  C  C3361  1  0.425600  0.565500  0.494800  1.0
  C  C3362  1  0.074400  0.434500  0.994800  1.0
  C  C3363  1  0.574400  0.065500  0.005200  1.0
  C  C3364  1  0.925600  0.934500  0.505200  1.0
  C  C3365  1  0.458700  0.566100  0.483800  1.0
  C  C3366  1  0.041300  0.433900  0.983800  1.0
  C  C3367  1  0.541300  0.066100  0.016200  1.0
  C  C3368  1  0.958700  0.933900  0.516200  1.0
  C  C3369  1  0.482300  0.546300  0.494500  1.0
  C  C3370  1  0.017700  0.453700  0.994500  1.0
  C  C3371  1  0.517700  0.046300  0.005500  1.0
  C  C3372  1  0.982300  0.953700  0.505500  1.0
  C  C3373  1  0.513400  0.550300  0.484800  1.0
  C  C3374  1  0.986600  0.449700  0.984800  1.0
  C  C3375  1  0.486600  0.050300  0.015200  1.0
  C  C3376  1  0.013400  0.949700  0.515200  1.0
  C  C3377  1  0.518800  0.570300  0.462800  1.0
  C  C3378  1  0.981200  0.429700  0.962800  1.0
  C  C3379  1  0.481200  0.070300  0.037200  1.0
  C  C3380  1  0.018800  0.929700  0.537200  1.0
  C  C3381  1  0.493800  0.588700  0.451400  1.0
  C  C3382  1  0.006200  0.411300  0.951400  1.0
  C  C3383  1  0.506200  0.088700  0.048600  1.0
  C  C3384  1  0.993800  0.911300  0.548600  1.0
  C  C3385  1  0.268800  0.541900  0.627700  1.0
  C  C3386  1  0.231200  0.458100  0.127700  1.0
  C  C3387  1  0.731200  0.041900  0.872300  1.0
  C  C3388  1  0.768800  0.958100  0.372300  1.0
  C  C3389  1  0.240200  0.564200  0.625000  1.0
  C  C3390  1  0.259800  0.435800  0.125000  1.0
  C  C3391  1  0.759800  0.064200  0.875000  1.0
  C  C3392  1  0.740200  0.935800  0.375000  1.0
  C  C3393  1  0.322000  0.536000  0.603300  1.0
  C  C3394  1  0.178000  0.464000  0.103300  1.0
  C  C3395  1  0.678000  0.036000  0.896700  1.0
  C  C3396  1  0.822000  0.964000  0.396700  1.0
  C  C3397  1  0.335600  0.565800  0.615500  1.0
  C  C3398  1  0.164400  0.434200  0.115500  1.0
  C  C3399  1  0.664400  0.065800  0.884500  1.0
  C  C3400  1  0.835600  0.934200  0.384500  1.0
  C  C3401  1  0.270500  0.522600  0.579700  1.0
  C  C3402  1  0.229500  0.477400  0.079700  1.0
  C  C3403  1  0.729500  0.022600  0.920300  1.0
  C  C3404  1  0.770500  0.977400  0.420300  1.0
  C  C3405  1  0.279300  0.536600  0.552200  1.0
  C  C3406  1  0.220700  0.463400  0.052200  1.0
  C  C3407  1  0.720700  0.036600  0.947800  1.0
  C  C3408  1  0.779300  0.963400  0.447800  1.0
  C  C3409  1  0.625500  0.565400  0.869300  1.0
  C  C3410  1  0.874500  0.434600  0.369300  1.0
  C  C3411  1  0.374500  0.065400  0.630700  1.0
  C  C3412  1  0.125500  0.934600  0.130700  1.0
  C  C3413  1  0.653700  0.576300  0.857100  1.0
  C  C3414  1  0.846300  0.423700  0.357100  1.0
  C  C3415  1  0.346300  0.076300  0.642900  1.0
  C  C3416  1  0.153700  0.923700  0.142900  1.0
  C  C3417  1  0.654300  0.584300  0.829700  1.0
  C  C3418  1  0.845700  0.415700  0.329700  1.0
  C  C3419  1  0.345700  0.084300  0.670300  1.0
  C  C3420  1  0.154300  0.915700  0.170300  1.0
  C  C3421  1  0.626500  0.580000  0.814200  1.0
  C  C3422  1  0.873500  0.420000  0.314200  1.0
  C  C3423  1  0.373500  0.080000  0.685800  1.0
  C  C3424  1  0.126500  0.920000  0.185800  1.0
  C  C3425  1  0.599000  0.568500  0.827100  1.0
  C  C3426  1  0.901000  0.431500  0.327100  1.0
  C  C3427  1  0.401000  0.068500  0.672900  1.0
  C  C3428  1  0.099000  0.931500  0.172900  1.0
  C  C3429  1  0.568100  0.565100  0.813400  1.0
  C  C3430  1  0.931900  0.434900  0.313400  1.0
  C  C3431  1  0.431900  0.065100  0.686600  1.0
  C  C3432  1  0.068100  0.934900  0.186600  1.0
  C  C3433  1  0.513000  0.547600  0.813900  1.0
  C  C3434  1  0.987000  0.452400  0.313900  1.0
  C  C3435  1  0.487000  0.047600  0.686100  1.0
  C  C3436  1  0.013000  0.952400  0.186100  1.0
  C  C3437  1  0.484800  0.565800  0.818700  1.0
  C  C3438  1  0.015200  0.434200  0.318700  1.0
  C  C3439  1  0.515200  0.065800  0.681300  1.0
  C  C3440  1  0.984800  0.934200  0.181300  1.0
  C  C3441  1  0.456000  0.557700  0.805400  1.0
  C  C3442  1  0.044000  0.442300  0.305400  1.0
  C  C3443  1  0.544000  0.057700  0.694600  1.0
  C  C3444  1  0.956000  0.942300  0.194600  1.0
  C  C3445  1  0.455400  0.532100  0.786900  1.0
  C  C3446  1  0.044600  0.467900  0.286900  1.0
  C  C3447  1  0.544600  0.032100  0.713100  1.0
  C  C3448  1  0.955400  0.967900  0.213100  1.0
  C  C3449  1  0.484100  0.516100  0.781200  1.0
  C  C3450  1  0.015900  0.483900  0.281200  1.0
  C  C3451  1  0.515900  0.016100  0.718800  1.0
  C  C3452  1  0.984100  0.983900  0.218800  1.0
  C  C3453  1  0.512800  0.523300  0.795000  1.0
  C  C3454  1  0.987200  0.476700  0.295000  1.0
  C  C3455  1  0.487200  0.023300  0.705000  1.0
  C  C3456  1  0.012800  0.976700  0.205000  1.0
  C  C3457  1  0.424400  0.522300  0.772100  1.0
  C  C3458  1  0.075600  0.477700  0.272100  1.0
  C  C3459  1  0.575600  0.022300  0.727900  1.0
  C  C3460  1  0.924400  0.977700  0.227900  1.0
  C  C3461  1  0.386700  0.482800  0.692600  1.0
  C  C3462  1  0.113300  0.517200  0.192600  1.0
  C  C3463  1  0.613300  0.982800  0.807400  1.0
  C  C3464  1  0.886700  0.017200  0.307400  1.0
  C  C3465  1  0.353400  0.489900  0.704100  1.0
  C  C3466  1  0.146600  0.510100  0.204100  1.0
  C  C3467  1  0.646600  0.989900  0.795900  1.0
  C  C3468  1  0.853400  0.010100  0.295900  1.0
  C  C3469  1  0.348400  0.491700  0.732400  1.0
  C  C3470  1  0.151600  0.508300  0.232400  1.0
  C  C3471  1  0.651600  0.991700  0.767600  1.0
  C  C3472  1  0.848400  0.008300  0.267600  1.0
  C  C3473  1  0.318700  0.499500  0.743500  1.0
  C  C3474  1  0.181300  0.500500  0.243500  1.0
  C  C3475  1  0.681300  0.999500  0.756500  1.0
  C  C3476  1  0.818700  0.000500  0.256500  1.0
  C  C3477  1  0.291800  0.502900  0.726900  1.0
  C  C3478  1  0.208200  0.497100  0.226900  1.0
  C  C3479  1  0.708200  0.002900  0.773100  1.0
  C  C3480  1  0.791800  0.997100  0.273100  1.0
  C  C3481  1  0.295300  0.499400  0.698100  1.0
  C  C3482  1  0.204700  0.500600  0.198100  1.0
  C  C3483  1  0.704700  0.999400  0.801900  1.0
  C  C3484  1  0.795300  0.000600  0.301900  1.0
  C  C3485  1  0.326300  0.494300  0.687400  1.0
  C  C3486  1  0.173700  0.505700  0.187400  1.0
  C  C3487  1  0.673700  0.994300  0.812600  1.0
  C  C3488  1  0.826300  0.005700  0.312600  1.0
  C  C3489  1  0.253700  0.531200  0.753200  1.0
  C  C3490  1  0.246300  0.468800  0.253200  1.0
  C  C3491  1  0.746300  0.031200  0.746800  1.0
  C  C3492  1  0.753700  0.968800  0.246800  1.0
  C  C3493  1  0.223700  0.532400  0.768400  1.0
  C  C3494  1  0.276300  0.467600  0.268400  1.0
  C  C3495  1  0.776300  0.032400  0.731600  1.0
  C  C3496  1  0.723700  0.967600  0.231600  1.0
  C  C3497  1  0.214400  0.556800  0.785500  1.0
  C  C3498  1  0.285600  0.443200  0.285500  1.0
  C  C3499  1  0.785600  0.056800  0.714500  1.0
  C  C3500  1  0.714400  0.943200  0.214500  1.0
  C  C3501  1  0.184500  0.554600  0.798200  1.0
  C  C3502  1  0.315500  0.445400  0.298200  1.0
  C  C3503  1  0.815500  0.054600  0.701800  1.0
  C  C3504  1  0.684500  0.945400  0.201800  1.0
  C  C3505  1  0.165000  0.527900  0.794700  1.0
  C  C3506  1  0.335000  0.472100  0.294700  1.0
  C  C3507  1  0.835000  0.027900  0.705300  1.0
  C  C3508  1  0.665000  0.972100  0.205300  1.0
  C  C3509  1  0.175700  0.504200  0.777100  1.0
  C  C3510  1  0.324300  0.495800  0.277100  1.0
  C  C3511  1  0.824300  0.004200  0.722900  1.0
  C  C3512  1  0.675700  0.995800  0.222900  1.0
  C  C3513  1  0.493500  0.489800  0.709400  1.0
  C  C3514  1  0.006500  0.510200  0.209400  1.0
  C  C3515  1  0.506500  0.989800  0.790600  1.0
  C  C3516  1  0.993500  0.010200  0.290600  1.0
  C  C3517  1  0.496800  0.474300  0.681000  1.0
  C  C3518  1  0.003200  0.525700  0.181000  1.0
  C  C3519  1  0.503200  0.974300  0.819000  1.0
  C  C3520  1  0.996800  0.025700  0.319000  1.0
  C  C3521  1  0.524100  0.480100  0.664000  1.0
  C  C3522  1  0.975900  0.519900  0.164000  1.0
  C  C3523  1  0.475900  0.980100  0.836000  1.0
  C  C3524  1  0.024100  0.019900  0.336000  1.0
  C  C3525  1  0.527800  0.465300  0.638300  1.0
  C  C3526  1  0.972200  0.534700  0.138300  1.0
  C  C3527  1  0.472200  0.965300  0.861700  1.0
  C  C3528  1  0.027800  0.034700  0.361700  1.0
  C  C3529  1  0.503400  0.446100  0.628900  1.0
  C  C3530  1  0.996600  0.553900  0.128900  1.0
  C  C3531  1  0.496600  0.946100  0.871100  1.0
  C  C3532  1  0.003400  0.053900  0.371100  1.0
  C  C3533  1  0.475300  0.441800  0.644500  1.0
  C  C3534  1  0.024700  0.558200  0.144500  1.0
  C  C3535  1  0.524700  0.941800  0.855500  1.0
  C  C3536  1  0.975300  0.058200  0.355500  1.0
  C  C3537  1  0.471600  0.457800  0.669500  1.0
  C  C3538  1  0.028400  0.542200  0.169500  1.0
  C  C3539  1  0.528400  0.957800  0.830500  1.0
  C  C3540  1  0.971600  0.042200  0.330500  1.0
  C  C3541  1  0.488700  0.438700  0.583200  1.0
  C  C3542  1  0.011300  0.561300  0.083200  1.0
  C  C3543  1  0.511300  0.938700  0.916800  1.0
  C  C3544  1  0.988700  0.061300  0.416800  1.0
  C  C3545  1  0.490400  0.421100  0.557400  1.0
  C  C3546  1  0.009600  0.578900  0.057400  1.0
  C  C3547  1  0.509600  0.921100  0.942600  1.0
  C  C3548  1  0.990400  0.078900  0.442600  1.0
  C  C3549  1  0.475700  0.431400  0.533400  1.0
  C  C3550  1  0.024300  0.568600  0.033400  1.0
  C  C3551  1  0.524300  0.931400  0.966600  1.0
  C  C3552  1  0.975700  0.068600  0.466600  1.0
  C  C3553  1  0.479800  0.413900  0.509500  1.0
  C  C3554  1  0.020200  0.586100  0.009500  1.0
  C  C3555  1  0.520200  0.913900  0.990500  1.0
  C  C3556  1  0.979800  0.086100  0.490500  1.0
  C  C3557  1  0.500500  0.388300  0.510100  1.0
  C  C3558  1  0.999500  0.611700  0.010100  1.0
  C  C3559  1  0.499500  0.888300  0.989900  1.0
  C  C3560  1  0.000500  0.111700  0.489900  1.0
  C  C3561  1  0.515800  0.378800  0.534500  1.0
  C  C3562  1  0.984200  0.621200  0.034500  1.0
  C  C3563  1  0.484200  0.878800  0.965500  1.0
  C  C3564  1  0.015800  0.121200  0.465500  1.0
  C  C3565  1  0.412900  0.583400  0.715900  1.0
  C  C3566  1  0.087100  0.416600  0.215900  1.0
  C  C3567  1  0.587100  0.083400  0.784100  1.0
  C  C3568  1  0.912900  0.916600  0.284100  1.0
  C  C3569  1  0.416300  0.572100  0.745500  1.0
  C  C3570  1  0.083700  0.427900  0.245500  1.0
  C  C3571  1  0.583700  0.072100  0.754500  1.0
  C  C3572  1  0.916300  0.927900  0.254500  1.0
  C  C3573  1  0.425000  0.559500  0.669700  1.0
  C  C3574  1  0.075000  0.440500  0.169700  1.0
  C  C3575  1  0.575000  0.059500  0.830300  1.0
  C  C3576  1  0.925000  0.940500  0.330300  1.0
  C  C3577  1  0.398500  0.535000  0.670000  1.0
  C  C3578  1  0.101500  0.465000  0.170000  1.0
  C  C3579  1  0.601500  0.035000  0.830000  1.0
  C  C3580  1  0.898500  0.965000  0.330000  1.0
  C  C3581  1  0.469300  0.575600  0.702000  1.0
  C  C3582  1  0.030700  0.424400  0.202000  1.0
  C  C3583  1  0.530700  0.075600  0.798000  1.0
  C  C3584  1  0.969300  0.924400  0.298000  1.0
  C  C3585  1  0.489900  0.546700  0.695500  1.0
  C  C3586  1  0.010100  0.453300  0.195500  1.0
  C  C3587  1  0.510100  0.046700  0.804500  1.0
  C  C3588  1  0.989900  0.953300  0.304500  1.0
  C  C3589  1  0.465600  0.177300  0.884800  1.0
  C  C3590  1  0.034400  0.822700  0.384800  1.0
  C  C3591  1  0.534400  0.677300  0.615200  1.0
  C  C3592  1  0.965600  0.322700  0.115200  1.0
  C  C3593  1  0.480300  0.170000  0.909600  1.0
  C  C3594  1  0.019700  0.830000  0.409600  1.0
  C  C3595  1  0.519700  0.670000  0.590400  1.0
  C  C3596  1  0.980300  0.330000  0.090400  1.0
  C  C3597  1  0.481400  0.194000  0.929100  1.0
  C  C3598  1  0.018600  0.806000  0.429100  1.0
  C  C3599  1  0.518600  0.694000  0.570900  1.0
  C  C3600  1  0.981400  0.306000  0.070900  1.0
  C  C3601  1  0.465700  0.222400  0.924600  1.0
  C  C3602  1  0.034300  0.777600  0.424600  1.0
  C  C3603  1  0.534300  0.722400  0.575400  1.0
  C  C3604  1  0.965700  0.277600  0.075400  1.0
  C  C3605  1  0.449700  0.227500  0.899800  1.0
  C  C3606  1  0.050300  0.772500  0.399800  1.0
  C  C3607  1  0.550300  0.727500  0.600200  1.0
  C  C3608  1  0.949700  0.272500  0.100200  1.0
  C  C3609  1  0.432700  0.256400  0.892800  1.0
  C  C3610  1  0.067300  0.743600  0.392800  1.0
  C  C3611  1  0.567300  0.756400  0.607200  1.0
  C  C3612  1  0.932700  0.243600  0.107200  1.0
  C  C3613  1  0.401000  0.285800  0.860700  1.0
  C  C3614  1  0.099000  0.714200  0.360700  1.0
  C  C3615  1  0.599000  0.785800  0.639300  1.0
  C  C3616  1  0.901000  0.214200  0.139300  1.0
  C  C3617  1  0.419400  0.312900  0.854200  1.0
  C  C3618  1  0.080600  0.687100  0.354200  1.0
  C  C3619  1  0.580600  0.812900  0.645800  1.0
  C  C3620  1  0.919400  0.187100  0.145800  1.0
  C  C3621  1  0.403500  0.340500  0.845500  1.0
  C  C3622  1  0.096500  0.659500  0.345500  1.0
  C  C3623  1  0.596500  0.840500  0.654500  1.0
  C  C3624  1  0.903500  0.159500  0.154500  1.0
  C  C3625  1  0.369900  0.341500  0.842400  1.0
  C  C3626  1  0.130100  0.658500  0.342400  1.0
  C  C3627  1  0.630100  0.841500  0.657600  1.0
  C  C3628  1  0.869900  0.158500  0.157600  1.0
  C  C3629  1  0.352400  0.314200  0.848600  1.0
  C  C3630  1  0.147600  0.685800  0.348600  1.0
  C  C3631  1  0.647600  0.814200  0.651400  1.0
  C  C3632  1  0.852400  0.185800  0.151400  1.0
  C  C3633  1  0.368300  0.286200  0.857900  1.0
  C  C3634  1  0.131700  0.713800  0.357900  1.0
  C  C3635  1  0.631700  0.786200  0.642100  1.0
  C  C3636  1  0.868300  0.213800  0.142100  1.0
  C  C3637  1  0.353000  0.371600  0.832900  1.0
  C  C3638  1  0.147000  0.628400  0.332900  1.0
  C  C3639  1  0.647000  0.871600  0.667100  1.0
  C  C3640  1  0.853000  0.128400  0.167100  1.0
  C  C3641  1  0.362500  0.476200  0.829000  1.0
  C  C3642  1  0.137500  0.523800  0.329000  1.0
  C  C3643  1  0.637500  0.976200  0.671000  1.0
  C  C3644  1  0.862500  0.023800  0.171000  1.0
  C  C3645  1  0.331100  0.470500  0.814300  1.0
  C  C3646  1  0.168900  0.529500  0.314300  1.0
  C  C3647  1  0.668900  0.970500  0.685700  1.0
  C  C3648  1  0.831100  0.029500  0.185700  1.0
  C  C3649  1  0.304500  0.490400  0.818200  1.0
  C  C3650  1  0.195500  0.509600  0.318200  1.0
  C  C3651  1  0.695500  0.990400  0.681800  1.0
  C  C3652  1  0.804500  0.009600  0.181800  1.0
  C  C3653  1  0.274900  0.484300  0.805200  1.0
  C  C3654  1  0.225100  0.515700  0.305200  1.0
  C  C3655  1  0.725100  0.984300  0.694800  1.0
  C  C3656  1  0.774900  0.015700  0.194800  1.0
  C  C3657  1  0.270800  0.457600  0.789300  1.0
  C  C3658  1  0.229200  0.542400  0.289300  1.0
  C  C3659  1  0.729200  0.957600  0.710700  1.0
  C  C3660  1  0.770800  0.042400  0.210700  1.0
  C  C3661  1  0.296400  0.435600  0.786800  1.0
  C  C3662  1  0.203600  0.564400  0.286800  1.0
  C  C3663  1  0.703600  0.935600  0.713200  1.0
  C  C3664  1  0.796400  0.064400  0.213200  1.0
  C  C3665  1  0.326400  0.443500  0.798300  1.0
  C  C3666  1  0.173600  0.556500  0.298300  1.0
  C  C3667  1  0.673600  0.943500  0.701700  1.0
  C  C3668  1  0.826400  0.056500  0.201700  1.0
  C  C3669  1  0.222500  0.428300  0.783900  1.0
  C  C3670  1  0.277500  0.571700  0.283900  1.0
  C  C3671  1  0.777500  0.928300  0.716100  1.0
  C  C3672  1  0.722500  0.071700  0.216100  1.0
  C  C3673  1  0.194200  0.420200  0.768000  1.0
  C  C3674  1  0.305800  0.579800  0.268000  1.0
  C  C3675  1  0.805800  0.920200  0.732000  1.0
  C  C3676  1  0.694200  0.079800  0.232000  1.0
  C  C3677  1  0.174300  0.395000  0.774400  1.0
  C  C3678  1  0.325700  0.605000  0.274400  1.0
  C  C3679  1  0.825700  0.895000  0.725600  1.0
  C  C3680  1  0.674300  0.105000  0.225600  1.0
  C  C3681  1  0.148000  0.389100  0.757100  1.0
  C  C3682  1  0.352000  0.610900  0.257100  1.0
  C  C3683  1  0.852000  0.889100  0.742900  1.0
  C  C3684  1  0.648000  0.110900  0.242900  1.0
  C  C3685  1  0.144800  0.405300  0.732300  1.0
  C  C3686  1  0.355200  0.594700  0.232300  1.0
  C  C3687  1  0.855200  0.905300  0.767700  1.0
  C  C3688  1  0.644800  0.094700  0.267700  1.0
  C  C3689  1  0.163600  0.432700  0.729400  1.0
  C  C3690  1  0.336400  0.567300  0.229400  1.0
  C  C3691  1  0.836400  0.932700  0.770600  1.0
  C  C3692  1  0.663600  0.067300  0.270600  1.0
  C  C3693  1  0.442300  0.416300  0.866700  1.0
  C  C3694  1  0.057700  0.583700  0.366700  1.0
  C  C3695  1  0.557700  0.916300  0.633300  1.0
  C  C3696  1  0.942300  0.083700  0.133300  1.0
  C  C3697  1  0.460000  0.447700  0.872200  1.0
  C  C3698  1  0.040000  0.552300  0.372200  1.0
  C  C3699  1  0.540000  0.947700  0.627800  1.0
  C  C3700  1  0.960000  0.052300  0.127800  1.0
  C  C3701  1  0.451500  0.474700  0.856000  1.0
  C  C3702  1  0.048500  0.525300  0.356000  1.0
  C  C3703  1  0.548500  0.974700  0.644000  1.0
  C  C3704  1  0.951500  0.025300  0.144000  1.0
  C  C3705  1  0.466200  0.504200  0.861100  1.0
  C  C3706  1  0.033800  0.495800  0.361100  1.0
  C  C3707  1  0.533800  0.004200  0.638900  1.0
  C  C3708  1  0.966200  0.995800  0.138900  1.0
  C  C3709  1  0.491900  0.506400  0.878400  1.0
  C  C3710  1  0.008100  0.493600  0.378400  1.0
  C  C3711  1  0.508100  0.006400  0.621600  1.0
  C  C3712  1  0.991900  0.993600  0.121600  1.0
  C  C3713  1  0.501300  0.480300  0.894400  1.0
  C  C3714  1  0.998700  0.519700  0.394400  1.0
  C  C3715  1  0.498700  0.980300  0.605600  1.0
  C  C3716  1  0.001300  0.019700  0.105600  1.0
  C  C3717  1  0.484000  0.451900  0.891900  1.0
  C  C3718  1  0.016000  0.548100  0.391900  1.0
  C  C3719  1  0.516000  0.951900  0.608100  1.0
  C  C3720  1  0.984000  0.048100  0.108100  1.0
  C  C3721  1  0.493700  0.560700  0.889200  1.0
  C  C3722  1  0.006300  0.439300  0.389200  1.0
  C  C3723  1  0.506300  0.060700  0.610800  1.0
  C  C3724  1  0.993700  0.939300  0.110800  1.0
  C  C3725  1  0.510700  0.591600  0.889200  1.0
  C  C3726  1  0.989300  0.408400  0.389200  1.0
  C  C3727  1  0.489300  0.091600  0.610800  1.0
  C  C3728  1  0.010700  0.908400  0.110800  1.0
  C  C3729  1  0.497600  0.620000  0.898400  1.0
  C  C3730  1  0.002400  0.380000  0.398400  1.0
  C  C3731  1  0.502400  0.120000  0.601600  1.0
  C  C3732  1  0.997600  0.880000  0.101600  1.0
  C  C3733  1  0.515600  0.647800  0.896500  1.0
  C  C3734  1  0.984400  0.352200  0.396500  1.0
  C  C3735  1  0.484400  0.147800  0.603500  1.0
  C  C3736  1  0.015600  0.852200  0.103500  1.0
  C  C3737  1  0.545500  0.647200  0.883900  1.0
  C  C3738  1  0.954500  0.352800  0.383900  1.0
  C  C3739  1  0.454500  0.147200  0.616100  1.0
  C  C3740  1  0.045500  0.852800  0.116100  1.0
  C  C3741  1  0.558600  0.617500  0.876600  1.0
  C  C3742  1  0.941400  0.382500  0.376600  1.0
  C  C3743  1  0.441400  0.117500  0.623400  1.0
  C  C3744  1  0.058600  0.882500  0.123400  1.0
  C  C3745  1  0.321300  0.413600  0.894700  1.0
  C  C3746  1  0.178700  0.586400  0.394700  1.0
  C  C3747  1  0.678700  0.913600  0.605300  1.0
  C  C3748  1  0.821300  0.086400  0.105300  1.0
  C  C3749  1  0.326200  0.384500  0.876600  1.0
  C  C3750  1  0.173800  0.615500  0.376600  1.0
  C  C3751  1  0.673800  0.884500  0.623400  1.0
  C  C3752  1  0.826200  0.115500  0.123400  1.0
  C  C3753  1  0.352300  0.463600  0.904200  1.0
  C  C3754  1  0.147700  0.536400  0.404200  1.0
  C  C3755  1  0.647700  0.963600  0.595800  1.0
  C  C3756  1  0.852300  0.036400  0.095800  1.0
  C  C3757  1  0.345600  0.479100  0.877300  1.0
  C  C3758  1  0.154400  0.520900  0.377300  1.0
  C  C3759  1  0.654400  0.979100  0.622700  1.0
  C  C3760  1  0.845600  0.020900  0.122700  1.0
  C  C3761  1  0.374600  0.410100  0.918100  1.0
  C  C3762  1  0.125400  0.589900  0.418100  1.0
  C  C3763  1  0.625400  0.910100  0.581900  1.0
  C  C3764  1  0.874600  0.089900  0.081900  1.0
  C  C3765  1  0.409100  0.417400  0.910100  1.0
  C  C3766  1  0.090900  0.582600  0.410100  1.0
  C  C3767  1  0.590900  0.917400  0.589900  1.0
  C  C3768  1  0.909100  0.082600  0.089900  1.0
  C  C3769  1  0.378200  0.186100  0.887200  1.0
  C  C3770  1  0.121800  0.813900  0.387200  1.0
  C  C3771  1  0.621800  0.686100  0.612800  1.0
  C  C3772  1  0.878200  0.313900  0.112800  1.0
  C  C3773  1  0.348900  0.174000  0.895500  1.0
  C  C3774  1  0.151100  0.826000  0.395500  1.0
  C  C3775  1  0.651100  0.674000  0.604500  1.0
  C  C3776  1  0.848900  0.326000  0.104500  1.0
  C  C3777  1  0.323000  0.176300  0.877500  1.0
  C  C3778  1  0.177000  0.823700  0.377500  1.0
  C  C3779  1  0.677000  0.676300  0.622500  1.0
  C  C3780  1  0.823000  0.323700  0.122500  1.0
  C  C3781  1  0.327300  0.191700  0.852800  1.0
  C  C3782  1  0.172700  0.808300  0.352800  1.0
  C  C3783  1  0.672700  0.691700  0.647200  1.0
  C  C3784  1  0.827300  0.308300  0.147200  1.0
  C  C3785  1  0.357500  0.203100  0.845000  1.0
  C  C3786  1  0.142500  0.796900  0.345000  1.0
  C  C3787  1  0.642500  0.703100  0.655000  1.0
  C  C3788  1  0.857500  0.296900  0.155000  1.0
  C  C3789  1  0.363600  0.219900  0.819500  1.0
  C  C3790  1  0.136400  0.780100  0.319500  1.0
  C  C3791  1  0.636400  0.719900  0.680500  1.0
  C  C3792  1  0.863600  0.280100  0.180500  1.0
  C  C3793  1  0.401200  0.246000  0.790400  1.0
  C  C3794  1  0.098800  0.754000  0.290400  1.0
  C  C3795  1  0.598800  0.746000  0.709600  1.0
  C  C3796  1  0.901200  0.254000  0.209600  1.0
  C  C3797  1  0.415900  0.229500  0.768500  1.0
  C  C3798  1  0.084100  0.770500  0.268500  1.0
  C  C3799  1  0.584100  0.729500  0.731500  1.0
  C  C3800  1  0.915900  0.270500  0.231500  1.0
  C  C3801  1  0.422000  0.247200  0.744700  1.0
  C  C3802  1  0.078000  0.752800  0.244700  1.0
  C  C3803  1  0.578000  0.747200  0.755300  1.0
  C  C3804  1  0.922000  0.252800  0.255300  1.0
  C  C3805  1  0.417900  0.279900  0.742500  1.0
  C  C3806  1  0.082100  0.720100  0.242500  1.0
  C  C3807  1  0.582100  0.779900  0.757500  1.0
  C  C3808  1  0.917900  0.220100  0.257500  1.0
  C  C3809  1  0.402700  0.295200  0.764800  1.0
  C  C3810  1  0.097300  0.704800  0.264800  1.0
  C  C3811  1  0.597300  0.795200  0.735200  1.0
  C  C3812  1  0.902700  0.204800  0.235200  1.0
  C  C3813  1  0.394100  0.277700  0.788600  1.0
  C  C3814  1  0.105900  0.722300  0.288600  1.0
  C  C3815  1  0.605900  0.777700  0.711400  1.0
  C  C3816  1  0.894100  0.222300  0.211400  1.0
  C  C3817  1  0.424900  0.298400  0.716400  1.0
  C  C3818  1  0.075100  0.701600  0.216400  1.0
  C  C3819  1  0.575100  0.798400  0.783600  1.0
  C  C3820  1  0.924900  0.201600  0.283600  1.0
  C  C3821  1  0.378700  0.378500  0.668200  1.0
  C  C3822  1  0.121300  0.621500  0.168200  1.0
  C  C3823  1  0.621300  0.878500  0.831800  1.0
  C  C3824  1  0.878700  0.121500  0.331800  1.0
  C  C3825  1  0.409000  0.374500  0.651300  1.0
  C  C3826  1  0.091000  0.625500  0.151300  1.0
  C  C3827  1  0.591000  0.874500  0.848700  1.0
  C  C3828  1  0.909000  0.125500  0.348700  1.0
  C  C3829  1  0.436600  0.362800  0.664200  1.0
  C  C3830  1  0.063400  0.637200  0.164200  1.0
  C  C3831  1  0.563400  0.862800  0.835800  1.0
  C  C3832  1  0.936600  0.137200  0.335800  1.0
  C  C3833  1  0.465300  0.357700  0.649000  1.0
  C  C3834  1  0.034700  0.642300  0.149000  1.0
  C  C3835  1  0.534700  0.857700  0.851000  1.0
  C  C3836  1  0.965300  0.142300  0.351000  1.0
  C  C3837  1  0.466900  0.365600  0.621600  1.0
  C  C3838  1  0.033100  0.634400  0.121600  1.0
  C  C3839  1  0.533100  0.865600  0.878400  1.0
  C  C3840  1  0.966900  0.134400  0.378400  1.0
  C  C3841  1  0.439200  0.376800  0.607800  1.0
  C  C3842  1  0.060800  0.623200  0.107800  1.0
  C  C3843  1  0.560800  0.876800  0.892200  1.0
  C  C3844  1  0.939200  0.123200  0.392200  1.0
  C  C3845  1  0.411300  0.382400  0.623300  1.0
  C  C3846  1  0.088700  0.617600  0.123300  1.0
  C  C3847  1  0.588700  0.882400  0.876700  1.0
  C  C3848  1  0.911300  0.117600  0.376700  1.0
  C  C3849  1  0.502200  0.328800  0.600900  1.0
  C  C3850  1  0.997800  0.671200  0.100900  1.0
  C  C3851  1  0.497800  0.828800  0.899100  1.0
  C  C3852  1  0.002200  0.171200  0.399100  1.0
  C  C3853  1  0.532200  0.320800  0.587100  1.0
  C  C3854  1  0.967800  0.679200  0.087100  1.0
  C  C3855  1  0.467800  0.820800  0.912900  1.0
  C  C3856  1  0.032200  0.179200  0.412900  1.0
  C  C3857  1  0.541000  0.290200  0.580400  1.0
  C  C3858  1  0.959000  0.709800  0.080400  1.0
  C  C3859  1  0.459000  0.790200  0.919600  1.0
  C  C3860  1  0.041000  0.209800  0.419600  1.0
  C  C3861  1  0.571100  0.285400  0.568100  1.0
  C  C3862  1  0.928900  0.714600  0.068100  1.0
  C  C3863  1  0.428900  0.785400  0.931900  1.0
  C  C3864  1  0.071100  0.214600  0.431900  1.0
  C  C3865  1  0.590500  0.311900  0.563100  1.0
  C  C3866  1  0.909500  0.688100  0.063100  1.0
  C  C3867  1  0.409500  0.811900  0.936900  1.0
  C  C3868  1  0.090500  0.188100  0.436900  1.0
  C  C3869  1  0.581100  0.341400  0.572500  1.0
  C  C3870  1  0.918900  0.658600  0.072500  1.0
  C  C3871  1  0.418900  0.841400  0.927500  1.0
  C  C3872  1  0.081100  0.158600  0.427500  1.0
  C  C3873  1  0.333800  0.340400  0.744300  1.0
  C  C3874  1  0.166200  0.659600  0.244300  1.0
  C  C3875  1  0.666200  0.840400  0.755700  1.0
  C  C3876  1  0.833800  0.159600  0.255700  1.0
  C  C3877  1  0.310400  0.366600  0.735700  1.0
  C  C3878  1  0.189600  0.633400  0.235700  1.0
  C  C3879  1  0.689600  0.866600  0.764300  1.0
  C  C3880  1  0.810400  0.133400  0.264300  1.0
  C  C3881  1  0.276500  0.363000  0.739700  1.0
  C  C3882  1  0.223500  0.637000  0.239700  1.0
  C  C3883  1  0.723500  0.863000  0.760300  1.0
  C  C3884  1  0.776500  0.137000  0.260300  1.0
  C  C3885  1  0.255000  0.387400  0.732100  1.0
  C  C3886  1  0.245000  0.612600  0.232100  1.0
  C  C3887  1  0.745000  0.887400  0.767900  1.0
  C  C3888  1  0.755000  0.112600  0.267900  1.0
  C  C3889  1  0.266500  0.414800  0.720100  1.0
  C  C3890  1  0.233500  0.585200  0.220100  1.0
  C  C3891  1  0.733500  0.914800  0.779900  1.0
  C  C3892  1  0.766500  0.085200  0.279900  1.0
  C  C3893  1  0.300200  0.419300  0.716500  1.0
  C  C3894  1  0.199800  0.580700  0.216500  1.0
  C  C3895  1  0.699800  0.919300  0.783500  1.0
  C  C3896  1  0.800200  0.080700  0.283500  1.0
  C  C3897  1  0.320900  0.395200  0.724500  1.0
  C  C3898  1  0.179100  0.604800  0.224500  1.0
  C  C3899  1  0.679100  0.895200  0.775500  1.0
  C  C3900  1  0.820900  0.104800  0.275500  1.0
  C  C3901  1  0.236700  0.445600  0.688600  1.0
  C  C3902  1  0.263300  0.554400  0.188600  1.0
  C  C3903  1  0.763300  0.945600  0.811400  1.0
  C  C3904  1  0.736700  0.054400  0.311400  1.0
  C  C3905  1  0.216200  0.472700  0.682300  1.0
  C  C3906  1  0.283800  0.527300  0.182300  1.0
  C  C3907  1  0.783800  0.972700  0.817700  1.0
  C  C3908  1  0.716200  0.027300  0.317700  1.0
  C  C3909  1  0.205700  0.480600  0.656300  1.0
  C  C3910  1  0.294300  0.519400  0.156300  1.0
  C  C3911  1  0.794300  0.980600  0.843700  1.0
  C  C3912  1  0.705700  0.019400  0.343700  1.0
  C  C3913  1  0.186000  0.507100  0.653000  1.0
  C  C3914  1  0.314000  0.492900  0.153000  1.0
  C  C3915  1  0.814000  0.007100  0.847000  1.0
  C  C3916  1  0.686000  0.992900  0.347000  1.0
  C  C3917  1  0.177100  0.524700  0.675900  1.0
  C  C3918  1  0.322900  0.475300  0.175900  1.0
  C  C3919  1  0.822900  0.024700  0.824100  1.0
  C  C3920  1  0.677100  0.975300  0.324100  1.0
  C  C3921  1  0.189500  0.516100  0.701700  1.0
  C  C3922  1  0.310500  0.483900  0.201700  1.0
  C  C3923  1  0.810500  0.016100  0.798300  1.0
  C  C3924  1  0.689500  0.983900  0.298300  1.0
  C  C3925  1  0.368300  0.272800  0.660400  1.0
  C  C3926  1  0.131700  0.727200  0.160400  1.0
  C  C3927  1  0.631700  0.772800  0.839600  1.0
  C  C3928  1  0.868300  0.227200  0.339600  1.0
  C  C3929  1  0.395300  0.268000  0.680800  1.0
  C  C3930  1  0.104700  0.732000  0.180800  1.0
  C  C3931  1  0.604700  0.768000  0.819200  1.0
  C  C3932  1  0.895300  0.232000  0.319200  1.0
  C  C3933  1  0.321500  0.311000  0.657000  1.0
  C  C3934  1  0.178500  0.689000  0.157000  1.0
  C  C3935  1  0.678500  0.811000  0.843000  1.0
  C  C3936  1  0.821500  0.189000  0.343000  1.0
  C  C3937  1  0.340500  0.339000  0.647900  1.0
  C  C3938  1  0.159500  0.661000  0.147900  1.0
  C  C3939  1  0.659500  0.839000  0.852100  1.0
  C  C3940  1  0.840500  0.161000  0.352100  1.0
  C  C3941  1  0.324700  0.270800  0.695300  1.0
  C  C3942  1  0.175300  0.729200  0.195300  1.0
  C  C3943  1  0.675300  0.770800  0.804700  1.0
  C  C3944  1  0.824700  0.229200  0.304700  1.0
  C  C3945  1  0.312400  0.294000  0.716800  1.0
  C  C3946  1  0.187600  0.706000  0.216800  1.0
  C  C3947  1  0.687600  0.794000  0.783200  1.0
  C  C3948  1  0.812400  0.206000  0.283200  1.0
  C  C3949  1  0.579900  0.426000  0.560300  1.0
  C  C3950  1  0.920100  0.574000  0.060300  1.0
  C  C3951  1  0.420100  0.926000  0.939700  1.0
  C  C3952  1  0.079900  0.074000  0.439700  1.0
  C  C3953  1  0.609500  0.440200  0.555600  1.0
  C  C3954  1  0.890500  0.559800  0.055600  1.0
  C  C3955  1  0.390500  0.940200  0.944400  1.0
  C  C3956  1  0.109500  0.059800  0.444400  1.0
  C  C3957  1  0.632800  0.439600  0.576100  1.0
  C  C3958  1  0.867200  0.560400  0.076100  1.0
  C  C3959  1  0.367200  0.939600  0.923900  1.0
  C  C3960  1  0.132800  0.060400  0.423900  1.0
  C  C3961  1  0.624200  0.428700  0.602000  1.0
  C  C3962  1  0.875800  0.571300  0.102000  1.0
  C  C3963  1  0.375800  0.928700  0.898000  1.0
  C  C3964  1  0.124200  0.071300  0.398000  1.0
  C  C3965  1  0.594000  0.414700  0.605500  1.0
  C  C3966  1  0.906000  0.585300  0.105500  1.0
  C  C3967  1  0.406000  0.914700  0.894500  1.0
  C  C3968  1  0.094000  0.085300  0.394500  1.0
  C  C3969  1  0.584200  0.399200  0.630900  1.0
  C  C3970  1  0.915800  0.600800  0.130900  1.0
  C  C3971  1  0.415800  0.899200  0.869100  1.0
  C  C3972  1  0.084200  0.100800  0.369100  1.0
  C  C3973  1  0.544700  0.372600  0.656900  1.0
  C  C3974  1  0.955300  0.627400  0.156900  1.0
  C  C3975  1  0.455300  0.872600  0.843100  1.0
  C  C3976  1  0.044700  0.127400  0.343100  1.0
  C  C3977  1  0.533800  0.393900  0.677100  1.0
  C  C3978  1  0.966200  0.606100  0.177100  1.0
  C  C3979  1  0.466200  0.893900  0.822900  1.0
  C  C3980  1  0.033800  0.106100  0.322900  1.0
  C  C3981  1  0.521200  0.381400  0.701500  1.0
  C  C3982  1  0.978800  0.618600  0.201500  1.0
  C  C3983  1  0.478800  0.881400  0.798500  1.0
  C  C3984  1  0.021200  0.118600  0.298500  1.0
  C  C3985  1  0.523200  0.348700  0.706800  1.0
  C  C3986  1  0.976800  0.651300  0.206800  1.0
  C  C3987  1  0.476800  0.848700  0.793200  1.0
  C  C3988  1  0.023200  0.151300  0.293200  1.0
  C  C3989  1  0.534600  0.327900  0.686400  1.0
  C  C3990  1  0.965400  0.672100  0.186400  1.0
  C  C3991  1  0.465400  0.827900  0.813600  1.0
  C  C3992  1  0.034600  0.172100  0.313600  1.0
  C  C3993  1  0.546500  0.340600  0.661700  1.0
  C  C3994  1  0.953500  0.659400  0.161700  1.0
  C  C3995  1  0.453500  0.840600  0.838300  1.0
  C  C3996  1  0.046500  0.159400  0.338300  1.0
  C  C3997  1  0.512300  0.335600  0.734400  1.0
  C  C3998  1  0.987700  0.664400  0.234400  1.0
  C  C3999  1  0.487700  0.835600  0.765600  1.0
  C  C4000  1  0.012300  0.164400  0.265600  1.0
  C  C4001  1  0.515500  0.359100  0.822900  1.0
  C  C4002  1  0.984500  0.640900  0.322900  1.0
  C  C4003  1  0.484500  0.859100  0.677100  1.0
  C  C4004  1  0.015500  0.140900  0.177100  1.0
  C  C4005  1  0.501800  0.325800  0.824300  1.0
  C  C4006  1  0.998200  0.674200  0.324300  1.0
  C  C4007  1  0.498200  0.825800  0.675700  1.0
  C  C4008  1  0.001800  0.174200  0.175700  1.0
  C  C4009  1  0.486100  0.312700  0.801700  1.0
  C  C4010  1  0.013900  0.687300  0.301700  1.0
  C  C4011  1  0.513900  0.812700  0.698300  1.0
  C  C4012  1  0.986100  0.187300  0.198300  1.0
  C  C4013  1  0.473400  0.281200  0.801900  1.0
  C  C4014  1  0.026600  0.718800  0.301900  1.0
  C  C4015  1  0.526600  0.781200  0.698100  1.0
  C  C4016  1  0.973400  0.218800  0.198100  1.0
  C  C4017  1  0.477100  0.262800  0.825300  1.0
  C  C4018  1  0.022900  0.737200  0.325300  1.0
  C  C4019  1  0.522900  0.762800  0.674700  1.0
  C  C4020  1  0.977100  0.237200  0.174700  1.0
  C  C4021  1  0.494400  0.275500  0.847700  1.0
  C  C4022  1  0.005600  0.724500  0.347700  1.0
  C  C4023  1  0.505600  0.775500  0.652300  1.0
  C  C4024  1  0.994400  0.224500  0.152300  1.0
  C  C4025  1  0.506800  0.306300  0.847200  1.0
  C  C4026  1  0.993200  0.693700  0.347200  1.0
  C  C4027  1  0.493200  0.806300  0.652800  1.0
  C  C4028  1  0.006800  0.193700  0.152800  1.0
  C  C4029  1  0.476600  0.209200  0.810100  1.0
  C  C4030  1  0.023400  0.790800  0.310100  1.0
  C  C4031  1  0.523400  0.709200  0.689900  1.0
  C  C4032  1  0.976600  0.290800  0.189900  1.0
  C  C4033  1  0.460400  0.178500  0.809300  1.0
  C  C4034  1  0.039600  0.821500  0.309300  1.0
  C  C4035  1  0.539600  0.678500  0.690700  1.0
  C  C4036  1  0.960400  0.321500  0.190700  1.0
  C  C4037  1  0.470900  0.153300  0.793300  1.0
  C  C4038  1  0.029100  0.846700  0.293300  1.0
  C  C4039  1  0.529100  0.653300  0.706700  1.0
  C  C4040  1  0.970900  0.346700  0.206700  1.0
  C  C4041  1  0.453500  0.124700  0.794500  1.0
  C  C4042  1  0.046500  0.875300  0.294500  1.0
  C  C4043  1  0.546500  0.624700  0.705500  1.0
  C  C4044  1  0.953500  0.375300  0.205500  1.0
  C  C4045  1  0.426900  0.122100  0.812000  1.0
  C  C4046  1  0.073100  0.877900  0.312000  1.0
  C  C4047  1  0.573100  0.622100  0.688000  1.0
  C  C4048  1  0.926900  0.377900  0.188000  1.0
  C  C4049  1  0.417700  0.148300  0.827400  1.0
  C  C4050  1  0.082300  0.851700  0.327400  1.0
  C  C4051  1  0.582300  0.648300  0.672600  1.0
  C  C4052  1  0.917700  0.351700  0.172600  1.0
  C  C4053  1  0.550500  0.431400  0.759200  1.0
  C  C4054  1  0.949500  0.568600  0.259200  1.0
  C  C4055  1  0.449500  0.931400  0.740800  1.0
  C  C4056  1  0.050500  0.068600  0.240800  1.0
  C  C4057  1  0.554200  0.449800  0.785900  1.0
  C  C4058  1  0.945800  0.550200  0.285900  1.0
  C  C4059  1  0.445800  0.949800  0.714100  1.0
  C  C4060  1  0.054200  0.050200  0.214100  1.0
  C  C4061  1  0.581700  0.469700  0.789600  1.0
  C  C4062  1  0.918300  0.530300  0.289600  1.0
  C  C4063  1  0.418300  0.969700  0.710400  1.0
  C  C4064  1  0.081700  0.030300  0.210400  1.0
  C  C4065  1  0.586000  0.486900  0.814100  1.0
  C  C4066  1  0.914000  0.513100  0.314100  1.0
  C  C4067  1  0.414000  0.986900  0.685900  1.0
  C  C4068  1  0.086000  0.013100  0.185900  1.0
  C  C4069  1  0.564300  0.483000  0.835100  1.0
  C  C4070  1  0.935700  0.517000  0.335100  1.0
  C  C4071  1  0.435700  0.983000  0.664900  1.0
  C  C4072  1  0.064300  0.017000  0.164900  1.0
  C  C4073  1  0.538000  0.462600  0.832300  1.0
  C  C4074  1  0.962000  0.537400  0.332300  1.0
  C  C4075  1  0.462000  0.962600  0.667700  1.0
  C  C4076  1  0.038000  0.037400  0.167700  1.0
  C  C4077  1  0.532900  0.446000  0.808000  1.0
  C  C4078  1  0.967100  0.554000  0.308000  1.0
  C  C4079  1  0.467100  0.946000  0.692000  1.0
  C  C4080  1  0.032900  0.054000  0.192000  1.0
  C  C4081  1  0.582100  0.487300  0.881300  1.0
  C  C4082  1  0.917900  0.512700  0.381300  1.0
  C  C4083  1  0.417900  0.987300  0.618700  1.0
  C  C4084  1  0.082100  0.012700  0.118700  1.0
  C  C4085  1  0.583900  0.505300  0.906900  1.0
  C  C4086  1  0.916100  0.494700  0.406900  1.0
  C  C4087  1  0.416100  0.005300  0.593100  1.0
  C  C4088  1  0.083900  0.994700  0.093100  1.0
  C  C4089  1  0.598600  0.493800  0.930500  1.0
  C  C4090  1  0.901400  0.506200  0.430500  1.0
  C  C4091  1  0.401400  0.993800  0.569500  1.0
  C  C4092  1  0.098600  0.006200  0.069500  1.0
  C  C4093  1  0.600600  0.514100  0.953000  1.0
  C  C4094  1  0.899400  0.485900  0.453000  1.0
  C  C4095  1  0.399400  0.014100  0.547000  1.0
  C  C4096  1  0.100600  0.985900  0.047000  1.0
  C  C4097  1  0.588300  0.544600  0.951200  1.0
  C  C4098  1  0.911700  0.455400  0.451200  1.0
  C  C4099  1  0.411700  0.044600  0.548800  1.0
  C  C4100  1  0.088300  0.955400  0.048800  1.0
  C  C4101  1  0.573900  0.555000  0.926700  1.0
  C  C4102  1  0.926100  0.445000  0.426700  1.0
  C  C4103  1  0.426100  0.055000  0.573300  1.0
  C  C4104  1  0.073900  0.945000  0.073300  1.0
  C  C4105  1  0.590200  0.313900  0.769300  1.0
  C  C4106  1  0.909800  0.686100  0.269300  1.0
  C  C4107  1  0.409800  0.813900  0.730700  1.0
  C  C4108  1  0.090200  0.186100  0.230700  1.0
  C  C4109  1  0.564500  0.311300  0.747600  1.0
  C  C4110  1  0.935500  0.688700  0.247600  1.0
  C  C4111  1  0.435500  0.811300  0.752400  1.0
  C  C4112  1  0.064500  0.188700  0.252400  1.0
  C  C4113  1  0.603600  0.355200  0.805700  1.0
  C  C4114  1  0.896400  0.644800  0.305700  1.0
  C  C4115  1  0.396400  0.855200  0.694300  1.0
  C  C4116  1  0.103600  0.144800  0.194300  1.0
  C  C4117  1  0.574900  0.350000  0.823400  1.0
  C  C4118  1  0.925100  0.650000  0.323400  1.0
  C  C4119  1  0.425100  0.850000  0.676600  1.0
  C  C4120  1  0.074900  0.150000  0.176600  1.0
  C  C4121  1  0.613100  0.365900  0.755400  1.0
  C  C4122  1  0.886900  0.634100  0.255400  1.0
  C  C4123  1  0.386900  0.865900  0.744600  1.0
  C  C4124  1  0.113100  0.134100  0.244600  1.0
  C  C4125  1  0.602000  0.400000  0.756900  1.0
  C  C4126  1  0.898000  0.600000  0.256900  1.0
  C  C4127  1  0.398000  0.900000  0.743100  1.0
  C  C4128  1  0.102000  0.100000  0.243100  1.0
  C  C4129  1  0.278300  0.094500  0.209100  1.0
  C  C4130  1  0.221700  0.905500  0.709100  1.0
  C  C4131  1  0.721700  0.594500  0.290900  1.0
  C  C4132  1  0.778300  0.405500  0.790900  1.0
  C  C4133  1  0.275300  0.095900  0.180900  1.0
  C  C4134  1  0.224700  0.904100  0.680900  1.0
  C  C4135  1  0.724700  0.595900  0.319100  1.0
  C  C4136  1  0.775300  0.404100  0.819100  1.0
  C  C4137  1  0.303300  0.097000  0.165200  1.0
  C  C4138  1  0.196700  0.903000  0.665200  1.0
  C  C4139  1  0.696700  0.597000  0.334800  1.0
  C  C4140  1  0.803300  0.403000  0.834800  1.0
  C  C4141  1  0.332400  0.102000  0.178900  1.0
  C  C4142  1  0.167600  0.898000  0.678900  1.0
  C  C4143  1  0.667600  0.602000  0.321100  1.0
  C  C4144  1  0.832400  0.398000  0.821100  1.0
  C  C4145  1  0.333800  0.099700  0.207500  1.0
  C  C4146  1  0.166200  0.900300  0.707500  1.0
  C  C4147  1  0.666200  0.599700  0.292500  1.0
  C  C4148  1  0.833800  0.400300  0.792500  1.0
  C  C4149  1  0.362800  0.103600  0.223800  1.0
  C  C4150  1  0.137200  0.896400  0.723800  1.0
  C  C4151  1  0.637200  0.603600  0.276200  1.0
  C  C4152  1  0.862800  0.396400  0.776200  1.0
  C  C4153  1  0.389000  0.109400  0.266900  1.0
  C  C4154  1  0.111000  0.890600  0.766900  1.0
  C  C4155  1  0.611000  0.609400  0.233100  1.0
  C  C4156  1  0.889000  0.390600  0.733100  1.0
  C  C4157  1  0.406200  0.083700  0.278300  1.0
  C  C4158  1  0.093800  0.916300  0.778300  1.0
  C  C4159  1  0.593800  0.583700  0.221700  1.0
  C  C4160  1  0.906200  0.416300  0.721700  1.0
  C  C4161  1  0.433000  0.090100  0.295000  1.0
  C  C4162  1  0.067000  0.909900  0.795000  1.0
  C  C4163  1  0.567000  0.590100  0.205000  1.0
  C  C4164  1  0.933000  0.409900  0.705000  1.0
  C  C4165  1  0.443400  0.121000  0.300300  1.0
  C  C4166  1  0.056600  0.879000  0.800300  1.0
  C  C4167  1  0.556600  0.621000  0.199700  1.0
  C  C4168  1  0.943400  0.379000  0.699700  1.0
  C  C4169  1  0.426200  0.145800  0.288100  1.0
  C  C4170  1  0.073800  0.854200  0.788100  1.0
  C  C4171  1  0.573800  0.645800  0.211900  1.0
  C  C4172  1  0.926200  0.354200  0.711900  1.0
  C  C4173  1  0.398500  0.140200  0.271900  1.0
  C  C4174  1  0.101500  0.859800  0.771900  1.0
  C  C4175  1  0.601500  0.640200  0.228100  1.0
  C  C4176  1  0.898500  0.359800  0.728100  1.0
  C  C4177  1  0.473800  0.129400  0.315400  1.0
  C  C4178  1  0.026200  0.870600  0.815400  1.0
  C  C4179  1  0.526200  0.629400  0.184600  1.0
  C  C4180  1  0.973800  0.370600  0.684600  1.0
  C  C4181  1  0.553700  0.200500  0.310800  1.0
  C  C4182  1  0.946300  0.799500  0.810800  1.0
  C  C4183  1  0.446300  0.700500  0.189200  1.0
  C  C4184  1  0.053700  0.299500  0.689200  1.0
  C  C4185  1  0.562300  0.178800  0.334600  1.0
  C  C4186  1  0.937700  0.821200  0.834600  1.0
  C  C4187  1  0.437700  0.678800  0.165400  1.0
  C  C4188  1  0.062300  0.321200  0.665400  1.0
  C  C4189  1  0.594000  0.169200  0.340300  1.0
  C  C4190  1  0.906000  0.830800  0.840300  1.0
  C  C4191  1  0.406000  0.669200  0.159700  1.0
  C  C4192  1  0.094000  0.330800  0.659700  1.0
  C  C4193  1  0.600200  0.147200  0.361600  1.0
  C  C4194  1  0.899800  0.852800  0.861600  1.0
  C  C4195  1  0.399800  0.647200  0.138400  1.0
  C  C4196  1  0.100200  0.352800  0.638400  1.0
  C  C4197  1  0.575700  0.135900  0.377900  1.0
  C  C4198  1  0.924300  0.864100  0.877900  1.0
  C  C4199  1  0.424300  0.635900  0.122100  1.0
  C  C4200  1  0.075700  0.364100  0.622100  1.0
  C  C4201  1  0.543200  0.144400  0.372500  1.0
  C  C4202  1  0.956800  0.855600  0.872500  1.0
  C  C4203  1  0.456800  0.644400  0.127500  1.0
  C  C4204  1  0.043200  0.355600  0.627500  1.0
  C  C4205  1  0.537900  0.165900  0.351000  1.0
  C  C4206  1  0.962100  0.834100  0.851000  1.0
  C  C4207  1  0.462100  0.665900  0.149000  1.0
  C  C4208  1  0.037900  0.334100  0.649000  1.0
  C  C4209  1  0.576000  0.085300  0.397700  1.0
  C  C4210  1  0.924000  0.914700  0.897700  1.0
  C  C4211  1  0.424000  0.585300  0.102300  1.0
  C  C4212  1  0.076000  0.414700  0.602300  1.0
  C  C4213  1  0.580900  0.063800  0.420700  1.0
  C  C4214  1  0.919100  0.936200  0.920700  1.0
  C  C4215  1  0.419100  0.563800  0.079300  1.0
  C  C4216  1  0.080900  0.436200  0.579300  1.0
  C  C4217  1  0.572300  0.032200  0.420700  1.0
  C  C4218  1  0.927700  0.967800  0.920700  1.0
  C  C4219  1  0.427700  0.532200  0.079300  1.0
  C  C4220  1  0.072300  0.467800  0.579300  1.0
  C  C4221  1  0.576900  0.013500  0.444200  1.0
  C  C4222  1  0.923100  0.986500  0.944200  1.0
  C  C4223  1  0.423100  0.513500  0.055800  1.0
  C  C4224  1  0.076900  0.486500  0.555800  1.0
  C  C4225  1  0.590500  0.028800  0.467400  1.0
  C  C4226  1  0.909500  0.971200  0.967400  1.0
  C  C4227  1  0.409500  0.528800  0.032600  1.0
  C  C4228  1  0.090500  0.471200  0.532600  1.0
  C  C4229  1  0.597800  0.060800  0.465700  1.0
  C  C4230  1  0.902200  0.939200  0.965700  1.0
  C  C4231  1  0.402200  0.560800  0.034300  1.0
  C  C4232  1  0.097800  0.439200  0.534300  1.0
  C  C4233  1  0.472400  0.205500  0.251200  1.0
  C  C4234  1  0.027600  0.794500  0.751200  1.0
  C  C4235  1  0.527600  0.705500  0.248800  1.0
  C  C4236  1  0.972400  0.294500  0.748800  1.0
  C  C4237  1  0.495100  0.232400  0.243200  1.0
  C  C4238  1  0.004900  0.767600  0.743200  1.0
  C  C4239  1  0.504900  0.732400  0.256800  1.0
  C  C4240  1  0.995100  0.267600  0.756800  1.0
  C  C4241  1  0.511100  0.249500  0.264400  1.0
  C  C4242  1  0.988900  0.750500  0.764400  1.0
  C  C4243  1  0.488900  0.749500  0.235600  1.0
  C  C4244  1  0.011100  0.250500  0.735600  1.0
  C  C4245  1  0.533600  0.273600  0.258200  1.0
  C  C4246  1  0.966400  0.726400  0.758200  1.0
  C  C4247  1  0.466400  0.773600  0.241800  1.0
  C  C4248  1  0.033600  0.226400  0.741800  1.0
  C  C4249  1  0.540400  0.279900  0.231000  1.0
  C  C4250  1  0.959600  0.720100  0.731000  1.0
  C  C4251  1  0.459600  0.779900  0.269000  1.0
  C  C4252  1  0.040400  0.220100  0.769000  1.0
  C  C4253  1  0.523900  0.264600  0.209700  1.0
  C  C4254  1  0.976100  0.735400  0.709700  1.0
  C  C4255  1  0.476100  0.764600  0.290300  1.0
  C  C4256  1  0.023900  0.235400  0.790300  1.0
  C  C4257  1  0.500700  0.241700  0.216200  1.0
  C  C4258  1  0.999300  0.758300  0.716200  1.0
  C  C4259  1  0.499300  0.741700  0.283800  1.0
  C  C4260  1  0.000700  0.258300  0.783800  1.0
  C  C4261  1  0.594000  0.295000  0.226000  1.0
  C  C4262  1  0.906000  0.705000  0.726000  1.0
  C  C4263  1  0.406000  0.795000  0.274000  1.0
  C  C4264  1  0.094000  0.205000  0.774000  1.0
  C  C4265  1  0.619900  0.318000  0.222100  1.0
  C  C4266  1  0.880100  0.682000  0.722100  1.0
  C  C4267  1  0.380100  0.818000  0.277900  1.0
  C  C4268  1  0.119900  0.182000  0.777900  1.0
  C  C4269  1  0.652700  0.310600  0.221500  1.0
  C  C4270  1  0.847300  0.689400  0.721500  1.0
  C  C4271  1  0.347300  0.810600  0.278500  1.0
  C  C4272  1  0.152700  0.189400  0.778500  1.0
  C  C4273  1  0.674500  0.335500  0.218100  1.0
  C  C4274  1  0.825500  0.664500  0.718100  1.0
  C  C4275  1  0.325500  0.835500  0.281900  1.0
  C  C4276  1  0.174500  0.164500  0.781900  1.0
  C  C4277  1  0.663100  0.366600  0.215100  1.0
  C  C4278  1  0.836900  0.633400  0.715100  1.0
  C  C4279  1  0.336900  0.866600  0.284900  1.0
  C  C4280  1  0.163100  0.133400  0.784900  1.0
  C  C4281  1  0.629700  0.371900  0.214600  1.0
  C  C4282  1  0.870300  0.628100  0.714600  1.0
  C  C4283  1  0.370300  0.871900  0.285400  1.0
  C  C4284  1  0.129700  0.128100  0.785400  1.0
  C  C4285  1  0.545300  0.107500  0.270800  1.0
  C  C4286  1  0.954700  0.892500  0.770800  1.0
  C  C4287  1  0.454700  0.607500  0.229200  1.0
  C  C4288  1  0.045300  0.392500  0.729200  1.0
  C  C4289  1  0.516900  0.100100  0.289400  1.0
  C  C4290  1  0.983100  0.899900  0.789400  1.0
  C  C4291  1  0.483100  0.600100  0.210600  1.0
  C  C4292  1  0.016900  0.399900  0.710600  1.0
  C  C4293  1  0.563700  0.156000  0.244000  1.0
  C  C4294  1  0.936300  0.844000  0.744000  1.0
  C  C4295  1  0.436300  0.656000  0.256000  1.0
  C  C4296  1  0.063700  0.344000  0.756000  1.0
  C  C4297  1  0.576100  0.171800  0.269700  1.0
  C  C4298  1  0.923900  0.828200  0.769700  1.0
  C  C4299  1  0.423900  0.671800  0.230300  1.0
  C  C4300  1  0.076100  0.328200  0.730300  1.0
  C  C4301  1  0.511900  0.126500  0.232300  1.0
  C  C4302  1  0.988100  0.873500  0.732300  1.0
  C  C4303  1  0.488100  0.626500  0.267700  1.0
  C  C4304  1  0.011900  0.373500  0.767700  1.0
  C  C4305  1  0.494500  0.157600  0.225700  1.0
  C  C4306  1  0.005500  0.842400  0.725700  1.0
  C  C4307  1  0.505500  0.657600  0.274300  1.0
  C  C4308  1  0.994500  0.342400  0.774300  1.0
  C  C4309  1  0.251900  0.061800  0.273700  1.0
  C  C4310  1  0.248100  0.938200  0.773700  1.0
  C  C4311  1  0.748100  0.561800  0.226300  1.0
  C  C4312  1  0.751900  0.438200  0.726300  1.0
  C  C4313  1  0.219200  0.059900  0.280000  1.0
  C  C4314  1  0.280800  0.940100  0.780000  1.0
  C  C4315  1  0.780800  0.559900  0.220000  1.0
  C  C4316  1  0.719200  0.440100  0.720000  1.0
  C  C4317  1  0.202600  0.088300  0.285300  1.0
  C  C4318  1  0.297400  0.911700  0.785300  1.0
  C  C4319  1  0.797400  0.588300  0.214700  1.0
  C  C4320  1  0.702600  0.411700  0.714700  1.0
  C  C4321  1  0.218800  0.117200  0.282900  1.0
  C  C4322  1  0.281200  0.882800  0.782900  1.0
  C  C4323  1  0.781200  0.617200  0.217100  1.0
  C  C4324  1  0.718800  0.382800  0.717100  1.0
  C  C4325  1  0.251200  0.117400  0.275400  1.0
  C  C4326  1  0.248800  0.882600  0.775400  1.0
  C  C4327  1  0.748800  0.617400  0.224600  1.0
  C  C4328  1  0.751200  0.382600  0.724600  1.0
  C  C4329  1  0.271000  0.146000  0.273400  1.0
  C  C4330  1  0.229000  0.854000  0.773400  1.0
  C  C4331  1  0.729000  0.646000  0.226600  1.0
  C  C4332  1  0.771000  0.354000  0.726600  1.0
  C  C4333  1  0.321700  0.170200  0.265200  1.0
  C  C4334  1  0.178300  0.829800  0.765200  1.0
  C  C4335  1  0.678300  0.670200  0.234800  1.0
  C  C4336  1  0.821700  0.329800  0.734800  1.0
  C  C4337  1  0.336900  0.178500  0.240700  1.0
  C  C4338  1  0.163100  0.821500  0.740700  1.0
  C  C4339  1  0.663100  0.678500  0.259300  1.0
  C  C4340  1  0.836900  0.321500  0.759300  1.0
  C  C4341  1  0.356000  0.205900  0.238800  1.0
  C  C4342  1  0.144000  0.794100  0.738800  1.0
  C  C4343  1  0.644000  0.705900  0.261200  1.0
  C  C4344  1  0.856000  0.294100  0.761200  1.0
  C  C4345  1  0.365000  0.222300  0.262700  1.0
  C  C4346  1  0.135000  0.777700  0.762700  1.0
  C  C4347  1  0.635000  0.722300  0.237300  1.0
  C  C4348  1  0.865000  0.277700  0.737300  1.0
  C  C4349  1  0.350100  0.212900  0.287100  1.0
  C  C4350  1  0.149900  0.787100  0.787100  1.0
  C  C4351  1  0.649900  0.712900  0.212900  1.0
  C  C4352  1  0.850100  0.287100  0.712900  1.0
  C  C4353  1  0.329200  0.186800  0.288600  1.0
  C  C4354  1  0.170800  0.813200  0.788600  1.0
  C  C4355  1  0.670800  0.686800  0.211400  1.0
  C  C4356  1  0.829200  0.313200  0.711400  1.0
  C  C4357  1  0.389100  0.249300  0.261900  1.0
  C  C4358  1  0.110900  0.750700  0.761900  1.0
  C  C4359  1  0.610900  0.749300  0.238100  1.0
  C  C4360  1  0.889100  0.250700  0.738100  1.0
  C  C4361  1  0.418500  0.341000  0.304700  1.0
  C  C4362  1  0.081500  0.659000  0.804700  1.0
  C  C4363  1  0.581500  0.841000  0.195300  1.0
  C  C4364  1  0.918500  0.159000  0.695300  1.0
  C  C4365  1  0.442200  0.344400  0.281400  1.0
  C  C4366  1  0.057800  0.655600  0.781400  1.0
  C  C4367  1  0.557800  0.844400  0.218600  1.0
  C  C4368  1  0.942200  0.155600  0.718600  1.0
  C  C4369  1  0.450300  0.316800  0.266700  1.0
  C  C4370  1  0.049700  0.683200  0.766700  1.0
  C  C4371  1  0.549700  0.816800  0.233300  1.0
  C  C4372  1  0.950300  0.183200  0.733300  1.0
  C  C4373  1  0.472000  0.318800  0.244700  1.0
  C  C4374  1  0.028000  0.681200  0.744700  1.0
  C  C4375  1  0.528000  0.818800  0.255300  1.0
  C  C4376  1  0.972000  0.181200  0.755300  1.0
  C  C4377  1  0.487000  0.347300  0.238200  1.0
  C  C4378  1  0.013000  0.652700  0.738200  1.0
  C  C4379  1  0.513000  0.847300  0.261800  1.0
  C  C4380  1  0.987000  0.152700  0.761800  1.0
  C  C4381  1  0.479900  0.375100  0.253300  1.0
  C  C4382  1  0.020100  0.624900  0.753300  1.0
  C  C4383  1  0.520100  0.875100  0.246700  1.0
  C  C4384  1  0.979900  0.124900  0.746700  1.0
  C  C4385  1  0.457700  0.373300  0.274900  1.0
  C  C4386  1  0.042300  0.626700  0.774900  1.0
  C  C4387  1  0.542300  0.873300  0.225100  1.0
  C  C4388  1  0.957700  0.126700  0.725100  1.0
  C  C4389  1  0.499400  0.344300  0.191300  1.0
  C  C4390  1  0.000600  0.655700  0.691300  1.0
  C  C4391  1  0.500600  0.844300  0.308700  1.0
  C  C4392  1  0.999400  0.155700  0.808700  1.0
  C  C4393  1  0.522600  0.342400  0.169300  1.0
  C  C4394  1  0.977400  0.657600  0.669300  1.0
  C  C4395  1  0.477400  0.842400  0.330700  1.0
  C  C4396  1  0.022600  0.157600  0.830700  1.0
  C  C4397  1  0.513400  0.338400  0.141900  1.0
  C  C4398  1  0.986600  0.661600  0.641900  1.0
  C  C4399  1  0.486600  0.838400  0.358100  1.0
  C  C4400  1  0.013400  0.161600  0.858100  1.0
  C  C4401  1  0.537400  0.339700  0.121900  1.0
  C  C4402  1  0.962600  0.660300  0.621900  1.0
  C  C4403  1  0.462600  0.839700  0.378100  1.0
  C  C4404  1  0.037400  0.160300  0.878100  1.0
  C  C4405  1  0.569800  0.339200  0.130000  1.0
  C  C4406  1  0.930200  0.660800  0.630000  1.0
  C  C4407  1  0.430200  0.839200  0.370000  1.0
  C  C4408  1  0.069800  0.160800  0.870000  1.0
  C  C4409  1  0.577200  0.341200  0.158100  1.0
  C  C4410  1  0.922800  0.658800  0.658100  1.0
  C  C4411  1  0.422800  0.841200  0.341900  1.0
  C  C4412  1  0.077200  0.158800  0.841900  1.0
  C  C4413  1  0.341100  0.279500  0.337900  1.0
  C  C4414  1  0.158900  0.720500  0.837900  1.0
  C  C4415  1  0.658900  0.779500  0.162100  1.0
  C  C4416  1  0.841100  0.220500  0.662100  1.0
  C  C4417  1  0.340400  0.306800  0.358600  1.0
  C  C4418  1  0.159600  0.693200  0.858600  1.0
  C  C4419  1  0.659600  0.806800  0.141400  1.0
  C  C4420  1  0.840400  0.193200  0.641400  1.0
  C  C4421  1  0.311600  0.318700  0.369900  1.0
  C  C4422  1  0.188400  0.681300  0.869900  1.0
  C  C4423  1  0.688400  0.818700  0.130100  1.0
  C  C4424  1  0.811600  0.181300  0.630100  1.0
  C  C4425  1  0.311300  0.344600  0.388500  1.0
  C  C4426  1  0.188700  0.655400  0.888500  1.0
  C  C4427  1  0.688700  0.844600  0.111500  1.0
  C  C4428  1  0.811300  0.155400  0.611500  1.0
  C  C4429  1  0.340500  0.356500  0.397000  1.0
  C  C4430  1  0.159500  0.643500  0.897000  1.0
  C  C4431  1  0.659500  0.856500  0.103000  1.0
  C  C4432  1  0.840500  0.143500  0.603000  1.0
  C  C4433  1  0.369300  0.346600  0.384900  1.0
  C  C4434  1  0.130700  0.653400  0.884900  1.0
  C  C4435  1  0.630700  0.846600  0.115100  1.0
  C  C4436  1  0.869300  0.153400  0.615100  1.0
  C  C4437  1  0.369000  0.321800  0.366100  1.0
  C  C4438  1  0.131000  0.678200  0.866100  1.0
  C  C4439  1  0.631000  0.821800  0.133900  1.0
  C  C4440  1  0.869000  0.178200  0.633900  1.0
  C  C4441  1  0.348500  0.410500  0.410000  1.0
  C  C4442  1  0.151500  0.589500  0.910000  1.0
  C  C4443  1  0.651500  0.910500  0.090000  1.0
  C  C4444  1  0.848500  0.089500  0.590000  1.0
  C  C4445  1  0.351900  0.435200  0.431200  1.0
  C  C4446  1  0.148100  0.564800  0.931200  1.0
  C  C4447  1  0.648100  0.935200  0.068800  1.0
  C  C4448  1  0.851900  0.064800  0.568800  1.0
  C  C4449  1  0.358500  0.466700  0.425600  1.0
  C  C4450  1  0.141500  0.533300  0.925600  1.0
  C  C4451  1  0.641500  0.966700  0.074400  1.0
  C  C4452  1  0.858500  0.033300  0.574400  1.0
  C  C4453  1  0.361400  0.487900  0.447300  1.0
  C  C4454  1  0.138600  0.512100  0.947300  1.0
  C  C4455  1  0.638600  0.987900  0.052700  1.0
  C  C4456  1  0.861400  0.012100  0.552700  1.0
  C  C4457  1  0.356400  0.477900  0.473900  1.0
  C  C4458  1  0.143600  0.522100  0.973900  1.0
  C  C4459  1  0.643600  0.977900  0.026100  1.0
  C  C4460  1  0.856400  0.022100  0.526100  1.0
  C  C4461  1  0.349700  0.445100  0.478700  1.0
  C  C4462  1  0.150300  0.554900  0.978700  1.0
  C  C4463  1  0.650300  0.945100  0.021300  1.0
  C  C4464  1  0.849700  0.054900  0.521300  1.0
  C  C4465  1  0.345900  0.322700  0.238300  1.0
  C  C4466  1  0.154100  0.677300  0.738300  1.0
  C  C4467  1  0.654100  0.822700  0.261700  1.0
  C  C4468  1  0.845900  0.177300  0.761700  1.0
  C  C4469  1  0.358900  0.289600  0.234800  1.0
  C  C4470  1  0.141100  0.710400  0.734800  1.0
  C  C4471  1  0.641100  0.789600  0.265200  1.0
  C  C4472  1  0.858900  0.210400  0.765200  1.0
  C  C4473  1  0.336100  0.360600  0.276600  1.0
  C  C4474  1  0.163900  0.639400  0.776600  1.0
  C  C4475  1  0.663900  0.860600  0.223400  1.0
  C  C4476  1  0.836100  0.139400  0.723400  1.0
  C  C4477  1  0.370900  0.366800  0.283200  1.0
  C  C4478  1  0.129100  0.633200  0.783200  1.0
  C  C4479  1  0.629100  0.866800  0.216800  1.0
  C  C4480  1  0.870900  0.133200  0.716800  1.0
  C  C4481  1  0.303300  0.309900  0.272500  1.0
  C  C4482  1  0.196700  0.690100  0.772500  1.0
  C  C4483  1  0.696700  0.809900  0.227500  1.0
  C  C4484  1  0.803300  0.190100  0.727500  1.0
  C  C4485  1  0.302600  0.301500  0.302800  1.0
  C  C4486  1  0.197400  0.698500  0.802800  1.0
  C  C4487  1  0.697400  0.801500  0.197200  1.0
  C  C4488  1  0.802600  0.198500  0.697200  1.0
  C  C4489  1  0.662200  0.093800  0.420500  1.0
  C  C4490  1  0.837800  0.906200  0.920500  1.0
  C  C4491  1  0.337800  0.593800  0.079500  1.0
  C  C4492  1  0.162200  0.406200  0.579500  1.0
  C  C4493  1  0.693100  0.093500  0.409000  1.0
  C  C4494  1  0.806900  0.906500  0.909000  1.0
  C  C4495  1  0.306900  0.593500  0.091000  1.0
  C  C4496  1  0.193100  0.406500  0.591000  1.0
  C  C4497  1  0.708400  0.122500  0.404600  1.0
  C  C4498  1  0.791600  0.877500  0.904600  1.0
  C  C4499  1  0.291600  0.622500  0.095400  1.0
  C  C4500  1  0.208400  0.377500  0.595400  1.0
  C  C4501  1  0.691200  0.150300  0.407000  1.0
  C  C4502  1  0.808800  0.849700  0.907000  1.0
  C  C4503  1  0.308800  0.650300  0.093000  1.0
  C  C4504  1  0.191200  0.349700  0.593000  1.0
  C  C4505  1  0.659500  0.149400  0.416700  1.0
  C  C4506  1  0.840500  0.850600  0.916700  1.0
  C  C4507  1  0.340500  0.649400  0.083300  1.0
  C  C4508  1  0.159500  0.350600  0.583300  1.0
  C  C4509  1  0.638500  0.177000  0.420100  1.0
  C  C4510  1  0.861500  0.823000  0.920100  1.0
  C  C4511  1  0.361500  0.677000  0.079900  1.0
  C  C4512  1  0.138500  0.323000  0.579900  1.0
  C  C4513  1  0.587800  0.199000  0.432400  1.0
  C  C4514  1  0.912200  0.801000  0.932400  1.0
  C  C4515  1  0.412200  0.699000  0.067600  1.0
  C  C4516  1  0.087800  0.301000  0.567600  1.0
  C  C4517  1  0.571300  0.209300  0.408500  1.0
  C  C4518  1  0.928700  0.790700  0.908500  1.0
  C  C4519  1  0.428700  0.709300  0.091500  1.0
  C  C4520  1  0.071300  0.290700  0.591500  1.0
  C  C4521  1  0.547900  0.233000  0.411400  1.0
  C  C4522  1  0.952100  0.767000  0.911400  1.0
  C  C4523  1  0.452100  0.733000  0.088600  1.0
  C  C4524  1  0.047900  0.267000  0.588600  1.0
  C  C4525  1  0.541400  0.248100  0.435900  1.0
  C  C4526  1  0.958600  0.751900  0.935900  1.0
  C  C4527  1  0.458600  0.748100  0.064100  1.0
  C  C4528  1  0.041400  0.251900  0.564100  1.0
  C  C4529  1  0.559400  0.238400  0.459000  1.0
  C  C4530  1  0.940600  0.761600  0.959000  1.0
  C  C4531  1  0.440600  0.738400  0.041000  1.0
  C  C4532  1  0.059400  0.261600  0.541000  1.0
  C  C4533  1  0.581900  0.213600  0.457000  1.0
  C  C4534  1  0.918100  0.786400  0.957000  1.0
  C  C4535  1  0.418100  0.713600  0.043000  1.0
  C  C4536  1  0.081900  0.286400  0.543000  1.0
  C  C4537  1  0.517200  0.275200  0.437700  1.0
  C  C4538  1  0.982800  0.724800  0.937700  1.0
  C  C4539  1  0.482800  0.775200  0.062300  1.0
  C  C4540  1  0.017200  0.224800  0.562300  1.0
  C  C4541  1  0.479300  0.348400  0.380300  1.0
  C  C4542  1  0.020700  0.651600  0.880300  1.0
  C  C4543  1  0.520700  0.848400  0.119700  1.0
  C  C4544  1  0.979300  0.151600  0.619700  1.0
  C  C4545  1  0.456300  0.353600  0.403900  1.0
  C  C4546  1  0.043700  0.646400  0.903900  1.0
  C  C4547  1  0.543700  0.853600  0.096100  1.0
  C  C4548  1  0.956300  0.146400  0.596100  1.0
  C  C4549  1  0.443300  0.327600  0.418400  1.0
  C  C4550  1  0.056700  0.672400  0.918400  1.0
  C  C4551  1  0.556700  0.827600  0.081600  1.0
  C  C4552  1  0.943300  0.172400  0.581600  1.0
  C  C4553  1  0.420000  0.332500  0.438800  1.0
  C  C4554  1  0.080000  0.667500  0.938800  1.0
  C  C4555  1  0.580000  0.832500  0.061200  1.0
  C  C4556  1  0.920000  0.167500  0.561200  1.0
  C  C4557  1  0.409900  0.362900  0.445600  1.0
  C  C4558  1  0.090100  0.637100  0.945600  1.0
  C  C4559  1  0.590100  0.862900  0.054400  1.0
  C  C4560  1  0.909900  0.137100  0.554400  1.0
  C  C4561  1  0.423200  0.389000  0.431100  1.0
  C  C4562  1  0.076800  0.611000  0.931100  1.0
  C  C4563  1  0.576800  0.889000  0.068900  1.0
  C  C4564  1  0.923200  0.111000  0.568900  1.0
  C  C4565  1  0.445800  0.384400  0.410700  1.0
  C  C4566  1  0.054200  0.615600  0.910700  1.0
  C  C4567  1  0.554200  0.884400  0.089300  1.0
  C  C4568  1  0.945800  0.115600  0.589300  1.0
  C  C4569  1  0.392400  0.368100  0.491500  1.0
  C  C4570  1  0.107600  0.631900  0.991500  1.0
  C  C4571  1  0.607600  0.868100  0.008500  1.0
  C  C4572  1  0.892400  0.131900  0.508500  1.0
  C  C4573  1  0.366900  0.373200  0.511300  1.0
  C  C4574  1  0.133100  0.626800  0.011300  1.0
  C  C4575  1  0.633100  0.873200  0.988700  1.0
  C  C4576  1  0.866900  0.126800  0.488700  1.0
  C  C4577  1  0.370800  0.372100  0.539400  1.0
  C  C4578  1  0.129200  0.627900  0.039400  1.0
  C  C4579  1  0.629200  0.872100  0.960600  1.0
  C  C4580  1  0.870800  0.127900  0.460600  1.0
  C  C4581  1  0.343700  0.377000  0.555600  1.0
  C  C4582  1  0.156300  0.623000  0.055600  1.0
  C  C4583  1  0.656300  0.877000  0.944400  1.0
  C  C4584  1  0.843700  0.123000  0.444400  1.0
  C  C4585  1  0.312500  0.378400  0.544800  1.0
  C  C4586  1  0.187500  0.621600  0.044800  1.0
  C  C4587  1  0.687500  0.878400  0.955200  1.0
  C  C4588  1  0.812500  0.121600  0.455200  1.0
  C  C4589  1  0.310700  0.379300  0.516000  1.0
  C  C4590  1  0.189300  0.620700  0.016000  1.0
  C  C4591  1  0.689300  0.879300  0.984000  1.0
  C  C4592  1  0.810700  0.120700  0.484000  1.0
  C  C4593  1  0.561800  0.285200  0.355300  1.0
  C  C4594  1  0.938200  0.714800  0.855300  1.0
  C  C4595  1  0.438200  0.785200  0.144700  1.0
  C  C4596  1  0.061800  0.214800  0.644700  1.0
  C  C4597  1  0.561700  0.305900  0.329400  1.0
  C  C4598  1  0.938300  0.694100  0.829400  1.0
  C  C4599  1  0.438300  0.805900  0.170600  1.0
  C  C4600  1  0.061700  0.194100  0.670600  1.0
  C  C4601  1  0.588300  0.305500  0.311200  1.0
  C  C4602  1  0.911700  0.694500  0.811200  1.0
  C  C4603  1  0.411700  0.805500  0.188800  1.0
  C  C4604  1  0.088300  0.194500  0.688800  1.0
  C  C4605  1  0.589000  0.324700  0.287200  1.0
  C  C4606  1  0.911000  0.675300  0.787200  1.0
  C  C4607  1  0.411000  0.824700  0.212800  1.0
  C  C4608  1  0.089000  0.175300  0.712800  1.0
  C  C4609  1  0.563100  0.343900  0.281400  1.0
  C  C4610  1  0.936900  0.656100  0.781400  1.0
  C  C4611  1  0.436900  0.843900  0.218600  1.0
  C  C4612  1  0.063100  0.156100  0.718600  1.0
  C  C4613  1  0.535800  0.343600  0.298600  1.0
  C  C4614  1  0.964200  0.656400  0.798600  1.0
  C  C4615  1  0.464200  0.843600  0.201400  1.0
  C  C4616  1  0.035800  0.156400  0.701400  1.0
  C  C4617  1  0.535300  0.323900  0.321600  1.0
  C  C4618  1  0.964700  0.676100  0.821600  1.0
  C  C4619  1  0.464700  0.823900  0.178400  1.0
  C  C4620  1  0.035300  0.176100  0.678400  1.0
  C  C4621  1  0.562700  0.395000  0.260900  1.0
  C  C4622  1  0.937300  0.605000  0.760900  1.0
  C  C4623  1  0.437300  0.895000  0.239100  1.0
  C  C4624  1  0.062700  0.105000  0.739100  1.0
  C  C4625  1  0.561000  0.415600  0.236700  1.0
  C  C4626  1  0.939000  0.584400  0.736700  1.0
  C  C4627  1  0.439000  0.915600  0.263300  1.0
  C  C4628  1  0.061000  0.084400  0.763300  1.0
  C  C4629  1  0.564700  0.448700  0.236800  1.0
  C  C4630  1  0.935300  0.551300  0.736800  1.0
  C  C4631  1  0.435300  0.948700  0.263200  1.0
  C  C4632  1  0.064700  0.051300  0.763200  1.0
  C  C4633  1  0.563800  0.465000  0.211900  1.0
  C  C4634  1  0.936200  0.535000  0.711900  1.0
  C  C4635  1  0.436200  0.965000  0.288100  1.0
  C  C4636  1  0.063800  0.035000  0.788100  1.0
  C  C4637  1  0.559900  0.448200  0.187700  1.0
  C  C4638  1  0.940100  0.551800  0.687700  1.0
  C  C4639  1  0.440100  0.948200  0.312300  1.0
  C  C4640  1  0.059900  0.051800  0.812300  1.0
  C  C4641  1  0.558400  0.414900  0.188700  1.0
  C  C4642  1  0.941600  0.585100  0.688700  1.0
  C  C4643  1  0.441600  0.914900  0.311300  1.0
  C  C4644  1  0.058400  0.085100  0.811300  1.0
  C  C4645  1  0.557200  0.355500  0.442800  1.0
  C  C4646  1  0.942800  0.644500  0.942800  1.0
  C  C4647  1  0.442800  0.855500  0.057200  1.0
  C  C4648  1  0.057200  0.144500  0.557200  1.0
  C  C4649  1  0.547300  0.322900  0.453300  1.0
  C  C4650  1  0.952700  0.677100  0.953300  1.0
  C  C4651  1  0.452700  0.822900  0.046700  1.0
  C  C4652  1  0.047300  0.177100  0.546700  1.0
  C  C4653  1  0.561000  0.381500  0.397000  1.0
  C  C4654  1  0.939000  0.618500  0.897000  1.0
  C  C4655  1  0.439000  0.881500  0.103000  1.0
  C  C4656  1  0.061000  0.118500  0.603000  1.0
  C  C4657  1  0.525500  0.383200  0.391100  1.0
  C  C4658  1  0.974500  0.616800  0.891100  1.0
  C  C4659  1  0.474500  0.883200  0.108900  1.0
  C  C4660  1  0.025500  0.116800  0.608900  1.0
  C  C4661  1  0.598900  0.337000  0.410100  1.0
  C  C4662  1  0.901100  0.663000  0.910100  1.0
  C  C4663  1  0.401100  0.837000  0.089900  1.0
  C  C4664  1  0.098900  0.163000  0.589900  1.0
  C  C4665  1  0.598700  0.320800  0.382500  1.0
  C  C4666  1  0.901300  0.679200  0.882500  1.0
  C  C4667  1  0.401300  0.820800  0.117500  1.0
  C  C4668  1  0.098700  0.179200  0.617500  1.0
  C  C4669  1  0.324100  0.027500  0.242700  1.0
  C  C4670  1  0.175900  0.972500  0.742700  1.0
  C  C4671  1  0.675900  0.527500  0.257300  1.0
  C  C4672  1  0.824100  0.472500  0.757300  1.0
  C  C4673  1  0.333800  0.995700  0.245000  1.0
  C  C4674  1  0.166200  0.004300  0.745000  1.0
  C  C4675  1  0.666200  0.495700  0.255000  1.0
  C  C4676  1  0.833800  0.504300  0.755000  1.0
  C  C4677  1  0.344800  0.985100  0.270400  1.0
  C  C4678  1  0.155200  0.014900  0.770400  1.0
  C  C4679  1  0.655200  0.485100  0.229600  1.0
  C  C4680  1  0.844800  0.514900  0.729600  1.0
  C  C4681  1  0.348100  0.006800  0.292000  1.0
  C  C4682  1  0.151900  0.993200  0.792000  1.0
  C  C4683  1  0.651900  0.506800  0.208000  1.0
  C  C4684  1  0.848100  0.493200  0.708000  1.0
  C  C4685  1  0.334800  0.037500  0.288900  1.0
  C  C4686  1  0.165200  0.962500  0.788900  1.0
  C  C4687  1  0.665200  0.537500  0.211100  1.0
  C  C4688  1  0.834800  0.462500  0.711100  1.0
  C  C4689  1  0.336100  0.061800  0.310200  1.0
  C  C4690  1  0.163900  0.938200  0.810200  1.0
  C  C4691  1  0.663900  0.561800  0.189800  1.0
  C  C4692  1  0.836100  0.438200  0.689800  1.0
  C  C4693  1  0.330000  0.115500  0.324100  1.0
  C  C4694  1  0.170000  0.884500  0.824100  1.0
  C  C4695  1  0.670000  0.615500  0.175900  1.0
  C  C4696  1  0.830000  0.384500  0.675900  1.0
  C  C4697  1  0.301800  0.129000  0.335300  1.0
  C  C4698  1  0.198200  0.871000  0.835300  1.0
  C  C4699  1  0.698200  0.629000  0.164700  1.0
  C  C4700  1  0.801800  0.371000  0.664700  1.0
  C  C4701  1  0.304900  0.152900  0.354900  1.0
  C  C4702  1  0.195100  0.847100  0.854900  1.0
  C  C4703  1  0.695100  0.652900  0.145100  1.0
  C  C4704  1  0.804900  0.347100  0.645100  1.0
  C  C4705  1  0.334900  0.163300  0.363500  1.0
  C  C4706  1  0.165100  0.836700  0.863500  1.0
  C  C4707  1  0.665100  0.663300  0.136500  1.0
  C  C4708  1  0.834900  0.336700  0.636500  1.0
  C  C4709  1  0.362300  0.149500  0.351700  1.0
  C  C4710  1  0.137700  0.850500  0.851700  1.0
  C  C4711  1  0.637700  0.649500  0.148300  1.0
  C  C4712  1  0.862300  0.350500  0.648300  1.0
  C  C4713  1  0.360200  0.125200  0.332200  1.0
  C  C4714  1  0.139800  0.874800  0.832200  1.0
  C  C4715  1  0.639800  0.625200  0.167800  1.0
  C  C4716  1  0.860200  0.374800  0.667800  1.0
  C  C4717  1  0.340100  0.188500  0.385400  1.0
  C  C4718  1  0.159900  0.811500  0.885400  1.0
  C  C4719  1  0.659900  0.688500  0.114600  1.0
  C  C4720  1  0.840100  0.311500  0.614600  1.0
  C  C4721  1  0.408000  0.221900  0.452700  1.0
  C  C4722  1  0.092000  0.778100  0.952700  1.0
  C  C4723  1  0.592000  0.721900  0.047300  1.0
  C  C4724  1  0.908000  0.278100  0.547300  1.0
  C  C4725  1  0.385500  0.250100  0.454900  1.0
  C  C4726  1  0.114500  0.749900  0.954900  1.0
  C  C4727  1  0.614500  0.750100  0.045100  1.0
  C  C4728  1  0.885500  0.249900  0.545100  1.0
  C  C4729  1  0.368900  0.259900  0.431500  1.0
  C  C4730  1  0.131100  0.740100  0.931500  1.0
  C  C4731  1  0.631100  0.759900  0.068500  1.0
  C  C4732  1  0.868900  0.240100  0.568500  1.0
  C  C4733  1  0.348000  0.286400  0.432200  1.0
  C  C4734  1  0.152000  0.713600  0.932200  1.0
  C  C4735  1  0.652000  0.786400  0.067800  1.0
  C  C4736  1  0.848000  0.213600  0.567800  1.0
  C  C4737  1  0.343400  0.302900  0.456600  1.0
  C  C4738  1  0.156600  0.697100  0.956600  1.0
  C  C4739  1  0.656600  0.802900  0.043400  1.0
  C  C4740  1  0.843400  0.197100  0.543400  1.0
  C  C4741  1  0.360200  0.293000  0.480500  1.0
  C  C4742  1  0.139800  0.707000  0.980500  1.0
  C  C4743  1  0.639800  0.793000  0.019500  1.0
  C  C4744  1  0.860200  0.207000  0.519500  1.0
  C  C4745  1  0.380000  0.266300  0.479800  1.0
  C  C4746  1  0.120000  0.733700  0.979800  1.0
  C  C4747  1  0.620000  0.766300  0.020200  1.0
  C  C4748  1  0.880000  0.233700  0.520200  1.0
  C  C4749  1  0.292100  0.328300  0.455000  1.0
  C  C4750  1  0.207900  0.671700  0.955000  1.0
  C  C4751  1  0.707900  0.828300  0.045000  1.0
  C  C4752  1  0.792100  0.171700  0.545000  1.0
  C  C4753  1  0.272800  0.357000  0.452000  1.0
  C  C4754  1  0.227200  0.643000  0.952000  1.0
  C  C4755  1  0.727200  0.857000  0.048000  1.0
  C  C4756  1  0.772800  0.143000  0.548000  1.0
  C  C4757  1  0.239900  0.356400  0.448300  1.0
  C  C4758  1  0.260100  0.643600  0.948300  1.0
  C  C4759  1  0.760100  0.856400  0.051700  1.0
  C  C4760  1  0.739900  0.143600  0.551700  1.0
  C  C4761  1  0.225300  0.385900  0.443900  1.0
  C  C4762  1  0.274700  0.614100  0.943900  1.0
  C  C4763  1  0.774700  0.885900  0.056100  1.0
  C  C4764  1  0.725300  0.114100  0.556100  1.0
  C  C4765  1  0.242400  0.414700  0.444800  1.0
  C  C4766  1  0.257600  0.585300  0.944800  1.0
  C  C4767  1  0.757600  0.914700  0.055200  1.0
  C  C4768  1  0.742400  0.085300  0.555200  1.0
  C  C4769  1  0.274900  0.412400  0.451800  1.0
  C  C4770  1  0.225100  0.587600  0.951800  1.0
  C  C4771  1  0.725100  0.912400  0.048200  1.0
  C  C4772  1  0.774900  0.087600  0.548200  1.0
  C  C4773  1  0.432600  0.137500  0.399600  1.0
  C  C4774  1  0.067400  0.862500  0.899600  1.0
  C  C4775  1  0.567400  0.637500  0.100400  1.0
  C  C4776  1  0.932600  0.362500  0.600400  1.0
  C  C4777  1  0.464400  0.135500  0.414800  1.0
  C  C4778  1  0.035600  0.864500  0.914800  1.0
  C  C4779  1  0.535600  0.635500  0.085200  1.0
  C  C4780  1  0.964400  0.364500  0.585200  1.0
  C  C4781  1  0.479900  0.163800  0.423700  1.0
  C  C4782  1  0.020100  0.836200  0.923700  1.0
  C  C4783  1  0.520100  0.663800  0.076300  1.0
  C  C4784  1  0.979900  0.336200  0.576300  1.0
  C  C4785  1  0.508700  0.163300  0.439000  1.0
  C  C4786  1  0.991300  0.836700  0.939000  1.0
  C  C4787  1  0.491300  0.663300  0.061000  1.0
  C  C4788  1  0.008700  0.336700  0.561000  1.0
  C  C4789  1  0.524800  0.134800  0.442400  1.0
  C  C4790  1  0.975200  0.865200  0.942400  1.0
  C  C4791  1  0.475200  0.634800  0.057600  1.0
  C  C4792  1  0.024800  0.365200  0.557600  1.0
  C  C4793  1  0.509300  0.106900  0.434100  1.0
  C  C4794  1  0.990700  0.893100  0.934100  1.0
  C  C4795  1  0.490700  0.606900  0.065900  1.0
  C  C4796  1  0.009300  0.393100  0.565900  1.0
  C  C4797  1  0.480500  0.107000  0.419500  1.0
  C  C4798  1  0.019500  0.893000  0.919500  1.0
  C  C4799  1  0.519500  0.607000  0.080500  1.0
  C  C4800  1  0.980500  0.393000  0.580500  1.0
  C  C4801  1  0.557800  0.141000  0.482100  1.0
  C  C4802  1  0.942200  0.859000  0.982100  1.0
  C  C4803  1  0.442200  0.641000  0.017900  1.0
  C  C4804  1  0.057800  0.359000  0.517900  1.0
  C  C4805  1  0.589800  0.139800  0.494600  1.0
  C  C4806  1  0.910200  0.860200  0.994600  1.0
  C  C4807  1  0.410200  0.639800  0.005400  1.0
  C  C4808  1  0.089800  0.360200  0.505400  1.0
  C  C4809  1  0.595400  0.151400  0.521200  1.0
  C  C4810  1  0.904600  0.848600  0.021200  1.0
  C  C4811  1  0.404600  0.651400  0.978800  1.0
  C  C4812  1  0.095400  0.348600  0.478800  1.0
  C  C4813  1  0.626800  0.150000  0.531200  1.0
  C  C4814  1  0.873200  0.850000  0.031200  1.0
  C  C4815  1  0.373200  0.650000  0.968800  1.0
  C  C4816  1  0.126800  0.350000  0.468800  1.0
  C  C4817  1  0.652100  0.143400  0.513000  1.0
  C  C4818  1  0.847900  0.856600  0.013000  1.0
  C  C4819  1  0.347900  0.643400  0.987000  1.0
  C  C4820  1  0.152100  0.356600  0.487000  1.0
  C  C4821  1  0.644800  0.136100  0.485500  1.0
  C  C4822  1  0.855200  0.863900  0.985500  1.0
  C  C4823  1  0.355200  0.636100  0.014500  1.0
  C  C4824  1  0.144800  0.363900  0.514500  1.0
  C  C4825  1  0.325400  0.150000  0.453800  1.0
  C  C4826  1  0.174600  0.850000  0.953800  1.0
  C  C4827  1  0.674600  0.650000  0.046200  1.0
  C  C4828  1  0.825400  0.350000  0.546200  1.0
  C  C4829  1  0.316400  0.158500  0.424400  1.0
  C  C4830  1  0.183600  0.841500  0.924400  1.0
  C  C4831  1  0.683600  0.658500  0.075600  1.0
  C  C4832  1  0.816400  0.341500  0.575600  1.0
  C  C4833  1  0.376500  0.145400  0.481300  1.0
  C  C4834  1  0.123500  0.854600  0.981300  1.0
  C  C4835  1  0.623500  0.645400  0.018700  1.0
  C  C4836  1  0.876500  0.354600  0.518700  1.0
  C  C4837  1  0.382400  0.180500  0.482200  1.0
  C  C4838  1  0.117600  0.819500  0.982200  1.0
  C  C4839  1  0.617600  0.680500  0.017800  1.0
  C  C4840  1  0.882400  0.319500  0.517800  1.0
  C  C4841  1  0.364400  0.107200  0.442500  1.0
  C  C4842  1  0.135600  0.892800  0.942500  1.0
  C  C4843  1  0.635600  0.607200  0.057500  1.0
  C  C4844  1  0.864400  0.392800  0.557500  1.0
  C  C4845  1  0.398800  0.106700  0.432100  1.0
  C  C4846  1  0.101200  0.893300  0.932100  1.0
  C  C4847  1  0.601200  0.606700  0.067900  1.0
  C  C4848  1  0.898800  0.393300  0.567900  1.0
  C  C4849  1  0.460500  0.566300  0.575000  1.0
  C  C4850  1  0.039500  0.433700  0.075000  1.0
  C  C4851  1  0.539500  0.066300  0.925000  1.0
  C  C4852  1  0.960500  0.933700  0.425000  1.0
  C  C4853  1  0.384900  0.466700  0.573500  1.0
  C  C4854  1  0.115100  0.533300  0.073500  1.0
  C  C4855  1  0.615100  0.966700  0.926500  1.0
  C  C4856  1  0.884900  0.033300  0.426500  1.0
  C  C4857  1  0.592600  0.484200  0.467300  1.0
  C  C4858  1  0.907400  0.515800  0.967300  1.0
  C  C4859  1  0.407400  0.984200  0.032700  1.0
  C  C4860  1  0.092600  0.015800  0.532700  1.0
  C  C4861  1  0.516500  0.476600  0.416600  1.0
  C  C4862  1  0.983500  0.523400  0.916600  1.0
  C  C4863  1  0.483500  0.976600  0.083400  1.0
  C  C4864  1  0.016500  0.023400  0.583400  1.0
  C  C4865  1  0.278300  0.592500  0.381700  1.0
  C  C4866  1  0.221700  0.407500  0.881700  1.0
  C  C4867  1  0.721700  0.092500  0.118300  1.0
  C  C4868  1  0.778300  0.907500  0.618300  1.0
  C  C4869  1  0.285300  0.487800  0.379400  1.0
  C  C4870  1  0.214700  0.512200  0.879400  1.0
  C  C4871  1  0.714700  0.987800  0.120600  1.0
  C  C4872  1  0.785300  0.012200  0.620600  1.0
  C  C4873  1  0.887200  0.486400  0.619200  1.0
  C  C4874  1  0.612800  0.513600  0.119200  1.0
  C  C4875  1  0.112800  0.986400  0.880800  1.0
  C  C4876  1  0.387200  0.013600  0.380800  1.0
  C  C4877  1  0.996700  0.467300  0.641200  1.0
  C  C4878  1  0.503300  0.532700  0.141200  1.0
  C  C4879  1  0.003300  0.967300  0.858800  1.0
  C  C4880  1  0.496700  0.032700  0.358800  1.0
  C  C4881  1  0.933900  0.590500  0.465600  1.0
  C  C4882  1  0.566100  0.409500  0.965600  1.0
  C  C4883  1  0.066100  0.090500  0.034400  1.0
  C  C4884  1  0.433900  0.909500  0.534400  1.0
  C  C4885  1  0.925500  0.571500  0.567500  1.0
  C  C4886  1  0.574500  0.428500  0.067500  1.0
  C  C4887  1  0.074500  0.071500  0.932500  1.0
  C  C4888  1  0.425500  0.928500  0.432500  1.0
  C  C4889  1  0.764900  0.645400  0.642600  1.0
  C  C4890  1  0.735100  0.354600  0.142600  1.0
  C  C4891  1  0.235100  0.145400  0.857400  1.0
  C  C4892  1  0.264900  0.854600  0.357400  1.0
  C  C4893  1  0.854100  0.668900  0.572500  1.0
  C  C4894  1  0.645900  0.331100  0.072500  1.0
  C  C4895  1  0.145900  0.168900  0.927500  1.0
  C  C4896  1  0.354100  0.831100  0.427500  1.0
  C  C4897  1  0.742200  0.740500  0.709800  1.0
  C  C4898  1  0.757800  0.259500  0.209800  1.0
  C  C4899  1  0.257800  0.240500  0.790200  1.0
  C  C4900  1  0.242200  0.759500  0.290200  1.0
  C  C4901  1  0.789400  0.817100  0.670200  1.0
  C  C4902  1  0.710600  0.182900  0.170200  1.0
  C  C4903  1  0.210600  0.317100  0.829800  1.0
  C  C4904  1  0.289400  0.682900  0.329800  1.0
  C  C4905  1  0.262500  0.452900  0.518800  1.0
  C  C4906  1  0.237500  0.547100  0.018800  1.0
  C  C4907  1  0.737500  0.952900  0.981200  1.0
  C  C4908  1  0.762500  0.047100  0.481200  1.0
  C  C4909  1  0.236500  0.431400  0.527200  1.0
  C  C4910  1  0.263500  0.568600  0.027200  1.0
  C  C4911  1  0.763500  0.931400  0.972800  1.0
  C  C4912  1  0.736500  0.068600  0.472800  1.0
  C  C4913  1  0.190500  0.534000  0.478700  1.0
  C  C4914  1  0.309500  0.466000  0.978700  1.0
  C  C4915  1  0.809500  0.034000  0.021300  1.0
  C  C4916  1  0.690500  0.966000  0.521300  1.0
  C  C4917  1  0.214100  0.509200  0.481900  1.0
  C  C4918  1  0.285900  0.490800  0.981900  1.0
  C  C4919  1  0.785900  0.009200  0.018100  1.0
  C  C4920  1  0.714100  0.990800  0.518100  1.0
  C  C4921  1  0.223800  0.345600  0.667600  1.0
  C  C4922  1  0.276200  0.654400  0.167600  1.0
  C  C4923  1  0.776200  0.845600  0.832400  1.0
  C  C4924  1  0.723800  0.154400  0.332400  1.0
  C  C4925  1  0.197400  0.368500  0.667900  1.0
  C  C4926  1  0.302600  0.631500  0.167900  1.0
  C  C4927  1  0.802600  0.868500  0.832100  1.0
  C  C4928  1  0.697400  0.131500  0.332100  1.0
  C  C4929  1  0.821200  0.519000  0.324700  1.0
  C  C4930  1  0.678800  0.481000  0.824700  1.0
  C  C4931  1  0.178800  0.019000  0.175300  1.0
  C  C4932  1  0.321200  0.981000  0.675300  1.0
  C  C4933  1  0.817500  0.536300  0.298400  1.0
  C  C4934  1  0.682500  0.463700  0.798400  1.0
  C  C4935  1  0.182500  0.036300  0.201600  1.0
  C  C4936  1  0.317500  0.963700  0.701600  1.0
  C  C4937  1  0.542300  0.617500  0.533500  1.0
  C  C4938  1  0.957700  0.382500  0.033500  1.0
  C  C4939  1  0.457700  0.117500  0.966500  1.0
  C  C4940  1  0.042300  0.882500  0.466500  1.0
  C  C4941  1  0.574900  0.609700  0.542600  1.0
  C  C4942  1  0.925100  0.390300  0.042600  1.0
  C  C4943  1  0.425100  0.109700  0.957400  1.0
  C  C4944  1  0.074900  0.890300  0.457400  1.0
  C  C4945  1  0.539100  0.517600  0.036200  1.0
  C  C4946  1  0.960900  0.482400  0.536200  1.0
  C  C4947  1  0.460900  0.017600  0.463800  1.0
  C  C4948  1  0.039100  0.982400  0.963800  1.0
  C  C4949  1  0.572600  0.530100  0.032500  1.0
  C  C4950  1  0.927400  0.469900  0.532500  1.0
  C  C4951  1  0.427400  0.030100  0.467500  1.0
  C  C4952  1  0.072600  0.969900  0.967500  1.0
  C  C4953  1  0.574000  0.198000  0.640200  1.0
  C  C4954  1  0.926000  0.802000  0.140200  1.0
  C  C4955  1  0.426000  0.698000  0.859800  1.0
  C  C4956  1  0.074000  0.302000  0.359800  1.0
  C  C4957  1  0.569000  0.198000  0.610000  1.0
  C  C4958  1  0.931000  0.802000  0.110000  1.0
  C  C4959  1  0.431000  0.698000  0.890000  1.0
  C  C4960  1  0.069000  0.302000  0.390000  1.0
  C  C4961  1  0.463000  0.121000  0.503800  1.0
  C  C4962  1  0.037000  0.879000  0.003800  1.0
  C  C4963  1  0.537000  0.621000  0.996200  1.0
  C  C4964  1  0.963000  0.379000  0.496200  1.0
  C  C4965  1  0.465000  0.147000  0.520800  1.0
  C  C4966  1  0.035000  0.853000  0.020800  1.0
  C  C4967  1  0.535000  0.647000  0.979200  1.0
  C  C4968  1  0.965000  0.353000  0.479200  1.0
  C  C4969  1  0.524000  0.212600  0.530800  1.0
  C  C4970  1  0.976000  0.787400  0.030800  1.0
  C  C4971  1  0.476000  0.712600  0.969200  1.0
  C  C4972  1  0.024000  0.287400  0.469200  1.0
  C  C4973  1  0.493000  0.195000  0.529300  1.0
  C  C4974  1  0.007000  0.805000  0.029300  1.0
  C  C4975  1  0.507000  0.695000  0.970700  1.0
  C  C4976  1  0.993000  0.305000  0.470700  1.0
  C  C4977  1  0.530200  0.637800  0.780600  1.0
  C  C4978  1  0.969800  0.362200  0.280600  1.0
  C  C4979  1  0.469800  0.137800  0.719400  1.0
  C  C4980  1  0.030200  0.862200  0.219400  1.0
  C  C4981  1  0.512400  0.613500  0.765000  1.0
  C  C4982  1  0.987600  0.386500  0.265000  1.0
  C  C4983  1  0.487600  0.113500  0.735000  1.0
  C  C4984  1  0.012400  0.886500  0.235000  1.0
  C  C4985  1  0.627800  0.660200  0.477900  0.2
  C  C4986  1  0.872200  0.339800  0.977900  0.2
  C  C4987  1  0.372200  0.160200  0.022100  0.2
  C  C4988  1  0.127800  0.839800  0.522100  0.2
  C  C4989  1  0.637000  0.563000  0.404500  0.2
  C  C4990  1  0.863000  0.437000  0.904500  0.2
  C  C4991  1  0.363000  0.063000  0.095500  0.2
  C  C4992  1  0.137000  0.937000  0.595500  0.2
  C  C4993  1  0.516000  0.705000  0.488000  0.22
  C  C4994  1  0.984000  0.295000  0.988000  0.22
  C  C4995  1  0.484000  0.205000  0.012000  0.22
  C  C4996  1  0.016000  0.795000  0.512000  0.22
  C  C4997  1  0.522000  0.670000  0.483000  0.22
  C  C4998  1  0.978000  0.330000  0.983000  0.22
  C  C4999  1  0.478000  0.170000  0.017000  0.22
  C  C5000  1  0.022000  0.830000  0.517000  0.22
  C  C5001  1  0.699100  0.223800  0.276100  0.25
  C  C5002  1  0.800900  0.776200  0.776100  0.25
  C  C5003  1  0.300900  0.723800  0.223900  0.25
  C  C5004  1  0.199100  0.276200  0.723900  0.25
  C  C5005  1  0.714700  0.242600  0.346400  0.25
  C  C5006  1  0.785300  0.757400  0.846400  0.25
  C  C5007  1  0.285300  0.742600  0.153600  0.25
  C  C5008  1  0.214700  0.257400  0.653600  0.25
  C  C5009  1  0.476800  0.024300  0.179200  0.311
  C  C5010  1  0.023200  0.975700  0.679200  0.311
  C  C5011  1  0.523200  0.524300  0.320800  0.311
  C  C5012  1  0.976800  0.475700  0.820800  0.311
  C  C5013  1  0.447800  0.148800  0.178700  0.311
  C  C5014  1  0.052200  0.851200  0.678700  0.311
  C  C5015  1  0.552200  0.648800  0.321300  0.311
  C  C5016  1  0.947800  0.351200  0.821300  0.311
  C  C5017  1  0.418600  0.612800  0.323600  0.35
  C  C5018  1  0.081400  0.387200  0.823600  0.35
  C  C5019  1  0.581400  0.112800  0.176400  0.35
  C  C5020  1  0.918600  0.887200  0.676400  0.35
  C  C5021  1  0.378900  0.731100  0.333700  0.35
  C  C5022  1  0.121100  0.268900  0.833700  0.35
  C  C5023  1  0.621100  0.231100  0.166300  0.35
  C  C5024  1  0.878900  0.768900  0.666300  0.35
  C  C5025  1  0.407400  0.260200  0.591600  0.365
  C  C5026  1  0.092600  0.739800  0.091600  0.365
  C  C5027  1  0.592600  0.760200  0.908400  0.365
  C  C5028  1  0.907400  0.239800  0.408400  0.365
  C  C5029  1  0.436500  0.323000  0.521600  0.365
  C  C5030  1  0.063500  0.677000  0.021600  0.365
  C  C5031  1  0.563500  0.823000  0.978400  0.365
  C  C5032  1  0.936500  0.177000  0.478400  0.365
  C  C5033  1  0.665000  0.608000  0.674000  0.39
  C  C5034  1  0.835000  0.392000  0.174000  0.39
  C  C5035  1  0.335000  0.108000  0.826000  0.39
  C  C5036  1  0.165000  0.892000  0.326000  0.39
  C  C5037  1  0.657000  0.592000  0.647000  0.39
  C  C5038  1  0.843000  0.408000  0.147000  0.39
  C  C5039  1  0.343000  0.092000  0.853000  0.39
  C  C5040  1  0.157000  0.908000  0.353000  0.39
  C  C5041  1  0.622800  0.455700  0.679300  0.411
  C  C5042  1  0.877200  0.544300  0.179300  0.411
  C  C5043  1  0.377200  0.955700  0.820700  0.411
  C  C5044  1  0.122800  0.044300  0.320700  0.411
  C  C5045  1  0.628200  0.556100  0.731300  0.411
  C  C5046  1  0.871800  0.443900  0.231300  0.411
  C  C5047  1  0.371800  0.056100  0.768700  0.411
  C  C5048  1  0.128200  0.943900  0.268700  0.411
  C  C5049  1  0.359700  0.563600  0.941000  0.456
  C  C5050  1  0.140300  0.436400  0.441000  0.456
  C  C5051  1  0.640300  0.063600  0.559000  0.456
  C  C5052  1  0.859700  0.936400  0.059000  0.456
  C  C5053  1  0.481000  0.537800  0.965200  0.456
  C  C5054  1  0.019000  0.462200  0.465200  0.456
  C  C5055  1  0.519000  0.037800  0.534800  0.456
  C  C5056  1  0.981000  0.962200  0.034800  0.456
  C  C5057  1  0.162400  0.051600  0.586600  0.5
  C  C5058  1  0.337600  0.948400  0.086600  0.5
  C  C5059  1  0.837600  0.551600  0.913400  0.5
  C  C5060  1  0.662400  0.448400  0.413400  0.5
  C  C5061  1  0.246500  0.124600  0.637900  0.5
  C  C5062  1  0.253500  0.875400  0.137900  0.5
  C  C5063  1  0.753500  0.624600  0.862100  0.5
  C  C5064  1  0.746500  0.375400  0.362100  0.5
  C  C5065  1  0.680600  0.210500  0.264200  0.5
  C  C5066  1  0.819400  0.789500  0.764200  0.5
  C  C5067  1  0.319400  0.710500  0.235800  0.5
  C  C5068  1  0.180600  0.289500  0.735800  0.5
  C  C5069  1  0.691700  0.267800  0.363100  0.5
  C  C5070  1  0.808300  0.732200  0.863100  0.5
  C  C5071  1  0.308300  0.767800  0.136900  0.5
  C  C5072  1  0.191700  0.232200  0.636900  0.5
  C  C5073  1  0.434000  0.543000  0.297000  0.5
  C  C5074  1  0.066000  0.457000  0.797000  0.5
  C  C5075  1  0.566000  0.043000  0.203000  0.5
  C  C5076  1  0.934000  0.957000  0.703000  0.5
  C  C5077  1  0.400000  0.551000  0.306000  0.5
  C  C5078  1  0.100000  0.449000  0.806000  0.5
  C  C5079  1  0.600000  0.051000  0.194000  0.5
  C  C5080  1  0.900000  0.949000  0.694000  0.5
  C  C5081  1  0.374000  0.631000  0.343000  0.5
  C  C5082  1  0.126000  0.369000  0.843000  0.5
  C  C5083  1  0.626000  0.131000  0.157000  0.5
  C  C5084  1  0.874000  0.869000  0.657000  0.5
  C  C5085  1  0.427000  0.568000  0.309000  0.5
  C  C5086  1  0.073000  0.432000  0.809000  0.5
  C  C5087  1  0.573000  0.068000  0.191000  0.5
  C  C5088  1  0.927000  0.932000  0.691000  0.5
  C  C5089  1  0.398000  0.582400  0.319000  0.5
  C  C5090  1  0.102000  0.417600  0.819000  0.5
  C  C5091  1  0.602000  0.082400  0.181000  0.5
  C  C5092  1  0.898000  0.917600  0.681000  0.5
  C  C5093  1  0.371000  0.665500  0.332000  0.5
  C  C5094  1  0.129000  0.334500  0.832000  0.5
  C  C5095  1  0.629000  0.165500  0.168000  0.5
  C  C5096  1  0.871000  0.834500  0.668000  0.5
  C  C5097  1  0.750000  0.232000  0.591500  0.5
  C  C5098  1  0.750000  0.768000  0.091500  0.5
  C  C5099  1  0.250000  0.732000  0.908500  0.5
  C  C5100  1  0.250000  0.268000  0.408500  0.5
  C  C5101  1  0.763000  0.240000  0.563800  0.5
  C  C5102  1  0.737000  0.760000  0.063800  0.5
  C  C5103  1  0.237000  0.740000  0.936200  0.5
  C  C5104  1  0.263000  0.260000  0.436200  0.5
  C  C5105  1  0.744000  0.280000  0.596600  0.5
  C  C5106  1  0.756000  0.720000  0.096600  0.5
  C  C5107  1  0.256000  0.780000  0.903400  0.5
  C  C5108  1  0.244000  0.220000  0.403400  0.5
  C  C5109  1  0.754000  0.247000  0.603000  0.5
  C  C5110  1  0.746000  0.753000  0.103000  0.5
  C  C5111  1  0.246000  0.747000  0.897000  0.5
  C  C5112  1  0.254000  0.253000  0.397000  0.5
  C  C5113  1  0.503000  0.454000  0.303500  0.5
  C  C5114  1  0.997000  0.546000  0.803500  0.5
  C  C5115  1  0.497000  0.954000  0.196500  0.5
  C  C5116  1  0.003000  0.046000  0.696500  0.5
  C  C5117  1  0.507000  0.460000  0.333400  0.5
  C  C5118  1  0.993000  0.540000  0.833400  0.5
  C  C5119  1  0.493000  0.960000  0.166600  0.5
  C  C5120  1  0.007000  0.040000  0.666600  0.5
  C  C5121  1  0.328000  0.937000  0.371400  0.5
  C  C5122  1  0.172000  0.063000  0.871400  0.5
  C  C5123  1  0.672000  0.437000  0.128600  0.5
  C  C5124  1  0.828000  0.563000  0.628600  0.5
  C  C5125  1  0.345200  0.933300  0.345300  0.5
  C  C5126  1  0.154800  0.066700  0.845300  0.5
  C  C5127  1  0.654800  0.433300  0.154700  0.5
  C  C5128  1  0.845200  0.566700  0.654700  0.5
  C  C5129  1  0.683400  0.356000  0.557000  0.5
  C  C5130  1  0.816600  0.644000  0.057000  0.5
  C  C5131  1  0.316600  0.856000  0.943000  0.5
  C  C5132  1  0.183400  0.144000  0.443000  0.5
  C  C5133  1  0.718300  0.359000  0.551000  0.5
  C  C5134  1  0.781700  0.641000  0.051000  0.5
  C  C5135  1  0.281700  0.859000  0.949000  0.5
  C  C5136  1  0.218300  0.141000  0.449000  0.5
  C  C5137  1  0.406000  0.587000  0.858000  0.5
  C  C5138  1  0.094000  0.413000  0.358000  0.5
  C  C5139  1  0.594000  0.087000  0.642000  0.5
  C  C5140  1  0.906000  0.913000  0.142000  0.5
  C  C5141  1  0.389000  0.558000  0.866000  0.5
  C  C5142  1  0.111000  0.442000  0.366000  0.5
  C  C5143  1  0.611000  0.058000  0.634000  0.5
  C  C5144  1  0.889000  0.942000  0.134000  0.5
  C  C5145  1  0.407000  0.607000  0.865000  0.5
  C  C5146  1  0.093000  0.393000  0.365000  0.5
  C  C5147  1  0.593000  0.107000  0.635000  0.5
  C  C5148  1  0.907000  0.893000  0.135000  0.5
  C  C5149  1  0.435000  0.619000  0.849000  0.5
  C  C5150  1  0.065000  0.381000  0.349000  0.5
  C  C5151  1  0.565000  0.119000  0.651000  0.5
  C  C5152  1  0.935000  0.881000  0.151000  0.5
  C  C5153  1  0.622000  0.362000  0.501500  0.5
  C  C5154  1  0.878000  0.638000  0.001500  0.5
  C  C5155  1  0.378000  0.862000  0.998500  0.5
  C  C5156  1  0.122000  0.138000  0.498500  0.5
  C  C5157  1  0.648000  0.383000  0.491000  0.5
  C  C5158  1  0.852000  0.617000  0.991000  0.5
  C  C5159  1  0.352000  0.883000  0.009000  0.5
  C  C5160  1  0.148000  0.117000  0.509000  0.5
  C  C5161  1  0.368300  0.544500  0.950100  0.544
  C  C5162  1  0.131700  0.455500  0.450100  0.544
  C  C5163  1  0.631700  0.044500  0.549900  0.544
  C  C5164  1  0.868300  0.955500  0.049900  0.544
  C  C5165  1  0.494500  0.526500  0.977400  0.544
  C  C5166  1  0.005500  0.473500  0.477400  0.544
  C  C5167  1  0.505500  0.026500  0.522600  0.544
  C  C5168  1  0.994500  0.973500  0.022600  0.544
  C  C5169  1  0.612300  0.551600  0.740300  0.589
  C  C5170  1  0.887700  0.448400  0.240300  0.589
  C  C5171  1  0.387700  0.051600  0.759700  0.589
  C  C5172  1  0.112300  0.948400  0.259700  0.589
  C  C5173  1  0.650100  0.468700  0.659300  0.589
  C  C5174  1  0.849900  0.531300  0.159300  0.589
  C  C5175  1  0.349900  0.968700  0.840700  0.589
  C  C5176  1  0.150100  0.031300  0.340700  0.589
  C  C5177  1  0.540600  0.564300  0.630300  0.61
  C  C5178  1  0.959400  0.435700  0.130300  0.61
  C  C5179  1  0.459400  0.064300  0.869700  0.61
  C  C5180  1  0.040600  0.935700  0.369700  0.61
  C  C5181  1  0.562500  0.589100  0.621400  0.61
  C  C5182  1  0.937500  0.410900  0.121400  0.61
  C  C5183  1  0.437500  0.089100  0.878600  0.61
  C  C5184  1  0.062500  0.910900  0.378600  0.61
  C  C5185  1  0.416000  0.239700  0.583900  0.635
  C  C5186  1  0.084000  0.760300  0.083900  0.635
  C  C5187  1  0.584000  0.739700  0.916100  0.635
  C  C5188  1  0.916000  0.260300  0.416100  0.635
  C  C5189  1  0.468400  0.296100  0.512100  0.635
  C  C5190  1  0.031600  0.703900  0.012100  0.635
  C  C5191  1  0.531600  0.796100  0.987900  0.635
  C  C5192  1  0.968400  0.203900  0.487900  0.635
  C  C5193  1  0.454700  0.062200  0.140500  0.689
  C  C5194  1  0.045300  0.937800  0.640500  0.689
  C  C5195  1  0.545300  0.562200  0.359500  0.689
  C  C5196  1  0.954700  0.437800  0.859500  0.689
  C  C5197  1  0.418300  0.024600  0.209600  0.689
  C  C5198  1  0.081700  0.975400  0.709600  0.689
  C  C5199  1  0.581700  0.524600  0.290400  0.689
  C  C5200  1  0.918300  0.475400  0.790400  0.689
  C  C5201  1  0.617600  0.644500  0.473200  0.7
  C  C5202  1  0.882400  0.355500  0.973200  0.7
  C  C5203  1  0.382400  0.144500  0.026800  0.7
  C  C5204  1  0.117600  0.855500  0.526800  0.7
  C  C5205  1  0.636200  0.552100  0.397800  0.7
  C  C5206  1  0.863800  0.447900  0.897800  0.7
  C  C5207  1  0.363800  0.052100  0.102200  0.7
  C  C5208  1  0.136200  0.947900  0.602200  0.7
  C  C5209  1  0.504600  0.703300  0.491800  0.78
  C  C5210  1  0.995400  0.296700  0.991800  0.78
  C  C5211  1  0.495400  0.203300  0.008200  0.78
  C  C5212  1  0.004600  0.796700  0.508200  0.78
  C  C5213  1  0.530200  0.690100  0.474200  0.78
  C  C5214  1  0.969800  0.309900  0.974200  0.78
  C  C5215  1  0.469800  0.190100  0.025800  0.78
  C  C5216  1  0.030200  0.809900  0.525800  0.78
  S  S5217  1  0.394200  0.535700  0.944600  0.456
  S  S5218  1  0.105800  0.464300  0.444600  0.456
  S  S5219  1  0.605800  0.035700  0.555400  0.456
  S  S5220  1  0.894200  0.964300  0.055400  0.456
  S  S5221  1  0.449600  0.568800  0.966000  0.456
  S  S5222  1  0.050400  0.431200  0.466000  0.456
  S  S5223  1  0.550400  0.068800  0.534000  0.456
  S  S5224  1  0.949600  0.931200  0.034000  0.456
  S  S5225  1  0.443600  0.532000  0.593600  1.0
  S  S5226  1  0.056400  0.468000  0.093600  1.0
  S  S5227  1  0.556400  0.032000  0.906400  1.0
  S  S5228  1  0.943600  0.968000  0.406400  1.0
  S  S5229  1  0.404300  0.501700  0.554700  1.0
  S  S5230  1  0.095700  0.498300  0.054700  1.0
  S  S5231  1  0.595700  0.001700  0.945300  1.0
  S  S5232  1  0.904300  0.998300  0.445300  1.0
  S  S5233  1  0.563700  0.455000  0.474600  1.0
  S  S5234  1  0.936300  0.545000  0.974600  1.0
  S  S5235  1  0.436300  0.955000  0.025400  1.0
  S  S5236  1  0.063700  0.045000  0.525400  1.0
  S  S5237  1  0.505500  0.463000  0.448300  1.0
  S  S5238  1  0.994500  0.537000  0.948300  1.0
  S  S5239  1  0.494500  0.963000  0.051700  1.0
  S  S5240  1  0.005500  0.037000  0.551700  1.0
  S  S5241  1  0.272500  0.567700  0.413000  1.0
  S  S5242  1  0.227500  0.432300  0.913000  1.0
  S  S5243  1  0.727500  0.067700  0.087000  1.0
  S  S5244  1  0.772500  0.932300  0.587000  1.0
  S  S5245  1  0.257600  0.501600  0.407000  1.0
  S  S5246  1  0.242400  0.498400  0.907000  1.0
  S  S5247  1  0.742400  0.001600  0.093000  1.0
  S  S5248  1  0.757600  0.998400  0.593000  1.0
  S  S5249  1  0.916900  0.462600  0.638800  1.0
  S  S5250  1  0.583100  0.537400  0.138800  1.0
  S  S5251  1  0.083100  0.962600  0.861200  1.0
  S  S5252  1  0.416900  0.037400  0.361200  1.0
  S  S5253  1  0.978700  0.484800  0.622200  1.0
  S  S5254  1  0.521300  0.515200  0.122200  1.0
  S  S5255  1  0.021300  0.984800  0.877800  1.0
  S  S5256  1  0.478700  0.015200  0.377800  1.0
  S  S5257  1  0.918300  0.565100  0.491000  1.0
  S  S5258  1  0.581700  0.434900  0.991000  1.0
  S  S5259  1  0.081700  0.065100  0.009000  1.0
  S  S5260  1  0.418300  0.934900  0.509000  1.0
  S  S5261  1  0.939100  0.598100  0.537400  1.0
  S  S5262  1  0.560900  0.401900  0.037400  1.0
  S  S5263  1  0.060900  0.098100  0.962600  1.0
  S  S5264  1  0.439100  0.901900  0.462600  1.0
  S  S5265  1  0.777400  0.650300  0.606100  1.0
  S  S5266  1  0.722600  0.349700  0.106100  1.0
  S  S5267  1  0.222600  0.150300  0.893900  1.0
  S  S5268  1  0.277400  0.849700  0.393900  1.0
  S  S5269  1  0.840900  0.676200  0.608600  1.0
  S  S5270  1  0.659100  0.323800  0.108600  1.0
  S  S5271  1  0.159100  0.176200  0.891400  1.0
  S  S5272  1  0.340900  0.823800  0.391400  1.0
  S  S5273  1  0.716600  0.772200  0.694760  1.0
  S  S5274  1  0.783400  0.227800  0.194760  1.0
  S  S5275  1  0.283400  0.272200  0.805240  1.0
  S  S5276  1  0.216600  0.727800  0.305240  1.0
  S  S5277  1  0.750600  0.831340  0.682410  1.0
  S  S5278  1  0.749400  0.168660  0.182410  1.0
  S  S5279  1  0.249400  0.331340  0.817590  1.0
  S  S5280  1  0.250600  0.668660  0.317590  1.0
  S  S5281  1  0.626500  0.604200  0.413900  0.2
  S  S5282  1  0.873500  0.395800  0.913900  0.2
  S  S5283  1  0.373500  0.104200  0.086100  0.2
  S  S5284  1  0.126500  0.895800  0.586100  0.2
  S  S5285  1  0.595100  0.640000  0.458900  0.2
  S  S5286  1  0.904900  0.360000  0.958900  0.2
  S  S5287  1  0.404900  0.140000  0.041100  0.2
  S  S5288  1  0.095100  0.860000  0.541100  0.2
  S  S5289  1  0.670800  0.234200  0.347800  0.25
  S  S5290  1  0.829200  0.765800  0.847800  0.25
  S  S5291  1  0.329200  0.734200  0.152200  0.25
  S  S5292  1  0.170800  0.265800  0.652200  0.25
  S  S5293  1  0.657200  0.225300  0.288800  0.25
  S  S5294  1  0.842800  0.774700  0.788800  0.25
  S  S5295  1  0.342800  0.725300  0.211200  0.25
  S  S5296  1  0.157200  0.274700  0.711200  0.25
  S  S5297  1  0.453900  0.114400  0.155000  0.311
  S  S5298  1  0.046100  0.885600  0.655000  0.311
  S  S5299  1  0.546100  0.614400  0.345000  0.311
  S  S5300  1  0.953900  0.385600  0.845000  0.311
  S  S5301  1  0.466200  0.060900  0.199700  0.311
  S  S5302  1  0.033800  0.939100  0.699700  0.311
  S  S5303  1  0.533800  0.560900  0.300300  0.311
  S  S5304  1  0.966200  0.439100  0.800300  0.311
  S  S5305  1  0.402500  0.700600  0.315100  0.35
  S  S5306  1  0.097500  0.299400  0.815100  0.35
  S  S5307  1  0.597500  0.200600  0.184900  0.35
  S  S5308  1  0.902500  0.799400  0.684900  0.35
  S  S5309  1  0.385300  0.638300  0.337000  0.35
  S  S5310  1  0.114700  0.361700  0.837000  0.35
  S  S5311  1  0.614700  0.138300  0.163000  0.35
  S  S5312  1  0.885300  0.861700  0.663000  0.35
  S  S5313  1  0.440600  0.248500  0.568500  0.365
  S  S5314  1  0.059400  0.751500  0.068500  0.365
  S  S5315  1  0.559400  0.748500  0.931500  0.365
  S  S5316  1  0.940600  0.251500  0.431500  0.365
  S  S5317  1  0.466100  0.290300  0.523300  0.365
  S  S5318  1  0.033900  0.709700  0.023300  0.365
  S  S5319  1  0.533900  0.790300  0.976700  0.365
  S  S5320  1  0.966100  0.209700  0.476700  0.365
  S  S5321  1  0.590800  0.533500  0.726900  0.411
  S  S5322  1  0.909200  0.466500  0.226900  0.411
  S  S5323  1  0.409200  0.033500  0.773100  0.411
  S  S5324  1  0.090800  0.966500  0.273100  0.411
  S  S5325  1  0.636600  0.482100  0.707000  0.411
  S  S5326  1  0.863400  0.517900  0.207000  0.411
  S  S5327  1  0.363400  0.982100  0.793000  0.411
  S  S5328  1  0.136600  0.017900  0.293000  0.411
  S  S5329  1  0.233100  0.083900  0.628200  0.5
  S  S5330  1  0.266900  0.916100  0.128200  0.5
  S  S5331  1  0.766900  0.583900  0.871800  0.5
  S  S5332  1  0.733100  0.416100  0.371800  0.5
  S  S5333  1  0.175500  0.092900  0.594900  0.5
  S  S5334  1  0.324500  0.907100  0.094900  0.5
  S  S5335  1  0.824500  0.592900  0.905100  0.5
  S  S5336  1  0.675500  0.407100  0.405100  0.5
  S  S5337  1  0.663700  0.236900  0.349300  0.5
  S  S5338  1  0.836300  0.763100  0.849300  0.5
  S  S5339  1  0.336300  0.736900  0.150700  0.5
  S  S5340  1  0.163700  0.263100  0.650700  0.5
  S  S5341  1  0.661400  0.237600  0.289200  0.5
  S  S5342  1  0.838600  0.762400  0.789200  0.5
  S  S5343  1  0.338600  0.737600  0.210800  0.5
  S  S5344  1  0.161400  0.262400  0.710800  0.5
  S  S5345  1  0.410600  0.537100  0.939300  0.544
  S  S5346  1  0.089400  0.462900  0.439300  0.544
  S  S5347  1  0.589400  0.037100  0.560700  0.544
  S  S5348  1  0.910600  0.962900  0.060700  0.544
  S  S5349  1  0.464300  0.559000  0.973600  0.544
  S  S5350  1  0.035700  0.441000  0.473600  0.544
  S  S5351  1  0.535700  0.059000  0.526400  0.544
  S  S5352  1  0.964300  0.941000  0.026400  0.544
  S  S5353  1  0.622800  0.469600  0.689300  0.589
  S  S5354  1  0.877200  0.530400  0.189300  0.589
  S  S5355  1  0.377200  0.969600  0.810700  0.589
  S  S5356  1  0.122800  0.030400  0.310700  0.589
  S  S5357  1  0.593000  0.525500  0.714500  0.589
  S  S5358  1  0.907000  0.474500  0.214500  0.589
  S  S5359  1  0.407000  0.025500  0.785500  0.589
  S  S5360  1  0.093000  0.974500  0.285500  0.589
  S  S5361  1  0.424300  0.282500  0.593400  0.635
  S  S5362  1  0.075700  0.717500  0.093400  0.635
  S  S5363  1  0.575700  0.782500  0.906600  0.635
  S  S5364  1  0.924300  0.217500  0.406600  0.635
  S  S5365  1  0.442700  0.309600  0.540700  0.635
  S  S5366  1  0.057300  0.690400  0.040700  0.635
  S  S5367  1  0.557300  0.809600  0.959300  0.635
  S  S5368  1  0.942700  0.190400  0.459300  0.635
  S  S5369  1  0.488500  0.063900  0.165300  0.689
  S  S5370  1  0.011500  0.936100  0.665300  0.689
  S  S5371  1  0.511500  0.563900  0.334700  0.689
  S  S5372  1  0.988500  0.436100  0.834700  0.689
  S  S5373  1  0.453400  0.050000  0.216100  0.689
  S  S5374  1  0.046600  0.950000  0.716100  0.689
  S  S5375  1  0.546600  0.550000  0.283900  0.689
  S  S5376  1  0.953400  0.450000  0.783900  0.689
  S  S5377  1  0.604500  0.608500  0.453100  0.7
  S  S5378  1  0.895500  0.391500  0.953100  0.7
  S  S5379  1  0.395500  0.108500  0.046900  0.7
  S  S5380  1  0.104500  0.891500  0.546900  0.7
  S  S5381  1  0.642600  0.595900  0.403900  0.7
  S  S5382  1  0.857400  0.404100  0.903900  0.7
  S  S5383  1  0.357400  0.095900  0.096100  0.7
  S  S5384  1  0.142600  0.904100  0.596100  0.7
  N  N5385  1  0.380500  0.667500  0.314600  0.35
  N  N5386  1  0.119500  0.332500  0.814600  0.35
  N  N5387  1  0.619500  0.167500  0.185400  0.35
  N  N5388  1  0.880500  0.832500  0.685400  0.35
  N  N5389  1  0.637300  0.601300  0.436700  0.7
  N  N5390  1  0.862700  0.398700  0.936700  0.7
  N  N5391  1  0.362700  0.101300  0.063300  0.7
  N  N5392  1  0.137300  0.898700  0.563300  0.7
  N  N5393  1  0.302500  0.949200  0.493800  1.0
  N  N5394  1  0.197500  0.050800  0.993800  1.0
  N  N5395  1  0.697500  0.449200  0.006200  1.0
  N  N5396  1  0.802500  0.550800  0.506200  1.0
  N  N5397  1  0.272200  0.894000  0.488200  1.0
  N  N5398  1  0.227800  0.106000  0.988200  1.0
  N  N5399  1  0.727800  0.394000  0.011800  1.0
  N  N5400  1  0.772200  0.606000  0.511800  1.0
  N  N5401  1  0.097600  0.659700  0.509800  1.0
  N  N5402  1  0.402400  0.340300  0.009800  1.0
  N  N5403  1  0.902400  0.159700  0.990200  1.0
  N  N5404  1  0.597600  0.840300  0.490200  1.0
  N  N5405  1  0.039600  0.659000  0.531000  1.0
  N  N5406  1  0.460400  0.341000  0.031000  1.0
  N  N5407  1  0.960400  0.159000  0.969000  1.0
  N  N5408  1  0.539600  0.841000  0.469000  1.0
  N  N5409  1  0.380900  0.619600  0.431200  1.0
  N  N5410  1  0.119100  0.380400  0.931200  1.0
  N  N5411  1  0.619100  0.119600  0.068800  1.0
  N  N5412  1  0.880900  0.880400  0.568800  1.0
  N  N5413  1  0.413300  0.568300  0.422500  1.0
  N  N5414  1  0.086700  0.431700  0.922500  1.0
  N  N5415  1  0.586700  0.068300  0.077500  1.0
  N  N5416  1  0.913300  0.931700  0.577500  1.0
  N  N5417  1  0.229300  0.730100  0.411200  1.0
  N  N5418  1  0.270700  0.269900  0.911200  1.0
  N  N5419  1  0.770700  0.230100  0.088800  1.0
  N  N5420  1  0.729300  0.769900  0.588800  1.0
  N  N5421  1  0.215200  0.753200  0.457700  1.0
  N  N5422  1  0.284800  0.246800  0.957700  1.0
  N  N5423  1  0.784800  0.253200  0.042300  1.0
  N  N5424  1  0.715200  0.746800  0.542300  1.0
  N  N5425  1  0.233500  0.686400  0.447300  1.0
  N  N5426  1  0.266500  0.313600  0.947300  1.0
  N  N5427  1  0.766500  0.186400  0.052700  1.0
  N  N5428  1  0.733500  0.813600  0.552700  1.0
  N  N5429  1  0.279700  0.737500  0.438600  1.0
  N  N5430  1  0.220300  0.262500  0.938600  1.0
  N  N5431  1  0.720300  0.237500  0.061400  1.0
  N  N5432  1  0.779700  0.762500  0.561400  1.0
  N  N5433  1  0.232700  0.946700  0.504200  1.0
  N  N5434  1  0.267300  0.053300  0.004200  1.0
  N  N5435  1  0.767300  0.446700  0.995800  1.0
  N  N5436  1  0.732700  0.553300  0.495800  1.0
  N  N5437  1  0.239700  0.903800  0.541300  1.0
  N  N5438  1  0.260300  0.096200  0.041300  1.0
  N  N5439  1  0.760300  0.403800  0.958700  1.0
  N  N5440  1  0.739700  0.596200  0.458700  1.0
  N  N5441  1  0.304200  0.732700  0.724000  1.0
  N  N5442  1  0.195800  0.267300  0.224000  1.0
  N  N5443  1  0.695800  0.232700  0.776000  1.0
  N  N5444  1  0.804200  0.767300  0.276000  1.0
  N  N5445  1  0.349900  0.741100  0.759300  1.0
  N  N5446  1  0.150100  0.258900  0.259300  1.0
  N  N5447  1  0.650100  0.241100  0.740700  1.0
  N  N5448  1  0.849900  0.758900  0.240700  1.0
  N  N5449  1  0.089700  0.656600  0.570300  1.0
  N  N5450  1  0.410300  0.343400  0.070300  1.0
  N  N5451  1  0.910300  0.156600  0.929700  1.0
  N  N5452  1  0.589700  0.843400  0.429700  1.0
  N  N5453  1  0.054700  0.605500  0.567600  1.0
  N  N5454  1  0.445300  0.394500  0.067600  1.0
  N  N5455  1  0.945300  0.105500  0.932400  1.0
  N  N5456  1  0.554700  0.894500  0.432400  1.0
  N  N5457  1  0.166200  0.793800  0.644200  1.0
  N  N5458  1  0.333800  0.206200  0.144200  1.0
  N  N5459  1  0.833800  0.293800  0.855800  1.0
  N  N5460  1  0.666200  0.706200  0.355800  1.0
  N  N5461  1  0.226200  0.793700  0.634100  1.0
  N  N5462  1  0.273800  0.206300  0.134100  1.0
  N  N5463  1  0.773800  0.293700  0.865900  1.0
  N  N5464  1  0.726200  0.706300  0.365900  1.0
  N  N5465  1  0.185700  0.736900  0.638000  1.0
  N  N5466  1  0.314300  0.263100  0.138000  1.0
  N  N5467  1  0.814300  0.236900  0.862000  1.0
  N  N5468  1  0.685700  0.763100  0.362000  1.0
  N  N5469  1  0.175200  0.782900  0.593900  1.0
  N  N5470  1  0.324800  0.217100  0.093900  1.0
  N  N5471  1  0.824800  0.282900  0.906100  1.0
  N  N5472  1  0.675200  0.717100  0.406100  1.0
  N  N5473  1  0.278900  0.958400  0.549500  1.0
  N  N5474  1  0.221100  0.041600  0.049500  1.0
  N  N5475  1  0.721100  0.458400  0.950500  1.0
  N  N5476  1  0.778900  0.541600  0.450500  1.0
  N  N5477  1  0.310400  0.906000  0.538500  1.0
  N  N5478  1  0.189600  0.094000  0.038500  1.0
  N  N5479  1  0.689600  0.406000  0.961500  1.0
  N  N5480  1  0.810400  0.594000  0.461500  1.0
  N  N5481  1  0.431100  0.646700  0.465400  1.0
  N  N5482  1  0.068900  0.353300  0.965400  1.0
  N  N5483  1  0.568900  0.146700  0.034600  1.0
  N  N5484  1  0.931100  0.853300  0.534600  1.0
  N  N5485  1  0.447500  0.627900  0.417200  1.0
  N  N5486  1  0.052500  0.372100  0.917200  1.0
  N  N5487  1  0.552500  0.127900  0.082800  1.0
  N  N5488  1  0.947500  0.872100  0.582800  1.0
  N  N5489  1  0.372200  0.712500  0.708400  1.0
  N  N5490  1  0.127800  0.287500  0.208400  1.0
  N  N5491  1  0.627800  0.212500  0.791600  1.0
  N  N5492  1  0.872200  0.787500  0.291600  1.0
  N  N5493  1  0.375600  0.677700  0.752200  1.0
  N  N5494  1  0.124400  0.322300  0.252200  1.0
  N  N5495  1  0.624400  0.177700  0.747800  1.0
  N  N5496  1  0.875600  0.822300  0.247800  1.0
  N  N5497  1  0.436000  0.779200  0.571200  1.0
  N  N5498  1  0.064000  0.220800  0.071200  1.0
  N  N5499  1  0.564000  0.279200  0.928800  1.0
  N  N5500  1  0.936000  0.720800  0.428800  1.0
  N  N5501  1  0.394500  0.775500  0.533900  1.0
  N  N5502  1  0.105500  0.224500  0.033900  1.0
  N  N5503  1  0.605500  0.275500  0.966100  1.0
  N  N5504  1  0.894500  0.724500  0.466100  1.0
  N  N5505  1  0.407300  0.726800  0.576100  1.0
  N  N5506  1  0.092700  0.273200  0.076100  1.0
  N  N5507  1  0.592700  0.226800  0.923900  1.0
  N  N5508  1  0.907300  0.773200  0.423900  1.0
  N  N5509  1  0.380800  0.788500  0.591500  1.0
  N  N5510  1  0.119200  0.211500  0.091500  1.0
  N  N5511  1  0.619200  0.288500  0.908500  1.0
  N  N5512  1  0.880800  0.711500  0.408500  1.0
  N  N5513  1  0.065800  0.598600  0.508600  1.0
  N  N5514  1  0.434200  0.401400  0.008600  1.0
  N  N5515  1  0.934200  0.098600  0.991400  1.0
  N  N5516  1  0.565800  0.901400  0.491400  1.0
  N  N5517  1  0.116200  0.600200  0.540600  1.0
  N  N5518  1  0.383800  0.399800  0.040600  1.0
  N  N5519  1  0.883800  0.100200  0.959400  1.0
  N  N5520  1  0.616200  0.899800  0.459400  1.0
  N  N5521  1  0.320200  0.664100  0.719100  1.0
  N  N5522  1  0.179800  0.335900  0.219100  1.0
  N  N5523  1  0.679800  0.164100  0.780900  1.0
  N  N5524  1  0.820200  0.835900  0.280900  1.0
  N  N5525  1  0.308900  0.687500  0.767700  1.0
  N  N5526  1  0.191100  0.312500  0.267700  1.0
  N  N5527  1  0.691100  0.187500  0.732300  1.0
  N  N5528  1  0.808900  0.812500  0.232300  1.0
  N  N5529  1  0.405300  0.582600  0.480600  1.0
  N  N5530  1  0.094700  0.417400  0.980600  1.0
  N  N5531  1  0.594700  0.082600  0.019400  1.0
  N  N5532  1  0.905300  0.917400  0.519400  1.0
  N  N5533  1  0.463300  0.586400  0.462200  1.0
  N  N5534  1  0.036700  0.413600  0.962200  1.0
  N  N5535  1  0.536700  0.086400  0.037800  1.0
  N  N5536  1  0.963300  0.913600  0.537800  1.0
  N  N5537  1  0.285800  0.543000  0.600700  1.0
  N  N5538  1  0.214200  0.457000  0.100700  1.0
  N  N5539  1  0.714200  0.043000  0.899300  1.0
  N  N5540  1  0.785800  0.957000  0.399300  1.0
  N  N5541  1  0.251700  0.591100  0.609100  1.0
  N  N5542  1  0.248300  0.408900  0.109100  1.0
  N  N5543  1  0.748300  0.091100  0.890900  1.0
  N  N5544  1  0.751700  0.908900  0.390900  1.0
  N  N5545  1  0.321200  0.592200  0.599900  1.0
  N  N5546  1  0.178800  0.407800  0.099900  1.0
  N  N5547  1  0.678800  0.092200  0.900100  1.0
  N  N5548  1  0.821200  0.907800  0.400100  1.0
  N  N5549  1  0.277000  0.571600  0.556100  1.0
  N  N5550  1  0.223000  0.428400  0.056100  1.0
  N  N5551  1  0.723000  0.071600  0.943900  1.0
  N  N5552  1  0.777000  0.928400  0.443900  1.0
  N  N5553  1  0.598300  0.560900  0.854400  1.0
  N  N5554  1  0.901700  0.439100  0.354400  1.0
  N  N5555  1  0.401700  0.060900  0.645600  1.0
  N  N5556  1  0.098300  0.939100  0.145600  1.0
  N  N5557  1  0.543700  0.555200  0.827900  1.0
  N  N5558  1  0.956300  0.444800  0.327900  1.0
  N  N5559  1  0.456300  0.055200  0.672100  1.0
  N  N5560  1  0.043700  0.944800  0.172100  1.0
  N  N5561  1  0.259800  0.505200  0.739400  1.0
  N  N5562  1  0.240200  0.494800  0.239400  1.0
  N  N5563  1  0.740200  0.005200  0.760600  1.0
  N  N5564  1  0.759800  0.994800  0.260600  1.0
  N  N5565  1  0.204700  0.506000  0.763900  1.0
  N  N5566  1  0.295300  0.494000  0.263900  1.0
  N  N5567  1  0.795300  0.006000  0.736100  1.0
  N  N5568  1  0.704700  0.994000  0.236100  1.0
  N  N5569  1  0.506200  0.427900  0.602900  1.0
  N  N5570  1  0.993800  0.572100  0.102900  1.0
  N  N5571  1  0.493800  0.927900  0.897100  1.0
  N  N5572  1  0.006200  0.072100  0.397100  1.0
  N  N5573  1  0.511900  0.396600  0.557800  1.0
  N  N5574  1  0.988100  0.603400  0.057800  1.0
  N  N5575  1  0.488100  0.896600  0.942200  1.0
  N  N5576  1  0.011900  0.103400  0.442200  1.0
  N  N5577  1  0.435700  0.563800  0.699300  1.0
  N  N5578  1  0.064300  0.436200  0.199300  1.0
  N  N5579  1  0.564300  0.063800  0.800700  1.0
  N  N5580  1  0.935700  0.936200  0.300700  1.0
  N  N5581  1  0.422100  0.538200  0.744700  1.0
  N  N5582  1  0.077900  0.461800  0.244700  1.0
  N  N5583  1  0.577900  0.038200  0.755300  1.0
  N  N5584  1  0.922100  0.961800  0.255300  1.0
  N  N5585  1  0.407300  0.511200  0.691100  1.0
  N  N5586  1  0.092700  0.488800  0.191100  1.0
  N  N5587  1  0.592700  0.011200  0.808900  1.0
  N  N5588  1  0.907300  0.988800  0.308900  1.0
  N  N5589  1  0.474300  0.519200  0.708400  1.0
  N  N5590  1  0.025700  0.480800  0.208400  1.0
  N  N5591  1  0.525700  0.019200  0.791600  1.0
  N  N5592  1  0.974300  0.980800  0.291600  1.0
  N  N5593  1  0.449500  0.204600  0.879800  1.0
  N  N5594  1  0.050500  0.795400  0.379800  1.0
  N  N5595  1  0.550500  0.704600  0.620200  1.0
  N  N5596  1  0.949500  0.295400  0.120200  1.0
  N  N5597  1  0.418300  0.257000  0.869000  1.0
  N  N5598  1  0.081700  0.743000  0.369000  1.0
  N  N5599  1  0.581700  0.757000  0.631000  1.0
  N  N5600  1  0.918300  0.243000  0.131000  1.0
  N  N5601  1  0.240700  0.451500  0.774700  1.0
  N  N5602  1  0.259300  0.548500  0.274700  1.0
  N  N5603  1  0.759300  0.951500  0.725300  1.0
  N  N5604  1  0.740700  0.048500  0.225300  1.0
  N  N5605  1  0.188800  0.439600  0.746200  1.0
  N  N5606  1  0.311200  0.560400  0.246200  1.0
  N  N5607  1  0.811200  0.939600  0.753800  1.0
  N  N5608  1  0.688800  0.060400  0.253800  1.0
  N  N5609  1  0.509700  0.536700  0.879900  1.0
  N  N5610  1  0.990300  0.463300  0.379900  1.0
  N  N5611  1  0.490300  0.036700  0.620100  1.0
  N  N5612  1  0.009700  0.963300  0.120100  1.0
  N  N5613  1  0.541100  0.590500  0.878300  1.0
  N  N5614  1  0.958900  0.409500  0.378300  1.0
  N  N5615  1  0.458900  0.090500  0.621700  1.0
  N  N5616  1  0.041100  0.909500  0.121700  1.0
  N  N5617  1  0.354000  0.427900  0.898300  1.0
  N  N5618  1  0.146000  0.572100  0.398300  1.0
  N  N5619  1  0.646000  0.927900  0.601700  1.0
  N  N5620  1  0.854000  0.072100  0.101700  1.0
  N  N5621  1  0.348700  0.394800  0.855700  1.0
  N  N5622  1  0.151300  0.605200  0.355700  1.0
  N  N5623  1  0.651300  0.894800  0.644300  1.0
  N  N5624  1  0.848700  0.105200  0.144300  1.0
  N  N5625  1  0.365200  0.462500  0.856800  1.0
  N  N5626  1  0.134800  0.537500  0.356800  1.0
  N  N5627  1  0.634800  0.962500  0.643200  1.0
  N  N5628  1  0.865200  0.037500  0.143200  1.0
  N  N5629  1  0.409600  0.416000  0.879700  1.0
  N  N5630  1  0.090400  0.584000  0.379700  1.0
  N  N5631  1  0.590400  0.916000  0.620300  1.0
  N  N5632  1  0.909600  0.084000  0.120300  1.0
  N  N5633  1  0.383100  0.200300  0.862400  1.0
  N  N5634  1  0.116900  0.799700  0.362400  1.0
  N  N5635  1  0.616900  0.700300  0.637600  1.0
  N  N5636  1  0.883100  0.299700  0.137600  1.0
  N  N5637  1  0.393500  0.228900  0.815500  1.0
  N  N5638  1  0.106500  0.771100  0.315500  1.0
  N  N5639  1  0.606500  0.728900  0.684500  1.0
  N  N5640  1  0.893500  0.271100  0.184500  1.0
  N  N5641  1  0.496300  0.359000  0.606100  1.0
  N  N5642  1  0.003700  0.641000  0.106100  1.0
  N  N5643  1  0.503700  0.859000  0.893900  1.0
  N  N5644  1  0.996300  0.141000  0.393900  1.0
  N  N5645  1  0.551400  0.347300  0.583100  1.0
  N  N5646  1  0.948600  0.652700  0.083100  1.0
  N  N5647  1  0.448600  0.847300  0.916900  1.0
  N  N5648  1  0.051400  0.152700  0.416900  1.0
  N  N5649  1  0.245400  0.441800  0.713600  1.0
  N  N5650  1  0.254600  0.558200  0.213600  1.0
  N  N5651  1  0.754600  0.941800  0.786400  1.0
  N  N5652  1  0.745400  0.058200  0.286400  1.0
  N  N5653  1  0.207700  0.489700  0.705300  1.0
  N  N5654  1  0.292300  0.510300  0.205300  1.0
  N  N5655  1  0.792300  0.989700  0.794700  1.0
  N  N5656  1  0.707700  0.010300  0.294700  1.0
  N  N5657  1  0.343000  0.291200  0.675800  1.0
  N  N5658  1  0.157000  0.708800  0.175800  1.0
  N  N5659  1  0.657000  0.791200  0.824200  1.0
  N  N5660  1  0.843000  0.208800  0.324200  1.0
  N  N5661  1  0.398700  0.297800  0.696000  1.0
  N  N5662  1  0.101300  0.702200  0.196000  1.0
  N  N5663  1  0.601300  0.797800  0.804000  1.0
  N  N5664  1  0.898700  0.202200  0.304000  1.0
  N  N5665  1  0.360400  0.348500  0.671400  1.0
  N  N5666  1  0.139600  0.651500  0.171400  1.0
  N  N5667  1  0.639600  0.848500  0.828600  1.0
  N  N5668  1  0.860400  0.151500  0.328600  1.0
  N  N5669  1  0.339300  0.316600  0.722400  1.0
  N  N5670  1  0.160700  0.683400  0.222400  1.0
  N  N5671  1  0.660700  0.816600  0.777600  1.0
  N  N5672  1  0.839300  0.183400  0.277600  1.0
  N  N5673  1  0.571400  0.413700  0.585100  1.0
  N  N5674  1  0.928600  0.586300  0.085100  1.0
  N  N5675  1  0.428600  0.913700  0.914900  1.0
  N  N5676  1  0.071400  0.086300  0.414900  1.0
  N  N5677  1  0.555200  0.386100  0.630500  1.0
  N  N5678  1  0.944800  0.613900  0.130500  1.0
  N  N5679  1  0.444800  0.886100  0.869500  1.0
  N  N5680  1  0.055200  0.113900  0.369500  1.0
  N  N5681  1  0.463900  0.230800  0.826300  1.0
  N  N5682  1  0.036100  0.769200  0.326300  1.0
  N  N5683  1  0.536100  0.730800  0.673700  1.0
  N  N5684  1  0.963900  0.269200  0.173700  1.0
  N  N5685  1  0.434400  0.176400  0.826500  1.0
  N  N5686  1  0.065600  0.823600  0.326500  1.0
  N  N5687  1  0.565600  0.676400  0.673500  1.0
  N  N5688  1  0.934400  0.323600  0.173500  1.0
  N  N5689  1  0.568200  0.501000  0.860800  1.0
  N  N5690  1  0.931800  0.499000  0.360800  1.0
  N  N5691  1  0.431800  0.001000  0.639200  1.0
  N  N5692  1  0.068200  0.999000  0.139200  1.0
  N  N5693  1  0.571200  0.535300  0.904500  1.0
  N  N5694  1  0.928800  0.464700  0.404500  1.0
  N  N5695  1  0.428800  0.035300  0.595500  1.0
  N  N5696  1  0.071200  0.964700  0.095500  1.0
  N  N5697  1  0.593200  0.348900  0.776300  1.0
  N  N5698  1  0.906800  0.651100  0.276300  1.0
  N  N5699  1  0.406800  0.848900  0.723700  1.0
  N  N5700  1  0.093200  0.151100  0.223700  1.0
  N  N5701  1  0.540200  0.335200  0.753600  1.0
  N  N5702  1  0.959800  0.664800  0.253600  1.0
  N  N5703  1  0.459800  0.835200  0.746400  1.0
  N  N5704  1  0.040200  0.164800  0.246400  1.0
  N  N5705  1  0.546600  0.361700  0.808400  1.0
  N  N5706  1  0.953400  0.638300  0.308400  1.0
  N  N5707  1  0.453400  0.861700  0.691600  1.0
  N  N5708  1  0.046600  0.138300  0.191600  1.0
  N  N5709  1  0.566400  0.399400  0.760400  1.0
  N  N5710  1  0.933600  0.600600  0.260400  1.0
  N  N5711  1  0.433600  0.899400  0.739600  1.0
  N  N5712  1  0.066400  0.100600  0.239600  1.0
  N  N5713  1  0.306700  0.096800  0.223300  1.0
  N  N5714  1  0.193300  0.903200  0.723300  1.0
  N  N5715  1  0.693300  0.596800  0.276700  1.0
  N  N5716  1  0.806700  0.403200  0.776700  1.0
  N  N5717  1  0.359600  0.103600  0.250900  1.0
  N  N5718  1  0.140400  0.896400  0.750900  1.0
  N  N5719  1  0.640400  0.603600  0.249100  1.0
  N  N5720  1  0.859600  0.396400  0.749100  1.0
  N  N5721  1  0.582300  0.115400  0.401300  1.0
  N  N5722  1  0.917700  0.884600  0.901300  1.0
  N  N5723  1  0.417700  0.615400  0.098700  1.0
  N  N5724  1  0.082300  0.384600  0.598700  1.0
  N  N5725  1  0.592100  0.079200  0.443400  1.0
  N  N5726  1  0.907900  0.920800  0.943400  1.0
  N  N5727  1  0.407900  0.579200  0.056600  1.0
  N  N5728  1  0.092100  0.420800  0.556600  1.0
  N  N5729  1  0.564500  0.305000  0.224900  1.0
  N  N5730  1  0.935500  0.695000  0.724900  1.0
  N  N5731  1  0.435500  0.805000  0.275100  1.0
  N  N5732  1  0.064500  0.195000  0.775100  1.0
  N  N5733  1  0.608000  0.347800  0.217700  1.0
  N  N5734  1  0.892000  0.652200  0.717700  1.0
  N  N5735  1  0.392000  0.847800  0.282300  1.0
  N  N5736  1  0.108000  0.152200  0.782300  1.0
  N  N5737  1  0.535700  0.135600  0.253800  1.0
  N  N5738  1  0.964300  0.864400  0.753800  1.0
  N  N5739  1  0.464300  0.635600  0.246200  1.0
  N  N5740  1  0.035700  0.364400  0.746200  1.0
  N  N5741  1  0.502400  0.130400  0.296800  1.0
  N  N5742  1  0.997600  0.869600  0.796800  1.0
  N  N5743  1  0.497600  0.630400  0.203200  1.0
  N  N5744  1  0.002400  0.369600  0.703200  1.0
  N  N5745  1  0.547300  0.182300  0.285500  1.0
  N  N5746  1  0.952700  0.817700  0.785500  1.0
  N  N5747  1  0.452700  0.682300  0.214500  1.0
  N  N5748  1  0.047300  0.317700  0.714500  1.0
  N  N5749  1  0.489500  0.174500  0.252100  1.0
  N  N5750  1  0.010500  0.825500  0.752100  1.0
  N  N5751  1  0.510500  0.674500  0.247900  1.0
  N  N5752  1  0.989500  0.325500  0.747900  1.0
  N  N5753  1  0.268100  0.089800  0.270900  1.0
  N  N5754  1  0.231900  0.910200  0.770900  1.0
  N  N5755  1  0.731900  0.589800  0.229100  1.0
  N  N5756  1  0.768100  0.410200  0.729100  1.0
  N  N5757  1  0.301500  0.141600  0.266200  1.0
  N  N5758  1  0.198500  0.858400  0.766200  1.0
  N  N5759  1  0.698500  0.641600  0.233800  1.0
  N  N5760  1  0.801500  0.358400  0.733800  1.0
  N  N5761  1  0.510700  0.348600  0.216000  1.0
  N  N5762  1  0.989300  0.651400  0.716000  1.0
  N  N5763  1  0.489300  0.848600  0.284000  1.0
  N  N5764  1  0.010700  0.151400  0.784000  1.0
  N  N5765  1  0.553900  0.343900  0.177700  1.0
  N  N5766  1  0.946100  0.656100  0.677700  1.0
  N  N5767  1  0.446100  0.843900  0.322300  1.0
  N  N5768  1  0.053900  0.156100  0.822300  1.0
  N  N5769  1  0.342800  0.381900  0.418000  1.0
  N  N5770  1  0.157200  0.618100  0.918000  1.0
  N  N5771  1  0.657200  0.881900  0.082000  1.0
  N  N5772  1  0.842800  0.118100  0.582000  1.0
  N  N5773  1  0.347100  0.423900  0.457200  1.0
  N  N5774  1  0.152900  0.576100  0.957200  1.0
  N  N5775  1  0.652900  0.923900  0.042800  1.0
  N  N5776  1  0.847100  0.076100  0.542800  1.0
  N  N5777  1  0.334800  0.326100  0.267300  1.0
  N  N5778  1  0.165200  0.673900  0.767300  1.0
  N  N5779  1  0.665200  0.826100  0.232700  1.0
  N  N5780  1  0.834800  0.173900  0.732700  1.0
  N  N5781  1  0.374700  0.281500  0.260700  1.0
  N  N5782  1  0.125300  0.718500  0.760700  1.0
  N  N5783  1  0.625300  0.781500  0.239300  1.0
  N  N5784  1  0.874700  0.218500  0.739300  1.0
  N  N5785  1  0.385000  0.337800  0.294500  1.0
  N  N5786  1  0.115000  0.662200  0.794500  1.0
  N  N5787  1  0.615000  0.837800  0.205500  1.0
  N  N5788  1  0.885000  0.162200  0.705500  1.0
  N  N5789  1  0.335600  0.291300  0.309500  1.0
  N  N5790  1  0.164400  0.708700  0.809500  1.0
  N  N5791  1  0.664400  0.791300  0.190500  1.0
  N  N5792  1  0.835600  0.208700  0.690500  1.0
  N  N5793  1  0.645700  0.121300  0.424300  1.0
  N  N5794  1  0.854300  0.878700  0.924300  1.0
  N  N5795  1  0.354300  0.621300  0.075700  1.0
  N  N5796  1  0.145700  0.378700  0.575700  1.0
  N  N5797  1  0.609500  0.171200  0.430300  1.0
  N  N5798  1  0.890500  0.828800  0.930300  1.0
  N  N5799  1  0.390500  0.671200  0.069700  1.0
  N  N5800  1  0.109500  0.328800  0.569700  1.0
  N  N5801  1  0.384500  0.367300  0.465500  1.0
  N  N5802  1  0.115500  0.632700  0.965500  1.0
  N  N5803  1  0.615500  0.867300  0.034500  1.0
  N  N5804  1  0.884500  0.132700  0.534500  1.0
  N  N5805  1  0.336900  0.376500  0.499200  1.0
  N  N5806  1  0.163100  0.623500  0.999200  1.0
  N  N5807  1  0.663100  0.876500  0.000800  1.0
  N  N5808  1  0.836900  0.123500  0.500800  1.0
  N  N5809  1  0.562000  0.364700  0.256600  1.0
  N  N5810  1  0.938000  0.635300  0.756600  1.0
  N  N5811  1  0.438000  0.864700  0.243400  1.0
  N  N5812  1  0.062000  0.135300  0.743400  1.0
  N  N5813  1  0.558000  0.398300  0.212800  1.0
  N  N5814  1  0.942000  0.601700  0.712800  1.0
  N  N5815  1  0.442000  0.898300  0.287200  1.0
  N  N5816  1  0.058000  0.101700  0.787200  1.0
  N  N5817  1  0.566300  0.351200  0.413300  1.0
  N  N5818  1  0.933700  0.648800  0.913300  1.0
  N  N5819  1  0.433700  0.851200  0.086700  1.0
  N  N5820  1  0.066300  0.148800  0.586700  1.0
  N  N5821  1  0.529900  0.307100  0.431200  1.0
  N  N5822  1  0.970100  0.692900  0.931200  1.0
  N  N5823  1  0.470100  0.807100  0.068800  1.0
  N  N5824  1  0.029900  0.192900  0.568800  1.0
  N  N5825  1  0.513500  0.350800  0.387700  1.0
  N  N5826  1  0.986500  0.649200  0.887700  1.0
  N  N5827  1  0.486500  0.850800  0.112300  1.0
  N  N5828  1  0.013500  0.149200  0.612300  1.0
  N  N5829  1  0.566600  0.305200  0.380100  1.0
  N  N5830  1  0.933400  0.694800  0.880100  1.0
  N  N5831  1  0.433400  0.805200  0.119900  1.0
  N  N5832  1  0.066600  0.194800  0.619900  1.0
  N  N5833  1  0.325400  0.048700  0.263800  1.0
  N  N5834  1  0.174600  0.951300  0.763800  1.0
  N  N5835  1  0.674600  0.548700  0.236200  1.0
  N  N5836  1  0.825400  0.451300  0.736200  1.0
  N  N5837  1  0.327500  0.091000  0.302700  1.0
  N  N5838  1  0.172500  0.909000  0.802700  1.0
  N  N5839  1  0.672500  0.591000  0.197300  1.0
  N  N5840  1  0.827500  0.409000  0.697300  1.0
  N  N5841  1  0.323200  0.331400  0.457700  1.0
  N  N5842  1  0.176800  0.668600  0.957700  1.0
  N  N5843  1  0.676800  0.831400  0.042300  1.0
  N  N5844  1  0.823200  0.168600  0.542300  1.0
  N  N5845  1  0.290700  0.384300  0.454000  1.0
  N  N5846  1  0.209300  0.615700  0.954000  1.0
  N  N5847  1  0.709300  0.884300  0.046000  1.0
  N  N5848  1  0.790700  0.115700  0.546000  1.0
  N  N5849  1  0.556400  0.134400  0.456100  1.0
  N  N5850  1  0.943600  0.865600  0.956100  1.0
  N  N5851  1  0.443600  0.634400  0.043900  1.0
  N  N5852  1  0.056400  0.365600  0.543900  1.0
  N  N5853  1  0.613900  0.133600  0.476400  1.0
  N  N5854  1  0.886100  0.866400  0.976400  1.0
  N  N5855  1  0.386100  0.633600  0.023600  1.0
  N  N5856  1  0.113900  0.366400  0.523600  1.0
  N  N5857  1  0.360100  0.140100  0.453600  1.0
  N  N5858  1  0.139900  0.859900  0.953600  1.0
  N  N5859  1  0.639900  0.640100  0.046400  1.0
  N  N5860  1  0.860100  0.359900  0.546400  1.0
  N  N5861  1  0.344900  0.174100  0.413100  1.0
  N  N5862  1  0.155100  0.825900  0.913100  1.0
  N  N5863  1  0.655100  0.674100  0.086900  1.0
  N  N5864  1  0.844900  0.325900  0.586900  1.0
  N  N5865  1  0.393800  0.190300  0.454800  1.0
  N  N5866  1  0.106200  0.809700  0.954800  1.0
  N  N5867  1  0.606200  0.690300  0.045200  1.0
  N  N5868  1  0.893800  0.309700  0.545200  1.0
  N  N5869  1  0.403800  0.137200  0.417200  1.0
  N  N5870  1  0.096200  0.862800  0.917200  1.0
  N  N5871  1  0.596200  0.637200  0.082800  1.0
  N  N5872  1  0.903800  0.362800  0.582800  1.0
  N  N5873  1  0.438200  0.507200  0.570100  1.0
  N  N5874  1  0.061800  0.492800  0.070100  1.0
  N  N5875  1  0.561800  0.007200  0.929900  1.0
  N  N5876  1  0.938200  0.992800  0.429900  1.0
  N  N5877  1  0.529000  0.474500  0.468100  1.0
  N  N5878  1  0.971000  0.525500  0.968100  1.0
  N  N5879  1  0.471000  0.974500  0.031900  1.0
  N  N5880  1  0.029000  0.025500  0.531900  1.0
  N  N5881  1  0.249500  0.538800  0.402100  1.0
  N  N5882  1  0.250500  0.461200  0.902100  1.0
  N  N5883  1  0.750500  0.038800  0.097900  1.0
  N  N5884  1  0.749500  0.961200  0.597900  1.0
  N  N5885  1  0.947200  0.460300  0.620900  1.0
  N  N5886  1  0.552800  0.539700  0.120900  1.0
  N  N5887  1  0.052800  0.960300  0.879100  1.0
  N  N5888  1  0.447200  0.039700  0.379100  1.0
  N  N5889  1  0.915000  0.590200  0.514200  1.0
  N  N5890  1  0.585000  0.409800  0.014200  1.0
  N  N5891  1  0.085000  0.090200  0.985800  1.0
  N  N5892  1  0.415000  0.909800  0.485800  1.0
  N  N5893  1  0.801600  0.681300  0.605500  1.0
  N  N5894  1  0.698400  0.318700  0.105500  1.0
  N  N5895  1  0.198400  0.181300  0.894500  1.0
  N  N5896  1  0.301600  0.818700  0.394500  1.0
  N  N5897  1  0.735400  0.804700  0.703700  1.0
  N  N5898  1  0.764600  0.195300  0.203700  1.0
  N  N5899  1  0.264600  0.304700  0.796300  1.0
  N  N5900  1  0.235400  0.695300  0.296300  1.0
  N  N5901  1  0.283400  0.468300  0.509900  1.0
  N  N5902  1  0.216600  0.531700  0.009900  1.0
  N  N5903  1  0.716600  0.968300  0.990100  1.0
  N  N5904  1  0.783400  0.031700  0.490100  1.0
  N  N5905  1  0.172200  0.555400  0.473000  1.0
  N  N5906  1  0.327800  0.444600  0.973000  1.0
  N  N5907  1  0.827800  0.055400  0.027000  1.0
  N  N5908  1  0.672200  0.944600  0.527000  1.0
  N  N5909  1  0.179200  0.390000  0.669000  1.0
  N  N5910  1  0.320800  0.610000  0.169000  1.0
  N  N5911  1  0.820800  0.890000  0.831000  1.0
  N  N5912  1  0.679200  0.110000  0.331000  1.0
  N  N5913  1  0.832600  0.504600  0.343000  1.0
  N  N5914  1  0.667400  0.495400  0.843000  1.0
  N  N5915  1  0.167400  0.004600  0.157000  1.0
  N  N5916  1  0.332600  0.995400  0.657000  1.0
  N  N5917  1  0.515400  0.624800  0.529800  1.0
  N  N5918  1  0.984600  0.375200  0.029800  1.0
  N  N5919  1  0.484600  0.124800  0.970200  1.0
  N  N5920  1  0.015400  0.875200  0.470200  1.0
  N  N5921  1  0.594700  0.541800  0.021700  1.0
  N  N5922  1  0.905300  0.458200  0.521700  1.0
  N  N5923  1  0.405300  0.041800  0.478300  1.0
  N  N5924  1  0.094700  0.958200  0.978300  1.0
  N  N5925  1  0.572100  0.198700  0.585800  1.0
  N  N5926  1  0.927900  0.801300  0.085800  1.0
  N  N5927  1  0.427900  0.698700  0.914200  1.0
  N  N5928  1  0.072100  0.301300  0.414200  1.0
  N  N5929  1  0.545900  0.650100  0.797400  1.0
  N  N5930  1  0.954100  0.349900  0.297400  1.0
  N  N5931  1  0.454100  0.150100  0.702600  1.0
  N  N5932  1  0.045900  0.849900  0.202600  1.0
  N  N5933  1  0.654300  0.245200  0.318300  0.25
  N  N5934  1  0.845700  0.754800  0.818300  0.25
  N  N5935  1  0.345700  0.745200  0.181700  0.25
  N  N5936  1  0.154300  0.254800  0.681700  0.25
  N  N5937  1  0.447800  0.083700  0.176600  0.311
  N  N5938  1  0.052200  0.916300  0.676600  0.311
  N  N5939  1  0.552200  0.583700  0.323400  0.311
  N  N5940  1  0.947800  0.416300  0.823400  0.311
  N  N5941  1  0.462300  0.280000  0.558200  0.365
  N  N5942  1  0.037700  0.720000  0.058200  0.365
  N  N5943  1  0.537700  0.780000  0.941800  0.365
  N  N5944  1  0.962300  0.220000  0.441800  0.365
  N  N5945  1  0.664000  0.619000  0.696000  0.39
  N  N5946  1  0.836000  0.381000  0.196000  0.39
  N  N5947  1  0.336000  0.119000  0.804000  0.39
  N  N5948  1  0.164000  0.881000  0.304000  0.39
  N  N5949  1  0.601200  0.497100  0.717800  0.411
  N  N5950  1  0.898800  0.502900  0.217800  0.411
  N  N5951  1  0.398800  0.997100  0.782200  0.411
  N  N5952  1  0.101200  0.002900  0.282200  0.411
  N  N5953  1  0.414600  0.550600  0.971100  0.456
  N  N5954  1  0.085400  0.449400  0.471100  0.456
  N  N5955  1  0.585400  0.050600  0.528900  0.456
  N  N5956  1  0.914600  0.949400  0.028900  0.456
  N  N5957  1  0.215100  0.088100  0.598200  0.5
  N  N5958  1  0.284900  0.911900  0.098200  0.5
  N  N5959  1  0.784900  0.588100  0.901800  0.5
  N  N5960  1  0.715100  0.411900  0.401800  0.5
  N  N5961  1  0.676500  0.224700  0.319100  0.5
  N  N5962  1  0.823500  0.775300  0.819100  0.5
  N  N5963  1  0.323500  0.724700  0.180900  0.5
  N  N5964  1  0.176500  0.275300  0.680900  0.5
  N  N5965  1  0.375000  0.544000  0.316000  0.5
  N  N5966  1  0.125000  0.456000  0.816000  0.5
  N  N5967  1  0.625000  0.044000  0.184000  0.5
  N  N5968  1  0.875000  0.956000  0.684000  0.5
  N  N5969  1  0.730000  0.221000  0.607000  0.5
  N  N5970  1  0.770000  0.779000  0.107000  0.5
  N  N5971  1  0.270000  0.721000  0.893000  0.5
  N  N5972  1  0.230000  0.279000  0.393000  0.5
  N  N5973  1  0.735000  0.306000  0.600700  0.5
  N  N5974  1  0.765000  0.694000  0.100700  0.5
  N  N5975  1  0.265000  0.806000  0.899300  0.5
  N  N5976  1  0.235000  0.194000  0.399300  0.5
  N  N5977  1  0.492200  0.452000  0.281100  0.5
  N  N5978  1  0.007800  0.548000  0.781100  0.5
  N  N5979  1  0.507800  0.952000  0.218900  0.5
  N  N5980  1  0.992200  0.048000  0.718900  0.5
  N  N5981  1  0.356600  0.936300  0.323300  0.5
  N  N5982  1  0.143400  0.063700  0.823300  0.5
  N  N5983  1  0.643400  0.436300  0.176700  0.5
  N  N5984  1  0.856600  0.563700  0.676700  0.5
  N  N5985  1  0.659000  0.360600  0.569000  0.5
  N  N5986  1  0.841000  0.639400  0.069000  0.5
  N  N5987  1  0.341000  0.860600  0.931000  0.5
  N  N5988  1  0.159000  0.139400  0.431000  0.5
  N  N5989  1  0.423000  0.610000  0.854000  0.5
  N  N5990  1  0.077000  0.390000  0.354000  0.5
  N  N5991  1  0.577000  0.110000  0.646000  0.5
  N  N5992  1  0.923000  0.890000  0.146000  0.5
  N  N5993  1  0.385000  0.591000  0.871600  0.5
  N  N5994  1  0.115000  0.409000  0.371600  0.5
  N  N5995  1  0.615000  0.091000  0.628400  0.5
  N  N5996  1  0.885000  0.909000  0.128400  0.5
  N  N5997  1  0.595000  0.355000  0.506600  0.5
  N  N5998  1  0.905000  0.645000  0.006600  0.5
  N  N5999  1  0.405000  0.855000  0.993400  0.5
  N  N6000  1  0.095000  0.145000  0.493400  0.5
  N  N6001  1  0.430400  0.541600  0.967600  0.544
  N  N6002  1  0.069600  0.458400  0.467600  0.544
  N  N6003  1  0.569600  0.041600  0.532400  0.544
  N  N6004  1  0.930400  0.958400  0.032400  0.544
  N  N6005  1  0.624000  0.506700  0.700500  0.589
  N  N6006  1  0.876000  0.493300  0.200500  0.589
  N  N6007  1  0.376000  0.006700  0.799500  0.589
  N  N6008  1  0.124000  0.993300  0.299500  0.589
  N  N6009  1  0.577300  0.608100  0.608300  0.61
  N  N6010  1  0.922700  0.391900  0.108300  0.61
  N  N6011  1  0.422700  0.108100  0.891700  0.61
  N  N6012  1  0.077300  0.891900  0.391700  0.61
  N  N6013  1  0.451900  0.291300  0.569900  0.635
  N  N6014  1  0.048100  0.708700  0.069900  0.635
  N  N6015  1  0.548100  0.791300  0.930100  0.635
  N  N6016  1  0.951900  0.208700  0.430100  0.635
  N  N6017  1  0.481200  0.042100  0.192500  0.689
  N  N6018  1  0.018800  0.957900  0.692500  0.689
  N  N6019  1  0.518800  0.542100  0.307500  0.689
  N  N6020  1  0.981200  0.457900  0.807500  0.689
  N  N6021  1  0.486800  0.717100  0.505500  0.78
  N  N6022  1  0.013200  0.282900  0.005500  0.78
  N  N6023  1  0.513200  0.217100  0.994500  0.78
  N  N6024  1  0.986800  0.782900  0.494500  0.78
  N  N6025  1  0.608000  0.606200  0.444200  0.2
  N  N6026  1  0.892000  0.393800  0.944200  0.2
  N  N6027  1  0.392000  0.106200  0.055800  0.2
  N  N6028  1  0.108000  0.893800  0.555800  0.2
  N  N6029  1  0.509000  0.730000  0.481000  0.22
  N  N6030  1  0.991000  0.270000  0.981000  0.22
  N  N6031  1  0.491000  0.230000  0.019000  0.22
  N  N6032  1  0.009000  0.770000  0.519000  0.22
  O  O6033  1  0.428500  0.117000  0.135300  0.311
  O  O6034  1  0.071500  0.883000  0.635300  0.311
  O  O6035  1  0.571500  0.617000  0.364700  0.311
  O  O6036  1  0.928500  0.383000  0.864700  0.311
  O  O6037  1  0.443000  0.047000  0.218400  0.311
  O  O6038  1  0.057000  0.953000  0.718400  0.311
  O  O6039  1  0.557000  0.547000  0.281600  0.311
  O  O6040  1  0.943000  0.453000  0.781600  0.311
  O  O6041  1  0.496600  0.073200  0.208000  0.311
  O  O6042  1  0.003400  0.926800  0.708000  0.311
  O  O6043  1  0.503400  0.573200  0.292000  0.311
  O  O6044  1  0.996600  0.426800  0.792000  0.311
  O  O6045  1  0.487700  0.116000  0.147900  0.311
  O  O6046  1  0.012300  0.884000  0.647900  0.311
  O  O6047  1  0.512300  0.616000  0.352100  0.311
  O  O6048  1  0.987700  0.384000  0.852100  0.311
  O  O6049  1  0.579400  0.766300  0.313700  0.336
  O  O6050  1  0.920600  0.233700  0.813700  0.336
  O  O6051  1  0.420600  0.266300  0.186300  0.336
  O  O6052  1  0.079400  0.733700  0.686300  0.336
  O  O6053  1  0.587000  0.781000  0.369000  0.336
  O  O6054  1  0.913000  0.219000  0.869000  0.336
  O  O6055  1  0.413000  0.281000  0.131000  0.336
  O  O6056  1  0.087000  0.719000  0.631000  0.336
  O  O6057  1  0.524000  0.761000  0.345000  0.336
  O  O6058  1  0.976000  0.239000  0.845000  0.336
  O  O6059  1  0.476000  0.261000  0.155000  0.336
  O  O6060  1  0.024000  0.739000  0.655000  0.336
  O  O6061  1  0.563000  0.820000  0.336000  0.336
  O  O6062  1  0.937000  0.180000  0.836000  0.336
  O  O6063  1  0.437000  0.320000  0.164000  0.336
  O  O6064  1  0.063000  0.680000  0.664000  0.336
  O  O6065  1  0.678000  0.583000  0.948100  0.34
  O  O6066  1  0.822000  0.417000  0.448100  0.34
  O  O6067  1  0.322000  0.083000  0.551900  0.34
  O  O6068  1  0.178000  0.917000  0.051900  0.34
  O  O6069  1  0.468800  0.521200  0.612900  1.0
  O  O6070  1  0.031200  0.478800  0.112900  1.0
  O  O6071  1  0.531200  0.021200  0.887100  1.0
  O  O6072  1  0.968800  0.978800  0.387100  1.0
  O  O6073  1  0.415900  0.545600  0.607200  1.0
  O  O6074  1  0.084100  0.454400  0.107200  1.0
  O  O6075  1  0.584100  0.045600  0.892800  1.0
  O  O6076  1  0.915900  0.954400  0.392800  1.0
  O  O6077  1  0.382300  0.526800  0.555500  1.0
  O  O6078  1  0.117700  0.473200  0.055500  1.0
  O  O6079  1  0.617700  0.026800  0.944500  1.0
  O  O6080  1  0.882300  0.973200  0.444500  1.0
  O  O6081  1  0.412800  0.486500  0.528700  1.0
  O  O6082  1  0.087200  0.513500  0.028700  1.0
  O  O6083  1  0.587200  0.986500  0.971300  1.0
  O  O6084  1  0.912800  0.013500  0.471300  1.0
  O  O6085  1  0.569400  0.450200  0.500300  1.0
  O  O6086  1  0.930600  0.549800  0.000300  1.0
  O  O6087  1  0.430600  0.950200  0.999700  1.0
  O  O6088  1  0.069400  0.049800  0.499700  1.0
  O  O6089  1  0.574300  0.431600  0.456100  1.0
  O  O6090  1  0.925700  0.568400  0.956100  1.0
  O  O6091  1  0.425700  0.931600  0.043900  1.0
  O  O6092  1  0.074300  0.068400  0.543900  1.0
  O  O6093  1  0.501000  0.428900  0.444200  1.0
  O  O6094  1  0.999000  0.571100  0.944200  1.0
  O  O6095  1  0.499000  0.928900  0.055800  1.0
  O  O6096  1  0.001000  0.071100  0.555800  1.0
  O  O6097  1  0.473000  0.480800  0.453900  1.0
  O  O6098  1  0.027000  0.519200  0.953900  1.0
  O  O6099  1  0.527000  0.980800  0.046100  1.0
  O  O6100  1  0.973000  0.019200  0.546100  1.0
  O  O6101  1  0.251900  0.587000  0.430600  1.0
  O  O6102  1  0.248100  0.413000  0.930600  1.0
  O  O6103  1  0.748100  0.087000  0.069400  1.0
  O  O6104  1  0.751900  0.913000  0.569400  1.0
  O  O6105  1  0.304400  0.558400  0.421100  1.0
  O  O6106  1  0.195600  0.441600  0.921100  1.0
  O  O6107  1  0.695600  0.058400  0.078900  1.0
  O  O6108  1  0.804400  0.941600  0.578900  1.0
  O  O6109  1  0.274100  0.496700  0.432600  1.0
  O  O6110  1  0.225900  0.503300  0.932600  1.0
  O  O6111  1  0.725900  0.996700  0.067400  1.0
  O  O6112  1  0.774100  0.003300  0.567400  1.0
  O  O6113  1  0.227800  0.484700  0.401400  1.0
  O  O6114  1  0.272200  0.515300  0.901400  1.0
  O  O6115  1  0.772200  0.984700  0.098600  1.0
  O  O6116  1  0.727800  0.015300  0.598600  1.0
  O  O6117  1  0.901000  0.432200  0.637900  1.0
  O  O6118  1  0.599000  0.567800  0.137900  1.0
  O  O6119  1  0.099000  0.932200  0.862100  1.0
  O  O6120  1  0.401000  0.067800  0.362100  1.0
  O  O6121  1  0.919200  0.479100  0.665400  1.0
  O  O6122  1  0.580800  0.520900  0.165400  1.0
  O  O6123  1  0.080800  0.979100  0.834600  1.0
  O  O6124  1  0.419200  0.020900  0.334600  1.0
  O  O6125  1  0.971300  0.517300  0.632000  1.0
  O  O6126  1  0.528700  0.482700  0.132000  1.0
  O  O6127  1  0.028700  0.017300  0.868000  1.0
  O  O6128  1  0.471300  0.982700  0.368000  1.0
  O  O6129  1  0.998800  0.482900  0.597300  1.0
  O  O6130  1  0.501200  0.517100  0.097300  1.0
  O  O6131  1  0.001200  0.982900  0.902700  1.0
  O  O6132  1  0.498800  0.017100  0.402700  1.0
  O  O6133  1  0.889000  0.556000  0.481400  1.0
  O  O6134  1  0.611000  0.444000  0.981400  1.0
  O  O6135  1  0.111000  0.056000  0.018600  1.0
  O  O6136  1  0.389000  0.944000  0.518600  1.0
  O  O6137  1  0.943000  0.543100  0.492900  1.0
  O  O6138  1  0.557000  0.456900  0.992900  1.0
  O  O6139  1  0.057000  0.043100  0.007100  1.0
  O  O6140  1  0.443000  0.956900  0.507100  1.0
  O  O6141  1  0.972500  0.588100  0.531000  1.0
  O  O6142  1  0.527500  0.411900  0.031000  1.0
  O  O6143  1  0.027500  0.088100  0.969000  1.0
  O  O6144  1  0.472500  0.911900  0.469000  1.0
  O  O6145  1  0.935600  0.630400  0.549100  1.0
  O  O6146  1  0.564400  0.369600  0.049100  1.0
  O  O6147  1  0.064400  0.130400  0.950900  1.0
  O  O6148  1  0.435600  0.869600  0.450900  1.0
  O  O6149  1  0.747900  0.661500  0.592800  1.0
  O  O6150  1  0.752100  0.338500  0.092800  1.0
  O  O6151  1  0.252100  0.161500  0.907200  1.0
  O  O6152  1  0.247900  0.838500  0.407200  1.0
  O  O6153  1  0.792000  0.620600  0.599300  1.0
  O  O6154  1  0.708000  0.379400  0.099300  1.0
  O  O6155  1  0.208000  0.120600  0.900700  1.0
  O  O6156  1  0.292000  0.879400  0.400700  1.0
  O  O6157  1  0.849100  0.647500  0.622700  1.0
  O  O6158  1  0.650900  0.352500  0.122700  1.0
  O  O6159  1  0.150900  0.147500  0.877300  1.0
  O  O6160  1  0.349100  0.852500  0.377300  1.0
  O  O6161  1  0.854300  0.707400  0.614200  1.0
  O  O6162  1  0.645700  0.292600  0.114200  1.0
  O  O6163  1  0.145700  0.207400  0.885800  1.0
  O  O6164  1  0.354300  0.792600  0.385800  1.0
  O  O6165  1  0.715900  0.765100  0.665800  1.0
  O  O6166  1  0.784100  0.234900  0.165800  1.0
  O  O6167  1  0.284100  0.265100  0.834200  1.0
  O  O6168  1  0.215900  0.734900  0.334200  1.0
  O  O6169  1  0.686700  0.771200  0.710300  1.0
  O  O6170  1  0.813300  0.228800  0.210300  1.0
  O  O6171  1  0.313300  0.271200  0.789700  1.0
  O  O6172  1  0.186700  0.728800  0.289700  1.0
  O  O6173  1  0.729500  0.835800  0.659600  1.0
  O  O6174  1  0.770500  0.164200  0.159600  1.0
  O  O6175  1  0.270500  0.335800  0.840400  1.0
  O  O6176  1  0.229500  0.664200  0.340400  1.0
  O  O6177  1  0.756300  0.858700  0.700000  1.0
  O  O6178  1  0.743700  0.141300  0.200000  1.0
  O  O6179  1  0.243700  0.358700  0.800000  1.0
  O  O6180  1  0.256300  0.641300  0.300000  1.0
  O  O6181  1  0.485400  0.630600  0.647200  1.0
  O  O6182  1  0.014600  0.369400  0.147200  1.0
  O  O6183  1  0.514600  0.130600  0.852800  1.0
  O  O6184  1  0.985400  0.869400  0.352800  1.0
  O  O6185  1  0.467600  0.695900  0.649800  1.0
  O  O6186  1  0.032400  0.304100  0.149800  1.0
  O  O6187  1  0.532400  0.195900  0.850200  1.0
  O  O6188  1  0.967600  0.804100  0.350200  1.0
  O  O6189  1  0.431000  0.651100  0.620800  1.0
  O  O6190  1  0.069000  0.348900  0.120800  1.0
  O  O6191  1  0.569000  0.151100  0.879200  1.0
  O  O6192  1  0.931000  0.848900  0.379200  1.0
  O  O6193  1  0.433400  0.645400  0.678500  1.0
  O  O6194  1  0.066600  0.354600  0.178500  1.0
  O  O6195  1  0.566600  0.145400  0.821500  1.0
  O  O6196  1  0.933400  0.854600  0.321500  1.0
  O  O6197  1  0.374300  0.415400  0.341500  1.0
  O  O6198  1  0.125700  0.584600  0.841500  1.0
  O  O6199  1  0.625700  0.915400  0.158500  1.0
  O  O6200  1  0.874300  0.084600  0.658500  1.0
  O  O6201  1  0.442000  0.408400  0.342200  1.0
  O  O6202  1  0.058000  0.591600  0.842200  1.0
  O  O6203  1  0.558000  0.908400  0.157800  1.0
  O  O6204  1  0.942000  0.091600  0.657800  1.0
  O  O6205  1  0.180000  0.587400  0.720600  1.0
  O  O6206  1  0.320000  0.412600  0.220600  1.0
  O  O6207  1  0.820000  0.087400  0.779400  1.0
  O  O6208  1  0.680000  0.912600  0.279400  1.0
  O  O6209  1  0.226300  0.636900  0.727600  1.0
  O  O6210  1  0.273700  0.363100  0.227600  1.0
  O  O6211  1  0.773700  0.136900  0.772400  1.0
  O  O6212  1  0.726300  0.863100  0.272400  1.0
  O  O6213  1  0.246200  0.577200  0.707400  1.0
  O  O6214  1  0.253800  0.422800  0.207400  1.0
  O  O6215  1  0.753800  0.077200  0.792600  1.0
  O  O6216  1  0.746200  0.922800  0.292600  1.0
  O  O6217  1  0.207400  0.616600  0.674700  1.0
  O  O6218  1  0.292600  0.383400  0.174700  1.0
  O  O6219  1  0.792600  0.116600  0.825300  1.0
  O  O6220  1  0.707400  0.883400  0.325300  1.0
  O  O6221  1  0.739800  0.331100  0.778800  1.0
  O  O6222  1  0.760200  0.668900  0.278800  1.0
  O  O6223  1  0.260200  0.831100  0.721200  1.0
  O  O6224  1  0.239800  0.168900  0.221200  1.0
  O  O6225  1  0.709400  0.345500  0.829900  1.0
  O  O6226  1  0.790600  0.654500  0.329900  1.0
  O  O6227  1  0.290600  0.845500  0.670100  1.0
  O  O6228  1  0.209400  0.154500  0.170100  1.0
  O  O6229  1  0.699500  0.386400  0.784500  1.0
  O  O6230  1  0.800500  0.613600  0.284500  1.0
  O  O6231  1  0.300500  0.886400  0.715500  1.0
  O  O6232  1  0.199500  0.113600  0.215500  1.0
  O  O6233  1  0.673700  0.324200  0.783900  1.0
  O  O6234  1  0.826300  0.675800  0.283900  1.0
  O  O6235  1  0.326300  0.824200  0.716100  1.0
  O  O6236  1  0.173700  0.175800  0.216100  1.0
  O  O6237  1  0.337600  0.614600  0.817100  1.0
  O  O6238  1  0.162400  0.385400  0.317100  1.0
  O  O6239  1  0.662400  0.114600  0.682900  1.0
  O  O6240  1  0.837600  0.885400  0.182900  1.0
  O  O6241  1  0.359200  0.552400  0.804100  1.0
  O  O6242  1  0.140800  0.447600  0.304100  1.0
  O  O6243  1  0.640800  0.052400  0.695900  1.0
  O  O6244  1  0.859200  0.947600  0.195900  1.0
  O  O6245  1  0.291700  0.568200  0.801400  1.0
  O  O6246  1  0.208300  0.431800  0.301400  1.0
  O  O6247  1  0.708300  0.068200  0.698600  1.0
  O  O6248  1  0.791700  0.931800  0.198600  1.0
  O  O6249  1  0.336300  0.592000  0.761300  1.0
  O  O6250  1  0.163700  0.408000  0.261300  1.0
  O  O6251  1  0.663700  0.092000  0.738700  1.0
  O  O6252  1  0.836300  0.908000  0.238700  1.0
  O  O6253  1  0.567200  0.845200  0.561500  1.0
  O  O6254  1  0.932800  0.154800  0.061500  1.0
  O  O6255  1  0.432800  0.345200  0.938500  1.0
  O  O6256  1  0.067200  0.654800  0.438500  1.0
  O  O6257  1  0.518300  0.802600  0.582500  1.0
  O  O6258  1  0.981700  0.197400  0.082500  1.0
  O  O6259  1  0.481700  0.302600  0.917500  1.0
  O  O6260  1  0.018300  0.697400  0.417500  1.0
  O  O6261  1  0.506000  0.842500  0.538700  1.0
  O  O6262  1  0.994000  0.157500  0.038700  1.0
  O  O6263  1  0.494000  0.342500  0.961300  1.0
  O  O6264  1  0.006000  0.657500  0.461300  1.0
  O  O6265  1  0.734600  0.321200  0.678700  1.0
  O  O6266  1  0.765400  0.678800  0.178700  1.0
  O  O6267  1  0.265400  0.821200  0.821300  1.0
  O  O6268  1  0.234600  0.178800  0.321300  1.0
  O  O6269  1  0.747200  0.265800  0.709700  1.0
  O  O6270  1  0.752800  0.734200  0.209700  1.0
  O  O6271  1  0.252800  0.765800  0.790300  1.0
  O  O6272  1  0.247200  0.234200  0.290300  1.0
  O  O6273  1  0.775500  0.271300  0.658700  1.0
  O  O6274  1  0.724500  0.728700  0.158700  1.0
  O  O6275  1  0.224500  0.771300  0.841300  1.0
  O  O6276  1  0.275500  0.228700  0.341300  1.0
  O  O6277  1  0.707900  0.260100  0.665200  1.0
  O  O6278  1  0.792100  0.739900  0.165200  1.0
  O  O6279  1  0.292100  0.760100  0.834800  1.0
  O  O6280  1  0.207900  0.239900  0.334800  1.0
  O  O6281  1  0.275100  0.428800  0.586600  1.0
  O  O6282  1  0.224900  0.571200  0.086600  1.0
  O  O6283  1  0.724900  0.928800  0.913400  1.0
  O  O6284  1  0.775100  0.071200  0.413400  1.0
  O  O6285  1  0.271600  0.401300  0.640900  1.0
  O  O6286  1  0.228400  0.598700  0.140900  1.0
  O  O6287  1  0.728400  0.901300  0.859100  1.0
  O  O6288  1  0.771600  0.098700  0.359100  1.0
  O  O6289  1  0.332200  0.416800  0.617600  1.0
  O  O6290  1  0.167800  0.583200  0.117600  1.0
  O  O6291  1  0.667800  0.916800  0.882400  1.0
  O  O6292  1  0.832200  0.083200  0.382400  1.0
  O  O6293  1  0.289900  0.465700  0.632800  1.0
  O  O6294  1  0.210100  0.534300  0.132800  1.0
  O  O6295  1  0.710100  0.965700  0.867200  1.0
  O  O6296  1  0.789900  0.034300  0.367200  1.0
  O  O6297  1  0.493600  0.163500  0.516300  1.0
  O  O6298  1  0.006400  0.836500  0.016300  1.0
  O  O6299  1  0.506400  0.663500  0.983700  1.0
  O  O6300  1  0.993600  0.336500  0.483700  1.0
  O  O6301  1  0.944000  0.622000  0.388000  0.153
  O  O6302  1  0.556000  0.378000  0.888000  0.153
  O  O6303  1  0.056000  0.122000  0.112000  0.153
  O  O6304  1  0.444000  0.878000  0.612000  0.153
  O  O6305  1  0.894000  0.584000  0.402000  0.153
  O  O6306  1  0.606000  0.416000  0.902000  0.153
  O  O6307  1  0.106000  0.084000  0.098000  0.153
  O  O6308  1  0.394000  0.916000  0.598000  0.153
  O  O6309  1  0.926000  0.629000  0.441000  0.153
  O  O6310  1  0.574000  0.371000  0.941000  0.153
  O  O6311  1  0.074000  0.129000  0.059000  0.153
  O  O6312  1  0.426000  0.871000  0.559000  0.153
  O  O6313  1  0.958000  0.574000  0.421000  0.153
  O  O6314  1  0.542000  0.426000  0.921000  0.153
  O  O6315  1  0.042000  0.074000  0.079000  0.153
  O  O6316  1  0.458000  0.926000  0.579000  0.153
  O  O6317  1  0.500000  0.712000  0.748200  0.182
  O  O6318  1  0.000000  0.288000  0.248200  0.182
  O  O6319  1  0.500000  0.212000  0.751800  0.182
  O  O6320  1  0.000000  0.788000  0.251800  0.182
  O  O6321  1  0.493000  0.694100  0.803300  0.182
  O  O6322  1  0.007000  0.305900  0.303300  0.182
  O  O6323  1  0.507000  0.194100  0.696700  0.182
  O  O6324  1  0.993000  0.805900  0.196700  0.182
  O  O6325  1  0.517000  0.754000  0.791000  0.182
  O  O6326  1  0.983000  0.246000  0.291000  0.182
  O  O6327  1  0.483000  0.254000  0.709000  0.182
  O  O6328  1  0.017000  0.746000  0.209000  0.182
  O  O6329  1  0.451300  0.739000  0.782000  0.182
  O  O6330  1  0.048700  0.261000  0.282000  0.182
  O  O6331  1  0.548700  0.239000  0.718000  0.182
  O  O6332  1  0.951300  0.761000  0.218000  0.182
  O  O6333  1  0.604000  0.617000  0.394300  0.2
  O  O6334  1  0.896000  0.383000  0.894300  0.2
  O  O6335  1  0.396000  0.117000  0.105700  0.2
  O  O6336  1  0.104000  0.883000  0.605700  0.2
  O  O6337  1  0.657000  0.620000  0.419000  0.2
  O  O6338  1  0.843000  0.380000  0.919000  0.2
  O  O6339  1  0.343000  0.120000  0.081000  0.2
  O  O6340  1  0.157000  0.880000  0.581000  0.2
  O  O6341  1  0.572000  0.631000  0.480000  0.2
  O  O6342  1  0.928000  0.369000  0.980000  0.2
  O  O6343  1  0.428000  0.131000  0.020000  0.2
  O  O6344  1  0.072000  0.869000  0.520000  0.2
  O  O6345  1  0.586000  0.662000  0.437300  0.2
  O  O6346  1  0.914000  0.338000  0.937300  0.2
  O  O6347  1  0.414000  0.162000  0.062700  0.2
  O  O6348  1  0.086000  0.838000  0.562700  0.2
  O  O6349  1  0.228000  0.302700  0.485500  0.2
  O  O6350  1  0.272000  0.697300  0.985500  0.2
  O  O6351  1  0.772000  0.802700  0.014500  0.2
  O  O6352  1  0.728000  0.197300  0.514500  0.2
  O  O6353  1  0.235600  0.355500  0.520100  0.2
  O  O6354  1  0.264400  0.644500  0.020100  0.2
  O  O6355  1  0.764400  0.855500  0.979900  0.2
  O  O6356  1  0.735600  0.144500  0.479900  0.2
  O  O6357  1  0.266100  0.298000  0.532000  0.2
  O  O6358  1  0.233900  0.702000  0.032000  0.2
  O  O6359  1  0.733900  0.798000  0.968000  0.2
  O  O6360  1  0.766100  0.202000  0.468000  0.2
  O  O6361  1  0.197900  0.302000  0.536200  0.2
  O  O6362  1  0.302100  0.698000  0.036200  0.2
  O  O6363  1  0.802100  0.802000  0.963800  0.2
  O  O6364  1  0.697900  0.198000  0.463800  0.2
  O  O6365  1  0.424300  0.617100  0.322200  0.2
  O  O6366  1  0.075700  0.382900  0.822200  0.2
  O  O6367  1  0.575700  0.117100  0.177800  0.2
  O  O6368  1  0.924300  0.882900  0.677800  0.2
  O  O6369  1  0.397000  0.666000  0.355800  0.2
  O  O6370  1  0.103000  0.334000  0.855800  0.2
  O  O6371  1  0.603000  0.166000  0.144200  0.2
  O  O6372  1  0.897000  0.834000  0.644200  0.2
  O  O6373  1  0.373100  0.656000  0.303700  0.2
  O  O6374  1  0.126900  0.344000  0.803700  0.2
  O  O6375  1  0.626900  0.156000  0.196300  0.2
  O  O6376  1  0.873100  0.844000  0.696300  0.2
  O  O6377  1  0.363000  0.610000  0.345000  0.2
  O  O6378  1  0.137000  0.390000  0.845000  0.2
  O  O6379  1  0.637000  0.110000  0.155000  0.2
  O  O6380  1  0.863000  0.890000  0.655000  0.2
  O  O6381  1  0.393000  0.739000  0.454000  0.2
  O  O6382  1  0.107000  0.261000  0.954000  0.2
  O  O6383  1  0.607000  0.239000  0.046000  0.2
  O  O6384  1  0.893000  0.761000  0.546000  0.2
  O  O6385  1  0.419000  0.744000  0.398000  0.2
  O  O6386  1  0.081000  0.256000  0.898000  0.2
  O  O6387  1  0.581000  0.244000  0.102000  0.2
  O  O6388  1  0.919000  0.756000  0.602000  0.2
  O  O6389  1  0.447000  0.751000  0.451000  0.2
  O  O6390  1  0.053000  0.249000  0.951000  0.2
  O  O6391  1  0.553000  0.251000  0.049000  0.2
  O  O6392  1  0.947000  0.749000  0.549000  0.2
  O  O6393  1  0.429000  0.799000  0.427000  0.2
  O  O6394  1  0.071000  0.201000  0.927000  0.2
  O  O6395  1  0.571000  0.299000  0.073000  0.2
  O  O6396  1  0.929000  0.701000  0.573000  0.2
  O  O6397  1  0.659000  0.254000  0.369800  0.25
  O  O6398  1  0.841000  0.746000  0.869800  0.25
  O  O6399  1  0.341000  0.754000  0.130200  0.25
  O  O6400  1  0.159000  0.246000  0.630200  0.25
  O  O6401  1  0.649000  0.192500  0.294000  0.25
  O  O6402  1  0.851000  0.807500  0.794000  0.25
  O  O6403  1  0.351000  0.692500  0.206000  0.25
  O  O6404  1  0.149000  0.307500  0.706000  0.25
  O  O6405  1  0.640000  0.244000  0.268600  0.25
  O  O6406  1  0.860000  0.756000  0.768600  0.25
  O  O6407  1  0.360000  0.744000  0.231400  0.25
  O  O6408  1  0.140000  0.256000  0.731400  0.25
  O  O6409  1  0.669000  0.199600  0.349000  0.25
  O  O6410  1  0.831000  0.800400  0.849000  0.25
  O  O6411  1  0.331000  0.699600  0.151000  0.25
  O  O6412  1  0.169000  0.300400  0.651000  0.25
  O  O6413  1  0.422000  0.220000  0.373000  0.264
  O  O6414  1  0.078000  0.780000  0.873000  0.264
  O  O6415  1  0.578000  0.720000  0.127000  0.264
  O  O6416  1  0.922000  0.280000  0.627000  0.264
  O  O6417  1  0.447000  0.228000  0.317700  0.264
  O  O6418  1  0.053000  0.772000  0.817700  0.264
  O  O6419  1  0.553000  0.728000  0.182300  0.264
  O  O6420  1  0.947000  0.272000  0.682300  0.264
  O  O6421  1  0.437000  0.277900  0.349000  0.264
  O  O6422  1  0.063000  0.722100  0.849000  0.264
  O  O6423  1  0.563000  0.777900  0.151000  0.264
  O  O6424  1  0.937000  0.222100  0.651000  0.264
  O  O6425  1  0.487200  0.232000  0.362000  0.264
  O  O6426  1  0.012800  0.768000  0.862000  0.264
  O  O6427  1  0.512800  0.732000  0.138000  0.264
  O  O6428  1  0.987200  0.268000  0.638000  0.264
  O  O6429  1  0.260000  0.746000  0.546000  0.269
  O  O6430  1  0.240000  0.254000  0.046000  0.269
  O  O6431  1  0.740000  0.246000  0.954000  0.269
  O  O6432  1  0.760000  0.754000  0.454000  0.269
  O  O6433  1  0.258000  0.694000  0.582000  0.269
  O  O6434  1  0.242000  0.306000  0.082000  0.269
  O  O6435  1  0.742000  0.194000  0.918000  0.269
  O  O6436  1  0.758000  0.806000  0.418000  0.269
  O  O6437  1  0.317900  0.716000  0.562000  0.269
  O  O6438  1  0.182100  0.284000  0.062000  0.269
  O  O6439  1  0.682100  0.216000  0.938000  0.269
  O  O6440  1  0.817900  0.784000  0.438000  0.269
  O  O6441  1  0.275000  0.684000  0.527200  0.269
  O  O6442  1  0.225000  0.316000  0.027200  0.269
  O  O6443  1  0.725000  0.184000  0.972800  0.269
  O  O6444  1  0.775000  0.816000  0.472800  0.269
  O  O6445  1  0.443000  0.198900  0.351000  0.277
  O  O6446  1  0.057000  0.801100  0.851000  0.277
  O  O6447  1  0.557000  0.698900  0.149000  0.277
  O  O6448  1  0.943000  0.301100  0.649000  0.277
  O  O6449  1  0.488400  0.248000  0.346000  0.277
  O  O6450  1  0.011600  0.752000  0.846000  0.277
  O  O6451  1  0.511600  0.748000  0.154000  0.277
  O  O6452  1  0.988400  0.252000  0.654000  0.277
  O  O6453  1  0.423500  0.260200  0.334400  0.277
  O  O6454  1  0.076500  0.739800  0.834400  0.277
  O  O6455  1  0.576500  0.760200  0.165600  0.277
  O  O6456  1  0.923500  0.239800  0.665600  0.277
  O  O6457  1  0.443000  0.249000  0.388800  0.277
  O  O6458  1  0.057000  0.751000  0.888800  0.277
  O  O6459  1  0.557000  0.749000  0.111200  0.277
  O  O6460  1  0.943000  0.251000  0.611200  0.277
  O  O6461  1  0.516700  0.856000  0.602700  0.31
  O  O6462  1  0.983300  0.144000  0.102700  0.31
  O  O6463  1  0.483300  0.356000  0.897300  0.31
  O  O6464  1  0.016700  0.644000  0.397300  0.31
  O  O6465  1  0.403000  0.439000  0.310100  0.33
  O  O6466  1  0.097000  0.561000  0.810100  0.33
  O  O6467  1  0.597000  0.939000  0.189900  0.33
  O  O6468  1  0.903000  0.061000  0.689900  0.33
  O  O6469  1  0.398000  0.439000  0.381300  0.33
  O  O6470  1  0.102000  0.561000  0.881300  0.33
  O  O6471  1  0.602000  0.939000  0.118700  0.33
  O  O6472  1  0.898000  0.061000  0.618700  0.33
  O  O6473  1  0.431700  0.696600  0.330700  0.35
  O  O6474  1  0.068300  0.303400  0.830700  0.35
  O  O6475  1  0.568300  0.196600  0.169300  0.35
  O  O6476  1  0.931700  0.803400  0.669300  0.35
  O  O6477  1  0.397800  0.649300  0.363300  0.35
  O  O6478  1  0.102200  0.350700  0.863300  0.35
  O  O6479  1  0.602200  0.149300  0.136700  0.35
  O  O6480  1  0.897800  0.850700  0.636700  0.35
  O  O6481  1  0.356500  0.618600  0.337300  0.35
  O  O6482  1  0.143500  0.381400  0.837300  0.35
  O  O6483  1  0.643500  0.118600  0.162700  0.35
  O  O6484  1  0.856500  0.881400  0.662700  0.35
  O  O6485  1  0.405200  0.712600  0.287200  0.35
  O  O6486  1  0.094800  0.287400  0.787200  0.35
  O  O6487  1  0.594800  0.212600  0.212800  0.35
  O  O6488  1  0.905200  0.787400  0.712800  0.35
  O  O6489  1  0.301000  0.724000  0.525600  0.358
  O  O6490  1  0.199000  0.276000  0.025600  0.358
  O  O6491  1  0.699000  0.224000  0.974400  0.358
  O  O6492  1  0.801000  0.776000  0.474400  0.358
  O  O6493  1  0.286000  0.739100  0.578200  0.358
  O  O6494  1  0.214000  0.260900  0.078200  0.358
  O  O6495  1  0.714000  0.239100  0.921800  0.358
  O  O6496  1  0.786000  0.760900  0.421800  0.358
  O  O6497  1  0.239200  0.711000  0.542300  0.358
  O  O6498  1  0.260800  0.289000  0.042300  0.358
  O  O6499  1  0.760800  0.211000  0.957700  0.358
  O  O6500  1  0.739200  0.789000  0.457700  0.358
  O  O6501  1  0.293000  0.674500  0.562800  0.358
  O  O6502  1  0.207000  0.325500  0.062800  0.358
  O  O6503  1  0.707000  0.174500  0.937200  0.358
  O  O6504  1  0.793000  0.825500  0.437200  0.358
  O  O6505  1  0.243600  0.732600  0.547600  0.372
  O  O6506  1  0.256400  0.267400  0.047600  0.372
  O  O6507  1  0.756400  0.232600  0.952400  0.372
  O  O6508  1  0.743600  0.767400  0.452400  0.372
  O  O6509  1  0.294000  0.719000  0.585000  0.372
  O  O6510  1  0.206000  0.281000  0.085000  0.372
  O  O6511  1  0.706000  0.219000  0.915000  0.372
  O  O6512  1  0.794000  0.781000  0.415000  0.372
  O  O6513  1  0.305000  0.724000  0.528600  0.372
  O  O6514  1  0.195000  0.276000  0.028600  0.372
  O  O6515  1  0.695000  0.224000  0.971400  0.372
  O  O6516  1  0.805000  0.776000  0.471400  0.372
  O  O6517  1  0.270000  0.671200  0.547000  0.372
  O  O6518  1  0.230000  0.328800  0.047000  0.372
  O  O6519  1  0.730000  0.171200  0.953000  0.372
  O  O6520  1  0.770000  0.828800  0.453000  0.372
  O  O6521  1  0.723900  0.170900  0.618900  0.4
  O  O6522  1  0.776100  0.829100  0.118900  0.4
  O  O6523  1  0.276100  0.670900  0.881100  0.4
  O  O6524  1  0.223900  0.329100  0.381100  0.4
  O  O6525  1  0.660600  0.187500  0.635300  0.4
  O  O6526  1  0.839400  0.812500  0.135300  0.4
  O  O6527  1  0.339400  0.687500  0.864700  0.4
  O  O6528  1  0.160600  0.312500  0.364700  0.4
  O  O6529  1  0.684000  0.205000  0.583000  0.4
  O  O6530  1  0.816000  0.795000  0.083000  0.4
  O  O6531  1  0.316000  0.705000  0.917000  0.4
  O  O6532  1  0.184000  0.295000  0.417000  0.4
  O  O6533  1  0.669800  0.141500  0.595300  0.4
  O  O6534  1  0.830200  0.858500  0.095300  0.4
  O  O6535  1  0.330200  0.641500  0.904700  0.4
  O  O6536  1  0.169800  0.358500  0.404700  0.4
  O  O6537  1  0.644400  0.462500  0.730500  0.411
  O  O6538  1  0.855600  0.537500  0.230500  0.411
  O  O6539  1  0.355600  0.962500  0.769500  0.411
  O  O6540  1  0.144400  0.037500  0.269500  0.411
  O  O6541  1  0.573500  0.534600  0.752100  0.411
  O  O6542  1  0.926500  0.465400  0.252100  0.411
  O  O6543  1  0.426500  0.034600  0.747900  0.411
  O  O6544  1  0.073500  0.965400  0.247900  0.411
  O  O6545  1  0.575900  0.544600  0.701600  0.411
  O  O6546  1  0.924100  0.455400  0.201600  0.411
  O  O6547  1  0.424100  0.044600  0.798400  0.411
  O  O6548  1  0.075900  0.955400  0.298400  0.411
  O  O6549  1  0.659000  0.504100  0.695800  0.411
  O  O6550  1  0.841000  0.495900  0.195800  0.411
  O  O6551  1  0.341000  0.004100  0.804200  0.411
  O  O6552  1  0.159000  0.995900  0.304200  0.411
  O  O6553  1  0.411100  0.533200  0.919300  0.456
  O  O6554  1  0.088900  0.466800  0.419300  0.456
  O  O6555  1  0.588900  0.033200  0.580700  0.456
  O  O6556  1  0.911100  0.966800  0.080700  0.456
  O  O6557  1  0.380000  0.506300  0.955200  0.456
  O  O6558  1  0.120000  0.493700  0.455200  0.456
  O  O6559  1  0.620000  0.006300  0.544800  0.456
  O  O6560  1  0.880000  0.993700  0.044800  0.456
  O  O6561  1  0.446600  0.583800  0.939100  0.456
  O  O6562  1  0.053400  0.416200  0.439100  0.456
  O  O6563  1  0.553400  0.083800  0.560900  0.456
  O  O6564  1  0.946600  0.916200  0.060900  0.456
  O  O6565  1  0.455300  0.587800  0.990100  0.456
  O  O6566  1  0.044700  0.412200  0.490100  0.456
  O  O6567  1  0.544700  0.087800  0.509900  0.456
  O  O6568  1  0.955300  0.912200  0.009900  0.456
  O  O6569  1  0.457000  0.277600  0.346100  0.458
  O  O6570  1  0.043000  0.722400  0.846100  0.458
  O  O6571  1  0.543000  0.777600  0.153900  0.458
  O  O6572  1  0.957000  0.222400  0.653900  0.458
  O  O6573  1  0.459900  0.240000  0.390700  0.458
  O  O6574  1  0.040100  0.760000  0.890700  0.458
  O  O6575  1  0.540100  0.740000  0.109300  0.458
  O  O6576  1  0.959900  0.260000  0.609300  0.458
  O  O6577  1  0.405700  0.235300  0.358700  0.458
  O  O6578  1  0.094300  0.764700  0.858700  0.458
  O  O6579  1  0.594300  0.735300  0.141300  0.458
  O  O6580  1  0.905700  0.264700  0.641300  0.458
  O  O6581  1  0.460000  0.199400  0.352200  0.458
  O  O6582  1  0.040000  0.800600  0.852200  0.458
  O  O6583  1  0.540000  0.699400  0.147800  0.458
  O  O6584  1  0.960000  0.300600  0.647800  0.458
  O  O6585  1  0.401600  0.435900  0.770100  0.47
  O  O6586  1  0.098400  0.564100  0.270100  0.47
  O  O6587  1  0.598400  0.935900  0.729900  0.47
  O  O6588  1  0.901600  0.064100  0.229900  0.47
  O  O6589  1  0.416700  0.378200  0.743300  0.47
  O  O6590  1  0.083300  0.621800  0.243300  0.47
  O  O6591  1  0.583300  0.878200  0.756700  0.47
  O  O6592  1  0.916700  0.121800  0.256700  0.47
  O  O6593  1  0.445700  0.395600  0.793100  0.47
  O  O6594  1  0.054300  0.604400  0.293100  0.47
  O  O6595  1  0.554300  0.895600  0.706900  0.47
  O  O6596  1  0.945700  0.104400  0.206900  0.47
  O  O6597  1  0.463000  0.427300  0.746000  0.47
  O  O6598  1  0.037000  0.572700  0.246000  0.47
  O  O6599  1  0.537000  0.927300  0.754000  0.47
  O  O6600  1  0.963000  0.072700  0.254000  0.47
  O  O6601  1  0.594200  0.688400  0.547500  0.47
  O  O6602  1  0.905800  0.311600  0.047500  0.47
  O  O6603  1  0.405800  0.188400  0.952500  0.47
  O  O6604  1  0.094200  0.811600  0.452500  0.47
  O  O6605  1  0.635800  0.719100  0.509300  0.47
  O  O6606  1  0.864200  0.280900  0.009300  0.47
  O  O6607  1  0.364200  0.219100  0.990700  0.47
  O  O6608  1  0.135800  0.780900  0.490700  0.47
  O  O6609  1  0.617600  0.750300  0.556900  0.47
  O  O6610  1  0.882400  0.249700  0.056900  0.47
  O  O6611  1  0.382400  0.250300  0.943100  0.47
  O  O6612  1  0.117600  0.749700  0.443100  0.47
  O  O6613  1  0.571200  0.740000  0.517400  0.47
  O  O6614  1  0.928800  0.260000  0.017400  0.47
  O  O6615  1  0.428800  0.240000  0.982600  0.47
  O  O6616  1  0.071200  0.760000  0.482600  0.47
  O  O6617  1  0.262000  0.065500  0.624400  0.5
  O  O6618  1  0.238000  0.934500  0.124400  0.5
  O  O6619  1  0.738000  0.565500  0.875600  0.5
  O  O6620  1  0.762000  0.434500  0.375600  0.5
  O  O6621  1  0.209400  0.075300  0.648900  0.5
  O  O6622  1  0.290600  0.924700  0.148900  0.5
  O  O6623  1  0.790600  0.575300  0.851100  0.5
  O  O6624  1  0.709400  0.424700  0.351100  0.5
  O  O6625  1  0.158500  0.101900  0.619400  0.5
  O  O6626  1  0.341500  0.898100  0.119400  0.5
  O  O6627  1  0.841500  0.601900  0.880600  0.5
  O  O6628  1  0.658500  0.398100  0.380600  0.5
  O  O6629  1  0.171200  0.110900  0.569800  0.5
  O  O6630  1  0.328800  0.889100  0.069800  0.5
  O  O6631  1  0.828800  0.610900  0.930200  0.5
  O  O6632  1  0.671200  0.389100  0.430200  0.5
  O  O6633  1  0.670700  0.211200  0.368400  0.5
  O  O6634  1  0.829300  0.788800  0.868400  0.5
  O  O6635  1  0.329300  0.711200  0.131600  0.5
  O  O6636  1  0.170700  0.288800  0.631600  0.5
  O  O6637  1  0.627700  0.231200  0.289200  0.5
  O  O6638  1  0.872300  0.768800  0.789200  0.5
  O  O6639  1  0.372300  0.731200  0.210800  0.5
  O  O6640  1  0.127700  0.268800  0.710800  0.5
  O  O6641  1  0.633900  0.253400  0.346100  0.5
  O  O6642  1  0.866100  0.746600  0.846100  0.5
  O  O6643  1  0.366100  0.753400  0.153900  0.5
  O  O6644  1  0.133900  0.246600  0.653900  0.5
  O  O6645  1  0.675800  0.268600  0.284700  0.5
  O  O6646  1  0.824200  0.731400  0.784700  0.5
  O  O6647  1  0.324200  0.768600  0.215300  0.5
  O  O6648  1  0.175800  0.231400  0.715300  0.5
  O  O6649  1  0.396400  0.613900  0.327400  0.5
  O  O6650  1  0.103600  0.386100  0.827400  0.5
  O  O6651  1  0.603600  0.113900  0.172600  0.5
  O  O6652  1  0.896400  0.886100  0.672600  0.5
  O  O6653  1  0.413900  0.418400  0.792400  0.53
  O  O6654  1  0.086100  0.581600  0.292400  0.53
  O  O6655  1  0.586100  0.918400  0.707600  0.53
  O  O6656  1  0.913900  0.081600  0.207600  0.53
  O  O6657  1  0.404600  0.418100  0.735400  0.53
  O  O6658  1  0.095400  0.581900  0.235400  0.53
  O  O6659  1  0.595400  0.918100  0.764600  0.53
  O  O6660  1  0.904600  0.081900  0.264600  0.53
  O  O6661  1  0.440400  0.369500  0.760100  0.53
  O  O6662  1  0.059600  0.630500  0.260100  0.53
  O  O6663  1  0.559600  0.869500  0.739900  0.53
  O  O6664  1  0.940400  0.130500  0.239900  0.53
  O  O6665  1  0.465500  0.431300  0.756700  0.53
  O  O6666  1  0.034500  0.568700  0.256700  0.53
  O  O6667  1  0.534500  0.931300  0.743300  0.53
  O  O6668  1  0.965500  0.068700  0.243300  0.53
  O  O6669  1  0.614000  0.759000  0.539600  0.53
  O  O6670  1  0.886000  0.241000  0.039600  0.53
  O  O6671  1  0.386000  0.259000  0.960400  0.53
  O  O6672  1  0.114000  0.741000  0.460400  0.53
  O  O6673  1  0.569900  0.719800  0.509800  0.53
  O  O6674  1  0.930100  0.280200  0.009800  0.53
  O  O6675  1  0.430100  0.219800  0.990200  0.53
  O  O6676  1  0.069900  0.780200  0.490200  0.53
  O  O6677  1  0.612800  0.695400  0.547900  0.53
  O  O6678  1  0.887200  0.304600  0.047900  0.53
  O  O6679  1  0.387200  0.195400  0.952100  0.53
  O  O6680  1  0.112800  0.804600  0.452100  0.53
  O  O6681  1  0.636100  0.719900  0.497900  0.53
  O  O6682  1  0.863900  0.280100  0.997900  0.53
  O  O6683  1  0.363900  0.219900  0.002100  0.53
  O  O6684  1  0.136100  0.780100  0.502100  0.53
  O  O6685  1  0.410600  0.504300  0.931000  0.544
  O  O6686  1  0.089400  0.495700  0.431000  0.544
  O  O6687  1  0.589400  0.004300  0.569000  0.544
  O  O6688  1  0.910600  0.995700  0.069000  0.544
  O  O6689  1  0.418500  0.562200  0.919600  0.544
  O  O6690  1  0.081500  0.437800  0.419600  0.544
  O  O6691  1  0.581500  0.062200  0.580400  0.544
  O  O6692  1  0.918500  0.937800  0.080400  0.544
  O  O6693  1  0.462400  0.574400  0.000200  0.544
  O  O6694  1  0.037600  0.425600  0.500200  0.544
  O  O6695  1  0.537600  0.074400  0.499800  0.544
  O  O6696  1  0.962400  0.925600  0.999800  0.544
  O  O6697  1  0.475300  0.576900  0.949900  0.544
  O  O6698  1  0.024700  0.423100  0.449900  0.544
  O  O6699  1  0.524700  0.076900  0.550100  0.544
  O  O6700  1  0.975300  0.923100  0.050100  0.544
  O  O6701  1  0.638800  0.449300  0.709200  0.589
  O  O6702  1  0.861200  0.550700  0.209200  0.589
  O  O6703  1  0.361200  0.949300  0.790800  0.589
  O  O6704  1  0.138800  0.050700  0.290800  0.589
  O  O6705  1  0.582500  0.546000  0.692300  0.589
  O  O6706  1  0.917500  0.454000  0.192300  0.589
  O  O6707  1  0.417500  0.046000  0.807700  0.589
  O  O6708  1  0.082500  0.954000  0.307700  0.589
  O  O6709  1  0.572200  0.504000  0.728500  0.589
  O  O6710  1  0.927800  0.496000  0.228500  0.589
  O  O6711  1  0.427800  0.004000  0.771500  0.589
  O  O6712  1  0.072200  0.996000  0.271500  0.589
  O  O6713  1  0.590600  0.464100  0.679900  0.589
  O  O6714  1  0.909400  0.535900  0.179900  0.589
  O  O6715  1  0.409400  0.964100  0.820100  0.589
  O  O6716  1  0.090600  0.035900  0.320100  0.589
  O  O6717  1  0.393900  0.297800  0.591800  0.635
  O  O6718  1  0.106100  0.702200  0.091800  0.635
  O  O6719  1  0.606100  0.797800  0.908200  0.635
  O  O6720  1  0.893900  0.202200  0.408200  0.635
  O  O6721  1  0.440800  0.278800  0.619300  0.635
  O  O6722  1  0.059200  0.721200  0.119300  0.635
  O  O6723  1  0.559200  0.778800  0.880700  0.635
  O  O6724  1  0.940800  0.221200  0.380700  0.635
  O  O6725  1  0.410200  0.303000  0.533700  0.635
  O  O6726  1  0.089800  0.697000  0.033700  0.635
  O  O6727  1  0.589800  0.803000  0.966300  0.635
  O  O6728  1  0.910200  0.197000  0.466300  0.635
  O  O6729  1  0.455000  0.341500  0.547900  0.635
  O  O6730  1  0.045000  0.658500  0.047900  0.635
  O  O6731  1  0.545000  0.841500  0.952100  0.635
  O  O6732  1  0.955000  0.158500  0.452100  0.635
  O  O6733  1  0.670100  0.570400  0.970900  0.66
  O  O6734  1  0.829900  0.429600  0.470900  0.66
  O  O6735  1  0.329900  0.070400  0.529100  0.66
  O  O6736  1  0.170100  0.929600  0.029100  0.66
  O  O6737  1  0.641100  0.837900  0.324100  0.664
  O  O6738  1  0.858900  0.162100  0.824100  0.664
  O  O6739  1  0.358900  0.337900  0.175900  0.664
  O  O6740  1  0.141100  0.662100  0.675900  0.664
  O  O6741  1  0.618200  0.899300  0.341400  0.664
  O  O6742  1  0.881800  0.100700  0.841400  0.664
  O  O6743  1  0.381800  0.399300  0.158600  0.664
  O  O6744  1  0.118200  0.600700  0.658600  0.664
  O  O6745  1  0.576800  0.848200  0.336100  0.664
  O  O6746  1  0.923200  0.151800  0.836100  0.664
  O  O6747  1  0.423200  0.348200  0.163900  0.664
  O  O6748  1  0.076800  0.651800  0.663900  0.664
  O  O6749  1  0.602700  0.874500  0.289000  0.664
  O  O6750  1  0.897300  0.125500  0.789000  0.664
  O  O6751  1  0.397300  0.374500  0.211000  0.664
  O  O6752  1  0.102700  0.625500  0.711000  0.664
  O  O6753  1  0.412300  0.468100  0.324000  0.67
  O  O6754  1  0.087700  0.531900  0.824000  0.67
  O  O6755  1  0.587700  0.968100  0.176000  0.67
  O  O6756  1  0.912300  0.031900  0.676000  0.67
  O  O6757  1  0.413800  0.445600  0.381200  0.67
  O  O6758  1  0.086200  0.554400  0.881200  0.67
  O  O6759  1  0.586200  0.945600  0.118800  0.67
  O  O6760  1  0.913800  0.054400  0.618800  0.67
  O  O6761  1  0.489300  0.097300  0.173300  0.689
  O  O6762  1  0.010700  0.902700  0.673300  0.689
  O  O6763  1  0.510700  0.597300  0.326700  0.689
  O  O6764  1  0.989300  0.402700  0.826700  0.689
  O  O6765  1  0.514800  0.049300  0.150200  0.689
  O  O6766  1  0.985200  0.950700  0.650200  0.689
  O  O6767  1  0.485200  0.549300  0.349800  0.689
  O  O6768  1  0.014800  0.450700  0.849800  0.689
  O  O6769  1  0.442600  0.082600  0.213800  0.689
  O  O6770  1  0.057400  0.917400  0.713800  0.689
  O  O6771  1  0.557400  0.582600  0.286200  0.689
  O  O6772  1  0.942600  0.417400  0.786200  0.689
  O  O6773  1  0.468100  0.038100  0.240900  0.689
  O  O6774  1  0.031900  0.961900  0.740900  0.689
  O  O6775  1  0.531900  0.538100  0.259100  0.689
  O  O6776  1  0.968100  0.461900  0.759100  0.689
  O  O6777  1  0.512600  0.870500  0.589000  0.69
  O  O6778  1  0.987400  0.129500  0.089000  0.69
  O  O6779  1  0.487400  0.370500  0.911000  0.69
  O  O6780  1  0.012600  0.629500  0.411000  0.69
  O  O6781  1  0.598700  0.585300  0.474100  0.7
  O  O6782  1  0.901300  0.414700  0.974100  0.7
  O  O6783  1  0.401300  0.085300  0.025900  0.7
  O  O6784  1  0.098700  0.914700  0.525900  0.7
  O  O6785  1  0.578400  0.621200  0.436400  0.7
  O  O6786  1  0.921600  0.378800  0.936400  0.7
  O  O6787  1  0.421600  0.121200  0.063600  0.7
  O  O6788  1  0.078400  0.878800  0.563600  0.7
  O  O6789  1  0.675700  0.602200  0.397700  0.7
  O  O6790  1  0.824300  0.397800  0.897700  0.7
  O  O6791  1  0.324300  0.102200  0.102300  0.7
  O  O6792  1  0.175700  0.897800  0.602300  0.7
  O  O6793  1  0.616800  0.608800  0.387400  0.7
  O  O6794  1  0.883200  0.391200  0.887400  0.7
  O  O6795  1  0.383200  0.108800  0.112600  0.7
  O  O6796  1  0.116800  0.891200  0.612600  0.7
  O  O6797  1  0.864500  0.581500  0.331400  0.847
  O  O6798  1  0.635500  0.418500  0.831400  0.847
  O  O6799  1  0.135500  0.081500  0.168600  0.847
  O  O6800  1  0.364500  0.918500  0.668600  0.847
  O  O6801  1  0.855600  0.636400  0.364000  0.847
  O  O6802  1  0.644400  0.363600  0.864000  0.847
  O  O6803  1  0.144400  0.136400  0.136000  0.847
  O  O6804  1  0.355600  0.863600  0.636000  0.847
  O  O6805  1  0.871600  0.576600  0.388400  0.847
  O  O6806  1  0.628400  0.423400  0.888400  0.847
  O  O6807  1  0.128400  0.076600  0.111600  0.847
  O  O6808  1  0.371600  0.923400  0.611600  0.847
  O  O6809  1  0.810700  0.586600  0.366200  0.847
  O  O6810  1  0.689300  0.413400  0.866200  0.847
  O  O6811  1  0.189300  0.086600  0.133800  0.847
  O  O6812  1  0.310700  0.913400  0.633800  0.847
  O  O6813  1  0.193300  0.492000  0.588500  0.95
  O  O6814  1  0.306700  0.508000  0.088500  0.95
  O  O6815  1  0.806700  0.992000  0.911500  0.95
  O  O6816  1  0.693300  0.008000  0.411500  0.95
  O  O6817  1  0.196500  0.530900  0.543800  0.95
  O  O6818  1  0.303500  0.469100  0.043800  0.95
  O  O6819  1  0.803500  0.030900  0.956200  0.95
  O  O6820  1  0.696500  0.969100  0.456200  0.95
  O  O6821  1  0.165700  0.472100  0.540700  0.95
  O  O6822  1  0.334300  0.527900  0.040700  0.95
  O  O6823  1  0.834300  0.972100  0.959300  0.95
  O  O6824  1  0.665700  0.027900  0.459300  0.95
  O  O6825  1  0.141800  0.520500  0.570000  0.95
  O  O6826  1  0.358200  0.479500  0.070000  0.95
  O  O6827  1  0.858200  0.020500  0.930000  0.95
  O  O6828  1  0.641800  0.979500  0.430000  0.95
  O  O6829  1  0.361000  0.711000  0.332000  0.15
  O  O6830  1  0.139000  0.289000  0.832000  0.15
  O  O6831  1  0.639000  0.211000  0.168000  0.15
  O  O6832  1  0.861000  0.789000  0.668000  0.15
  O  O6833  1  0.428000  0.717000  0.332000  0.15
  O  O6834  1  0.072000  0.283000  0.832000  0.15
  O  O6835  1  0.572000  0.217000  0.168000  0.15
  O  O6836  1  0.928000  0.783000  0.668000  0.15
  O  O6837  1  0.396000  0.701000  0.283600  0.15
  O  O6838  1  0.104000  0.299000  0.783600  0.15
  O  O6839  1  0.604000  0.201000  0.216400  0.15
  O  O6840  1  0.896000  0.799000  0.716400  0.15
  O  O6841  1  0.400000  0.656100  0.326000  0.15
  O  O6842  1  0.100000  0.343900  0.826000  0.15
  O  O6843  1  0.600000  0.156100  0.174000  0.15
  O  O6844  1  0.900000  0.843900  0.674000  0.15
  O  O6845  1  0.030000  0.764000  0.581700  0.3
  O  O6846  1  0.470000  0.236000  0.081700  0.3
  O  O6847  1  0.970000  0.264000  0.918300  0.3
  O  O6848  1  0.530000  0.736000  0.418300  0.3
  O  O6849  1  0.998800  0.744400  0.632000  0.3
  O  O6850  1  0.501200  0.255600  0.132000  0.3
  O  O6851  1  0.001200  0.244400  0.868000  0.3
  O  O6852  1  0.498800  0.755600  0.368000  0.3
  O  O6853  1  0.044700  0.708200  0.612700  0.3
  O  O6854  1  0.455300  0.291800  0.112700  0.3
  O  O6855  1  0.955300  0.208200  0.887300  0.3
  O  O6856  1  0.544700  0.791800  0.387300  0.3
  O  O6857  1  0.065000  0.762000  0.633000  0.3
  O  O6858  1  0.435000  0.238000  0.133000  0.3
  O  O6859  1  0.935000  0.262000  0.867000  0.3
  O  O6860  1  0.565000  0.738000  0.367000  0.3
  O  O6861  1  0.014000  0.751000  0.588900  0.3
  O  O6862  1  0.486000  0.249000  0.088900  0.3
  O  O6863  1  0.986000  0.251000  0.911100  0.3
  O  O6864  1  0.514000  0.749000  0.411100  0.3
  O  O6865  1  0.014000  0.758000  0.636900  0.3
  O  O6866  1  0.486000  0.242000  0.136900  0.3
  O  O6867  1  0.986000  0.258000  0.863100  0.3
  O  O6868  1  0.514000  0.742000  0.363100  0.3
  O  O6869  1  0.030800  0.700300  0.601300  0.3
  O  O6870  1  0.469200  0.299700  0.101300  0.3
  O  O6871  1  0.969200  0.200300  0.898700  0.3
  O  O6872  1  0.530800  0.799700  0.398700  0.3
  O  O6873  1  0.061000  0.773000  0.609000  0.3
  O  O6874  1  0.439000  0.227000  0.109000  0.3
  O  O6875  1  0.939000  0.273000  0.891000  0.3
  O  O6876  1  0.561000  0.727000  0.391000  0.3
  O  O6877  1  0.273100  0.312300  0.513000  0.3
  O  O6878  1  0.226900  0.687700  0.013000  0.3
  O  O6879  1  0.726900  0.812300  0.987000  0.3
  O  O6880  1  0.773100  0.187700  0.487000  0.3
  O  O6881  1  0.212700  0.299800  0.490800  0.3
  O  O6882  1  0.287300  0.700200  0.990800  0.3
  O  O6883  1  0.787300  0.799800  0.009200  0.3
  O  O6884  1  0.712700  0.200200  0.509200  0.3
  O  O6885  1  0.221000  0.295500  0.548300  0.3
  O  O6886  1  0.279000  0.704500  0.048300  0.3
  O  O6887  1  0.779000  0.795500  0.951700  0.3
  O  O6888  1  0.721000  0.204500  0.451700  0.3
  O  O6889  1  0.223100  0.355000  0.521600  0.3
  O  O6890  1  0.276900  0.645000  0.021600  0.3
  O  O6891  1  0.776900  0.855000  0.978400  0.3
  O  O6892  1  0.723100  0.145000  0.478400  0.3
  O  O6893  1  0.424900  0.235300  0.544900  0.365
  O  O6894  1  0.075100  0.764700  0.044900  0.365
  O  O6895  1  0.575100  0.735300  0.955100  0.365
  O  O6896  1  0.924900  0.264700  0.455100  0.365
  O  O6897  1  0.465600  0.230700  0.583400  0.365
  O  O6898  1  0.034400  0.769300  0.083400  0.365
  O  O6899  1  0.534400  0.730700  0.916600  0.365
  O  O6900  1  0.965600  0.269300  0.416600  0.365
  O  O6901  1  0.455800  0.261100  0.512000  0.365
  O  O6902  1  0.044200  0.738900  0.012000  0.365
  O  O6903  1  0.544200  0.761100  0.988000  0.365
  O  O6904  1  0.955800  0.238900  0.488000  0.365
  O  O6905  1  0.498000  0.304500  0.526000  0.365
  O  O6906  1  0.002000  0.695500  0.026000  0.365
  O  O6907  1  0.502000  0.804500  0.974000  0.365
  O  O6908  1  0.998000  0.195500  0.474000  0.365
  O  O6909  1  0.505200  0.697000  0.760000  0.818
  O  O6910  1  0.994800  0.303000  0.260000  0.818
  O  O6911  1  0.494800  0.197000  0.740000  0.818
  O  O6912  1  0.005200  0.803000  0.240000  0.818
  O  O6913  1  0.450700  0.717700  0.792800  0.818
  O  O6914  1  0.049300  0.282300  0.292800  0.818
  O  O6915  1  0.549300  0.217700  0.707200  0.818
  O  O6916  1  0.950700  0.782300  0.207200  0.818
  O  O6917  1  0.460100  0.737000  0.737700  0.818
  O  O6918  1  0.039900  0.263000  0.237700  0.818
  O  O6919  1  0.539900  0.237000  0.762300  0.818
  O  O6920  1  0.960100  0.763000  0.262300  0.818
  O  O6921  1  0.501900  0.758900  0.779200  0.818
  O  O6922  1  0.998100  0.241100  0.279200  0.818
  O  O6923  1  0.498100  0.258900  0.720800  0.818
  O  O6924  1  0.001900  0.741100  0.220800  0.818
  F  F6925  1  0.474000  0.166700  0.179300  0.311
  F  F6926  1  0.026000  0.833300  0.679300  0.311
  F  F6927  1  0.526000  0.666700  0.320700  0.311
  F  F6928  1  0.974000  0.333300  0.820700  0.311
  F  F6929  1  0.436300  0.133000  0.200700  0.311
  F  F6930  1  0.063700  0.867000  0.700700  0.311
  F  F6931  1  0.563700  0.633000  0.299300  0.311
  F  F6932  1  0.936300  0.367000  0.799300  0.311
  F  F6933  1  0.455300  0.001200  0.184100  0.311
  F  F6934  1  0.044700  0.998800  0.684100  0.311
  F  F6935  1  0.544700  0.501200  0.315900  0.311
  F  F6936  1  0.955300  0.498800  0.815900  0.311
  F  F6937  1  0.473000  0.033000  0.153000  0.311
  F  F6938  1  0.027000  0.967000  0.653000  0.311
  F  F6939  1  0.527000  0.533000  0.347000  0.311
  F  F6940  1  0.973000  0.467000  0.847000  0.311
  F  F6941  1  0.505900  0.013200  0.185100  0.311
  F  F6942  1  0.994100  0.986800  0.685100  0.311
  F  F6943  1  0.494100  0.513200  0.314900  0.311
  F  F6944  1  0.005900  0.486800  0.814900  0.311
  F  F6945  1  0.424500  0.169300  0.173900  0.311
  F  F6946  1  0.075500  0.830700  0.673900  0.311
  F  F6947  1  0.575500  0.669300  0.326100  0.311
  F  F6948  1  0.924500  0.330700  0.826100  0.311
  F  F6949  1  0.651200  0.543400  0.715300  0.411
  F  F6950  1  0.848800  0.456600  0.215300  0.411
  F  F6951  1  0.348800  0.043400  0.784700  0.411
  F  F6952  1  0.151200  0.956600  0.284700  0.411
  F  F6953  1  0.611700  0.473400  0.658600  0.411
  F  F6954  1  0.888300  0.526600  0.158600  0.411
  F  F6955  1  0.388300  0.973400  0.841400  0.411
  F  F6956  1  0.111700  0.026600  0.341400  0.411
  F  F6957  1  0.599000  0.437200  0.688800  0.411
  F  F6958  1  0.901000  0.562800  0.188800  0.411
  F  F6959  1  0.401000  0.937200  0.811200  0.411
  F  F6960  1  0.099000  0.062800  0.311200  0.411
  F  F6961  1  0.622500  0.586100  0.724700  0.411
  F  F6962  1  0.877500  0.413900  0.224700  0.411
  F  F6963  1  0.377500  0.086100  0.775300  0.411
  F  F6964  1  0.122500  0.913900  0.275300  0.411
  F  F6965  1  0.646700  0.437100  0.672200  0.411
  F  F6966  1  0.853300  0.562900  0.172200  0.411
  F  F6967  1  0.353300  0.937100  0.827800  0.411
  F  F6968  1  0.146700  0.062900  0.327800  0.411
  F  F6969  1  0.639000  0.552100  0.756800  0.411
  F  F6970  1  0.861000  0.447900  0.256800  0.411
  F  F6971  1  0.361000  0.052100  0.743200  0.411
  F  F6972  1  0.139000  0.947900  0.243200  0.411
  F  F6973  1  0.366200  0.573100  0.961900  0.544
  F  F6974  1  0.133800  0.426900  0.461900  0.544
  F  F6975  1  0.633800  0.073100  0.538100  0.544
  F  F6976  1  0.866200  0.926900  0.038100  0.544
  F  F6977  1  0.361600  0.523400  0.970100  0.544
  F  F6978  1  0.138400  0.476600  0.470100  0.544
  F  F6979  1  0.638400  0.023400  0.529900  0.544
  F  F6980  1  0.861600  0.976600  0.029900  0.544
  F  F6981  1  0.349100  0.541100  0.928600  0.544
  F  F6982  1  0.150900  0.458900  0.428600  0.544
  F  F6983  1  0.650900  0.041100  0.571400  0.544
  F  F6984  1  0.849100  0.958900  0.071400  0.544
  F  F6985  1  0.484900  0.506200  0.996800  0.544
  F  F6986  1  0.015100  0.493800  0.496800  0.544
  F  F6987  1  0.515100  0.006200  0.503200  0.544
  F  F6988  1  0.984900  0.993800  0.003200  0.544
  F  F6989  1  0.523600  0.537500  0.983200  0.544
  F  F6990  1  0.976400  0.462500  0.483200  0.544
  F  F6991  1  0.476400  0.037500  0.516800  0.544
  F  F6992  1  0.023600  0.962500  0.016800  0.544
  F  F6993  1  0.495400  0.510000  0.953800  0.544
  F  F6994  1  0.004600  0.490000  0.453800  0.544
  F  F6995  1  0.504600  0.010000  0.546200  0.544
  F  F6996  1  0.995400  0.990000  0.046200  0.544
  F  F6997  1  0.445100  0.225600  0.581300  0.635
  F  F6998  1  0.054900  0.774400  0.081300  0.635
  F  F6999  1  0.554900  0.725600  0.918700  0.635
  F  F7000  1  0.945100  0.274400  0.418700  0.635
  F  F7001  1  0.400600  0.227500  0.605200  0.635
  F  F7002  1  0.099400  0.772500  0.105200  0.635
  F  F7003  1  0.599400  0.727500  0.894800  0.635
  F  F7004  1  0.900600  0.272500  0.394800  0.635
  F  F7005  1  0.401600  0.239000  0.559400  0.635
  F  F7006  1  0.098400  0.761000  0.059400  0.635
  F  F7007  1  0.598400  0.739000  0.940600  0.635
  F  F7008  1  0.901600  0.261000  0.440600  0.635
  F  F7009  1  0.463900  0.315000  0.490100  0.635
  F  F7010  1  0.036100  0.685000  0.990100  0.635
  F  F7011  1  0.536100  0.815000  0.009900  0.635
  F  F7012  1  0.963900  0.185000  0.509900  0.635
  F  F7013  1  0.463300  0.266600  0.502400  0.635
  F  F7014  1  0.036700  0.733400  0.002400  0.635
  F  F7015  1  0.536700  0.766600  0.997600  0.635
  F  F7016  1  0.963300  0.233400  0.497600  0.635
  F  F7017  1  0.500200  0.297700  0.517600  0.635
  F  F7018  1  0.999800  0.702300  0.017600  0.635
  F  F7019  1  0.499800  0.797700  0.982400  0.635
  F  F7020  1  0.000200  0.202300  0.482400  0.635
  F  F7021  1  0.489000  0.557100  0.564100  1.0
  F  F7022  1  0.011000  0.442900  0.064100  1.0
  F  F7023  1  0.511000  0.057100  0.935900  1.0
  F  F7024  1  0.989000  0.942900  0.435900  1.0
  F  F7025  1  0.443800  0.577400  0.556500  1.0
  F  F7026  1  0.056200  0.422600  0.056500  1.0
  F  F7027  1  0.556200  0.077400  0.943500  1.0
  F  F7028  1  0.943800  0.922600  0.443500  1.0
  F  F7029  1  0.470800  0.590400  0.592800  1.0
  F  F7030  1  0.029200  0.409600  0.092800  1.0
  F  F7031  1  0.529200  0.090400  0.907200  1.0
  F  F7032  1  0.970800  0.909600  0.407200  1.0
  F  F7033  1  0.356800  0.461900  0.562800  1.0
  F  F7034  1  0.143200  0.538100  0.062800  1.0
  F  F7035  1  0.643200  0.961900  0.937200  1.0
  F  F7036  1  0.856800  0.038100  0.437200  1.0
  F  F7037  1  0.380400  0.479500  0.601500  1.0
  F  F7038  1  0.119600  0.520500  0.101500  1.0
  F  F7039  1  0.619600  0.979500  0.898500  1.0
  F  F7040  1  0.880400  0.020500  0.398500  1.0
  F  F7041  1  0.404100  0.443700  0.575400  1.0
  F  F7042  1  0.095900  0.556300  0.075400  1.0
  F  F7043  1  0.595900  0.943700  0.924600  1.0
  F  F7044  1  0.904100  0.056300  0.424600  1.0
  F  F7045  1  0.589700  0.510900  0.483600  1.0
  F  F7046  1  0.910300  0.489100  0.983600  1.0
  F  F7047  1  0.410300  0.010900  0.016400  1.0
  F  F7048  1  0.089700  0.989100  0.516400  1.0
  F  F7049  1  0.622700  0.473000  0.475500  1.0
  F  F7050  1  0.877300  0.527000  0.975500  1.0
  F  F7051  1  0.377300  0.973000  0.024500  1.0
  F  F7052  1  0.122700  0.027000  0.524500  1.0
  F  F7053  1  0.593200  0.497800  0.443200  1.0
  F  F7054  1  0.906800  0.502200  0.943200  1.0
  F  F7055  1  0.406800  0.997800  0.056800  1.0
  F  F7056  1  0.093200  0.002200  0.556800  1.0
  F  F7057  1  0.518300  0.507900  0.413500  1.0
  F  F7058  1  0.981700  0.492100  0.913500  1.0
  F  F7059  1  0.481700  0.007900  0.086500  1.0
  F  F7060  1  0.018300  0.992100  0.586500  1.0
  F  F7061  1  0.542900  0.464900  0.404700  1.0
  F  F7062  1  0.957100  0.535100  0.904700  1.0
  F  F7063  1  0.457100  0.964900  0.095300  1.0
  F  F7064  1  0.042900  0.035100  0.595300  1.0
  F  F7065  1  0.493900  0.468300  0.395100  1.0
  F  F7066  1  0.006100  0.531700  0.895100  1.0
  F  F7067  1  0.506100  0.968300  0.104900  1.0
  F  F7068  1  0.993900  0.031700  0.604900  1.0
  F  F7069  1  0.250000  0.598100  0.369900  1.0
  F  F7070  1  0.250000  0.401900  0.869900  1.0
  F  F7071  1  0.750000  0.098100  0.130100  1.0
  F  F7072  1  0.750000  0.901900  0.630100  1.0
  F  F7073  1  0.295200  0.575500  0.363900  1.0
  F  F7074  1  0.204800  0.424500  0.863900  1.0
  F  F7075  1  0.704800  0.075500  0.136100  1.0
  F  F7076  1  0.795200  0.924500  0.636100  1.0
  F  F7077  1  0.294300  0.618600  0.388600  1.0
  F  F7078  1  0.205700  0.381400  0.888600  1.0
  F  F7079  1  0.705700  0.118600  0.111400  1.0
  F  F7080  1  0.794300  0.881400  0.611400  1.0
  F  F7081  1  0.293200  0.457700  0.383400  1.0
  F  F7082  1  0.206800  0.542300  0.883400  1.0
  F  F7083  1  0.706800  0.957700  0.116600  1.0
  F  F7084  1  0.793200  0.042300  0.616600  1.0
  F  F7085  1  0.269800  0.491400  0.355700  1.0
  F  F7086  1  0.230200  0.508600  0.855700  1.0
  F  F7087  1  0.730200  0.991400  0.144300  1.0
  F  F7088  1  0.769800  0.008600  0.644300  1.0
  F  F7089  1  0.312400  0.505200  0.379500  1.0
  F  F7090  1  0.187600  0.494800  0.879500  1.0
  F  F7091  1  0.687600  0.005200  0.120500  1.0
  F  F7092  1  0.812400  0.994800  0.620500  1.0
  F  F7093  1  0.858400  0.488400  0.630500  1.0
  F  F7094  1  0.641600  0.511600  0.130500  1.0
  F  F7095  1  0.141600  0.988400  0.869500  1.0
  F  F7096  1  0.358400  0.011600  0.369500  1.0
  F  F7097  1  0.886900  0.477000  0.595100  1.0
  F  F7098  1  0.613100  0.523000  0.095100  1.0
  F  F7099  1  0.113100  0.977000  0.904900  1.0
  F  F7100  1  0.386900  0.023000  0.404900  1.0
  F  F7101  1  0.901500  0.517400  0.616400  1.0
  F  F7102  1  0.598500  0.482600  0.116400  1.0
  F  F7103  1  0.098500  0.017400  0.883600  1.0
  F  F7104  1  0.401500  0.982600  0.383600  1.0
  F  F7105  1  0.989300  0.467200  0.672500  1.0
  F  F7106  1  0.510700  0.532800  0.172500  1.0
  F  F7107  1  0.010700  0.967200  0.827500  1.0
  F  F7108  1  0.489300  0.032800  0.327500  1.0
  F  F7109  1  0.012000  0.435800  0.640500  1.0
  F  F7110  1  0.488000  0.564200  0.140500  1.0
  F  F7111  1  0.988000  0.935800  0.859500  1.0
  F  F7112  1  0.512000  0.064200  0.359500  1.0
  F  F7113  1  0.031400  0.483400  0.648800  1.0
  F  F7114  1  0.468600  0.516600  0.148800  1.0
  F  F7115  1  0.968600  0.983400  0.851200  1.0
  F  F7116  1  0.531400  0.016600  0.351200  1.0
  F  F7117  1  0.960100  0.607200  0.470100  1.0
  F  F7118  1  0.539900  0.392800  0.970100  1.0
  F  F7119  1  0.039900  0.107200  0.029900  1.0
  F  F7120  1  0.460100  0.892800  0.529900  1.0
  F  F7121  1  0.943200  0.573600  0.440800  1.0
  F  F7122  1  0.556800  0.426400  0.940800  1.0
  F  F7123  1  0.056800  0.073600  0.059200  1.0
  F  F7124  1  0.443200  0.926400  0.559200  1.0
  F  F7125  1  0.911300  0.612000  0.452600  1.0
  F  F7126  1  0.588700  0.388000  0.952600  1.0
  F  F7127  1  0.088700  0.112000  0.047400  1.0
  F  F7128  1  0.411300  0.888000  0.547400  1.0
  F  F7129  1  0.896000  0.580500  0.574900  1.0
  F  F7130  1  0.604000  0.419500  0.074900  1.0
  F  F7131  1  0.104000  0.080500  0.925100  1.0
  F  F7132  1  0.396000  0.919500  0.425100  1.0
  F  F7133  1  0.937600  0.591000  0.586200  1.0
  F  F7134  1  0.562400  0.409000  0.086200  1.0
  F  F7135  1  0.062400  0.091000  0.913800  1.0
  F  F7136  1  0.437600  0.909000  0.413800  1.0
  F  F7137  1  0.927000  0.541900  0.560300  1.0
  F  F7138  1  0.573000  0.458100  0.060300  1.0
  F  F7139  1  0.073000  0.041900  0.939700  1.0
  F  F7140  1  0.427000  0.958100  0.439700  1.0
  F  F7141  1  0.755200  0.673300  0.652700  1.0
  F  F7142  1  0.744800  0.326700  0.152700  1.0
  F  F7143  1  0.244800  0.173300  0.847300  1.0
  F  F7144  1  0.255200  0.826700  0.347300  1.0
  F  F7145  1  0.741500  0.623700  0.644100  1.0
  F  F7146  1  0.758500  0.376300  0.144100  1.0
  F  F7147  1  0.258500  0.123700  0.855900  1.0
  F  F7148  1  0.241500  0.876300  0.355900  1.0
  F  F7149  1  0.789900  0.636100  0.657600  1.0
  F  F7150  1  0.710100  0.363900  0.157600  1.0
  F  F7151  1  0.210100  0.136100  0.842400  1.0
  F  F7152  1  0.289900  0.863900  0.342400  1.0
  F  F7153  1  0.841100  0.690800  0.556100  1.0
  F  F7154  1  0.658900  0.309200  0.056100  1.0
  F  F7155  1  0.158900  0.190800  0.943900  1.0
  F  F7156  1  0.341100  0.809200  0.443900  1.0
  F  F7157  1  0.885600  0.671100  0.572500  1.0
  F  F7158  1  0.614400  0.328900  0.072500  1.0
  F  F7159  1  0.114400  0.171100  0.927500  1.0
  F  F7160  1  0.385600  0.828900  0.427500  1.0
  F  F7161  1  0.843200  0.640700  0.563500  1.0
  F  F7162  1  0.656800  0.359300  0.063500  1.0
  F  F7163  1  0.156800  0.140700  0.936500  1.0
  F  F7164  1  0.343200  0.859300  0.436500  1.0
  F  F7165  1  0.729300  0.712400  0.705500  1.0
  F  F7166  1  0.770700  0.287600  0.205500  1.0
  F  F7167  1  0.270700  0.212400  0.794500  1.0
  F  F7168  1  0.229300  0.787600  0.294500  1.0
  F  F7169  1  0.745100  0.745000  0.736900  1.0
  F  F7170  1  0.754900  0.255000  0.236900  1.0
  F  F7171  1  0.254900  0.245000  0.763100  1.0
  F  F7172  1  0.245100  0.755000  0.263100  1.0
  F  F7173  1  0.771900  0.741400  0.699400  1.0
  F  F7174  1  0.728100  0.258600  0.199400  1.0
  F  F7175  1  0.228100  0.241400  0.800600  1.0
  F  F7176  1  0.271900  0.758600  0.300600  1.0
  F  F7177  1  0.784400  0.790300  0.656600  1.0
  F  F7178  1  0.715600  0.209700  0.156600  1.0
  F  F7179  1  0.215600  0.290300  0.843400  1.0
  F  F7180  1  0.284400  0.709700  0.343400  1.0
  F  F7181  1  0.808600  0.811900  0.691800  1.0
  F  F7182  1  0.691400  0.188100  0.191800  1.0
  F  F7183  1  0.191400  0.311900  0.808200  1.0
  F  F7184  1  0.308600  0.688100  0.308200  1.0
  F  F7185  1  0.802000  0.839500  0.654500  1.0
  F  F7186  1  0.698000  0.160500  0.154500  1.0
  F  F7187  1  0.198000  0.339500  0.845500  1.0
  F  F7188  1  0.302000  0.660500  0.345500  1.0
  F  F7189  1  0.655000  0.659000  0.464000  0.2
  F  F7190  1  0.845000  0.341000  0.964000  0.2
  F  F7191  1  0.345000  0.159000  0.036000  0.2
  F  F7192  1  0.155000  0.841000  0.536000  0.2
  F  F7193  1  0.668000  0.560000  0.399000  0.2
  F  F7194  1  0.832000  0.440000  0.899000  0.2
  F  F7195  1  0.332000  0.060000  0.101000  0.2
  F  F7196  1  0.168000  0.940000  0.601000  0.2
  F  F7197  1  0.633000  0.647000  0.502600  0.2
  F  F7198  1  0.867000  0.353000  0.002600  0.2
  F  F7199  1  0.367000  0.147000  0.997400  0.2
  F  F7200  1  0.133000  0.853000  0.497400  0.2
  F  F7201  1  0.632000  0.542800  0.425000  0.2
  F  F7202  1  0.868000  0.457200  0.925000  0.2
  F  F7203  1  0.368000  0.042800  0.075000  0.2
  F  F7204  1  0.132000  0.957200  0.575000  0.2
  F  F7205  1  0.620000  0.690800  0.483000  0.2
  F  F7206  1  0.880000  0.309200  0.983000  0.2
  F  F7207  1  0.380000  0.190800  0.017000  0.2
  F  F7208  1  0.120000  0.809200  0.517000  0.2
  F  F7209  1  0.620000  0.553000  0.383000  0.2
  F  F7210  1  0.880000  0.447000  0.883000  0.2
  F  F7211  1  0.380000  0.053000  0.117000  0.2
  F  F7212  1  0.120000  0.947000  0.617000  0.2
  F  F7213  1  0.723000  0.256000  0.322300  0.25
  F  F7214  1  0.777000  0.744000  0.822300  0.25
  F  F7215  1  0.277000  0.756000  0.177700  0.25
  F  F7216  1  0.223000  0.244000  0.677700  0.25
  F  F7217  1  0.731000  0.215000  0.349000  0.25
  F  F7218  1  0.769000  0.785000  0.849000  0.25
  F  F7219  1  0.269000  0.715000  0.151000  0.25
  F  F7220  1  0.231000  0.285000  0.651000  0.25
  F  F7221  1  0.708000  0.194000  0.272000  0.25
  F  F7222  1  0.792000  0.806000  0.772000  0.25
  F  F7223  1  0.292000  0.694000  0.228000  0.25
  F  F7224  1  0.208000  0.306000  0.728000  0.25
  F  F7225  1  0.724000  0.262000  0.367000  0.25
  F  F7226  1  0.776000  0.738000  0.867000  0.25
  F  F7227  1  0.276000  0.762000  0.133000  0.25
  F  F7228  1  0.224000  0.238000  0.633000  0.25
  F  F7229  1  0.701000  0.239000  0.252100  0.25
  F  F7230  1  0.799000  0.761000  0.752100  0.25
  F  F7231  1  0.299000  0.739000  0.247900  0.25
  F  F7232  1  0.201000  0.261000  0.747900  0.25
  F  F7233  1  0.719500  0.237000  0.294000  0.25
  F  F7234  1  0.780500  0.763000  0.794000  0.25
  F  F7235  1  0.280500  0.737000  0.206000  0.25
  F  F7236  1  0.219500  0.263000  0.706000  0.25
  F  F7237  1  0.390700  0.285500  0.581800  0.365
  F  F7238  1  0.109300  0.714500  0.081800  0.365
  F  F7239  1  0.609300  0.785500  0.918200  0.365
  F  F7240  1  0.890700  0.214500  0.418200  0.365
  F  F7241  1  0.383000  0.239700  0.594700  0.365
  F  F7242  1  0.117000  0.760300  0.094700  0.365
  F  F7243  1  0.617000  0.739700  0.905300  0.365
  F  F7244  1  0.883000  0.260300  0.405300  0.365
  F  F7245  1  0.407900  0.309900  0.527800  0.365
  F  F7246  1  0.092100  0.690100  0.027800  0.365
  F  F7247  1  0.592100  0.809900  0.972200  0.365
  F  F7248  1  0.907900  0.190100  0.472200  0.365
  F  F7249  1  0.442900  0.346000  0.540200  0.365
  F  F7250  1  0.057100  0.654000  0.040200  0.365
  F  F7251  1  0.557100  0.846000  0.959800  0.365
  F  F7252  1  0.942900  0.154000  0.459800  0.365
  F  F7253  1  0.434300  0.337700  0.497500  0.365
  F  F7254  1  0.065700  0.662300  0.997500  0.365
  F  F7255  1  0.565700  0.837700  0.002500  0.365
  F  F7256  1  0.934300  0.162300  0.502500  0.365
  F  F7257  1  0.418800  0.268700  0.616100  0.365
  F  F7258  1  0.081200  0.731300  0.116100  0.365
  F  F7259  1  0.581200  0.768700  0.883900  0.365
  F  F7260  1  0.918800  0.231300  0.383900  0.365
  F  F7261  1  0.479500  0.520600  0.988200  0.456
  F  F7262  1  0.020500  0.479400  0.488200  0.456
  F  F7263  1  0.520500  0.020600  0.511800  0.456
  F  F7264  1  0.979500  0.979400  0.011800  0.456
  F  F7265  1  0.510800  0.550000  0.963800  0.456
  F  F7266  1  0.989200  0.450000  0.463800  0.456
  F  F7267  1  0.489200  0.050000  0.536200  0.456
  F  F7268  1  0.010800  0.950000  0.036200  0.456
  F  F7269  1  0.370000  0.592700  0.934600  0.456
  F  F7270  1  0.130000  0.407300  0.434600  0.456
  F  F7271  1  0.630000  0.092700  0.565400  0.456
  F  F7272  1  0.870000  0.907300  0.065400  0.456
  F  F7273  1  0.344200  0.563200  0.965500  0.456
  F  F7274  1  0.155800  0.436800  0.465500  0.456
  F  F7275  1  0.655800  0.063200  0.534500  0.456
  F  F7276  1  0.844200  0.936800  0.034500  0.456
  F  F7277  1  0.477000  0.519700  0.943000  0.456
  F  F7278  1  0.023000  0.480300  0.443000  0.456
  F  F7279  1  0.523000  0.019700  0.557000  0.456
  F  F7280  1  0.977000  0.980300  0.057000  0.456
  F  F7281  1  0.340200  0.554800  0.920900  0.456
  F  F7282  1  0.159800  0.445200  0.420900  0.456
  F  F7283  1  0.659800  0.054800  0.579100  0.456
  F  F7284  1  0.840200  0.945200  0.079100  0.456
  F  F7285  1  0.263100  0.124900  0.661200  0.5
  F  F7286  1  0.236900  0.875100  0.161200  0.5
  F  F7287  1  0.736900  0.624900  0.838800  0.5
  F  F7288  1  0.763100  0.375100  0.338800  0.5
  F  F7289  1  0.222100  0.144700  0.640900  0.5
  F  F7290  1  0.277900  0.855300  0.140900  0.5
  F  F7291  1  0.777900  0.644700  0.859100  0.5
  F  F7292  1  0.722100  0.355300  0.359100  0.5
  F  F7293  1  0.264200  0.137000  0.617500  0.5
  F  F7294  1  0.235800  0.863000  0.117500  0.5
  F  F7295  1  0.735800  0.637000  0.882500  0.5
  F  F7296  1  0.764200  0.363000  0.382500  0.5
  F  F7297  1  0.173700  0.029500  0.604300  0.5
  F  F7298  1  0.326300  0.970500  0.104300  0.5
  F  F7299  1  0.826300  0.529500  0.895700  0.5
  F  F7300  1  0.673700  0.470500  0.395700  0.5
  F  F7301  1  0.177600  0.045500  0.563100  0.5
  F  F7302  1  0.322400  0.954500  0.063100  0.5
  F  F7303  1  0.822400  0.545500  0.936900  0.5
  F  F7304  1  0.677600  0.454500  0.436900  0.5
  F  F7305  1  0.130800  0.047700  0.587500  0.5
  F  F7306  1  0.369200  0.952300  0.087500  0.5
  F  F7307  1  0.869200  0.547700  0.912500  0.5
  F  F7308  1  0.630800  0.452300  0.412500  0.5
  F  F7309  1  0.676400  0.221100  0.239100  0.5
  F  F7310  1  0.823600  0.778900  0.739100  0.5
  F  F7311  1  0.323600  0.721100  0.260900  0.5
  F  F7312  1  0.176400  0.278900  0.760900  0.5
  F  F7313  1  0.712500  0.209900  0.269700  0.5
  F  F7314  1  0.787500  0.790100  0.769700  0.5
  F  F7315  1  0.287500  0.709900  0.230300  0.5
  F  F7316  1  0.212500  0.290100  0.730300  0.5
  F  F7317  1  0.705000  0.254000  0.385400  0.5
  F  F7318  1  0.795000  0.746000  0.885400  0.5
  F  F7319  1  0.295000  0.754000  0.114600  0.5
  F  F7320  1  0.205000  0.246000  0.614600  0.5
  F  F7321  1  0.668400  0.181200  0.267900  0.5
  F  F7322  1  0.831600  0.818800  0.767900  0.5
  F  F7323  1  0.331600  0.681200  0.232100  0.5
  F  F7324  1  0.168400  0.318800  0.732100  0.5
  F  F7325  1  0.678300  0.293900  0.373800  0.5
  F  F7326  1  0.821700  0.706100  0.873800  0.5
  F  F7327  1  0.321700  0.793900  0.126200  0.5
  F  F7328  1  0.178300  0.206100  0.626200  0.5
  F  F7329  1  0.714200  0.274700  0.344300  0.5
  F  F7330  1  0.785800  0.725300  0.844300  0.5
  F  F7331  1  0.285800  0.774700  0.155700  0.5
  F  F7332  1  0.214200  0.225300  0.655700  0.5
  F  F7333  1  0.640600  0.561700  0.729300  0.589
  F  F7334  1  0.859400  0.438300  0.229300  0.589
  F  F7335  1  0.359400  0.061700  0.770700  0.589
  F  F7336  1  0.140600  0.938300  0.270700  0.589
  F  F7337  1  0.619900  0.534400  0.762700  0.589
  F  F7338  1  0.880100  0.465600  0.262700  0.589
  F  F7339  1  0.380100  0.034400  0.737300  0.589
  F  F7340  1  0.119900  0.965600  0.237300  0.589
  F  F7341  1  0.594600  0.576500  0.746700  0.589
  F  F7342  1  0.905400  0.423500  0.246700  0.589
  F  F7343  1  0.405400  0.076500  0.753300  0.589
  F  F7344  1  0.094600  0.923500  0.253300  0.589
  F  F7345  1  0.634200  0.474900  0.636200  0.589
  F  F7346  1  0.865800  0.525100  0.136200  0.589
  F  F7347  1  0.365800  0.974900  0.863800  0.589
  F  F7348  1  0.134200  0.025100  0.363800  0.589
  F  F7349  1  0.672900  0.491300  0.662100  0.589
  F  F7350  1  0.827100  0.508700  0.162100  0.589
  F  F7351  1  0.327100  0.991300  0.837900  0.589
  F  F7352  1  0.172900  0.008700  0.337900  0.589
  F  F7353  1  0.666667  0.441900  0.656600  0.589
  F  F7354  1  0.833333  0.558100  0.156600  0.589
  F  F7355  1  0.333333  0.941900  0.843400  0.589
  F  F7356  1  0.166667  0.058100  0.343400  0.589
  F  F7357  1  0.430100  0.078900  0.150800  0.689
  F  F7358  1  0.069900  0.921100  0.650800  0.689
  F  F7359  1  0.569900  0.578900  0.349200  0.689
  F  F7360  1  0.930100  0.421100  0.849200  0.689
  F  F7361  1  0.464000  0.075200  0.116800  0.689
  F  F7362  1  0.036000  0.924800  0.616800  0.689
  F  F7363  1  0.536000  0.575200  0.383200  0.689
  F  F7364  1  0.964000  0.424800  0.883200  0.689
  F  F7365  1  0.445700  0.032300  0.135800  0.689
  F  F7366  1  0.054300  0.967700  0.635800  0.689
  F  F7367  1  0.554300  0.532300  0.364200  0.689
  F  F7368  1  0.945700  0.467700  0.864200  0.689
  F  F7369  1  0.401200  0.033800  0.187600  0.689
  F  F7370  1  0.098800  0.966200  0.687600  0.689
  F  F7371  1  0.598800  0.533800  0.312400  0.689
  F  F7372  1  0.901200  0.466200  0.812400  0.689
  F  F7373  1  0.399500  0.024600  0.231800  0.689
  F  F7374  1  0.100500  0.975400  0.731800  0.689
  F  F7375  1  0.600500  0.524600  0.268200  0.689
  F  F7376  1  0.899500  0.475400  0.768200  0.689
  F  F7377  1  0.428100  0.994600  0.205100  0.689
  F  F7378  1  0.071900  0.005400  0.705100  0.689
  F  F7379  1  0.571900  0.494600  0.294900  0.689
  F  F7380  1  0.928100  0.505400  0.794900  0.689
  F  F7381  1  0.445200  0.630700  0.321000  0.35
  F  F7382  1  0.054800  0.369300  0.821000  0.35
  F  F7383  1  0.554800  0.130700  0.179000  0.35
  F  F7384  1  0.945200  0.869300  0.679000  0.35
  F  F7385  1  0.410900  0.602400  0.298500  0.35
  F  F7386  1  0.089100  0.397600  0.798500  0.35
  F  F7387  1  0.589100  0.102400  0.201500  0.35
  F  F7388  1  0.910900  0.897600  0.701500  0.35
  F  F7389  1  0.425100  0.588700  0.340200  0.35
  F  F7390  1  0.074900  0.411300  0.840200  0.35
  F  F7391  1  0.574900  0.088700  0.159800  0.35
  F  F7392  1  0.925100  0.911300  0.659800  0.35
  F  F7393  1  0.352800  0.738300  0.319100  0.35
  F  F7394  1  0.147200  0.261700  0.819100  0.35
  F  F7395  1  0.647200  0.238300  0.180900  0.35
  F  F7396  1  0.852800  0.761700  0.680900  0.35
  F  F7397  1  0.369400  0.717300  0.357200  0.35
  F  F7398  1  0.130600  0.282700  0.857200  0.35
  F  F7399  1  0.630600  0.217300  0.142800  0.35
  F  F7400  1  0.869400  0.782700  0.642800  0.35
  F  F7401  1  0.399200  0.755300  0.337200  0.35
  F  F7402  1  0.100800  0.244700  0.837200  0.35
  F  F7403  1  0.600800  0.255300  0.162800  0.35
  F  F7404  1  0.899200  0.744700  0.662800  0.35
  F  F7405  1  0.594900  0.650800  0.491600  0.7
  F  F7406  1  0.905100  0.349200  0.991600  0.7
  F  F7407  1  0.405100  0.150800  0.008400  0.7
  F  F7408  1  0.094900  0.849200  0.508400  0.7
  F  F7409  1  0.645700  0.637700  0.484300  0.7
  F  F7410  1  0.854300  0.362300  0.984300  0.7
  F  F7411  1  0.354300  0.137700  0.015700  0.7
  F  F7412  1  0.145700  0.862300  0.515700  0.7
  F  F7413  1  0.617000  0.669500  0.456900  0.7
  F  F7414  1  0.883000  0.330500  0.956900  0.7
  F  F7415  1  0.383000  0.169500  0.043100  0.7
  F  F7416  1  0.117000  0.830500  0.543100  0.7
  F  F7417  1  0.656800  0.536100  0.412800  0.7
  F  F7418  1  0.843200  0.463900  0.912800  0.7
  F  F7419  1  0.343200  0.036100  0.087200  0.7
  F  F7420  1  0.156800  0.963900  0.587200  0.7
  F  F7421  1  0.640300  0.545100  0.371600  0.7
  F  F7422  1  0.859700  0.454900  0.871600  0.7
  F  F7423  1  0.359700  0.045100  0.128400  0.7
  F  F7424  1  0.140300  0.954900  0.628400  0.7
  F  F7425  1  0.605800  0.547000  0.404800  0.7
  F  F7426  1  0.894200  0.453000  0.904800  0.7
  F  F7427  1  0.394200  0.047000  0.095200  0.7
  F  F7428  1  0.105800  0.953000  0.595200  0.7
