
#######################################################################
#
#                 Cambridge Crystallographic Data Centre
#                                CCDC 
#
#######################################################################
#
# If this CIF has been generated from an entry in the Cambridge 
# Structural Database, then it will include bibliographic, chemical, 
# crystal, experimental, refinement or atomic coordinate data resulting 
# from the CCDC's data processing and validation procedures.
#
#######################################################################

data_BEQSIC
_chemical_formula_moiety         
'C180 H184 Fe4 N40 P4 12+,10.15(C1 H12 B11 1-),1.85(C2 F6 N1 O4 S2 1-),8.25(C2 H3 N1),C4 H10 O1,0.5(H2 O1)'
_chemical_name_systematic        
'tetrakis(\m-{N^2^-[(4-{[(pyridin-2-yl)methylidene]amino}phenyl)methyl]-N^1^,N^1^-bis(2-{[(4-{[(pyridin-2-yl)methylidene]amino}phenyl)methyl]amino}ethyl)ethane-1,2-diaminato}(hydrogen)phosphorus)-tetra-iron(ii) (1-carba-closo-dodecaborate(12)) clathrate bis[(trifluoromethyl)sulfonyl]azanide acetonitrile diethyl ether solvate hemihydrate'
_symmetry_cell_setting           monoclinic
_symmetry_space_group_name_H-M   'P 21/n'
_symmetry_Int_Tables_number      14
_space_group_name_Hall           '-P 2yn'
loop_
_symmetry_equiv_pos_site_id
_symmetry_equiv_pos_as_xyz
1 x,y,z
2 1/2-x,1/2+y,1/2-z
3 -x,-y,-z
4 1/2+x,1/2-y,1/2+z
_cell_length_a                   23.9461(2)
_cell_length_b                   43.9741(2)
_cell_length_c                   28.49200(10)
_cell_angle_alpha                90
_cell_angle_beta                 91.4190(10)
_cell_angle_gamma                90
_cell_volume                     29993.1
_exptl_crystal_colour            purple
_exptl_crystal_description       block
_cell_formula_units_Z            4
loop_
_atom_site_label
_atom_site_type_symbol
_atom_site_fract_x
_atom_site_fract_y
_atom_site_fract_z
B1 B 0.6003(3) 0.63530(17) 0.7422(2)
H185 H 0.561472 0.625781 0.757604
B2 B 0.7152(3) 0.6634(2) 0.6959(2)
H186 H 0.754659 0.672607 0.681164
B3 B 0.6599(4) 0.61433(17) 0.7410(3)
H187 H 0.661238 0.590870 0.756285
B4 B 0.6586(3) 0.64629(17) 0.7768(2)
H188 H 0.660813 0.644532 0.815968
B5 B 0.6167(4) 0.67314(17) 0.7481(3)
H189 H 0.589070 0.688886 0.767971
B6 B 0.5984(3) 0.6589(2) 0.6939(3)
H190 H 0.557609 0.665269 0.676459
B7 B 0.6254(4) 0.62259(18) 0.6892(3)
H191 H 0.603881 0.604171 0.668470
B8 B 0.6956(4) 0.62512(18) 0.6896(3)
H192 H 0.721450 0.608660 0.669444
B9 B 0.7169(3) 0.6390(2) 0.7437(3)
H193 H 0.757596 0.631628 0.760234
B10 B 0.6894(4) 0.67675(19) 0.7488(2)
H194 H 0.710925 0.695440 0.768856
B11 B 0.6522(4) 0.68452(15) 0.6968(3)
H195 H 0.648753 0.708021 0.681831
C181 C 0.6569(3) 0.65352(14) 0.66134(19)
H196 H 0.656512 0.656467 0.622292
B12 B 0.6122(3) 0.43666(14) 0.9116(3)
H197 H 0.577004 0.422025 0.923569
B13 B 0.7187(3) 0.47889(17) 0.8768(2)
H198 H 0.755472 0.492560 0.865428
B14 B 0.6559(3) 0.42544(14) 0.8664(2)
H199 H 0.649976 0.403144 0.847946
B15 B 0.6815(3) 0.42837(15) 0.9226(2)
H200 H 0.693212 0.407300 0.942637
B16 B 0.6522(3) 0.45902(13) 0.9514(2)
H201 H 0.644040 0.459292 0.989981
B17 B 0.6073(3) 0.47640(14) 0.9103(3)
H202 H 0.568470 0.488505 0.921043
B18 B 0.6100(3) 0.45518(14) 0.8582(3)
H203 H 0.572591 0.453065 0.834005
B19 B 0.6771(3) 0.45777(15) 0.8368(2)
H204 H 0.684760 0.457785 0.798144
B20 B 0.7223(3) 0.44002(17) 0.8778(2)
H205 H 0.760777 0.427680 0.866939
B21 B 0.7197(3) 0.46067(17) 0.9308(2)
H206 H 0.756318 0.462220 0.955886
C182 C 0.6729(2) 0.49195(13) 0.9217(2)
H207 H 0.678001 0.514494 0.939636
B22 B 0.6482(3) 0.48940(14) 0.8638(2)
H208 H 0.637392 0.510399 0.843232
B23 B 0.0840(2) 0.46298(13) 0.93847(18)
H209 H 0.038580 0.469091 0.938810
B24 B 0.2204(2) 0.44475(11) 0.93818(17)
H210 H 0.265796 0.438695 0.937753
B25 B 0.1299(2) 0.47223(13) 0.98519(17)
H211 H 0.114948 0.484684 1.016799
B26 B 0.1362(2) 0.49075(11) 0.93050(17)
H212 H 0.125874 0.515393 0.925364
B27 B 0.1215(2) 0.46371(12) 0.88690(17)
H213 H 0.101425 0.470202 0.852435
B28 B 0.1075(2) 0.42890(13) 0.91382(19)
H214 H 0.078140 0.412091 0.897029
B29 B 0.1122(2) 0.43408(13) 0.97503(19)
H215 H 0.085619 0.420941 0.999673
B30 B 0.1817(2) 0.44376(12) 0.99013(17)
H216 H 0.201329 0.437084 1.024692
B31 B 0.1970(2) 0.47895(11) 0.96272(18)
H217 H 0.226686 0.495750 0.979139
B32 B 0.1922(2) 0.47339(11) 0.90126(17)
H218 H 0.219014 0.486094 0.876278
B33 B 0.1722(2) 0.43614(11) 0.89378(17)
H219 H 0.186587 0.423562 0.862103
B34 B 0.1675(2) 0.41682(12) 0.94563(19)
H220 H 0.177971 0.392146 0.950046
B35 B 0.6144(4) 0.4233(3) 0.4281(3)
H221 H 0.570877 0.432652 0.427579
B36 B 0.7428(4) 0.3984(2) 0.4291(3)
H222 H 0.787228 0.390477 0.429203
B37 B 0.6331(4) 0.3859(3) 0.4503(3)
H223 H 0.602348 0.369347 0.464568
B38 B 0.6506(4) 0.41825(18) 0.4807(2)
H224 H 0.630530 0.423548 0.514840
B39 B 0.6725(5) 0.4474(2) 0.4404(3)
H225 H 0.669305 0.472139 0.449046
B40 B 0.6578(4) 0.4314(3) 0.3823(3)
H226 H 0.643381 0.444901 0.351005
B41 B 0.6357(4) 0.3946(3) 0.3898(3)
H227 H 0.606065 0.383819 0.363661
B42 B 0.6899(5) 0.3740(2) 0.4172(3)
H228 H 0.697871 0.349539 0.408514
B43 B 0.6990(3) 0.38836(17) 0.4737(3)
H229 H 0.712591 0.373799 0.504131
B44 B 0.7230(4) 0.42554(19) 0.4672(3)
H230 H 0.753231 0.435657 0.493504
B45 B 0.7250(4) 0.4344(2) 0.4070(3)
H231 H 0.755596 0.450552 0.391546
C183 C 0.7029(3) 0.40194(17) 0.3812(2)
H232 H 0.721093 0.395683 0.346677
B46 B 1.2341(3) 0.63000(14) 0.7310(2)
H233 H 1.279229 0.625325 0.724690
B47 B 1.0980(3) 0.64214(14) 0.7546(2)
H234 H 1.053273 0.645752 0.763772
B48 B 1.1999(3) 0.66448(18) 0.7163(3)
H235 H 1.222839 0.683318 0.698585
B49 B 1.2143(3) 0.65501(16) 0.7735(3)
H236 H 1.246235 0.668027 0.794761
B50 B 1.2038(3) 0.61457(18) 0.7793(3)
H237 H 1.227659 0.599649 0.804563
B51 B 1.1827(3) 0.60232(17) 0.7219(3)
H238 H 1.193705 0.579451 0.707543
B52 B 1.1801(3) 0.6335(2) 0.6880(3)
H239 H 1.189982 0.631511 0.649923
B53 B 1.1293(3) 0.6579(2) 0.7040(3)
H240 H 1.104575 0.672381 0.678639
B54 B 1.1502(3) 0.67002(16) 0.7575(3)
H241 H 1.138581 0.693570 0.768563
B55 B 1.1529(3) 0.64137(19) 0.7992(2)
H242 H 1.145046 0.644925 0.837401
B56 B 1.1307(3) 0.60750(16) 0.7657(4)
H243 H 1.107544 0.588105 0.781619
B57 B 1.1184(3) 0.6194(2) 0.7088(3)
H244 H 1.086241 0.607624 0.686089
B58 B 1.2300(3) 0.65147(14) 1.0349(2)
H245 H 1.269209 0.643593 1.017995
B59 B 1.1145(4) 0.67531(15) 1.0847(2)
H246 H 1.075470 0.683791 1.101266
B60 B 1.1969(4) 0.68587(14) 1.0191(2)
H247 H 1.213466 0.701212 0.991318
B61 B 1.2309(3) 0.68249(13) 1.0746(2)
H248 H 1.270072 0.695255 1.083897
B62 B 1.2188(3) 0.64535(13) 1.0950(2)
H249 H 1.249903 0.633168 1.118149
B63 B 1.1779(3) 0.62562(13) 1.0510(2)
H250 H 1.182284 0.600575 1.045055
B64 B 1.1646(3) 0.65054(14) 1.0041(2)
H251 H 1.159976 0.642308 0.967037
B65 B 1.1261(4) 0.68066(14) 1.0260(3)
H252 H 1.094697 0.692561 1.002716
B66 B 1.1665(4) 0.70064(14) 1.0684(3)
H253 H 1.162510 0.725768 1.073796
B67 B 1.1800(3) 0.67566(16) 1.1159(2)
H254 H 1.185117 0.683704 1.153061
B68 B 1.1457(3) 0.64105(15) 1.1017(2)
H255 H 1.127929 0.626275 1.129622
B69 B 1.1123(3) 0.64389(14) 1.0461(2)
H256 H 1.072926 0.631144 1.037363
B70 B 0.9195(5) 0.5646(3) 0.2841(5)
H257 H 0.900038 0.541455 0.286468
B71 B 0.9767(6) 0.6323(3) 0.2776(5)
H258 H 0.996446 0.655292 0.275615
B72 B 0.8871(5) 0.5934(3) 0.2517(5)
H259 H 0.846393 0.589917 0.232165
B73 B 0.9494(5) 0.5774(3) 0.2324(4)
H260 H 0.950487 0.563285 0.199697
B74 B 0.9910(5) 0.5681(3) 0.2820(5)
H261 H 1.019772 0.547996 0.282671
B75 B 0.9551(5) 0.5794(3) 0.3315(4)
H262 H 0.959944 0.566905 0.365681
B76 B 0.8904(5) 0.5951(3) 0.3124(5)
H263 H 0.851709 0.593159 0.333532
C184 C 0.9040(5) 0.6276(3) 0.2794(5)
H264 H 0.874852 0.647520 0.278729
B77 B 0.9400(5) 0.6169(3) 0.2295(4)
H265 H 0.934756 0.629420 0.195482
B78 B 1.0050(5) 0.6010(3) 0.2479(4)
H266 H 1.043229 0.602998 0.226202
B79 B 1.0077(5) 0.6020(3) 0.3103(4)
H267 H 1.048196 0.604832 0.330289
B80 B 0.9463(6) 0.6189(3) 0.3295(4)
H268 H 0.945547 0.633023 0.362213
B81 B 0.8814(4) 0.6957(2) 0.3886(3)
H269 H 0.862485 0.672413 0.388343
B82 B 0.9351(4) 0.7644(2) 0.3880(4)
H270 H 0.952612 0.788009 0.387683
B83 B 0.8688(4) 0.7198(2) 0.3416(3)
H271 H 0.842139 0.713160 0.310470
B84 B 0.9359(4) 0.7050(3) 0.3527(4)
H272 H 0.955077 0.688166 0.328388
B85 B 0.9467(4) 0.7009(2) 0.4137(3)
H273 H 0.971719 0.682054 0.430111
B86 B 0.8880(4) 0.7153(2) 0.4407(3)
H274 H 0.874038 0.706035 0.475067
B87 B 0.8414(4) 0.7273(2) 0.3947(3)
H275 H 0.795013 0.726028 0.398385
B88 B 0.8706(4) 0.7568(2) 0.3650(4)
H276 H 0.844689 0.775676 0.349417
B89 B 0.9290(4) 0.7429(2) 0.3364(4)
H277 H 0.942568 0.751540 0.301467
B90 B 0.9773(4) 0.7324(3) 0.3802(4)
H278 H 1.023296 0.734393 0.374797
B91 B 0.9470(4) 0.7388(2) 0.4348(4)
H279 H 0.973898 0.745369 0.465924
B92 B 0.8818(4) 0.7541(2) 0.4264(3)
H280 H 0.863901 0.770397 0.452269
C185 C 0.7922(8) 0.8239(5) 0.4137(8)
H281 H 0.786544 0.831246 0.381416
H282 H 0.793906 0.801633 0.413629
H283 H 0.760981 0.830584 0.432774
N41 N 0.8844(8) 0.8468(5) 0.4447(8)
C186 C 0.8419(8) 0.8357(4) 0.4323(7)
O1 O 0.9115(6) 0.8183(4) 0.6025(6)
C187 C 0.8745(11) 0.8269(6) 0.6774(10)
H284 H 0.850577 0.840837 0.694641
H285 H 0.858545 0.806364 0.678095
H286 H 0.911936 0.826602 0.692128
C188 C 0.8782(9) 0.8370(5) 0.6288(8)
H287 H 0.840222 0.837688 0.614291
H288 H 0.893616 0.857927 0.628324
C189 C 0.9122(10) 0.8297(5) 0.5558(8)
H289 H 0.922516 0.851466 0.555419
H290 H 0.875480 0.827008 0.539671
C190 C 0.9553(13) 0.8109(7) 0.5339(11)
H291 H 0.959172 0.817049 0.501039
H292 H 0.991105 0.813699 0.550777
H293 H 0.944437 0.789432 0.535153
B93 B 0.6101(2) 0.96603(11) 0.96694(16)
H294 H 0.613403 0.945805 0.990746
B94 B 0.5980(2) 1.02687(13) 0.89511(17)
H295 H 0.593926 1.047032 0.871247
B95 B 0.5799(2) 0.96338(12) 0.91000(17)
H296 H 0.563100 0.941306 0.896078
B96 B 0.6520(2) 0.96996(11) 0.91703(16)
H297 H 0.683699 0.952425 0.907515
B97 B 0.6615(2) 0.99445(11) 0.96624(16)
H298 H 0.699640 0.993141 0.989682
B98 B 0.59592(19) 1.00288(11) 0.98851(16)
H299 H 0.589973 1.007161 1.026810
C191 C 0.54893(18) 0.98427(11) 0.95275(15)
H300 H 0.509429 0.975646 0.968257
B99 B 0.5468(2) 0.99807(14) 0.89640(17)
H301 H 0.508177 0.998941 0.873510
B100 B 0.6129(2) 0.99009(12) 0.87371(17)
H302 H 0.618832 0.985911 0.835376
B101 B 0.6639(2) 1.00944(11) 0.90829(17)
H303 H 0.703679 1.018089 0.893293
B102 B 0.6284(2) 1.02966(12) 0.95237(17)
H304 H 0.644514 1.051839 0.966468
B103 B 0.5563(2) 1.02263(12) 0.94491(16)
H305 H 0.523986 1.039848 0.954240
B104 B 0.3226(3) 0.25230(16) 0.8503(2)
H306 H 0.304945 0.230279 0.862961
B105 B 0.3761(3) 0.31733(15) 0.8117(2)
H307 H 0.393971 0.339255 0.798845
B106 B 0.3662(3) 0.25485(14) 0.8032(2)
H308 H 0.378291 0.233783 0.783863
B107 B 0.3931(3) 0.26145(14) 0.8603(2)
H309 H 0.422602 0.245768 0.879496
C192 C 0.3409(3) 0.28113(13) 0.8889(2)
H310 H 0.335375 0.278753 0.927641
B108 B 0.2845(3) 0.28554(15) 0.8506(2)
H311 H 0.240900 0.286234 0.863781
B109 B 0.3006(3) 0.26816(18) 0.7965(2)
H312 H 0.268220 0.256901 0.773367
B110 B 0.3571(3) 0.28823(17) 0.7732(2)
H313 H 0.362487 0.290429 0.734400
B111 B 0.4146(3) 0.28427(15) 0.8113(2)
H314 H 0.458245 0.283554 0.798195
B112 B 0.3984(3) 0.30138(14) 0.8650(2)
H315 H 0.431270 0.312515 0.887775
B113 B 0.3304(3) 0.31589(14) 0.8591(2)
H316 H 0.317614 0.337003 0.878056
B114 B 0.3051(3) 0.30787(16) 0.8024(2)
H317 H 0.275147 0.323395 0.783373
B115 B 0.9963(5) 0.7380(3) 0.9742(4)
H318 H 1.028247 0.750047 0.996790
B116 B 0.9004(5) 0.7016(3) 0.9054(5)
H319 H 0.868516 0.689614 0.882698
B117 B 0.9777(6) 0.7510(2) 0.9172(5)
H320 H 0.997487 0.771681 0.901886
B118 B 0.9293(6) 0.7533(3) 0.9627(5)
H321 H 0.916325 0.775707 0.977774
B119 B 0.9374(6) 0.7203(3) 0.9977(3)
H322 H 0.929826 0.720570 1.036325
B120 B 0.9901(6) 0.6981(3) 0.9738(4)
H323 H 1.018099 0.683443 0.996361
B121 B 1.0116(4) 0.7172(3) 0.9252(5)
H324 H 1.056314 0.715327 0.914965
B122 B 0.9603(6) 0.7192(3) 0.8820(3)
H325 H 0.968545 0.718813 0.843496
B123 B 0.9068(5) 0.7417(3) 0.9060(5)
H326 H 0.878833 0.756304 0.883462
B124 B 0.8815(4) 0.7227(3) 0.9558(5)
H327 H 0.836971 0.724590 0.966527
B125 B 0.9198(6) 0.6885(3) 0.9624(5)
H328 H 0.900696 0.667512 0.977451
B126 B 0.9683(6) 0.6863(2) 0.9165(5)
H329 H 0.981984 0.664225 0.901005
N42 N 1.0356(3) 0.60603(13) 0.57234(19)
C193 C 1.0630(3) 0.58642(14) 0.58595(18)
C194 C 1.0955(3) 0.56031(14) 0.6026(2)
H330 H 1.105522 0.563053 0.635919
H331 H 1.129638 0.558598 0.584488
H332 H 1.073276 0.541740 0.598658
N43 N 1.1507(6) 0.4930(3) 0.6404(4)
C195 C 1.1837(5) 0.4841(3) 0.6132(4)
C196 C 1.2151(6) 0.4696(4) 0.5783(5)
H333 H 1.233215 0.451491 0.591537
H334 H 1.243582 0.483683 0.567046
H335 H 1.190190 0.463724 0.552021
N44 N 0.8353(4) 0.6134(3) 0.4538(4)
C197 C 0.8803(5) 0.6075(3) 0.4633(5)
C198 C 0.9372(5) 0.5970(3) 0.4702(5)
H336 H 0.937159 0.575267 0.477440
H337 H 0.954960 0.608248 0.496254
H338 H 0.958011 0.600555 0.441479
N45 N 0.2746(6) 0.3973(2) 0.8239(4)
C199 C 0.2423(8) 0.3783(3) 0.8297(4)
C200 C 0.1959(7) 0.3557(3) 0.8357(5)
H339 H 0.161629 0.363462 0.820401
H340 H 0.189604 0.352622 0.869176
H341 H 0.206147 0.336313 0.821271
N46 N 0.4802(5) 0.5858(2) 0.4408(4)
C201 C 0.5036(4) 0.5726(2) 0.4703(4)
C202 C 0.5328(7) 0.5552(4) 0.5049(5)
H342 H 0.507780 0.539742 0.517576
H343 H 0.546033 0.568565 0.530331
H344 H 0.564842 0.545159 0.490720
N47 N 0.8607(4) 0.67839(17) 1.0840(3)
C203 C 0.9020(5) 0.6655(2) 1.0730(4)
C204 C 0.9525(5) 0.6503(2) 1.0575(6)
H345 H 0.963957 0.634840 1.080629
H346 H 0.982476 0.665275 1.054438
H347 H 0.945050 0.640521 1.027079
N48 N 0.7545(8) 0.7907(4) 1.0254(4)
C205 C 0.7184(10) 0.8047(5) 1.0398(7)
C206 C 0.6717(9) 0.8158(4) 1.0554(8)
H348 H 0.640661 0.809814 1.034366
H349 H 0.674154 0.838051 1.056596
H350 H 0.665367 0.807900 1.086987
S1 S 0.6342(2) 0.56423(11) 0.33630(17)
N49 N 0.6121(5) 0.5500(3) 0.2878(4)
O2 O 0.6123(4) 0.59005(18) 0.3589(3)
O3 O 0.5736(5) 0.6027(2) 0.2608(4)
O4 O 0.6940(4) 0.5642(4) 0.3278(6)
F1 F 0.5744(5) 0.5328(3) 0.3898(5)
F2 F 0.6498(4) 0.5089(2) 0.3572(3)
O5 O 0.5700(5) 0.5547(3) 0.2156(3)
F3 F 0.6494(5) 0.5416(2) 0.4176(3)
C207 C 0.6259(5) 0.5330(2) 0.3768(4)
S2 S 0.5672(2) 0.57002(12) 0.25940(19)
C208 C 0.4951(2) 0.56478(14) 0.2799(2)
F4 F 0.4786(4) 0.53576(18) 0.2767(4)
F5 F 0.4903(3) 0.5730(2) 0.3249(3)
F6 F 0.4582(2) 0.5813(3) 0.2549(4)
O6 O 0.8540(7) 0.9187(4) 0.7733(6)
H351 H 0.873330 0.904406 0.762721
H352 H 0.876987 0.932965 0.778484
Fe1 Fe 0.36937(3) 0.53921(2) 0.84230(2)
Fe2 Fe 0.64340(3) 0.68643(2) 0.40624(2)
Fe3 Fe 0.70979(3) 0.83886(2) 0.84324(2)
Fe4 Fe 0.95491(2) 0.53925(2) 0.83461(2)
P1 P 0.44502(4) 0.71772(2) 0.67604(4)
H1 H 0.4949(8) 0.7048(8) 0.6853(14)
N1 N 0.32086(14) 0.51323(7) 0.80220(12)
N2 N 0.35367(14) 0.56805(8) 0.79050(12)
N3 N 0.6092(2) 0.71253(9) 0.45329(14)
N4 N 0.6680(2) 0.72663(10) 0.38321(14)
N5 N 0.63299(15) 0.82500(7) 0.82573(11)
N6 N 0.66879(16) 0.85663(8) 0.89610(12)
N7 N 0.41156(14) 0.70156(8) 0.71986(13)
N8 N 0.43720(15) 0.70427(8) 0.62173(13)
N9 N 0.47454(15) 0.75185(8) 0.68419(13)
N10 N 0.37500(15) 0.73979(8) 0.66324(14)
C1 C 0.30641(18) 0.48407(10) 0.80874(16)
H2 H 0.320478 0.473711 0.835793
C2 C 0.2714(2) 0.46844(11) 0.77708(17)
H3 H 0.262570 0.447690 0.782487
C3 C 0.2497(2) 0.48301(11) 0.73834(17)
H4 H 0.225171 0.472697 0.717024
C4 C 0.26427(18) 0.51315(11) 0.73070(16)
H5 H 0.250173 0.523732 0.703862
C5 C 0.29971(17) 0.52753(10) 0.76289(15)
C6 C 0.31966(18) 0.55828(10) 0.75832(15)
H6 H 0.308169 0.570775 0.732654
C7 C 0.37668(17) 0.59810(9) 0.78408(14)
C8 C 0.41283(19) 0.60331(10) 0.74748(15)
H7 H 0.422886 0.587050 0.727422
C9 C 0.43401(19) 0.63192(10) 0.74028(16)
H8 H 0.458613 0.635299 0.715155
C10 C 0.41988(18) 0.65601(9) 0.76935(15)
C11 C 0.38353(19) 0.65036(10) 0.80599(16)
H9 H 0.373523 0.666525 0.826232
C12 C 0.36185(19) 0.62160(9) 0.81328(15)
H10 H 0.336988 0.618089 0.838185
C13 C 0.44169(19) 0.68746(10) 0.76012(16)
H11 H 0.437164 0.700214 0.788403
H12 H 0.482036 0.686356 0.753505
C14 C 0.46902(19) 0.67827(9) 0.60465(15)
H13 H 0.442663 0.662285 0.593705
H14 H 0.491861 0.669755 0.630944
C15 C 0.50697(19) 0.68659(9) 0.56497(15)
C16 C 0.56003(19) 0.69846(10) 0.57378(15)
H15 H 0.573012 0.700822 0.605350
C17 C 0.5943(2) 0.70692(10) 0.53773(15)
H16 H 0.630672 0.714718 0.544270
C18 C 0.5745(2) 0.70377(11) 0.49162(15)
C19 C 0.5216(2) 0.69188(13) 0.48227(17)
H17 H 0.508338 0.689740 0.450727
C20 C 0.4884(2) 0.68324(12) 0.51854(16)
H18 H 0.452425 0.674909 0.511925
C21 C 0.6175(3) 0.74143(12) 0.4484(2)
H19 H 0.602650 0.755866 0.469548
C22 C 0.6505(3) 0.75052(12) 0.40927(19)
C23 C 0.6631(4) 0.78055(14) 0.3992(2)
H20 H 0.648809 0.796737 0.417453
C24 C 0.6972(4) 0.78612(15) 0.3618(2)
H21 H 0.708075 0.806361 0.354725
C25 C 0.7156(3) 0.76236(13) 0.3347(2)
H22 H 0.738185 0.766184 0.308400
C26 C 0.7005(3) 0.73237(13) 0.34615(18)
H23 H 0.713371 0.715966 0.327612
C27 C 0.53377(19) 0.75643(12) 0.67459(16)
H24 H 0.537136 0.767666 0.644680
H25 H 0.552022 0.736400 0.670923
C28 C 0.56354(19) 0.77398(10) 0.71355(15)
C29 C 0.5720(2) 0.76119(10) 0.75732(18)
H26 H 0.560327 0.740864 0.762577
C30 C 0.5972(2) 0.77729(9) 0.79368(17)
H27 H 0.603591 0.767985 0.823426
C31 C 0.61295(18) 0.80692(9) 0.78633(14)
C32 C 0.6052(3) 0.82020(13) 0.74326(17)
H28 H 0.616620 0.840613 0.738262
C33 C 0.5805(3) 0.80357(14) 0.70690(17)
H29 H 0.575145 0.812753 0.676944
C34 C 0.59509(19) 0.83356(9) 0.85385(14)
H30 H 0.556963 0.828368 0.848397
C35 C 0.61266(18) 0.85143(9) 0.89423(14)
C36 C 0.5768(2) 0.86200(11) 0.92737(16)
H31 H 0.537962 0.857855 0.924635
C37 C 0.5982(2) 0.87886(12) 0.96497(17)
H32 H 0.574338 0.886387 0.988483
C38 C 0.6546(2) 0.88432(13) 0.96719(18)
H33 H 0.670216 0.895873 0.992442
C39 C 0.6887(2) 0.87310(12) 0.93288(17)
H34 H 0.727685 0.877105 0.935227
C40 C 0.35246(19) 0.70781(13) 0.7280(2)
H35 H 0.348437 0.722723 0.753705
H36 H 0.332554 0.688911 0.736318
C41 C 0.32968(19) 0.72054(12) 0.6824(2)
H37 H 0.319812 0.703912 0.660272
H38 H 0.295868 0.732886 0.687779
C42 C 0.3697(2) 0.74343(12) 0.61170(18)
H39 H 0.392686 0.760708 0.601034
H40 H 0.330317 0.747088 0.601957
C43 C 0.3905(2) 0.71386(12) 0.59156(19)
H41 H 0.360509 0.698344 0.591383
H42 H 0.402796 0.716860 0.558972
C44 C 0.3809(2) 0.76947(10) 0.6882(2)
H43 H 0.373493 0.767059 0.721998
H44 H 0.354437 0.784628 0.674693
C45 C 0.4406(2) 0.77933(10) 0.6811(2)
H45 H 0.444333 0.789024 0.649944
H46 H 0.452502 0.794066 0.705603
P2 P 0.64463(4) 0.52817(2) 0.62383(4)
H47 H 0.6446(17) 0.5557(4) 0.6443(11)
N11 N 0.38453(15) 0.50681(8) 0.88936(13)
N12 N 0.43672(14) 0.52136(7) 0.81489(12)
N13 N 0.92032(12) 0.52819(7) 0.77366(11)
N14 N 1.02297(13) 0.52745(7) 0.80068(11)
N15 N 0.61222(18) 0.64798(9) 0.42952(12)
N16 N 0.5742(2) 0.68594(9) 0.36823(13)
N17 N 0.57588(13) 0.52399(8) 0.62770(12)
N18 N 0.68753(15) 0.51207(8) 0.66298(12)
N19 N 0.67028(16) 0.54092(7) 0.57336(12)
N20 N 0.64303(13) 0.48798(7) 0.59297(12)
C46 C 0.3554(2) 0.50000(11) 0.92777(16)
H48 H 0.321586 0.510550 0.933320
C47 C 0.3735(2) 0.47809(11) 0.95926(19)
H49 H 0.352479 0.474091 0.986433
C48 C 0.4213(2) 0.46207(13) 0.9517(2)
H50 H 0.433846 0.446997 0.973412
C49 C 0.4512(2) 0.46824(12) 0.9117(2)
H51 H 0.484417 0.457350 0.905386
C50 C 0.43164(18) 0.49059(10) 0.88127(17)
C51 C 0.45933(19) 0.49960(10) 0.83892(17)
H52 H 0.492617 0.489924 0.829281
C52 C 0.46232(16) 0.52937(9) 0.77148(14)
C53 C 0.43494(18) 0.52267(11) 0.72941(15)
H53 H 0.399329 0.513142 0.729316
C54 C 0.45961(17) 0.52989(11) 0.68760(16)
H54 H 0.440511 0.525533 0.658763
C55 C 0.51156(17) 0.54333(10) 0.68710(14)
C56 C 0.53811(17) 0.55012(10) 0.72958(14)
H55 H 0.573657 0.559708 0.729558
C57 C 0.51427(17) 0.54331(9) 0.77191(15)
H56 H 0.533062 0.548066 0.800739
C58 C 0.53919(18) 0.54950(11) 0.64075(15)
H57 H 0.510110 0.552490 0.615876
H58 H 0.561505 0.568406 0.643292
C59 C 0.69125(18) 0.52421(12) 0.71132(15)
H59 H 0.670004 0.510818 0.732356
H60 H 0.673953 0.544652 0.711951
C60 C 0.75099(17) 0.52639(10) 0.72926(14)
C61 C 0.78735(17) 0.54723(9) 0.71051(14)
H61 H 0.774132 0.561083 0.687180
C62 C 0.84258(16) 0.54820(9) 0.72521(13)
H62 H 0.867267 0.562505 0.711806
C63 C 0.86204(15) 0.52833(8) 0.75948(12)
C64 C 0.82569(17) 0.50772(9) 0.77965(14)
H63 H 0.838626 0.494309 0.803687
C65 C 0.77076(17) 0.50701(11) 0.76434(14)
H64 H 0.745839 0.492958 0.778074
C66 C 0.95472(16) 0.52095(9) 0.74136(14)
H65 H 0.942133 0.515782 0.710495
C67 C 1.01315(16) 0.52110(9) 0.75449(13)
C68 C 1.05601(18) 0.51518(11) 0.72362(15)
H66 H 1.047925 0.510651 0.691569
C69 C 1.11082(19) 0.51603(12) 0.74070(16)
H67 H 1.141009 0.512694 0.720300
C70 C 1.12059(18) 0.52174(11) 0.78728(15)
H68 H 1.157798 0.521852 0.799657
C71 C 1.07641(16) 0.52738(10) 0.81659(15)
H69 H 1.084064 0.531321 0.848897
C72 C 0.7034(2) 0.56919(10) 0.57220(17)
H70 H 0.742760 0.564156 0.565526
H71 H 0.702739 0.579137 0.603349
C73 C 0.68114(19) 0.59084(9) 0.53544(16)
C74 C 0.6358(2) 0.60923(10) 0.54391(16)
H72 H 0.619684 0.608961 0.574027
C75 C 0.6136(2) 0.62795(11) 0.50961(15)
H73 H 0.582817 0.640666 0.516502
C76 C 0.6354(2) 0.62847(9) 0.46549(15)
C77 C 0.6808(2) 0.61030(11) 0.45605(18)
H74 H 0.696242 0.610449 0.425667
C78 C 0.7036(2) 0.59195(11) 0.49072(18)
H75 H 0.735212 0.579800 0.484057
C79 C 0.5670(2) 0.63949(11) 0.40796(16)
H76 H 0.549321 0.620746 0.415043
C80 C 0.5443(2) 0.65976(12) 0.37257(17)
C81 C 0.4970(2) 0.65355(14) 0.34525(19)
H77 H 0.477924 0.634733 0.348253
C82 C 0.4781(3) 0.67523(16) 0.3135(2)
H78 H 0.445507 0.671641 0.294610
C83 C 0.5069(3) 0.70194(16) 0.3098(2)
H79 H 0.494377 0.717096 0.288239
C84 C 0.5543(3) 0.70689(13) 0.33739(18)
H80 H 0.573636 0.725647 0.334577
C85 C 0.54824(18) 0.49621(10) 0.61382(17)
H81 H 0.528779 0.498820 0.583024
H82 H 0.520396 0.490349 0.637293
C86 C 0.59358(18) 0.47183(10) 0.61066(18)
H83 H 0.601857 0.462819 0.641903
H84 H 0.581716 0.455445 0.588776
C87 C 0.69618(18) 0.47298(10) 0.60574(17)
H85 H 0.726637 0.480652 0.586067
H86 H 0.693109 0.450697 0.601484
C88 C 0.7075(2) 0.48078(10) 0.65710(17)
H87 H 0.687129 0.466708 0.677732
H88 H 0.747921 0.479387 0.664905
C89 C 0.6376(2) 0.49403(10) 0.54104(15)
H89 H 0.598443 0.498890 0.531910
H90 H 0.649771 0.476147 0.522840
C90 C 0.6754(2) 0.52102(10) 0.53262(16)
H91 H 0.714523 0.514253 0.529474
H92 H 0.663569 0.531824 0.503542
P3 P 0.67465(5) 0.64911(2) 0.93188(4)
H93 H 0.6660(18) 0.6506(11) 0.8852(5)
N21 N 0.30629(15) 0.55624(8) 0.87749(12)
N22 N 0.41125(15) 0.56762(8) 0.88420(13)
N23 N 0.72818(15) 0.80308(8) 0.88204(12)
N24 N 0.78306(17) 0.85169(9) 0.86959(15)
N25 N 0.88588(13) 0.54705(7) 0.86829(10)
N26 N 0.94056(12) 0.49765(7) 0.85836(10)
N27 N 0.66322(17) 0.61199(8) 0.93640(14)
N28 N 0.62186(16) 0.67345(8) 0.93837(14)
N29 N 0.74017(15) 0.66216(8) 0.93201(13)
N30 N 0.68176(15) 0.64919(8) 1.00061(12)
C91 C 0.25118(19) 0.55097(11) 0.87129(17)
H94 H 0.239117 0.537614 0.846878
C92 C 0.2116(2) 0.56427(11) 0.89910(18)
H95 H 0.173091 0.560271 0.893212
C93 C 0.2275(2) 0.58304(12) 0.93484(19)
H96 H 0.200453 0.592024 0.954319
C94 C 0.2841(2) 0.58890(13) 0.94249(19)
H97 H 0.296425 0.601774 0.967433
C95 C 0.3223(2) 0.57548(10) 0.91278(16)
C96 C 0.3815(2) 0.58093(11) 0.91540(17)
H98 H 0.397983 0.593668 0.938867
C97 C 0.47039(18) 0.57374(9) 0.88683(16)
C98 C 0.5067(2) 0.55390(11) 0.9100(2)
H99 H 0.492613 0.536094 0.924401
C99 C 0.5632(2) 0.55996(10) 0.9122(2)
H100 H 0.587682 0.545828 0.927291
C100 C 0.58490(19) 0.58577(9) 0.89314(17)
C101 C 0.5488(2) 0.60520(12) 0.86895(19)
H101 H 0.563300 0.622896 0.854529
C102 C 0.4915(2) 0.59929(11) 0.86534(18)
H102 H 0.467319 0.612689 0.848321
C103 C 0.6466(2) 0.59262(11) 0.89624(19)
H103 H 0.667409 0.573199 0.898545
H104 H 0.657617 0.602825 0.866900
C104 C 0.6016(2) 0.69296(10) 0.89947(19)
H105 H 0.561873 0.697979 0.904334
H106 H 0.603767 0.681461 0.869697
C105 C 0.63427(18) 0.72216(9) 0.89499(16)
C106 C 0.6201(2) 0.74813(10) 0.9198(2)
H107 H 0.588829 0.747778 0.939689
C107 C 0.6512(2) 0.77459(11) 0.91583(18)
H108 H 0.641539 0.792198 0.933152
C108 C 0.69622(18) 0.77524(9) 0.88672(15)
C109 C 0.71124(19) 0.74971(10) 0.86203(15)
H109 H 0.742935 0.750046 0.842633
C110 C 0.67957(19) 0.72363(10) 0.86588(16)
H110 H 0.689162 0.706219 0.848053
C111 C 0.7736(2) 0.80527(12) 0.90698(17)
H111 H 0.785183 0.789482 0.927773
C112 C 0.8055(2) 0.83222(12) 0.90218(18)
C113 C 0.8553(2) 0.83834(16) 0.9264(2)
H112 H 0.869686 0.824303 0.948964
C114 C 0.8835(3) 0.86454(15) 0.9176(3)
H113 H 0.917123 0.869203 0.934442
C115 C 0.8623(2) 0.88425(14) 0.8838(2)
H114 H 0.881878 0.902380 0.876536
C116 C 0.8118(2) 0.87723(12) 0.8604(2)
H115 H 0.797386 0.890918 0.837318
C117 C 0.7736(2) 0.66144(10) 0.88974(17)
H116 H 0.801398 0.678071 0.891460
H117 H 0.748794 0.665217 0.862022
C118 C 0.80393(19) 0.63141(9) 0.88303(15)
C119 C 0.85542(19) 0.62634(10) 0.90467(15)
H118 H 0.872583 0.642005 0.922896
C120 C 0.88224(18) 0.59858(9) 0.90002(14)
H119 H 0.917483 0.595225 0.915172
C121 C 0.85747(16) 0.57573(8) 0.87318(13)
C122 C 0.80666(17) 0.58049(9) 0.85052(15)
H120 H 0.789842 0.564930 0.831867
C123 C 0.78046(19) 0.60857(10) 0.85552(15)
H121 H 0.745693 0.612112 0.839685
C124 C 0.86530(16) 0.52399(8) 0.89008(13)
H122 H 0.832919 0.525776 0.908484
C125 C 0.89406(15) 0.49539(8) 0.88499(13)
C126 C 0.87621(18) 0.46838(9) 0.90366(16)
H123 H 0.844400 0.467680 0.922907
C127 C 0.9060(2) 0.44205(9) 0.89363(17)
H124 H 0.894719 0.422962 0.905843
C128 C 0.9521(2) 0.44415(9) 0.86559(17)
H125 H 0.972381 0.426376 0.857708
C129 C 0.96859(18) 0.47212(9) 0.84911(14)
H126 H 1.000951 0.473314 0.830575
C130 C 0.6624(2) 0.59722(10) 0.98204(18)
H127 H 0.679689 0.576800 0.980493
H128 H 0.623606 0.595009 0.992675
C131 C 0.6958(2) 0.61765(10) 1.01536(17)
H129 H 0.685117 0.614091 1.048252
H130 H 0.736359 0.613813 1.012726
C132 C 0.6274(2) 0.65934(11) 1.01835(18)
H131 H 0.631742 0.667352 1.050703
H132 H 0.600404 0.642274 1.018432
C133 C 0.6076(2) 0.68408(11) 0.98505(18)
H133 H 0.566742 0.687099 0.987174
H134 H 0.626638 0.703537 0.992418
C134 C 0.72818(19) 0.67071(11) 1.01289(17)
H135 H 0.744151 0.666100 1.044469
H136 H 0.714478 0.691953 1.012612
C135 C 0.77132(19) 0.66622(11) 0.97601(16)
H137 H 0.796088 0.684194 0.974328
H138 H 0.794439 0.648068 0.983189
P4 P 0.88235(6) 0.70166(3) 0.66044(4)
H139 H 0.8317(8) 0.6900(9) 0.6686(17)
N31 N 0.68308(19) 0.66253(9) 0.35818(13)
N32 N 0.71585(19) 0.68204(8) 0.43955(12)
N33 N 0.96944(14) 0.58162(7) 0.81526(11)
N34 N 0.99836(13) 0.55322(7) 0.89032(11)
N35 N 0.74450(16) 0.82451(8) 0.78499(13)
N36 N 0.69821(17) 0.87566(8) 0.80335(13)
N37 N 0.8527(2) 0.72641(10) 0.6248(2)
N38 N 0.9074(2) 0.66924(8) 0.63956(14)
N39 N 0.89807(18) 0.71126(14) 0.71553(17)
N40 N 0.9537(2) 0.71953(10) 0.64327(18)
C136 C 0.6633(2) 0.65157(12) 0.31698(16)
H140 H 0.626009 0.656104 0.307309
C137 C 0.6960(2) 0.63377(12) 0.28811(18)
H141 H 0.680926 0.626543 0.259044
C138 C 0.7492(3) 0.62666(13) 0.30113(18)
H142 H 0.771618 0.614448 0.281585
C139 C 0.7702(3) 0.63774(13) 0.34407(18)
H143 H 0.807321 0.633151 0.354301
C140 C 0.7365(2) 0.65527(12) 0.37105(16)
C141 C 0.7529(2) 0.66731(11) 0.41724(17)
H144 H 0.789498 0.664324 0.430112
C142 C 0.7332(2) 0.69364(10) 0.48463(15)
C143 C 0.7403(2) 0.67441(11) 0.52222(15)
H145 H 0.732537 0.653321 0.518975
C144 C 0.7589(2) 0.68609(11) 0.56490(17)
H146 H 0.763324 0.672819 0.591038
C145 C 0.7710(2) 0.71625(11) 0.57033(17)
C146 C 0.7607(3) 0.73518(12) 0.5332(2)
H147 H 0.766740 0.756416 0.536763
C147 C 0.7415(3) 0.72395(12) 0.4905(2)
H148 H 0.734189 0.737485 0.465068
C148 C 0.7927(3) 0.72878(13) 0.6168(2)
H149 H 0.781965 0.750485 0.618716
H150 H 0.773830 0.717927 0.642389
C149 C 0.8812(2) 0.63982(10) 0.64829(16)
H151 H 0.886396 0.626476 0.620765
H152 H 0.840558 0.642837 0.651952
C150 C 0.9051(2) 0.62422(9) 0.69179(14)
C151 C 0.8806(2) 0.62865(10) 0.73489(15)
H153 H 0.848435 0.641204 0.736622
C152 C 0.90212(19) 0.61512(9) 0.77562(15)
H154 H 0.884951 0.618483 0.804870
C153 C 0.94844(17) 0.59686(8) 0.77305(13)
C154 C 0.97440(18) 0.59267(9) 0.73071(14)
H155 H 1.007229 0.580602 0.729400
C155 C 0.95278(19) 0.60594(9) 0.69050(14)
H156 H 0.970477 0.602626 0.661465
C156 C 1.00385(19) 0.59625(9) 0.84214(15)
H157 H 1.017196 0.615843 0.833946
C157 C 1.02146(18) 0.58148(9) 0.88569(14)
C158 C 1.0539(2) 0.59487(11) 0.92055(16)
H158 H 1.069639 0.614436 0.915956
C159 C 1.06315(19) 0.57948(10) 0.96225(16)
H159 H 1.085603 0.588180 0.986703
C160 C 1.03934(17) 0.55141(10) 0.96766(15)
H160 H 1.044563 0.540610 0.996312
C161 C 1.00752(16) 0.53875(9) 0.93116(13)
H161 H 0.991705 0.519153 0.935325
C162 C 0.8584(3) 0.71125(15) 0.7531(2)
H162 H 0.878103 0.705158 0.782552
H163 H 0.829515 0.695659 0.746042
C163 C 0.8291(2) 0.74170(12) 0.76129(17)
C164 C 0.8515(2) 0.76339(13) 0.79175(18)
H164 H 0.886309 0.759681 0.807360
C165 C 0.8234(2) 0.79045(12) 0.79964(18)
H165 H 0.838992 0.805066 0.820723
C166 C 0.77329(19) 0.79617(10) 0.77715(16)
C167 C 0.7497(2) 0.77464(10) 0.74663(16)
H166 H 0.714876 0.778427 0.731056
C168 C 0.7781(2) 0.74764(11) 0.73947(17)
H167 H 0.762032 0.732807 0.719005
C169 C 0.7423(2) 0.84311(10) 0.75067(18)
H168 H 0.757555 0.838057 0.721222
C170 C 0.7157(3) 0.87216(10) 0.75813(17)
C171 C 0.7095(3) 0.89439(11) 0.7249(2)
H169 H 0.722683 0.891150 0.694072
C172 C 0.6840(3) 0.92172(12) 0.7361(2)
H170 H 0.678481 0.937253 0.713326
C173 C 0.6670(3) 0.92552(11) 0.78207(19)
H171 H 0.650468 0.944147 0.791355
C174 C 0.6740(2) 0.90225(10) 0.81417(17)
H172 H 0.661185 0.905137 0.845152
C175 C 0.8869(4) 0.74691(18) 0.5980(4)
H173 H 0.868019 0.766744 0.593235
H174 H 0.895633 0.738114 0.567105
C176 C 0.9422(3) 0.75050(14) 0.6304(3)
H175 H 0.973207 0.759423 0.612654
H176 H 0.935238 0.763214 0.658337
C177 C 0.9768(4) 0.69951(14) 0.6089(3)
H177 H 1.017723 0.702576 0.607528
H178 H 0.960177 0.703933 0.577471
C178 C 0.9645(3) 0.66756(12) 0.6224(3)
H179 H 0.966597 0.653770 0.595050
H180 H 0.990829 0.660387 0.647361
C179 C 0.9885(3) 0.71705(18) 0.6887(2)
H181 H 1.001178 0.695861 0.693931
H182 H 1.021716 0.730447 0.687608
C180 C 0.9502(3) 0.7270(2) 0.7270(3)
H183 H 0.965135 0.720817 0.758288
H184 H 0.944921 0.749329 0.726604
loop_
_geom_bond_atom_site_label_1
_geom_bond_atom_site_label_2
_geom_bond_site_symmetry_1
_geom_bond_site_symmetry_2
Fe1 N1 1_555 1_555
Fe2 N3 1_555 1_555
Fe3 N5 1_555 1_555
Fe4 N13 1_555 1_555
P1 H1 1_555 1_555
N1 C1 1_555 1_555
N2 Fe1 1_555 1_555
N3 C18 1_555 1_555
N4 Fe2 1_555 1_555
N5 C31 1_555 1_555
N6 Fe3 1_555 1_555
N7 P1 1_555 1_555
N8 P1 1_555 1_555
N9 P1 1_555 1_555
N10 P1 1_555 1_555
C1 H2 1_555 1_555
C2 C1 1_555 1_555
H3 C2 1_555 1_555
C3 C2 1_555 1_555
H4 C3 1_555 1_555
C4 C3 1_555 1_555
H5 C4 1_555 1_555
C5 N1 1_555 1_555
C6 N2 1_555 1_555
H6 C6 1_555 1_555
C7 N2 1_555 1_555
C8 C7 1_555 1_555
H7 C8 1_555 1_555
C9 C8 1_555 1_555
H8 C9 1_555 1_555
C10 C9 1_555 1_555
C11 C10 1_555 1_555
H9 C11 1_555 1_555
C12 C7 1_555 1_555
H10 C12 1_555 1_555
C13 N7 1_555 1_555
H11 C13 1_555 1_555
H12 C13 1_555 1_555
C14 N8 1_555 1_555
H13 C14 1_555 1_555
H14 C14 1_555 1_555
C15 C14 1_555 1_555
C16 C15 1_555 1_555
H15 C16 1_555 1_555
C17 C16 1_555 1_555
H16 C17 1_555 1_555
C18 C17 1_555 1_555
C19 C18 1_555 1_555
H17 C19 1_555 1_555
C20 C15 1_555 1_555
H18 C20 1_555 1_555
C21 N3 1_555 1_555
H19 C21 1_555 1_555
C22 N4 1_555 1_555
C23 C22 1_555 1_555
H20 C23 1_555 1_555
C24 C23 1_555 1_555
H21 C24 1_555 1_555
C25 C24 1_555 1_555
H22 C25 1_555 1_555
C26 N4 1_555 1_555
H23 C26 1_555 1_555
C27 N9 1_555 1_555
H24 C27 1_555 1_555
H25 C27 1_555 1_555
C28 C27 1_555 1_555
C29 C28 1_555 1_555
H26 C29 1_555 1_555
C30 C29 1_555 1_555
H27 C30 1_555 1_555
C31 C30 1_555 1_555
C32 C31 1_555 1_555
H28 C32 1_555 1_555
C33 C28 1_555 1_555
H29 C33 1_555 1_555
C34 N5 1_555 1_555
H30 C34 1_555 1_555
C35 N6 1_555 1_555
C36 C35 1_555 1_555
H31 C36 1_555 1_555
C37 C36 1_555 1_555
H32 C37 1_555 1_555
C38 C37 1_555 1_555
H33 C38 1_555 1_555
C39 N6 1_555 1_555
H34 C39 1_555 1_555
C40 N7 1_555 1_555
H35 C40 1_555 1_555
H36 C40 1_555 1_555
C41 N10 1_555 1_555
H37 C41 1_555 1_555
H38 C41 1_555 1_555
C42 N10 1_555 1_555
H39 C42 1_555 1_555
H40 C42 1_555 1_555
C43 N8 1_555 1_555
H41 C43 1_555 1_555
H42 C43 1_555 1_555
C44 N10 1_555 1_555
H43 C44 1_555 1_555
H44 C44 1_555 1_555
C45 N9 1_555 1_555
H45 C45 1_555 1_555
H46 C45 1_555 1_555
P2 H47 1_555 1_555
N11 Fe1 1_555 1_555
N12 Fe1 1_555 1_555
N13 C63 1_555 1_555
N14 Fe4 1_555 1_555
N15 Fe2 1_555 1_555
N16 Fe2 1_555 1_555
N17 P2 1_555 1_555
N18 P2 1_555 1_555
N19 P2 1_555 1_555
N20 P2 1_555 1_555
C46 N11 1_555 1_555
H48 C46 1_555 1_555
C47 C46 1_555 1_555
H49 C47 1_555 1_555
C48 C47 1_555 1_555
H50 C48 1_555 1_555
C49 C48 1_555 1_555
H51 C49 1_555 1_555
C50 N11 1_555 1_555
C51 N12 1_555 1_555
H52 C51 1_555 1_555
C52 N12 1_555 1_555
C53 C52 1_555 1_555
H53 C53 1_555 1_555
C54 C53 1_555 1_555
H54 C54 1_555 1_555
C55 C54 1_555 1_555
C56 C55 1_555 1_555
H55 C56 1_555 1_555
C57 C52 1_555 1_555
H56 C57 1_555 1_555
C58 N17 1_555 1_555
H57 C58 1_555 1_555
H58 C58 1_555 1_555
C59 N18 1_555 1_555
H59 C59 1_555 1_555
H60 C59 1_555 1_555
C60 C59 1_555 1_555
C61 C60 1_555 1_555
H61 C61 1_555 1_555
C62 C61 1_555 1_555
H62 C62 1_555 1_555
C63 C62 1_555 1_555
C64 C63 1_555 1_555
H63 C64 1_555 1_555
C65 C60 1_555 1_555
H64 C65 1_555 1_555
C66 N13 1_555 1_555
H65 C66 1_555 1_555
C67 N14 1_555 1_555
C68 C67 1_555 1_555
H66 C68 1_555 1_555
C69 C68 1_555 1_555
H67 C69 1_555 1_555
C70 C69 1_555 1_555
H68 C70 1_555 1_555
C71 N14 1_555 1_555
H69 C71 1_555 1_555
C72 N19 1_555 1_555
H70 C72 1_555 1_555
H71 C72 1_555 1_555
C73 C72 1_555 1_555
C74 C73 1_555 1_555
H72 C74 1_555 1_555
C75 C74 1_555 1_555
H73 C75 1_555 1_555
C76 N15 1_555 1_555
C77 C76 1_555 1_555
H74 C77 1_555 1_555
C78 C73 1_555 1_555
H75 C78 1_555 1_555
C79 N15 1_555 1_555
H76 C79 1_555 1_555
C80 N16 1_555 1_555
C81 C80 1_555 1_555
H77 C81 1_555 1_555
C82 C81 1_555 1_555
H78 C82 1_555 1_555
C83 C82 1_555 1_555
H79 C83 1_555 1_555
C84 N16 1_555 1_555
H80 C84 1_555 1_555
C85 N17 1_555 1_555
H81 C85 1_555 1_555
H82 C85 1_555 1_555
C86 N20 1_555 1_555
H83 C86 1_555 1_555
H84 C86 1_555 1_555
C87 N20 1_555 1_555
H85 C87 1_555 1_555
H86 C87 1_555 1_555
C88 N18 1_555 1_555
H87 C88 1_555 1_555
H88 C88 1_555 1_555
C89 N20 1_555 1_555
H89 C89 1_555 1_555
H90 C89 1_555 1_555
C90 N19 1_555 1_555
H91 C90 1_555 1_555
H92 C90 1_555 1_555
P3 H93 1_555 1_555
N21 Fe1 1_555 1_555
N22 Fe1 1_555 1_555
N23 Fe3 1_555 1_555
N24 Fe3 1_555 1_555
N25 Fe4 1_555 1_555
N26 Fe4 1_555 1_555
N27 P3 1_555 1_555
N28 P3 1_555 1_555
N29 P3 1_555 1_555
N30 P3 1_555 1_555
C91 N21 1_555 1_555
H94 C91 1_555 1_555
C92 C91 1_555 1_555
H95 C92 1_555 1_555
C93 C92 1_555 1_555
H96 C93 1_555 1_555
C94 C93 1_555 1_555
H97 C94 1_555 1_555
C95 N21 1_555 1_555
C96 N22 1_555 1_555
H98 C96 1_555 1_555
C97 N22 1_555 1_555
C98 C97 1_555 1_555
H99 C98 1_555 1_555
C99 C98 1_555 1_555
H100 C99 1_555 1_555
C100 C99 1_555 1_555
C101 C100 1_555 1_555
H101 C101 1_555 1_555
C102 C97 1_555 1_555
H102 C102 1_555 1_555
C103 N27 1_555 1_555
H103 C103 1_555 1_555
H104 C103 1_555 1_555
C104 N28 1_555 1_555
H105 C104 1_555 1_555
H106 C104 1_555 1_555
C105 C104 1_555 1_555
C106 C105 1_555 1_555
H107 C106 1_555 1_555
C107 C106 1_555 1_555
H108 C107 1_555 1_555
C108 N23 1_555 1_555
C109 C108 1_555 1_555
H109 C109 1_555 1_555
C110 C105 1_555 1_555
H110 C110 1_555 1_555
C111 N23 1_555 1_555
H111 C111 1_555 1_555
C112 N24 1_555 1_555
C113 C112 1_555 1_555
H112 C113 1_555 1_555
C114 C113 1_555 1_555
H113 C114 1_555 1_555
C115 C114 1_555 1_555
H114 C115 1_555 1_555
C116 N24 1_555 1_555
H115 C116 1_555 1_555
C117 N29 1_555 1_555
H116 C117 1_555 1_555
H117 C117 1_555 1_555
C118 C117 1_555 1_555
C119 C118 1_555 1_555
H118 C119 1_555 1_555
C120 C119 1_555 1_555
H119 C120 1_555 1_555
C121 N25 1_555 1_555
C122 C121 1_555 1_555
H120 C122 1_555 1_555
C123 C118 1_555 1_555
H121 C123 1_555 1_555
C124 N25 1_555 1_555
H122 C124 1_555 1_555
C125 N26 1_555 1_555
C126 C125 1_555 1_555
H123 C126 1_555 1_555
C127 C126 1_555 1_555
H124 C127 1_555 1_555
C128 C127 1_555 1_555
H125 C128 1_555 1_555
C129 N26 1_555 1_555
H126 C129 1_555 1_555
C130 N27 1_555 1_555
H127 C130 1_555 1_555
H128 C130 1_555 1_555
C131 N30 1_555 1_555
H129 C131 1_555 1_555
H130 C131 1_555 1_555
C132 N30 1_555 1_555
H131 C132 1_555 1_555
H132 C132 1_555 1_555
C133 N28 1_555 1_555
H133 C133 1_555 1_555
H134 C133 1_555 1_555
C134 N30 1_555 1_555
H135 C134 1_555 1_555
H136 C134 1_555 1_555
C135 N29 1_555 1_555
H137 C135 1_555 1_555
H138 C135 1_555 1_555
P4 H139 1_555 1_555
N31 Fe2 1_555 1_555
N32 Fe2 1_555 1_555
N33 Fe4 1_555 1_555
N34 Fe4 1_555 1_555
N35 Fe3 1_555 1_555
N36 Fe3 1_555 1_555
N37 P4 1_555 1_555
N38 P4 1_555 1_555
N39 P4 1_555 1_555
N40 P4 1_555 1_555
C136 N31 1_555 1_555
H140 C136 1_555 1_555
C137 C136 1_555 1_555
H141 C137 1_555 1_555
C138 C137 1_555 1_555
H142 C138 1_555 1_555
C139 C138 1_555 1_555
H143 C139 1_555 1_555
C140 N31 1_555 1_555
C141 N32 1_555 1_555
H144 C141 1_555 1_555
C142 N32 1_555 1_555
C143 C142 1_555 1_555
H145 C143 1_555 1_555
C144 C143 1_555 1_555
H146 C144 1_555 1_555
C145 C144 1_555 1_555
C146 C145 1_555 1_555
H147 C146 1_555 1_555
C147 C142 1_555 1_555
H148 C147 1_555 1_555
C148 N37 1_555 1_555
H149 C148 1_555 1_555
H150 C148 1_555 1_555
C149 N38 1_555 1_555
H151 C149 1_555 1_555
H152 C149 1_555 1_555
C150 C149 1_555 1_555
C151 C150 1_555 1_555
H153 C151 1_555 1_555
C152 C151 1_555 1_555
H154 C152 1_555 1_555
C153 N33 1_555 1_555
C154 C153 1_555 1_555
H155 C154 1_555 1_555
C155 C150 1_555 1_555
H156 C155 1_555 1_555
C156 N33 1_555 1_555
H157 C156 1_555 1_555
C157 N34 1_555 1_555
C158 C157 1_555 1_555
H158 C158 1_555 1_555
C159 C158 1_555 1_555
H159 C159 1_555 1_555
C160 C159 1_555 1_555
H160 C160 1_555 1_555
C161 N34 1_555 1_555
H161 C161 1_555 1_555
C162 N39 1_555 1_555
H162 C162 1_555 1_555
H163 C162 1_555 1_555
C163 C162 1_555 1_555
C164 C163 1_555 1_555
H164 C164 1_555 1_555
C165 C164 1_555 1_555
H165 C165 1_555 1_555
C166 N35 1_555 1_555
C167 C166 1_555 1_555
H166 C167 1_555 1_555
C168 C163 1_555 1_555
H167 C168 1_555 1_555
C169 N35 1_555 1_555
H168 C169 1_555 1_555
C170 N36 1_555 1_555
C171 C170 1_555 1_555
H169 C171 1_555 1_555
C172 C171 1_555 1_555
H170 C172 1_555 1_555
C173 C172 1_555 1_555
H171 C173 1_555 1_555
C174 N36 1_555 1_555
H172 C174 1_555 1_555
C175 N37 1_555 1_555
H173 C175 1_555 1_555
H174 C175 1_555 1_555
C176 N40 1_555 1_555
H175 C176 1_555 1_555
H176 C176 1_555 1_555
C177 N40 1_555 1_555
H177 C177 1_555 1_555
H178 C177 1_555 1_555
C178 N38 1_555 1_555
H179 C178 1_555 1_555
H180 C178 1_555 1_555
C179 N40 1_555 1_555
H181 C179 1_555 1_555
H182 C179 1_555 1_555
C180 N39 1_555 1_555
H183 C180 1_555 1_555
H184 C180 1_555 1_555
B1 H185 1_555 1_555
B2 H186 1_555 1_555
B3 B1 1_555 1_555
H187 B3 1_555 1_555
B4 B1 1_555 1_555
H188 B4 1_555 1_555
B5 B1 1_555 1_555
H189 B5 1_555 1_555
B6 B1 1_555 1_555
H190 B6 1_555 1_555
B7 B1 1_555 1_555
H191 B7 1_555 1_555
B8 B2 1_555 1_555
H192 B8 1_555 1_555
B9 B2 1_555 1_555
H193 B9 1_555 1_555
B10 B2 1_555 1_555
H194 B10 1_555 1_555
B11 B2 1_555 1_555
H195 B11 1_555 1_555
C181 B2 1_555 1_555
H196 C181 1_555 1_555
B12 H197 1_555 1_555
B13 H198 1_555 1_555
B14 B12 1_555 1_555
H199 B14 1_555 1_555
B15 B12 1_555 1_555
H200 B15 1_555 1_555
B16 B12 1_555 1_555
H201 B16 1_555 1_555
B17 B12 1_555 1_555
H202 B17 1_555 1_555
B18 B12 1_555 1_555
H203 B18 1_555 1_555
B19 B13 1_555 1_555
H204 B19 1_555 1_555
B20 B13 1_555 1_555
H205 B20 1_555 1_555
B21 B13 1_555 1_555
H206 B21 1_555 1_555
C182 B13 1_555 1_555
H207 C182 1_555 1_555
B22 B13 1_555 1_555
H208 B22 1_555 1_555
B23 H209 1_555 1_555
B24 H210 1_555 1_555
B25 B23 1_555 1_555
H211 B25 1_555 1_555
B26 B23 1_555 1_555
H212 B26 1_555 1_555
B27 B23 1_555 1_555
H213 B27 1_555 1_555
B28 B23 1_555 1_555
H214 B28 1_555 1_555
B29 B23 1_555 1_555
H215 B29 1_555 1_555
B30 B24 1_555 1_555
H216 B30 1_555 1_555
B31 B24 1_555 1_555
H217 B31 1_555 1_555
B32 B24 1_555 1_555
H218 B32 1_555 1_555
B33 B24 1_555 1_555
H219 B33 1_555 1_555
B34 B24 1_555 1_555
H220 B34 1_555 1_555
B35 H221 1_555 1_555
B36 H222 1_555 1_555
B37 B35 1_555 1_555
H223 B37 1_555 1_555
B38 B35 1_555 1_555
H224 B38 1_555 1_555
B39 B35 1_555 1_555
H225 B39 1_555 1_555
B40 B35 1_555 1_555
H226 B40 1_555 1_555
B41 B35 1_555 1_555
H227 B41 1_555 1_555
B42 B36 1_555 1_555
H228 B42 1_555 1_555
B43 B36 1_555 1_555
H229 B43 1_555 1_555
B44 B36 1_555 1_555
H230 B44 1_555 1_555
B45 B36 1_555 1_555
H231 B45 1_555 1_555
C183 B36 1_555 1_555
H232 C183 1_555 1_555
B46 H233 1_555 1_555
B47 H234 1_555 1_555
B48 B46 1_555 1_555
H235 B48 1_555 1_555
B49 B46 1_555 1_555
H236 B49 1_555 1_555
B50 B46 1_555 1_555
H237 B50 1_555 1_555
B51 B46 1_555 1_555
H238 B51 1_555 1_555
B52 B46 1_555 1_555
H239 B52 1_555 1_555
B53 B47 1_555 1_555
H240 B53 1_555 1_555
B54 B47 1_555 1_555
H241 B54 1_555 1_555
B55 B47 1_555 1_555
H242 B55 1_555 1_555
B56 B47 1_555 1_555
H243 B56 1_555 1_555
B57 B47 1_555 1_555
H244 B57 1_555 1_555
B58 H245 1_555 1_555
B59 H246 1_555 1_555
B60 B58 1_555 1_555
H247 B60 1_555 1_555
B61 B58 1_555 1_555
H248 B61 1_555 1_555
B62 B58 1_555 1_555
H249 B62 1_555 1_555
B63 B58 1_555 1_555
H250 B63 1_555 1_555
B64 B58 1_555 1_555
H251 B64 1_555 1_555
B65 B59 1_555 1_555
H252 B65 1_555 1_555
B66 B59 1_555 1_555
H253 B66 1_555 1_555
B67 B59 1_555 1_555
H254 B67 1_555 1_555
B68 B59 1_555 1_555
H255 B68 1_555 1_555
B69 B59 1_555 1_555
H256 B69 1_555 1_555
B70 H257 1_555 1_555
B71 H258 1_555 1_555
B72 B70 1_555 1_555
H259 B72 1_555 1_555
B73 B70 1_555 1_555
H260 B73 1_555 1_555
B74 B70 1_555 1_555
H261 B74 1_555 1_555
B75 B70 1_555 1_555
H262 B75 1_555 1_555
B76 B70 1_555 1_555
H263 B76 1_555 1_555
C184 B71 1_555 1_555
H264 C184 1_555 1_555
B77 B71 1_555 1_555
H265 B77 1_555 1_555
B78 B71 1_555 1_555
H266 B78 1_555 1_555
B79 B71 1_555 1_555
H267 B79 1_555 1_555
B80 B71 1_555 1_555
H268 B80 1_555 1_555
B81 H269 1_555 1_555
B82 H270 1_555 1_555
B83 B81 1_555 1_555
H271 B83 1_555 1_555
B84 B81 1_555 1_555
H272 B84 1_555 1_555
B85 B81 1_555 1_555
H273 B85 1_555 1_555
B86 B81 1_555 1_555
H274 B86 1_555 1_555
B87 B81 1_555 1_555
H275 B87 1_555 1_555
B88 B82 1_555 1_555
H276 B88 1_555 1_555
B89 B82 1_555 1_555
H277 B89 1_555 1_555
B90 B82 1_555 1_555
H278 B90 1_555 1_555
B91 B82 1_555 1_555
H279 B91 1_555 1_555
B92 B82 1_555 1_555
H280 B92 1_555 1_555
C185 H281 1_555 1_555
H282 C185 1_555 1_555
H283 C185 1_555 1_555
N41 C186 1_555 1_555
C186 C185 1_555 1_555
O1 C188 1_555 1_555
C187 H284 1_555 1_555
H285 C187 1_555 1_555
H286 C187 1_555 1_555
C188 C187 1_555 1_555
H287 C188 1_555 1_555
H288 C188 1_555 1_555
C189 O1 1_555 1_555
H289 C189 1_555 1_555
H290 C189 1_555 1_555
C190 C189 1_555 1_555
H291 C190 1_555 1_555
H292 C190 1_555 1_555
H293 C190 1_555 1_555
B93 H294 1_555 1_555
B94 H295 1_555 1_555
B95 B93 1_555 1_555
H296 B95 1_555 1_555
B96 B93 1_555 1_555
H297 B96 1_555 1_555
B97 B93 1_555 1_555
H298 B97 1_555 1_555
B98 B93 1_555 1_555
H299 B98 1_555 1_555
C191 B93 1_555 1_555
H300 C191 1_555 1_555
B99 B94 1_555 1_555
H301 B99 1_555 1_555
B100 B94 1_555 1_555
H302 B100 1_555 1_555
B101 B94 1_555 1_555
H303 B101 1_555 1_555
B102 B94 1_555 1_555
H304 B102 1_555 1_555
B103 B94 1_555 1_555
H305 B103 1_555 1_555
B104 H306 1_555 1_555
B105 H307 1_555 1_555
B106 B104 1_555 1_555
H308 B106 1_555 1_555
B107 B104 1_555 1_555
H309 B107 1_555 1_555
C192 B104 1_555 1_555
H310 C192 1_555 1_555
B108 B104 1_555 1_555
H311 B108 1_555 1_555
B109 B104 1_555 1_555
H312 B109 1_555 1_555
B110 B105 1_555 1_555
H313 B110 1_555 1_555
B111 B105 1_555 1_555
H314 B111 1_555 1_555
B112 B105 1_555 1_555
H315 B112 1_555 1_555
B113 B105 1_555 1_555
H316 B113 1_555 1_555
B114 B105 1_555 1_555
H317 B114 1_555 1_555
B115 H318 1_555 1_555
B116 H319 1_555 1_555
B117 B115 1_555 1_555
H320 B117 1_555 1_555
B118 B115 1_555 1_555
H321 B118 1_555 1_555
B119 B115 1_555 1_555
H322 B119 1_555 1_555
B120 B115 1_555 1_555
H323 B120 1_555 1_555
B121 B115 1_555 1_555
H324 B121 1_555 1_555
B122 B116 1_555 1_555
H325 B122 1_555 1_555
B123 B116 1_555 1_555
H326 B123 1_555 1_555
B124 B116 1_555 1_555
H327 B124 1_555 1_555
B125 B116 1_555 1_555
H328 B125 1_555 1_555
B126 B116 1_555 1_555
H329 B126 1_555 1_555
N42 C193 1_555 1_555
C193 C194 1_555 1_555
C194 H330 1_555 1_555
H331 C194 1_555 1_555
H332 C194 1_555 1_555
N43 C195 1_555 1_555
C195 C196 1_555 1_555
C196 H333 1_555 1_555
H334 C196 1_555 1_555
H335 C196 1_555 1_555
N44 C197 1_555 1_555
C197 C198 1_555 1_555
C198 H336 1_555 1_555
H337 C198 1_555 1_555
H338 C198 1_555 1_555
N45 C199 1_555 1_555
C199 C200 1_555 1_555
C200 H339 1_555 1_555
H340 C200 1_555 1_555
H341 C200 1_555 1_555
N46 C201 1_555 1_555
C201 C202 1_555 1_555
C202 H342 1_555 1_555
H343 C202 1_555 1_555
H344 C202 1_555 1_555
N47 C203 1_555 1_555
C203 C204 1_555 1_555
C204 H345 1_555 1_555
H346 C204 1_555 1_555
H347 C204 1_555 1_555
N48 C205 1_555 1_555
C205 C206 1_555 1_555
C206 H348 1_555 1_555
H349 C206 1_555 1_555
H350 C206 1_555 1_555
S1 N49 1_555 1_555
N49 S2 1_555 1_555
O2 S1 1_555 1_555
O3 S2 1_555 1_555
O4 S1 1_555 1_555
F1 C207 1_555 1_555
F2 C207 1_555 1_555
O5 S2 1_555 1_555
F3 C207 1_555 1_555
C207 S1 1_555 1_555
S2 C208 1_555 1_555
C208 F4 1_555 1_555
F5 C208 1_555 1_555
F6 C208 1_555 1_555
O6 H351 1_555 1_555
H352 O6 1_555 1_555
C4 C5 1_555 1_555
C5 C6 1_555 1_555
C10 C13 1_555 1_555
C11 C12 1_555 1_555
C19 C20 1_555 1_555
C21 C22 1_555 1_555
C25 C26 1_555 1_555
C32 C33 1_555 1_555
C34 C35 1_555 1_555
C38 C39 1_555 1_555
C40 C41 1_555 1_555
C42 C43 1_555 1_555
C44 C45 1_555 1_555
C49 C50 1_555 1_555
C50 C51 1_555 1_555
C55 C58 1_555 1_555
C56 C57 1_555 1_555
C64 C65 1_555 1_555
C66 C67 1_555 1_555
C70 C71 1_555 1_555
C75 C76 1_555 1_555
C77 C78 1_555 1_555
C79 C80 1_555 1_555
C83 C84 1_555 1_555
C85 C86 1_555 1_555
C87 C88 1_555 1_555
C89 C90 1_555 1_555
C94 C95 1_555 1_555
C95 C96 1_555 1_555
C100 C103 1_555 1_555
C101 C102 1_555 1_555
C107 C108 1_555 1_555
C109 C110 1_555 1_555
C111 C112 1_555 1_555
C115 C116 1_555 1_555
C120 C121 1_555 1_555
C122 C123 1_555 1_555
C124 C125 1_555 1_555
C128 C129 1_555 1_555
C130 C131 1_555 1_555
C132 C133 1_555 1_555
C134 C135 1_555 1_555
C139 C140 1_555 1_555
C140 C141 1_555 1_555
C145 C148 1_555 1_555
C146 C147 1_555 1_555
C152 C153 1_555 1_555
C154 C155 1_555 1_555
C156 C157 1_555 1_555
C160 C161 1_555 1_555
C165 C166 1_555 1_555
C167 C168 1_555 1_555
C169 C170 1_555 1_555
C173 C174 1_555 1_555
C175 C176 1_555 1_555
C177 C178 1_555 1_555
C179 C180 1_555 1_555
B3 B4 1_555 1_555
B3 B7 1_555 1_555
B3 B8 1_555 1_555
B3 B9 1_555 1_555
B4 B5 1_555 1_555
B4 B9 1_555 1_555
B4 B10 1_555 1_555
B5 B6 1_555 1_555
B5 B10 1_555 1_555
B5 B11 1_555 1_555
B6 B7 1_555 1_555
B6 B11 1_555 1_555
B6 C181 1_555 1_555
B7 B8 1_555 1_555
B7 C181 1_555 1_555
B8 B9 1_555 1_555
B8 C181 1_555 1_555
B9 B10 1_555 1_555
B10 B11 1_555 1_555
B11 C181 1_555 1_555
B14 B15 1_555 1_555
B14 B18 1_555 1_555
B14 B19 1_555 1_555
B14 B20 1_555 1_555
B15 B16 1_555 1_555
B15 B20 1_555 1_555
B15 B21 1_555 1_555
B16 B17 1_555 1_555
B16 B21 1_555 1_555
B16 C182 1_555 1_555
B17 B18 1_555 1_555
B17 C182 1_555 1_555
B17 B22 1_555 1_555
B18 B19 1_555 1_555
B18 B22 1_555 1_555
B19 B20 1_555 1_555
B19 B22 1_555 1_555
B20 B21 1_555 1_555
B21 C182 1_555 1_555
C182 B22 1_555 1_555
B25 B26 1_555 1_555
B25 B29 1_555 1_555
B25 B30 1_555 1_555
B25 B31 1_555 1_555
B26 B27 1_555 1_555
B26 B31 1_555 1_555
B26 B32 1_555 1_555
B27 B28 1_555 1_555
B27 B32 1_555 1_555
B27 B33 1_555 1_555
B28 B29 1_555 1_555
B28 B33 1_555 1_555
B28 B34 1_555 1_555
B29 B30 1_555 1_555
B29 B34 1_555 1_555
B30 B31 1_555 1_555
B30 B34 1_555 1_555
B31 B32 1_555 1_555
B32 B33 1_555 1_555
B33 B34 1_555 1_555
B37 B38 1_555 1_555
B37 B41 1_555 1_555
B37 B42 1_555 1_555
B37 B43 1_555 1_555
B38 B39 1_555 1_555
B38 B43 1_555 1_555
B38 B44 1_555 1_555
B39 B40 1_555 1_555
B39 B44 1_555 1_555
B39 B45 1_555 1_555
B40 B41 1_555 1_555
B40 B45 1_555 1_555
B40 C183 1_555 1_555
B41 B42 1_555 1_555
B41 C183 1_555 1_555
B42 B43 1_555 1_555
B42 C183 1_555 1_555
B43 B44 1_555 1_555
B44 B45 1_555 1_555
B45 C183 1_555 1_555
B48 B49 1_555 1_555
B48 B52 1_555 1_555
B48 B53 1_555 1_555
B48 B54 1_555 1_555
B49 B50 1_555 1_555
B49 B54 1_555 1_555
B49 B55 1_555 1_555
B50 B51 1_555 1_555
B50 B55 1_555 1_555
B50 B56 1_555 1_555
B51 B52 1_555 1_555
B51 B56 1_555 1_555
B51 B57 1_555 1_555
B52 B53 1_555 1_555
B52 B57 1_555 1_555
B53 B54 1_555 1_555
B53 B57 1_555 1_555
B54 B55 1_555 1_555
B55 B56 1_555 1_555
B56 B57 1_555 1_555
B60 B61 1_555 1_555
B60 B64 1_555 1_555
B60 B65 1_555 1_555
B60 B66 1_555 1_555
B61 B62 1_555 1_555
B61 B66 1_555 1_555
B61 B67 1_555 1_555
B62 B63 1_555 1_555
B62 B67 1_555 1_555
B62 B68 1_555 1_555
B63 B64 1_555 1_555
B63 B68 1_555 1_555
B63 B69 1_555 1_555
B64 B65 1_555 1_555
B64 B69 1_555 1_555
B65 B66 1_555 1_555
B65 B69 1_555 1_555
B66 B67 1_555 1_555
B67 B68 1_555 1_555
B68 B69 1_555 1_555
B72 B73 1_555 1_555
B72 B76 1_555 1_555
B72 C184 1_555 1_555
B72 B77 1_555 1_555
B73 B74 1_555 1_555
B73 B77 1_555 1_555
B73 B78 1_555 1_555
B74 B75 1_555 1_555
B74 B78 1_555 1_555
B74 B79 1_555 1_555
B75 B76 1_555 1_555
B75 B79 1_555 1_555
B75 B80 1_555 1_555
B76 C184 1_555 1_555
B76 B80 1_555 1_555
C184 B77 1_555 1_555
C184 B80 1_555 1_555
B77 B78 1_555 1_555
B78 B79 1_555 1_555
B79 B80 1_555 1_555
B83 B84 1_555 1_555
B83 B87 1_555 1_555
B83 B88 1_555 1_555
B83 B89 1_555 1_555
B84 B85 1_555 1_555
B84 B89 1_555 1_555
B84 B90 1_555 1_555
B85 B86 1_555 1_555
B85 B90 1_555 1_555
B85 B91 1_555 1_555
B86 B87 1_555 1_555
B86 B91 1_555 1_555
B86 B92 1_555 1_555
B87 B88 1_555 1_555
B87 B92 1_555 1_555
B88 B89 1_555 1_555
B88 B92 1_555 1_555
B89 B90 1_555 1_555
B90 B91 1_555 1_555
B91 B92 1_555 1_555
B95 B96 1_555 1_555
B95 C191 1_555 1_555
B95 B99 1_555 1_555
B95 B100 1_555 1_555
B96 B97 1_555 1_555
B96 B100 1_555 1_555
B96 B101 1_555 1_555
B97 B98 1_555 1_555
B97 B101 1_555 1_555
B97 B102 1_555 1_555
B98 C191 1_555 1_555
B98 B102 1_555 1_555
B98 B103 1_555 1_555
C191 B99 1_555 1_555
C191 B103 1_555 1_555
B99 B100 1_555 1_555
B99 B103 1_555 1_555
B100 B101 1_555 1_555
B101 B102 1_555 1_555
B102 B103 1_555 1_555
B106 B107 1_555 1_555
B106 B109 1_555 1_555
B106 B110 1_555 1_555
B106 B111 1_555 1_555
B107 C192 1_555 1_555
B107 B111 1_555 1_555
B107 B112 1_555 1_555
C192 B108 1_555 1_555
C192 B112 1_555 1_555
C192 B113 1_555 1_555
B108 B109 1_555 1_555
B108 B113 1_555 1_555
B108 B114 1_555 1_555
B109 B110 1_555 1_555
B109 B114 1_555 1_555
B110 B111 1_555 1_555
B110 B114 1_555 1_555
B111 B112 1_555 1_555
B112 B113 1_555 1_555
B113 B114 1_555 1_555
B117 B118 1_555 1_555
B117 B121 1_555 1_555
B117 B122 1_555 1_555
B117 B123 1_555 1_555
B118 B119 1_555 1_555
B118 B123 1_555 1_555
B118 B124 1_555 1_555
B119 B120 1_555 1_555
B119 B124 1_555 1_555
B119 B125 1_555 1_555
B120 B121 1_555 1_555
B120 B125 1_555 1_555
B120 B126 1_555 1_555
B121 B122 1_555 1_555
B121 B126 1_555 1_555
B122 B123 1_555 1_555
B122 B126 1_555 1_555
B123 B124 1_555 1_555
B124 B125 1_555 1_555
B125 B126 1_555 1_555

#END
