
#######################################################################
#
#                 Cambridge Crystallographic Data Centre
#                                CCDC 
#
#######################################################################
#
# If this CIF has been generated from an entry in the Cambridge 
# Structural Database, then it will include bibliographic, chemical, 
# crystal, experimental, refinement or atomic coordinate data resulting 
# from the CCDC's data processing and validation procedures.
#
#######################################################################

data_BEYSUV
_chemical_formula_moiety         
'C88 H80 N2 O12 Ru4 2+,2(C4 H10 O1),2(C1 F3 O3 S1 1-),2(C1 H4 O1)'
_chemical_name_systematic        
'bis(\m~2~-4-(Pyridin-4-ylethynyl)benzoato)-bis(\m~2~-5,8-dioxo-5,8-dihydronaphthalene-1,4-diolato)-tetrakis(\h^6^-1-isopropyl-4-methylbenzene)-tetra-ruthenium bis(trifluoromethanesulfonate) methanol diethyl ether solvate'
_symmetry_cell_setting           monoclinic
_symmetry_space_group_name_H-M   'C 2/c'
_symmetry_Int_Tables_number      15
_space_group_name_Hall           '-C 2yn'
loop_
_symmetry_equiv_pos_site_id
_symmetry_equiv_pos_as_xyz
1 x,y,z
2 -x,y,1/2-z
3 1/2+x,1/2+y,z
4 1/2-x,1/2+y,1/2-z
5 -x,-y,-z
6 x,-y,1/2+z
7 1/2-x,1/2-y,-z
8 1/2+x,1/2-y,1/2+z
_cell_length_a                   41.399(8)
_cell_length_b                   14.138(3)
_cell_length_c                   18.549(4)
_cell_angle_alpha                90
_cell_angle_beta                 108.56(3)
_cell_angle_gamma                90
_cell_volume                     10292.1
_cell_formula_units_Z            4
loop_
_atom_site_label
_atom_site_type_symbol
_atom_site_fract_x
_atom_site_fract_y
_atom_site_fract_z
N1 N 0.09770(16) -0.5451(5) 0.4296(3)
Ru1 Ru 0.231892(14) 0.30215(5) 0.29421(3)
Ru2 Ru 0.429651(15) 0.16454(5) 0.55270(3)
O1 O 0.25704(12) 0.2842(4) 0.4091(3)
O2 O 0.26907(13) 0.2142(4) 0.2804(3)
O3 O 0.38939(12) 0.2355(4) 0.5695(3)
O4 O 0.39993(13) 0.1467(4) 0.4425(3)
O5 O 0.20932(13) 0.1765(4) 0.3117(3)
O6 O 0.18881(13) 0.1351(4) 0.1898(3)
C1 C 0.28811(18) 0.2635(5) 0.4403(4)
C2 C 0.30193(19) 0.2828(5) 0.5217(4)
H1 H 0.2868 0.3019 0.5481
C3 C 0.33446(18) 0.2749(5) 0.5596(4)
H2 H 0.3423 0.2940 0.6114
C4 C 0.35894(17) 0.2383(5) 0.5256(4)
C5 C 0.34660(18) 0.2079(5) 0.4483(4)
C6 C 0.36838(18) 0.1656(5) 0.4130(4)
C7 C 0.3541(2) 0.1348(6) 0.3336(4)
H3 H 0.3685 0.1036 0.3104
C8 C 0.32201(19) 0.1490(6) 0.2936(4)
H4 H 0.3138 0.1269 0.2427
C9 C 0.29826(18) 0.1991(5) 0.3265(4)
C10 C 0.31057(16) 0.2240(5) 0.4041(4)
C11 C 0.2195(2) 0.4436(6) 0.3208(4)
C12 C 0.1889(2) 0.3971(6) 0.2781(5)
H5 H 0.1714 0.3820 0.3031
C13 C 0.1861(2) 0.3555(6) 0.2074(5)
H6 H 0.1669 0.3103 0.1852
C14 C 0.2131(2) 0.3562(6) 0.1775(4)
C15 C 0.2435(2) 0.4044(6) 0.2204(4)
H7 H 0.2645 0.3948 0.2058
C16 C 0.2467(2) 0.4488(6) 0.2882(5)
H8 H 0.2697 0.4701 0.3208
C17 C 0.2244(2) 0.4827(7) 0.3979(5)
H9 H 0.2168 0.5487 0.3935
H10 H 0.2486 0.4794 0.4280
H11 H 0.2110 0.4457 0.4229
C18 C 0.2101(2) 0.3113(6) 0.0997(4)
H12 H 0.1880 0.2766 0.0819
C19 C 0.2377(2) 0.2423(7) 0.1012(4)
H13 H 0.2340 0.2174 0.0499
H14 H 0.2373 0.1901 0.1357
H15 H 0.2598 0.2742 0.1190
C20 C 0.2080(3) 0.3934(8) 0.0445(5)
H16 H 0.1896 0.4363 0.0456
H17 H 0.2035 0.3686 -0.0071
H18 H 0.2297 0.4279 0.0596
C21 C 0.19414(18) 0.1201(6) 0.2579(4)
C22 C 0.18410(19) 0.0291(5) 0.2843(4)
C23 C 0.19390(19) 0.0043(6) 0.3612(4)
H19 H 0.2074 0.0473 0.3978
C24 C 0.1641(2) -0.0357(6) 0.2319(4)
H20 H 0.1565 -0.0205 0.1793
C25 C 0.1848(2) -0.0792(5) 0.3853(4)
H21 H 0.1918 -0.0937 0.4380
C26 C 0.1552(2) -0.1211(6) 0.2556(4)
H22 H 0.1422 -0.1650 0.2191
C27 C 0.1651(2) -0.1439(6) 0.3324(4)
C28 C 0.1536(2) -0.2304(7) 0.3569(5)
C29 C 0.1437(2) -0.3004(7) 0.3771(5)
C30 C 0.4715(2) 0.2217(7) 0.5197(5)
H23 H 0.4668 0.2447 0.4664
C31 C 0.47738(19) 0.1227(7) 0.5347(5)
H24 H 0.4770 0.0785 0.4923
C32 C 0.4776(2) 0.0869(7) 0.6042(5)
C33 C 0.4713(2) 0.1496(9) 0.6587(5)
H25 H 0.4664 0.1218 0.7037
C34 C 0.4650(2) 0.2411(10) 0.6436(6)
H26 H 0.4559 0.2791 0.6783
C35 C 0.4649(2) 0.2826(6) 0.5730(7)
C36 C 0.4814(3) -0.0188(8) 0.6174(8)
H27 H 0.5055 -0.0345 0.6411
H28 H 0.4726 -0.0520 0.5687
H29 H 0.4685 -0.0384 0.6510
C37 C 0.10828(19) -0.5421(6) 0.3667(4)
H30 H 0.1054 -0.5959 0.3347
C38 C 0.10373(19) -0.4699(6) 0.4765(4)
H31 H 0.0975 -0.4726 0.5216
C39 C 0.1227(2) -0.4637(6) 0.3500(4)
H32 H 0.1294 -0.4623 0.3055
C40 C 0.1187(2) -0.3894(6) 0.4605(4)
H33 H 0.1225 -0.3367 0.4939
C41 C 0.1281(2) -0.3853(6) 0.3962(4)
C42 C 0.4570(3) 0.3848(9) 0.5557(10)
H34 H 0.4405 0.4019 0.5828
C43 C 0.4399(4) 0.4092(10) 0.4755(11)
H35 H 0.4196 0.3693 0.4552
H36 H 0.4555 0.3986 0.4462
H37 H 0.4330 0.4758 0.4717
C44 C 0.4897(4) 0.4419(10) 0.5960(14)
H38 H 0.4989 0.4214 0.6491
H39 H 0.4841 0.5095 0.5943
H40 H 0.5066 0.4312 0.5701
N1F N 0.40230(16) 0.0451(5) 0.5704(3)
Ru1F Ru 0.268108(14) -0.80215(5) 0.70579(3)
Ru2F Ru 0.070349(15) -0.66454(5) 0.44730(3)
O1F O 0.24296(12) -0.7842(4) 0.5909(3)
O2F O 0.23093(13) -0.7142(4) 0.7196(3)
O3F O 0.11061(12) -0.7355(4) 0.4305(3)
O4F O 0.10007(13) -0.6467(4) 0.5575(3)
O5F O 0.29068(13) -0.6765(4) 0.6883(3)
O6F O 0.31119(13) -0.6351(4) 0.8102(3)
C1F C 0.21189(18) -0.7635(5) 0.5597(4)
C2F C 0.19807(19) -0.7828(5) 0.4783(4)
H1F H 0.2132 -0.8019 0.4519
C3F C 0.16554(18) -0.7749(5) 0.4404(4)
H2F H 0.1577 -0.7940 0.3886
C4F C 0.14106(17) -0.7383(5) 0.4744(4)
C5F C 0.15340(18) -0.7079(5) 0.5517(4)
C6F C 0.13162(18) -0.6656(5) 0.5870(4)
C7F C 0.1459(2) -0.6348(6) 0.6664(4)
H3F H 0.1315 -0.6036 0.6896
C8F C 0.17799(19) -0.6490(6) 0.7064(4)
H4F H 0.1862 -0.6269 0.7573
C9F C 0.20174(18) -0.6991(5) 0.6735(4)
C10F C 0.18943(16) -0.7240(5) 0.5959(4)
C11F C 0.2805(2) -0.9436(6) 0.6792(4)
C12F C 0.3111(2) -0.8971(6) 0.7219(5)
H5F H 0.3286 -0.8820 0.6969
C13F C 0.3139(2) -0.8555(6) 0.7926(5)
H6F H 0.3331 -0.8103 0.8148
C14F C 0.2869(2) -0.8562(6) 0.8225(4)
C15F C 0.2565(2) -0.9044(6) 0.7796(4)
H7F H 0.2355 -0.8948 0.7942
C16F C 0.2533(2) -0.9488(6) 0.7118(5)
H8F H 0.2303 -0.9701 0.6792
C17F C 0.2756(2) -0.9827(7) 0.6021(5)
H9F H 0.2832 -1.0487 0.6065
H10F H 0.2514 -0.9794 0.5720
H11F H 0.2890 -0.9457 0.5771
C18F C 0.2899(2) -0.8113(6) 0.9003(4)
H12F H 0.3120 -0.7766 0.9181
C19F C 0.2623(2) -0.7423(7) 0.8988(4)
H13F H 0.2660 -0.7174 0.9501
H14F H 0.2627 -0.6901 0.8643
H15F H 0.2402 -0.7742 0.8810
C20F C 0.2920(3) -0.8934(8) 0.9555(5)
H16F H 0.3104 -0.9363 0.9544
H17F H 0.2965 -0.8686 1.0071
H18F H 0.2703 -0.9279 0.9404
C21F C 0.30586(18) -0.6201(6) 0.7421(4)
C22F C 0.31590(19) -0.5291(5) 0.7157(4)
C23F C 0.30610(19) -0.5043(6) 0.6388(4)
H19F H 0.2926 -0.5473 0.6022
C24F C 0.3359(2) -0.4643(6) 0.7681(4)
H20F H 0.3435 -0.4795 0.8207
C25F C 0.3152(2) -0.4208(5) 0.6147(4)
H21F H 0.3082 -0.4063 0.5620
C26F C 0.3448(2) -0.3789(6) 0.7444(4)
H22F H 0.3578 -0.3350 0.7809
C27F C 0.3349(2) -0.3561(6) 0.6676(4)
C28F C 0.3464(2) -0.2696(7) 0.6431(5)
C29F C 0.3563(2) -0.1996(7) 0.6229(5)
C30F C 0.0285(2) -0.7217(7) 0.4803(5)
H23F H 0.0332 -0.7447 0.5336
C31F C 0.02262(19) -0.6227(7) 0.4653(5)
H24F H 0.0230 -0.5785 0.5077
C32F C 0.0224(2) -0.5869(7) 0.3958(5)
C33F C 0.0287(2) -0.6496(9) 0.3413(5)
H25F H 0.0336 -0.6218 0.2963
C34F C 0.0350(2) -0.7411(10) 0.3564(6)
H26F H 0.0441 -0.7791 0.3217
C35F C 0.0351(2) -0.7826(6) 0.4270(7)
C36F C 0.0186(3) -0.4812(8) 0.3826(8)
H27F H -0.0055 -0.4655 0.3589
H28F H 0.0274 -0.4480 0.4313
H29F H 0.0315 -0.4616 0.3490
C37F C 0.39172(19) 0.0421(6) 0.6333(4)
H30F H 0.3946 0.0959 0.6653
C38F C 0.39627(19) -0.0301(6) 0.5235(4)
H31F H 0.4025 -0.0274 0.4784
C39F C 0.3773(2) -0.0363(6) 0.6500(4)
H32F H 0.3706 -0.0377 0.6945
C40F C 0.3813(2) -0.1106(6) 0.5395(4)
H33F H 0.3775 -0.1633 0.5061
C41F C 0.3719(2) -0.1147(6) 0.6038(4)
C42F C 0.0430(3) -0.8848(9) 0.4443(10)
H34F H 0.0595 -0.9019 0.4172
C43F C 0.0601(4) -0.9092(10) 0.5245(11)
H35F H 0.0804 -0.8693 0.5448
H36F H 0.0445 -0.8986 0.5538
H37F H 0.0670 -0.9758 0.5283
C44F C 0.0103(4) -0.9419(10) 0.4040(14)
H38F H 0.0011 -0.9214 0.3509
H39F H 0.0159 -1.0095 0.4057
H40F H -0.0066 -0.9312 0.4299
S1 S 0.57526(5) 0.10794(19) 0.65545(12)
O7 O 0.55599(17) 0.0921(7) 0.7052(3)
O8 O 0.55687(14) 0.0953(5) 0.5762(3)
O9 O 0.60890(14) 0.0713(5) 0.6823(4)
F1 F 0.55332(19) 0.2801(5) 0.6461(4)
F2 F 0.5999(2) 0.2569(5) 0.7361(4)
F3 F 0.60051(18) 0.2630(5) 0.6220(4)
C45 C 0.5817(3) 0.2267(11) 0.6658(6)
O10 O 0.18262(17) 0.0420(6) 0.0577(3)
H41 H 0.1838 0.0722 0.0974
C46 C 0.1496(3) 0.0095(12) 0.0242(6)
H42 H 0.1434 -0.0330 0.0594
H43 H 0.1481 -0.0248 -0.0227
H44 H 0.1338 0.0633 0.0121
O11 O 0.5064(3) 0.7513(10) 0.6344(7)
C47 C 0.5374(13) 0.783(3) 0.7031(15)
C48 C 0.5633(4) 0.7969(18) 0.7055(10)
C49 C 0.4729(5) 0.7224(17) 0.6318(15)
C50 C 0.4554(4) 0.7068(10) 0.5578(9)
loop_
_geom_bond_atom_site_label_1
_geom_bond_atom_site_label_2
_geom_bond_site_symmetry_1
_geom_bond_site_symmetry_2
N1 C37 1_555 1_555
Ru1 O1 1_555 1_555
Ru2 O3 1_555 1_555
O1 C1 1_555 1_555
O2 Ru1 1_555 1_555
O3 C4 1_555 1_555
O4 Ru2 1_555 1_555
O5 Ru1 1_555 1_555
O6 C21 1_555 1_555
C1 C2 1_555 1_555
C2 H1 1_555 1_555
C3 C2 1_555 1_555
H2 C3 1_555 1_555
C4 C3 1_555 1_555
C5 C4 1_555 1_555
C6 O4 1_555 1_555
C7 C6 1_555 1_555
H3 C7 1_555 1_555
C8 C7 1_555 1_555
H4 C8 1_555 1_555
C9 O2 1_555 1_555
C10 C1 1_555 1_555
C11 Ru1 1_555 1_555
C12 Ru1 1_555 1_555
H5 C12 1_555 1_555
C13 Ru1 1_555 1_555
H6 C13 1_555 1_555
C14 Ru1 1_555 1_555
C15 Ru1 1_555 1_555
H7 C15 1_555 1_555
C16 Ru1 1_555 1_555
H8 C16 1_555 1_555
C17 C11 1_555 1_555
H9 C17 1_555 1_555
H10 C17 1_555 1_555
H11 C17 1_555 1_555
C18 C14 1_555 1_555
H12 C18 1_555 1_555
C19 C18 1_555 1_555
H13 C19 1_555 1_555
H14 C19 1_555 1_555
H15 C19 1_555 1_555
C20 C18 1_555 1_555
H16 C20 1_555 1_555
H17 C20 1_555 1_555
H18 C20 1_555 1_555
C21 O5 1_555 1_555
C22 C21 1_555 1_555
C23 C22 1_555 1_555
H19 C23 1_555 1_555
C24 C22 1_555 1_555
H20 C24 1_555 1_555
C25 C23 1_555 1_555
H21 C25 1_555 1_555
C26 C24 1_555 1_555
H22 C26 1_555 1_555
C27 C25 1_555 1_555
C28 C27 1_555 1_555
C29 C28 1_555 1_555
C30 Ru2 1_555 1_555
H23 C30 1_555 1_555
C31 Ru2 1_555 1_555
H24 C31 1_555 1_555
C32 Ru2 1_555 1_555
C33 Ru2 1_555 1_555
H25 C33 1_555 1_555
C34 Ru2 1_555 1_555
H26 C34 1_555 1_555
C35 Ru2 1_555 1_555
C36 C32 1_555 1_555
H27 C36 1_555 1_555
H28 C36 1_555 1_555
H29 C36 1_555 1_555
C37 H30 1_555 1_555
C38 N1 1_555 1_555
H31 C38 1_555 1_555
C39 C37 1_555 1_555
H32 C39 1_555 1_555
C40 C38 1_555 1_555
H33 C40 1_555 1_555
C41 C29 1_555 1_555
C42 C35 1_555 1_555
H34 C42 1_555 1_555
C43 C42 1_555 1_555
H35 C43 1_555 1_555
H36 C43 1_555 1_555
H37 C43 1_555 1_555
C44 C42 1_555 1_555
H38 C44 1_555 1_555
H39 C44 1_555 1_555
H40 C44 1_555 1_555
S1 O7 1_555 1_555
O8 S1 1_555 1_555
O9 S1 1_555 1_555
F1 C45 1_555 1_555
F2 C45 1_555 1_555
F3 C45 1_555 1_555
C45 S1 1_555 1_555
O10 H41 1_555 1_555
C46 O10 1_555 1_555
H42 C46 1_555 1_555
H43 C46 1_555 1_555
H44 C46 1_555 1_555
O11 C47 1_555 1_555
C47 C48 1_555 1_555
C49 O11 1_555 1_555
C50 C49 1_555 1_555
N1F Ru2 1_555 1_555
Ru1F O1F 1_555 1_555
Ru2F N1 1_555 1_555
O1F C1F 1_555 1_555
O2F Ru1F 1_555 1_555
O3F Ru2F 1_555 1_555
O4F Ru2F 1_555 1_555
O5F Ru1F 1_555 1_555
O6F C21F 1_555 1_555
C1F C2F 1_555 1_555
C2F H1F 1_555 1_555
C3F C2F 1_555 1_555
H2F C3F 1_555 1_555
C4F O3F 1_555 1_555
C5F C4F 1_555 1_555
C6F O4F 1_555 1_555
C7F C6F 1_555 1_555
H3F C7F 1_555 1_555
C8F C7F 1_555 1_555
H4F C8F 1_555 1_555
C9F O2F 1_555 1_555
C10F C1F 1_555 1_555
C11F Ru1F 1_555 1_555
C12F Ru1F 1_555 1_555
H5F C12F 1_555 1_555
C13F Ru1F 1_555 1_555
H6F C13F 1_555 1_555
C14F Ru1F 1_555 1_555
C15F Ru1F 1_555 1_555
H7F C15F 1_555 1_555
C16F Ru1F 1_555 1_555
H8F C16F 1_555 1_555
C17F C11F 1_555 1_555
H9F C17F 1_555 1_555
H10F C17F 1_555 1_555
H11F C17F 1_555 1_555
C18F C14F 1_555 1_555
H12F C18F 1_555 1_555
C19F C18F 1_555 1_555
H13F C19F 1_555 1_555
H14F C19F 1_555 1_555
H15F C19F 1_555 1_555
C20F C18F 1_555 1_555
H16F C20F 1_555 1_555
H17F C20F 1_555 1_555
H18F C20F 1_555 1_555
C21F O5F 1_555 1_555
C22F C21F 1_555 1_555
C23F C22F 1_555 1_555
H19F C23F 1_555 1_555
C24F C22F 1_555 1_555
H20F C24F 1_555 1_555
C25F C23F 1_555 1_555
H21F C25F 1_555 1_555
C26F C24F 1_555 1_555
H22F C26F 1_555 1_555
C27F C25F 1_555 1_555
C28F C27F 1_555 1_555
C29F C28F 1_555 1_555
C30F Ru2F 1_555 1_555
H23F C30F 1_555 1_555
C31F Ru2F 1_555 1_555
H24F C31F 1_555 1_555
C32F Ru2F 1_555 1_555
C33F Ru2F 1_555 1_555
H25F C33F 1_555 1_555
C34F Ru2F 1_555 1_555
H26F C34F 1_555 1_555
C35F Ru2F 1_555 1_555
C36F C32F 1_555 1_555
H27F C36F 1_555 1_555
H28F C36F 1_555 1_555
H29F C36F 1_555 1_555
C37F N1F 1_555 1_555
H30F C37F 1_555 1_555
C38F N1F 1_555 1_555
H31F C38F 1_555 1_555
C39F C37F 1_555 1_555
H32F C39F 1_555 1_555
C40F C38F 1_555 1_555
H33F C40F 1_555 1_555
C41F C29F 1_555 1_555
C42F C35F 1_555 1_555
H34F C42F 1_555 1_555
C43F C42F 1_555 1_555
H35F C43F 1_555 1_555
H36F C43F 1_555 1_555
H37F C43F 1_555 1_555
C44F C42F 1_555 1_555
H38F C44F 1_555 1_555
H39F C44F 1_555 1_555
H40F C44F 1_555 1_555
C5 C6 1_555 1_555
C5 C10 1_555 1_555
C8 C9 1_555 1_555
C9 C10 1_555 1_555
C11 C12 1_555 1_555
C11 C16 1_555 1_555
C12 C13 1_555 1_555
C13 C14 1_555 1_555
C14 C15 1_555 1_555
C15 C16 1_555 1_555
C26 C27 1_555 1_555
C30 C31 1_555 1_555
C30 C35 1_555 1_555
C31 C32 1_555 1_555
C32 C33 1_555 1_555
C33 C34 1_555 1_555
C34 C35 1_555 1_555
C39 C41 1_555 1_555
C40 C41 1_555 1_555
C3F C4F 1_555 1_555
C5F C6F 1_555 1_555
C5F C10F 1_555 1_555
C8F C9F 1_555 1_555
C9F C10F 1_555 1_555
C11F C12F 1_555 1_555
C11F C16F 1_555 1_555
C12F C13F 1_555 1_555
C13F C14F 1_555 1_555
C14F C15F 1_555 1_555
C15F C16F 1_555 1_555
C26F C27F 1_555 1_555
C30F C31F 1_555 1_555
C30F C35F 1_555 1_555
C31F C32F 1_555 1_555
C32F C33F 1_555 1_555
C33F C34F 1_555 1_555
C34F C35F 1_555 1_555
C39F C41F 1_555 1_555
C40F C41F 1_555 1_555

#END
