# generated using pymatgen
data_Co8BH304C348I22N72O32F7
_symmetry_space_group_name_H-M   'P 1'
_cell_length_a   29.97300000
_cell_length_b   32.93900000
_cell_length_c   40.40000000
_cell_angle_alpha   96.12600000
_cell_angle_beta   90.00000000
_cell_angle_gamma   90.00000000
_symmetry_Int_Tables_number   1
_chemical_formula_structural   Co8BH304C348I22N72O32F7
_chemical_formula_sum   'Co32 B4 H1216 C1392 I88 N288 O128 F28'
_cell_volume   39658.37315927
_cell_formula_units_Z   4
loop_
 _symmetry_equiv_pos_site_id
 _symmetry_equiv_pos_as_xyz
  1  'x, y, z'
loop_
 _atom_site_type_symbol
 _atom_site_label
 _atom_site_symmetry_multiplicity
 _atom_site_fract_x
 _atom_site_fract_y
 _atom_site_fract_z
 _atom_site_occupancy
  Co  Co1  1  0.161960  0.489680  0.969840  1.0
  Co  Co2  1  0.161960  0.510320  0.530160  1.0
  Co  Co3  1  0.661960  0.989680  0.969840  1.0
  Co  Co4  1  0.661960  0.010320  0.530160  1.0
  Co  Co5  1  0.838040  0.510320  0.030160  1.0
  Co  Co6  1  0.838040  0.489680  0.469840  1.0
  Co  Co7  1  0.338040  0.010320  0.030160  1.0
  Co  Co8  1  0.338040  0.989680  0.469840  1.0
  Co  Co9  1  0.011740  0.900250  0.134840  1.0
  Co  Co10  1  0.011740  0.099750  0.365160  1.0
  Co  Co11  1  0.511740  0.400250  0.134840  1.0
  Co  Co12  1  0.511740  0.599750  0.365160  1.0
  Co  Co13  1  0.988260  0.099750  0.865160  1.0
  Co  Co14  1  0.988260  0.900250  0.634840  1.0
  Co  Co15  1  0.488260  0.599750  0.865160  1.0
  Co  Co16  1  0.488260  0.400250  0.634840  1.0
  Co  Co17  1  0.215650  0.646910  0.224500  1.0
  Co  Co18  1  0.215650  0.353090  0.275500  1.0
  Co  Co19  1  0.715650  0.146910  0.224500  1.0
  Co  Co20  1  0.715650  0.853090  0.275500  1.0
  Co  Co21  1  0.784350  0.353090  0.775500  1.0
  Co  Co22  1  0.784350  0.646910  0.724500  1.0
  Co  Co23  1  0.284350  0.853090  0.775500  1.0
  Co  Co24  1  0.284350  0.146910  0.724500  1.0
  Co  Co25  1  0.537470  0.770490  0.116790  1.0
  Co  Co26  1  0.537470  0.229510  0.383210  1.0
  Co  Co27  1  0.037470  0.270490  0.116790  1.0
  Co  Co28  1  0.037470  0.729510  0.383210  1.0
  Co  Co29  1  0.462530  0.229510  0.883210  1.0
  Co  Co30  1  0.462530  0.770490  0.616790  1.0
  Co  Co31  1  0.962530  0.729510  0.883210  1.0
  Co  Co32  1  0.962530  0.270490  0.616790  1.0
  B  B33  1  0.822700  0.000000  0.250000  1
  B  B34  1  0.322700  0.500000  0.250000  1
  B  B35  1  0.177300  1.000000  0.750000  1
  B  B36  1  0.677300  0.500000  0.750000  1
  H  H37  1  0.236000  0.772300  0.060300  1
  H  H38  1  0.236000  0.227700  0.439700  1
  H  H39  1  0.736000  0.272300  0.060300  1
  H  H40  1  0.736000  0.727700  0.439700  1
  H  H41  1  0.764000  0.227700  0.939700  1
  H  H42  1  0.764000  0.772300  0.560300  1
  H  H43  1  0.264000  0.727700  0.939700  1
  H  H44  1  0.264000  0.272300  0.560300  1
  H  H45  1  0.292700  0.734900  0.057000  1
  H  H46  1  0.292700  0.265100  0.443000  1
  H  H47  1  0.792700  0.234900  0.057000  1
  H  H48  1  0.792700  0.765100  0.443000  1
  H  H49  1  0.707300  0.265100  0.943000  1
  H  H50  1  0.707300  0.734900  0.557000  1
  H  H51  1  0.207300  0.765100  0.943000  1
  H  H52  1  0.207300  0.234900  0.557000  1
  H  H53  1  0.309100  0.756200  0.092300  1
  H  H54  1  0.309100  0.243800  0.407700  1
  H  H55  1  0.809100  0.256200  0.092300  1
  H  H56  1  0.809100  0.743800  0.407700  1
  H  H57  1  0.690900  0.243800  0.907700  1
  H  H58  1  0.690900  0.756200  0.592300  1
  H  H59  1  0.190900  0.743800  0.907700  1
  H  H60  1  0.190900  0.256200  0.592300  1
  H  H61  1  0.312700  0.780200  0.060000  1
  H  H62  1  0.312700  0.219800  0.440000  1
  H  H63  1  0.812700  0.280200  0.060000  1
  H  H64  1  0.812700  0.719800  0.440000  1
  H  H65  1  0.687300  0.219800  0.940000  1
  H  H66  1  0.687300  0.780200  0.560000  1
  H  H67  1  0.187300  0.719800  0.940000  1
  H  H68  1  0.187300  0.280200  0.560000  1
  H  H69  1  0.208800  0.630000  0.990900  1
  H  H70  1  0.208800  0.370000  0.509100  1
  H  H71  1  0.708800  0.130000  0.990900  1
  H  H72  1  0.708800  0.870000  0.509100  1
  H  H73  1  0.791200  0.370000  0.009100  1
  H  H74  1  0.791200  0.630000  0.490900  1
  H  H75  1  0.291200  0.870000  0.009100  1
  H  H76  1  0.291200  0.130000  0.490900  1
  H  H77  1  0.249300  0.695700  0.984200  1
  H  H78  1  0.249300  0.304300  0.515800  1
  H  H79  1  0.749300  0.195700  0.984200  1
  H  H80  1  0.749300  0.804300  0.515800  1
  H  H81  1  0.750700  0.304300  0.015800  1
  H  H82  1  0.750700  0.695700  0.484200  1
  H  H83  1  0.250700  0.804300  0.015800  1
  H  H84  1  0.250700  0.195700  0.484200  1
  H  H85  1  0.266000  0.658300  0.003300  1
  H  H86  1  0.266000  0.341700  0.496700  1
  H  H87  1  0.766000  0.158300  0.003300  1
  H  H88  1  0.766000  0.841700  0.496700  1
  H  H89  1  0.734000  0.341700  0.996700  1
  H  H90  1  0.734000  0.658300  0.503300  1
  H  H91  1  0.234000  0.841700  0.996700  1
  H  H92  1  0.234000  0.158300  0.503300  1
  H  H93  1  0.234400  0.692700  0.021900  1
  H  H94  1  0.234400  0.307300  0.478100  1
  H  H95  1  0.734400  0.192700  0.021900  1
  H  H96  1  0.734400  0.807300  0.478100  1
  H  H97  1  0.765600  0.307300  0.978100  1
  H  H98  1  0.765600  0.692700  0.521900  1
  H  H99  1  0.265600  0.807300  0.978100  1
  H  H100  1  0.265600  0.192700  0.521900  1
  H  H101  1  0.286100  0.566800  0.382700  1
  H  H102  1  0.286100  0.433200  0.117300  1
  H  H103  1  0.786100  0.066800  0.382700  1
  H  H104  1  0.786100  0.933200  0.117300  1
  H  H105  1  0.713900  0.433200  0.617300  1
  H  H106  1  0.713900  0.566800  0.882700  1
  H  H107  1  0.213900  0.933200  0.617300  1
  H  H108  1  0.213900  0.066800  0.882700  1
  H  H109  1  0.332900  0.536800  0.346000  1
  H  H110  1  0.332900  0.463200  0.154000  1
  H  H111  1  0.832900  0.036800  0.346000  1
  H  H112  1  0.832900  0.963200  0.154000  1
  H  H113  1  0.667100  0.463200  0.654000  1
  H  H114  1  0.667100  0.536800  0.846000  1
  H  H115  1  0.167100  0.963200  0.654000  1
  H  H116  1  0.167100  0.036800  0.846000  1
  H  H117  1  0.359900  0.552800  0.379000  1
  H  H118  1  0.359900  0.447200  0.121000  1
  H  H119  1  0.859900  0.052800  0.379000  1
  H  H120  1  0.859900  0.947200  0.121000  1
  H  H121  1  0.640100  0.447200  0.621000  1
  H  H122  1  0.640100  0.552800  0.879000  1
  H  H123  1  0.140100  0.947200  0.621000  1
  H  H124  1  0.140100  0.052800  0.879000  1
  H  H125  1  0.359800  0.578900  0.347800  1
  H  H126  1  0.359800  0.421100  0.152200  1
  H  H127  1  0.859800  0.078900  0.347800  1
  H  H128  1  0.859800  0.921100  0.152200  1
  H  H129  1  0.640200  0.421100  0.652200  1
  H  H130  1  0.640200  0.578900  0.847800  1
  H  H131  1  0.140200  0.921100  0.652200  1
  H  H132  1  0.140200  0.078900  0.847800  1
  H  H133  1  0.797000  0.839200  0.014000  1
  H  H134  1  0.797000  0.160800  0.486000  1
  H  H135  1  0.297000  0.339200  0.014000  1
  H  H136  1  0.297000  0.660800  0.486000  1
  H  H137  1  0.203000  0.160800  0.986000  1
  H  H138  1  0.203000  0.839200  0.514000  1
  H  H139  1  0.703000  0.660800  0.986000  1
  H  H140  1  0.703000  0.339200  0.514000  1
  H  H141  1  0.842700  0.894600  0.001300  1
  H  H142  1  0.842700  0.105400  0.498700  1
  H  H143  1  0.342700  0.394600  0.001300  1
  H  H144  1  0.342700  0.605400  0.498700  1
  H  H145  1  0.157300  0.105400  0.998700  1
  H  H146  1  0.157300  0.894600  0.501300  1
  H  H147  1  0.657300  0.605400  0.998700  1
  H  H148  1  0.657300  0.394600  0.501300  1
  H  H149  1  0.802200  0.903600  0.026800  1
  H  H150  1  0.802200  0.096400  0.473200  1
  H  H151  1  0.302200  0.403600  0.026800  1
  H  H152  1  0.302200  0.596400  0.473200  1
  H  H153  1  0.197800  0.096400  0.973200  1
  H  H154  1  0.197800  0.903600  0.526800  1
  H  H155  1  0.697800  0.596400  0.973200  1
  H  H156  1  0.697800  0.403600  0.526800  1
  H  H157  1  0.796000  0.910300  0.988400  1
  H  H158  1  0.796000  0.089700  0.511600  1
  H  H159  1  0.296000  0.410300  0.988400  1
  H  H160  1  0.296000  0.589700  0.511600  1
  H  H161  1  0.204000  0.089700  0.011600  1
  H  H162  1  0.204000  0.910300  0.488400  1
  H  H163  1  0.704000  0.589700  0.011600  1
  H  H164  1  0.704000  0.410300  0.488400  1
  H  H165  1  0.110900  0.350100  0.980000  1
  H  H166  1  0.110900  0.649900  0.520000  1
  H  H167  1  0.610900  0.850100  0.980000  1
  H  H168  1  0.610900  0.149900  0.520000  1
  H  H169  1  0.889100  0.649900  0.020000  1
  H  H170  1  0.889100  0.350100  0.480000  1
  H  H171  1  0.389100  0.149900  0.020000  1
  H  H172  1  0.389100  0.850100  0.480000  1
  H  H173  1  0.076100  0.320800  0.941100  1
  H  H174  1  0.076100  0.679200  0.558900  1
  H  H175  1  0.576100  0.820800  0.941100  1
  H  H176  1  0.576100  0.179200  0.558900  1
  H  H177  1  0.923900  0.679200  0.058900  1
  H  H178  1  0.923900  0.320800  0.441100  1
  H  H179  1  0.423900  0.179200  0.058900  1
  H  H180  1  0.423900  0.820800  0.441100  1
  H  H181  1  0.123100  0.315200  0.922400  1
  H  H182  1  0.123100  0.684800  0.577600  1
  H  H183  1  0.623100  0.815200  0.922400  1
  H  H184  1  0.623100  0.184800  0.577600  1
  H  H185  1  0.876900  0.684800  0.077600  1
  H  H186  1  0.876900  0.315200  0.422400  1
  H  H187  1  0.376900  0.184800  0.077600  1
  H  H188  1  0.376900  0.815200  0.422400  1
  H  H189  1  0.093700  0.355200  0.919200  1
  H  H190  1  0.093700  0.644800  0.580800  1
  H  H191  1  0.593700  0.855200  0.919200  1
  H  H192  1  0.593700  0.144800  0.580800  1
  H  H193  1  0.906300  0.644800  0.080800  1
  H  H194  1  0.906300  0.355200  0.419200  1
  H  H195  1  0.406300  0.144800  0.080800  1
  H  H196  1  0.406300  0.855200  0.419200  1
  H  H197  1  0.483000  0.810900  0.008200  1.0
  H  H198  1  0.483000  0.189100  0.491800  1.0
  H  H199  1  0.983000  0.310900  0.008200  1.0
  H  H200  1  0.983000  0.689100  0.491800  1.0
  H  H201  1  0.517000  0.189100  0.991800  1.0
  H  H202  1  0.517000  0.810900  0.508200  1.0
  H  H203  1  0.017000  0.689100  0.991800  1.0
  H  H204  1  0.017000  0.310900  0.508200  1.0
  H  H205  1  0.543200  0.850700  0.994800  1.0
  H  H206  1  0.543200  0.149300  0.505200  1.0
  H  H207  1  0.043200  0.350700  0.994800  1.0
  H  H208  1  0.043200  0.649300  0.505200  1.0
  H  H209  1  0.456800  0.149300  0.005200  1.0
  H  H210  1  0.456800  0.850700  0.494800  1.0
  H  H211  1  0.956800  0.649300  0.005200  1.0
  H  H212  1  0.956800  0.350700  0.494800  1.0
  H  H213  1  0.601000  0.862900  0.033000  1.0
  H  H214  1  0.601000  0.137100  0.467000  1.0
  H  H215  1  0.101000  0.362900  0.033000  1.0
  H  H216  1  0.101000  0.637100  0.467000  1.0
  H  H217  1  0.399000  0.137100  0.967000  1.0
  H  H218  1  0.399000  0.862900  0.533000  1.0
  H  H219  1  0.899000  0.637100  0.967000  1.0
  H  H220  1  0.899000  0.362900  0.533000  1.0
  H  H221  1  0.598600  0.834000  0.082600  1.0
  H  H222  1  0.598600  0.166000  0.417400  1.0
  H  H223  1  0.098600  0.334000  0.082600  1.0
  H  H224  1  0.098600  0.666000  0.417400  1.0
  H  H225  1  0.401400  0.166000  0.917400  1.0
  H  H226  1  0.401400  0.834000  0.582600  1.0
  H  H227  1  0.901400  0.666000  0.917400  1.0
  H  H228  1  0.901400  0.334000  0.582600  1.0
  H  H229  1  0.423200  0.766300  0.024200  1.0
  H  H230  1  0.423200  0.233700  0.475800  1.0
  H  H231  1  0.923200  0.266300  0.024200  1.0
  H  H232  1  0.923200  0.733700  0.475800  1.0
  H  H233  1  0.576800  0.233700  0.975800  1.0
  H  H234  1  0.576800  0.766300  0.524200  1.0
  H  H235  1  0.076800  0.733700  0.975800  1.0
  H  H236  1  0.076800  0.266300  0.524200  1.0
  H  H237  1  0.390600  0.712200  0.055700  1.0
  H  H238  1  0.390600  0.287800  0.444300  1.0
  H  H239  1  0.890600  0.212200  0.055700  1.0
  H  H240  1  0.890600  0.787800  0.444300  1.0
  H  H241  1  0.609400  0.287800  0.944300  1.0
  H  H242  1  0.609400  0.712200  0.555700  1.0
  H  H243  1  0.109400  0.787800  0.944300  1.0
  H  H244  1  0.109400  0.212200  0.555700  1.0
  H  H245  1  0.463500  0.688500  0.122700  1.0
  H  H246  1  0.463500  0.311500  0.377300  1.0
  H  H247  1  0.963500  0.188500  0.122700  1.0
  H  H248  1  0.963500  0.811500  0.377300  1.0
  H  H249  1  0.536500  0.311500  0.877300  1.0
  H  H250  1  0.536500  0.688500  0.622700  1.0
  H  H251  1  0.036500  0.811500  0.877300  1.0
  H  H252  1  0.036500  0.188500  0.622700  1.0
  H  H253  1  0.420200  0.671100  0.102800  1.0
  H  H254  1  0.420200  0.328900  0.397200  1.0
  H  H255  1  0.920200  0.171100  0.102800  1.0
  H  H256  1  0.920200  0.828900  0.397200  1.0
  H  H257  1  0.579800  0.328900  0.897200  1.0
  H  H258  1  0.579800  0.671100  0.602800  1.0
  H  H259  1  0.079800  0.828900  0.897200  1.0
  H  H260  1  0.079800  0.171100  0.602800  1.0
  H  H261  1  0.250800  0.575900  0.326600  1.0
  H  H262  1  0.250800  0.424100  0.173400  1.0
  H  H263  1  0.750800  0.075900  0.326600  1.0
  H  H264  1  0.750800  0.924100  0.173400  1.0
  H  H265  1  0.749200  0.424100  0.673400  1.0
  H  H266  1  0.749200  0.575900  0.826600  1.0
  H  H267  1  0.249200  0.924100  0.673400  1.0
  H  H268  1  0.249200  0.075900  0.826600  1.0
  H  H269  1  0.192400  0.528900  0.323400  1.0
  H  H270  1  0.192400  0.471100  0.176600  1.0
  H  H271  1  0.692400  0.028900  0.323400  1.0
  H  H272  1  0.692400  0.971100  0.176600  1.0
  H  H273  1  0.807600  0.471100  0.676600  1.0
  H  H274  1  0.807600  0.528900  0.823400  1.0
  H  H275  1  0.307600  0.971100  0.676600  1.0
  H  H276  1  0.307600  0.028900  0.823400  1.0
  H  H277  1  0.141800  0.526700  0.278900  1.0
  H  H278  1  0.141800  0.473300  0.221100  1.0
  H  H279  1  0.641800  0.026700  0.278900  1.0
  H  H280  1  0.641800  0.973300  0.221100  1.0
  H  H281  1  0.858200  0.473300  0.721100  1.0
  H  H282  1  0.858200  0.526700  0.778900  1.0
  H  H283  1  0.358200  0.973300  0.721100  1.0
  H  H284  1  0.358200  0.026700  0.778900  1.0
  H  H285  1  0.151300  0.571900  0.239100  1.0
  H  H286  1  0.151300  0.428100  0.260900  1.0
  H  H287  1  0.651300  0.071900  0.239100  1.0
  H  H288  1  0.651300  0.928100  0.260900  1.0
  H  H289  1  0.848700  0.428100  0.760900  1.0
  H  H290  1  0.848700  0.571900  0.739100  1.0
  H  H291  1  0.348700  0.928100  0.760900  1.0
  H  H292  1  0.348700  0.071900  0.739100  1.0
  H  H293  1  0.307700  0.633200  0.328300  1.0
  H  H294  1  0.307700  0.366800  0.171700  1.0
  H  H295  1  0.807700  0.133200  0.328300  1.0
  H  H296  1  0.807700  0.866800  0.171700  1.0
  H  H297  1  0.692300  0.366800  0.671700  1.0
  H  H298  1  0.692300  0.633200  0.828300  1.0
  H  H299  1  0.192300  0.866800  0.671700  1.0
  H  H300  1  0.192300  0.133200  0.828300  1.0
  H  H301  1  0.346900  0.691900  0.306200  1.0
  H  H302  1  0.346900  0.308100  0.193800  1.0
  H  H303  1  0.846900  0.191900  0.306200  1.0
  H  H304  1  0.846900  0.808100  0.193800  1.0
  H  H305  1  0.653100  0.308100  0.693800  1.0
  H  H306  1  0.653100  0.691900  0.806200  1.0
  H  H307  1  0.153100  0.808100  0.693800  1.0
  H  H308  1  0.153100  0.191900  0.806200  1.0
  H  H309  1  0.332900  0.734000  0.255600  1.0
  H  H310  1  0.332900  0.266000  0.244400  1.0
  H  H311  1  0.832900  0.234000  0.255600  1.0
  H  H312  1  0.832900  0.766000  0.244400  1.0
  H  H313  1  0.667100  0.266000  0.744400  1.0
  H  H314  1  0.667100  0.734000  0.755600  1.0
  H  H315  1  0.167100  0.766000  0.744400  1.0
  H  H316  1  0.167100  0.234000  0.755600  1.0
  H  H317  1  0.290800  0.721100  0.232500  1.0
  H  H318  1  0.290800  0.278900  0.267500  1.0
  H  H319  1  0.790800  0.221100  0.232500  1.0
  H  H320  1  0.790800  0.778900  0.267500  1.0
  H  H321  1  0.709200  0.278900  0.767500  1.0
  H  H322  1  0.709200  0.721100  0.732500  1.0
  H  H323  1  0.209200  0.778900  0.767500  1.0
  H  H324  1  0.209200  0.221100  0.732500  1.0
  H  H325  1  0.399700  0.770500  0.121300  1.0
  H  H326  1  0.399700  0.229500  0.378700  1.0
  H  H327  1  0.899700  0.270500  0.121300  1.0
  H  H328  1  0.899700  0.729500  0.378700  1.0
  H  H329  1  0.600300  0.229500  0.878700  1.0
  H  H330  1  0.600300  0.770500  0.621300  1.0
  H  H331  1  0.100300  0.729500  0.878700  1.0
  H  H332  1  0.100300  0.270500  0.621300  1.0
  H  H333  1  0.353400  0.801900  0.163400  1.0
  H  H334  1  0.353400  0.198100  0.336600  1.0
  H  H335  1  0.853400  0.301900  0.163400  1.0
  H  H336  1  0.853400  0.698100  0.336600  1.0
  H  H337  1  0.646600  0.198100  0.836600  1.0
  H  H338  1  0.646600  0.801900  0.663400  1.0
  H  H339  1  0.146600  0.698100  0.836600  1.0
  H  H340  1  0.146600  0.301900  0.663400  1.0
  H  H341  1  0.331300  0.767300  0.206900  1.0
  H  H342  1  0.331300  0.232700  0.293100  1.0
  H  H343  1  0.831300  0.267300  0.206900  1.0
  H  H344  1  0.831300  0.732700  0.293100  1.0
  H  H345  1  0.668700  0.232700  0.793100  1.0
  H  H346  1  0.668700  0.767300  0.706900  1.0
  H  H347  1  0.168700  0.732700  0.793100  1.0
  H  H348  1  0.168700  0.267300  0.706900  1.0
  H  H349  1  0.425000  0.640000  0.152300  1.0
  H  H350  1  0.425000  0.360000  0.347700  1.0
  H  H351  1  0.925000  0.140000  0.152300  1.0
  H  H352  1  0.925000  0.860000  0.347700  1.0
  H  H353  1  0.575000  0.360000  0.847700  1.0
  H  H354  1  0.575000  0.640000  0.652300  1.0
  H  H355  1  0.075000  0.860000  0.847700  1.0
  H  H356  1  0.075000  0.140000  0.652300  1.0
  H  H357  1  0.401300  0.605400  0.195200  1.0
  H  H358  1  0.401300  0.394600  0.304800  1.0
  H  H359  1  0.901300  0.105400  0.195200  1.0
  H  H360  1  0.901300  0.894600  0.304800  1.0
  H  H361  1  0.598700  0.394600  0.804800  1.0
  H  H362  1  0.598700  0.605400  0.695200  1.0
  H  H363  1  0.098700  0.894600  0.804800  1.0
  H  H364  1  0.098700  0.105400  0.695200  1.0
  H  H365  1  0.350900  0.635100  0.234900  1.0
  H  H366  1  0.350900  0.364900  0.265100  1.0
  H  H367  1  0.850900  0.135100  0.234900  1.0
  H  H368  1  0.850900  0.864900  0.265100  1.0
  H  H369  1  0.649100  0.364900  0.765100  1.0
  H  H370  1  0.649100  0.635100  0.734900  1.0
  H  H371  1  0.149100  0.864900  0.765100  1.0
  H  H372  1  0.149100  0.135100  0.734900  1.0
  H  H373  1  0.306300  0.612300  0.122100  1.0
  H  H374  1  0.306300  0.387700  0.377900  1.0
  H  H375  1  0.806300  0.112300  0.122100  1.0
  H  H376  1  0.806300  0.887700  0.377900  1.0
  H  H377  1  0.693700  0.387700  0.877900  1.0
  H  H378  1  0.693700  0.612300  0.622100  1.0
  H  H379  1  0.193700  0.887700  0.877900  1.0
  H  H380  1  0.193700  0.112300  0.622100  1.0
  H  H381  1  0.324200  0.545200  0.129700  1.0
  H  H382  1  0.324200  0.454800  0.370300  1.0
  H  H383  1  0.824200  0.045200  0.129700  1.0
  H  H384  1  0.824200  0.954800  0.370300  1.0
  H  H385  1  0.675800  0.454800  0.870300  1.0
  H  H386  1  0.675800  0.545200  0.629700  1.0
  H  H387  1  0.175800  0.954800  0.870300  1.0
  H  H388  1  0.175800  0.045200  0.629700  1.0
  H  H389  1  0.302400  0.518600  0.178400  1.0
  H  H390  1  0.302400  0.481400  0.321600  1.0
  H  H391  1  0.802400  0.018600  0.178400  1.0
  H  H392  1  0.802400  0.981400  0.321600  1.0
  H  H393  1  0.697600  0.481400  0.821600  1.0
  H  H394  1  0.697600  0.518600  0.678400  1.0
  H  H395  1  0.197600  0.981400  0.821600  1.0
  H  H396  1  0.197600  0.018600  0.678400  1.0
  H  H397  1  0.260000  0.558300  0.216500  1.0
  H  H398  1  0.260000  0.441700  0.283500  1.0
  H  H399  1  0.760000  0.058300  0.216500  1.0
  H  H400  1  0.760000  0.941700  0.283500  1.0
  H  H401  1  0.740000  0.441700  0.783500  1.0
  H  H402  1  0.740000  0.558300  0.716500  1.0
  H  H403  1  0.240000  0.941700  0.783500  1.0
  H  H404  1  0.240000  0.058300  0.716500  1.0
  H  H405  1  0.286100  0.683700  0.117200  1.0
  H  H406  1  0.286100  0.316300  0.382800  1.0
  H  H407  1  0.786100  0.183700  0.117200  1.0
  H  H408  1  0.786100  0.816300  0.382800  1.0
  H  H409  1  0.713900  0.316300  0.882800  1.0
  H  H410  1  0.713900  0.683700  0.617200  1.0
  H  H411  1  0.213900  0.816300  0.882800  1.0
  H  H412  1  0.213900  0.183700  0.617200  1.0
  H  H413  1  0.252900  0.751500  0.136900  1.0
  H  H414  1  0.252900  0.248500  0.363100  1.0
  H  H415  1  0.752900  0.251500  0.136900  1.0
  H  H416  1  0.752900  0.748500  0.363100  1.0
  H  H417  1  0.747100  0.248500  0.863100  1.0
  H  H418  1  0.747100  0.751500  0.636900  1.0
  H  H419  1  0.247100  0.748500  0.863100  1.0
  H  H420  1  0.247100  0.251500  0.636900  1.0
  H  H421  1  0.217200  0.782800  0.191000  1.0
  H  H422  1  0.217200  0.217200  0.309000  1.0
  H  H423  1  0.717200  0.282800  0.191000  1.0
  H  H424  1  0.717200  0.717200  0.309000  1.0
  H  H425  1  0.782800  0.217200  0.809000  1.0
  H  H426  1  0.782800  0.782800  0.691000  1.0
  H  H427  1  0.282800  0.717200  0.809000  1.0
  H  H428  1  0.282800  0.282800  0.691000  1.0
  H  H429  1  0.207200  0.753200  0.219100  1.0
  H  H430  1  0.207200  0.246800  0.280900  1.0
  H  H431  1  0.707200  0.253200  0.219100  1.0
  H  H432  1  0.707200  0.746800  0.280900  1.0
  H  H433  1  0.792800  0.246800  0.780900  1.0
  H  H434  1  0.792800  0.753200  0.719100  1.0
  H  H435  1  0.292800  0.746800  0.780900  1.0
  H  H436  1  0.292800  0.253200  0.719100  1.0
  H  H437  1  0.902100  0.973800  0.214300  1.0
  H  H438  1  0.902100  0.026200  0.285700  1.0
  H  H439  1  0.402100  0.473800  0.214300  1.0
  H  H440  1  0.402100  0.526200  0.285700  1.0
  H  H441  1  0.097900  0.026200  0.785700  1.0
  H  H442  1  0.097900  0.973800  0.714300  1.0
  H  H443  1  0.597900  0.526200  0.785700  1.0
  H  H444  1  0.597900  0.473800  0.714300  1.0
  H  H445  1  0.894600  0.035200  0.188600  1.0
  H  H446  1  0.894600  0.964800  0.311400  1.0
  H  H447  1  0.394600  0.535200  0.188600  1.0
  H  H448  1  0.394600  0.464800  0.311400  1.0
  H  H449  1  0.105400  0.964800  0.811400  1.0
  H  H450  1  0.105400  0.035200  0.688600  1.0
  H  H451  1  0.605400  0.464800  0.811400  1.0
  H  H452  1  0.605400  0.535200  0.688600  1.0
  H  H453  1  0.935500  0.043100  0.140700  1.0
  H  H454  1  0.935500  0.956900  0.359300  1.0
  H  H455  1  0.435500  0.543100  0.140700  1.0
  H  H456  1  0.435500  0.456900  0.359300  1.0
  H  H457  1  0.064500  0.956900  0.859300  1.0
  H  H458  1  0.064500  0.043100  0.640700  1.0
  H  H459  1  0.564500  0.456900  0.859300  1.0
  H  H460  1  0.564500  0.543100  0.640700  1.0
  H  H461  1  0.982700  0.990800  0.119100  1.0
  H  H462  1  0.982700  0.009200  0.380900  1.0
  H  H463  1  0.482700  0.490800  0.119100  1.0
  H  H464  1  0.482700  0.509200  0.380900  1.0
  H  H465  1  0.017300  0.009200  0.880900  1.0
  H  H466  1  0.017300  0.990800  0.619100  1.0
  H  H467  1  0.517300  0.509200  0.880900  1.0
  H  H468  1  0.517300  0.490800  0.619100  1.0
  H  H469  1  0.905500  0.903700  0.232600  1.0
  H  H470  1  0.905500  0.096300  0.267400  1.0
  H  H471  1  0.405500  0.403700  0.232600  1.0
  H  H472  1  0.405500  0.596300  0.267400  1.0
  H  H473  1  0.094500  0.096300  0.767400  1.0
  H  H474  1  0.094500  0.903700  0.732600  1.0
  H  H475  1  0.594500  0.596300  0.767400  1.0
  H  H476  1  0.594500  0.403700  0.732600  1.0
  H  H477  1  0.935100  0.833500  0.232800  1.0
  H  H478  1  0.935100  0.166500  0.267200  1.0
  H  H479  1  0.435100  0.333500  0.232800  1.0
  H  H480  1  0.435100  0.666500  0.267200  1.0
  H  H481  1  0.064900  0.166500  0.767200  1.0
  H  H482  1  0.064900  0.833500  0.732800  1.0
  H  H483  1  0.564900  0.666500  0.767200  1.0
  H  H484  1  0.564900  0.333500  0.732800  1.0
  H  H485  1  0.003300  0.806200  0.161000  1.0
  H  H486  1  0.003300  0.193800  0.339000  1.0
  H  H487  1  0.503300  0.306200  0.161000  1.0
  H  H488  1  0.503300  0.693800  0.339000  1.0
  H  H489  1  0.996700  0.193800  0.839000  1.0
  H  H490  1  0.996700  0.806200  0.661000  1.0
  H  H491  1  0.496700  0.693800  0.839000  1.0
  H  H492  1  0.496700  0.306200  0.661000  1.0
  H  H493  1  0.987300  0.787900  0.194100  1.0
  H  H494  1  0.987300  0.212100  0.305900  1.0
  H  H495  1  0.487300  0.287900  0.194100  1.0
  H  H496  1  0.487300  0.712100  0.305900  1.0
  H  H497  1  0.012700  0.212100  0.805900  1.0
  H  H498  1  0.012700  0.787900  0.694100  1.0
  H  H499  1  0.512700  0.712100  0.805900  1.0
  H  H500  1  0.512700  0.287900  0.694100  1.0
  H  H501  1  0.161700  0.703000  0.153200  1.0
  H  H502  1  0.161700  0.297000  0.346800  1.0
  H  H503  1  0.661700  0.203000  0.153200  1.0
  H  H504  1  0.661700  0.797000  0.346800  1.0
  H  H505  1  0.838300  0.297000  0.846800  1.0
  H  H506  1  0.838300  0.703000  0.653200  1.0
  H  H507  1  0.338300  0.797000  0.846800  1.0
  H  H508  1  0.338300  0.203000  0.653200  1.0
  H  H509  1  0.086000  0.698500  0.137300  1.0
  H  H510  1  0.086000  0.301500  0.362700  1.0
  H  H511  1  0.586000  0.198500  0.137300  1.0
  H  H512  1  0.586000  0.801500  0.362700  1.0
  H  H513  1  0.914000  0.301500  0.862700  1.0
  H  H514  1  0.914000  0.698500  0.637300  1.0
  H  H515  1  0.414000  0.801500  0.862700  1.0
  H  H516  1  0.414000  0.198500  0.637300  1.0
  H  H517  1  0.035500  0.745500  0.159000  1.0
  H  H518  1  0.035500  0.254500  0.341000  1.0
  H  H519  1  0.535500  0.245500  0.159000  1.0
  H  H520  1  0.535500  0.754500  0.341000  1.0
  H  H521  1  0.964500  0.254500  0.841000  1.0
  H  H522  1  0.964500  0.745500  0.659000  1.0
  H  H523  1  0.464500  0.754500  0.841000  1.0
  H  H524  1  0.464500  0.245500  0.659000  1.0
  H  H525  1  0.168800  0.819300  0.228400  1.0
  H  H526  1  0.168800  0.180700  0.271600  1.0
  H  H527  1  0.668800  0.319300  0.228400  1.0
  H  H528  1  0.668800  0.680700  0.271600  1.0
  H  H529  1  0.831200  0.180700  0.771600  1.0
  H  H530  1  0.831200  0.819300  0.728400  1.0
  H  H531  1  0.331200  0.680700  0.771600  1.0
  H  H532  1  0.331200  0.319300  0.728400  1.0
  H  H533  1  0.118200  0.868600  0.247500  1.0
  H  H534  1  0.118200  0.131400  0.252500  1.0
  H  H535  1  0.618200  0.368600  0.247500  1.0
  H  H536  1  0.618200  0.631400  0.252500  1.0
  H  H537  1  0.881800  0.131400  0.752500  1.0
  H  H538  1  0.881800  0.868600  0.747500  1.0
  H  H539  1  0.381800  0.631400  0.752500  1.0
  H  H540  1  0.381800  0.368600  0.747500  1.0
  H  H541  1  0.044300  0.867200  0.228400  1.0
  H  H542  1  0.044300  0.132800  0.271600  1.0
  H  H543  1  0.544300  0.367200  0.228400  1.0
  H  H544  1  0.544300  0.632800  0.271600  1.0
  H  H545  1  0.955700  0.132800  0.771600  1.0
  H  H546  1  0.955700  0.867200  0.728400  1.0
  H  H547  1  0.455700  0.632800  0.771600  1.0
  H  H548  1  0.455700  0.367200  0.728400  1.0
  H  H549  1  0.068900  0.716300  0.252000  1.0
  H  H550  1  0.068900  0.283700  0.248000  1.0
  H  H551  1  0.568900  0.216300  0.252000  1.0
  H  H552  1  0.568900  0.783700  0.248000  1.0
  H  H553  1  0.931100  0.283700  0.748000  1.0
  H  H554  1  0.931100  0.716300  0.752000  1.0
  H  H555  1  0.431100  0.783700  0.748000  1.0
  H  H556  1  0.431100  0.216300  0.752000  1.0
  H  H557  1  0.092200  0.768500  0.289800  1.0
  H  H558  1  0.092200  0.231500  0.210200  1.0
  H  H559  1  0.592200  0.268500  0.289800  1.0
  H  H560  1  0.592200  0.731500  0.210200  1.0
  H  H561  1  0.907800  0.231500  0.710200  1.0
  H  H562  1  0.907800  0.768500  0.789800  1.0
  H  H563  1  0.407800  0.731500  0.710200  1.0
  H  H564  1  0.407800  0.268500  0.789800  1.0
  H  H565  1  0.168400  0.770800  0.305100  1.0
  H  H566  1  0.168400  0.229200  0.194900  1.0
  H  H567  1  0.668400  0.270800  0.305100  1.0
  H  H568  1  0.668400  0.729200  0.194900  1.0
  H  H569  1  0.831600  0.229200  0.694900  1.0
  H  H570  1  0.831600  0.770800  0.805100  1.0
  H  H571  1  0.331600  0.729200  0.694900  1.0
  H  H572  1  0.331600  0.270800  0.805100  1.0
  H  H573  1  0.217000  0.721800  0.280700  1.0
  H  H574  1  0.217000  0.278200  0.219300  1.0
  H  H575  1  0.717000  0.221800  0.280700  1.0
  H  H576  1  0.717000  0.778200  0.219300  1.0
  H  H577  1  0.783000  0.278200  0.719300  1.0
  H  H578  1  0.783000  0.721800  0.780700  1.0
  H  H579  1  0.283000  0.778200  0.719300  1.0
  H  H580  1  0.283000  0.221800  0.780700  1.0
  H  H581  1  0.046400  0.651000  0.214700  1.0
  H  H582  1  0.046400  0.349000  0.285300  1.0
  H  H583  1  0.546400  0.151000  0.214700  1.0
  H  H584  1  0.546400  0.849000  0.285300  1.0
  H  H585  1  0.953600  0.349000  0.785300  1.0
  H  H586  1  0.953600  0.651000  0.714700  1.0
  H  H587  1  0.453600  0.849000  0.785300  1.0
  H  H588  1  0.453600  0.151000  0.714700  1.0
  H  H589  1  0.062700  0.591600  0.173900  1.0
  H  H590  1  0.062700  0.408400  0.326100  1.0
  H  H591  1  0.562700  0.091600  0.173900  1.0
  H  H592  1  0.562700  0.908400  0.326100  1.0
  H  H593  1  0.937300  0.408400  0.826100  1.0
  H  H594  1  0.937300  0.591600  0.673900  1.0
  H  H595  1  0.437300  0.908400  0.826100  1.0
  H  H596  1  0.437300  0.091600  0.673900  1.0
  H  H597  1  0.135600  0.548200  0.158200  1.0
  H  H598  1  0.135600  0.451800  0.341800  1.0
  H  H599  1  0.635600  0.048200  0.158200  1.0
  H  H600  1  0.635600  0.951800  0.341800  1.0
  H  H601  1  0.864400  0.451800  0.841800  1.0
  H  H602  1  0.864400  0.548200  0.658200  1.0
  H  H603  1  0.364400  0.951800  0.841800  1.0
  H  H604  1  0.364400  0.048200  0.658200  1.0
  H  H605  1  0.181300  0.566100  0.174300  1.0
  H  H606  1  0.181300  0.433900  0.325700  1.0
  H  H607  1  0.681300  0.066100  0.174300  1.0
  H  H608  1  0.681300  0.933900  0.325700  1.0
  H  H609  1  0.818700  0.433900  0.825700  1.0
  H  H610  1  0.818700  0.566100  0.674300  1.0
  H  H611  1  0.318700  0.933900  0.825700  1.0
  H  H612  1  0.318700  0.066100  0.674300  1.0
  H  H613  1  0.300300  0.418900  0.923700  1.0
  H  H614  1  0.300300  0.581100  0.576300  1.0
  H  H615  1  0.800300  0.918900  0.923700  1.0
  H  H616  1  0.800300  0.081100  0.576300  1.0
  H  H617  1  0.699700  0.581100  0.076300  1.0
  H  H618  1  0.699700  0.418900  0.423700  1.0
  H  H619  1  0.199700  0.081100  0.076300  1.0
  H  H620  1  0.199700  0.918900  0.423700  1.0
  H  H621  1  0.268200  0.369400  0.888300  1.0
  H  H622  1  0.268200  0.630600  0.611700  1.0
  H  H623  1  0.768200  0.869400  0.888300  1.0
  H  H624  1  0.768200  0.130600  0.611700  1.0
  H  H625  1  0.731800  0.630600  0.111700  1.0
  H  H626  1  0.731800  0.369400  0.388300  1.0
  H  H627  1  0.231800  0.130600  0.111700  1.0
  H  H628  1  0.231800  0.869400  0.388300  1.0
  H  H629  1  0.190300  0.365700  0.883600  1.0
  H  H630  1  0.190300  0.634300  0.616400  1.0
  H  H631  1  0.690300  0.865700  0.883600  1.0
  H  H632  1  0.690300  0.134300  0.616400  1.0
  H  H633  1  0.809700  0.634300  0.116400  1.0
  H  H634  1  0.809700  0.365700  0.383600  1.0
  H  H635  1  0.309700  0.134300  0.116400  1.0
  H  H636  1  0.309700  0.865700  0.383600  1.0
  H  H637  1  0.147700  0.415200  0.914500  1.0
  H  H638  1  0.147700  0.584800  0.585500  1.0
  H  H639  1  0.647700  0.915200  0.914500  1.0
  H  H640  1  0.647700  0.084800  0.585500  1.0
  H  H641  1  0.852300  0.584800  0.085500  1.0
  H  H642  1  0.852300  0.415200  0.414500  1.0
  H  H643  1  0.352300  0.084800  0.085500  1.0
  H  H644  1  0.352300  0.915200  0.414500  1.0
  H  H645  1  0.330600  0.479300  0.962100  1.0
  H  H646  1  0.330600  0.520700  0.537900  1.0
  H  H647  1  0.830600  0.979300  0.962100  1.0
  H  H648  1  0.830600  0.020700  0.537900  1.0
  H  H649  1  0.669400  0.520700  0.037900  1.0
  H  H650  1  0.669400  0.479300  0.462100  1.0
  H  H651  1  0.169400  0.020700  0.037900  1.0
  H  H652  1  0.169400  0.979300  0.462100  1.0
  H  H653  1  0.323700  0.542100  0.001600  1.0
  H  H654  1  0.323700  0.457900  0.498400  1.0
  H  H655  1  0.823700  0.042100  0.001600  1.0
  H  H656  1  0.823700  0.957900  0.498400  1.0
  H  H657  1  0.676300  0.457900  0.998400  1.0
  H  H658  1  0.676300  0.542100  0.501600  1.0
  H  H659  1  0.176300  0.957900  0.998400  1.0
  H  H660  1  0.176300  0.042100  0.501600  1.0
  H  H661  1  0.207500  0.574100  0.009500  1.0
  H  H662  1  0.207500  0.425900  0.490500  1.0
  H  H663  1  0.707500  0.074100  0.009500  1.0
  H  H664  1  0.707500  0.925900  0.490500  1.0
  H  H665  1  0.792500  0.425900  0.990500  1.0
  H  H666  1  0.792500  0.574100  0.509500  1.0
  H  H667  1  0.292500  0.925900  0.990500  1.0
  H  H668  1  0.292500  0.074100  0.509500  1.0
  H  H669  1  0.256000  0.589700  0.021500  1.0
  H  H670  1  0.256000  0.410300  0.478500  1.0
  H  H671  1  0.756000  0.089700  0.021500  1.0
  H  H672  1  0.756000  0.910300  0.478500  1.0
  H  H673  1  0.744000  0.410300  0.978500  1.0
  H  H674  1  0.744000  0.589700  0.521500  1.0
  H  H675  1  0.244000  0.910300  0.978500  1.0
  H  H676  1  0.244000  0.089700  0.521500  1.0
  H  H677  1  0.131600  0.641000  0.135800  1.0
  H  H678  1  0.131600  0.359000  0.364200  1.0
  H  H679  1  0.631600  0.141000  0.135800  1.0
  H  H680  1  0.631600  0.859000  0.364200  1.0
  H  H681  1  0.868400  0.359000  0.864200  1.0
  H  H682  1  0.868400  0.641000  0.635800  1.0
  H  H683  1  0.368400  0.859000  0.864200  1.0
  H  H684  1  0.368400  0.141000  0.635800  1.0
  H  H685  1  0.152400  0.665700  0.087300  1.0
  H  H686  1  0.152400  0.334300  0.412700  1.0
  H  H687  1  0.652400  0.165700  0.087300  1.0
  H  H688  1  0.652400  0.834300  0.412700  1.0
  H  H689  1  0.847600  0.334300  0.912700  1.0
  H  H690  1  0.847600  0.665700  0.587300  1.0
  H  H691  1  0.347600  0.834300  0.912700  1.0
  H  H692  1  0.347600  0.165700  0.587300  1.0
  H  H693  1  0.195900  0.626800  0.049200  1.0
  H  H694  1  0.195900  0.373200  0.450800  1.0
  H  H695  1  0.695900  0.126800  0.049200  1.0
  H  H696  1  0.695900  0.873200  0.450800  1.0
  H  H697  1  0.804100  0.373200  0.950800  1.0
  H  H698  1  0.804100  0.626800  0.549200  1.0
  H  H699  1  0.304100  0.873200  0.950800  1.0
  H  H700  1  0.304100  0.126800  0.549200  1.0
  H  H701  1  0.201100  0.514500  0.134500  1.0
  H  H702  1  0.201100  0.485500  0.365500  1.0
  H  H703  1  0.701100  0.014500  0.134500  1.0
  H  H704  1  0.701100  0.985500  0.365500  1.0
  H  H705  1  0.798900  0.485500  0.865500  1.0
  H  H706  1  0.798900  0.514500  0.634500  1.0
  H  H707  1  0.298900  0.985500  0.865500  1.0
  H  H708  1  0.298900  0.014500  0.634500  1.0
  H  H709  1  0.244100  0.475000  0.096900  1.0
  H  H710  1  0.244100  0.525000  0.403100  1.0
  H  H711  1  0.744100  0.975000  0.096900  1.0
  H  H712  1  0.744100  0.025000  0.403100  1.0
  H  H713  1  0.755900  0.525000  0.903100  1.0
  H  H714  1  0.755900  0.475000  0.596900  1.0
  H  H715  1  0.255900  0.025000  0.903100  1.0
  H  H716  1  0.255900  0.975000  0.596900  1.0
  H  H717  1  0.259200  0.495600  0.043900  1.0
  H  H718  1  0.259200  0.504400  0.456100  1.0
  H  H719  1  0.759200  0.995600  0.043900  1.0
  H  H720  1  0.759200  0.004400  0.456100  1.0
  H  H721  1  0.740800  0.504400  0.956100  1.0
  H  H722  1  0.740800  0.495600  0.543900  1.0
  H  H723  1  0.240800  0.004400  0.956100  1.0
  H  H724  1  0.240800  0.995600  0.543900  1.0
  H  H725  1  0.130000  0.455100  0.086400  1.0
  H  H726  1  0.130000  0.544900  0.413600  1.0
  H  H727  1  0.630000  0.955100  0.086400  1.0
  H  H728  1  0.630000  0.044900  0.413600  1.0
  H  H729  1  0.870000  0.544900  0.913600  1.0
  H  H730  1  0.870000  0.455100  0.586400  1.0
  H  H731  1  0.370000  0.044900  0.913600  1.0
  H  H732  1  0.370000  0.955100  0.586400  1.0
  H  H733  1  0.171200  0.393900  0.085300  1.0
  H  H734  1  0.171200  0.606100  0.414700  1.0
  H  H735  1  0.671200  0.893900  0.085300  1.0
  H  H736  1  0.671200  0.106100  0.414700  1.0
  H  H737  1  0.828800  0.606100  0.914700  1.0
  H  H738  1  0.828800  0.393900  0.585300  1.0
  H  H739  1  0.328800  0.106100  0.914700  1.0
  H  H740  1  0.328800  0.893900  0.585300  1.0
  H  H741  1  0.208900  0.370100  0.036300  1.0
  H  H742  1  0.208900  0.629900  0.463700  1.0
  H  H743  1  0.708900  0.870100  0.036300  1.0
  H  H744  1  0.708900  0.129900  0.463700  1.0
  H  H745  1  0.791100  0.629900  0.963700  1.0
  H  H746  1  0.791100  0.370100  0.536300  1.0
  H  H747  1  0.291100  0.129900  0.963700  1.0
  H  H748  1  0.291100  0.870100  0.536300  1.0
  H  H749  1  0.203200  0.405900  0.989400  1.0
  H  H750  1  0.203200  0.594100  0.510600  1.0
  H  H751  1  0.703200  0.905900  0.989400  1.0
  H  H752  1  0.703200  0.094100  0.510600  1.0
  H  H753  1  0.796800  0.594100  0.010600  1.0
  H  H754  1  0.796800  0.405900  0.489400  1.0
  H  H755  1  0.296800  0.094100  0.010600  1.0
  H  H756  1  0.296800  0.905900  0.489400  1.0
  H  H757  1  0.091800  0.521300  0.083000  1.0
  H  H758  1  0.091800  0.478700  0.417000  1.0
  H  H759  1  0.591800  0.021300  0.083000  1.0
  H  H760  1  0.591800  0.978700  0.417000  1.0
  H  H761  1  0.908200  0.478700  0.917000  1.0
  H  H762  1  0.908200  0.521300  0.583000  1.0
  H  H763  1  0.408200  0.978700  0.917000  1.0
  H  H764  1  0.408200  0.021300  0.583000  1.0
  H  H765  1  0.077600  0.587400  0.060000  1.0
  H  H766  1  0.077600  0.412600  0.440000  1.0
  H  H767  1  0.577600  0.087400  0.060000  1.0
  H  H768  1  0.577600  0.912600  0.440000  1.0
  H  H769  1  0.922400  0.412600  0.940000  1.0
  H  H770  1  0.922400  0.587400  0.560000  1.0
  H  H771  1  0.422400  0.912600  0.940000  1.0
  H  H772  1  0.422400  0.087400  0.560000  1.0
  H  H773  1  0.140300  0.590300  0.982900  1.0
  H  H774  1  0.140300  0.409700  0.517100  1.0
  H  H775  1  0.640300  0.090300  0.982900  1.0
  H  H776  1  0.640300  0.909700  0.517100  1.0
  H  H777  1  0.859700  0.409700  0.017100  1.0
  H  H778  1  0.859700  0.590300  0.482900  1.0
  H  H779  1  0.359700  0.909700  0.017100  1.0
  H  H780  1  0.359700  0.090300  0.482900  1.0
  H  H781  1  0.109900  0.619600  0.007800  1.0
  H  H782  1  0.109900  0.380400  0.492200  1.0
  H  H783  1  0.609900  0.119600  0.007800  1.0
  H  H784  1  0.609900  0.880400  0.492200  1.0
  H  H785  1  0.890100  0.380400  0.992200  1.0
  H  H786  1  0.890100  0.619600  0.507800  1.0
  H  H787  1  0.390100  0.880400  0.992200  1.0
  H  H788  1  0.390100  0.119600  0.507800  1.0
  H  H789  1  0.023800  0.760900  0.774000  1.0
  H  H790  1  0.023800  0.239100  0.726000  1.0
  H  H791  1  0.523800  0.260900  0.774000  1.0
  H  H792  1  0.523800  0.739100  0.726000  1.0
  H  H793  1  0.976200  0.239100  0.226000  1.0
  H  H794  1  0.976200  0.760900  0.274000  1.0
  H  H795  1  0.476200  0.739100  0.226000  1.0
  H  H796  1  0.476200  0.260900  0.274000  1.0
  H  H797  1  0.001700  0.830300  0.775500  1.0
  H  H798  1  0.001700  0.169700  0.724500  1.0
  H  H799  1  0.501700  0.330300  0.775500  1.0
  H  H800  1  0.501700  0.669700  0.724500  1.0
  H  H801  1  0.998300  0.169700  0.224500  1.0
  H  H802  1  0.998300  0.830300  0.275500  1.0
  H  H803  1  0.498300  0.669700  0.224500  1.0
  H  H804  1  0.498300  0.330300  0.275500  1.0
  H  H805  1  0.958200  0.857100  0.819400  1.0
  H  H806  1  0.958200  0.142900  0.680600  1.0
  H  H807  1  0.458200  0.357100  0.819400  1.0
  H  H808  1  0.458200  0.642900  0.680600  1.0
  H  H809  1  0.041800  0.142900  0.180600  1.0
  H  H810  1  0.041800  0.857100  0.319400  1.0
  H  H811  1  0.541800  0.642900  0.180600  1.0
  H  H812  1  0.541800  0.357100  0.319400  1.0
  H  H813  1  0.944200  0.819500  0.863800  1.0
  H  H814  1  0.944200  0.180500  0.636200  1.0
  H  H815  1  0.444200  0.319500  0.863800  1.0
  H  H816  1  0.444200  0.680500  0.636200  1.0
  H  H817  1  0.055800  0.180500  0.136200  1.0
  H  H818  1  0.055800  0.819500  0.363800  1.0
  H  H819  1  0.555800  0.680500  0.136200  1.0
  H  H820  1  0.555800  0.319500  0.363800  1.0
  H  H821  1  0.036300  0.686100  0.774000  1.0
  H  H822  1  0.036300  0.313900  0.726000  1.0
  H  H823  1  0.536300  0.186100  0.774000  1.0
  H  H824  1  0.536300  0.813900  0.726000  1.0
  H  H825  1  0.963700  0.313900  0.226000  1.0
  H  H826  1  0.963700  0.686100  0.274000  1.0
  H  H827  1  0.463700  0.813900  0.226000  1.0
  H  H828  1  0.463700  0.186100  0.274000  1.0
  H  H829  1  0.037500  0.618900  0.798800  1.0
  H  H830  1  0.037500  0.381100  0.701200  1.0
  H  H831  1  0.537500  0.118900  0.798800  1.0
  H  H832  1  0.537500  0.881100  0.701200  1.0
  H  H833  1  0.962500  0.381100  0.201200  1.0
  H  H834  1  0.962500  0.618900  0.298800  1.0
  H  H835  1  0.462500  0.881100  0.201200  1.0
  H  H836  1  0.462500  0.118900  0.298800  1.0
  H  H837  1  0.976300  0.626700  0.877200  1.0
  H  H838  1  0.976300  0.373300  0.622800  1.0
  H  H839  1  0.476300  0.126700  0.877200  1.0
  H  H840  1  0.476300  0.873300  0.622800  1.0
  H  H841  1  0.023700  0.373300  0.122800  1.0
  H  H842  1  0.023700  0.626700  0.377200  1.0
  H  H843  1  0.523700  0.873300  0.122800  1.0
  H  H844  1  0.523700  0.126700  0.377200  1.0
  H  H845  1  0.004800  0.594100  0.853900  1.0
  H  H846  1  0.004800  0.405900  0.646100  1.0
  H  H847  1  0.504800  0.094100  0.853900  1.0
  H  H848  1  0.504800  0.905900  0.646100  1.0
  H  H849  1  0.995200  0.405900  0.146100  1.0
  H  H850  1  0.995200  0.594100  0.353900  1.0
  H  H851  1  0.495200  0.905900  0.146100  1.0
  H  H852  1  0.495200  0.094100  0.353900  1.0
  H  H853  1  0.036400  0.546500  0.993300  1.0
  H  H854  1  0.036400  0.453500  0.506700  1.0
  H  H855  1  0.536400  0.046500  0.993300  1.0
  H  H856  1  0.536400  0.953500  0.506700  1.0
  H  H857  1  0.963600  0.453500  0.006700  1.0
  H  H858  1  0.963600  0.546500  0.493300  1.0
  H  H859  1  0.463600  0.953500  0.006700  1.0
  H  H860  1  0.463600  0.046500  0.493300  1.0
  H  H861  1  0.978200  0.539400  0.954300  1.0
  H  H862  1  0.978200  0.460600  0.545700  1.0
  H  H863  1  0.478200  0.039400  0.954300  1.0
  H  H864  1  0.478200  0.960600  0.545700  1.0
  H  H865  1  0.021800  0.460600  0.045700  1.0
  H  H866  1  0.021800  0.539400  0.454300  1.0
  H  H867  1  0.521800  0.960600  0.045700  1.0
  H  H868  1  0.521800  0.039400  0.454300  1.0
  H  H869  1  0.979900  0.573900  0.907800  1.0
  H  H870  1  0.979900  0.426100  0.592200  1.0
  H  H871  1  0.479900  0.073900  0.907800  1.0
  H  H872  1  0.479900  0.926100  0.592200  1.0
  H  H873  1  0.020100  0.426100  0.092200  1.0
  H  H874  1  0.020100  0.573900  0.407800  1.0
  H  H875  1  0.520100  0.926100  0.092200  1.0
  H  H876  1  0.520100  0.073900  0.407800  1.0
  H  H877  1  0.134300  0.639700  0.952500  1.0
  H  H878  1  0.134300  0.360300  0.547500  1.0
  H  H879  1  0.634300  0.139700  0.952500  1.0
  H  H880  1  0.634300  0.860300  0.547500  1.0
  H  H881  1  0.865700  0.360300  0.047500  1.0
  H  H882  1  0.865700  0.639700  0.452500  1.0
  H  H883  1  0.365700  0.860300  0.047500  1.0
  H  H884  1  0.365700  0.139700  0.452500  1.0
  H  H885  1  0.138000  0.671400  0.905100  1.0
  H  H886  1  0.138000  0.328600  0.594900  1.0
  H  H887  1  0.638000  0.171400  0.905100  1.0
  H  H888  1  0.638000  0.828600  0.594900  1.0
  H  H889  1  0.862000  0.328600  0.094900  1.0
  H  H890  1  0.862000  0.671400  0.405100  1.0
  H  H891  1  0.362000  0.828600  0.094900  1.0
  H  H892  1  0.362000  0.171400  0.405100  1.0
  H  H893  1  0.082600  0.662900  0.865200  1.0
  H  H894  1  0.082600  0.337100  0.634800  1.0
  H  H895  1  0.582600  0.162900  0.865200  1.0
  H  H896  1  0.582600  0.837100  0.634800  1.0
  H  H897  1  0.917400  0.337100  0.134800  1.0
  H  H898  1  0.917400  0.662900  0.365200  1.0
  H  H899  1  0.417400  0.837100  0.134800  1.0
  H  H900  1  0.417400  0.162900  0.365200  1.0
  H  H901  1  0.174100  0.893600  0.163700  1.0
  H  H902  1  0.174100  0.106400  0.336300  1.0
  H  H903  1  0.674100  0.393600  0.163700  1.0
  H  H904  1  0.674100  0.606400  0.336300  1.0
  H  H905  1  0.825900  0.106400  0.836300  1.0
  H  H906  1  0.825900  0.893600  0.663700  1.0
  H  H907  1  0.325900  0.606400  0.836300  1.0
  H  H908  1  0.325900  0.393600  0.663700  1.0
  H  H909  1  0.178500  0.953300  0.199900  1.0
  H  H910  1  0.178500  0.046700  0.300100  1.0
  H  H911  1  0.678500  0.453300  0.199900  1.0
  H  H912  1  0.678500  0.546700  0.300100  1.0
  H  H913  1  0.821500  0.046700  0.800100  1.0
  H  H914  1  0.821500  0.953300  0.699900  1.0
  H  H915  1  0.321500  0.546700  0.800100  1.0
  H  H916  1  0.321500  0.453300  0.699900  1.0
  H  H917  1  0.114000  0.991900  0.211600  1.0
  H  H918  1  0.114000  0.008100  0.288400  1.0
  H  H919  1  0.614000  0.491900  0.211600  1.0
  H  H920  1  0.614000  0.508100  0.288400  1.0
  H  H921  1  0.886000  0.008100  0.788400  1.0
  H  H922  1  0.886000  0.991900  0.711600  1.0
  H  H923  1  0.386000  0.508100  0.788400  1.0
  H  H924  1  0.386000  0.491900  0.711600  1.0
  H  H925  1  0.047100  0.970300  0.187600  1.0
  H  H926  1  0.047100  0.029700  0.312400  1.0
  H  H927  1  0.547100  0.470300  0.187600  1.0
  H  H928  1  0.547100  0.529700  0.312400  1.0
  H  H929  1  0.952900  0.029700  0.812400  1.0
  H  H930  1  0.952900  0.970300  0.687600  1.0
  H  H931  1  0.452900  0.529700  0.812400  1.0
  H  H932  1  0.452900  0.470300  0.687600  1.0
  H  H933  1  0.160400  0.827000  0.128400  1.0
  H  H934  1  0.160400  0.173000  0.371600  1.0
  H  H935  1  0.660400  0.327000  0.128400  1.0
  H  H936  1  0.660400  0.673000  0.371600  1.0
  H  H937  1  0.839600  0.173000  0.871600  1.0
  H  H938  1  0.839600  0.827000  0.628400  1.0
  H  H939  1  0.339600  0.673000  0.871600  1.0
  H  H940  1  0.339600  0.327000  0.628400  1.0
  H  H941  1  0.115200  0.774700  0.094700  1.0
  H  H942  1  0.115200  0.225300  0.405300  1.0
  H  H943  1  0.615200  0.274700  0.094700  1.0
  H  H944  1  0.615200  0.725300  0.405300  1.0
  H  H945  1  0.884800  0.225300  0.905300  1.0
  H  H946  1  0.884800  0.774700  0.594700  1.0
  H  H947  1  0.384800  0.725300  0.905300  1.0
  H  H948  1  0.384800  0.274700  0.594700  1.0
  H  H949  1  0.997600  0.802900  0.096300  1.0
  H  H950  1  0.997600  0.197100  0.403700  1.0
  H  H951  1  0.497600  0.302900  0.096300  1.0
  H  H952  1  0.497600  0.697100  0.403700  1.0
  H  H953  1  0.002400  0.197100  0.903700  1.0
  H  H954  1  0.002400  0.802900  0.596300  1.0
  H  H955  1  0.502400  0.697100  0.903700  1.0
  H  H956  1  0.502400  0.302900  0.596300  1.0
  H  H957  1  0.029200  0.765600  0.082800  1.0
  H  H958  1  0.029200  0.234400  0.417200  1.0
  H  H959  1  0.529200  0.265600  0.082800  1.0
  H  H960  1  0.529200  0.734400  0.417200  1.0
  H  H961  1  0.970800  0.234400  0.917200  1.0
  H  H962  1  0.970800  0.765600  0.582800  1.0
  H  H963  1  0.470800  0.734400  0.917200  1.0
  H  H964  1  0.470800  0.265600  0.582800  1.0
  H  H965  1  0.795800  0.724300  0.872300  1.0
  H  H966  1  0.795800  0.275700  0.627700  1.0
  H  H967  1  0.295800  0.224300  0.872300  1.0
  H  H968  1  0.295800  0.775700  0.627700  1.0
  H  H969  1  0.204200  0.275700  0.127700  1.0
  H  H970  1  0.204200  0.724300  0.372300  1.0
  H  H971  1  0.704200  0.775700  0.127700  1.0
  H  H972  1  0.704200  0.224300  0.372300  1.0
  H  H973  1  0.787700  0.662100  0.841000  1.0
  H  H974  1  0.787700  0.337900  0.659000  1.0
  H  H975  1  0.287700  0.162100  0.841000  1.0
  H  H976  1  0.287700  0.837900  0.659000  1.0
  H  H977  1  0.212300  0.337900  0.159000  1.0
  H  H978  1  0.212300  0.662100  0.341000  1.0
  H  H979  1  0.712300  0.837900  0.159000  1.0
  H  H980  1  0.712300  0.162100  0.341000  1.0
  H  H981  1  0.852100  0.626400  0.820100  1.0
  H  H982  1  0.852100  0.373600  0.679900  1.0
  H  H983  1  0.352100  0.126400  0.820100  1.0
  H  H984  1  0.352100  0.873600  0.679900  1.0
  H  H985  1  0.147900  0.373600  0.179900  1.0
  H  H986  1  0.147900  0.626400  0.320100  1.0
  H  H987  1  0.647900  0.873600  0.179900  1.0
  H  H988  1  0.647900  0.126400  0.320100  1.0
  H  H989  1  0.921400  0.653600  0.836300  1.0
  H  H990  1  0.921400  0.346400  0.663700  1.0
  H  H991  1  0.421400  0.153600  0.836300  1.0
  H  H992  1  0.421400  0.846400  0.663700  1.0
  H  H993  1  0.078600  0.346400  0.163700  1.0
  H  H994  1  0.078600  0.653600  0.336300  1.0
  H  H995  1  0.578600  0.846400  0.163700  1.0
  H  H996  1  0.578600  0.153600  0.336300  1.0
  H  H997  1  0.812200  0.797100  0.898700  1.0
  H  H998  1  0.812200  0.202900  0.601300  1.0
  H  H999  1  0.312200  0.297100  0.898700  1.0
  H  H1000  1  0.312200  0.702900  0.601300  1.0
  H  H1001  1  0.187800  0.202900  0.101300  1.0
  H  H1002  1  0.187800  0.797100  0.398700  1.0
  H  H1003  1  0.687800  0.702900  0.101300  1.0
  H  H1004  1  0.687800  0.297100  0.398700  1.0
  H  H1005  1  0.860100  0.848500  0.932200  1.0
  H  H1006  1  0.860100  0.151500  0.567800  1.0
  H  H1007  1  0.360100  0.348500  0.932200  1.0
  H  H1008  1  0.360100  0.651500  0.567800  1.0
  H  H1009  1  0.139900  0.151500  0.067800  1.0
  H  H1010  1  0.139900  0.848500  0.432200  1.0
  H  H1011  1  0.639900  0.651500  0.067800  1.0
  H  H1012  1  0.639900  0.348500  0.432200  1.0
  H  H1013  1  0.976600  0.815300  0.931000  1.0
  H  H1014  1  0.976600  0.184700  0.569000  1.0
  H  H1015  1  0.476600  0.315300  0.931000  1.0
  H  H1016  1  0.476600  0.684700  0.569000  1.0
  H  H1017  1  0.023400  0.184700  0.069000  1.0
  H  H1018  1  0.023400  0.815300  0.431000  1.0
  H  H1019  1  0.523400  0.684700  0.069000  1.0
  H  H1020  1  0.523400  0.315300  0.431000  1.0
  H  H1021  1  0.946300  0.851900  0.947700  1.0
  H  H1022  1  0.946300  0.148100  0.552300  1.0
  H  H1023  1  0.446300  0.351900  0.947700  1.0
  H  H1024  1  0.446300  0.648100  0.552300  1.0
  H  H1025  1  0.053700  0.148100  0.052300  1.0
  H  H1026  1  0.053700  0.851900  0.447700  1.0
  H  H1027  1  0.553700  0.648100  0.052300  1.0
  H  H1028  1  0.553700  0.351900  0.447700  1.0
  H  H1029  1  0.083300  0.840300  0.054100  1.0
  H  H1030  1  0.083300  0.159700  0.445900  1.0
  H  H1031  1  0.583300  0.340300  0.054100  1.0
  H  H1032  1  0.583300  0.659700  0.445900  1.0
  H  H1033  1  0.916700  0.159700  0.945900  1.0
  H  H1034  1  0.916700  0.840300  0.554100  1.0
  H  H1035  1  0.416700  0.659700  0.945900  1.0
  H  H1036  1  0.416700  0.340300  0.554100  1.0
  H  H1037  1  0.080300  0.865200  0.001000  1.0
  H  H1038  1  0.080300  0.134800  0.499000  1.0
  H  H1039  1  0.580300  0.365200  0.001000  1.0
  H  H1040  1  0.580300  0.634800  0.499000  1.0
  H  H1041  1  0.919700  0.134800  0.999000  1.0
  H  H1042  1  0.919700  0.865200  0.501000  1.0
  H  H1043  1  0.419700  0.634800  0.999000  1.0
  H  H1044  1  0.419700  0.365200  0.501000  1.0
  H  H1045  1  0.018500  0.851100  0.967200  1.0
  H  H1046  1  0.018500  0.148900  0.532800  1.0
  H  H1047  1  0.518500  0.351100  0.967200  1.0
  H  H1048  1  0.518500  0.648900  0.532800  1.0
  H  H1049  1  0.981500  0.148900  0.032800  1.0
  H  H1050  1  0.981500  0.851100  0.467200  1.0
  H  H1051  1  0.481500  0.648900  0.032800  1.0
  H  H1052  1  0.481500  0.351100  0.467200  1.0
  H  H1053  1  0.955500  0.760500  0.058200  1.0
  H  H1054  1  0.955500  0.239500  0.441800  1.0
  H  H1055  1  0.455500  0.260500  0.058200  1.0
  H  H1056  1  0.455500  0.739500  0.441800  1.0
  H  H1057  1  0.044500  0.239500  0.941800  1.0
  H  H1058  1  0.044500  0.760500  0.558200  1.0
  H  H1059  1  0.544500  0.739500  0.941800  1.0
  H  H1060  1  0.544500  0.260500  0.558200  1.0
  H  H1061  1  0.896400  0.744400  0.020800  1.0
  H  H1062  1  0.896400  0.255600  0.479200  1.0
  H  H1063  1  0.396400  0.244400  0.020800  1.0
  H  H1064  1  0.396400  0.755600  0.479200  1.0
  H  H1065  1  0.103600  0.255600  0.979200  1.0
  H  H1066  1  0.103600  0.744400  0.520800  1.0
  H  H1067  1  0.603600  0.755600  0.979200  1.0
  H  H1068  1  0.603600  0.244400  0.520800  1.0
  H  H1069  1  0.893500  0.769600  0.970800  1.0
  H  H1070  1  0.893500  0.230400  0.529200  1.0
  H  H1071  1  0.393500  0.269600  0.970800  1.0
  H  H1072  1  0.393500  0.730400  0.529200  1.0
  H  H1073  1  0.106500  0.230400  0.029200  1.0
  H  H1074  1  0.106500  0.769600  0.470800  1.0
  H  H1075  1  0.606500  0.730400  0.029200  1.0
  H  H1076  1  0.606500  0.269600  0.470800  1.0
  H  H1077  1  0.034200  0.476300  0.889200  1.0
  H  H1078  1  0.034200  0.523700  0.610800  1.0
  H  H1079  1  0.534200  0.976300  0.889200  1.0
  H  H1080  1  0.534200  0.023700  0.610800  1.0
  H  H1081  1  0.965800  0.523700  0.110800  1.0
  H  H1082  1  0.965800  0.476300  0.389200  1.0
  H  H1083  1  0.465800  0.023700  0.110800  1.0
  H  H1084  1  0.465800  0.976300  0.389200  1.0
  H  H1085  1  0.991500  0.427800  0.913500  1.0
  H  H1086  1  0.991500  0.572200  0.586500  1.0
  H  H1087  1  0.491500  0.927800  0.913500  1.0
  H  H1088  1  0.491500  0.072200  0.586500  1.0
  H  H1089  1  0.008500  0.572200  0.086500  1.0
  H  H1090  1  0.008500  0.427800  0.413500  1.0
  H  H1091  1  0.508500  0.072200  0.086500  1.0
  H  H1092  1  0.508500  0.927800  0.413500  1.0
  H  H1093  1  0.015800  0.405500  0.963700  1.0
  H  H1094  1  0.015800  0.594500  0.536300  1.0
  H  H1095  1  0.515800  0.905500  0.963700  1.0
  H  H1096  1  0.515800  0.094500  0.536300  1.0
  H  H1097  1  0.984200  0.594500  0.036300  1.0
  H  H1098  1  0.984200  0.405500  0.463700  1.0
  H  H1099  1  0.484200  0.094500  0.036300  1.0
  H  H1100  1  0.484200  0.905500  0.463700  1.0
  H  H1101  1  0.082800  0.431200  0.987300  1.0
  H  H1102  1  0.082800  0.568800  0.512700  1.0
  H  H1103  1  0.582800  0.931200  0.987300  1.0
  H  H1104  1  0.582800  0.068800  0.512700  1.0
  H  H1105  1  0.917200  0.568800  0.012700  1.0
  H  H1106  1  0.917200  0.431200  0.487300  1.0
  H  H1107  1  0.417200  0.068800  0.012700  1.0
  H  H1108  1  0.417200  0.931200  0.487300  1.0
  H  H1109  1  0.083000  0.526700  0.865900  1.0
  H  H1110  1  0.083000  0.473300  0.634100  1.0
  H  H1111  1  0.583000  0.026700  0.865900  1.0
  H  H1112  1  0.583000  0.973300  0.634100  1.0
  H  H1113  1  0.917000  0.473300  0.134100  1.0
  H  H1114  1  0.917000  0.526700  0.365900  1.0
  H  H1115  1  0.417000  0.973300  0.134100  1.0
  H  H1116  1  0.417000  0.026700  0.365900  1.0
  H  H1117  1  0.148500  0.573400  0.865900  1.0
  H  H1118  1  0.148500  0.426600  0.634100  1.0
  H  H1119  1  0.648500  0.073400  0.865900  1.0
  H  H1120  1  0.648500  0.926600  0.634100  1.0
  H  H1121  1  0.851500  0.426600  0.134100  1.0
  H  H1122  1  0.851500  0.573400  0.365900  1.0
  H  H1123  1  0.351500  0.926600  0.134100  1.0
  H  H1124  1  0.351500  0.073400  0.365900  1.0
  H  H1125  1  0.211000  0.575000  0.943500  1.0
  H  H1126  1  0.211000  0.425000  0.556500  1.0
  H  H1127  1  0.711000  0.075000  0.943500  1.0
  H  H1128  1  0.711000  0.925000  0.556500  1.0
  H  H1129  1  0.789000  0.425000  0.056500  1.0
  H  H1130  1  0.789000  0.575000  0.443500  1.0
  H  H1131  1  0.289000  0.925000  0.056500  1.0
  H  H1132  1  0.289000  0.075000  0.443500  1.0
  H  H1133  1  0.208500  0.599300  0.911300  1.0
  H  H1134  1  0.208500  0.400700  0.588700  1.0
  H  H1135  1  0.708500  0.099300  0.911300  1.0
  H  H1136  1  0.708500  0.900700  0.588700  1.0
  H  H1137  1  0.791500  0.400700  0.088700  1.0
  H  H1138  1  0.791500  0.599300  0.411300  1.0
  H  H1139  1  0.291500  0.900700  0.088700  1.0
  H  H1140  1  0.291500  0.099300  0.411300  1.0
  H  H1141  1  0.581200  0.611200  0.968500  1.0
  H  H1142  1  0.581200  0.388800  0.531500  1.0
  H  H1143  1  0.081200  0.111200  0.968500  1.0
  H  H1144  1  0.081200  0.888800  0.531500  1.0
  H  H1145  1  0.418800  0.388800  0.031500  1.0
  H  H1146  1  0.418800  0.611200  0.468500  1.0
  H  H1147  1  0.918800  0.888800  0.031500  1.0
  H  H1148  1  0.918800  0.111200  0.468500  1.0
  H  H1149  1  0.637400  0.653900  0.951900  1.0
  H  H1150  1  0.637400  0.346100  0.548100  1.0
  H  H1151  1  0.137400  0.153900  0.951900  1.0
  H  H1152  1  0.137400  0.846100  0.548100  1.0
  H  H1153  1  0.362600  0.346100  0.048100  1.0
  H  H1154  1  0.362600  0.653900  0.451900  1.0
  H  H1155  1  0.862600  0.846100  0.048100  1.0
  H  H1156  1  0.862600  0.153900  0.451900  1.0
  H  H1157  1  0.633800  0.676700  0.899800  1.0
  H  H1158  1  0.633800  0.323300  0.600200  1.0
  H  H1159  1  0.133800  0.176700  0.899800  1.0
  H  H1160  1  0.133800  0.823300  0.600200  1.0
  H  H1161  1  0.366200  0.323300  0.100200  1.0
  H  H1162  1  0.366200  0.676700  0.399800  1.0
  H  H1163  1  0.866200  0.823300  0.100200  1.0
  H  H1164  1  0.866200  0.176700  0.399800  1.0
  H  H1165  1  0.572800  0.658400  0.865700  1.0
  H  H1166  1  0.572800  0.341600  0.634300  1.0
  H  H1167  1  0.072800  0.158400  0.865700  1.0
  H  H1168  1  0.072800  0.841600  0.634300  1.0
  H  H1169  1  0.427200  0.341600  0.134300  1.0
  H  H1170  1  0.427200  0.658400  0.365700  1.0
  H  H1171  1  0.927200  0.841600  0.134300  1.0
  H  H1172  1  0.927200  0.158400  0.365700  1.0
  H  H1173  1  0.524400  0.556600  0.977800  1.0
  H  H1174  1  0.524400  0.443400  0.522200  1.0
  H  H1175  1  0.024400  0.056600  0.977800  1.0
  H  H1176  1  0.024400  0.943400  0.522200  1.0
  H  H1177  1  0.475600  0.443400  0.022200  1.0
  H  H1178  1  0.475600  0.556600  0.477800  1.0
  H  H1179  1  0.975600  0.943400  0.022200  1.0
  H  H1180  1  0.975600  0.056600  0.477800  1.0
  H  H1181  1  0.458300  0.511400  0.964100  1.0
  H  H1182  1  0.458300  0.488600  0.535900  1.0
  H  H1183  1  0.958300  0.011400  0.964100  1.0
  H  H1184  1  0.958300  0.988600  0.535900  1.0
  H  H1185  1  0.541700  0.488600  0.035900  1.0
  H  H1186  1  0.541700  0.511400  0.464100  1.0
  H  H1187  1  0.041700  0.988600  0.035900  1.0
  H  H1188  1  0.041700  0.011400  0.464100  1.0
  H  H1189  1  0.416100  0.525800  0.881300  1.0
  H  H1190  1  0.416100  0.474200  0.618700  1.0
  H  H1191  1  0.916100  0.025800  0.881300  1.0
  H  H1192  1  0.916100  0.974200  0.618700  1.0
  H  H1193  1  0.583900  0.474200  0.118700  1.0
  H  H1194  1  0.583900  0.525800  0.381300  1.0
  H  H1195  1  0.083900  0.974200  0.118700  1.0
  H  H1196  1  0.083900  0.025800  0.381300  1.0
  H  H1197  1  0.407800  0.497700  0.910700  1.0
  H  H1198  1  0.407800  0.502300  0.589300  1.0
  H  H1199  1  0.907800  0.997700  0.910700  1.0
  H  H1200  1  0.907800  0.002300  0.589300  1.0
  H  H1201  1  0.592200  0.502300  0.089300  1.0
  H  H1202  1  0.592200  0.497700  0.410700  1.0
  H  H1203  1  0.092200  0.002300  0.089300  1.0
  H  H1204  1  0.092200  0.997700  0.410700  1.0
  H  H1205  1  0.214800  0.505900  0.874600  1.0
  H  H1206  1  0.214800  0.494100  0.625400  1.0
  H  H1207  1  0.714800  0.005900  0.874600  1.0
  H  H1208  1  0.714800  0.994100  0.625400  1.0
  H  H1209  1  0.785200  0.494100  0.125400  1.0
  H  H1210  1  0.785200  0.505900  0.374600  1.0
  H  H1211  1  0.285200  0.994100  0.125400  1.0
  H  H1212  1  0.285200  0.005900  0.374600  1.0
  H  H1213  1  0.278200  0.470400  0.852500  1.0
  H  H1214  1  0.278200  0.529600  0.647500  1.0
  H  H1215  1  0.778200  0.970400  0.852500  1.0
  H  H1216  1  0.778200  0.029600  0.647500  1.0
  H  H1217  1  0.721800  0.529600  0.147500  1.0
  H  H1218  1  0.721800  0.470400  0.352500  1.0
  H  H1219  1  0.221800  0.029600  0.147500  1.0
  H  H1220  1  0.221800  0.970400  0.352500  1.0
  H  H1221  1  0.348100  0.489500  0.871800  1.0
  H  H1222  1  0.348100  0.510500  0.628200  1.0
  H  H1223  1  0.848100  0.989500  0.871800  1.0
  H  H1224  1  0.848100  0.010500  0.628200  1.0
  H  H1225  1  0.651900  0.510500  0.128200  1.0
  H  H1226  1  0.651900  0.489500  0.371800  1.0
  H  H1227  1  0.151900  0.010500  0.128200  1.0
  H  H1228  1  0.151900  0.989500  0.371800  1.0
  H  H1229  1  0.271900  0.613300  0.945300  1.0
  H  H1230  1  0.271900  0.386700  0.554700  1.0
  H  H1231  1  0.771900  0.113300  0.945300  1.0
  H  H1232  1  0.771900  0.886700  0.554700  1.0
  H  H1233  1  0.728100  0.386700  0.054700  1.0
  H  H1234  1  0.728100  0.613300  0.445300  1.0
  H  H1235  1  0.228100  0.886700  0.054700  1.0
  H  H1236  1  0.228100  0.113300  0.445300  1.0
  H  H1237  1  0.340800  0.631200  0.965800  1.0
  H  H1238  1  0.340800  0.368800  0.534200  1.0
  H  H1239  1  0.840800  0.131200  0.965800  1.0
  H  H1240  1  0.840800  0.868800  0.534200  1.0
  H  H1241  1  0.659200  0.368800  0.034200  1.0
  H  H1242  1  0.659200  0.631200  0.465800  1.0
  H  H1243  1  0.159200  0.868800  0.034200  1.0
  H  H1244  1  0.159200  0.131200  0.465800  1.0
  H  H1245  1  0.404200  0.591100  0.950100  1.0
  H  H1246  1  0.404200  0.408900  0.549900  1.0
  H  H1247  1  0.904200  0.091100  0.950100  1.0
  H  H1248  1  0.904200  0.908900  0.549900  1.0
  H  H1249  1  0.595800  0.408900  0.049900  1.0
  H  H1250  1  0.595800  0.591100  0.450100  1.0
  H  H1251  1  0.095800  0.908900  0.049900  1.0
  H  H1252  1  0.095800  0.091100  0.450100  1.0
  C  C1253  1  0.294900  0.760900  0.071200  1
  C  C1254  1  0.294900  0.239100  0.428800  1
  C  C1255  1  0.794900  0.260900  0.071200  1
  C  C1256  1  0.794900  0.739100  0.428800  1
  C  C1257  1  0.705100  0.239100  0.928800  1
  C  C1258  1  0.705100  0.760900  0.571200  1
  C  C1259  1  0.205100  0.739100  0.928800  1
  C  C1260  1  0.205100  0.260900  0.571200  1
  C  C1261  1  0.241100  0.677000  0.000500  1
  C  C1262  1  0.241100  0.323000  0.499500  1
  C  C1263  1  0.741100  0.177000  0.000500  1
  C  C1264  1  0.741100  0.823000  0.499500  1
  C  C1265  1  0.758900  0.323000  0.999500  1
  C  C1266  1  0.758900  0.677000  0.500500  1
  C  C1267  1  0.258900  0.823000  0.999500  1
  C  C1268  1  0.258900  0.177000  0.500500  1
  C  C1269  1  0.342000  0.561100  0.360500  1
  C  C1270  1  0.342000  0.438900  0.139500  1
  C  C1271  1  0.842000  0.061100  0.360500  1
  C  C1272  1  0.842000  0.938900  0.139500  1
  C  C1273  1  0.658000  0.438900  0.639500  1
  C  C1274  1  0.658000  0.561100  0.860500  1
  C  C1275  1  0.158000  0.938900  0.639500  1
  C  C1276  1  0.158000  0.061100  0.860500  1
  C  C1277  1  0.810300  0.893400  0.003900  1
  C  C1278  1  0.810300  0.106600  0.496100  1
  C  C1279  1  0.310300  0.393400  0.003900  1
  C  C1280  1  0.310300  0.606600  0.496100  1
  C  C1281  1  0.189700  0.106600  0.996100  1
  C  C1282  1  0.189700  0.893400  0.503900  1
  C  C1283  1  0.689700  0.606600  0.996100  1
  C  C1284  1  0.689700  0.393400  0.503900  1
  C  C1285  1  0.102600  0.335000  0.934100  1
  C  C1286  1  0.102600  0.665000  0.565900  1
  C  C1287  1  0.602600  0.835000  0.934100  1
  C  C1288  1  0.602600  0.165000  0.565900  1
  C  C1289  1  0.897400  0.665000  0.065900  1
  C  C1290  1  0.897400  0.335000  0.434100  1
  C  C1291  1  0.397400  0.165000  0.065900  1
  C  C1292  1  0.397400  0.835000  0.434100  1
  C  C1293  1  0.153500  0.747800  0.026500  1
  C  C1294  1  0.153500  0.252200  0.473500  1
  C  C1295  1  0.653500  0.247800  0.026500  1
  C  C1296  1  0.653500  0.752200  0.473500  1
  C  C1297  1  0.846500  0.252200  0.973500  1
  C  C1298  1  0.846500  0.747800  0.526500  1
  C  C1299  1  0.346500  0.752200  0.973500  1
  C  C1300  1  0.346500  0.247800  0.526500  1
  C  C1301  1  0.508200  0.798600  0.052800  1.0
  C  C1302  1  0.508200  0.201400  0.447200  1.0
  C  C1303  1  0.008200  0.298600  0.052800  1.0
  C  C1304  1  0.008200  0.701400  0.447200  1.0
  C  C1305  1  0.491800  0.201400  0.947200  1.0
  C  C1306  1  0.491800  0.798600  0.552800  1.0
  C  C1307  1  0.991800  0.701400  0.947200  1.0
  C  C1308  1  0.991800  0.298600  0.552800  1.0
  C  C1309  1  0.507400  0.815600  0.023000  1.0
  C  C1310  1  0.507400  0.184400  0.477000  1.0
  C  C1311  1  0.007400  0.315600  0.023000  1.0
  C  C1312  1  0.007400  0.684400  0.477000  1.0
  C  C1313  1  0.492600  0.184400  0.977000  1.0
  C  C1314  1  0.492600  0.815600  0.523000  1.0
  C  C1315  1  0.992600  0.684400  0.977000  1.0
  C  C1316  1  0.992600  0.315600  0.523000  1.0
  C  C1317  1  0.542400  0.839300  0.015400  1.0
  C  C1318  1  0.542400  0.160700  0.484600  1.0
  C  C1319  1  0.042400  0.339300  0.015400  1.0
  C  C1320  1  0.042400  0.660700  0.484600  1.0
  C  C1321  1  0.457600  0.160700  0.984600  1.0
  C  C1322  1  0.457600  0.839300  0.515400  1.0
  C  C1323  1  0.957600  0.660700  0.984600  1.0
  C  C1324  1  0.957600  0.339300  0.515400  1.0
  C  C1325  1  0.576400  0.846300  0.037800  1.0
  C  C1326  1  0.576400  0.153700  0.462200  1.0
  C  C1327  1  0.076400  0.346300  0.037800  1.0
  C  C1328  1  0.076400  0.653700  0.462200  1.0
  C  C1329  1  0.423600  0.153700  0.962200  1.0
  C  C1330  1  0.423600  0.846300  0.537800  1.0
  C  C1331  1  0.923600  0.653700  0.962200  1.0
  C  C1332  1  0.923600  0.346300  0.537800  1.0
  C  C1333  1  0.574500  0.829100  0.067400  1.0
  C  C1334  1  0.574500  0.170900  0.432600  1.0
  C  C1335  1  0.074500  0.329100  0.067400  1.0
  C  C1336  1  0.074500  0.670900  0.432600  1.0
  C  C1337  1  0.425500  0.170900  0.932600  1.0
  C  C1338  1  0.425500  0.829100  0.567400  1.0
  C  C1339  1  0.925500  0.670900  0.932600  1.0
  C  C1340  1  0.925500  0.329100  0.567400  1.0
  C  C1341  1  0.473000  0.769900  0.061700  1.0
  C  C1342  1  0.473000  0.230100  0.438300  1.0
  C  C1343  1  0.973000  0.269900  0.061700  1.0
  C  C1344  1  0.973000  0.730100  0.438300  1.0
  C  C1345  1  0.527000  0.230100  0.938300  1.0
  C  C1346  1  0.527000  0.769900  0.561700  1.0
  C  C1347  1  0.027000  0.730100  0.938300  1.0
  C  C1348  1  0.027000  0.269900  0.561700  1.0
  C  C1349  1  0.434500  0.756700  0.043900  1.0
  C  C1350  1  0.434500  0.243300  0.456100  1.0
  C  C1351  1  0.934500  0.256700  0.043900  1.0
  C  C1352  1  0.934500  0.743300  0.456100  1.0
  C  C1353  1  0.565500  0.243300  0.956100  1.0
  C  C1354  1  0.565500  0.756700  0.543900  1.0
  C  C1355  1  0.065500  0.743300  0.956100  1.0
  C  C1356  1  0.065500  0.256700  0.543900  1.0
  C  C1357  1  0.417100  0.727300  0.061200  1.0
  C  C1358  1  0.417100  0.272700  0.438800  1.0
  C  C1359  1  0.917100  0.227300  0.061200  1.0
  C  C1360  1  0.917100  0.772700  0.438800  1.0
  C  C1361  1  0.582900  0.272700  0.938800  1.0
  C  C1362  1  0.582900  0.727300  0.561200  1.0
  C  C1363  1  0.082900  0.772700  0.938800  1.0
  C  C1364  1  0.082900  0.227300  0.561200  1.0
  C  C1365  1  0.434900  0.696300  0.112900  1.0
  C  C1366  1  0.434900  0.303700  0.387100  1.0
  C  C1367  1  0.934900  0.196300  0.112900  1.0
  C  C1368  1  0.934900  0.803700  0.387100  1.0
  C  C1369  1  0.565100  0.303700  0.887100  1.0
  C  C1370  1  0.565100  0.696300  0.612900  1.0
  C  C1371  1  0.065100  0.803700  0.887100  1.0
  C  C1372  1  0.065100  0.196300  0.612900  1.0
  C  C1373  1  0.233400  0.602200  0.284600  1.0
  C  C1374  1  0.233400  0.397800  0.215400  1.0
  C  C1375  1  0.733400  0.102200  0.284600  1.0
  C  C1376  1  0.733400  0.897800  0.215400  1.0
  C  C1377  1  0.766600  0.397800  0.715400  1.0
  C  C1378  1  0.766600  0.602200  0.784600  1.0
  C  C1379  1  0.266600  0.897800  0.715400  1.0
  C  C1380  1  0.266600  0.102200  0.784600  1.0
  C  C1381  1  0.229800  0.575000  0.308900  1.0
  C  C1382  1  0.229800  0.425000  0.191100  1.0
  C  C1383  1  0.729800  0.075000  0.308900  1.0
  C  C1384  1  0.729800  0.925000  0.191100  1.0
  C  C1385  1  0.770200  0.425000  0.691100  1.0
  C  C1386  1  0.770200  0.575000  0.808900  1.0
  C  C1387  1  0.270200  0.925000  0.691100  1.0
  C  C1388  1  0.270200  0.075000  0.808900  1.0
  C  C1389  1  0.195500  0.547200  0.306900  1.0
  C  C1390  1  0.195500  0.452800  0.193100  1.0
  C  C1391  1  0.695500  0.047200  0.306900  1.0
  C  C1392  1  0.695500  0.952800  0.193100  1.0
  C  C1393  1  0.804500  0.452800  0.693100  1.0
  C  C1394  1  0.804500  0.547200  0.806900  1.0
  C  C1395  1  0.304500  0.952800  0.693100  1.0
  C  C1396  1  0.304500  0.047200  0.806900  1.0
  C  C1397  1  0.165700  0.545800  0.280700  1.0
  C  C1398  1  0.165700  0.454200  0.219300  1.0
  C  C1399  1  0.665700  0.045800  0.280700  1.0
  C  C1400  1  0.665700  0.954200  0.219300  1.0
  C  C1401  1  0.834300  0.454200  0.719300  1.0
  C  C1402  1  0.834300  0.545800  0.780700  1.0
  C  C1403  1  0.334300  0.954200  0.719300  1.0
  C  C1404  1  0.334300  0.045800  0.780700  1.0
  C  C1405  1  0.171400  0.573000  0.257300  1.0
  C  C1406  1  0.171400  0.427000  0.242700  1.0
  C  C1407  1  0.671400  0.073000  0.257300  1.0
  C  C1408  1  0.671400  0.927000  0.242700  1.0
  C  C1409  1  0.828600  0.427000  0.742700  1.0
  C  C1410  1  0.828600  0.573000  0.757300  1.0
  C  C1411  1  0.328600  0.927000  0.742700  1.0
  C  C1412  1  0.328600  0.073000  0.757300  1.0
  C  C1413  1  0.267300  0.633000  0.284900  1.0
  C  C1414  1  0.267300  0.367000  0.215100  1.0
  C  C1415  1  0.767300  0.133000  0.284900  1.0
  C  C1416  1  0.767300  0.867000  0.215100  1.0
  C  C1417  1  0.732700  0.367000  0.715100  1.0
  C  C1418  1  0.732700  0.633000  0.784900  1.0
  C  C1419  1  0.232700  0.867000  0.715100  1.0
  C  C1420  1  0.232700  0.133000  0.784900  1.0
  C  C1421  1  0.301100  0.645000  0.308400  1.0
  C  C1422  1  0.301100  0.355000  0.191600  1.0
  C  C1423  1  0.801100  0.145000  0.308400  1.0
  C  C1424  1  0.801100  0.855000  0.191600  1.0
  C  C1425  1  0.698900  0.355000  0.691600  1.0
  C  C1426  1  0.698900  0.645000  0.808400  1.0
  C  C1427  1  0.198900  0.855000  0.691600  1.0
  C  C1428  1  0.198900  0.145000  0.808400  1.0
  C  C1429  1  0.322400  0.677000  0.296200  1.0
  C  C1430  1  0.322400  0.323000  0.203800  1.0
  C  C1431  1  0.822400  0.177000  0.296200  1.0
  C  C1432  1  0.822400  0.823000  0.203800  1.0
  C  C1433  1  0.677600  0.323000  0.703800  1.0
  C  C1434  1  0.677600  0.677000  0.796200  1.0
  C  C1435  1  0.177600  0.823000  0.703800  1.0
  C  C1436  1  0.177600  0.177000  0.796200  1.0
  C  C1437  1  0.317200  0.710500  0.243600  1.0
  C  C1438  1  0.317200  0.289500  0.256400  1.0
  C  C1439  1  0.817200  0.210500  0.243600  1.0
  C  C1440  1  0.817200  0.789500  0.256400  1.0
  C  C1441  1  0.682800  0.289500  0.756400  1.0
  C  C1442  1  0.682800  0.710500  0.743600  1.0
  C  C1443  1  0.182800  0.789500  0.756400  1.0
  C  C1444  1  0.182800  0.210500  0.743600  1.0
  C  C1445  1  0.405200  0.717100  0.140300  1.0
  C  C1446  1  0.405200  0.282900  0.359700  1.0
  C  C1447  1  0.905200  0.217100  0.140300  1.0
  C  C1448  1  0.905200  0.782900  0.359700  1.0
  C  C1449  1  0.594800  0.282900  0.859700  1.0
  C  C1450  1  0.594800  0.717100  0.640300  1.0
  C  C1451  1  0.094800  0.782900  0.859700  1.0
  C  C1452  1  0.094800  0.217100  0.640300  1.0
  C  C1453  1  0.390900  0.755800  0.139300  1.0
  C  C1454  1  0.390900  0.244200  0.360700  1.0
  C  C1455  1  0.890900  0.255800  0.139300  1.0
  C  C1456  1  0.890900  0.744200  0.360700  1.0
  C  C1457  1  0.609100  0.244200  0.860700  1.0
  C  C1458  1  0.609100  0.755800  0.639300  1.0
  C  C1459  1  0.109100  0.744200  0.860700  1.0
  C  C1460  1  0.109100  0.255800  0.639300  1.0
  C  C1461  1  0.363000  0.774600  0.164400  1.0
  C  C1462  1  0.363000  0.225400  0.335600  1.0
  C  C1463  1  0.863000  0.274600  0.164400  1.0
  C  C1464  1  0.863000  0.725400  0.335600  1.0
  C  C1465  1  0.637000  0.225400  0.835600  1.0
  C  C1466  1  0.637000  0.774600  0.664400  1.0
  C  C1467  1  0.137000  0.725400  0.835600  1.0
  C  C1468  1  0.137000  0.274600  0.664400  1.0
  C  C1469  1  0.349800  0.754000  0.190000  1.0
  C  C1470  1  0.349800  0.246000  0.310000  1.0
  C  C1471  1  0.849800  0.254000  0.190000  1.0
  C  C1472  1  0.849800  0.746000  0.310000  1.0
  C  C1473  1  0.650200  0.246000  0.810000  1.0
  C  C1474  1  0.650200  0.754000  0.690000  1.0
  C  C1475  1  0.150200  0.746000  0.810000  1.0
  C  C1476  1  0.150200  0.254000  0.690000  1.0
  C  C1477  1  0.363300  0.712600  0.191900  1.0
  C  C1478  1  0.363300  0.287400  0.308100  1.0
  C  C1479  1  0.863300  0.212600  0.191900  1.0
  C  C1480  1  0.863300  0.787400  0.308100  1.0
  C  C1481  1  0.636700  0.287400  0.808100  1.0
  C  C1482  1  0.636700  0.712600  0.691900  1.0
  C  C1483  1  0.136700  0.787400  0.808100  1.0
  C  C1484  1  0.136700  0.212600  0.691900  1.0
  C  C1485  1  0.392100  0.694000  0.166300  1.0
  C  C1486  1  0.392100  0.306000  0.333700  1.0
  C  C1487  1  0.892100  0.194000  0.166300  1.0
  C  C1488  1  0.892100  0.806000  0.333700  1.0
  C  C1489  1  0.607900  0.306000  0.833700  1.0
  C  C1490  1  0.607900  0.694000  0.666300  1.0
  C  C1491  1  0.107900  0.806000  0.833700  1.0
  C  C1492  1  0.107900  0.194000  0.666300  1.0
  C  C1493  1  0.405600  0.653100  0.168600  1.0
  C  C1494  1  0.405600  0.346900  0.331400  1.0
  C  C1495  1  0.905600  0.153100  0.168600  1.0
  C  C1496  1  0.905600  0.846900  0.331400  1.0
  C  C1497  1  0.594400  0.346900  0.831400  1.0
  C  C1498  1  0.594400  0.653100  0.668600  1.0
  C  C1499  1  0.094400  0.846900  0.831400  1.0
  C  C1500  1  0.094400  0.153100  0.668600  1.0
  C  C1501  1  0.391200  0.632500  0.193800  1.0
  C  C1502  1  0.391200  0.367500  0.306200  1.0
  C  C1503  1  0.891200  0.132500  0.193800  1.0
  C  C1504  1  0.891200  0.867500  0.306200  1.0
  C  C1505  1  0.608800  0.367500  0.806200  1.0
  C  C1506  1  0.608800  0.632500  0.693800  1.0
  C  C1507  1  0.108800  0.867500  0.806200  1.0
  C  C1508  1  0.108800  0.132500  0.693800  1.0
  C  C1509  1  0.361600  0.650600  0.217900  1.0
  C  C1510  1  0.361600  0.349400  0.282100  1.0
  C  C1511  1  0.861600  0.150600  0.217900  1.0
  C  C1512  1  0.861600  0.849400  0.282100  1.0
  C  C1513  1  0.638400  0.349400  0.782100  1.0
  C  C1514  1  0.638400  0.650600  0.717900  1.0
  C  C1515  1  0.138400  0.849400  0.782100  1.0
  C  C1516  1  0.138400  0.150600  0.717900  1.0
  C  C1517  1  0.348000  0.690000  0.217300  1.0
  C  C1518  1  0.348000  0.310000  0.282700  1.0
  C  C1519  1  0.848000  0.190000  0.217300  1.0
  C  C1520  1  0.848000  0.810000  0.282700  1.0
  C  C1521  1  0.652000  0.310000  0.782700  1.0
  C  C1522  1  0.652000  0.690000  0.717300  1.0
  C  C1523  1  0.152000  0.810000  0.782700  1.0
  C  C1524  1  0.152000  0.190000  0.717300  1.0
  C  C1525  1  0.270200  0.623000  0.164300  1.0
  C  C1526  1  0.270200  0.377000  0.335700  1.0
  C  C1527  1  0.770200  0.123000  0.164300  1.0
  C  C1528  1  0.770200  0.877000  0.335700  1.0
  C  C1529  1  0.729800  0.377000  0.835700  1.0
  C  C1530  1  0.729800  0.623000  0.664300  1.0
  C  C1531  1  0.229800  0.877000  0.835700  1.0
  C  C1532  1  0.229800  0.123000  0.664300  1.0
  C  C1533  1  0.296100  0.600700  0.141300  1.0
  C  C1534  1  0.296100  0.399300  0.358700  1.0
  C  C1535  1  0.796100  0.100700  0.141300  1.0
  C  C1536  1  0.796100  0.899300  0.358700  1.0
  C  C1537  1  0.703900  0.399300  0.858700  1.0
  C  C1538  1  0.703900  0.600700  0.641300  1.0
  C  C1539  1  0.203900  0.899300  0.858700  1.0
  C  C1540  1  0.203900  0.100700  0.641300  1.0
  C  C1541  1  0.307300  0.561400  0.146100  1.0
  C  C1542  1  0.307300  0.438600  0.353900  1.0
  C  C1543  1  0.807300  0.061400  0.146100  1.0
  C  C1544  1  0.807300  0.938600  0.353900  1.0
  C  C1545  1  0.692700  0.438600  0.853900  1.0
  C  C1546  1  0.692700  0.561400  0.646100  1.0
  C  C1547  1  0.192700  0.938600  0.853900  1.0
  C  C1548  1  0.192700  0.061400  0.646100  1.0
  C  C1549  1  0.294100  0.545500  0.174400  1.0
  C  C1550  1  0.294100  0.454500  0.325600  1.0
  C  C1551  1  0.794100  0.045500  0.174400  1.0
  C  C1552  1  0.794100  0.954500  0.325600  1.0
  C  C1553  1  0.705900  0.454500  0.825600  1.0
  C  C1554  1  0.705900  0.545500  0.674400  1.0
  C  C1555  1  0.205900  0.954500  0.825600  1.0
  C  C1556  1  0.205900  0.045500  0.674400  1.0
  C  C1557  1  0.268900  0.569300  0.196700  1.0
  C  C1558  1  0.268900  0.430700  0.303300  1.0
  C  C1559  1  0.768900  0.069300  0.196700  1.0
  C  C1560  1  0.768900  0.930700  0.303300  1.0
  C  C1561  1  0.731100  0.430700  0.803300  1.0
  C  C1562  1  0.731100  0.569300  0.696700  1.0
  C  C1563  1  0.231100  0.930700  0.803300  1.0
  C  C1564  1  0.231100  0.069300  0.696700  1.0
  C  C1565  1  0.259100  0.665100  0.162000  1.0
  C  C1566  1  0.259100  0.334900  0.338000  1.0
  C  C1567  1  0.759100  0.165100  0.162000  1.0
  C  C1568  1  0.759100  0.834900  0.338000  1.0
  C  C1569  1  0.740900  0.334900  0.838000  1.0
  C  C1570  1  0.740900  0.665100  0.662000  1.0
  C  C1571  1  0.240900  0.834900  0.838000  1.0
  C  C1572  1  0.240900  0.165100  0.662000  1.0
  C  C1573  1  0.269700  0.690700  0.137100  1.0
  C  C1574  1  0.269700  0.309300  0.362900  1.0
  C  C1575  1  0.769700  0.190700  0.137100  1.0
  C  C1576  1  0.769700  0.809300  0.362900  1.0
  C  C1577  1  0.730300  0.309300  0.862900  1.0
  C  C1578  1  0.730300  0.690700  0.637100  1.0
  C  C1579  1  0.230300  0.809300  0.862900  1.0
  C  C1580  1  0.230300  0.190700  0.637100  1.0
  C  C1581  1  0.251500  0.727600  0.148100  1.0
  C  C1582  1  0.251500  0.272400  0.351900  1.0
  C  C1583  1  0.751500  0.227600  0.148100  1.0
  C  C1584  1  0.751500  0.772400  0.351900  1.0
  C  C1585  1  0.748500  0.272400  0.851900  1.0
  C  C1586  1  0.748500  0.727600  0.648100  1.0
  C  C1587  1  0.248500  0.772400  0.851900  1.0
  C  C1588  1  0.248500  0.227600  0.648100  1.0
  C  C1589  1  0.205000  0.755800  0.195000  1.0
  C  C1590  1  0.205000  0.244200  0.305000  1.0
  C  C1591  1  0.705000  0.255800  0.195000  1.0
  C  C1592  1  0.705000  0.744200  0.305000  1.0
  C  C1593  1  0.795000  0.244200  0.805000  1.0
  C  C1594  1  0.795000  0.755800  0.695000  1.0
  C  C1595  1  0.295000  0.744200  0.805000  1.0
  C  C1596  1  0.295000  0.255800  0.695000  1.0
  C  C1597  1  0.947000  0.947700  0.180400  1.0
  C  C1598  1  0.947000  0.052300  0.319600  1.0
  C  C1599  1  0.447000  0.447700  0.180400  1.0
  C  C1600  1  0.447000  0.552300  0.319600  1.0
  C  C1601  1  0.053000  0.052300  0.819600  1.0
  C  C1602  1  0.053000  0.947700  0.680400  1.0
  C  C1603  1  0.553000  0.552300  0.819600  1.0
  C  C1604  1  0.553000  0.447700  0.680400  1.0
  C  C1605  1  0.918400  0.977700  0.194800  1.0
  C  C1606  1  0.918400  0.022300  0.305200  1.0
  C  C1607  1  0.418400  0.477700  0.194800  1.0
  C  C1608  1  0.418400  0.522300  0.305200  1.0
  C  C1609  1  0.081600  0.022300  0.805200  1.0
  C  C1610  1  0.081600  0.977700  0.694800  1.0
  C  C1611  1  0.581600  0.522300  0.805200  1.0
  C  C1612  1  0.581600  0.477700  0.694800  1.0
  C  C1613  1  0.914000  0.014100  0.179400  1.0
  C  C1614  1  0.914000  0.985900  0.320600  1.0
  C  C1615  1  0.414000  0.514100  0.179400  1.0
  C  C1616  1  0.414000  0.485900  0.320600  1.0
  C  C1617  1  0.086000  0.985900  0.820600  1.0
  C  C1618  1  0.086000  0.014100  0.679400  1.0
  C  C1619  1  0.586000  0.485900  0.820600  1.0
  C  C1620  1  0.586000  0.514100  0.679400  1.0
  C  C1621  1  0.938100  0.018900  0.151300  1.0
  C  C1622  1  0.938100  0.981100  0.348700  1.0
  C  C1623  1  0.438100  0.518900  0.151300  1.0
  C  C1624  1  0.438100  0.481100  0.348700  1.0
  C  C1625  1  0.061900  0.981100  0.848700  1.0
  C  C1626  1  0.061900  0.018900  0.651300  1.0
  C  C1627  1  0.561900  0.481100  0.848700  1.0
  C  C1628  1  0.561900  0.518900  0.651300  1.0
  C  C1629  1  0.966200  0.987600  0.138800  1.0
  C  C1630  1  0.966200  0.012400  0.361200  1.0
  C  C1631  1  0.466200  0.487600  0.138800  1.0
  C  C1632  1  0.466200  0.512400  0.361200  1.0
  C  C1633  1  0.033800  0.012400  0.861200  1.0
  C  C1634  1  0.033800  0.987600  0.638800  1.0
  C  C1635  1  0.533800  0.512400  0.861200  1.0
  C  C1636  1  0.533800  0.487600  0.638800  1.0
  C  C1637  1  0.950500  0.908500  0.193200  1.0
  C  C1638  1  0.950500  0.091500  0.306800  1.0
  C  C1639  1  0.450500  0.408500  0.193200  1.0
  C  C1640  1  0.450500  0.591500  0.306800  1.0
  C  C1641  1  0.049500  0.091500  0.806800  1.0
  C  C1642  1  0.049500  0.908500  0.693200  1.0
  C  C1643  1  0.549500  0.591500  0.806800  1.0
  C  C1644  1  0.549500  0.408500  0.693200  1.0
  C  C1645  1  0.927900  0.891100  0.218400  1.0
  C  C1646  1  0.927900  0.108900  0.281600  1.0
  C  C1647  1  0.427900  0.391100  0.218400  1.0
  C  C1648  1  0.427900  0.608900  0.281600  1.0
  C  C1649  1  0.072100  0.108900  0.781600  1.0
  C  C1650  1  0.072100  0.891100  0.718400  1.0
  C  C1651  1  0.572100  0.608900  0.781600  1.0
  C  C1652  1  0.572100  0.391100  0.718400  1.0
  C  C1653  1  0.944200  0.853100  0.218500  1.0
  C  C1654  1  0.944200  0.146900  0.281500  1.0
  C  C1655  1  0.444200  0.353100  0.218500  1.0
  C  C1656  1  0.444200  0.646900  0.281500  1.0
  C  C1657  1  0.055800  0.146900  0.781500  1.0
  C  C1658  1  0.055800  0.853100  0.718500  1.0
  C  C1659  1  0.555800  0.646900  0.781500  1.0
  C  C1660  1  0.555800  0.353100  0.718500  1.0
  C  C1661  1  0.002300  0.811400  0.185600  1.0
  C  C1662  1  0.002300  0.188600  0.314400  1.0
  C  C1663  1  0.502300  0.311400  0.185600  1.0
  C  C1664  1  0.502300  0.688600  0.314400  1.0
  C  C1665  1  0.997700  0.188600  0.814400  1.0
  C  C1666  1  0.997700  0.811400  0.685600  1.0
  C  C1667  1  0.497700  0.688600  0.814400  1.0
  C  C1668  1  0.497700  0.311400  0.685600  1.0
  C  C1669  1  0.155200  0.753800  0.184600  1.0
  C  C1670  1  0.155200  0.246200  0.315400  1.0
  C  C1671  1  0.655200  0.253800  0.184600  1.0
  C  C1672  1  0.655200  0.746200  0.315400  1.0
  C  C1673  1  0.844800  0.246200  0.815400  1.0
  C  C1674  1  0.844800  0.753800  0.684600  1.0
  C  C1675  1  0.344800  0.746200  0.815400  1.0
  C  C1676  1  0.344800  0.253800  0.684600  1.0
  C  C1677  1  0.141100  0.723000  0.162400  1.0
  C  C1678  1  0.141100  0.277000  0.337600  1.0
  C  C1679  1  0.641100  0.223000  0.162400  1.0
  C  C1680  1  0.641100  0.777000  0.337600  1.0
  C  C1681  1  0.858900  0.277000  0.837600  1.0
  C  C1682  1  0.858900  0.723000  0.662400  1.0
  C  C1683  1  0.358900  0.777000  0.837600  1.0
  C  C1684  1  0.358900  0.223000  0.662400  1.0
  C  C1685  1  0.095600  0.720400  0.152800  1.0
  C  C1686  1  0.095600  0.279600  0.347200  1.0
  C  C1687  1  0.595600  0.220400  0.152800  1.0
  C  C1688  1  0.595600  0.779600  0.347200  1.0
  C  C1689  1  0.904400  0.279600  0.847200  1.0
  C  C1690  1  0.904400  0.720400  0.652800  1.0
  C  C1691  1  0.404400  0.779600  0.847200  1.0
  C  C1692  1  0.404400  0.220400  0.652800  1.0
  C  C1693  1  0.066000  0.748600  0.165200  1.0
  C  C1694  1  0.066000  0.251400  0.334800  1.0
  C  C1695  1  0.566000  0.248600  0.165200  1.0
  C  C1696  1  0.566000  0.751400  0.334800  1.0
  C  C1697  1  0.934000  0.251400  0.834800  1.0
  C  C1698  1  0.934000  0.748600  0.665200  1.0
  C  C1699  1  0.434000  0.751400  0.834800  1.0
  C  C1700  1  0.434000  0.248600  0.665200  1.0
  C  C1701  1  0.078800  0.782300  0.187200  1.0
  C  C1702  1  0.078800  0.217700  0.312800  1.0
  C  C1703  1  0.578800  0.282300  0.187200  1.0
  C  C1704  1  0.578800  0.717700  0.312800  1.0
  C  C1705  1  0.921200  0.217700  0.812800  1.0
  C  C1706  1  0.921200  0.782300  0.687200  1.0
  C  C1707  1  0.421200  0.717700  0.812800  1.0
  C  C1708  1  0.421200  0.282300  0.687200  1.0
  C  C1709  1  0.125300  0.784500  0.197900  1.0
  C  C1710  1  0.125300  0.215500  0.302100  1.0
  C  C1711  1  0.625300  0.284500  0.197900  1.0
  C  C1712  1  0.625300  0.715500  0.302100  1.0
  C  C1713  1  0.874700  0.215500  0.802100  1.0
  C  C1714  1  0.874700  0.784500  0.697900  1.0
  C  C1715  1  0.374700  0.715500  0.802100  1.0
  C  C1716  1  0.374700  0.284500  0.697900  1.0
  C  C1717  1  0.138900  0.817500  0.220800  1.0
  C  C1718  1  0.138900  0.182500  0.279200  1.0
  C  C1719  1  0.638900  0.317500  0.220800  1.0
  C  C1720  1  0.638900  0.682500  0.279200  1.0
  C  C1721  1  0.861100  0.182500  0.779200  1.0
  C  C1722  1  0.861100  0.817500  0.720800  1.0
  C  C1723  1  0.361100  0.682500  0.779200  1.0
  C  C1724  1  0.361100  0.317500  0.720800  1.0
  C  C1725  1  0.108900  0.846700  0.231800  1.0
  C  C1726  1  0.108900  0.153300  0.268200  1.0
  C  C1727  1  0.608900  0.346700  0.231800  1.0
  C  C1728  1  0.608900  0.653300  0.268200  1.0
  C  C1729  1  0.891100  0.153300  0.768200  1.0
  C  C1730  1  0.891100  0.846700  0.731800  1.0
  C  C1731  1  0.391100  0.653300  0.768200  1.0
  C  C1732  1  0.391100  0.346700  0.731800  1.0
  C  C1733  1  0.064200  0.845800  0.220600  1.0
  C  C1734  1  0.064200  0.154200  0.279400  1.0
  C  C1735  1  0.564200  0.345800  0.220600  1.0
  C  C1736  1  0.564200  0.654200  0.279400  1.0
  C  C1737  1  0.935800  0.154200  0.779400  1.0
  C  C1738  1  0.935800  0.845800  0.720600  1.0
  C  C1739  1  0.435800  0.654200  0.779400  1.0
  C  C1740  1  0.435800  0.345800  0.720600  1.0
  C  C1741  1  0.049300  0.814100  0.198600  1.0
  C  C1742  1  0.049300  0.185900  0.301400  1.0
  C  C1743  1  0.549300  0.314100  0.198600  1.0
  C  C1744  1  0.549300  0.685900  0.301400  1.0
  C  C1745  1  0.950700  0.185900  0.801400  1.0
  C  C1746  1  0.950700  0.814100  0.698600  1.0
  C  C1747  1  0.450700  0.685900  0.801400  1.0
  C  C1748  1  0.450700  0.314100  0.698600  1.0
  C  C1749  1  0.129800  0.689500  0.243300  1.0
  C  C1750  1  0.129800  0.310500  0.256700  1.0
  C  C1751  1  0.629800  0.189500  0.243300  1.0
  C  C1752  1  0.629800  0.810500  0.256700  1.0
  C  C1753  1  0.870200  0.310500  0.756700  1.0
  C  C1754  1  0.870200  0.689500  0.743300  1.0
  C  C1755  1  0.370200  0.810500  0.756700  1.0
  C  C1756  1  0.370200  0.189500  0.743300  1.0
  C  C1757  1  0.099500  0.718300  0.258000  1.0
  C  C1758  1  0.099500  0.281700  0.242000  1.0
  C  C1759  1  0.599500  0.218300  0.258000  1.0
  C  C1760  1  0.599500  0.781700  0.242000  1.0
  C  C1761  1  0.900500  0.281700  0.742000  1.0
  C  C1762  1  0.900500  0.718300  0.758000  1.0
  C  C1763  1  0.400500  0.781700  0.742000  1.0
  C  C1764  1  0.400500  0.218300  0.758000  1.0
  C  C1765  1  0.112600  0.748500  0.280300  1.0
  C  C1766  1  0.112600  0.251500  0.219700  1.0
  C  C1767  1  0.612600  0.248500  0.280300  1.0
  C  C1768  1  0.612600  0.751500  0.219700  1.0
  C  C1769  1  0.887400  0.251500  0.719700  1.0
  C  C1770  1  0.887400  0.748500  0.780300  1.0
  C  C1771  1  0.387400  0.751500  0.719700  1.0
  C  C1772  1  0.387400  0.248500  0.780300  1.0
  C  C1773  1  0.157600  0.749800  0.289100  1.0
  C  C1774  1  0.157600  0.250200  0.210900  1.0
  C  C1775  1  0.657600  0.249800  0.289100  1.0
  C  C1776  1  0.657600  0.750200  0.210900  1.0
  C  C1777  1  0.842400  0.250200  0.710900  1.0
  C  C1778  1  0.842400  0.749800  0.789100  1.0
  C  C1779  1  0.342400  0.750200  0.710900  1.0
  C  C1780  1  0.342400  0.249800  0.789100  1.0
  C  C1781  1  0.186500  0.720700  0.274400  1.0
  C  C1782  1  0.186500  0.279300  0.225600  1.0
  C  C1783  1  0.686500  0.220700  0.274400  1.0
  C  C1784  1  0.686500  0.779300  0.225600  1.0
  C  C1785  1  0.813500  0.279300  0.725600  1.0
  C  C1786  1  0.813500  0.720700  0.774400  1.0
  C  C1787  1  0.313500  0.779300  0.725600  1.0
  C  C1788  1  0.313500  0.220700  0.774400  1.0
  C  C1789  1  0.117600  0.656100  0.218900  1.0
  C  C1790  1  0.117600  0.343900  0.281100  1.0
  C  C1791  1  0.617600  0.156100  0.218900  1.0
  C  C1792  1  0.617600  0.843900  0.281100  1.0
  C  C1793  1  0.882400  0.343900  0.781100  1.0
  C  C1794  1  0.882400  0.656100  0.718900  1.0
  C  C1795  1  0.382400  0.843900  0.781100  1.0
  C  C1796  1  0.382400  0.156100  0.718900  1.0
  C  C1797  1  0.074900  0.640600  0.208000  1.0
  C  C1798  1  0.074900  0.359400  0.292000  1.0
  C  C1799  1  0.574900  0.140600  0.208000  1.0
  C  C1800  1  0.574900  0.859400  0.292000  1.0
  C  C1801  1  0.925100  0.359400  0.792000  1.0
  C  C1802  1  0.925100  0.640600  0.708000  1.0
  C  C1803  1  0.425100  0.859400  0.792000  1.0
  C  C1804  1  0.425100  0.140600  0.708000  1.0
  C  C1805  1  0.084200  0.608300  0.186200  1.0
  C  C1806  1  0.084200  0.391700  0.313800  1.0
  C  C1807  1  0.584200  0.108300  0.186200  1.0
  C  C1808  1  0.584200  0.891700  0.313800  1.0
  C  C1809  1  0.915800  0.391700  0.813800  1.0
  C  C1810  1  0.915800  0.608300  0.686200  1.0
  C  C1811  1  0.415800  0.891700  0.813800  1.0
  C  C1812  1  0.415800  0.108300  0.686200  1.0
  C  C1813  1  0.153700  0.573300  0.162700  1.0
  C  C1814  1  0.153700  0.426700  0.337300  1.0
  C  C1815  1  0.653700  0.073300  0.162700  1.0
  C  C1816  1  0.653700  0.926700  0.337300  1.0
  C  C1817  1  0.846300  0.426700  0.837300  1.0
  C  C1818  1  0.846300  0.573300  0.662700  1.0
  C  C1819  1  0.346300  0.926700  0.837300  1.0
  C  C1820  1  0.346300  0.073300  0.662700  1.0
  C  C1821  1  0.242700  0.447700  0.939500  1.0
  C  C1822  1  0.242700  0.552300  0.560500  1.0
  C  C1823  1  0.742700  0.947700  0.939500  1.0
  C  C1824  1  0.742700  0.052300  0.560500  1.0
  C  C1825  1  0.757300  0.552300  0.060500  1.0
  C  C1826  1  0.757300  0.447700  0.439500  1.0
  C  C1827  1  0.257300  0.052300  0.060500  1.0
  C  C1828  1  0.257300  0.947700  0.439500  1.0
  C  C1829  1  0.268800  0.418100  0.921400  1.0
  C  C1830  1  0.268800  0.581900  0.578600  1.0
  C  C1831  1  0.768800  0.918100  0.921400  1.0
  C  C1832  1  0.768800  0.081900  0.578600  1.0
  C  C1833  1  0.731200  0.581900  0.078600  1.0
  C  C1834  1  0.731200  0.418100  0.421400  1.0
  C  C1835  1  0.231200  0.081900  0.078600  1.0
  C  C1836  1  0.231200  0.918100  0.421400  1.0
  C  C1837  1  0.250000  0.389000  0.901000  1.0
  C  C1838  1  0.250000  0.611000  0.599000  1.0
  C  C1839  1  0.750000  0.889000  0.901000  1.0
  C  C1840  1  0.750000  0.111000  0.599000  1.0
  C  C1841  1  0.750000  0.611000  0.099000  1.0
  C  C1842  1  0.750000  0.389000  0.401000  1.0
  C  C1843  1  0.250000  0.111000  0.099000  1.0
  C  C1844  1  0.250000  0.889000  0.401000  1.0
  C  C1845  1  0.204200  0.386700  0.898000  1.0
  C  C1846  1  0.204200  0.613300  0.602000  1.0
  C  C1847  1  0.704200  0.886700  0.898000  1.0
  C  C1848  1  0.704200  0.113300  0.602000  1.0
  C  C1849  1  0.795800  0.613300  0.102000  1.0
  C  C1850  1  0.795800  0.386700  0.398000  1.0
  C  C1851  1  0.295800  0.113300  0.102000  1.0
  C  C1852  1  0.295800  0.886700  0.398000  1.0
  C  C1853  1  0.179300  0.416100  0.916600  1.0
  C  C1854  1  0.179300  0.583900  0.583400  1.0
  C  C1855  1  0.679300  0.916100  0.916600  1.0
  C  C1856  1  0.679300  0.083900  0.583400  1.0
  C  C1857  1  0.820700  0.583900  0.083400  1.0
  C  C1858  1  0.820700  0.416100  0.416600  1.0
  C  C1859  1  0.320700  0.083900  0.083400  1.0
  C  C1860  1  0.320700  0.916100  0.416600  1.0
  C  C1861  1  0.259400  0.481300  0.961300  1.0
  C  C1862  1  0.259400  0.518700  0.538700  1.0
  C  C1863  1  0.759400  0.981300  0.961300  1.0
  C  C1864  1  0.759400  0.018700  0.538700  1.0
  C  C1865  1  0.740600  0.518700  0.038700  1.0
  C  C1866  1  0.740600  0.481300  0.461300  1.0
  C  C1867  1  0.240600  0.018700  0.038700  1.0
  C  C1868  1  0.240600  0.981300  0.461300  1.0
  C  C1869  1  0.303900  0.492600  0.969800  1.0
  C  C1870  1  0.303900  0.507400  0.530200  1.0
  C  C1871  1  0.803900  0.992600  0.969800  1.0
  C  C1872  1  0.803900  0.007400  0.530200  1.0
  C  C1873  1  0.696100  0.507400  0.030200  1.0
  C  C1874  1  0.696100  0.492600  0.469800  1.0
  C  C1875  1  0.196100  0.007400  0.030200  1.0
  C  C1876  1  0.196100  0.992600  0.469800  1.0
  C  C1877  1  0.299800  0.526500  0.991300  1.0
  C  C1878  1  0.299800  0.473500  0.508700  1.0
  C  C1879  1  0.799800  0.026500  0.991300  1.0
  C  C1880  1  0.799800  0.973500  0.508700  1.0
  C  C1881  1  0.700200  0.473500  0.008700  1.0
  C  C1882  1  0.700200  0.526500  0.491300  1.0
  C  C1883  1  0.200200  0.973500  0.008700  1.0
  C  C1884  1  0.200200  0.026500  0.491300  1.0
  C  C1885  1  0.236200  0.565600  0.018800  1.0
  C  C1886  1  0.236200  0.434400  0.481200  1.0
  C  C1887  1  0.736200  0.065600  0.018800  1.0
  C  C1888  1  0.736200  0.934400  0.481200  1.0
  C  C1889  1  0.763800  0.434400  0.981200  1.0
  C  C1890  1  0.763800  0.565600  0.518800  1.0
  C  C1891  1  0.263800  0.934400  0.981200  1.0
  C  C1892  1  0.263800  0.065600  0.518800  1.0
  C  C1893  1  0.166000  0.588700  0.130200  1.0
  C  C1894  1  0.166000  0.411300  0.369800  1.0
  C  C1895  1  0.666000  0.088700  0.130200  1.0
  C  C1896  1  0.666000  0.911300  0.369800  1.0
  C  C1897  1  0.834000  0.411300  0.869800  1.0
  C  C1898  1  0.834000  0.588700  0.630200  1.0
  C  C1899  1  0.334000  0.911300  0.869800  1.0
  C  C1900  1  0.334000  0.088700  0.630200  1.0
  C  C1901  1  0.151000  0.625000  0.121100  1.0
  C  C1902  1  0.151000  0.375000  0.378900  1.0
  C  C1903  1  0.651000  0.125000  0.121100  1.0
  C  C1904  1  0.651000  0.875000  0.378900  1.0
  C  C1905  1  0.849000  0.375000  0.878900  1.0
  C  C1906  1  0.849000  0.625000  0.621100  1.0
  C  C1907  1  0.349000  0.875000  0.878900  1.0
  C  C1908  1  0.349000  0.125000  0.621100  1.0
  C  C1909  1  0.162400  0.639600  0.092000  1.0
  C  C1910  1  0.162400  0.360400  0.408000  1.0
  C  C1911  1  0.662400  0.139600  0.092000  1.0
  C  C1912  1  0.662400  0.860400  0.408000  1.0
  C  C1913  1  0.837600  0.360400  0.908000  1.0
  C  C1914  1  0.837600  0.639600  0.592000  1.0
  C  C1915  1  0.337600  0.860400  0.908000  1.0
  C  C1916  1  0.337600  0.139600  0.592000  1.0
  C  C1917  1  0.188000  0.616500  0.069500  1.0
  C  C1918  1  0.188000  0.383500  0.430500  1.0
  C  C1919  1  0.688000  0.116500  0.069500  1.0
  C  C1920  1  0.688000  0.883500  0.430500  1.0
  C  C1921  1  0.812000  0.383500  0.930500  1.0
  C  C1922  1  0.812000  0.616500  0.569500  1.0
  C  C1923  1  0.312000  0.883500  0.930500  1.0
  C  C1924  1  0.312000  0.116500  0.569500  1.0
  C  C1925  1  0.203200  0.577400  0.075900  1.0
  C  C1926  1  0.203200  0.422600  0.424100  1.0
  C  C1927  1  0.703200  0.077400  0.075900  1.0
  C  C1928  1  0.703200  0.922600  0.424100  1.0
  C  C1929  1  0.796800  0.422600  0.924100  1.0
  C  C1930  1  0.796800  0.577400  0.575900  1.0
  C  C1931  1  0.296800  0.922600  0.924100  1.0
  C  C1932  1  0.296800  0.077400  0.575900  1.0
  C  C1933  1  0.192500  0.563400  0.107200  1.0
  C  C1934  1  0.192500  0.436600  0.392800  1.0
  C  C1935  1  0.692500  0.063400  0.107200  1.0
  C  C1936  1  0.692500  0.936600  0.392800  1.0
  C  C1937  1  0.807500  0.436600  0.892800  1.0
  C  C1938  1  0.807500  0.563400  0.607200  1.0
  C  C1939  1  0.307500  0.936600  0.892800  1.0
  C  C1940  1  0.307500  0.063400  0.607200  1.0
  C  C1941  1  0.208200  0.524200  0.113800  1.0
  C  C1942  1  0.208200  0.475800  0.386200  1.0
  C  C1943  1  0.708200  0.024200  0.113800  1.0
  C  C1944  1  0.708200  0.975800  0.386200  1.0
  C  C1945  1  0.791800  0.475800  0.886200  1.0
  C  C1946  1  0.791800  0.524200  0.613800  1.0
  C  C1947  1  0.291800  0.975800  0.886200  1.0
  C  C1948  1  0.291800  0.024200  0.613800  1.0
  C  C1949  1  0.233100  0.500400  0.091300  1.0
  C  C1950  1  0.233100  0.499600  0.408700  1.0
  C  C1951  1  0.733100  0.000400  0.091300  1.0
  C  C1952  1  0.733100  0.999600  0.408700  1.0
  C  C1953  1  0.766900  0.499600  0.908700  1.0
  C  C1954  1  0.766900  0.500400  0.591300  1.0
  C  C1955  1  0.266900  0.999600  0.908700  1.0
  C  C1956  1  0.266900  0.000400  0.591300  1.0
  C  C1957  1  0.242800  0.512900  0.059900  1.0
  C  C1958  1  0.242800  0.487100  0.440100  1.0
  C  C1959  1  0.742800  0.012900  0.059900  1.0
  C  C1960  1  0.742800  0.987100  0.440100  1.0
  C  C1961  1  0.757200  0.487100  0.940100  1.0
  C  C1962  1  0.757200  0.512900  0.559900  1.0
  C  C1963  1  0.257200  0.987100  0.940100  1.0
  C  C1964  1  0.257200  0.012900  0.559900  1.0
  C  C1965  1  0.227700  0.551700  0.052400  1.0
  C  C1966  1  0.227700  0.448300  0.447600  1.0
  C  C1967  1  0.727700  0.051700  0.052400  1.0
  C  C1968  1  0.727700  0.948300  0.447600  1.0
  C  C1969  1  0.772300  0.448300  0.947600  1.0
  C  C1970  1  0.772300  0.551700  0.552400  1.0
  C  C1971  1  0.272300  0.948300  0.947600  1.0
  C  C1972  1  0.272300  0.051700  0.552400  1.0
  C  C1973  1  0.145100  0.465100  0.038300  1.0
  C  C1974  1  0.145100  0.534900  0.461700  1.0
  C  C1975  1  0.645100  0.965100  0.038300  1.0
  C  C1976  1  0.645100  0.034900  0.461700  1.0
  C  C1977  1  0.854900  0.534900  0.961700  1.0
  C  C1978  1  0.854900  0.465100  0.538300  1.0
  C  C1979  1  0.354900  0.034900  0.961700  1.0
  C  C1980  1  0.354900  0.965100  0.538300  1.0
  C  C1981  1  0.145800  0.444600  0.066900  1.0
  C  C1982  1  0.145800  0.555400  0.433100  1.0
  C  C1983  1  0.645800  0.944600  0.066900  1.0
  C  C1984  1  0.645800  0.055400  0.433100  1.0
  C  C1985  1  0.854200  0.555400  0.933100  1.0
  C  C1986  1  0.854200  0.444600  0.566900  1.0
  C  C1987  1  0.354200  0.055400  0.933100  1.0
  C  C1988  1  0.354200  0.944600  0.566900  1.0
  C  C1989  1  0.169900  0.408500  0.066300  1.0
  C  C1990  1  0.169900  0.591500  0.433700  1.0
  C  C1991  1  0.669900  0.908500  0.066300  1.0
  C  C1992  1  0.669900  0.091500  0.433700  1.0
  C  C1993  1  0.830100  0.591500  0.933700  1.0
  C  C1994  1  0.830100  0.408500  0.566300  1.0
  C  C1995  1  0.330100  0.091500  0.933700  1.0
  C  C1996  1  0.330100  0.908500  0.566300  1.0
  C  C1997  1  0.191800  0.394500  0.037400  1.0
  C  C1998  1  0.191800  0.605500  0.462600  1.0
  C  C1999  1  0.691800  0.894500  0.037400  1.0
  C  C2000  1  0.691800  0.105500  0.462600  1.0
  C  C2001  1  0.808200  0.605500  0.962600  1.0
  C  C2002  1  0.808200  0.394500  0.537400  1.0
  C  C2003  1  0.308200  0.105500  0.962600  1.0
  C  C2004  1  0.308200  0.894500  0.537400  1.0
  C  C2005  1  0.188700  0.416300  0.009400  1.0
  C  C2006  1  0.188700  0.583700  0.490600  1.0
  C  C2007  1  0.688700  0.916300  0.009400  1.0
  C  C2008  1  0.688700  0.083700  0.490600  1.0
  C  C2009  1  0.811300  0.583700  0.990600  1.0
  C  C2010  1  0.811300  0.416300  0.509400  1.0
  C  C2011  1  0.311300  0.083700  0.990600  1.0
  C  C2012  1  0.311300  0.916300  0.509400  1.0
  C  C2013  1  0.125100  0.504500  0.037800  1.0
  C  C2014  1  0.125100  0.495500  0.462200  1.0
  C  C2015  1  0.625100  0.004500  0.037800  1.0
  C  C2016  1  0.625100  0.995500  0.462200  1.0
  C  C2017  1  0.874900  0.495500  0.962200  1.0
  C  C2018  1  0.874900  0.504500  0.537800  1.0
  C  C2019  1  0.374900  0.995500  0.962200  1.0
  C  C2020  1  0.374900  0.004500  0.537800  1.0
  C  C2021  1  0.101000  0.528500  0.061900  1.0
  C  C2022  1  0.101000  0.471500  0.438100  1.0
  C  C2023  1  0.601000  0.028500  0.061900  1.0
  C  C2024  1  0.601000  0.971500  0.438100  1.0
  C  C2025  1  0.899000  0.471500  0.938100  1.0
  C  C2026  1  0.899000  0.528500  0.561900  1.0
  C  C2027  1  0.399000  0.971500  0.938100  1.0
  C  C2028  1  0.399000  0.028500  0.561900  1.0
  C  C2029  1  0.093100  0.564600  0.049200  1.0
  C  C2030  1  0.093100  0.435400  0.450800  1.0
  C  C2031  1  0.593100  0.064600  0.049200  1.0
  C  C2032  1  0.593100  0.935400  0.450800  1.0
  C  C2033  1  0.906900  0.435400  0.950800  1.0
  C  C2034  1  0.906900  0.564600  0.549200  1.0
  C  C2035  1  0.406900  0.935400  0.950800  1.0
  C  C2036  1  0.406900  0.064600  0.549200  1.0
  C  C2037  1  0.111700  0.592100  0.995300  1.0
  C  C2038  1  0.111700  0.407900  0.504700  1.0
  C  C2039  1  0.611700  0.092100  0.995300  1.0
  C  C2040  1  0.611700  0.907900  0.504700  1.0
  C  C2041  1  0.888300  0.407900  0.004700  1.0
  C  C2042  1  0.888300  0.592100  0.495300  1.0
  C  C2043  1  0.388300  0.907900  0.004700  1.0
  C  C2044  1  0.388300  0.092100  0.495300  1.0
  C  C2045  1  0.996300  0.752200  0.818300  1.0
  C  C2046  1  0.996300  0.247800  0.681700  1.0
  C  C2047  1  0.496300  0.252200  0.818300  1.0
  C  C2048  1  0.496300  0.747800  0.681700  1.0
  C  C2049  1  0.003700  0.247800  0.181700  1.0
  C  C2050  1  0.003700  0.752200  0.318300  1.0
  C  C2051  1  0.503700  0.747800  0.181700  1.0
  C  C2052  1  0.503700  0.252200  0.318300  1.0
  C  C2053  1  0.007200  0.773600  0.792300  1.0
  C  C2054  1  0.007200  0.226400  0.707700  1.0
  C  C2055  1  0.507200  0.273600  0.792300  1.0
  C  C2056  1  0.507200  0.726400  0.707700  1.0
  C  C2057  1  0.992800  0.226400  0.207700  1.0
  C  C2058  1  0.992800  0.773600  0.292300  1.0
  C  C2059  1  0.492800  0.726400  0.207700  1.0
  C  C2060  1  0.492800  0.273600  0.292300  1.0
  C  C2061  1  0.993800  0.814400  0.792900  1.0
  C  C2062  1  0.993800  0.185600  0.707100  1.0
  C  C2063  1  0.493800  0.314400  0.792900  1.0
  C  C2064  1  0.493800  0.685600  0.707100  1.0
  C  C2065  1  0.006200  0.185600  0.207100  1.0
  C  C2066  1  0.006200  0.814400  0.292900  1.0
  C  C2067  1  0.506200  0.685600  0.207100  1.0
  C  C2068  1  0.506200  0.314400  0.292900  1.0
  C  C2069  1  0.969300  0.830100  0.818800  1.0
  C  C2070  1  0.969300  0.169900  0.681200  1.0
  C  C2071  1  0.469300  0.330100  0.818800  1.0
  C  C2072  1  0.469300  0.669900  0.681200  1.0
  C  C2073  1  0.030700  0.169900  0.181200  1.0
  C  C2074  1  0.030700  0.830100  0.318800  1.0
  C  C2075  1  0.530700  0.669900  0.181200  1.0
  C  C2076  1  0.530700  0.330100  0.318800  1.0
  C  C2077  1  0.960000  0.807100  0.845000  1.0
  C  C2078  1  0.960000  0.192900  0.655000  1.0
  C  C2079  1  0.460000  0.307100  0.845000  1.0
  C  C2080  1  0.460000  0.692900  0.655000  1.0
  C  C2081  1  0.040000  0.192900  0.155000  1.0
  C  C2082  1  0.040000  0.807100  0.345000  1.0
  C  C2083  1  0.540000  0.692900  0.155000  1.0
  C  C2084  1  0.540000  0.307100  0.345000  1.0
  C  C2085  1  0.007200  0.708800  0.819500  1.0
  C  C2086  1  0.007200  0.291200  0.680500  1.0
  C  C2087  1  0.507200  0.208800  0.819500  1.0
  C  C2088  1  0.507200  0.791200  0.680500  1.0
  C  C2089  1  0.992800  0.291200  0.180500  1.0
  C  C2090  1  0.992800  0.708800  0.319500  1.0
  C  C2091  1  0.492800  0.791200  0.180500  1.0
  C  C2092  1  0.492800  0.208800  0.319500  1.0
  C  C2093  1  0.025900  0.681000  0.795400  1.0
  C  C2094  1  0.025900  0.319000  0.704600  1.0
  C  C2095  1  0.525900  0.181000  0.795400  1.0
  C  C2096  1  0.525900  0.819000  0.704600  1.0
  C  C2097  1  0.974100  0.319000  0.204600  1.0
  C  C2098  1  0.974100  0.681000  0.295400  1.0
  C  C2099  1  0.474100  0.819000  0.204600  1.0
  C  C2100  1  0.474100  0.181000  0.295400  1.0
  C  C2101  1  0.026400  0.644200  0.809100  1.0
  C  C2102  1  0.026400  0.355800  0.690900  1.0
  C  C2103  1  0.526400  0.144200  0.809100  1.0
  C  C2104  1  0.526400  0.855800  0.690900  1.0
  C  C2105  1  0.973600  0.355800  0.190900  1.0
  C  C2106  1  0.973600  0.644200  0.309100  1.0
  C  C2107  1  0.473600  0.855800  0.190900  1.0
  C  C2108  1  0.473600  0.144200  0.309100  1.0
  C  C2109  1  0.005000  0.622300  0.865200  1.0
  C  C2110  1  0.005000  0.377700  0.634800  1.0
  C  C2111  1  0.505000  0.122300  0.865200  1.0
  C  C2112  1  0.505000  0.877700  0.634800  1.0
  C  C2113  1  0.995000  0.377700  0.134800  1.0
  C  C2114  1  0.995000  0.622300  0.365200  1.0
  C  C2115  1  0.495000  0.877700  0.134800  1.0
  C  C2116  1  0.495000  0.122300  0.365200  1.0
  C  C2117  1  0.073000  0.586500  0.970600  1.0
  C  C2118  1  0.073000  0.413500  0.529400  1.0
  C  C2119  1  0.573000  0.086500  0.970600  1.0
  C  C2120  1  0.573000  0.913500  0.529400  1.0
  C  C2121  1  0.927000  0.413500  0.029400  1.0
  C  C2122  1  0.927000  0.586500  0.470600  1.0
  C  C2123  1  0.427000  0.913500  0.029400  1.0
  C  C2124  1  0.427000  0.086500  0.470600  1.0
  C  C2125  1  0.037500  0.561400  0.974400  1.0
  C  C2126  1  0.037500  0.438600  0.525600  1.0
  C  C2127  1  0.537500  0.061400  0.974400  1.0
  C  C2128  1  0.537500  0.938600  0.525600  1.0
  C  C2129  1  0.962500  0.438600  0.025600  1.0
  C  C2130  1  0.962500  0.561400  0.474400  1.0
  C  C2131  1  0.462500  0.938600  0.025600  1.0
  C  C2132  1  0.462500  0.061400  0.474400  1.0
  C  C2133  1  0.002500  0.557000  0.951000  1.0
  C  C2134  1  0.002500  0.443000  0.549000  1.0
  C  C2135  1  0.502500  0.057000  0.951000  1.0
  C  C2136  1  0.502500  0.943000  0.549000  1.0
  C  C2137  1  0.997500  0.443000  0.049000  1.0
  C  C2138  1  0.997500  0.557000  0.451000  1.0
  C  C2139  1  0.497500  0.943000  0.049000  1.0
  C  C2140  1  0.497500  0.057000  0.451000  1.0
  C  C2141  1  0.003300  0.577700  0.923700  1.0
  C  C2142  1  0.003300  0.422300  0.576300  1.0
  C  C2143  1  0.503300  0.077700  0.923700  1.0
  C  C2144  1  0.503300  0.922300  0.576300  1.0
  C  C2145  1  0.996700  0.422300  0.076300  1.0
  C  C2146  1  0.996700  0.577700  0.423700  1.0
  C  C2147  1  0.496700  0.922300  0.076300  1.0
  C  C2148  1  0.496700  0.077700  0.423700  1.0
  C  C2149  1  0.039300  0.605400  0.918400  1.0
  C  C2150  1  0.039300  0.394600  0.581600  1.0
  C  C2151  1  0.539300  0.105400  0.918400  1.0
  C  C2152  1  0.539300  0.894600  0.581600  1.0
  C  C2153  1  0.960700  0.394600  0.081600  1.0
  C  C2154  1  0.960700  0.605400  0.418400  1.0
  C  C2155  1  0.460700  0.894600  0.081600  1.0
  C  C2156  1  0.460700  0.105400  0.418400  1.0
  C  C2157  1  0.074900  0.609700  0.942000  1.0
  C  C2158  1  0.074900  0.390300  0.558000  1.0
  C  C2159  1  0.574900  0.109700  0.942000  1.0
  C  C2160  1  0.574900  0.890300  0.558000  1.0
  C  C2161  1  0.925100  0.390300  0.058000  1.0
  C  C2162  1  0.925100  0.609700  0.442000  1.0
  C  C2163  1  0.425100  0.890300  0.058000  1.0
  C  C2164  1  0.425100  0.109700  0.442000  1.0
  C  C2165  1  0.111200  0.635600  0.936400  1.0
  C  C2166  1  0.111200  0.364400  0.563600  1.0
  C  C2167  1  0.611200  0.135600  0.936400  1.0
  C  C2168  1  0.611200  0.864400  0.563600  1.0
  C  C2169  1  0.888800  0.364400  0.063600  1.0
  C  C2170  1  0.888800  0.635600  0.436400  1.0
  C  C2171  1  0.388800  0.864400  0.063600  1.0
  C  C2172  1  0.388800  0.135600  0.436400  1.0
  C  C2173  1  0.113100  0.654500  0.908600  1.0
  C  C2174  1  0.113100  0.345500  0.591400  1.0
  C  C2175  1  0.613100  0.154500  0.908600  1.0
  C  C2176  1  0.613100  0.845500  0.591400  1.0
  C  C2177  1  0.886900  0.345500  0.091400  1.0
  C  C2178  1  0.886900  0.654500  0.408600  1.0
  C  C2179  1  0.386900  0.845500  0.091400  1.0
  C  C2180  1  0.386900  0.154500  0.408600  1.0
  C  C2181  1  0.079900  0.649900  0.885000  1.0
  C  C2182  1  0.079900  0.350100  0.615000  1.0
  C  C2183  1  0.579900  0.149900  0.885000  1.0
  C  C2184  1  0.579900  0.850100  0.615000  1.0
  C  C2185  1  0.920100  0.350100  0.115000  1.0
  C  C2186  1  0.920100  0.649900  0.385000  1.0
  C  C2187  1  0.420100  0.850100  0.115000  1.0
  C  C2188  1  0.420100  0.149900  0.385000  1.0
  C  C2189  1  0.042100  0.626400  0.889900  1.0
  C  C2190  1  0.042100  0.373600  0.610100  1.0
  C  C2191  1  0.542100  0.126400  0.889900  1.0
  C  C2192  1  0.542100  0.873600  0.610100  1.0
  C  C2193  1  0.957900  0.373600  0.110100  1.0
  C  C2194  1  0.957900  0.626400  0.389900  1.0
  C  C2195  1  0.457900  0.873600  0.110100  1.0
  C  C2196  1  0.457900  0.126400  0.389900  1.0
  C  C2197  1  0.107200  0.898500  0.155200  1.0
  C  C2198  1  0.107200  0.101500  0.344800  1.0
  C  C2199  1  0.607200  0.398500  0.155200  1.0
  C  C2200  1  0.607200  0.601500  0.344800  1.0
  C  C2201  1  0.892800  0.101500  0.844800  1.0
  C  C2202  1  0.892800  0.898500  0.655200  1.0
  C  C2203  1  0.392800  0.601500  0.844800  1.0
  C  C2204  1  0.392800  0.398500  0.655200  1.0
  C  C2205  1  0.148400  0.909900  0.168900  1.0
  C  C2206  1  0.148400  0.090100  0.331100  1.0
  C  C2207  1  0.648400  0.409900  0.168900  1.0
  C  C2208  1  0.648400  0.590100  0.331100  1.0
  C  C2209  1  0.851600  0.090100  0.831100  1.0
  C  C2210  1  0.851600  0.909900  0.668900  1.0
  C  C2211  1  0.351600  0.590100  0.831100  1.0
  C  C2212  1  0.351600  0.409900  0.668900  1.0
  C  C2213  1  0.150900  0.944700  0.190000  1.0
  C  C2214  1  0.150900  0.055300  0.310000  1.0
  C  C2215  1  0.650900  0.444700  0.190000  1.0
  C  C2216  1  0.650900  0.555300  0.310000  1.0
  C  C2217  1  0.849100  0.055300  0.810000  1.0
  C  C2218  1  0.849100  0.944700  0.690000  1.0
  C  C2219  1  0.349100  0.555300  0.810000  1.0
  C  C2220  1  0.349100  0.444700  0.690000  1.0
  C  C2221  1  0.112900  0.967400  0.196800  1.0
  C  C2222  1  0.112900  0.032600  0.303200  1.0
  C  C2223  1  0.612900  0.467400  0.196800  1.0
  C  C2224  1  0.612900  0.532600  0.303200  1.0
  C  C2225  1  0.887100  0.032600  0.803200  1.0
  C  C2226  1  0.887100  0.967400  0.696800  1.0
  C  C2227  1  0.387100  0.532600  0.803200  1.0
  C  C2228  1  0.387100  0.467400  0.696800  1.0
  C  C2229  1  0.073200  0.954600  0.182300  1.0
  C  C2230  1  0.073200  0.045400  0.317700  1.0
  C  C2231  1  0.573200  0.454600  0.182300  1.0
  C  C2232  1  0.573200  0.545400  0.317700  1.0
  C  C2233  1  0.926800  0.045400  0.817700  1.0
  C  C2234  1  0.926800  0.954600  0.682300  1.0
  C  C2235  1  0.426800  0.545400  0.817700  1.0
  C  C2236  1  0.426800  0.454600  0.682300  1.0
  C  C2237  1  0.100100  0.860300  0.134000  1.0
  C  C2238  1  0.100100  0.139700  0.366000  1.0
  C  C2239  1  0.600100  0.360300  0.134000  1.0
  C  C2240  1  0.600100  0.639700  0.366000  1.0
  C  C2241  1  0.899900  0.139700  0.866000  1.0
  C  C2242  1  0.899900  0.860300  0.634000  1.0
  C  C2243  1  0.399900  0.639700  0.866000  1.0
  C  C2244  1  0.399900  0.360300  0.634000  1.0
  C  C2245  1  0.129400  0.828400  0.123600  1.0
  C  C2246  1  0.129400  0.171600  0.376400  1.0
  C  C2247  1  0.629400  0.328400  0.123600  1.0
  C  C2248  1  0.629400  0.671600  0.376400  1.0
  C  C2249  1  0.870600  0.171600  0.876400  1.0
  C  C2250  1  0.870600  0.828400  0.623600  1.0
  C  C2251  1  0.370600  0.671600  0.876400  1.0
  C  C2252  1  0.370600  0.328400  0.623600  1.0
  C  C2253  1  0.104600  0.800000  0.105400  1.0
  C  C2254  1  0.104600  0.200000  0.394600  1.0
  C  C2255  1  0.604600  0.300000  0.105400  1.0
  C  C2256  1  0.604600  0.700000  0.394600  1.0
  C  C2257  1  0.895400  0.200000  0.894600  1.0
  C  C2258  1  0.895400  0.800000  0.605400  1.0
  C  C2259  1  0.395400  0.700000  0.894600  1.0
  C  C2260  1  0.395400  0.300000  0.605400  1.0
  C  C2261  1  0.026200  0.795700  0.084900  1.0
  C  C2262  1  0.026200  0.204300  0.415100  1.0
  C  C2263  1  0.526200  0.295700  0.084900  1.0
  C  C2264  1  0.526200  0.704300  0.415100  1.0
  C  C2265  1  0.973800  0.204300  0.915100  1.0
  C  C2266  1  0.973800  0.795700  0.584900  1.0
  C  C2267  1  0.473800  0.704300  0.915100  1.0
  C  C2268  1  0.473800  0.295700  0.584900  1.0
  C  C2269  1  0.863200  0.723600  0.872100  1.0
  C  C2270  1  0.863200  0.276400  0.627900  1.0
  C  C2271  1  0.363200  0.223600  0.872100  1.0
  C  C2272  1  0.363200  0.776400  0.627900  1.0
  C  C2273  1  0.136800  0.276400  0.127900  1.0
  C  C2274  1  0.136800  0.723600  0.372100  1.0
  C  C2275  1  0.636800  0.776400  0.127900  1.0
  C  C2276  1  0.636800  0.223600  0.372100  1.0
  C  C2277  1  0.821300  0.709100  0.864600  1.0
  C  C2278  1  0.821300  0.290900  0.635400  1.0
  C  C2279  1  0.321300  0.209100  0.864600  1.0
  C  C2280  1  0.321300  0.790900  0.635400  1.0
  C  C2281  1  0.178700  0.290900  0.135400  1.0
  C  C2282  1  0.178700  0.709100  0.364600  1.0
  C  C2283  1  0.678700  0.790900  0.135400  1.0
  C  C2284  1  0.678700  0.209100  0.364600  1.0
  C  C2285  1  0.816600  0.672900  0.846000  1.0
  C  C2286  1  0.816600  0.327100  0.654000  1.0
  C  C2287  1  0.316600  0.172900  0.846000  1.0
  C  C2288  1  0.316600  0.827100  0.654000  1.0
  C  C2289  1  0.183400  0.327100  0.154000  1.0
  C  C2290  1  0.183400  0.672900  0.346000  1.0
  C  C2291  1  0.683400  0.827100  0.154000  1.0
  C  C2292  1  0.683400  0.172900  0.346000  1.0
  C  C2293  1  0.854300  0.651400  0.834000  1.0
  C  C2294  1  0.854300  0.348600  0.666000  1.0
  C  C2295  1  0.354300  0.151400  0.834000  1.0
  C  C2296  1  0.354300  0.848600  0.666000  1.0
  C  C2297  1  0.145700  0.348600  0.166000  1.0
  C  C2298  1  0.145700  0.651400  0.334000  1.0
  C  C2299  1  0.645700  0.848600  0.166000  1.0
  C  C2300  1  0.645700  0.151400  0.334000  1.0
  C  C2301  1  0.895300  0.668400  0.843500  1.0
  C  C2302  1  0.895300  0.331600  0.656500  1.0
  C  C2303  1  0.395300  0.168400  0.843500  1.0
  C  C2304  1  0.395300  0.831600  0.656500  1.0
  C  C2305  1  0.104700  0.331600  0.156500  1.0
  C  C2306  1  0.104700  0.668400  0.343500  1.0
  C  C2307  1  0.604700  0.831600  0.156500  1.0
  C  C2308  1  0.604700  0.168400  0.343500  1.0
  C  C2309  1  0.870200  0.761900  0.892700  1.0
  C  C2310  1  0.870200  0.238100  0.607300  1.0
  C  C2311  1  0.370200  0.261900  0.892700  1.0
  C  C2312  1  0.370200  0.738100  0.607300  1.0
  C  C2313  1  0.129800  0.238100  0.107300  1.0
  C  C2314  1  0.129800  0.761900  0.392700  1.0
  C  C2315  1  0.629800  0.738100  0.107300  1.0
  C  C2316  1  0.629800  0.261900  0.392700  1.0
  C  C2317  1  0.843100  0.794600  0.903300  1.0
  C  C2318  1  0.843100  0.205400  0.596700  1.0
  C  C2319  1  0.343100  0.294600  0.903300  1.0
  C  C2320  1  0.343100  0.705400  0.596700  1.0
  C  C2321  1  0.156900  0.205400  0.096700  1.0
  C  C2322  1  0.156900  0.794600  0.403300  1.0
  C  C2323  1  0.656900  0.705400  0.096700  1.0
  C  C2324  1  0.656900  0.294600  0.403300  1.0
  C  C2325  1  0.869300  0.822600  0.921800  1.0
  C  C2326  1  0.869300  0.177400  0.578200  1.0
  C  C2327  1  0.369300  0.322600  0.921800  1.0
  C  C2328  1  0.369300  0.677400  0.578200  1.0
  C  C2329  1  0.130700  0.177400  0.078200  1.0
  C  C2330  1  0.130700  0.822600  0.421800  1.0
  C  C2331  1  0.630700  0.677400  0.078200  1.0
  C  C2332  1  0.630700  0.322600  0.421800  1.0
  C  C2333  1  0.948400  0.821800  0.943200  1.0
  C  C2334  1  0.948400  0.178200  0.556800  1.0
  C  C2335  1  0.448400  0.321800  0.943200  1.0
  C  C2336  1  0.448400  0.678200  0.556800  1.0
  C  C2337  1  0.051600  0.178200  0.056800  1.0
  C  C2338  1  0.051600  0.821800  0.443200  1.0
  C  C2339  1  0.551600  0.678200  0.056800  1.0
  C  C2340  1  0.551600  0.321800  0.443200  1.0
  C  C2341  1  0.025100  0.810000  0.050200  1.0
  C  C2342  1  0.025100  0.190000  0.449800  1.0
  C  C2343  1  0.525100  0.310000  0.050200  1.0
  C  C2344  1  0.525100  0.690000  0.449800  1.0
  C  C2345  1  0.974900  0.190000  0.949800  1.0
  C  C2346  1  0.974900  0.810000  0.550200  1.0
  C  C2347  1  0.474900  0.690000  0.949800  1.0
  C  C2348  1  0.474900  0.310000  0.550200  1.0
  C  C2349  1  0.058500  0.833700  0.039900  1.0
  C  C2350  1  0.058500  0.166300  0.460100  1.0
  C  C2351  1  0.558500  0.333700  0.039900  1.0
  C  C2352  1  0.558500  0.666300  0.460100  1.0
  C  C2353  1  0.941500  0.166300  0.960100  1.0
  C  C2354  1  0.941500  0.833700  0.539900  1.0
  C  C2355  1  0.441500  0.666300  0.960100  1.0
  C  C2356  1  0.441500  0.333700  0.539900  1.0
  C  C2357  1  0.056700  0.848900  0.008100  1.0
  C  C2358  1  0.056700  0.151100  0.491900  1.0
  C  C2359  1  0.556700  0.348900  0.008100  1.0
  C  C2360  1  0.556700  0.651100  0.491900  1.0
  C  C2361  1  0.943300  0.151100  0.991900  1.0
  C  C2362  1  0.943300  0.848900  0.508100  1.0
  C  C2363  1  0.443300  0.651100  0.991900  1.0
  C  C2364  1  0.443300  0.348900  0.508100  1.0
  C  C2365  1  0.020500  0.839900  0.987900  1.0
  C  C2366  1  0.020500  0.160100  0.512100  1.0
  C  C2367  1  0.520500  0.339900  0.987900  1.0
  C  C2368  1  0.520500  0.660100  0.512100  1.0
  C  C2369  1  0.979500  0.160100  0.012100  1.0
  C  C2370  1  0.979500  0.839900  0.487900  1.0
  C  C2371  1  0.479500  0.660100  0.012100  1.0
  C  C2372  1  0.479500  0.339900  0.487900  1.0
  C  C2373  1  0.986500  0.814400  0.997200  1.0
  C  C2374  1  0.986500  0.185600  0.502800  1.0
  C  C2375  1  0.486500  0.314400  0.997200  1.0
  C  C2376  1  0.486500  0.685600  0.502800  1.0
  C  C2377  1  0.013500  0.185600  0.002800  1.0
  C  C2378  1  0.013500  0.814400  0.497200  1.0
  C  C2379  1  0.513500  0.685600  0.002800  1.0
  C  C2380  1  0.513500  0.314400  0.497200  1.0
  C  C2381  1  0.988400  0.798200  0.028600  1.0
  C  C2382  1  0.988400  0.201800  0.471400  1.0
  C  C2383  1  0.488400  0.298200  0.028600  1.0
  C  C2384  1  0.488400  0.701800  0.471400  1.0
  C  C2385  1  0.011600  0.201800  0.971400  1.0
  C  C2386  1  0.011600  0.798200  0.528600  1.0
  C  C2387  1  0.511600  0.701800  0.971400  1.0
  C  C2388  1  0.511600  0.298200  0.528600  1.0
  C  C2389  1  0.954500  0.771700  0.037500  1.0
  C  C2390  1  0.954500  0.228300  0.462500  1.0
  C  C2391  1  0.454500  0.271700  0.037500  1.0
  C  C2392  1  0.454500  0.728300  0.462500  1.0
  C  C2393  1  0.045500  0.228300  0.962500  1.0
  C  C2394  1  0.045500  0.771700  0.537500  1.0
  C  C2395  1  0.545500  0.728300  0.962500  1.0
  C  C2396  1  0.545500  0.271700  0.537500  1.0
  C  C2397  1  0.919400  0.762100  0.015000  1.0
  C  C2398  1  0.919400  0.237900  0.485000  1.0
  C  C2399  1  0.419400  0.262100  0.015000  1.0
  C  C2400  1  0.419400  0.737900  0.485000  1.0
  C  C2401  1  0.080600  0.237900  0.985000  1.0
  C  C2402  1  0.080600  0.762100  0.515000  1.0
  C  C2403  1  0.580600  0.737900  0.985000  1.0
  C  C2404  1  0.580600  0.262100  0.515000  1.0
  C  C2405  1  0.917600  0.777300  0.985400  1.0
  C  C2406  1  0.917600  0.222700  0.514600  1.0
  C  C2407  1  0.417600  0.277300  0.985400  1.0
  C  C2408  1  0.417600  0.722700  0.514600  1.0
  C  C2409  1  0.082400  0.222700  0.014600  1.0
  C  C2410  1  0.082400  0.777300  0.485400  1.0
  C  C2411  1  0.582400  0.722700  0.014600  1.0
  C  C2412  1  0.582400  0.277300  0.485400  1.0
  C  C2413  1  0.949500  0.803400  0.975600  1.0
  C  C2414  1  0.949500  0.196600  0.524400  1.0
  C  C2415  1  0.449500  0.303400  0.975600  1.0
  C  C2416  1  0.449500  0.696600  0.524400  1.0
  C  C2417  1  0.050500  0.196600  0.024400  1.0
  C  C2418  1  0.050500  0.803400  0.475600  1.0
  C  C2419  1  0.550500  0.696600  0.024400  1.0
  C  C2420  1  0.550500  0.303400  0.475600  1.0
  C  C2421  1  0.082300  0.480800  0.924500  1.0
  C  C2422  1  0.082300  0.519200  0.575500  1.0
  C  C2423  1  0.582300  0.980800  0.924500  1.0
  C  C2424  1  0.582300  0.019200  0.575500  1.0
  C  C2425  1  0.917700  0.519200  0.075500  1.0
  C  C2426  1  0.917700  0.480800  0.424500  1.0
  C  C2427  1  0.417700  0.019200  0.075500  1.0
  C  C2428  1  0.417700  0.980800  0.424500  1.0
  C  C2429  1  0.043600  0.466600  0.909400  1.0
  C  C2430  1  0.043600  0.533400  0.590600  1.0
  C  C2431  1  0.543600  0.966600  0.909400  1.0
  C  C2432  1  0.543600  0.033400  0.590600  1.0
  C  C2433  1  0.956400  0.533400  0.090600  1.0
  C  C2434  1  0.956400  0.466600  0.409400  1.0
  C  C2435  1  0.456400  0.033400  0.090600  1.0
  C  C2436  1  0.456400  0.966600  0.409400  1.0
  C  C2437  1  0.018300  0.438100  0.923700  1.0
  C  C2438  1  0.018300  0.561900  0.576300  1.0
  C  C2439  1  0.518300  0.938100  0.923700  1.0
  C  C2440  1  0.518300  0.061900  0.576300  1.0
  C  C2441  1  0.981700  0.561900  0.076300  1.0
  C  C2442  1  0.981700  0.438100  0.423700  1.0
  C  C2443  1  0.481700  0.061900  0.076300  1.0
  C  C2444  1  0.481700  0.938100  0.423700  1.0
  C  C2445  1  0.032700  0.424900  0.953100  1.0
  C  C2446  1  0.032700  0.575100  0.546900  1.0
  C  C2447  1  0.532700  0.924900  0.953100  1.0
  C  C2448  1  0.532700  0.075100  0.546900  1.0
  C  C2449  1  0.967300  0.575100  0.046900  1.0
  C  C2450  1  0.967300  0.424900  0.453100  1.0
  C  C2451  1  0.467300  0.075100  0.046900  1.0
  C  C2452  1  0.467300  0.924900  0.453100  1.0
  C  C2453  1  0.072600  0.440400  0.967100  1.0
  C  C2454  1  0.072600  0.559600  0.532900  1.0
  C  C2455  1  0.572600  0.940400  0.967100  1.0
  C  C2456  1  0.572600  0.059600  0.532900  1.0
  C  C2457  1  0.927400  0.559600  0.032900  1.0
  C  C2458  1  0.927400  0.440400  0.467100  1.0
  C  C2459  1  0.427400  0.059600  0.032900  1.0
  C  C2460  1  0.427400  0.940400  0.467100  1.0
  C  C2461  1  0.110100  0.511100  0.911200  1.0
  C  C2462  1  0.110100  0.488900  0.588800  1.0
  C  C2463  1  0.610100  0.011100  0.911200  1.0
  C  C2464  1  0.610100  0.988900  0.588800  1.0
  C  C2465  1  0.889900  0.488900  0.088800  1.0
  C  C2466  1  0.889900  0.511100  0.411200  1.0
  C  C2467  1  0.389900  0.988900  0.088800  1.0
  C  C2468  1  0.389900  0.011100  0.411200  1.0
  C  C2469  1  0.105900  0.530400  0.882200  1.0
  C  C2470  1  0.105900  0.469600  0.617800  1.0
  C  C2471  1  0.605900  0.030400  0.882200  1.0
  C  C2472  1  0.605900  0.969600  0.617800  1.0
  C  C2473  1  0.894100  0.469600  0.117800  1.0
  C  C2474  1  0.894100  0.530400  0.382200  1.0
  C  C2475  1  0.394100  0.969600  0.117800  1.0
  C  C2476  1  0.394100  0.030400  0.382200  1.0
  C  C2477  1  0.141700  0.555800  0.882400  1.0
  C  C2478  1  0.141700  0.444200  0.617600  1.0
  C  C2479  1  0.641700  0.055800  0.882400  1.0
  C  C2480  1  0.641700  0.944200  0.617600  1.0
  C  C2481  1  0.858300  0.444200  0.117600  1.0
  C  C2482  1  0.858300  0.555800  0.382400  1.0
  C  C2483  1  0.358300  0.944200  0.117600  1.0
  C  C2484  1  0.358300  0.055800  0.382400  1.0
  C  C2485  1  0.208300  0.571700  0.919000  1.0
  C  C2486  1  0.208300  0.428300  0.581000  1.0
  C  C2487  1  0.708300  0.071700  0.919000  1.0
  C  C2488  1  0.708300  0.928300  0.581000  1.0
  C  C2489  1  0.791700  0.428300  0.081000  1.0
  C  C2490  1  0.791700  0.571700  0.419000  1.0
  C  C2491  1  0.291700  0.928300  0.081000  1.0
  C  C2492  1  0.291700  0.071700  0.419000  1.0
  C  C2493  1  0.545900  0.608400  0.925600  1.0
  C  C2494  1  0.545900  0.391600  0.574400  1.0
  C  C2495  1  0.045900  0.108400  0.925600  1.0
  C  C2496  1  0.045900  0.891600  0.574400  1.0
  C  C2497  1  0.454100  0.391600  0.074400  1.0
  C  C2498  1  0.454100  0.608400  0.425600  1.0
  C  C2499  1  0.954100  0.891600  0.074400  1.0
  C  C2500  1  0.954100  0.108400  0.425600  1.0
  C  C2501  1  0.580200  0.620400  0.947000  1.0
  C  C2502  1  0.580200  0.379600  0.553000  1.0
  C  C2503  1  0.080200  0.120400  0.947000  1.0
  C  C2504  1  0.080200  0.879600  0.553000  1.0
  C  C2505  1  0.419800  0.379600  0.053000  1.0
  C  C2506  1  0.419800  0.620400  0.447000  1.0
  C  C2507  1  0.919800  0.879600  0.053000  1.0
  C  C2508  1  0.919800  0.120400  0.447000  1.0
  C  C2509  1  0.613300  0.646000  0.937300  1.0
  C  C2510  1  0.613300  0.354000  0.562700  1.0
  C  C2511  1  0.113300  0.146000  0.937300  1.0
  C  C2512  1  0.113300  0.854000  0.562700  1.0
  C  C2513  1  0.386700  0.354000  0.062700  1.0
  C  C2514  1  0.386700  0.646000  0.437300  1.0
  C  C2515  1  0.886700  0.854000  0.062700  1.0
  C  C2516  1  0.886700  0.146000  0.437300  1.0
  C  C2517  1  0.611100  0.659600  0.907100  1.0
  C  C2518  1  0.611100  0.340400  0.592900  1.0
  C  C2519  1  0.111100  0.159600  0.907100  1.0
  C  C2520  1  0.111100  0.840400  0.592900  1.0
  C  C2521  1  0.388900  0.340400  0.092900  1.0
  C  C2522  1  0.388900  0.659600  0.407100  1.0
  C  C2523  1  0.888900  0.840400  0.092900  1.0
  C  C2524  1  0.888900  0.159600  0.407100  1.0
  C  C2525  1  0.575000  0.648000  0.886700  1.0
  C  C2526  1  0.575000  0.352000  0.613300  1.0
  C  C2527  1  0.075000  0.148000  0.886700  1.0
  C  C2528  1  0.075000  0.852000  0.613300  1.0
  C  C2529  1  0.425000  0.352000  0.113300  1.0
  C  C2530  1  0.425000  0.648000  0.386700  1.0
  C  C2531  1  0.925000  0.852000  0.113300  1.0
  C  C2532  1  0.925000  0.148000  0.386700  1.0
  C  C2533  1  0.510300  0.579100  0.932600  1.0
  C  C2534  1  0.510300  0.420900  0.567400  1.0
  C  C2535  1  0.010300  0.079100  0.932600  1.0
  C  C2536  1  0.010300  0.920900  0.567400  1.0
  C  C2537  1  0.489700  0.420900  0.067400  1.0
  C  C2538  1  0.489700  0.579100  0.432600  1.0
  C  C2539  1  0.989700  0.920900  0.067400  1.0
  C  C2540  1  0.989700  0.079100  0.432600  1.0
  C  C2541  1  0.506000  0.555900  0.958600  1.0
  C  C2542  1  0.506000  0.444100  0.541400  1.0
  C  C2543  1  0.006000  0.055900  0.958600  1.0
  C  C2544  1  0.006000  0.944100  0.541400  1.0
  C  C2545  1  0.494000  0.444100  0.041400  1.0
  C  C2546  1  0.494000  0.555900  0.458600  1.0
  C  C2547  1  0.994000  0.944100  0.041400  1.0
  C  C2548  1  0.994000  0.055900  0.458600  1.0
  C  C2549  1  0.469900  0.531500  0.951300  1.0
  C  C2550  1  0.469900  0.468500  0.548700  1.0
  C  C2551  1  0.969900  0.031500  0.951300  1.0
  C  C2552  1  0.969900  0.968500  0.548700  1.0
  C  C2553  1  0.530100  0.468500  0.048700  1.0
  C  C2554  1  0.530100  0.531500  0.451300  1.0
  C  C2555  1  0.030100  0.968500  0.048700  1.0
  C  C2556  1  0.030100  0.031500  0.451300  1.0
  C  C2557  1  0.412600  0.526200  0.905700  1.0
  C  C2558  1  0.412600  0.473800  0.594300  1.0
  C  C2559  1  0.912600  0.026200  0.905700  1.0
  C  C2560  1  0.912600  0.973800  0.594300  1.0
  C  C2561  1  0.587400  0.473800  0.094300  1.0
  C  C2562  1  0.587400  0.526200  0.405700  1.0
  C  C2563  1  0.087400  0.973800  0.094300  1.0
  C  C2564  1  0.087400  0.026200  0.405700  1.0
  C  C2565  1  0.247900  0.548100  0.904300  1.0
  C  C2566  1  0.247900  0.451900  0.595700  1.0
  C  C2567  1  0.747900  0.048100  0.904300  1.0
  C  C2568  1  0.747900  0.951900  0.595700  1.0
  C  C2569  1  0.752100  0.451900  0.095700  1.0
  C  C2570  1  0.752100  0.548100  0.404300  1.0
  C  C2571  1  0.252100  0.951900  0.095700  1.0
  C  C2572  1  0.252100  0.048100  0.404300  1.0
  C  C2573  1  0.243700  0.514800  0.881800  1.0
  C  C2574  1  0.243700  0.485200  0.618200  1.0
  C  C2575  1  0.743700  0.014800  0.881800  1.0
  C  C2576  1  0.743700  0.985200  0.618200  1.0
  C  C2577  1  0.756300  0.485200  0.118200  1.0
  C  C2578  1  0.756300  0.514800  0.381800  1.0
  C  C2579  1  0.256300  0.985200  0.118200  1.0
  C  C2580  1  0.256300  0.014800  0.381800  1.0
  C  C2581  1  0.281600  0.493100  0.868900  1.0
  C  C2582  1  0.281600  0.506900  0.631100  1.0
  C  C2583  1  0.781600  0.993100  0.868900  1.0
  C  C2584  1  0.781600  0.006900  0.631100  1.0
  C  C2585  1  0.718400  0.506900  0.131100  1.0
  C  C2586  1  0.718400  0.493100  0.368900  1.0
  C  C2587  1  0.218400  0.006900  0.131100  1.0
  C  C2588  1  0.218400  0.993100  0.368900  1.0
  C  C2589  1  0.322900  0.504900  0.879900  1.0
  C  C2590  1  0.322900  0.495100  0.620100  1.0
  C  C2591  1  0.822900  0.004900  0.879900  1.0
  C  C2592  1  0.822900  0.995100  0.620100  1.0
  C  C2593  1  0.677100  0.495100  0.120100  1.0
  C  C2594  1  0.677100  0.504900  0.379900  1.0
  C  C2595  1  0.177100  0.995100  0.120100  1.0
  C  C2596  1  0.177100  0.004900  0.379900  1.0
  C  C2597  1  0.329300  0.539500  0.903100  1.0
  C  C2598  1  0.329300  0.460500  0.596900  1.0
  C  C2599  1  0.829300  0.039500  0.903100  1.0
  C  C2600  1  0.829300  0.960500  0.596900  1.0
  C  C2601  1  0.670700  0.460500  0.096900  1.0
  C  C2602  1  0.670700  0.539500  0.403100  1.0
  C  C2603  1  0.170700  0.960500  0.096900  1.0
  C  C2604  1  0.170700  0.039500  0.403100  1.0
  C  C2605  1  0.291200  0.562100  0.914900  1.0
  C  C2606  1  0.291200  0.437900  0.585100  1.0
  C  C2607  1  0.791200  0.062100  0.914900  1.0
  C  C2608  1  0.791200  0.937900  0.585100  1.0
  C  C2609  1  0.708800  0.437900  0.085100  1.0
  C  C2610  1  0.708800  0.562100  0.414900  1.0
  C  C2611  1  0.208800  0.937900  0.085100  1.0
  C  C2612  1  0.208800  0.062100  0.414900  1.0
  C  C2613  1  0.297000  0.597100  0.938200  1.0
  C  C2614  1  0.297000  0.402900  0.561800  1.0
  C  C2615  1  0.797000  0.097100  0.938200  1.0
  C  C2616  1  0.797000  0.902900  0.561800  1.0
  C  C2617  1  0.703000  0.402900  0.061800  1.0
  C  C2618  1  0.703000  0.597100  0.438200  1.0
  C  C2619  1  0.203000  0.902900  0.061800  1.0
  C  C2620  1  0.203000  0.097100  0.438200  1.0
  C  C2621  1  0.337600  0.607600  0.950300  1.0
  C  C2622  1  0.337600  0.392400  0.549700  1.0
  C  C2623  1  0.837600  0.107600  0.950300  1.0
  C  C2624  1  0.837600  0.892400  0.549700  1.0
  C  C2625  1  0.662400  0.392400  0.049700  1.0
  C  C2626  1  0.662400  0.607600  0.450300  1.0
  C  C2627  1  0.162400  0.892400  0.049700  1.0
  C  C2628  1  0.162400  0.107600  0.450300  1.0
  C  C2629  1  0.376000  0.584000  0.940300  1.0
  C  C2630  1  0.376000  0.416000  0.559700  1.0
  C  C2631  1  0.876000  0.084000  0.940300  1.0
  C  C2632  1  0.876000  0.916000  0.559700  1.0
  C  C2633  1  0.624000  0.416000  0.059700  1.0
  C  C2634  1  0.624000  0.584000  0.440300  1.0
  C  C2635  1  0.124000  0.916000  0.059700  1.0
  C  C2636  1  0.124000  0.084000  0.440300  1.0
  C  C2637  1  0.372500  0.550900  0.916400  1.0
  C  C2638  1  0.372500  0.449100  0.583600  1.0
  C  C2639  1  0.872500  0.050900  0.916400  1.0
  C  C2640  1  0.872500  0.949100  0.583600  1.0
  C  C2641  1  0.627500  0.449100  0.083600  1.0
  C  C2642  1  0.627500  0.550900  0.416400  1.0
  C  C2643  1  0.127500  0.949100  0.083600  1.0
  C  C2644  1  0.127500  0.050900  0.416400  1.0
  I  I2645  1  0.657440  0.371510  0.945390  1
  I  I2646  1  0.657440  0.628490  0.554610  1
  I  I2647  1  0.157440  0.871510  0.945390  1
  I  I2648  1  0.157440  0.128490  0.554610  1
  I  I2649  1  0.342560  0.628490  0.054610  1
  I  I2650  1  0.342560  0.371510  0.445390  1
  I  I2651  1  0.842560  0.128490  0.054610  1
  I  I2652  1  0.842560  0.871510  0.445390  1
  I  I2653  1  0.735220  0.149750  0.853490  1
  I  I2654  1  0.735220  0.850250  0.646510  1
  I  I2655  1  0.235220  0.649750  0.853490  1
  I  I2656  1  0.235220  0.350250  0.646510  1
  I  I2657  1  0.264780  0.850250  0.146510  1
  I  I2658  1  0.264780  0.149750  0.353490  1
  I  I2659  1  0.764780  0.350250  0.146510  1
  I  I2660  1  0.764780  0.649750  0.353490  1
  I  I2661  1  0.909030  0.929950  0.963330  1
  I  I2662  1  0.909030  0.070050  0.536670  1
  I  I2663  1  0.409030  0.429950  0.963330  1
  I  I2664  1  0.409030  0.570050  0.536670  1
  I  I2665  1  0.090970  0.070050  0.036670  1
  I  I2666  1  0.090970  0.929950  0.463330  1
  I  I2667  1  0.590970  0.570050  0.036670  1
  I  I2668  1  0.590970  0.429950  0.463330  1
  I  I2669  1  0.954750  0.323050  0.937370  1
  I  I2670  1  0.954750  0.676950  0.562630  1
  I  I2671  1  0.454750  0.823050  0.937370  1
  I  I2672  1  0.454750  0.176950  0.562630  1
  I  I2673  1  0.045250  0.676950  0.062630  1
  I  I2674  1  0.045250  0.323050  0.437370  1
  I  I2675  1  0.545250  0.176950  0.062630  1
  I  I2676  1  0.545250  0.823050  0.437370  1
  I  I2677  1  0.577720  0.772870  0.782760  1
  I  I2678  1  0.577720  0.227130  0.717240  1
  I  I2679  1  0.077720  0.272870  0.782760  1
  I  I2680  1  0.077720  0.727130  0.717240  1
  I  I2681  1  0.422280  0.227130  0.217240  1
  I  I2682  1  0.422280  0.772870  0.282760  1
  I  I2683  1  0.922280  0.727130  0.217240  1
  I  I2684  1  0.922280  0.272870  0.282760  1
  I  I2685  1  0.941300  0.508460  0.851050  1
  I  I2686  1  0.941300  0.491540  0.648950  1
  I  I2687  1  0.441300  0.008460  0.851050  1
  I  I2688  1  0.441300  0.991540  0.648950  1
  I  I2689  1  0.058700  0.491540  0.148950  1
  I  I2690  1  0.058700  0.508460  0.351050  1
  I  I2691  1  0.558700  0.991540  0.148950  1
  I  I2692  1  0.558700  0.008460  0.351050  1
  I  I2693  1  0.731000  0.786870  0.839630  1
  I  I2694  1  0.731000  0.213130  0.660370  1
  I  I2695  1  0.231000  0.286870  0.839630  1
  I  I2696  1  0.231000  0.713130  0.660370  1
  I  I2697  1  0.269000  0.213130  0.160370  1
  I  I2698  1  0.269000  0.786870  0.339630  1
  I  I2699  1  0.769000  0.713130  0.160370  1
  I  I2700  1  0.769000  0.286870  0.339630  1
  I  I2701  1  0.974400  0.941680  0.777950  1
  I  I2702  1  0.974400  0.058320  0.722050  1
  I  I2703  1  0.474400  0.441680  0.777950  1
  I  I2704  1  0.474400  0.558320  0.722050  1
  I  I2705  1  0.025600  0.058320  0.222050  1
  I  I2706  1  0.025600  0.941680  0.277950  1
  I  I2707  1  0.525600  0.558320  0.222050  1
  I  I2708  1  0.525600  0.441680  0.277950  1
  I  I2709  1  0.697300  0.777100  0.021200  1
  I  I2710  1  0.697300  0.222900  0.478800  1
  I  I2711  1  0.197300  0.277100  0.021200  1
  I  I2712  1  0.197300  0.722900  0.478800  1
  I  I2713  1  0.302700  0.222900  0.978800  1
  I  I2714  1  0.302700  0.777100  0.521200  1
  I  I2715  1  0.802700  0.722900  0.978800  1
  I  I2716  1  0.802700  0.277100  0.521200  1
  I  I2717  1  0.916300  0.530300  0.851010  1
  I  I2718  1  0.916300  0.469700  0.648990  1
  I  I2719  1  0.416300  0.030300  0.851010  1
  I  I2720  1  0.416300  0.969700  0.648990  1
  I  I2721  1  0.083700  0.469700  0.148990  1
  I  I2722  1  0.083700  0.530300  0.351010  1
  I  I2723  1  0.583700  0.969700  0.148990  1
  I  I2724  1  0.583700  0.030300  0.351010  1
  I  I2725  1  0.846600  0.885400  0.836000  1
  I  I2726  1  0.846600  0.114600  0.664000  1
  I  I2727  1  0.346600  0.385400  0.836000  1
  I  I2728  1  0.346600  0.614600  0.664000  1
  I  I2729  1  0.153400  0.114600  0.164000  1
  I  I2730  1  0.153400  0.885400  0.336000  1
  I  I2731  1  0.653400  0.614600  0.164000  1
  I  I2732  1  0.653400  0.385400  0.336000  1
  N  N2733  1  0.541100  0.806100  0.075800  1.0
  N  N2734  1  0.541100  0.193900  0.424200  1.0
  N  N2735  1  0.041100  0.306100  0.075800  1.0
  N  N2736  1  0.041100  0.693900  0.424200  1.0
  N  N2737  1  0.458900  0.193900  0.924200  1.0
  N  N2738  1  0.458900  0.806100  0.575800  1.0
  N  N2739  1  0.958900  0.693900  0.924200  1.0
  N  N2740  1  0.958900  0.306100  0.575800  1.0
  N  N2741  1  0.443700  0.723200  0.087100  1.0
  N  N2742  1  0.443700  0.276800  0.412900  1.0
  N  N2743  1  0.943700  0.223200  0.087100  1.0
  N  N2744  1  0.943700  0.776800  0.412900  1.0
  N  N2745  1  0.556300  0.276800  0.912900  1.0
  N  N2746  1  0.556300  0.723200  0.587100  1.0
  N  N2747  1  0.056300  0.776800  0.912900  1.0
  N  N2748  1  0.056300  0.223200  0.587100  1.0
  N  N2749  1  0.478900  0.749300  0.088300  1.0
  N  N2750  1  0.478900  0.250700  0.411700  1.0
  N  N2751  1  0.978900  0.249300  0.088300  1.0
  N  N2752  1  0.978900  0.750700  0.411700  1.0
  N  N2753  1  0.521100  0.250700  0.911700  1.0
  N  N2754  1  0.521100  0.749300  0.588300  1.0
  N  N2755  1  0.021100  0.750700  0.911700  1.0
  N  N2756  1  0.021100  0.249300  0.588300  1.0
  N  N2757  1  0.204400  0.601000  0.259100  1.0
  N  N2758  1  0.204400  0.399000  0.240900  1.0
  N  N2759  1  0.704400  0.101000  0.259100  1.0
  N  N2760  1  0.704400  0.899000  0.240900  1.0
  N  N2761  1  0.795600  0.399000  0.740900  1.0
  N  N2762  1  0.795600  0.601000  0.759100  1.0
  N  N2763  1  0.295600  0.899000  0.740900  1.0
  N  N2764  1  0.295600  0.101000  0.759100  1.0
  N  N2765  1  0.302100  0.683600  0.267500  1.0
  N  N2766  1  0.302100  0.316400  0.232500  1.0
  N  N2767  1  0.802100  0.183600  0.267500  1.0
  N  N2768  1  0.802100  0.816400  0.232500  1.0
  N  N2769  1  0.697900  0.316400  0.732500  1.0
  N  N2770  1  0.697900  0.683600  0.767500  1.0
  N  N2771  1  0.197900  0.816400  0.732500  1.0
  N  N2772  1  0.197900  0.183600  0.767500  1.0
  N  N2773  1  0.268400  0.657200  0.260000  1.0
  N  N2774  1  0.268400  0.342800  0.240000  1.0
  N  N2775  1  0.768400  0.157200  0.260000  1.0
  N  N2776  1  0.768400  0.842800  0.240000  1.0
  N  N2777  1  0.731600  0.342800  0.740000  1.0
  N  N2778  1  0.731600  0.657200  0.760000  1.0
  N  N2779  1  0.231600  0.842800  0.740000  1.0
  N  N2780  1  0.231600  0.157200  0.760000  1.0
  N  N2781  1  0.255900  0.607300  0.192400  1.0
  N  N2782  1  0.255900  0.392700  0.307600  1.0
  N  N2783  1  0.755900  0.107300  0.192400  1.0
  N  N2784  1  0.755900  0.892700  0.307600  1.0
  N  N2785  1  0.744100  0.392700  0.807600  1.0
  N  N2786  1  0.744100  0.607300  0.692400  1.0
  N  N2787  1  0.244100  0.892700  0.807600  1.0
  N  N2788  1  0.244100  0.107300  0.692400  1.0
  N  N2789  1  0.231200  0.724600  0.177100  1.0
  N  N2790  1  0.231200  0.275400  0.322900  1.0
  N  N2791  1  0.731200  0.224600  0.177100  1.0
  N  N2792  1  0.731200  0.775400  0.322900  1.0
  N  N2793  1  0.768800  0.275400  0.822900  1.0
  N  N2794  1  0.768800  0.724600  0.677100  1.0
  N  N2795  1  0.268800  0.775400  0.822900  1.0
  N  N2796  1  0.268800  0.224600  0.677100  1.0
  N  N2797  1  0.235600  0.686200  0.186700  1.0
  N  N2798  1  0.235600  0.313800  0.313300  1.0
  N  N2799  1  0.735600  0.186200  0.186700  1.0
  N  N2800  1  0.735600  0.813800  0.313300  1.0
  N  N2801  1  0.764400  0.313800  0.813300  1.0
  N  N2802  1  0.764400  0.686200  0.686700  1.0
  N  N2803  1  0.264400  0.813800  0.813300  1.0
  N  N2804  1  0.264400  0.186200  0.686700  1.0
  N  N2805  1  0.971400  0.952800  0.153200  1.0
  N  N2806  1  0.971400  0.047200  0.346800  1.0
  N  N2807  1  0.471400  0.452800  0.153200  1.0
  N  N2808  1  0.471400  0.547200  0.346800  1.0
  N  N2809  1  0.028600  0.047200  0.846800  1.0
  N  N2810  1  0.028600  0.952800  0.653200  1.0
  N  N2811  1  0.528600  0.547200  0.846800  1.0
  N  N2812  1  0.528600  0.452800  0.653200  1.0
  N  N2813  1  0.975900  0.847700  0.194600  1.0
  N  N2814  1  0.975900  0.152300  0.305400  1.0
  N  N2815  1  0.475900  0.347700  0.194600  1.0
  N  N2816  1  0.475900  0.652300  0.305400  1.0
  N  N2817  1  0.024100  0.152300  0.805400  1.0
  N  N2818  1  0.024100  0.847700  0.694600  1.0
  N  N2819  1  0.524100  0.652300  0.805400  1.0
  N  N2820  1  0.524100  0.347700  0.694600  1.0
  N  N2821  1  0.980100  0.881400  0.178600  1.0
  N  N2822  1  0.980100  0.118600  0.321400  1.0
  N  N2823  1  0.480100  0.381400  0.178600  1.0
  N  N2824  1  0.480100  0.618600  0.321400  1.0
  N  N2825  1  0.019900  0.118600  0.821400  1.0
  N  N2826  1  0.019900  0.881400  0.678600  1.0
  N  N2827  1  0.519900  0.618600  0.821400  1.0
  N  N2828  1  0.519900  0.381400  0.678600  1.0
  N  N2829  1  0.173100  0.691200  0.252000  1.0
  N  N2830  1  0.173100  0.308800  0.248000  1.0
  N  N2831  1  0.673100  0.191200  0.252000  1.0
  N  N2832  1  0.673100  0.808800  0.248000  1.0
  N  N2833  1  0.826900  0.308800  0.748000  1.0
  N  N2834  1  0.826900  0.691200  0.752000  1.0
  N  N2835  1  0.326900  0.808800  0.748000  1.0
  N  N2836  1  0.326900  0.191200  0.752000  1.0
  N  N2837  1  0.128800  0.603100  0.184300  1.0
  N  N2838  1  0.128800  0.396900  0.315700  1.0
  N  N2839  1  0.628800  0.103100  0.184300  1.0
  N  N2840  1  0.628800  0.896900  0.315700  1.0
  N  N2841  1  0.871200  0.396900  0.815700  1.0
  N  N2842  1  0.871200  0.603100  0.684300  1.0
  N  N2843  1  0.371200  0.896900  0.815700  1.0
  N  N2844  1  0.371200  0.103100  0.684300  1.0
  N  N2845  1  0.150100  0.633700  0.204400  1.0
  N  N2846  1  0.150100  0.366300  0.295600  1.0
  N  N2847  1  0.650100  0.133700  0.204400  1.0
  N  N2848  1  0.650100  0.866300  0.295600  1.0
  N  N2849  1  0.849900  0.366300  0.795600  1.0
  N  N2850  1  0.849900  0.633700  0.704400  1.0
  N  N2851  1  0.349900  0.866300  0.795600  1.0
  N  N2852  1  0.349900  0.133700  0.704400  1.0
  N  N2853  1  0.197500  0.445700  0.937300  1.0
  N  N2854  1  0.197500  0.554300  0.562700  1.0
  N  N2855  1  0.697500  0.945700  0.937300  1.0
  N  N2856  1  0.697500  0.054300  0.562700  1.0
  N  N2857  1  0.802500  0.554300  0.062700  1.0
  N  N2858  1  0.802500  0.445700  0.437300  1.0
  N  N2859  1  0.302500  0.054300  0.062700  1.0
  N  N2860  1  0.302500  0.945700  0.437300  1.0
  N  N2861  1  0.256000  0.534800  0.995800  1.0
  N  N2862  1  0.256000  0.465200  0.504200  1.0
  N  N2863  1  0.756000  0.034800  0.995800  1.0
  N  N2864  1  0.756000  0.965200  0.504200  1.0
  N  N2865  1  0.744000  0.465200  0.004200  1.0
  N  N2866  1  0.744000  0.534800  0.495800  1.0
  N  N2867  1  0.244000  0.965200  0.004200  1.0
  N  N2868  1  0.244000  0.034800  0.495800  1.0
  N  N2869  1  0.231000  0.506800  0.977900  1.0
  N  N2870  1  0.231000  0.493200  0.522100  1.0
  N  N2871  1  0.731000  0.006800  0.977900  1.0
  N  N2872  1  0.731000  0.993200  0.522100  1.0
  N  N2873  1  0.769000  0.493200  0.022100  1.0
  N  N2874  1  0.769000  0.506800  0.477900  1.0
  N  N2875  1  0.269000  0.993200  0.022100  1.0
  N  N2876  1  0.269000  0.006800  0.477900  1.0
  N  N2877  1  0.166200  0.451200  0.010200  1.0
  N  N2878  1  0.166200  0.548800  0.489800  1.0
  N  N2879  1  0.666200  0.951200  0.010200  1.0
  N  N2880  1  0.666200  0.048800  0.489800  1.0
  N  N2881  1  0.833800  0.548800  0.989800  1.0
  N  N2882  1  0.833800  0.451200  0.510200  1.0
  N  N2883  1  0.333800  0.048800  0.989800  1.0
  N  N2884  1  0.333800  0.951200  0.510200  1.0
  N  N2885  1  0.111300  0.561800  0.018500  1.0
  N  N2886  1  0.111300  0.438200  0.481500  1.0
  N  N2887  1  0.611300  0.061800  0.018500  1.0
  N  N2888  1  0.611300  0.938200  0.481500  1.0
  N  N2889  1  0.888700  0.438200  0.981500  1.0
  N  N2890  1  0.888700  0.561800  0.518500  1.0
  N  N2891  1  0.388700  0.938200  0.981500  1.0
  N  N2892  1  0.388700  0.061800  0.518500  1.0
  N  N2893  1  0.131200  0.525200  0.011000  1.0
  N  N2894  1  0.131200  0.474800  0.489000  1.0
  N  N2895  1  0.631200  0.025200  0.011000  1.0
  N  N2896  1  0.631200  0.974800  0.489000  1.0
  N  N2897  1  0.868800  0.474800  0.989000  1.0
  N  N2898  1  0.868800  0.525200  0.511000  1.0
  N  N2899  1  0.368800  0.974800  0.989000  1.0
  N  N2900  1  0.368800  0.025200  0.511000  1.0
  N  N2901  1  0.972800  0.768000  0.844500  1.0
  N  N2902  1  0.972800  0.232000  0.655500  1.0
  N  N2903  1  0.472800  0.268000  0.844500  1.0
  N  N2904  1  0.472800  0.732000  0.655500  1.0
  N  N2905  1  0.027200  0.232000  0.155500  1.0
  N  N2906  1  0.027200  0.768000  0.344500  1.0
  N  N2907  1  0.527200  0.732000  0.155500  1.0
  N  N2908  1  0.527200  0.268000  0.344500  1.0
  N  N2909  1  0.008000  0.650900  0.840100  1.0
  N  N2910  1  0.008000  0.349100  0.659900  1.0
  N  N2911  1  0.508000  0.150900  0.840100  1.0
  N  N2912  1  0.508000  0.849100  0.659900  1.0
  N  N2913  1  0.992000  0.349100  0.159900  1.0
  N  N2914  1  0.992000  0.650900  0.340100  1.0
  N  N2915  1  0.492000  0.849100  0.159900  1.0
  N  N2916  1  0.492000  0.150900  0.340100  1.0
  N  N2917  1  0.997000  0.691000  0.846800  1.0
  N  N2918  1  0.997000  0.309000  0.653200  1.0
  N  N2919  1  0.497000  0.191000  0.846800  1.0
  N  N2920  1  0.497000  0.809000  0.653200  1.0
  N  N2921  1  0.003000  0.309000  0.153200  1.0
  N  N2922  1  0.003000  0.691000  0.346800  1.0
  N  N2923  1  0.503000  0.809000  0.153200  1.0
  N  N2924  1  0.503000  0.191000  0.346800  1.0
  N  N2925  1  0.069700  0.921000  0.160900  1.0
  N  N2926  1  0.069700  0.079000  0.339100  1.0
  N  N2927  1  0.569700  0.421000  0.160900  1.0
  N  N2928  1  0.569700  0.579000  0.339100  1.0
  N  N2929  1  0.930300  0.079000  0.839100  1.0
  N  N2930  1  0.930300  0.921000  0.660900  1.0
  N  N2931  1  0.430300  0.579000  0.839100  1.0
  N  N2932  1  0.430300  0.421000  0.660900  1.0
  N  N2933  1  0.062700  0.813800  0.104800  1.0
  N  N2934  1  0.062700  0.186200  0.395200  1.0
  N  N2935  1  0.562700  0.313800  0.104800  1.0
  N  N2936  1  0.562700  0.686200  0.395200  1.0
  N  N2937  1  0.937300  0.186200  0.895200  1.0
  N  N2938  1  0.937300  0.813800  0.604800  1.0
  N  N2939  1  0.437300  0.686200  0.895200  1.0
  N  N2940  1  0.437300  0.313800  0.604800  1.0
  N  N2941  1  0.059100  0.851400  0.122000  1.0
  N  N2942  1  0.059100  0.148600  0.378000  1.0
  N  N2943  1  0.559100  0.351400  0.122000  1.0
  N  N2944  1  0.559100  0.648600  0.378000  1.0
  N  N2945  1  0.940900  0.148600  0.878000  1.0
  N  N2946  1  0.940900  0.851400  0.622000  1.0
  N  N2947  1  0.440900  0.648600  0.878000  1.0
  N  N2948  1  0.440900  0.351400  0.622000  1.0
  N  N2949  1  0.900500  0.703800  0.861700  1.0
  N  N2950  1  0.900500  0.296200  0.638300  1.0
  N  N2951  1  0.400500  0.203800  0.861700  1.0
  N  N2952  1  0.400500  0.796200  0.638300  1.0
  N  N2953  1  0.099500  0.296200  0.138300  1.0
  N  N2954  1  0.099500  0.703800  0.361700  1.0
  N  N2955  1  0.599500  0.796200  0.138300  1.0
  N  N2956  1  0.599500  0.203800  0.361700  1.0
  N  N2957  1  0.910700  0.806500  0.922500  1.0
  N  N2958  1  0.910700  0.193500  0.577500  1.0
  N  N2959  1  0.410700  0.306500  0.922500  1.0
  N  N2960  1  0.410700  0.693500  0.577500  1.0
  N  N2961  1  0.089300  0.193500  0.077500  1.0
  N  N2962  1  0.089300  0.806500  0.422500  1.0
  N  N2963  1  0.589300  0.693500  0.077500  1.0
  N  N2964  1  0.589300  0.306500  0.422500  1.0
  N  N2965  1  0.912600  0.769300  0.905000  1.0
  N  N2966  1  0.912600  0.230700  0.595000  1.0
  N  N2967  1  0.412600  0.269300  0.905000  1.0
  N  N2968  1  0.412600  0.730700  0.595000  1.0
  N  N2969  1  0.087400  0.230700  0.095000  1.0
  N  N2970  1  0.087400  0.769300  0.405000  1.0
  N  N2971  1  0.587400  0.730700  0.095000  1.0
  N  N2972  1  0.587400  0.269300  0.405000  1.0
  N  N2973  1  0.096400  0.467200  0.953200  1.0
  N  N2974  1  0.096400  0.532800  0.546800  1.0
  N  N2975  1  0.596400  0.967200  0.953200  1.0
  N  N2976  1  0.596400  0.032800  0.546800  1.0
  N  N2977  1  0.903600  0.532800  0.046800  1.0
  N  N2978  1  0.903600  0.467200  0.453200  1.0
  N  N2979  1  0.403600  0.032800  0.046800  1.0
  N  N2980  1  0.403600  0.967200  0.453200  1.0
  N  N2981  1  0.165800  0.551800  0.909700  1.0
  N  N2982  1  0.165800  0.448200  0.590300  1.0
  N  N2983  1  0.665800  0.051800  0.909700  1.0
  N  N2984  1  0.665800  0.948200  0.590300  1.0
  N  N2985  1  0.834200  0.448200  0.090300  1.0
  N  N2986  1  0.834200  0.551800  0.409700  1.0
  N  N2987  1  0.334200  0.948200  0.090300  1.0
  N  N2988  1  0.334200  0.051800  0.409700  1.0
  N  N2989  1  0.147500  0.523900  0.927900  1.0
  N  N2990  1  0.147500  0.476100  0.572100  1.0
  N  N2991  1  0.647500  0.023900  0.927900  1.0
  N  N2992  1  0.647500  0.976100  0.572100  1.0
  N  N2993  1  0.852500  0.476100  0.072100  1.0
  N  N2994  1  0.852500  0.523900  0.427900  1.0
  N  N2995  1  0.352500  0.976100  0.072100  1.0
  N  N2996  1  0.352500  0.023900  0.427900  1.0
  N  N2997  1  0.542800  0.622500  0.895400  1.0
  N  N2998  1  0.542800  0.377500  0.604600  1.0
  N  N2999  1  0.042800  0.122500  0.895400  1.0
  N  N3000  1  0.042800  0.877500  0.604600  1.0
  N  N3001  1  0.457200  0.377500  0.104600  1.0
  N  N3002  1  0.457200  0.622500  0.395400  1.0
  N  N3003  1  0.957200  0.877500  0.104600  1.0
  N  N3004  1  0.957200  0.122500  0.395400  1.0
  N  N3005  1  0.453700  0.541800  0.922000  1.0
  N  N3006  1  0.453700  0.458200  0.578000  1.0
  N  N3007  1  0.953700  0.041800  0.922000  1.0
  N  N3008  1  0.953700  0.958200  0.578000  1.0
  N  N3009  1  0.546300  0.458200  0.078000  1.0
  N  N3010  1  0.546300  0.541800  0.422000  1.0
  N  N3011  1  0.046300  0.958200  0.078000  1.0
  N  N3012  1  0.046300  0.041800  0.422000  1.0
  N  N3013  1  0.478400  0.571200  0.910300  1.0
  N  N3014  1  0.478400  0.428800  0.589700  1.0
  N  N3015  1  0.978400  0.071200  0.910300  1.0
  N  N3016  1  0.978400  0.928800  0.589700  1.0
  N  N3017  1  0.521600  0.428800  0.089700  1.0
  N  N3018  1  0.521600  0.571200  0.410300  1.0
  N  N3019  1  0.021600  0.928800  0.089700  1.0
  N  N3020  1  0.021600  0.071200  0.410300  1.0
  O  O3021  1  0.911000  0.926100  0.803200  1
  O  O3022  1  0.911000  0.073900  0.696800  1
  O  O3023  1  0.411000  0.426100  0.803200  1
  O  O3024  1  0.411000  0.573900  0.696800  1
  O  O3025  1  0.089000  0.073900  0.196800  1
  O  O3026  1  0.089000  0.926100  0.303200  1
  O  O3027  1  0.589000  0.573900  0.196800  1
  O  O3028  1  0.589000  0.426100  0.303200  1
  O  O3029  1  0.251700  0.777000  0.077500  1
  O  O3030  1  0.251700  0.223000  0.422500  1
  O  O3031  1  0.751700  0.277000  0.077500  1
  O  O3032  1  0.751700  0.723000  0.422500  1
  O  O3033  1  0.748300  0.223000  0.922500  1
  O  O3034  1  0.748300  0.777000  0.577500  1
  O  O3035  1  0.248300  0.723000  0.922500  1
  O  O3036  1  0.248300  0.277000  0.577500  1
  O  O3037  1  0.204200  0.654900  0.989400  1
  O  O3038  1  0.204200  0.345100  0.510600  1
  O  O3039  1  0.704200  0.154900  0.989400  1
  O  O3040  1  0.704200  0.845100  0.510600  1
  O  O3041  1  0.795800  0.345100  0.010600  1
  O  O3042  1  0.795800  0.654900  0.489400  1
  O  O3043  1  0.295800  0.845100  0.010600  1
  O  O3044  1  0.295800  0.154900  0.489400  1
  O  O3045  1  0.302800  0.582900  0.373600  1
  O  O3046  1  0.302800  0.417100  0.126400  1
  O  O3047  1  0.802800  0.082900  0.373600  1
  O  O3048  1  0.802800  0.917100  0.126400  1
  O  O3049  1  0.697200  0.417100  0.626400  1
  O  O3050  1  0.697200  0.582900  0.873600  1
  O  O3051  1  0.197200  0.917100  0.626400  1
  O  O3052  1  0.197200  0.082900  0.873600  1
  O  O3053  1  0.795200  0.851100  0.996700  1
  O  O3054  1  0.795200  0.148900  0.503300  1
  O  O3055  1  0.295200  0.351100  0.996700  1
  O  O3056  1  0.295200  0.648900  0.503300  1
  O  O3057  1  0.204800  0.148900  0.003300  1
  O  O3058  1  0.204800  0.851100  0.496700  1
  O  O3059  1  0.704800  0.648900  0.003300  1
  O  O3060  1  0.704800  0.351100  0.496700  1
  O  O3061  1  0.124400  0.355300  0.962700  1
  O  O3062  1  0.124400  0.644700  0.537300  1
  O  O3063  1  0.624400  0.855300  0.962700  1
  O  O3064  1  0.624400  0.144700  0.537300  1
  O  O3065  1  0.875600  0.644700  0.037300  1
  O  O3066  1  0.875600  0.355300  0.462700  1
  O  O3067  1  0.375600  0.144700  0.037300  1
  O  O3068  1  0.375600  0.855300  0.462700  1
  O  O3069  1  0.135400  0.707300  0.015900  1
  O  O3070  1  0.135400  0.292700  0.484100  1
  O  O3071  1  0.635400  0.207300  0.015900  1
  O  O3072  1  0.635400  0.792700  0.484100  1
  O  O3073  1  0.864600  0.292700  0.984100  1
  O  O3074  1  0.864600  0.707300  0.515900  1
  O  O3075  1  0.364600  0.792700  0.984100  1
  O  O3076  1  0.364600  0.207300  0.515900  1
  O  O3077  1  0.702900  0.755100  0.890800  1
  O  O3078  1  0.702900  0.244900  0.609200  1
  O  O3079  1  0.202900  0.255100  0.890800  1
  O  O3080  1  0.202900  0.744900  0.609200  1
  O  O3081  1  0.297100  0.244900  0.109200  1
  O  O3082  1  0.297100  0.755100  0.390800  1
  O  O3083  1  0.797100  0.744900  0.109200  1
  O  O3084  1  0.797100  0.255100  0.390800  1
  O  O3085  1  0.912000  0.767300  0.144500  1
  O  O3086  1  0.912000  0.232700  0.355500  1
  O  O3087  1  0.412000  0.267300  0.144500  1
  O  O3088  1  0.412000  0.732700  0.355500  1
  O  O3089  1  0.088000  0.232700  0.855500  1
  O  O3090  1  0.088000  0.767300  0.644500  1
  O  O3091  1  0.588000  0.732700  0.855500  1
  O  O3092  1  0.588000  0.267300  0.644500  1
  O  O3093  1  0.569300  0.427600  0.923300  1
  O  O3094  1  0.569300  0.572400  0.576700  1
  O  O3095  1  0.069300  0.927600  0.923300  1
  O  O3096  1  0.069300  0.072400  0.576700  1
  O  O3097  1  0.430700  0.572400  0.076700  1
  O  O3098  1  0.430700  0.427600  0.423300  1
  O  O3099  1  0.930700  0.072400  0.076700  1
  O  O3100  1  0.930700  0.927600  0.423300  1
  O  O3101  1  0.268000  0.659400  0.406500  1
  O  O3102  1  0.268000  0.340600  0.093500  1
  O  O3103  1  0.768000  0.159400  0.406500  1
  O  O3104  1  0.768000  0.840600  0.093500  1
  O  O3105  1  0.732000  0.340600  0.593500  1
  O  O3106  1  0.732000  0.659400  0.906500  1
  O  O3107  1  0.232000  0.840600  0.593500  1
  O  O3108  1  0.232000  0.159400  0.906500  1
  O  O3109  1  0.258700  0.801700  0.260400  1
  O  O3110  1  0.258700  0.198300  0.239600  1
  O  O3111  1  0.758700  0.301700  0.260400  1
  O  O3112  1  0.758700  0.698300  0.239600  1
  O  O3113  1  0.741300  0.198300  0.739600  1
  O  O3114  1  0.741300  0.801700  0.760400  1
  O  O3115  1  0.241300  0.698300  0.739600  1
  O  O3116  1  0.241300  0.301700  0.760400  1
  O  O3117  1  0.042400  0.572100  0.269600  1
  O  O3118  1  0.042400  0.427900  0.230400  1
  O  O3119  1  0.542400  0.072100  0.269600  1
  O  O3120  1  0.542400  0.927900  0.230400  1
  O  O3121  1  0.957600  0.427900  0.730400  1
  O  O3122  1  0.957600  0.572100  0.769600  1
  O  O3123  1  0.457600  0.927900  0.730400  1
  O  O3124  1  0.457600  0.072100  0.769600  1
  O  O3125  1  0.502300  0.390400  0.891800  1
  O  O3126  1  0.502300  0.609600  0.608200  1
  O  O3127  1  0.002300  0.890400  0.891800  1
  O  O3128  1  0.002300  0.109600  0.608200  1
  O  O3129  1  0.497700  0.609600  0.108200  1
  O  O3130  1  0.497700  0.390400  0.391800  1
  O  O3131  1  0.997700  0.109600  0.108200  1
  O  O3132  1  0.997700  0.890400  0.391800  1
  O  O3133  1  0.319000  0.557500  0.437000  1
  O  O3134  1  0.319000  0.442500  0.063000  1
  O  O3135  1  0.819000  0.057500  0.437000  1
  O  O3136  1  0.819000  0.942500  0.063000  1
  O  O3137  1  0.681000  0.442500  0.563000  1
  O  O3138  1  0.681000  0.557500  0.937000  1
  O  O3139  1  0.181000  0.942500  0.563000  1
  O  O3140  1  0.181000  0.057500  0.937000  1
  O  O3141  1  0.063700  0.588500  0.301900  1
  O  O3142  1  0.063700  0.411500  0.198100  1
  O  O3143  1  0.563700  0.088500  0.301900  1
  O  O3144  1  0.563700  0.911500  0.198100  1
  O  O3145  1  0.936300  0.411500  0.698100  1
  O  O3146  1  0.936300  0.588500  0.801900  1
  O  O3147  1  0.436300  0.911500  0.698100  1
  O  O3148  1  0.436300  0.088500  0.801900  1
  F  F3149  1  0.846700  0.029800  0.238100  1
  F  F3150  1  0.846700  0.970200  0.261900  1
  F  F3151  1  0.346700  0.529800  0.238100  1
  F  F3152  1  0.346700  0.470200  0.261900  1
  F  F3153  1  0.153300  0.970200  0.761900  1
  F  F3154  1  0.153300  0.029800  0.738100  1
  F  F3155  1  0.653300  0.470200  0.761900  1
  F  F3156  1  0.653300  0.529800  0.738100  1
  F  F3157  1  0.812400  0.974300  0.214900  1
  F  F3158  1  0.812400  0.025700  0.285100  1
  F  F3159  1  0.312400  0.474300  0.214900  1
  F  F3160  1  0.312400  0.525700  0.285100  1
  F  F3161  1  0.187600  0.025700  0.785100  1
  F  F3162  1  0.187600  0.974300  0.714900  1
  F  F3163  1  0.687600  0.525700  0.785100  1
  F  F3164  1  0.687600  0.474300  0.714900  1
  F  F3165  1  0.847000  0.968600  0.258700  1
  F  F3166  1  0.847000  0.031400  0.241300  1
  F  F3167  1  0.347000  0.468600  0.258700  1
  F  F3168  1  0.347000  0.531400  0.241300  1
  F  F3169  1  0.153000  0.031400  0.741300  1
  F  F3170  1  0.153000  0.968600  0.758700  1
  F  F3171  1  0.653000  0.531400  0.741300  1
  F  F3172  1  0.653000  0.468600  0.758700  1
  F  F3173  1  0.780100  0.000000  0.250000  1
  F  F3174  1  0.280100  0.500000  0.250000  1
  F  F3175  1  0.219900  0.000000  0.750000  1
  F  F3176  1  0.719900  0.500000  0.750000  1
