
#######################################################################
#
#                 Cambridge Crystallographic Data Centre
#                                CCDC 
#
#######################################################################
#
# If this CIF has been generated from an entry in the Cambridge 
# Structural Database, then it will include bibliographic, chemical, 
# crystal, experimental, refinement or atomic coordinate data resulting 
# from the CCDC's data processing and validation procedures.
#
#######################################################################

data_BEZNOM
_chemical_formula_moiety         
'C336 H264 Co8 N72 16+,12(C1 H4 O1),B1 F4 1-,16(H2 O1),15(I1 1-)'
_chemical_name_systematic        
"dodecakis(\m-2,2'-[naphthalene-1,5-diylbis(methylene-1H-pyrazole-1,3-diyl)]dipyridine)-octa-cobalt(ii) pentadecaiodide tetrafluoroborate methanol unknown solvate hexadecahydrate"
_symmetry_cell_setting           monoclinic
_symmetry_space_group_name_H-M   'C 2/c'
_symmetry_Int_Tables_number      15
_space_group_name_Hall           '-C 2yn'
loop_
_symmetry_equiv_pos_site_id
_symmetry_equiv_pos_as_xyz
1 x,y,z
2 -x,y,1/2-z
3 1/2+x,1/2+y,z
4 1/2-x,1/2+y,1/2-z
5 -x,-y,-z
6 x,-y,1/2+z
7 1/2-x,1/2-y,-z
8 1/2+x,1/2-y,1/2+z
_cell_length_a                   32.939(3)
_cell_length_b                   29.973(2)
_cell_length_c                   40.400(3)
_cell_angle_alpha                90
_cell_angle_beta                 96.126(3)
_cell_angle_gamma                90
_cell_volume                     39658.4
_exptl_crystal_colour            orange
_exptl_crystal_description       block
_cell_formula_units_Z            4
_chemical_properties_physical    Deliquescent
_exptl_crystal_recrystallization_method methanol/water
loop_
_atom_site_label
_atom_site_type_symbol
_atom_site_fract_x
_atom_site_fract_y
_atom_site_fract_z
Co1 Co 0.51032(4) 0.83804(5) 1.03016(4)
Co2 Co 0.09975(4) 0.98826(5) 0.86516(4)
Co3 Co 0.35309(4) 0.78435(5) 0.77550(3)
Co4 Co 0.22951(5) 0.46253(5) 0.88321(4)
N1 N 0.1939(3) 0.4589(3) 0.9242(2)
C1 C 0.2014(3) 0.4918(3) 0.9472(3)
C2 C 0.1844(3) 0.4926(4) 0.9770(3)
H1 H 0.1891 0.5170 0.9918
C3 C 0.1607(4) 0.4576(4) 0.9846(3)
H2 H 0.1493 0.4568 1.0052
C4 C 0.1537(4) 0.4236(5) 0.9622(3)
H3 H 0.1371 0.3990 0.9670
C5 C 0.1709(4) 0.4255(4) 0.9326(3)
H4 H 0.1660 0.4014 0.9174
N2 N 0.2768(3) 0.5563(3) 0.9129(2)
N3 N 0.2507(3) 0.5211(3) 0.9117(2)
C6 C 0.2301(3) 0.5270(3) 0.9383(3)
C7 C 0.2433(3) 0.5655(4) 0.9561(3)
H5 H 0.2337 0.5768 0.9758
C8 C 0.2727(4) 0.5829(4) 0.9388(3)
H6 H 0.2878 0.6094 0.9443
C9 C 0.3037(3) 0.5651(4) 0.8871(3)
H7 H 0.3115 0.5365 0.8773
H8 H 0.3289 0.5798 0.8972
N4 N 0.3990(3) 0.7956(3) 0.7409(2)
C10 C 0.3978(3) 0.7666(4) 0.7154(2)
C11 C 0.4250(4) 0.7702(5) 0.6911(3)
H9 H 0.4241 0.7492 0.6734
C12 C 0.4528(4) 0.8045(5) 0.6931(3)
H10 H 0.4711 0.8076 0.6766
C13 C 0.4542(3) 0.8343(4) 0.7193(3)
H11 H 0.4733 0.8582 0.7211
C14 C 0.4270(4) 0.8286(4) 0.7427(3)
H12 H 0.4281 0.8487 0.7609
N5 N 0.3164(3) 0.6979(3) 0.7325(2)
N6 N 0.3428(3) 0.7316(3) 0.7400(2)
C15 C 0.3670(3) 0.7327(4) 0.7151(3)
C16 C 0.3550(4) 0.6989(4) 0.6916(3)
H13 H 0.3668 0.6923 0.6717
C17 C 0.3230(4) 0.6776(4) 0.7038(3)
H14 H 0.3081 0.6531 0.6938
C18 C 0.2895(4) 0.6828(3) 0.7564(3)
H15 H 0.2660 0.6671 0.7444
H16 H 0.2789 0.7092 0.7675
C19 C 0.2829(4) 0.5948(3) 0.8597(3)
C20 C 0.2442(3) 0.6091(4) 0.8607(3)
H17 H 0.2295 0.6003 0.8787
C21 C 0.2254(4) 0.6370(4) 0.8356(3)
H18 H 0.1981 0.6466 0.8366
C22 C 0.2460(3) 0.6502(4) 0.8100(3)
H19 H 0.2327 0.6687 0.7931
C23 C 0.2874(3) 0.6367(3) 0.8081(3)
C24 C 0.3060(3) 0.6079(3) 0.8337(3)
C25 C 0.3469(3) 0.5944(4) 0.8314(3)
H20 H 0.3600 0.5750 0.8477
C26 C 0.3675(3) 0.6088(4) 0.8062(3)
H21 H 0.3946 0.5987 0.8048
C27 C 0.3494(4) 0.6384(4) 0.7821(3)
H22 H 0.3649 0.6491 0.7651
C28 C 0.3100(3) 0.6520(3) 0.7827(3)
N7 N 0.3927(3) 0.7441(3) 0.8076(2)
C29 C 0.3770(3) 0.7298(3) 0.8357(3)
C30 C 0.3993(3) 0.7039(3) 0.8587(2)
H23 H 0.3877 0.6937 0.8779
C31 C 0.4386(4) 0.6927(4) 0.8539(3)
H24 H 0.4548 0.6758 0.8703
C32 C 0.4545(4) 0.7059(4) 0.8256(3)
H25 H 0.4814 0.6976 0.8216
C33 C 0.4307(4) 0.7311(4) 0.8033(3)
H26 H 0.4417 0.7400 0.7835
N8 N 0.2754(3) 0.7688(3) 0.8229(2)
N9 N 0.3138(3) 0.7644(3) 0.8133(2)
C34 C 0.3349(3) 0.7409(3) 0.8380(2)
C35 C 0.3093(4) 0.7303(4) 0.8629(3)
H27 H 0.3163 0.7139 0.8828
C36 C 0.2724(4) 0.7485(4) 0.8519(3)
H28 H 0.2485 0.7471 0.8631
C37 C 0.2442(3) 0.7950(3) 0.8050(3)
H29 H 0.2172 0.7828 0.8090
H30 H 0.2468 0.7928 0.7809
N10 N 0.0472(3) 1.0286(3) 0.8468(2)
C38 C 0.0523(3) 1.0530(4) 0.8196(3)
C39 C 0.0223(4) 1.0816(4) 0.8052(3)
H31 H 0.0262 1.0979 0.7857
C40 C -0.0141(4) 1.0860(5) 0.8206(4)
H32 H -0.0352 1.1054 0.8114
C41 C -0.0189(4) 1.0619(4) 0.8487(3)
H33 H -0.0431 1.0645 0.8593
C42 C 0.0124(4) 1.0338(4) 0.8612(3)
H34 H 0.0092 1.0173 0.8809
N11 N 0.1523(3) 1.0241(3) 0.8054(2)
N12 N 0.1186(3) 1.0199(3) 0.8214(2)
C43 C 0.0915(3) 1.0495(3) 0.8068(3)
C44 C 0.1089(4) 1.0721(4) 0.7816(3)
H35 H 0.0963 1.0945 0.7674
C45 C 0.1469(4) 1.0558(4) 0.7815(3)
H36 H 0.1665 1.0649 0.7672
C46 C 0.1886(3) 0.9977(3) 0.8144(3)
H37 H 0.1938 0.9967 0.8390
H38 H 0.2121 1.0127 0.8059
C47 C 0.2462(3) 0.8448(4) 0.8154(3)
C48 C 0.2770(3) 0.8589(4) 0.8376(3)
H39 H 0.2970 0.8383 0.8468
C49 C 0.2796(4) 0.9044(4) 0.8472(3)
H40 H 0.3015 0.9140 0.8627
C50 C 0.2514(3) 0.9340(4) 0.8348(3)
H41 H 0.2545 0.9645 0.8410
C51 C 0.2177(3) 0.9212(3) 0.8128(2)
C52 C 0.2155(3) 0.8747(3) 0.8021(2)
C53 C 0.1825(3) 0.8611(4) 0.7792(3)
H42 H 0.1807 0.8312 0.7716
C54 C 0.1533(3) 0.8911(4) 0.7682(3)
H43 H 0.1314 0.8818 0.7525
C55 C 0.1542(3) 0.9358(3) 0.7794(3)
H44 H 0.1328 0.9557 0.7716
C56 C 0.1859(3) 0.9507(3) 0.8014(3)
N13 N 0.3088(3) 0.8269(3) 0.7480(2)
C57 C 0.3105(3) 0.8702(4) 0.7567(3)
C58 C 0.2817(4) 0.9005(4) 0.7420(3)
H45 H 0.2837 0.9311 0.7480
C59 C 0.2515(4) 0.8874(5) 0.7197(3)
H46 H 0.2315 0.9078 0.7102
C60 C 0.2502(4) 0.8424(5) 0.7109(3)
H47 H 0.2292 0.8316 0.6949
C61 C 0.2793(4) 0.8135(4) 0.7256(3)
H48 H 0.2782 0.7830 0.7193
N14 N 0.3969(3) 0.8712(3) 0.8157(2)
N15 N 0.3663(3) 0.8499(3) 0.7956(2)
C62 C 0.3439(4) 0.8824(3) 0.7811(3)
C63 C 0.3594(4) 0.9251(4) 0.7920(3)
H49 H 0.3490 0.9536 0.7853
C64 C 0.3917(5) 0.9158(4) 0.8138(4)
H50 H 0.4084 0.9373 0.8261
C65 C 0.4267(4) 0.8463(4) 0.8373(3)
H51 H 0.4518 0.8644 0.8418
H52 H 0.4339 0.8187 0.8257
N16 N 0.5543(3) 0.8025(3) 1.0627(3)
C66 C 0.5523(4) 0.7573(4) 1.0605(3)
C67 C 0.5819(4) 0.7312(5) 1.0786(4)
H53 H 0.5811 0.6997 1.0763
C68 C 0.6110(5) 0.7500(6) 1.0990(4)
H54 H 0.6306 0.7318 1.1117
C69 C 0.6133(4) 0.7958(6) 1.1020(4)
H55 H 0.6343 0.8097 1.1164
C70 C 0.5839(4) 0.8207(5) 1.0834(3)
H56 H 0.5848 0.8523 1.0855
N17 N 0.4652(3) 0.7440(3) 1.0042(2)
N18 N 0.4932(3) 0.7690(3) 1.0221(2)
C71 C 0.5187(4) 0.7406(4) 1.0387(3)
C72 C 0.5074(4) 0.6961(4) 1.0302(3)
H57 H 0.5207 0.6694 1.0379
C73 C 0.4735(4) 0.7002(4) 1.0087(4)
H58 H 0.4579 0.6763 0.9984
C74 C 0.4344(3) 0.7638(4) 0.9812(3)
H59 H 0.4259 0.7925 0.9905
H60 H 0.4103 0.7440 0.9785
C75 C 0.4113(3) 0.8340(4) 0.8698(3)
C76 C 0.3750(3) 0.8490(4) 0.8789(3)
H61 H 0.3590 0.8684 0.8642
C77 C 0.3604(4) 0.8376(4) 0.9080(3)
H62 H 0.3343 0.8476 0.9127
C78 C 0.3835(3) 0.8120(4) 0.9305(3)
H63 H 0.3732 0.8041 0.9508
C79 C 0.4226(3) 0.7968(3) 0.9241(3)
C80 C 0.4366(3) 0.8075(4) 0.8928(3)
C81 C 0.4758(4) 0.7918(4) 0.8862(3)
H64 H 0.4855 0.7989 0.8655
C82 C 0.4996(4) 0.7669(4) 0.9087(3)
H65 H 0.5250 0.7559 0.9031
C83 C 0.4871(3) 0.7572(4) 0.9401(3)
H66 H 0.5044 0.7408 0.9561
C84 C 0.4483(3) 0.7723(4) 0.9476(3)
N19 N 0.5488(3) 0.8338(3) 0.9898(3)
C85 C 0.5349(3) 0.8549(3) 0.9617(3)
C86 C 0.5554(4) 0.8542(4) 0.9331(3)
H67 H 0.5449 0.8700 0.9136
C87 C 0.5915(4) 0.8301(4) 0.9337(4)
H68 H 0.6061 0.8288 0.9147
C88 C 0.6055(4) 0.8082(5) 0.9626(4)
H69 H 0.6299 0.7911 0.9637
C89 C 0.5837(4) 0.8113(4) 0.9906(4)
H70 H 0.5941 0.7968 1.0106
N20 N 0.4382(3) 0.8887(3) 0.9815(2)
N21 N 0.4748(2) 0.8688(3) 0.9890(2)
C90 C 0.4955(3) 0.8749(3) 0.9622(3)
C91 C 0.4715(3) 0.8990(3) 0.9381(3)
H71 H 0.4787 0.9082 0.9170
C92 C 0.4354(4) 0.9069(3) 0.9508(3)
H72 H 0.4126 0.9224 0.9400
C93 C 0.4079(3) 0.8883(3) 1.0047(3)
H73 H 0.4097 0.8597 1.0171
H74 H 0.3804 0.8901 0.9922
N22 N 0.2320(3) 1.0272(3) 1.1555(2)
C94 C 0.2478(4) 1.0037(4) 1.1817(3)
C95 C 0.2264(4) 0.9928(4) 1.2077(3)
H75 H 0.2391 0.9762 1.2260
C96 C 0.1856(4) 1.0062(4) 1.2071(3)
H76 H 0.1697 0.9983 1.2245
C97 C 0.1699(4) 1.0307(5) 1.1812(4)
H77 H 0.1429 1.0418 1.1806
C98 C 0.1929(4) 1.0400(5) 1.1550(3)
H78 H 0.1805 1.0558 1.1362
N23 N 0.3491(3) 0.9920(3) 1.1599(2)
N24 N 0.3090(3) 1.0030(3) 1.1532(2)
C99 C 0.2912(4) 0.9928(4) 1.1805(3)
C100 C 0.3190(5) 0.9741(5) 1.2046(3)
H79 H 0.3139 0.9637 1.2260
C101 C 0.3558(4) 0.9736(5) 1.1909(3)
H80 H 0.3811 0.9625 1.2012
C102 C 0.3777(4) 0.9950(4) 1.1348(3)
H81 H 0.3733 1.0237 1.1228
H82 H 0.4059 0.9952 1.1461
C103 C 0.4135(3) 0.9270(3) 1.0294(3)
C104 C 0.4386(4) 0.9625(3) 1.0256(3)
H83 H 0.4535 0.9636 1.0067
C105 C 0.4430(3) 0.9975(3) 1.0490(3)
H84 H 0.4606 1.0218 1.0457
C106 C 0.4223(3) 0.9967(3) 1.0763(3)
H85 H 0.4261 1.0201 1.0922
C107 C 0.3946(3) 0.9607(4) 1.0816(3)
C108 C 0.3903(3) 0.9251(3) 1.0580(3)
C109 C 0.3644(3) 0.8888(3) 1.0636(3)
H86 H 0.3603 0.8657 1.0475
C110 C 0.3455(3) 0.8869(4) 1.0914(3)
H87 H 0.3286 0.8620 1.0949
C111 C 0.3501(3) 0.9201(4) 1.1150(3)
H88 H 0.3371 0.9174 1.1348
C112 C 0.3736(3) 0.9579(4) 1.1101(3)
N25 N 0.0790(3) 0.9303(3) 0.8391(2)
C113 C 0.1015(4) 0.8928(4) 0.8448(3)
C114 C 0.0901(4) 0.8516(4) 0.8311(3)
H89 H 0.1064 0.8259 0.8363
C115 C 0.0553(4) 0.8491(5) 0.8100(4)
H90 H 0.0467 0.8215 0.8001
C116 C 0.0326(4) 0.8871(5) 0.8032(3)
H91 H 0.0081 0.8860 0.7884
C117 C 0.0454(4) 0.9268(4) 0.8177(3)
H92 H 0.0297 0.9529 0.8124
N26 N 0.1862(3) 0.9373(3) 0.8952(2)
N27 N 0.1486(3) 0.9409(3) 0.8780(2)
C118 C 0.1397(4) 0.8999(3) 0.8660(3)
C119 C 0.1716(4) 0.8706(4) 0.8764(3)
H93 H 0.1730 0.8396 0.8716
C120 C 0.2000(4) 0.8954(4) 0.8946(3)
H94 H 0.2253 0.8848 0.9053
C121 C 0.2043(3) 0.9738(4) 0.9151(3)
H95 H 0.1971 1.0024 0.9037
H96 H 0.2344 0.9708 0.9172
N28 N 0.2962(3) 1.0995(3) 1.1383(2)
C122 C 0.2764(4) 1.1368(4) 1.1279(3)
C123 C 0.2909(5) 1.1787(4) 1.1354(4)
H97 H 0.2757 1.2042 1.1277
C124 C 0.3271(5) 1.1834(4) 1.1540(3)
H98 H 0.3379 1.2123 1.1590
C125 C 0.3486(4) 1.1457(4) 1.1660(3)
H99 H 0.3736 1.1479 1.1799
C126 C 0.3316(4) 1.1047(4) 1.1565(3)
H100 H 0.3464 1.0786 1.1637
N29 N 0.1935(3) 1.0893(4) 1.0775(3)
N30 N 0.2307(3) 1.0874(3) 1.0950(2)
C127 C 0.2381(4) 1.1298(4) 1.1073(3)
C128 C 0.2054(5) 1.1569(5) 1.0967(4)
H101 H 0.2029 1.1878 1.1013
C129 C 0.1774(5) 1.1307(5) 1.0782(4)
H102 H 0.1515 1.1399 1.0678
C130 C 0.1782(4) 1.0516(4) 1.0568(3)
H103 H 0.1847 1.0234 1.0690
H104 H 0.1481 1.0537 1.0523
C131 C 0.1900(3) 0.9749(3) 0.9498(3)
C132 C 0.1663(3) 0.9415(3) 0.9601(3)
H105 H 0.1597 0.9167 0.9459
C133 C 0.1511(3) 0.9433(4) 0.9919(3)
H106 H 0.1348 0.9197 0.9990
C134 C 0.1601(3) 0.9795(4) 1.0121(3)
H107 H 0.1489 0.9815 1.0328
C135 C 0.1856(3) 1.0135(4) 1.0028(3)
C136 C 0.2018(3) 1.0116(3) 0.9714(3)
C137 C 0.2283(3) 1.0455(4) 0.9625(3)
H108 H 0.2395 1.0445 0.9418
C138 C 0.2379(4) 1.0806(4) 0.9850(4)
H109 H 0.2556 1.1036 0.9792
C139 C 0.2227(4) 1.0824(4) 1.0146(3)
H110 H 0.2304 1.1065 1.0292
C140 C 0.1966(4) 1.0505(4) 1.0244(3)
N31 N 0.5328(3) 0.9036(3) 1.0468(2)
C141 C 0.5192(3) 0.9177(3) 1.0755(3)
C142 C 0.5334(4) 0.9564(4) 1.0906(3)
H111 H 0.5237 0.9658 1.1108
C143 C 0.5619(4) 0.9817(4) 1.0763(3)
H112 H 0.5722 1.0085 1.0865
C144 C 0.5751(4) 0.9673(4) 1.0469(3)
H113 H 0.5945 0.9842 1.0363
C145 C 0.5596(3) 0.9274(4) 1.0329(3)
H114 H 0.5688 0.9172 1.0127
N32 N 0.4482(3) 0.8342(3) 1.0903(2)
N33 N 0.4761(3) 0.8525(3) 1.0721(2)
C146 C 0.4889(3) 0.8899(4) 1.0888(3)
C147 C 0.4696(4) 0.8941(4) 1.1178(3)
H115 H 0.4733 0.9170 1.1341
C148 C 0.4442(4) 0.8583(4) 1.1176(3)
H116 H 0.4266 0.8515 1.1341
C149 C 0.4283(3) 0.7917(3) 1.0810(3)
H117 H 0.4250 0.7890 1.0565
H118 H 0.4007 0.7915 1.0887
N34 N 0.3775(3) 0.4572(3) 1.1046(2)
C150 C 0.3916(3) 0.4541(3) 1.0744(3)
C151 C 0.3796(4) 0.4198(4) 1.0530(3)
H119 H 0.3888 0.4188 1.0315
C152 C 0.3540(4) 0.3867(4) 1.0627(4)
H120 H 0.3461 0.3626 1.0481
C153 C 0.3404(4) 0.3889(4) 1.0929(4)
H121 H 0.3233 0.3662 1.1002
C154 C 0.3520(4) 0.4250(4) 1.1133(3)
H122 H 0.3416 0.4272 1.1343
N35 N 0.4582(3) 0.5463(3) 1.0780(2)
N36 N 0.4288(3) 0.5216(3) 1.0897(2)
C155 C 0.4209(4) 0.4897(3) 1.0674(3)
C156 C 0.4441(4) 0.4940(4) 1.0414(3)
H123 H 0.4434 0.4756 1.0222
C157 C 0.4685(4) 0.5301(4) 1.0487(3)
H124 H 0.4886 0.5417 1.0359
C158 C 0.4738(4) 0.5874(3) 1.0943(3)
H125 H 0.4742 0.5839 1.1187
H126 H 0.5023 0.5922 1.0893
C159 C 0.4519(3) 0.7521(3) 1.0957(3)
C160 C 0.4852(3) 0.7563(4) 1.1182(3)
H127 H 0.4941 0.7852 1.1254
C161 C 0.5069(4) 0.7184(4) 1.1311(3)
H128 H 0.5296 0.7218 1.1475
C162 C 0.4951(3) 0.6771(4) 1.1201(3)
H129 H 0.5105 0.6519 1.1282
C163 C 0.4605(3) 0.6707(3) 1.0969(3)
C164 C 0.4379(3) 0.7088(3) 1.0851(3)
C165 C 0.4029(3) 0.7030(4) 1.0618(3)
H130 H 0.3867 0.7281 1.0547
C166 C 0.3924(3) 0.6624(4) 1.0497(3)
H131 H 0.3688 0.6592 1.0342
C167 C 0.4160(3) 0.6240(3) 1.0597(3)
H132 H 0.4089 0.5958 1.0499
C168 C 0.4491(3) 0.6275(4) 1.0836(3)
Co1F Co -0.01032(4) 0.66196(5) 0.96984(4)
Co2F Co 0.40025(4) 0.51174(5) 1.13484(4)
Co3F Co 0.14691(4) 0.71565(5) 1.22450(3)
Co4F Co 0.27049(5) 1.03747(5) 1.11679(4)
N1F N 0.3061(3) 1.0411(3) 1.0758(2)
C1F C 0.2986(3) 1.0082(3) 1.0528(3)
C2F C 0.3156(3) 1.0074(4) 1.0230(3)
H1F H 0.3109 0.9830 1.0082
C3F C 0.3393(4) 1.0424(4) 1.0154(3)
H2F H 0.3507 1.0432 0.9948
C4F C 0.3463(4) 1.0764(5) 1.0378(3)
H3F H 0.3629 1.1010 1.0330
C5F C 0.3291(4) 1.0745(4) 1.0674(3)
H4F H 0.3340 1.0986 1.0826
N2F N 0.2232(3) 0.9437(3) 1.0871(2)
N3F N 0.2493(3) 0.9789(3) 1.0883(2)
C6F C 0.2699(3) 0.9730(3) 1.0617(3)
C7F C 0.2567(3) 0.9345(4) 1.0439(3)
H5F H 0.2663 0.9232 1.0242
C8F C 0.2273(4) 0.9171(4) 1.0612(3)
H6F H 0.2122 0.8906 1.0557
C9F C 0.1963(3) 0.9349(4) 1.1129(3)
H7F H 0.1885 0.9635 1.1227
H8F H 0.1711 0.9202 1.1028
N4F N 0.1010(3) 0.7044(3) 1.2591(2)
C10F C 0.1022(3) 0.7334(4) 1.2846(2)
C11F C 0.0750(4) 0.7298(5) 1.3089(3)
H9F H 0.0759 0.7508 1.3266
C12F C 0.0472(4) 0.6955(5) 1.3069(3)
H10F H 0.0289 0.6924 1.3234
C13F C 0.0458(3) 0.6657(4) 1.2807(3)
H11F H 0.0267 0.6418 1.2789
C14F C 0.0730(4) 0.6714(4) 1.2573(3)
H12F H 0.0719 0.6513 1.2391
N5F N 0.1836(3) 0.8021(3) 1.2675(2)
N6F N 0.1572(3) 0.7684(3) 1.2600(2)
C15F C 0.1330(3) 0.7673(4) 1.2849(3)
C16F C 0.1450(4) 0.8011(4) 1.3084(3)
H13F H 0.1332 0.8077 1.3283
C17F C 0.1770(4) 0.8224(4) 1.2962(3)
H14F H 0.1919 0.8469 1.3062
C18F C 0.2105(4) 0.8172(3) 1.2436(3)
H15F H 0.2340 0.8329 1.2556
H16F H 0.2211 0.7908 1.2325
C19F C 0.2171(4) 0.9052(3) 1.1403(3)
C20F C 0.2558(3) 0.8909(4) 1.1393(3)
H17F H 0.2705 0.8997 1.1213
C21F C 0.2746(4) 0.8630(4) 1.1644(3)
H18F H 0.3019 0.8534 1.1634
C22F C 0.2540(3) 0.8498(4) 1.1900(3)
H19F H 0.2673 0.8313 1.2069
C23F C 0.2126(3) 0.8633(3) 1.1919(3)
C24F C 0.1940(3) 0.8921(3) 1.1663(3)
C25F C 0.1531(3) 0.9056(4) 1.1686(3)
H20F H 0.1400 0.9250 1.1523
C26F C 0.1325(3) 0.8912(4) 1.1938(3)
H21F H 0.1054 0.9013 1.1952
C27F C 0.1506(4) 0.8616(4) 1.2179(3)
H22F H 0.1351 0.8509 1.2349
C28F C 0.1900(3) 0.8480(3) 1.2173(3)
N7F N 0.1073(3) 0.7559(3) 1.1924(2)
C29F C 0.1230(3) 0.7702(3) 1.1643(3)
C30F C 0.1007(3) 0.7961(3) 1.1413(2)
H23F H 0.1123 0.8063 1.1221
C31F C 0.0614(4) 0.8073(4) 1.1461(3)
H24F H 0.0452 0.8242 1.1297
C32F C 0.0455(4) 0.7941(4) 1.1744(3)
H25F H 0.0186 0.8024 1.1784
C33F C 0.0693(4) 0.7689(4) 1.1967(3)
H26F H 0.0583 0.7600 1.2165
N8F N 0.2246(3) 0.7312(3) 1.1771(2)
N9F N 0.1862(3) 0.7356(3) 1.1867(2)
C34F C 0.1651(3) 0.7591(3) 1.1620(2)
C35F C 0.1907(4) 0.7697(4) 1.1371(3)
H27F H 0.1837 0.7861 1.1172
C36F C 0.2276(4) 0.7515(4) 1.1481(3)
H28F H 0.2515 0.7529 1.1369
C37F C 0.2558(3) 0.7050(3) 1.1950(3)
H29F H 0.2828 0.7172 1.1910
H30F H 0.2532 0.7072 1.2191
N10F N 0.4528(3) 0.4714(3) 1.1532(2)
C38F C 0.4477(3) 0.4470(4) 1.1804(3)
C39F C 0.4777(4) 0.4184(4) 1.1948(3)
H31F H 0.4738 0.4021 1.2143
C40F C 0.5141(4) 0.4140(5) 1.1794(4)
H32F H 0.5352 0.3946 1.1886
C41F C 0.5189(4) 0.4381(4) 1.1513(3)
H33F H 0.5431 0.4355 1.1407
C42F C 0.4876(4) 0.4662(4) 1.1388(3)
H34F H 0.4908 0.4827 1.1191
N11F N 0.3477(3) 0.4759(3) 1.1946(2)
N12F N 0.3814(3) 0.4801(3) 1.1786(2)
C43F C 0.4085(3) 0.4505(3) 1.1932(3)
C44F C 0.3911(4) 0.4279(4) 1.2184(3)
H35F H 0.4037 0.4055 1.2326
C45F C 0.3531(4) 0.4442(4) 1.2185(3)
H36F H 0.3335 0.4351 1.2328
C46F C 0.3114(3) 0.5023(3) 1.1856(3)
H37F H 0.3062 0.5033 1.1610
H38F H 0.2879 0.4873 1.1941
C47F C 0.2538(3) 0.6552(4) 1.1846(3)
C48F C 0.2230(3) 0.6411(4) 1.1624(3)
H39F H 0.2030 0.6617 1.1532
C49F C 0.2204(4) 0.5956(4) 1.1528(3)
H40F H 0.1985 0.5860 1.1373
C50F C 0.2486(3) 0.5660(4) 1.1652(3)
H41F H 0.2455 0.5355 1.1590
C51F C 0.2823(3) 0.5788(3) 1.1872(2)
C52F C 0.2845(3) 0.6253(3) 1.1979(2)
C53F C 0.3175(3) 0.6389(4) 1.2208(3)
H42F H 0.3193 0.6688 1.2284
C54F C 0.3467(3) 0.6089(4) 1.2318(3)
H43F H 0.3686 0.6182 1.2475
C55F C 0.3458(3) 0.5642(3) 1.2206(3)
H44F H 0.3672 0.5443 1.2284
C56F C 0.3141(3) 0.5493(3) 1.1986(3)
N13F N 0.1912(3) 0.6731(3) 1.2520(2)
C57F C 0.1895(3) 0.6298(4) 1.2433(3)
C58F C 0.2183(4) 0.5995(4) 1.2580(3)
H45F H 0.2163 0.5689 1.2520
C59F C 0.2485(4) 0.6126(5) 1.2803(3)
H46F H 0.2685 0.5922 1.2898
C60F C 0.2498(4) 0.6576(5) 1.2891(3)
H47F H 0.2708 0.6684 1.3051
C61F C 0.2207(4) 0.6865(4) 1.2744(3)
H48F H 0.2218 0.7170 1.2807
N14F N 0.1031(3) 0.6288(3) 1.1843(2)
N15F N 0.1337(3) 0.6501(3) 1.2044(2)
C62F C 0.1561(4) 0.6176(3) 1.2189(3)
C63F C 0.1406(4) 0.5749(4) 1.2080(3)
H49F H 0.1510 0.5464 1.2147
C64F C 0.1083(5) 0.5842(4) 1.1862(4)
H50F H 0.0916 0.5627 1.1739
C65F C 0.0733(4) 0.6537(4) 1.1627(3)
H51F H 0.0482 0.6356 1.1582
H52F H 0.0661 0.6813 1.1743
N16F N -0.0543(3) 0.6975(3) 0.9373(3)
C66F C -0.0523(4) 0.7427(4) 0.9395(3)
C67F C -0.0819(4) 0.7688(5) 0.9214(4)
H53F H -0.0811 0.8003 0.9237
C68F C -0.1110(5) 0.7500(6) 0.9010(4)
H54F H -0.1306 0.7682 0.8883
C69F C -0.1133(4) 0.7042(6) 0.8980(4)
H55F H -0.1343 0.6903 0.8836
C70F C -0.0839(4) 0.6793(5) 0.9166(3)
H56F H -0.0848 0.6477 0.9145
N17F N 0.0348(3) 0.7560(3) 0.9958(2)
N18F N 0.0068(3) 0.7310(3) 0.9779(2)
C71F C -0.0187(4) 0.7594(4) 0.9613(3)
C72F C -0.0074(4) 0.8039(4) 0.9698(3)
H57F H -0.0207 0.8306 0.9621
C73F C 0.0265(4) 0.7998(4) 0.9913(4)
H58F H 0.0421 0.8237 1.0016
C74F C 0.0656(3) 0.7362(4) 1.0188(3)
H59F H 0.0741 0.7075 1.0095
H60F H 0.0897 0.7560 1.0215
C75F C 0.0887(3) 0.6660(4) 1.1302(3)
C76F C 0.1250(3) 0.6510(4) 1.1211(3)
H61F H 0.1410 0.6316 1.1358
C77F C 0.1396(4) 0.6624(4) 1.0920(3)
H62F H 0.1657 0.6524 1.0873
C78F C 0.1165(3) 0.6880(4) 1.0695(3)
H63F H 0.1268 0.6959 1.0492
C79F C 0.0774(3) 0.7032(3) 1.0759(3)
C80F C 0.0634(3) 0.6925(4) 1.1072(3)
C81F C 0.0242(4) 0.7082(4) 1.1138(3)
H64F H 0.0145 0.7011 1.1345
C82F C 0.0004(4) 0.7331(4) 1.0913(3)
H65F H -0.0250 0.7441 1.0969
C83F C 0.0129(3) 0.7428(4) 1.0599(3)
H66F H -0.0044 0.7592 1.0439
C84F C 0.0517(3) 0.7277(4) 1.0524(3)
N19F N -0.0488(3) 0.6662(3) 1.0102(3)
C85F C -0.0349(3) 0.6451(3) 1.0383(3)
C86F C -0.0554(4) 0.6458(4) 1.0669(3)
H67F H -0.0449 0.6300 1.0864
C87F C -0.0915(4) 0.6699(4) 1.0663(4)
H68F H -0.1061 0.6712 1.0853
C88F C -0.1055(4) 0.6918(5) 1.0374(4)
H69F H -0.1299 0.7089 1.0363
C89F C -0.0837(4) 0.6887(4) 1.0094(4)
H70F H -0.0941 0.7032 0.9894
N20F N 0.0618(3) 0.6113(3) 1.0185(2)
N21F N 0.0252(2) 0.6312(3) 1.0110(2)
C90F C 0.0045(3) 0.6251(3) 1.0378(3)
C91F C 0.0285(3) 0.6010(3) 1.0619(3)
H71F H 0.0213 0.5918 1.0830
C92F C 0.0646(4) 0.5931(3) 1.0492(3)
H72F H 0.0874 0.5776 1.0600
C93F C 0.0921(3) 0.6117(3) 0.9953(3)
H73F H 0.0903 0.6403 0.9829
H74F H 0.1196 0.6099 1.0078
N22F N 0.2680(3) 0.4728(3) 0.8445(2)
C94F C 0.2522(4) 0.4963(4) 0.8183(3)
C95F C 0.2736(4) 0.5072(4) 0.7923(3)
H75F H 0.2609 0.5238 0.7740
C96F C 0.3144(4) 0.4938(4) 0.7929(3)
H76F H 0.3303 0.5017 0.7755
C97F C 0.3301(4) 0.4693(5) 0.8188(4)
H77F H 0.3571 0.4582 0.8194
C98F C 0.3071(4) 0.4600(5) 0.8450(3)
H78F H 0.3195 0.4442 0.8638
N23F N 0.1509(3) 0.5080(3) 0.8401(2)
N24F N 0.1910(3) 0.4970(3) 0.8468(2)
C99F C 0.2088(4) 0.5072(4) 0.8195(3)
C100F C 0.1810(5) 0.5259(5) 0.7954(3)
H79F H 0.1861 0.5363 0.7740
C101F C 0.1442(4) 0.5264(5) 0.8091(3)
H80F H 0.1189 0.5375 0.7988
C102F C 0.1223(4) 0.5050(4) 0.8652(3)
H81F H 0.1267 0.4763 0.8772
H82F H 0.0941 0.5048 0.8539
C103F C 0.0865(3) 0.5730(3) 0.9706(3)
C104F C 0.0614(4) 0.5375(3) 0.9744(3)
H83F H 0.0465 0.5364 0.9933
C105F C 0.0570(3) 0.5025(3) 0.9510(3)
H84F H 0.0394 0.4782 0.9543
C106F C 0.0777(3) 0.5033(3) 0.9237(3)
H85F H 0.0739 0.4799 0.9078
C107F C 0.1054(3) 0.5393(4) 0.9184(3)
C108F C 0.1097(3) 0.5749(3) 0.9420(3)
C109F C 0.1356(3) 0.6112(3) 0.9364(3)
H86F H 0.1397 0.6343 0.9525
C110F C 0.1545(3) 0.6131(4) 0.9086(3)
H87F H 0.1714 0.6380 0.9051
C111F C 0.1499(3) 0.5799(4) 0.8850(3)
H88F H 0.1629 0.5826 0.8652
C112F C 0.1264(3) 0.5421(4) 0.8899(3)
N25F N 0.4210(3) 0.5697(3) 1.1609(2)
C113F C 0.3985(4) 0.6072(4) 1.1552(3)
C114F C 0.4099(4) 0.6484(4) 1.1689(3)
H89F H 0.3936 0.6741 1.1637
C115F C 0.4447(4) 0.6509(5) 1.1900(4)
H90F H 0.4533 0.6785 1.1999
C116F C 0.4674(4) 0.6129(5) 1.1968(3)
H91F H 0.4919 0.6140 1.2116
C117F C 0.4546(4) 0.5732(4) 1.1823(3)
H92F H 0.4703 0.5471 1.1876
N26F N 0.3138(3) 0.5627(3) 1.1048(2)
N27F N 0.3514(3) 0.5591(3) 1.1220(2)
C118F C 0.3603(4) 0.6001(3) 1.1340(3)
C119F C 0.3284(4) 0.6294(4) 1.1236(3)
H93F H 0.3270 0.6604 1.1284
C120F C 0.3000(4) 0.6046(4) 1.1054(3)
H94F H 0.2747 0.6152 1.0947
C121F C 0.2957(3) 0.5262(4) 1.0849(3)
H95F H 0.3029 0.4976 1.0963
H96F H 0.2656 0.5292 1.0828
N28F N 0.2038(3) 0.4005(3) 0.8617(2)
C122F C 0.2236(4) 0.3632(4) 0.8721(3)
C123F C 0.2091(5) 0.3213(4) 0.8646(4)
H97F H 0.2243 0.2958 0.8723
C124F C 0.1729(5) 0.3166(4) 0.8460(3)
H98F H 0.1621 0.2877 0.8410
C125F C 0.1514(4) 0.3543(4) 0.8340(3)
H99F H 0.1264 0.3521 0.8201
C126F C 0.1684(4) 0.3953(4) 0.8435(3)
H100F H 0.1536 0.4214 0.8363
N29F N 0.3065(3) 0.4107(4) 0.9225(3)
N30F N 0.2693(3) 0.4126(3) 0.9050(2)
C127F C 0.2619(4) 0.3702(4) 0.8927(3)
C128F C 0.2946(5) 0.3431(5) 0.9033(4)
H101F H 0.2971 0.3122 0.8987
C129F C 0.3226(5) 0.3693(5) 0.9218(4)
H102F H 0.3485 0.3601 0.9322
C130F C 0.3218(4) 0.4484(4) 0.9432(3)
H103F H 0.3153 0.4766 0.9310
H104F H 0.3519 0.4463 0.9477
C131F C 0.3100(3) 0.5251(3) 1.0502(3)
C132F C 0.3337(3) 0.5585(3) 1.0399(3)
H105F H 0.3403 0.5833 1.0541
C133F C 0.3489(3) 0.5567(4) 1.0081(3)
H106F H 0.3652 0.5803 1.0010
C134F C 0.3399(3) 0.5205(4) 0.9879(3)
H107F H 0.3511 0.5185 0.9672
C135F C 0.3144(3) 0.4865(4) 0.9972(3)
C136F C 0.2982(3) 0.4884(3) 1.0286(3)
C137F C 0.2717(3) 0.4545(4) 1.0375(3)
H108F H 0.2605 0.4555 1.0582
C138F C 0.2621(4) 0.4194(4) 1.0150(4)
H109F H 0.2444 0.3964 1.0208
C139F C 0.2773(4) 0.4176(4) 0.9854(3)
H110F H 0.2696 0.3935 0.9708
C140F C 0.3034(4) 0.4495(4) 0.9756(3)
N31F N -0.0328(3) 0.5964(3) 0.9532(2)
C141F C -0.0192(3) 0.5823(3) 0.9245(3)
C142F C -0.0334(4) 0.5436(4) 0.9094(3)
H111F H -0.0237 0.5342 0.8892
C143F C -0.0619(4) 0.5183(4) 0.9237(3)
H112F H -0.0722 0.4915 0.9135
C144F C -0.0751(4) 0.5327(4) 0.9531(3)
H113F H -0.0945 0.5158 0.9637
C145F C -0.0596(3) 0.5726(4) 0.9671(3)
H114F H -0.0688 0.5828 0.9873
N32F N 0.0518(3) 0.6658(3) 0.9097(2)
N33F N 0.0239(3) 0.6475(3) 0.9279(2)
C146F C 0.0111(3) 0.6101(4) 0.9112(3)
C147F C 0.0304(4) 0.6059(4) 0.8822(3)
H115F H 0.0267 0.5830 0.8659
C148F C 0.0558(4) 0.6417(4) 0.8824(3)
H116F H 0.0734 0.6485 0.8659
C149F C 0.0717(3) 0.7083(3) 0.9190(3)
H117F H 0.0750 0.7110 0.9435
H118F H 0.0993 0.7085 0.9113
N34F N 0.1225(3) 1.0428(3) 0.8954(2)
C150F C 0.1084(3) 1.0459(3) 0.9256(3)
C151F C 0.1204(4) 1.0802(4) 0.9470(3)
H119F H 0.1112 1.0812 0.9685
C152F C 0.1460(4) 1.1133(4) 0.9373(4)
H120F H 0.1539 1.1374 0.9519
C153F C 0.1596(4) 1.1111(4) 0.9071(4)
H121F H 0.1767 1.1338 0.8998
C154F C 0.1480(4) 1.0750(4) 0.8867(3)
H122F H 0.1584 1.0728 0.8657
N35F N 0.0418(3) 0.9537(3) 0.9220(2)
N36F N 0.0712(3) 0.9784(3) 0.9103(2)
C155F C 0.0791(4) 1.0103(3) 0.9326(3)
C156F C 0.0559(4) 1.0060(4) 0.9586(3)
H123F H 0.0566 1.0244 0.9778
C157F C 0.0315(4) 0.9699(4) 0.9513(3)
H124F H 0.0114 0.9583 0.9641
C158F C 0.0262(4) 0.9126(3) 0.9057(3)
H125F H 0.0258 0.9161 0.8813
H126F H -0.0023 0.9078 0.9107
C159F C 0.0481(3) 0.7479(3) 0.9043(3)
C160F C 0.0148(3) 0.7437(4) 0.8818(3)
H127F H 0.0059 0.7148 0.8746
C161F C -0.0069(4) 0.7816(4) 0.8689(3)
H128F H -0.0296 0.7782 0.8525
C162F C 0.0049(3) 0.8229(4) 0.8799(3)
H129F H -0.0105 0.8481 0.8718
C163F C 0.0395(3) 0.8293(3) 0.9031(3)
C164F C 0.0621(3) 0.7912(3) 0.9149(3)
C165F C 0.0971(3) 0.7970(4) 0.9382(3)
H130F H 0.1133 0.7719 0.9453
C166F C 0.1076(3) 0.8376(4) 0.9503(3)
H131F H 0.1312 0.8408 0.9658
C167F C 0.0840(3) 0.8760(3) 0.9403(3)
H132F H 0.0911 0.9042 0.9501
C168F C 0.0509(3) 0.8725(4) 0.9164(3)
I1 I 0.62849(3) 0.34256(3) 0.05461(2)
I2 I 0.85025(3) 0.26478(3) 0.14651(3)
I3 I 0.07005(3) 0.09097(3) 0.03667(2)
I4 I 0.67695(3) 0.04525(4) 0.06263(3)
I5 I 0.22713(4) 0.42228(4) 0.21724(3)
I6 I 0.49154(13) 0.0587(2) 0.14895(5)
I7 I 0.21313(6) 0.26900(7) 0.16037(5)
I8 I 0.05832(11) 0.02560(12) 0.22205(8)
O1 O 0.0739(3) 0.0890(4) 0.1968(2)
I9 I 0.2229(2) 0.3027(2) 0.9788(3)
O2 O 0.2230(6) 0.7483(6) 0.9225(4)
H133 H 0.2277 0.7640 0.9397
C169 C 0.2391(6) 0.7051(5) 0.9288(4)
H134 H 0.2651 0.7073 0.9430
H135 H 0.2438 0.6909 0.9077
H136 H 0.2198 0.6873 0.9400
O3 O 0.3451(3) 0.7958(3) 0.0106(3)
H137 H 0.3700 0.7912 0.0091
C170 C 0.3230(5) 0.7589(6) -0.0005(4)
H138 H 0.3043 0.7507 0.0158
H139 H 0.3417 0.7340 -0.0033
H140 H 0.3073 0.7656 -0.0219
O4 O 0.4171(5) 0.6972(5) 0.6264(3)
H141 H 0.4332 0.7139 0.6173
C171 C 0.4389(5) 0.6580(7) 0.6395(6)
H142 H 0.4632 0.6671 0.6540
H143 H 0.4472 0.6401 0.6210
H144 H 0.4211 0.6402 0.6522
O5 O 0.1489(6) 0.2048(5) 1.0033(4)
H145 H 0.1608 0.2030 0.9860
C172 C 0.1066(6) 0.1897(7) 0.9961(5)
H146 H 0.1054 0.1573 0.9987
H147 H 0.0964 0.1978 0.9732
H148 H 0.0897 0.2040 1.0116
O6 O 0.6447(4) 0.8756(5) 0.0373(3)
H149 H 0.6499 0.8891 0.0200
C173 C 0.6650(6) 0.8974(7) 0.0659(4)
H150 H 0.6792 0.9239 0.0589
H151 H 0.6848 0.8769 0.0776
H152 H 0.6448 0.9063 0.0808
O7 O 0.2927(5) 0.8646(5) 0.9841(4)
C174 C 0.2522(6) 0.8465(8) 0.9735(6)
O8 O 0.2449(4) 0.2971(4) 0.1092(3)
O9 O 0.2327(6) 0.0880(6) 0.8555(5)
O10 O 0.5724(6) 0.4307(7) 0.0767(5)
O11 O 0.3406(8) 0.7320(9) 0.5935(6)
O12 O 0.1983(6) 0.7413(6) 0.7396(5)
O13 O 0.4279(10) 0.9576(11) 0.7304(8)
O14 O 0.6096(7) 0.4977(8) 0.1082(6)
O15 O 0.4425(6) 0.6810(7) 0.5630(5)
loop_
_geom_bond_atom_site_label_1
_geom_bond_atom_site_label_2
_geom_bond_site_symmetry_1
_geom_bond_site_symmetry_2
Co1 N16 1_555 1_555
Co2 N10 1_555 1_555
Co3 N4 1_555 1_555
Co4 N1 1_555 1_555
N1 C1 1_555 1_555
C1 C2 1_555 1_555
C2 H1 1_555 1_555
C3 C2 1_555 1_555
H2 C3 1_555 1_555
C4 C3 1_555 1_555
H3 C4 1_555 1_555
C5 N1 1_555 1_555
H4 C5 1_555 1_555
N2 N3 1_555 1_555
N3 Co4 1_555 1_555
C6 C1 1_555 1_555
C7 C6 1_555 1_555
H5 C7 1_555 1_555
C8 N2 1_555 1_555
H6 C8 1_555 1_555
C9 N2 1_555 1_555
H7 C9 1_555 1_555
H8 C9 1_555 1_555
N4 C10 1_555 1_555
C10 C11 1_555 1_555
C11 H9 1_555 1_555
C12 C11 1_555 1_555
H10 C12 1_555 1_555
C13 C12 1_555 1_555
H11 C13 1_555 1_555
C14 N4 1_555 1_555
H12 C14 1_555 1_555
N5 N6 1_555 1_555
N6 Co3 1_555 1_555
C15 C10 1_555 1_555
C16 C15 1_555 1_555
H13 C16 1_555 1_555
C17 N5 1_555 1_555
H14 C17 1_555 1_555
C18 N5 1_555 1_555
H15 C18 1_555 1_555
H16 C18 1_555 1_555
C19 C9 1_555 1_555
C20 C19 1_555 1_555
H17 C20 1_555 1_555
C21 C20 1_555 1_555
H18 C21 1_555 1_555
C22 C21 1_555 1_555
H19 C22 1_555 1_555
C23 C22 1_555 1_555
C24 C19 1_555 1_555
C25 C24 1_555 1_555
H20 C25 1_555 1_555
C26 C25 1_555 1_555
H21 C26 1_555 1_555
C27 C26 1_555 1_555
H22 C27 1_555 1_555
C28 C18 1_555 1_555
N7 Co3 1_555 1_555
C29 N7 1_555 1_555
C30 C29 1_555 1_555
H23 C30 1_555 1_555
C31 C30 1_555 1_555
H24 C31 1_555 1_555
C32 C31 1_555 1_555
H25 C32 1_555 1_555
C33 N7 1_555 1_555
H26 C33 1_555 1_555
N8 N9 1_555 1_555
N9 Co3 1_555 1_555
C34 C29 1_555 1_555
C35 C34 1_555 1_555
H27 C35 1_555 1_555
C36 N8 1_555 1_555
H28 C36 1_555 1_555
C37 N8 1_555 1_555
H29 C37 1_555 1_555
H30 C37 1_555 1_555
N10 C38 1_555 1_555
C38 C39 1_555 1_555
C39 H31 1_555 1_555
C40 C39 1_555 1_555
H32 C40 1_555 1_555
C41 C40 1_555 1_555
H33 C41 1_555 1_555
C42 N10 1_555 1_555
H34 C42 1_555 1_555
N11 N12 1_555 1_555
N12 Co2 1_555 1_555
C43 C38 1_555 1_555
C44 C43 1_555 1_555
H35 C44 1_555 1_555
C45 N11 1_555 1_555
H36 C45 1_555 1_555
C46 N11 1_555 1_555
H37 C46 1_555 1_555
H38 C46 1_555 1_555
C47 C37 1_555 1_555
C48 C47 1_555 1_555
H39 C48 1_555 1_555
C49 C48 1_555 1_555
H40 C49 1_555 1_555
C50 C49 1_555 1_555
H41 C50 1_555 1_555
C51 C50 1_555 1_555
C52 C47 1_555 1_555
C53 C52 1_555 1_555
H42 C53 1_555 1_555
C54 C53 1_555 1_555
H43 C54 1_555 1_555
C55 C54 1_555 1_555
H44 C55 1_555 1_555
C56 C46 1_555 1_555
N13 Co3 1_555 1_555
C57 N13 1_555 1_555
C58 C57 1_555 1_555
H45 C58 1_555 1_555
C59 C58 1_555 1_555
H46 C59 1_555 1_555
C60 C59 1_555 1_555
H47 C60 1_555 1_555
C61 N13 1_555 1_555
H48 C61 1_555 1_555
N14 N15 1_555 1_555
N15 Co3 1_555 1_555
C62 C57 1_555 1_555
C63 C62 1_555 1_555
H49 C63 1_555 1_555
C64 N14 1_555 1_555
H50 C64 1_555 1_555
C65 N14 1_555 1_555
H51 C65 1_555 1_555
H52 C65 1_555 1_555
N16 C66 1_555 1_555
C66 C67 1_555 1_555
C67 H53 1_555 1_555
C68 C67 1_555 1_555
H54 C68 1_555 1_555
C69 C68 1_555 1_555
H55 C69 1_555 1_555
C70 N16 1_555 1_555
H56 C70 1_555 1_555
N17 N18 1_555 1_555
N18 Co1 1_555 1_555
C71 C66 1_555 1_555
C72 C71 1_555 1_555
H57 C72 1_555 1_555
C73 N17 1_555 1_555
H58 C73 1_555 1_555
C74 N17 1_555 1_555
H59 C74 1_555 1_555
H60 C74 1_555 1_555
C75 C65 1_555 1_555
C76 C75 1_555 1_555
H61 C76 1_555 1_555
C77 C76 1_555 1_555
H62 C77 1_555 1_555
C78 C77 1_555 1_555
H63 C78 1_555 1_555
C79 C78 1_555 1_555
C80 C75 1_555 1_555
C81 C80 1_555 1_555
H64 C81 1_555 1_555
C82 C81 1_555 1_555
H65 C82 1_555 1_555
C83 C82 1_555 1_555
H66 C83 1_555 1_555
C84 C74 1_555 1_555
N19 Co1 1_555 1_555
C85 N19 1_555 1_555
C86 C85 1_555 1_555
H67 C86 1_555 1_555
C87 C86 1_555 1_555
H68 C87 1_555 1_555
C88 C87 1_555 1_555
H69 C88 1_555 1_555
C89 N19 1_555 1_555
H70 C89 1_555 1_555
N20 N21 1_555 1_555
N21 Co1 1_555 1_555
C90 C85 1_555 1_555
C91 C90 1_555 1_555
H71 C91 1_555 1_555
C92 N20 1_555 1_555
H72 C92 1_555 1_555
C93 N20 1_555 1_555
H73 C93 1_555 1_555
H74 C93 1_555 1_555
N22 C94 1_555 1_555
C94 C95 1_555 1_555
C95 H75 1_555 1_555
C96 C95 1_555 1_555
H76 C96 1_555 1_555
C97 C96 1_555 1_555
H77 C97 1_555 1_555
C98 N22 1_555 1_555
H78 C98 1_555 1_555
N23 N24 1_555 1_555
N24 C99 1_555 1_555
C99 C94 1_555 1_555
C100 C99 1_555 1_555
H79 C100 1_555 1_555
C101 N23 1_555 1_555
H80 C101 1_555 1_555
C102 N23 1_555 1_555
H81 C102 1_555 1_555
H82 C102 1_555 1_555
C103 C93 1_555 1_555
C104 C103 1_555 1_555
H83 C104 1_555 1_555
C105 C104 1_555 1_555
H84 C105 1_555 1_555
C106 C105 1_555 1_555
H85 C106 1_555 1_555
C107 C106 1_555 1_555
C108 C103 1_555 1_555
C109 C108 1_555 1_555
H86 C109 1_555 1_555
C110 C109 1_555 1_555
H87 C110 1_555 1_555
C111 C110 1_555 1_555
H88 C111 1_555 1_555
C112 C102 1_555 1_555
N25 Co2 1_555 1_555
C113 N25 1_555 1_555
C114 C113 1_555 1_555
H89 C114 1_555 1_555
C115 C114 1_555 1_555
H90 C115 1_555 1_555
C116 C115 1_555 1_555
H91 C116 1_555 1_555
C117 N25 1_555 1_555
H92 C117 1_555 1_555
N26 N27 1_555 1_555
N27 Co2 1_555 1_555
C118 C113 1_555 1_555
C119 C118 1_555 1_555
H93 C119 1_555 1_555
C120 N26 1_555 1_555
H94 C120 1_555 1_555
C121 N26 1_555 1_555
H95 C121 1_555 1_555
H96 C121 1_555 1_555
N28 C122 1_555 1_555
C122 C123 1_555 1_555
C123 H97 1_555 1_555
C124 C123 1_555 1_555
H98 C124 1_555 1_555
C125 C124 1_555 1_555
H99 C125 1_555 1_555
C126 N28 1_555 1_555
H100 C126 1_555 1_555
N29 N30 1_555 1_555
N30 C127 1_555 1_555
C127 C122 1_555 1_555
C128 C127 1_555 1_555
H101 C128 1_555 1_555
C129 N29 1_555 1_555
H102 C129 1_555 1_555
C130 N29 1_555 1_555
H103 C130 1_555 1_555
H104 C130 1_555 1_555
C131 C121 1_555 1_555
C132 C131 1_555 1_555
H105 C132 1_555 1_555
C133 C132 1_555 1_555
H106 C133 1_555 1_555
C134 C133 1_555 1_555
H107 C134 1_555 1_555
C135 C134 1_555 1_555
C136 C131 1_555 1_555
C137 C136 1_555 1_555
H108 C137 1_555 1_555
C138 C137 1_555 1_555
H109 C138 1_555 1_555
C139 C138 1_555 1_555
H110 C139 1_555 1_555
C140 C130 1_555 1_555
N31 Co1 1_555 1_555
C141 N31 1_555 1_555
C142 C141 1_555 1_555
H111 C142 1_555 1_555
C143 C142 1_555 1_555
H112 C143 1_555 1_555
C144 C143 1_555 1_555
H113 C144 1_555 1_555
C145 N31 1_555 1_555
H114 C145 1_555 1_555
N32 N33 1_555 1_555
N33 Co1 1_555 1_555
C146 C141 1_555 1_555
C147 C146 1_555 1_555
H115 C147 1_555 1_555
C148 N32 1_555 1_555
H116 C148 1_555 1_555
C149 N32 1_555 1_555
H117 C149 1_555 1_555
H118 C149 1_555 1_555
N34 C150 1_555 1_555
C150 C151 1_555 1_555
C151 H119 1_555 1_555
C152 C151 1_555 1_555
H120 C152 1_555 1_555
C153 C152 1_555 1_555
H121 C153 1_555 1_555
C154 N34 1_555 1_555
H122 C154 1_555 1_555
N35 N36 1_555 1_555
N36 C155 1_555 1_555
C155 C150 1_555 1_555
C156 C155 1_555 1_555
H123 C156 1_555 1_555
C157 N35 1_555 1_555
H124 C157 1_555 1_555
C158 N35 1_555 1_555
H125 C158 1_555 1_555
H126 C158 1_555 1_555
C159 C149 1_555 1_555
C160 C159 1_555 1_555
H127 C160 1_555 1_555
C161 C160 1_555 1_555
H128 C161 1_555 1_555
C162 C161 1_555 1_555
H129 C162 1_555 1_555
C163 C162 1_555 1_555
C164 C159 1_555 1_555
C165 C164 1_555 1_555
H130 C165 1_555 1_555
C166 C165 1_555 1_555
H131 C166 1_555 1_555
C167 C166 1_555 1_555
H132 C167 1_555 1_555
C168 C158 1_555 1_555
O2 H133 1_555 1_555
C169 O2 1_555 1_555
H134 C169 1_555 1_555
H135 C169 1_555 1_555
H136 C169 1_555 1_555
O3 H137 1_555 1_555
C170 O3 1_555 1_555
H138 C170 1_555 1_555
H139 C170 1_555 1_555
H140 C170 1_555 1_555
O4 H141 1_555 1_555
C171 O4 1_555 1_555
H142 C171 1_555 1_555
H143 C171 1_555 1_555
H144 C171 1_555 1_555
O5 H145 1_555 1_555
C172 O5 1_555 1_555
H146 C172 1_555 1_555
H147 C172 1_555 1_555
H148 C172 1_555 1_555
O6 H149 1_555 1_555
C173 O6 1_555 1_555
H150 C173 1_555 1_555
H151 C173 1_555 1_555
H152 C173 1_555 1_555
O7 C174 1_555 1_555
Co1F N16F 1_555 1_555
Co2F N34 1_555 1_555
Co3F N4F 1_555 1_555
Co4F N22 1_555 1_555
N1F Co4F 1_555 1_555
C1F N1F 1_555 1_555
C2F C1F 1_555 1_555
H1F C2F 1_555 1_555
C3F C2F 1_555 1_555
H2F C3F 1_555 1_555
C4F C3F 1_555 1_555
H3F C4F 1_555 1_555
C5F N1F 1_555 1_555
H4F C5F 1_555 1_555
N2F N3F 1_555 1_555
N3F Co4F 1_555 1_555
C6F C1F 1_555 1_555
C7F C6F 1_555 1_555
H5F C7F 1_555 1_555
C8F N2F 1_555 1_555
H6F C8F 1_555 1_555
C9F N2F 1_555 1_555
H7F C9F 1_555 1_555
H8F C9F 1_555 1_555
N4F C10F 1_555 1_555
C10F C11F 1_555 1_555
C11F H9F 1_555 1_555
C12F C11F 1_555 1_555
H10F C12F 1_555 1_555
C13F C12F 1_555 1_555
H11F C13F 1_555 1_555
C14F N4F 1_555 1_555
H12F C14F 1_555 1_555
N5F N6F 1_555 1_555
N6F Co3F 1_555 1_555
C15F C10F 1_555 1_555
C16F C15F 1_555 1_555
H13F C16F 1_555 1_555
C17F N5F 1_555 1_555
H14F C17F 1_555 1_555
C18F N5F 1_555 1_555
H15F C18F 1_555 1_555
H16F C18F 1_555 1_555
C19F C9F 1_555 1_555
C20F C19F 1_555 1_555
H17F C20F 1_555 1_555
C21F C20F 1_555 1_555
H18F C21F 1_555 1_555
C22F C21F 1_555 1_555
H19F C22F 1_555 1_555
C23F C22F 1_555 1_555
C24F C19F 1_555 1_555
C25F C24F 1_555 1_555
H20F C25F 1_555 1_555
C26F C25F 1_555 1_555
H21F C26F 1_555 1_555
C27F C26F 1_555 1_555
H22F C27F 1_555 1_555
C28F C18F 1_555 1_555
N7F Co3F 1_555 1_555
C29F N7F 1_555 1_555
C30F C29F 1_555 1_555
H23F C30F 1_555 1_555
C31F C30F 1_555 1_555
H24F C31F 1_555 1_555
C32F C31F 1_555 1_555
H25F C32F 1_555 1_555
C33F N7F 1_555 1_555
H26F C33F 1_555 1_555
N8F N9F 1_555 1_555
N9F Co3F 1_555 1_555
C34F C29F 1_555 1_555
C35F C34F 1_555 1_555
H27F C35F 1_555 1_555
C36F N8F 1_555 1_555
H28F C36F 1_555 1_555
C37F N8F 1_555 1_555
H29F C37F 1_555 1_555
H30F C37F 1_555 1_555
N10F Co2F 1_555 1_555
C38F N10F 1_555 1_555
C39F C38F 1_555 1_555
H31F C39F 1_555 1_555
C40F C39F 1_555 1_555
H32F C40F 1_555 1_555
C41F C40F 1_555 1_555
H33F C41F 1_555 1_555
C42F N10F 1_555 1_555
H34F C42F 1_555 1_555
N11F N12F 1_555 1_555
N12F Co2F 1_555 1_555
C43F C38F 1_555 1_555
C44F C43F 1_555 1_555
H35F C44F 1_555 1_555
C45F N11F 1_555 1_555
H36F C45F 1_555 1_555
C46F N11F 1_555 1_555
H37F C46F 1_555 1_555
H38F C46F 1_555 1_555
C47F C37F 1_555 1_555
C48F C47F 1_555 1_555
H39F C48F 1_555 1_555
C49F C48F 1_555 1_555
H40F C49F 1_555 1_555
C50F C49F 1_555 1_555
H41F C50F 1_555 1_555
C51F C50F 1_555 1_555
C52F C47F 1_555 1_555
C53F C52F 1_555 1_555
H42F C53F 1_555 1_555
C54F C53F 1_555 1_555
H43F C54F 1_555 1_555
C55F C54F 1_555 1_555
H44F C55F 1_555 1_555
C56F C46F 1_555 1_555
N13F Co3F 1_555 1_555
C57F N13F 1_555 1_555
C58F C57F 1_555 1_555
H45F C58F 1_555 1_555
C59F C58F 1_555 1_555
H46F C59F 1_555 1_555
C60F C59F 1_555 1_555
H47F C60F 1_555 1_555
C61F N13F 1_555 1_555
H48F C61F 1_555 1_555
N14F N15F 1_555 1_555
N15F Co3F 1_555 1_555
C62F C57F 1_555 1_555
C63F C62F 1_555 1_555
H49F C63F 1_555 1_555
C64F N14F 1_555 1_555
H50F C64F 1_555 1_555
C65F N14F 1_555 1_555
H51F C65F 1_555 1_555
H52F C65F 1_555 1_555
N16F C66F 1_555 1_555
C66F C67F 1_555 1_555
C67F H53F 1_555 1_555
C68F C67F 1_555 1_555
H54F C68F 1_555 1_555
C69F C68F 1_555 1_555
H55F C69F 1_555 1_555
C70F N16F 1_555 1_555
H56F C70F 1_555 1_555
N17F N18F 1_555 1_555
N18F Co1F 1_555 1_555
C71F C66F 1_555 1_555
C72F C71F 1_555 1_555
H57F C72F 1_555 1_555
C73F N17F 1_555 1_555
H58F C73F 1_555 1_555
C74F N17F 1_555 1_555
H59F C74F 1_555 1_555
H60F C74F 1_555 1_555
C75F C65F 1_555 1_555
C76F C75F 1_555 1_555
H61F C76F 1_555 1_555
C77F C76F 1_555 1_555
H62F C77F 1_555 1_555
C78F C77F 1_555 1_555
H63F C78F 1_555 1_555
C79F C78F 1_555 1_555
C80F C75F 1_555 1_555
C81F C80F 1_555 1_555
H64F C81F 1_555 1_555
C82F C81F 1_555 1_555
H65F C82F 1_555 1_555
C83F C82F 1_555 1_555
H66F C83F 1_555 1_555
C84F C74F 1_555 1_555
N19F Co1F 1_555 1_555
C85F N19F 1_555 1_555
C86F C85F 1_555 1_555
H67F C86F 1_555 1_555
C87F C86F 1_555 1_555
H68F C87F 1_555 1_555
C88F C87F 1_555 1_555
H69F C88F 1_555 1_555
C89F N19F 1_555 1_555
H70F C89F 1_555 1_555
N20F N21F 1_555 1_555
N21F Co1F 1_555 1_555
C90F C85F 1_555 1_555
C91F C90F 1_555 1_555
H71F C91F 1_555 1_555
C92F N20F 1_555 1_555
H72F C92F 1_555 1_555
C93F N20F 1_555 1_555
H73F C93F 1_555 1_555
H74F C93F 1_555 1_555
N22F Co4 1_555 1_555
C94F N22F 1_555 1_555
C95F C94F 1_555 1_555
H75F C95F 1_555 1_555
C96F C95F 1_555 1_555
H76F C96F 1_555 1_555
C97F C96F 1_555 1_555
H77F C97F 1_555 1_555
C98F N22F 1_555 1_555
H78F C98F 1_555 1_555
N23F N24F 1_555 1_555
N24F Co4 1_555 1_555
C99F C94F 1_555 1_555
C100F C99F 1_555 1_555
H79F C100F 1_555 1_555
C101F N23F 1_555 1_555
H80F C101F 1_555 1_555
C102F N23F 1_555 1_555
H81F C102F 1_555 1_555
H82F C102F 1_555 1_555
C103F C93F 1_555 1_555
C104F C103F 1_555 1_555
H83F C104F 1_555 1_555
C105F C104F 1_555 1_555
H84F C105F 1_555 1_555
C106F C105F 1_555 1_555
H85F C106F 1_555 1_555
C107F C106F 1_555 1_555
C108F C103F 1_555 1_555
C109F C108F 1_555 1_555
H86F C109F 1_555 1_555
C110F C109F 1_555 1_555
H87F C110F 1_555 1_555
C111F C110F 1_555 1_555
H88F C111F 1_555 1_555
C112F C102F 1_555 1_555
N25F Co2F 1_555 1_555
C113F N25F 1_555 1_555
C114F C113F 1_555 1_555
H89F C114F 1_555 1_555
C115F C114F 1_555 1_555
H90F C115F 1_555 1_555
C116F C115F 1_555 1_555
H91F C116F 1_555 1_555
C117F N25F 1_555 1_555
H92F C117F 1_555 1_555
N26F N27F 1_555 1_555
N27F Co2F 1_555 1_555
C118F C113F 1_555 1_555
C119F C118F 1_555 1_555
H93F C119F 1_555 1_555
C120F N26F 1_555 1_555
H94F C120F 1_555 1_555
C121F N26F 1_555 1_555
H95F C121F 1_555 1_555
H96F C121F 1_555 1_555
N28F Co4 1_555 1_555
C122F N28F 1_555 1_555
C123F C122F 1_555 1_555
H97F C123F 1_555 1_555
C124F C123F 1_555 1_555
H98F C124F 1_555 1_555
C125F C124F 1_555 1_555
H99F C125F 1_555 1_555
C126F N28F 1_555 1_555
H100F C126F 1_555 1_555
N29F N30F 1_555 1_555
N30F Co4 1_555 1_555
C127F C122F 1_555 1_555
C128F C127F 1_555 1_555
H101F C128F 1_555 1_555
C129F N29F 1_555 1_555
H102F C129F 1_555 1_555
C130F N29F 1_555 1_555
H103F C130F 1_555 1_555
H104F C130F 1_555 1_555
C131F C121F 1_555 1_555
C132F C131F 1_555 1_555
H105F C132F 1_555 1_555
C133F C132F 1_555 1_555
H106F C133F 1_555 1_555
C134F C133F 1_555 1_555
H107F C134F 1_555 1_555
C135F C134F 1_555 1_555
C136F C131F 1_555 1_555
C137F C136F 1_555 1_555
H108F C137F 1_555 1_555
C138F C137F 1_555 1_555
H109F C138F 1_555 1_555
C139F C138F 1_555 1_555
H110F C139F 1_555 1_555
C140F C130F 1_555 1_555
N31F Co1F 1_555 1_555
C141F N31F 1_555 1_555
C142F C141F 1_555 1_555
H111F C142F 1_555 1_555
C143F C142F 1_555 1_555
H112F C143F 1_555 1_555
C144F C143F 1_555 1_555
H113F C144F 1_555 1_555
C145F N31F 1_555 1_555
H114F C145F 1_555 1_555
N32F N33F 1_555 1_555
N33F Co1F 1_555 1_555
C146F C141F 1_555 1_555
C147F C146F 1_555 1_555
H115F C147F 1_555 1_555
C148F N32F 1_555 1_555
H116F C148F 1_555 1_555
C149F N32F 1_555 1_555
H117F C149F 1_555 1_555
H118F C149F 1_555 1_555
N34F Co2 1_555 1_555
C150F N34F 1_555 1_555
C151F C150F 1_555 1_555
H119F C151F 1_555 1_555
C152F C151F 1_555 1_555
H120F C152F 1_555 1_555
C153F C152F 1_555 1_555
H121F C153F 1_555 1_555
C154F N34F 1_555 1_555
H122F C154F 1_555 1_555
N35F N36F 1_555 1_555
N36F Co2 1_555 1_555
C155F C150F 1_555 1_555
C156F C155F 1_555 1_555
H123F C156F 1_555 1_555
C157F N35F 1_555 1_555
H124F C157F 1_555 1_555
C158F N35F 1_555 1_555
H125F C158F 1_555 1_555
H126F C158F 1_555 1_555
C159F C149F 1_555 1_555
C160F C159F 1_555 1_555
H127F C160F 1_555 1_555
C161F C160F 1_555 1_555
H128F C161F 1_555 1_555
C162F C161F 1_555 1_555
H129F C162F 1_555 1_555
C163F C162F 1_555 1_555
C164F C159F 1_555 1_555
C165F C164F 1_555 1_555
H130F C165F 1_555 1_555
C166F C165F 1_555 1_555
H131F C166F 1_555 1_555
C167F C166F 1_555 1_555
H132F C167F 1_555 1_555
C168F C158F 1_555 1_555
C4 C5 1_555 1_555
N3 C6 1_555 1_555
C7 C8 1_555 1_555
C13 C14 1_555 1_555
N6 C15 1_555 1_555
C16 C17 1_555 1_555
C23 C24 1_555 1_555
C23 C28 1_555 1_555
C27 C28 1_555 1_555
C32 C33 1_555 1_555
N9 C34 1_555 1_555
C35 C36 1_555 1_555
C41 C42 1_555 1_555
N12 C43 1_555 1_555
C44 C45 1_555 1_555
C51 C52 1_555 1_555
C51 C56 1_555 1_555
C55 C56 1_555 1_555
C60 C61 1_555 1_555
N15 C62 1_555 1_555
C63 C64 1_555 1_555
C69 C70 1_555 1_555
N18 C71 1_555 1_555
C72 C73 1_555 1_555
C79 C80 1_555 1_555
C79 C84 1_555 1_555
C83 C84 1_555 1_555
C88 C89 1_555 1_555
N21 C90 1_555 1_555
C91 C92 1_555 1_555
C97 C98 1_555 1_555
N24 Co4F 1_555 1_555
C100 C101 1_555 1_555
C107 C108 1_555 1_555
C107 C112 1_555 1_555
C111 C112 1_555 1_555
C116 C117 1_555 1_555
N27 C118 1_555 1_555
C119 C120 1_555 1_555
N28 Co4F 1_555 1_555
C125 C126 1_555 1_555
N30 Co4F 1_555 1_555
C128 C129 1_555 1_555
C135 C136 1_555 1_555
C135 C140 1_555 1_555
C139 C140 1_555 1_555
C144 C145 1_555 1_555
N33 C146 1_555 1_555
C147 C148 1_555 1_555
C153 C154 1_555 1_555
N36 Co2F 1_555 1_555
C156 C157 1_555 1_555
C163 C164 1_555 1_555
C163 C168 1_555 1_555
C167 C168 1_555 1_555
C4F C5F 1_555 1_555
N3F C6F 1_555 1_555
C7F C8F 1_555 1_555
C13F C14F 1_555 1_555
N6F C15F 1_555 1_555
C16F C17F 1_555 1_555
C23F C24F 1_555 1_555
C23F C28F 1_555 1_555
C27F C28F 1_555 1_555
C32F C33F 1_555 1_555
N9F C34F 1_555 1_555
C35F C36F 1_555 1_555
C41F C42F 1_555 1_555
N12F C43F 1_555 1_555
C44F C45F 1_555 1_555
C51F C52F 1_555 1_555
C51F C56F 1_555 1_555
C55F C56F 1_555 1_555
C60F C61F 1_555 1_555
N15F C62F 1_555 1_555
C63F C64F 1_555 1_555
C69F C70F 1_555 1_555
N18F C71F 1_555 1_555
C72F C73F 1_555 1_555
C79F C80F 1_555 1_555
C79F C84F 1_555 1_555
C83F C84F 1_555 1_555
C88F C89F 1_555 1_555
N21F C90F 1_555 1_555
C91F C92F 1_555 1_555
C97F C98F 1_555 1_555
N24F C99F 1_555 1_555
C100F C101F 1_555 1_555
C107F C108F 1_555 1_555
C107F C112F 1_555 1_555
C111F C112F 1_555 1_555
C116F C117F 1_555 1_555
N27F C118F 1_555 1_555
C119F C120F 1_555 1_555
C125F C126F 1_555 1_555
N30F C127F 1_555 1_555
C128F C129F 1_555 1_555
C135F C136F 1_555 1_555
C135F C140F 1_555 1_555
C139F C140F 1_555 1_555
C144F C145F 1_555 1_555
N33F C146F 1_555 1_555
C147F C148F 1_555 1_555
C153F C154F 1_555 1_555
N36F C155F 1_555 1_555
C156F C157F 1_555 1_555
C163F C164F 1_555 1_555
C163F C168F 1_555 1_555
C167F C168F 1_555 1_555

#END
