# generated using pymatgen
data_Zn8H402C348I16(N22O23)3
_symmetry_space_group_name_H-M   'P 1'
_cell_length_a   28.44150000
_cell_length_b   28.44150000
_cell_length_c   85.87200000
_cell_angle_alpha   90.00000000
_cell_angle_beta   90.00000000
_cell_angle_gamma   90.00000000
_symmetry_Int_Tables_number   1
_chemical_formula_structural   Zn8H402C348I16(N22O23)3
_chemical_formula_sum   'Zn32 H1608 C1392 I64 N264 O276'
_cell_volume   69463.48569145
_cell_formula_units_Z   4
loop_
 _symmetry_equiv_pos_site_id
 _symmetry_equiv_pos_as_xyz
  1  'x, y, z'
loop_
 _atom_site_type_symbol
 _atom_site_label
 _atom_site_symmetry_multiplicity
 _atom_site_fract_x
 _atom_site_fract_y
 _atom_site_fract_z
 _atom_site_occupancy
  Zn  Zn1  1  0.440720  0.894130  0.981260  1
  Zn  Zn2  1  0.559280  0.105870  0.481260  1
  Zn  Zn3  1  0.605870  0.940720  0.231260  1
  Zn  Zn4  1  0.394130  0.059280  0.731260  1
  Zn  Zn5  1  0.059280  0.394130  0.268740  1
  Zn  Zn6  1  0.940720  0.605870  0.768740  1
  Zn  Zn7  1  0.894130  0.440720  0.018740  1
  Zn  Zn8  1  0.105870  0.559280  0.518740  1
  Zn  Zn9  1  0.511610  0.084150  0.034430  1
  Zn  Zn10  1  0.488390  0.915850  0.534430  1
  Zn  Zn11  1  0.415850  0.011610  0.284430  1
  Zn  Zn12  1  0.584150  0.988390  0.784430  1
  Zn  Zn13  1  0.988390  0.584150  0.215570  1
  Zn  Zn14  1  0.011610  0.415850  0.715570  1
  Zn  Zn15  1  0.084150  0.511610  0.965570  1
  Zn  Zn16  1  0.915850  0.488390  0.465570  1
  Zn  Zn17  1  0.359500  0.410000  0.922330  1
  Zn  Zn18  1  0.640500  0.590000  0.422330  1
  Zn  Zn19  1  0.090000  0.859500  0.172330  1
  Zn  Zn20  1  0.910000  0.140500  0.672330  1
  Zn  Zn21  1  0.140500  0.910000  0.327670  1
  Zn  Zn22  1  0.859500  0.090000  0.827670  1
  Zn  Zn23  1  0.410000  0.359500  0.077670  1
  Zn  Zn24  1  0.590000  0.640500  0.577670  1
  Zn  Zn25  1  0.363500  0.453600  0.925900  1.0
  Zn  Zn26  1  0.636500  0.546400  0.425900  1.0
  Zn  Zn27  1  0.046400  0.863500  0.175900  1.0
  Zn  Zn28  1  0.953600  0.136500  0.675900  1.0
  Zn  Zn29  1  0.136500  0.953600  0.324100  1.0
  Zn  Zn30  1  0.863500  0.046400  0.824100  1.0
  Zn  Zn31  1  0.453600  0.363500  0.074100  1.0
  Zn  Zn32  1  0.546400  0.636500  0.574100  1.0
  H  H33  1  0.411200  0.111000  0.021800  1
  H  H34  1  0.588800  0.889000  0.521800  1
  H  H35  1  0.389000  0.911200  0.271800  1
  H  H36  1  0.611000  0.088800  0.771800  1
  H  H37  1  0.088800  0.611000  0.228200  1
  H  H38  1  0.911200  0.389000  0.728200  1
  H  H39  1  0.111000  0.411200  0.978200  1
  H  H40  1  0.889000  0.588800  0.478200  1
  H  H41  1  0.335700  0.992100  0.018400  1
  H  H42  1  0.664300  0.007900  0.518400  1
  H  H43  1  0.507900  0.835700  0.268400  1
  H  H44  1  0.492100  0.164300  0.768400  1
  H  H45  1  0.164300  0.492100  0.231600  1
  H  H46  1  0.835700  0.507900  0.731600  1
  H  H47  1  0.992100  0.335700  0.981600  1
  H  H48  1  0.007900  0.664300  0.481600  1
  H  H49  1  0.398900  0.949400  0.027900  1
  H  H50  1  0.601100  0.050600  0.527900  1
  H  H51  1  0.550600  0.898900  0.277900  1
  H  H52  1  0.449400  0.101100  0.777900  1
  H  H53  1  0.101100  0.449400  0.222100  1
  H  H54  1  0.898900  0.550600  0.722100  1
  H  H55  1  0.949400  0.398900  0.972100  1
  H  H56  1  0.050600  0.601100  0.472100  1
  H  H57  1  0.468300  0.987500  0.034400  1
  H  H58  1  0.531700  0.012500  0.534400  1
  H  H59  1  0.512500  0.968300  0.284400  1
  H  H60  1  0.487500  0.031700  0.784400  1
  H  H61  1  0.031700  0.487500  0.215600  1
  H  H62  1  0.968300  0.512500  0.715600  1
  H  H63  1  0.987500  0.468300  0.965600  1
  H  H64  1  0.012500  0.531700  0.465600  1
  H  H65  1  0.365500  0.134600  0.003200  1
  H  H66  1  0.634500  0.865400  0.503200  1
  H  H67  1  0.365400  0.865500  0.253200  1
  H  H68  1  0.634600  0.134500  0.753200  1
  H  H69  1  0.134500  0.634600  0.246800  1
  H  H70  1  0.865500  0.365400  0.746800  1
  H  H71  1  0.134600  0.365500  0.996800  1
  H  H72  1  0.865400  0.634500  0.496800  1
  H  H73  1  0.271700  0.151500  0.009500  1
  H  H74  1  0.728300  0.848500  0.509500  1
  H  H75  1  0.348500  0.771700  0.259500  1
  H  H76  1  0.651500  0.228300  0.759500  1
  H  H77  1  0.228300  0.651500  0.240500  1
  H  H78  1  0.771700  0.348500  0.740500  1
  H  H79  1  0.151500  0.271700  0.990500  1
  H  H80  1  0.848500  0.728300  0.490500  1
  H  H81  1  0.291200  0.222700  0.994900  1
  H  H82  1  0.708800  0.777300  0.494900  1
  H  H83  1  0.277300  0.791200  0.244900  1
  H  H84  1  0.722700  0.208800  0.744900  1
  H  H85  1  0.208800  0.722700  0.255100  1
  H  H86  1  0.791200  0.277300  0.755100  1
  H  H87  1  0.222700  0.291200  0.005100  1
  H  H88  1  0.777300  0.708800  0.505100  1
  H  H89  1  0.343300  0.204700  0.995700  1
  H  H90  1  0.656700  0.795300  0.495700  1
  H  H91  1  0.295300  0.843300  0.245700  1
  H  H92  1  0.704700  0.156700  0.745700  1
  H  H93  1  0.156700  0.704700  0.254300  1
  H  H94  1  0.843300  0.295300  0.754300  1
  H  H95  1  0.204700  0.343300  0.004300  1
  H  H96  1  0.795300  0.656700  0.504300  1
  H  H97  1  0.249900  0.215600  0.023300  1
  H  H98  1  0.750100  0.784400  0.523300  1
  H  H99  1  0.284400  0.749900  0.273300  1
  H  H100  1  0.715600  0.250100  0.773300  1
  H  H101  1  0.250100  0.715600  0.226700  1
  H  H102  1  0.749900  0.284400  0.726700  1
  H  H103  1  0.215600  0.249900  0.976700  1
  H  H104  1  0.784400  0.750100  0.476700  1
  H  H105  1  0.259500  0.241800  0.048600  1
  H  H106  1  0.740500  0.758200  0.548600  1
  H  H107  1  0.258200  0.759500  0.298600  1
  H  H108  1  0.741800  0.240500  0.798600  1
  H  H109  1  0.240500  0.741800  0.201400  1
  H  H110  1  0.759500  0.258200  0.701400  1
  H  H111  1  0.241800  0.259500  0.951400  1
  H  H112  1  0.758200  0.740500  0.451400  1
  H  H113  1  0.333000  0.265600  0.057300  1
  H  H114  1  0.667000  0.734400  0.557300  1
  H  H115  1  0.234400  0.833000  0.307300  1
  H  H116  1  0.765600  0.167000  0.807300  1
  H  H117  1  0.167000  0.765600  0.192700  1
  H  H118  1  0.833000  0.234400  0.692700  1
  H  H119  1  0.265600  0.333000  0.942700  1
  H  H120  1  0.734400  0.667000  0.442700  1
  H  H121  1  0.397000  0.263200  0.040600  1
  H  H122  1  0.603000  0.736800  0.540600  1
  H  H123  1  0.236800  0.897000  0.290600  1
  H  H124  1  0.763200  0.103000  0.790600  1
  H  H125  1  0.103000  0.763200  0.209400  1
  H  H126  1  0.897000  0.236800  0.709400  1
  H  H127  1  0.263200  0.397000  0.959400  1
  H  H128  1  0.736800  0.603000  0.459400  1
  H  H129  1  0.387400  0.237000  0.015200  1
  H  H130  1  0.612600  0.763000  0.515200  1
  H  H131  1  0.263000  0.887400  0.265200  1
  H  H132  1  0.737000  0.112600  0.765200  1
  H  H133  1  0.112600  0.737000  0.234800  1
  H  H134  1  0.887400  0.263000  0.734800  1
  H  H135  1  0.237000  0.387400  0.984800  1
  H  H136  1  0.763000  0.612600  0.484800  1
  H  H137  1  0.215200  0.151000  0.994100  1
  H  H138  1  0.784800  0.849000  0.494100  1
  H  H139  1  0.349000  0.715200  0.244100  1
  H  H140  1  0.651000  0.284800  0.744100  1
  H  H141  1  0.284800  0.651000  0.255900  1
  H  H142  1  0.715200  0.349000  0.755900  1
  H  H143  1  0.151000  0.215200  0.005900  1
  H  H144  1  0.849000  0.784800  0.505900  1
  H  H145  1  0.219400  0.129100  0.962000  1
  H  H146  1  0.780600  0.870900  0.462000  1
  H  H147  1  0.370900  0.719400  0.212000  1
  H  H148  1  0.629100  0.280600  0.712000  1
  H  H149  1  0.280600  0.629100  0.288000  1
  H  H150  1  0.719400  0.370900  0.788000  1
  H  H151  1  0.129100  0.219400  0.038000  1
  H  H152  1  0.870900  0.780600  0.538000  1
  H  H153  1  0.162200  0.081200  0.983900  1
  H  H154  1  0.837800  0.918800  0.483900  1
  H  H155  1  0.418800  0.662200  0.233900  1
  H  H156  1  0.581200  0.337800  0.733900  1
  H  H157  1  0.337800  0.581200  0.266100  1
  H  H158  1  0.662200  0.418800  0.766100  1
  H  H159  1  0.081200  0.162200  0.016100  1
  H  H160  1  0.918800  0.837800  0.516100  1
  H  H161  1  0.239100  0.056000  0.981900  1
  H  H162  1  0.760900  0.944000  0.481900  1
  H  H163  1  0.444000  0.739100  0.231900  1
  H  H164  1  0.556000  0.260900  0.731900  1
  H  H165  1  0.260900  0.556000  0.268100  1
  H  H166  1  0.739100  0.444000  0.768100  1
  H  H167  1  0.056000  0.239100  0.018100  1
  H  H168  1  0.944000  0.760900  0.518100  1
  H  H169  1  0.203100  0.015600  0.978400  1
  H  H170  1  0.796900  0.984400  0.478400  1
  H  H171  1  0.484400  0.703100  0.228400  1
  H  H172  1  0.515600  0.296900  0.728400  1
  H  H173  1  0.296900  0.515600  0.271600  1
  H  H174  1  0.703100  0.484400  0.771600  1
  H  H175  1  0.015600  0.203100  0.021600  1
  H  H176  1  0.984400  0.796900  0.521600  1
  H  H177  1  0.229600  0.040500  0.964700  1
  H  H178  1  0.770400  0.959500  0.464700  1
  H  H179  1  0.459500  0.729600  0.214700  1
  H  H180  1  0.540500  0.270400  0.714700  1
  H  H181  1  0.270400  0.540500  0.285300  1
  H  H182  1  0.729600  0.459500  0.785300  1
  H  H183  1  0.040500  0.229600  0.035300  1
  H  H184  1  0.959500  0.770400  0.535300  1
  H  H185  1  0.114400  0.089300  0.962100  1
  H  H186  1  0.885600  0.910700  0.462100  1
  H  H187  1  0.410700  0.614400  0.212100  1
  H  H188  1  0.589300  0.385600  0.712100  1
  H  H189  1  0.385600  0.589300  0.287900  1
  H  H190  1  0.614400  0.410700  0.787900  1
  H  H191  1  0.089300  0.114400  0.037900  1
  H  H192  1  0.910700  0.885600  0.537900  1
  H  H193  1  0.151300  0.061300  0.952200  1
  H  H194  1  0.848700  0.938700  0.452200  1
  H  H195  1  0.438700  0.651300  0.202200  1
  H  H196  1  0.561300  0.348700  0.702200  1
  H  H197  1  0.348700  0.561300  0.297800  1
  H  H198  1  0.651300  0.438700  0.797800  1
  H  H199  1  0.061300  0.151300  0.047800  1
  H  H200  1  0.938700  0.848700  0.547800  1
  H  H201  1  0.124800  0.036400  0.965900  1
  H  H202  1  0.875200  0.963600  0.465900  1
  H  H203  1  0.463600  0.624800  0.215900  1
  H  H204  1  0.536400  0.375200  0.715900  1
  H  H205  1  0.375200  0.536400  0.284100  1
  H  H206  1  0.624800  0.463600  0.784100  1
  H  H207  1  0.036400  0.124800  0.034100  1
  H  H208  1  0.963600  0.875200  0.534100  1
  H  H209  1  0.164500  0.173200  0.949600  1
  H  H210  1  0.835500  0.826800  0.449600  1
  H  H211  1  0.326800  0.664500  0.199600  1
  H  H212  1  0.673200  0.335500  0.699600  1
  H  H213  1  0.335500  0.673200  0.300400  1
  H  H214  1  0.664500  0.326800  0.800400  1
  H  H215  1  0.173200  0.164500  0.050400  1
  H  H216  1  0.826800  0.835500  0.550400  1
  H  H217  1  0.112300  0.243900  0.962800  1
  H  H218  1  0.887700  0.756100  0.462800  1
  H  H219  1  0.256100  0.612300  0.212800  1
  H  H220  1  0.743900  0.387700  0.712800  1
  H  H221  1  0.387700  0.743900  0.287200  1
  H  H222  1  0.612300  0.256100  0.787200  1
  H  H223  1  0.243900  0.112300  0.037200  1
  H  H224  1  0.756100  0.887700  0.537200  1
  H  H225  1  0.105700  0.213800  0.930700  1
  H  H226  1  0.894300  0.786200  0.430700  1
  H  H227  1  0.286200  0.605700  0.180700  1
  H  H228  1  0.713800  0.394300  0.680700  1
  H  H229  1  0.394300  0.713800  0.319300  1
  H  H230  1  0.605700  0.286200  0.819300  1
  H  H231  1  0.213800  0.105700  0.069300  1
  H  H232  1  0.786200  0.894300  0.569300  1
  H  H233  1  0.148700  0.245100  0.936000  1
  H  H234  1  0.851300  0.754900  0.436000  1
  H  H235  1  0.254900  0.648700  0.186000  1
  H  H236  1  0.745100  0.351300  0.686000  1
  H  H237  1  0.351300  0.745100  0.314000  1
  H  H238  1  0.648700  0.254900  0.814000  1
  H  H239  1  0.245100  0.148700  0.064000  1
  H  H240  1  0.754900  0.851300  0.564000  1
  H  H241  1  0.124800  0.337500  0.943900  1
  H  H242  1  0.875200  0.662500  0.443900  1
  H  H243  1  0.162500  0.624800  0.193900  1
  H  H244  1  0.837500  0.375200  0.693900  1
  H  H245  1  0.375200  0.837500  0.306100  1
  H  H246  1  0.624800  0.162500  0.806100  1
  H  H247  1  0.337500  0.124800  0.056100  1
  H  H248  1  0.662500  0.875200  0.556100  1
  H  H249  1  0.068400  0.395600  0.940700  1
  H  H250  1  0.931600  0.604400  0.440700  1
  H  H251  1  0.104400  0.568400  0.190700  1
  H  H252  1  0.895600  0.431600  0.690700  1
  H  H253  1  0.431600  0.895600  0.309300  1
  H  H254  1  0.568400  0.104400  0.809300  1
  H  H255  1  0.395600  0.068400  0.059300  1
  H  H256  1  0.604400  0.931600  0.559300  1
  H  H257  1  0.993200  0.375800  0.932500  1
  H  H258  1  0.006800  0.624200  0.432500  1
  H  H259  1  0.124200  0.493200  0.182500  1
  H  H260  1  0.875800  0.506800  0.682500  1
  H  H261  1  0.506800  0.875800  0.317500  1
  H  H262  1  0.493200  0.124200  0.817500  1
  H  H263  1  0.375800  0.993200  0.067500  1
  H  H264  1  0.624200  0.006800  0.567500  1
  H  H265  1  0.974500  0.297900  0.927500  1
  H  H266  1  0.025500  0.702100  0.427500  1
  H  H267  1  0.202100  0.474500  0.177500  1
  H  H268  1  0.797900  0.525500  0.677500  1
  H  H269  1  0.525500  0.797900  0.322500  1
  H  H270  1  0.474500  0.202100  0.822500  1
  H  H271  1  0.297900  0.974500  0.072500  1
  H  H272  1  0.702100  0.025500  0.572500  1
  H  H273  1  0.030900  0.239800  0.930700  1
  H  H274  1  0.969100  0.760200  0.430700  1
  H  H275  1  0.260200  0.530900  0.180700  1
  H  H276  1  0.739800  0.469100  0.680700  1
  H  H277  1  0.469100  0.739800  0.319300  1
  H  H278  1  0.530900  0.260200  0.819300  1
  H  H279  1  0.239800  0.030900  0.069300  1
  H  H280  1  0.760200  0.969100  0.569300  1
  H  H281  1  0.039500  0.235500  0.971200  1
  H  H282  1  0.960500  0.764500  0.471200  1
  H  H283  1  0.264500  0.539500  0.221200  1
  H  H284  1  0.735500  0.460500  0.721200  1
  H  H285  1  0.460500  0.735500  0.278800  1
  H  H286  1  0.539500  0.264500  0.778800  1
  H  H287  1  0.235500  0.039500  0.028800  1
  H  H288  1  0.764500  0.960500  0.528800  1
  H  H289  1  0.978800  0.168600  0.959600  1
  H  H290  1  0.021200  0.831400  0.459600  1
  H  H291  1  0.331400  0.478800  0.209600  1
  H  H292  1  0.668600  0.521200  0.709600  1
  H  H293  1  0.521200  0.668600  0.290400  1
  H  H294  1  0.478800  0.331400  0.790400  1
  H  H295  1  0.168600  0.978800  0.040400  1
  H  H296  1  0.831400  0.021200  0.540400  1
  H  H297  1  0.984300  0.189800  0.992000  1
  H  H298  1  0.015700  0.810200  0.492000  1
  H  H299  1  0.310200  0.484300  0.242000  1
  H  H300  1  0.689800  0.515700  0.742000  1
  H  H301  1  0.515700  0.689800  0.258000  1
  H  H302  1  0.484300  0.310200  0.758000  1
  H  H303  1  0.189800  0.984300  0.008000  1
  H  H304  1  0.810200  0.015700  0.508000  1
  H  H305  1  0.008100  0.111300  0.995000  1
  H  H306  1  0.991900  0.888700  0.495000  1
  H  H307  1  0.388700  0.508100  0.245000  1
  H  H308  1  0.611300  0.491900  0.745000  1
  H  H309  1  0.491900  0.611300  0.255000  1
  H  H310  1  0.508100  0.388700  0.755000  1
  H  H311  1  0.111300  0.008100  0.005000  1
  H  H312  1  0.888700  0.991900  0.505000  1
  H  H313  1  0.006600  0.104200  0.976900  1
  H  H314  1  0.993400  0.895800  0.476900  1
  H  H315  1  0.395800  0.506600  0.226900  1
  H  H316  1  0.604200  0.493400  0.726900  1
  H  H317  1  0.493400  0.604200  0.273100  1
  H  H318  1  0.506600  0.395800  0.773100  1
  H  H319  1  0.104200  0.006600  0.023100  1
  H  H320  1  0.895800  0.993400  0.523100  1
  H  H321  1  0.043800  0.138100  0.984300  1
  H  H322  1  0.956200  0.861900  0.484300  1
  H  H323  1  0.361900  0.543800  0.234300  1
  H  H324  1  0.638100  0.456200  0.734300  1
  H  H325  1  0.456200  0.638100  0.265700  1
  H  H326  1  0.543800  0.361900  0.765700  1
  H  H327  1  0.138100  0.043800  0.015700  1
  H  H328  1  0.861900  0.956200  0.515700  1
  H  H329  1  0.905400  0.163200  0.987000  1
  H  H330  1  0.094600  0.836800  0.487000  1
  H  H331  1  0.336800  0.405400  0.237000  1
  H  H332  1  0.663200  0.594600  0.737000  1
  H  H333  1  0.594600  0.663200  0.263000  1
  H  H334  1  0.405400  0.336800  0.763000  1
  H  H335  1  0.163200  0.905400  0.013000  1
  H  H336  1  0.836800  0.094600  0.513000  1
  H  H337  1  0.926000  0.116600  0.980000  1
  H  H338  1  0.074000  0.883400  0.480000  1
  H  H339  1  0.383400  0.426000  0.230000  1
  H  H340  1  0.616600  0.574000  0.730000  1
  H  H341  1  0.574000  0.616600  0.270000  1
  H  H342  1  0.426000  0.383400  0.770000  1
  H  H343  1  0.116600  0.926000  0.020000  1
  H  H344  1  0.883400  0.074000  0.520000  1
  H  H345  1  0.932800  0.128000  0.997700  1
  H  H346  1  0.067200  0.872000  0.497700  1
  H  H347  1  0.372000  0.432800  0.247700  1
  H  H348  1  0.628000  0.567200  0.747700  1
  H  H349  1  0.567200  0.628000  0.252300  1
  H  H350  1  0.432800  0.372000  0.752300  1
  H  H351  1  0.128000  0.932800  0.002300  1
  H  H352  1  0.872000  0.067200  0.502300  1
  H  H353  1  0.909900  0.197200  0.952400  1
  H  H354  1  0.090100  0.802800  0.452400  1
  H  H355  1  0.302800  0.409900  0.202400  1
  H  H356  1  0.697200  0.590100  0.702400  1
  H  H357  1  0.590100  0.697200  0.297600  1
  H  H358  1  0.409900  0.302800  0.797600  1
  H  H359  1  0.197200  0.909900  0.047600  1
  H  H360  1  0.802800  0.090100  0.547600  1
  H  H361  1  0.897800  0.318300  0.955000  1
  H  H362  1  0.102200  0.681700  0.455000  1
  H  H363  1  0.181700  0.397800  0.205000  1
  H  H364  1  0.818300  0.602200  0.705000  1
  H  H365  1  0.602200  0.818300  0.295000  1
  H  H366  1  0.397800  0.181700  0.795000  1
  H  H367  1  0.318300  0.897800  0.045000  1
  H  H368  1  0.681700  0.102200  0.545000  1
  H  H369  1  0.827200  0.358500  0.952400  1
  H  H370  1  0.172800  0.641500  0.452400  1
  H  H371  1  0.141500  0.327200  0.202400  1
  H  H372  1  0.858500  0.672800  0.702400  1
  H  H373  1  0.672800  0.858500  0.297600  1
  H  H374  1  0.327200  0.141500  0.797600  1
  H  H375  1  0.358500  0.827200  0.047600  1
  H  H376  1  0.641500  0.172800  0.547600  1
  H  H377  1  0.756700  0.317500  0.952700  1
  H  H378  1  0.243300  0.682500  0.452700  1
  H  H379  1  0.182500  0.256700  0.202700  1
  H  H380  1  0.817500  0.743300  0.702700  1
  H  H381  1  0.743300  0.817500  0.297300  1
  H  H382  1  0.256700  0.182500  0.797300  1
  H  H383  1  0.317500  0.756700  0.047300  1
  H  H384  1  0.682500  0.243300  0.547300  1
  H  H385  1  0.827300  0.196300  0.958400  1
  H  H386  1  0.172700  0.803700  0.458400  1
  H  H387  1  0.303700  0.327300  0.208400  1
  H  H388  1  0.696300  0.672700  0.708400  1
  H  H389  1  0.672700  0.696300  0.291600  1
  H  H390  1  0.327300  0.303700  0.791600  1
  H  H391  1  0.196300  0.827300  0.041600  1
  H  H392  1  0.803700  0.172700  0.541600  1
  H  H393  1  0.675800  0.173400  0.967000  1
  H  H394  1  0.324200  0.826600  0.467000  1
  H  H395  1  0.326600  0.175800  0.217000  1
  H  H396  1  0.673400  0.824200  0.717000  1
  H  H397  1  0.824200  0.673400  0.283000  1
  H  H398  1  0.175800  0.326600  0.783000  1
  H  H399  1  0.173400  0.675800  0.033000  1
  H  H400  1  0.826600  0.324200  0.533000  1
  H  H401  1  0.690900  0.307800  0.968300  1
  H  H402  1  0.309100  0.692200  0.468300  1
  H  H403  1  0.192200  0.190900  0.218300  1
  H  H404  1  0.807800  0.809100  0.718300  1
  H  H405  1  0.809100  0.807800  0.281700  1
  H  H406  1  0.190900  0.192200  0.781700  1
  H  H407  1  0.307800  0.690900  0.031700  1
  H  H408  1  0.692200  0.309100  0.531700  1
  H  H409  1  0.726500  0.279700  0.978800  1
  H  H410  1  0.273500  0.720300  0.478800  1
  H  H411  1  0.220300  0.226500  0.228800  1
  H  H412  1  0.779700  0.773500  0.728800  1
  H  H413  1  0.773500  0.779700  0.271200  1
  H  H414  1  0.226500  0.220300  0.771200  1
  H  H415  1  0.279700  0.726500  0.021200  1
  H  H416  1  0.720300  0.273500  0.521200  1
  H  H417  1  0.638400  0.291700  0.986800  1
  H  H418  1  0.361600  0.708300  0.486800  1
  H  H419  1  0.208300  0.138400  0.236800  1
  H  H420  1  0.791700  0.861600  0.736800  1
  H  H421  1  0.861600  0.791700  0.263200  1
  H  H422  1  0.138400  0.208300  0.763200  1
  H  H423  1  0.291700  0.638400  0.013200  1
  H  H424  1  0.708300  0.361600  0.513200  1
  H  H425  1  0.669200  0.250200  0.993600  1
  H  H426  1  0.330800  0.749800  0.493600  1
  H  H427  1  0.249800  0.169200  0.243600  1
  H  H428  1  0.750200  0.830800  0.743600  1
  H  H429  1  0.830800  0.750200  0.256400  1
  H  H430  1  0.169200  0.249800  0.756400  1
  H  H431  1  0.250200  0.669200  0.006400  1
  H  H432  1  0.749800  0.330800  0.506400  1
  H  H433  1  0.605200  0.245500  0.968600  1
  H  H434  1  0.394800  0.754500  0.468600  1
  H  H435  1  0.254500  0.105200  0.218600  1
  H  H436  1  0.745500  0.894800  0.718600  1
  H  H437  1  0.894800  0.745500  0.281400  1
  H  H438  1  0.105200  0.254500  0.781400  1
  H  H439  1  0.245500  0.605200  0.031400  1
  H  H440  1  0.754500  0.394800  0.531400  1
  H  H441  1  0.614200  0.206700  0.981400  1
  H  H442  1  0.385800  0.793300  0.481400  1
  H  H443  1  0.293300  0.114200  0.231400  1
  H  H444  1  0.706700  0.885800  0.731400  1
  H  H445  1  0.885800  0.706700  0.268600  1
  H  H446  1  0.114200  0.293300  0.768600  1
  H  H447  1  0.206700  0.614200  0.018600  1
  H  H448  1  0.793300  0.385800  0.518600  1
  H  H449  1  0.649500  0.135400  0.947400  1
  H  H450  1  0.350500  0.864600  0.447400  1
  H  H451  1  0.364600  0.149500  0.197400  1
  H  H452  1  0.635400  0.850500  0.697400  1
  H  H453  1  0.850500  0.635400  0.302600  1
  H  H454  1  0.149500  0.364600  0.802600  1
  H  H455  1  0.135400  0.649500  0.052600  1
  H  H456  1  0.864600  0.350500  0.552600  1
  H  H457  1  0.628400  0.111000  0.925700  1
  H  H458  1  0.371600  0.889000  0.425700  1
  H  H459  1  0.389000  0.128400  0.175700  1
  H  H460  1  0.611000  0.871600  0.675700  1
  H  H461  1  0.871600  0.611000  0.324300  1
  H  H462  1  0.128400  0.389000  0.824300  1
  H  H463  1  0.111000  0.628400  0.074300  1
  H  H464  1  0.889000  0.371600  0.574300  1
  H  H465  1  0.609900  0.161200  0.921400  1
  H  H466  1  0.390100  0.838800  0.421400  1
  H  H467  1  0.338800  0.109900  0.171400  1
  H  H468  1  0.661200  0.890100  0.671400  1
  H  H469  1  0.890100  0.661200  0.328600  1
  H  H470  1  0.109900  0.338800  0.828600  1
  H  H471  1  0.161200  0.609900  0.078600  1
  H  H472  1  0.838800  0.390100  0.578600  1
  H  H473  1  0.469500  0.113500  0.928800  1
  H  H474  1  0.530500  0.886500  0.428800  1
  H  H475  1  0.386500  0.969500  0.178800  1
  H  H476  1  0.613500  0.030500  0.678800  1
  H  H477  1  0.030500  0.613500  0.321200  1
  H  H478  1  0.969500  0.386500  0.821200  1
  H  H479  1  0.113500  0.469500  0.071200  1
  H  H480  1  0.886500  0.530500  0.571200  1
  H  H481  1  0.573100  0.051100  0.910700  1
  H  H482  1  0.426900  0.948900  0.410700  1
  H  H483  1  0.448900  0.073100  0.160700  1
  H  H484  1  0.551100  0.926900  0.660700  1
  H  H485  1  0.926900  0.551100  0.339300  1
  H  H486  1  0.073100  0.448900  0.839300  1
  H  H487  1  0.051100  0.573100  0.089300  1
  H  H488  1  0.948900  0.426900  0.589300  1
  H  H489  1  0.571800  0.103300  0.904400  1
  H  H490  1  0.428200  0.896700  0.404400  1
  H  H491  1  0.396700  0.071800  0.154400  1
  H  H492  1  0.603300  0.928200  0.654400  1
  H  H493  1  0.928200  0.603300  0.345600  1
  H  H494  1  0.071800  0.396700  0.845600  1
  H  H495  1  0.103300  0.571800  0.095600  1
  H  H496  1  0.896700  0.428200  0.595600  1
  H  H497  1  0.498500  0.095600  0.895000  1
  H  H498  1  0.501500  0.904400  0.395000  1
  H  H499  1  0.404400  0.998500  0.145000  1
  H  H500  1  0.595600  0.001500  0.645000  1
  H  H501  1  0.001500  0.595600  0.355000  1
  H  H502  1  0.998500  0.404400  0.855000  1
  H  H503  1  0.095600  0.498500  0.105000  1
  H  H504  1  0.904400  0.501500  0.605000  1
  H  H505  1  0.513200  0.042200  0.893800  1
  H  H506  1  0.486800  0.957800  0.393800  1
  H  H507  1  0.457800  0.013200  0.143800  1
  H  H508  1  0.542200  0.986800  0.643800  1
  H  H509  1  0.986800  0.542200  0.356200  1
  H  H510  1  0.013200  0.457800  0.856200  1
  H  H511  1  0.042200  0.513200  0.106200  1
  H  H512  1  0.957800  0.486800  0.606200  1
  H  H513  1  0.474500  0.022600  0.915900  1
  H  H514  1  0.525500  0.977400  0.415900  1
  H  H515  1  0.477400  0.974500  0.165900  1
  H  H516  1  0.522600  0.025500  0.665900  1
  H  H517  1  0.025500  0.522600  0.334100  1
  H  H518  1  0.974500  0.477400  0.834100  1
  H  H519  1  0.022600  0.474500  0.084100  1
  H  H520  1  0.977400  0.525500  0.584100  1
  H  H521  1  0.441800  0.064200  0.910400  1
  H  H522  1  0.558200  0.935800  0.410400  1
  H  H523  1  0.435800  0.941800  0.160400  1
  H  H524  1  0.564200  0.058200  0.660400  1
  H  H525  1  0.058200  0.564200  0.339600  1
  H  H526  1  0.941800  0.435800  0.839600  1
  H  H527  1  0.064200  0.441800  0.089600  1
  H  H528  1  0.935800  0.558200  0.589600  1
  H  H529  1  0.428500  0.087100  0.948500  1
  H  H530  1  0.571500  0.912900  0.448500  1
  H  H531  1  0.412900  0.928500  0.198500  1
  H  H532  1  0.587100  0.071500  0.698500  1
  H  H533  1  0.071500  0.587100  0.301500  1
  H  H534  1  0.928500  0.412900  0.801500  1
  H  H535  1  0.087100  0.428500  0.051500  1
  H  H536  1  0.912900  0.571500  0.551500  1
  H  H537  1  0.463600  0.976900  0.959300  1
  H  H538  1  0.536400  0.023100  0.459300  1
  H  H539  1  0.523100  0.963600  0.209300  1
  H  H540  1  0.476900  0.036400  0.709300  1
  H  H541  1  0.036400  0.476900  0.290700  1
  H  H542  1  0.963600  0.523100  0.790700  1
  H  H543  1  0.976900  0.463600  0.040700  1
  H  H544  1  0.023100  0.536400  0.540700  1
  H  H545  1  0.372800  0.081700  0.968200  1
  H  H546  1  0.627200  0.918300  0.468200  1
  H  H547  1  0.418300  0.872800  0.218200  1
  H  H548  1  0.581700  0.127200  0.718200  1
  H  H549  1  0.127200  0.581700  0.281800  1
  H  H550  1  0.872800  0.418300  0.781800  1
  H  H551  1  0.081700  0.372800  0.031800  1
  H  H552  1  0.918300  0.627200  0.531800  1
  H  H553  1  0.331900  0.033100  0.985200  1
  H  H554  1  0.668100  0.966900  0.485200  1
  H  H555  1  0.466900  0.831900  0.235200  1
  H  H556  1  0.533100  0.168100  0.735200  1
  H  H557  1  0.168100  0.533100  0.264800  1
  H  H558  1  0.831900  0.466900  0.764800  1
  H  H559  1  0.033100  0.331900  0.014800  1
  H  H560  1  0.966900  0.668100  0.514800  1
  H  H561  1  0.356800  0.956300  0.989200  1
  H  H562  1  0.643200  0.043700  0.489200  1
  H  H563  1  0.543700  0.856800  0.239200  1
  H  H564  1  0.456300  0.143200  0.739200  1
  H  H565  1  0.143200  0.456300  0.260800  1
  H  H566  1  0.856800  0.543700  0.760800  1
  H  H567  1  0.956300  0.356800  0.010800  1
  H  H568  1  0.043700  0.643200  0.510800  1
  H  H569  1  0.490300  0.901000  0.012500  1
  H  H570  1  0.509700  0.099000  0.512500  1
  H  H571  1  0.599000  0.990300  0.262500  1
  H  H572  1  0.401000  0.009700  0.762500  1
  H  H573  1  0.009700  0.401000  0.237500  1
  H  H574  1  0.990300  0.599000  0.737500  1
  H  H575  1  0.901000  0.490300  0.987500  1
  H  H576  1  0.099000  0.509700  0.487500  1
  H  H577  1  0.563000  0.921800  0.022500  1
  H  H578  1  0.437000  0.078200  0.522500  1
  H  H579  1  0.578200  0.063000  0.272500  1
  H  H580  1  0.421800  0.937000  0.772500  1
  H  H581  1  0.937000  0.421800  0.227500  1
  H  H582  1  0.063000  0.578200  0.727500  1
  H  H583  1  0.921800  0.563000  0.977500  1
  H  H584  1  0.078200  0.437000  0.477500  1
  H  H585  1  0.622900  0.945600  0.006000  1
  H  H586  1  0.377100  0.054400  0.506000  1
  H  H587  1  0.554400  0.122900  0.256000  1
  H  H588  1  0.445600  0.877100  0.756000  1
  H  H589  1  0.877100  0.445600  0.244000  1
  H  H590  1  0.122900  0.554400  0.744000  1
  H  H591  1  0.945600  0.622900  0.994000  1
  H  H592  1  0.054400  0.377100  0.494000  1
  H  H593  1  0.537300  0.927500  0.969200  1
  H  H594  1  0.462700  0.072500  0.469200  1
  H  H595  1  0.572500  0.037300  0.219200  1
  H  H596  1  0.427500  0.962700  0.719200  1
  H  H597  1  0.962700  0.427500  0.280800  1
  H  H598  1  0.037300  0.572500  0.780800  1
  H  H599  1  0.927500  0.537300  0.030800  1
  H  H600  1  0.072500  0.462700  0.530800  1
  H  H601  1  0.584200  0.974500  0.958000  1
  H  H602  1  0.415800  0.025500  0.458000  1
  H  H603  1  0.525500  0.084200  0.208000  1
  H  H604  1  0.474500  0.915800  0.708000  1
  H  H605  1  0.915800  0.474500  0.292000  1
  H  H606  1  0.084200  0.525500  0.792000  1
  H  H607  1  0.974500  0.584200  0.042000  1
  H  H608  1  0.025500  0.415800  0.542000  1
  H  H609  1  0.675600  0.956100  0.951300  1
  H  H610  1  0.324400  0.043900  0.451300  1
  H  H611  1  0.543900  0.175600  0.201300  1
  H  H612  1  0.456100  0.824400  0.701300  1
  H  H613  1  0.824400  0.456100  0.298700  1
  H  H614  1  0.175600  0.543900  0.798700  1
  H  H615  1  0.956100  0.675600  0.048700  1
  H  H616  1  0.043900  0.324400  0.548700  1
  H  H617  1  0.599700  0.999000  0.932600  1
  H  H618  1  0.400300  0.001000  0.432600  1
  H  H619  1  0.501000  0.099700  0.182600  1
  H  H620  1  0.499000  0.900300  0.682600  1
  H  H621  1  0.900300  0.499000  0.317400  1
  H  H622  1  0.099700  0.501000  0.817400  1
  H  H623  1  0.999000  0.599700  0.067400  1
  H  H624  1  0.001000  0.400300  0.567400  1
  H  H625  1  0.650700  0.995500  0.925500  1
  H  H626  1  0.349300  0.004500  0.425500  1
  H  H627  1  0.504500  0.150700  0.175500  1
  H  H628  1  0.495500  0.849300  0.675500  1
  H  H629  1  0.849300  0.495500  0.324500  1
  H  H630  1  0.150700  0.504500  0.824500  1
  H  H631  1  0.995500  0.650700  0.074500  1
  H  H632  1  0.004500  0.349300  0.574500  1
  H  H633  1  0.549300  0.932700  0.932300  1
  H  H634  1  0.450700  0.067300  0.432300  1
  H  H635  1  0.567300  0.049300  0.182300  1
  H  H636  1  0.432700  0.950700  0.682300  1
  H  H637  1  0.950700  0.432700  0.317700  1
  H  H638  1  0.049300  0.567300  0.817700  1
  H  H639  1  0.932700  0.549300  0.067700  1
  H  H640  1  0.067300  0.450700  0.567700  1
  H  H641  1  0.532900  0.855500  0.925300  1
  H  H642  1  0.467100  0.144500  0.425300  1
  H  H643  1  0.644500  0.032900  0.175300  1
  H  H644  1  0.355500  0.967100  0.675300  1
  H  H645  1  0.967100  0.355500  0.324700  1
  H  H646  1  0.032900  0.644500  0.824700  1
  H  H647  1  0.855500  0.532900  0.074700  1
  H  H648  1  0.144500  0.467100  0.574700  1
  H  H649  1  0.592900  0.806400  0.916900  1
  H  H650  1  0.407100  0.193600  0.416900  1
  H  H651  1  0.693600  0.092900  0.166900  1
  H  H652  1  0.306400  0.907100  0.666900  1
  H  H653  1  0.907100  0.306400  0.333100  1
  H  H654  1  0.092900  0.693600  0.833100  1
  H  H655  1  0.806400  0.592900  0.083100  1
  H  H656  1  0.193600  0.407100  0.583100  1
  H  H657  1  0.669400  0.834500  0.915500  1
  H  H658  1  0.330600  0.165500  0.415500  1
  H  H659  1  0.665500  0.169400  0.165500  1
  H  H660  1  0.334500  0.830600  0.665500  1
  H  H661  1  0.830600  0.334500  0.334500  1
  H  H662  1  0.169400  0.665500  0.834500  1
  H  H663  1  0.834500  0.669400  0.084500  1
  H  H664  1  0.165500  0.330600  0.584500  1
  H  H665  1  0.685800  0.911600  0.922400  1
  H  H666  1  0.314200  0.088400  0.422400  1
  H  H667  1  0.588400  0.185800  0.172400  1
  H  H668  1  0.411600  0.814200  0.672400  1
  H  H669  1  0.814200  0.411600  0.327600  1
  H  H670  1  0.185800  0.588400  0.827600  1
  H  H671  1  0.911600  0.685800  0.077600  1
  H  H672  1  0.088400  0.314200  0.577600  1
  H  H673  1  0.734400  0.001100  0.949700  1
  H  H674  1  0.265600  0.998900  0.449700  1
  H  H675  1  0.498900  0.234400  0.199700  1
  H  H676  1  0.501100  0.765600  0.699700  1
  H  H677  1  0.765600  0.501100  0.300300  1
  H  H678  1  0.234400  0.498900  0.800300  1
  H  H679  1  0.001100  0.734400  0.050300  1
  H  H680  1  0.998900  0.265600  0.550300  1
  H  H681  1  0.733600  0.097200  0.955100  1
  H  H682  1  0.266400  0.902800  0.455100  1
  H  H683  1  0.402800  0.233600  0.205100  1
  H  H684  1  0.597200  0.766400  0.705100  1
  H  H685  1  0.766400  0.597200  0.294900  1
  H  H686  1  0.233600  0.402800  0.794900  1
  H  H687  1  0.097200  0.733600  0.044900  1
  H  H688  1  0.902800  0.266400  0.544900  1
  H  H689  1  0.794700  0.032100  0.969600  1
  H  H690  1  0.205300  0.967900  0.469600  1
  H  H691  1  0.467900  0.294700  0.219600  1
  H  H692  1  0.532100  0.705300  0.719600  1
  H  H693  1  0.705300  0.532100  0.280400  1
  H  H694  1  0.294700  0.467900  0.780400  1
  H  H695  1  0.032100  0.794700  0.030400  1
  H  H696  1  0.967900  0.205300  0.530400  1
  H  H697  1  0.719900  0.033900  0.981300  1
  H  H698  1  0.280100  0.966100  0.481300  1
  H  H699  1  0.466100  0.219900  0.231300  1
  H  H700  1  0.533900  0.780100  0.731300  1
  H  H701  1  0.780100  0.533900  0.268700  1
  H  H702  1  0.219900  0.466100  0.768700  1
  H  H703  1  0.033900  0.719900  0.018700  1
  H  H704  1  0.966100  0.280100  0.518700  1
  H  H705  1  0.761200  0.042500  0.993000  1
  H  H706  1  0.238800  0.957500  0.493000  1
  H  H707  1  0.457500  0.261200  0.243000  1
  H  H708  1  0.542500  0.738800  0.743000  1
  H  H709  1  0.738800  0.542500  0.257000  1
  H  H710  1  0.261200  0.457500  0.757000  1
  H  H711  1  0.042500  0.761200  0.007000  1
  H  H712  1  0.957500  0.238800  0.507000  1
  H  H713  1  0.730700  0.084900  0.987100  1
  H  H714  1  0.269300  0.915100  0.487100  1
  H  H715  1  0.415100  0.230700  0.237100  1
  H  H716  1  0.584900  0.769300  0.737100  1
  H  H717  1  0.769300  0.584900  0.262900  1
  H  H718  1  0.230700  0.415100  0.762900  1
  H  H719  1  0.084900  0.730700  0.012900  1
  H  H720  1  0.915100  0.269300  0.512900  1
  H  H721  1  0.837800  0.101400  0.967700  1
  H  H722  1  0.162200  0.898600  0.467700  1
  H  H723  1  0.398600  0.337800  0.217700  1
  H  H724  1  0.601400  0.662200  0.717700  1
  H  H725  1  0.662200  0.601400  0.282300  1
  H  H726  1  0.337800  0.398600  0.782300  1
  H  H727  1  0.101400  0.837800  0.032300  1
  H  H728  1  0.898600  0.162200  0.532300  1
  H  H729  1  0.801300  0.125300  0.978900  1
  H  H730  1  0.198700  0.874700  0.478900  1
  H  H731  1  0.374700  0.301300  0.228900  1
  H  H732  1  0.625300  0.698700  0.728900  1
  H  H733  1  0.698700  0.625300  0.271100  1
  H  H734  1  0.301300  0.374700  0.771100  1
  H  H735  1  0.125300  0.801300  0.021100  1
  H  H736  1  0.874700  0.198700  0.521100  1
  H  H737  1  0.831800  0.082900  0.984800  1
  H  H738  1  0.168200  0.917100  0.484800  1
  H  H739  1  0.417100  0.331800  0.234800  1
  H  H740  1  0.582900  0.668200  0.734800  1
  H  H741  1  0.668200  0.582900  0.265200  1
  H  H742  1  0.331800  0.417100  0.765200  1
  H  H743  1  0.082900  0.831800  0.015200  1
  H  H744  1  0.917100  0.168200  0.515200  1
  H  H745  1  0.785700  0.134800  0.939800  1
  H  H746  1  0.214300  0.865200  0.439800  1
  H  H747  1  0.365200  0.285700  0.189800  1
  H  H748  1  0.634800  0.714300  0.689800  1
  H  H749  1  0.714300  0.634800  0.310200  1
  H  H750  1  0.285700  0.365200  0.810200  1
  H  H751  1  0.134800  0.785700  0.060200  1
  H  H752  1  0.865200  0.214300  0.560200  1
  H  H753  1  0.832000  0.093000  0.916800  1
  H  H754  1  0.168000  0.907000  0.416800  1
  H  H755  1  0.407000  0.332000  0.166800  1
  H  H756  1  0.593000  0.668000  0.666800  1
  H  H757  1  0.668000  0.593000  0.333200  1
  H  H758  1  0.332000  0.407000  0.833200  1
  H  H759  1  0.093000  0.832000  0.083200  1
  H  H760  1  0.907000  0.168000  0.583200  1
  H  H761  1  0.834400  0.190800  0.925400  1
  H  H762  1  0.165600  0.809200  0.425400  1
  H  H763  1  0.309200  0.334400  0.175400  1
  H  H764  1  0.690800  0.665600  0.675400  1
  H  H765  1  0.665600  0.690800  0.324600  1
  H  H766  1  0.334400  0.309200  0.824600  1
  H  H767  1  0.190800  0.834400  0.074600  1
  H  H768  1  0.809200  0.165600  0.574600  1
  H  H769  1  0.800500  0.170400  0.912700  1
  H  H770  1  0.199500  0.829600  0.412700  1
  H  H771  1  0.329600  0.300500  0.162700  1
  H  H772  1  0.670400  0.699500  0.662700  1
  H  H773  1  0.699500  0.670400  0.337300  1
  H  H774  1  0.300500  0.329600  0.837300  1
  H  H775  1  0.170400  0.800500  0.087300  1
  H  H776  1  0.829600  0.199500  0.587300  1
  H  H777  1  0.832900  0.146600  0.887000  1
  H  H778  1  0.167100  0.853400  0.387000  1
  H  H779  1  0.353400  0.332900  0.137000  1
  H  H780  1  0.646600  0.667100  0.637000  1
  H  H781  1  0.667100  0.646600  0.363000  1
  H  H782  1  0.332900  0.353400  0.863000  1
  H  H783  1  0.146600  0.832900  0.113000  1
  H  H784  1  0.853400  0.167100  0.613000  1
  H  H785  1  0.891200  0.153700  0.868300  1
  H  H786  1  0.108800  0.846300  0.368300  1
  H  H787  1  0.346300  0.391200  0.118300  1
  H  H788  1  0.653700  0.608800  0.618300  1
  H  H789  1  0.608800  0.653700  0.381700  1
  H  H790  1  0.391200  0.346300  0.881700  1
  H  H791  1  0.153700  0.891200  0.131700  1
  H  H792  1  0.846300  0.108800  0.631700  1
  H  H793  1  0.963700  0.185500  0.874900  1
  H  H794  1  0.036300  0.814500  0.374900  1
  H  H795  1  0.314500  0.463700  0.124900  1
  H  H796  1  0.685500  0.536300  0.624900  1
  H  H797  1  0.536300  0.685500  0.375100  1
  H  H798  1  0.463700  0.314500  0.875100  1
  H  H799  1  0.185500  0.963700  0.125100  1
  H  H800  1  0.814500  0.036300  0.625100  1
  H  H801  1  0.977800  0.210100  0.900200  1
  H  H802  1  0.022200  0.789900  0.400200  1
  H  H803  1  0.289900  0.477800  0.150200  1
  H  H804  1  0.710100  0.522200  0.650200  1
  H  H805  1  0.522200  0.710100  0.349800  1
  H  H806  1  0.477800  0.289900  0.849800  1
  H  H807  1  0.210100  0.977800  0.099800  1
  H  H808  1  0.789900  0.022200  0.599800  1
  H  H809  1  0.919400  0.202900  0.918900  1
  H  H810  1  0.080600  0.797100  0.418900  1
  H  H811  1  0.297100  0.419400  0.168900  1
  H  H812  1  0.702900  0.580600  0.668900  1
  H  H813  1  0.580600  0.702900  0.331100  1
  H  H814  1  0.419400  0.297100  0.831100  1
  H  H815  1  0.202900  0.919400  0.081100  1
  H  H816  1  0.797100  0.080600  0.581100  1
  H  H817  1  0.907100  0.067700  0.917600  1
  H  H818  1  0.092900  0.932300  0.417600  1
  H  H819  1  0.432300  0.407100  0.167600  1
  H  H820  1  0.567700  0.592900  0.667600  1
  H  H821  1  0.592900  0.567700  0.332400  1
  H  H822  1  0.407100  0.432300  0.832400  1
  H  H823  1  0.067700  0.907100  0.082400  1
  H  H824  1  0.932300  0.092900  0.582400  1
  H  H825  1  0.970600  0.099700  0.939100  1
  H  H826  1  0.029400  0.900300  0.439100  1
  H  H827  1  0.400300  0.470600  0.189100  1
  H  H828  1  0.599700  0.529400  0.689100  1
  H  H829  1  0.529400  0.599700  0.310900  1
  H  H830  1  0.470600  0.400300  0.810900  1
  H  H831  1  0.099700  0.970600  0.060900  1
  H  H832  1  0.900300  0.029400  0.560900  1
  H  H833  1  0.966000  0.002700  0.930200  1
  H  H834  1  0.034000  0.997300  0.430200  1
  H  H835  1  0.497300  0.466000  0.180200  1
  H  H836  1  0.502700  0.534000  0.680200  1
  H  H837  1  0.534000  0.502700  0.319800  1
  H  H838  1  0.466000  0.497300  0.819800  1
  H  H839  1  0.002700  0.966000  0.069800  1
  H  H840  1  0.997300  0.034000  0.569800  1
  H  H841  1  0.027300  0.998700  0.949800  1
  H  H842  1  0.972700  0.001300  0.449800  1
  H  H843  1  0.501300  0.527300  0.199800  1
  H  H844  1  0.498700  0.472700  0.699800  1
  H  H845  1  0.472700  0.498700  0.300200  1
  H  H846  1  0.527300  0.501300  0.800200  1
  H  H847  1  0.998700  0.027300  0.050200  1
  H  H848  1  0.001300  0.972700  0.550200  1
  H  H849  1  0.043300  0.034700  0.937000  1
  H  H850  1  0.956700  0.965300  0.437000  1
  H  H851  1  0.465300  0.543300  0.187000  1
  H  H852  1  0.534700  0.456700  0.687000  1
  H  H853  1  0.456700  0.534700  0.313000  1
  H  H854  1  0.543300  0.465300  0.813000  1
  H  H855  1  0.034700  0.043300  0.063000  1
  H  H856  1  0.965300  0.956700  0.563000  1
  H  H857  1  0.022500  0.052800  0.952900  1
  H  H858  1  0.977500  0.947200  0.452900  1
  H  H859  1  0.447200  0.522500  0.202900  1
  H  H860  1  0.552800  0.477500  0.702900  1
  H  H861  1  0.477500  0.552800  0.297100  1
  H  H862  1  0.522500  0.447200  0.797100  1
  H  H863  1  0.052800  0.022500  0.047100  1
  H  H864  1  0.947200  0.977500  0.547100  1
  H  H865  1  0.943700  0.988900  0.956700  1
  H  H866  1  0.056300  0.011100  0.456700  1
  H  H867  1  0.511100  0.443700  0.206700  1
  H  H868  1  0.488900  0.556300  0.706700  1
  H  H869  1  0.556300  0.488900  0.293300  1
  H  H870  1  0.443700  0.511100  0.793300  1
  H  H871  1  0.988900  0.943700  0.043300  1
  H  H872  1  0.011100  0.056300  0.543300  1
  H  H873  1  0.947300  0.042600  0.960600  1
  H  H874  1  0.052700  0.957400  0.460600  1
  H  H875  1  0.457400  0.447300  0.210600  1
  H  H876  1  0.542600  0.552700  0.710600  1
  H  H877  1  0.552700  0.542600  0.289400  1
  H  H878  1  0.447300  0.457400  0.789400  1
  H  H879  1  0.042600  0.947300  0.039400  1
  H  H880  1  0.957400  0.052700  0.539400  1
  H  H881  1  0.906300  0.024000  0.950100  1
  H  H882  1  0.093700  0.976000  0.450100  1
  H  H883  1  0.476000  0.406300  0.200100  1
  H  H884  1  0.524000  0.593700  0.700100  1
  H  H885  1  0.593700  0.524000  0.299900  1
  H  H886  1  0.406300  0.476000  0.799900  1
  H  H887  1  0.024000  0.906300  0.049900  1
  H  H888  1  0.976000  0.093700  0.549900  1
  H  H889  1  0.034500  0.127400  0.928700  1
  H  H890  1  0.965500  0.872600  0.428700  1
  H  H891  1  0.372600  0.534500  0.178700  1
  H  H892  1  0.627400  0.465500  0.678700  1
  H  H893  1  0.465500  0.627400  0.321300  1
  H  H894  1  0.534500  0.372600  0.821300  1
  H  H895  1  0.127400  0.034500  0.071300  1
  H  H896  1  0.872600  0.965500  0.571300  1
  H  H897  1  0.045300  0.116400  0.889500  1
  H  H898  1  0.954700  0.883600  0.389500  1
  H  H899  1  0.383600  0.545300  0.139500  1
  H  H900  1  0.616400  0.454700  0.639500  1
  H  H901  1  0.454700  0.616400  0.360500  1
  H  H902  1  0.545300  0.383600  0.860500  1
  H  H903  1  0.116400  0.045300  0.110500  1
  H  H904  1  0.883600  0.954700  0.610500  1
  H  H905  1  0.114500  0.126900  0.875600  1
  H  H906  1  0.885500  0.873100  0.375600  1
  H  H907  1  0.373100  0.614500  0.125600  1
  H  H908  1  0.626900  0.385500  0.625600  1
  H  H909  1  0.385500  0.626900  0.374400  1
  H  H910  1  0.614500  0.373100  0.874400  1
  H  H911  1  0.126900  0.114500  0.124400  1
  H  H912  1  0.873100  0.885500  0.624400  1
  H  H913  1  0.185900  0.129900  0.888600  1
  H  H914  1  0.814100  0.870100  0.388600  1
  H  H915  1  0.370100  0.685900  0.138600  1
  H  H916  1  0.629900  0.314100  0.638600  1
  H  H917  1  0.314100  0.629900  0.361400  1
  H  H918  1  0.685900  0.370100  0.861400  1
  H  H919  1  0.129900  0.185900  0.111400  1
  H  H920  1  0.870100  0.814100  0.611400  1
  H  H921  1  0.119100  0.112100  0.929400  1
  H  H922  1  0.880900  0.887900  0.429400  1
  H  H923  1  0.387900  0.619100  0.179400  1
  H  H924  1  0.612100  0.380900  0.679400  1
  H  H925  1  0.380900  0.612100  0.320600  1
  H  H926  1  0.619100  0.387900  0.820600  1
  H  H927  1  0.112100  0.119100  0.070600  1
  H  H928  1  0.887900  0.880900  0.570600  1
  H  H929  1  0.273800  0.084700  0.935800  1
  H  H930  1  0.726200  0.915300  0.435800  1
  H  H931  1  0.415300  0.773800  0.185800  1
  H  H932  1  0.584700  0.226200  0.685800  1
  H  H933  1  0.226200  0.584700  0.314200  1
  H  H934  1  0.773800  0.415300  0.814200  1
  H  H935  1  0.084700  0.273800  0.064200  1
  H  H936  1  0.915300  0.726200  0.564200  1
  H  H937  1  0.250100  0.080700  0.892700  1
  H  H938  1  0.749900  0.919300  0.392700  1
  H  H939  1  0.419300  0.750100  0.142700  1
  H  H940  1  0.580700  0.249900  0.642700  1
  H  H941  1  0.249900  0.580700  0.357300  1
  H  H942  1  0.750100  0.419300  0.857300  1
  H  H943  1  0.080700  0.250100  0.107300  1
  H  H944  1  0.919300  0.749900  0.607300  1
  H  H945  1  0.219700  0.045200  0.902600  1
  H  H946  1  0.780300  0.954800  0.402600  1
  H  H947  1  0.454800  0.719700  0.152600  1
  H  H948  1  0.545200  0.280300  0.652600  1
  H  H949  1  0.280300  0.545200  0.347400  1
  H  H950  1  0.719700  0.454800  0.847400  1
  H  H951  1  0.045200  0.219700  0.097400  1
  H  H952  1  0.954800  0.780300  0.597400  1
  H  H953  1  0.283300  0.007000  0.911100  1
  H  H954  1  0.716700  0.993000  0.411100  1
  H  H955  1  0.493000  0.783300  0.161100  1
  H  H956  1  0.507000  0.216700  0.661100  1
  H  H957  1  0.216700  0.507000  0.338900  1
  H  H958  1  0.783300  0.493000  0.838900  1
  H  H959  1  0.007000  0.283300  0.088900  1
  H  H960  1  0.993000  0.716700  0.588900  1
  H  H961  1  0.309600  0.031300  0.897100  1
  H  H962  1  0.690400  0.968700  0.397100  1
  H  H963  1  0.468700  0.809600  0.147100  1
  H  H964  1  0.531300  0.190400  0.647100  1
  H  H965  1  0.190400  0.531300  0.352900  1
  H  H966  1  0.809600  0.468700  0.852900  1
  H  H967  1  0.031300  0.309600  0.102900  1
  H  H968  1  0.968700  0.690400  0.602900  1
  H  H969  1  0.342500  0.085100  0.912300  1
  H  H970  1  0.657500  0.914900  0.412300  1
  H  H971  1  0.414900  0.842500  0.162300  1
  H  H972  1  0.585100  0.157500  0.662300  1
  H  H973  1  0.157500  0.585100  0.337700  1
  H  H974  1  0.842500  0.414900  0.837700  1
  H  H975  1  0.085100  0.342500  0.087700  1
  H  H976  1  0.914900  0.657500  0.587700  1
  H  H977  1  0.334800  0.046900  0.925400  1
  H  H978  1  0.665200  0.953100  0.425400  1
  H  H979  1  0.453100  0.834800  0.175400  1
  H  H980  1  0.546900  0.165200  0.675400  1
  H  H981  1  0.165200  0.546900  0.324600  1
  H  H982  1  0.834800  0.453100  0.824600  1
  H  H983  1  0.046900  0.334800  0.074600  1
  H  H984  1  0.953100  0.665200  0.574600  1
  H  H985  1  0.301100  0.139300  0.950000  1
  H  H986  1  0.698900  0.860700  0.450000  1
  H  H987  1  0.360700  0.801100  0.200000  1
  H  H988  1  0.639300  0.198900  0.700000  1
  H  H989  1  0.198900  0.639300  0.300000  1
  H  H990  1  0.801100  0.360700  0.800000  1
  H  H991  1  0.139300  0.301100  0.050000  1
  H  H992  1  0.860700  0.698900  0.550000  1
  H  H993  1  0.318700  0.213900  0.956400  1
  H  H994  1  0.681300  0.786100  0.456400  1
  H  H995  1  0.286100  0.818700  0.206400  1
  H  H996  1  0.713900  0.181300  0.706400  1
  H  H997  1  0.181300  0.713900  0.293600  1
  H  H998  1  0.818700  0.286100  0.793600  1
  H  H999  1  0.213900  0.318700  0.043600  1
  H  H1000  1  0.786100  0.681300  0.543600  1
  H  H1001  1  0.337400  0.221600  0.939400  1
  H  H1002  1  0.662600  0.778400  0.439400  1
  H  H1003  1  0.278400  0.837400  0.189400  1
  H  H1004  1  0.721600  0.162600  0.689400  1
  H  H1005  1  0.162600  0.721600  0.310600  1
  H  H1006  1  0.837400  0.278400  0.810600  1
  H  H1007  1  0.221600  0.337400  0.060600  1
  H  H1008  1  0.778400  0.662600  0.560600  1
  H  H1009  1  0.476600  0.203400  0.954500  1
  H  H1010  1  0.523400  0.796600  0.454500  1
  H  H1011  1  0.296600  0.976600  0.204500  1
  H  H1012  1  0.703400  0.023400  0.704500  1
  H  H1013  1  0.023400  0.703400  0.295500  1
  H  H1014  1  0.976600  0.296600  0.795500  1
  H  H1015  1  0.203400  0.476600  0.045500  1
  H  H1016  1  0.796600  0.523400  0.545500  1
  H  H1017  1  0.368900  0.267600  0.971000  1
  H  H1018  1  0.631100  0.732400  0.471000  1
  H  H1019  1  0.232400  0.868900  0.221000  1
  H  H1020  1  0.767600  0.131100  0.721000  1
  H  H1021  1  0.131100  0.767600  0.279000  1
  H  H1022  1  0.868900  0.232400  0.779000  1
  H  H1023  1  0.267600  0.368900  0.029000  1
  H  H1024  1  0.732400  0.631100  0.529000  1
  H  H1025  1  0.382800  0.281200  0.953900  1
  H  H1026  1  0.617200  0.718800  0.453900  1
  H  H1027  1  0.218800  0.882800  0.203900  1
  H  H1028  1  0.781200  0.117200  0.703900  1
  H  H1029  1  0.117200  0.781200  0.296100  1
  H  H1030  1  0.882800  0.218800  0.796100  1
  H  H1031  1  0.281200  0.382800  0.046100  1
  H  H1032  1  0.718800  0.617200  0.546100  1
  H  H1033  1  0.429500  0.307100  0.979500  1
  H  H1034  1  0.570500  0.692900  0.479500  1
  H  H1035  1  0.192900  0.929500  0.229500  1
  H  H1036  1  0.807100  0.070500  0.729500  1
  H  H1037  1  0.070500  0.807100  0.270500  1
  H  H1038  1  0.929500  0.192900  0.770500  1
  H  H1039  1  0.307100  0.429500  0.020500  1
  H  H1040  1  0.692900  0.570500  0.520500  1
  H  H1041  1  0.444700  0.318600  0.962300  1
  H  H1042  1  0.555300  0.681400  0.462300  1
  H  H1043  1  0.181400  0.944700  0.212300  1
  H  H1044  1  0.818600  0.055300  0.712300  1
  H  H1045  1  0.055300  0.818600  0.287700  1
  H  H1046  1  0.944700  0.181400  0.787700  1
  H  H1047  1  0.318600  0.444700  0.037700  1
  H  H1048  1  0.681400  0.555300  0.537700  1
  H  H1049  1  0.503400  0.269300  0.965000  1
  H  H1050  1  0.496600  0.730700  0.465000  1
  H  H1051  1  0.230700  0.003400  0.215000  1
  H  H1052  1  0.769300  0.996600  0.715000  1
  H  H1053  1  0.996600  0.769300  0.285000  1
  H  H1054  1  0.003400  0.230700  0.785000  1
  H  H1055  1  0.269300  0.503400  0.035000  1
  H  H1056  1  0.730700  0.496600  0.535000  1
  H  H1057  1  0.484900  0.254000  0.981500  1
  H  H1058  1  0.515100  0.746000  0.481500  1
  H  H1059  1  0.246000  0.984900  0.231500  1
  H  H1060  1  0.754000  0.015100  0.731500  1
  H  H1061  1  0.015100  0.754000  0.268500  1
  H  H1062  1  0.984900  0.246000  0.768500  1
  H  H1063  1  0.254000  0.484900  0.018500  1
  H  H1064  1  0.746000  0.515100  0.518500  1
  H  H1065  1  0.516000  0.145800  0.966300  1
  H  H1066  1  0.484000  0.854200  0.466300  1
  H  H1067  1  0.354200  0.016000  0.216300  1
  H  H1068  1  0.645800  0.984000  0.716300  1
  H  H1069  1  0.984000  0.645800  0.283700  1
  H  H1070  1  0.016000  0.354200  0.783700  1
  H  H1071  1  0.145800  0.516000  0.033700  1
  H  H1072  1  0.854200  0.484000  0.533700  1
  H  H1073  1  0.488600  0.135200  0.005700  1
  H  H1074  1  0.511400  0.864800  0.505700  1
  H  H1075  1  0.364800  0.988600  0.255700  1
  H  H1076  1  0.635200  0.011400  0.755700  1
  H  H1077  1  0.011400  0.635200  0.244300  1
  H  H1078  1  0.988600  0.364800  0.744300  1
  H  H1079  1  0.135200  0.488600  0.994300  1
  H  H1080  1  0.864800  0.511400  0.494300  1
  H  H1081  1  0.571400  0.092000  0.970600  1
  H  H1082  1  0.428600  0.908000  0.470600  1
  H  H1083  1  0.408000  0.071400  0.220600  1
  H  H1084  1  0.592000  0.928600  0.720600  1
  H  H1085  1  0.928600  0.592000  0.279400  1
  H  H1086  1  0.071400  0.408000  0.779400  1
  H  H1087  1  0.092000  0.571400  0.029400  1
  H  H1088  1  0.908000  0.428600  0.529400  1
  H  H1089  1  0.612100  0.043600  0.987700  1
  H  H1090  1  0.387900  0.956400  0.487700  1
  H  H1091  1  0.456400  0.112100  0.237700  1
  H  H1092  1  0.543600  0.887900  0.737700  1
  H  H1093  1  0.887900  0.543600  0.262300  1
  H  H1094  1  0.112100  0.456400  0.762300  1
  H  H1095  1  0.043600  0.612100  0.012300  1
  H  H1096  1  0.956400  0.387900  0.512300  1
  H  H1097  1  0.591000  0.041000  0.013800  1
  H  H1098  1  0.409000  0.959000  0.513800  1
  H  H1099  1  0.459000  0.091000  0.263800  1
  H  H1100  1  0.541000  0.909000  0.763800  1
  H  H1101  1  0.909000  0.541000  0.236200  1
  H  H1102  1  0.091000  0.459000  0.736200  1
  H  H1103  1  0.041000  0.591000  0.986200  1
  H  H1104  1  0.959000  0.409000  0.486200  1
  H  H1105  1  0.455700  0.439500  0.910400  1.0
  H  H1106  1  0.544300  0.560500  0.410400  1.0
  H  H1107  1  0.060500  0.955700  0.160400  1.0
  H  H1108  1  0.939500  0.044300  0.660400  1.0
  H  H1109  1  0.044300  0.939500  0.339600  1.0
  H  H1110  1  0.955700  0.060500  0.839600  1.0
  H  H1111  1  0.439500  0.455700  0.089600  1.0
  H  H1112  1  0.560500  0.544300  0.589600  1.0
  H  H1113  1  0.492700  0.454100  0.886800  1.0
  H  H1114  1  0.507300  0.545900  0.386800  1.0
  H  H1115  1  0.045900  0.992700  0.136800  1.0
  H  H1116  1  0.954100  0.007300  0.636800  1.0
  H  H1117  1  0.007300  0.954100  0.363200  1.0
  H  H1118  1  0.992700  0.045900  0.863200  1.0
  H  H1119  1  0.454100  0.492700  0.113200  1.0
  H  H1120  1  0.545900  0.507300  0.613200  1.0
  H  H1121  1  0.448500  0.472400  0.864900  1.0
  H  H1122  1  0.551500  0.527600  0.364900  1.0
  H  H1123  1  0.027600  0.948500  0.114900  1.0
  H  H1124  1  0.972400  0.051500  0.614900  1.0
  H  H1125  1  0.051500  0.972400  0.385100  1.0
  H  H1126  1  0.948500  0.027600  0.885100  1.0
  H  H1127  1  0.472400  0.448500  0.135100  1.0
  H  H1128  1  0.527600  0.551500  0.635100  1.0
  H  H1129  1  0.330100  0.461300  0.890200  1.0
  H  H1130  1  0.669900  0.538700  0.390200  1.0
  H  H1131  1  0.038700  0.830100  0.140200  1.0
  H  H1132  1  0.961300  0.169900  0.640200  1.0
  H  H1133  1  0.169900  0.961300  0.359800  1.0
  H  H1134  1  0.830100  0.038700  0.859800  1.0
  H  H1135  1  0.461300  0.330100  0.109800  1.0
  H  H1136  1  0.538700  0.669900  0.609800  1.0
  H  H1137  1  0.309200  0.513600  0.872400  1.0
  H  H1138  1  0.690800  0.486400  0.372400  1.0
  H  H1139  1  0.986400  0.809200  0.122400  1.0
  H  H1140  1  0.013600  0.190800  0.622400  1.0
  H  H1141  1  0.190800  0.013600  0.377600  1.0
  H  H1142  1  0.809200  0.986400  0.877600  1.0
  H  H1143  1  0.513600  0.309200  0.127600  1.0
  H  H1144  1  0.486400  0.690800  0.627600  1.0
  H  H1145  1  0.297700  0.489100  0.842600  1.0
  H  H1146  1  0.702300  0.510900  0.342600  1.0
  H  H1147  1  0.010900  0.797700  0.092600  1.0
  H  H1148  1  0.989100  0.202300  0.592600  1.0
  H  H1149  1  0.202300  0.989100  0.407400  1.0
  H  H1150  1  0.797700  0.010900  0.907400  1.0
  H  H1151  1  0.489100  0.297700  0.157400  1.0
  H  H1152  1  0.510900  0.702300  0.657400  1.0
  H  H1153  1  0.223100  0.512600  0.865600  1.0
  H  H1154  1  0.776900  0.487400  0.365600  1.0
  H  H1155  1  0.987400  0.723100  0.115600  1.0
  H  H1156  1  0.012600  0.276900  0.615600  1.0
  H  H1157  1  0.276900  0.012600  0.384400  1.0
  H  H1158  1  0.723100  0.987400  0.884400  1.0
  H  H1159  1  0.512600  0.223100  0.134400  1.0
  H  H1160  1  0.487400  0.776900  0.634400  1.0
  H  H1161  1  0.210000  0.510500  0.847800  1.0
  H  H1162  1  0.790000  0.489500  0.347800  1.0
  H  H1163  1  0.989500  0.710000  0.097800  1.0
  H  H1164  1  0.010500  0.290000  0.597800  1.0
  H  H1165  1  0.290000  0.010500  0.402200  1.0
  H  H1166  1  0.710000  0.989500  0.902200  1.0
  H  H1167  1  0.510500  0.210000  0.152200  1.0
  H  H1168  1  0.489500  0.790000  0.652200  1.0
  H  H1169  1  0.214900  0.432900  0.834000  1.0
  H  H1170  1  0.785100  0.567100  0.334000  1.0
  H  H1171  1  0.067100  0.714900  0.084000  1.0
  H  H1172  1  0.932900  0.285100  0.584000  1.0
  H  H1173  1  0.285100  0.932900  0.416000  1.0
  H  H1174  1  0.714900  0.067100  0.916000  1.0
  H  H1175  1  0.432900  0.214900  0.166000  1.0
  H  H1176  1  0.567100  0.785100  0.666000  1.0
  H  H1177  1  0.204700  0.352200  0.836100  1.0
  H  H1178  1  0.795300  0.647800  0.336100  1.0
  H  H1179  1  0.147800  0.704700  0.086100  1.0
  H  H1180  1  0.852200  0.295300  0.586100  1.0
  H  H1181  1  0.295300  0.852200  0.413900  1.0
  H  H1182  1  0.704700  0.147800  0.913900  1.0
  H  H1183  1  0.352200  0.204700  0.163900  1.0
  H  H1184  1  0.647800  0.795300  0.663900  1.0
  H  H1185  1  0.207600  0.316500  0.860400  1.0
  H  H1186  1  0.792400  0.683500  0.360400  1.0
  H  H1187  1  0.183500  0.707600  0.110400  1.0
  H  H1188  1  0.816500  0.292400  0.610400  1.0
  H  H1189  1  0.292400  0.816500  0.389600  1.0
  H  H1190  1  0.707600  0.183500  0.889600  1.0
  H  H1191  1  0.316500  0.207600  0.139600  1.0
  H  H1192  1  0.683500  0.792400  0.639600  1.0
  H  H1193  1  0.220700  0.361400  0.882500  1.0
  H  H1194  1  0.779300  0.638600  0.382500  1.0
  H  H1195  1  0.138600  0.720700  0.132500  1.0
  H  H1196  1  0.861400  0.279300  0.632500  1.0
  H  H1197  1  0.279300  0.861400  0.367500  1.0
  H  H1198  1  0.720700  0.138600  0.867500  1.0
  H  H1199  1  0.361400  0.220700  0.117500  1.0
  H  H1200  1  0.638600  0.779300  0.617500  1.0
  H  H1201  1  0.230900  0.442100  0.880400  1.0
  H  H1202  1  0.769100  0.557900  0.380400  1.0
  H  H1203  1  0.057900  0.730900  0.130400  1.0
  H  H1204  1  0.942100  0.269100  0.630400  1.0
  H  H1205  1  0.269100  0.942100  0.369600  1.0
  H  H1206  1  0.730900  0.057900  0.869600  1.0
  H  H1207  1  0.442100  0.230900  0.119600  1.0
  H  H1208  1  0.557900  0.769100  0.619600  1.0
  H  H1209  1  0.297600  0.535000  0.823500  1.0
  H  H1210  1  0.702400  0.465000  0.323500  1.0
  H  H1211  1  0.965000  0.797600  0.073500  1.0
  H  H1212  1  0.035000  0.202400  0.573500  1.0
  H  H1213  1  0.202400  0.035000  0.426500  1.0
  H  H1214  1  0.797600  0.965000  0.926500  1.0
  H  H1215  1  0.535000  0.297600  0.176500  1.0
  H  H1216  1  0.465000  0.702400  0.676500  1.0
  H  H1217  1  0.287500  0.627900  0.827300  1.0
  H  H1218  1  0.712500  0.372100  0.327300  1.0
  H  H1219  1  0.872100  0.787500  0.077300  1.0
  H  H1220  1  0.127900  0.212500  0.577300  1.0
  H  H1221  1  0.212500  0.127900  0.422700  1.0
  H  H1222  1  0.787500  0.872100  0.922700  1.0
  H  H1223  1  0.627900  0.287500  0.172700  1.0
  H  H1224  1  0.372100  0.712500  0.672700  1.0
  H  H1225  1  0.351600  0.653100  0.812500  1.0
  H  H1226  1  0.648400  0.346900  0.312500  1.0
  H  H1227  1  0.846900  0.851600  0.062500  1.0
  H  H1228  1  0.153100  0.148400  0.562500  1.0
  H  H1229  1  0.148400  0.153100  0.437500  1.0
  H  H1230  1  0.851600  0.846900  0.937500  1.0
  H  H1231  1  0.653100  0.351600  0.187500  1.0
  H  H1232  1  0.346900  0.648400  0.687500  1.0
  H  H1233  1  0.374700  0.623100  0.838000  1.0
  H  H1234  1  0.625300  0.376900  0.338000  1.0
  H  H1235  1  0.876900  0.874700  0.088000  1.0
  H  H1236  1  0.123100  0.125300  0.588000  1.0
  H  H1237  1  0.125300  0.123100  0.412000  1.0
  H  H1238  1  0.874700  0.876900  0.912000  1.0
  H  H1239  1  0.623100  0.374700  0.162000  1.0
  H  H1240  1  0.376900  0.625300  0.662000  1.0
  H  H1241  1  0.371700  0.571400  0.831800  1.0
  H  H1242  1  0.628300  0.428600  0.331800  1.0
  H  H1243  1  0.928600  0.871700  0.081800  1.0
  H  H1244  1  0.071400  0.128300  0.581800  1.0
  H  H1245  1  0.128300  0.071400  0.418200  1.0
  H  H1246  1  0.871700  0.928600  0.918200  1.0
  H  H1247  1  0.571400  0.371700  0.168200  1.0
  H  H1248  1  0.428600  0.628300  0.668200  1.0
  H  H1249  1  0.412100  0.604700  0.826100  1.0
  H  H1250  1  0.587900  0.395300  0.326100  1.0
  H  H1251  1  0.895300  0.912100  0.076100  1.0
  H  H1252  1  0.104700  0.087900  0.576100  1.0
  H  H1253  1  0.087900  0.104700  0.423900  1.0
  H  H1254  1  0.912100  0.895300  0.923900  1.0
  H  H1255  1  0.604700  0.412100  0.173900  1.0
  H  H1256  1  0.395300  0.587900  0.673900  1.0
  H  H1257  1  0.345200  0.590300  0.794100  1.0
  H  H1258  1  0.654800  0.409700  0.294100  1.0
  H  H1259  1  0.909700  0.845200  0.044100  1.0
  H  H1260  1  0.090300  0.154800  0.544100  1.0
  H  H1261  1  0.154800  0.090300  0.455900  1.0
  H  H1262  1  0.845200  0.909700  0.955900  1.0
  H  H1263  1  0.590300  0.345200  0.205900  1.0
  H  H1264  1  0.409700  0.654800  0.705900  1.0
  H  H1265  1  0.395400  0.586800  0.801600  1.0
  H  H1266  1  0.604600  0.413200  0.301600  1.0
  H  H1267  1  0.913200  0.895400  0.051600  1.0
  H  H1268  1  0.086800  0.104600  0.551600  1.0
  H  H1269  1  0.104600  0.086800  0.448400  1.0
  H  H1270  1  0.895400  0.913200  0.948400  1.0
  H  H1271  1  0.586800  0.395400  0.198400  1.0
  H  H1272  1  0.413200  0.604600  0.698400  1.0
  H  H1273  1  0.355000  0.553500  0.807300  1.0
  H  H1274  1  0.645000  0.446500  0.307300  1.0
  H  H1275  1  0.946500  0.855000  0.057300  1.0
  H  H1276  1  0.053500  0.145000  0.557300  1.0
  H  H1277  1  0.145000  0.053500  0.442700  1.0
  H  H1278  1  0.855000  0.946500  0.942700  1.0
  H  H1279  1  0.553500  0.355000  0.192700  1.0
  H  H1280  1  0.446500  0.645000  0.692700  1.0
  H  H1281  1  0.251300  0.671400  0.809100  1.0
  H  H1282  1  0.748700  0.328600  0.309100  1.0
  H  H1283  1  0.828600  0.751300  0.059100  1.0
  H  H1284  1  0.171400  0.248700  0.559100  1.0
  H  H1285  1  0.248700  0.171400  0.440900  1.0
  H  H1286  1  0.751300  0.828600  0.940900  1.0
  H  H1287  1  0.671400  0.251300  0.190900  1.0
  H  H1288  1  0.328600  0.748700  0.690900  1.0
  H  H1289  1  0.195600  0.625400  0.789400  1.0
  H  H1290  1  0.804400  0.374600  0.289400  1.0
  H  H1291  1  0.874600  0.695600  0.039400  1.0
  H  H1292  1  0.125400  0.304400  0.539400  1.0
  H  H1293  1  0.304400  0.125400  0.460600  1.0
  H  H1294  1  0.695600  0.874600  0.960600  1.0
  H  H1295  1  0.625400  0.195600  0.210600  1.0
  H  H1296  1  0.374600  0.804400  0.710600  1.0
  H  H1297  1  0.172800  0.701900  0.800900  1.0
  H  H1298  1  0.827200  0.298100  0.300900  1.0
  H  H1299  1  0.798100  0.672800  0.050900  1.0
  H  H1300  1  0.201900  0.327200  0.550900  1.0
  H  H1301  1  0.327200  0.201900  0.449100  1.0
  H  H1302  1  0.672800  0.798100  0.949100  1.0
  H  H1303  1  0.701900  0.172800  0.199100  1.0
  H  H1304  1  0.298100  0.827200  0.699100  1.0
  H  H1305  1  0.211300  0.726900  0.790700  1.0
  H  H1306  1  0.788700  0.273100  0.290700  1.0
  H  H1307  1  0.773100  0.711300  0.040700  1.0
  H  H1308  1  0.226900  0.288700  0.540700  1.0
  H  H1309  1  0.288700  0.226900  0.459300  1.0
  H  H1310  1  0.711300  0.773100  0.959300  1.0
  H  H1311  1  0.726900  0.211300  0.209300  1.0
  H  H1312  1  0.273100  0.788700  0.709300  1.0
  H  H1313  1  0.097000  0.672800  0.786400  1.0
  H  H1314  1  0.903000  0.327200  0.286400  1.0
  H  H1315  1  0.827200  0.597000  0.036400  1.0
  H  H1316  1  0.172800  0.403000  0.536400  1.0
  H  H1317  1  0.403000  0.172800  0.463600  1.0
  H  H1318  1  0.597000  0.827200  0.963600  1.0
  H  H1319  1  0.672800  0.097000  0.213600  1.0
  H  H1320  1  0.327200  0.903000  0.713600  1.0
  H  H1321  1  0.048900  0.683700  0.764800  1.0
  H  H1322  1  0.951100  0.316300  0.264800  1.0
  H  H1323  1  0.816300  0.548900  0.014800  1.0
  H  H1324  1  0.183700  0.451100  0.514800  1.0
  H  H1325  1  0.451100  0.183700  0.485200  1.0
  H  H1326  1  0.548900  0.816300  0.985200  1.0
  H  H1327  1  0.683700  0.048900  0.235200  1.0
  H  H1328  1  0.316300  0.951100  0.735200  1.0
  H  H1329  1  0.076600  0.724600  0.743400  1.0
  H  H1330  1  0.923400  0.275400  0.243400  1.0
  H  H1331  1  0.775400  0.576600  0.993400  1.0
  H  H1332  1  0.224600  0.423400  0.493400  1.0
  H  H1333  1  0.423400  0.224600  0.506600  1.0
  H  H1334  1  0.576600  0.775400  0.006600  1.0
  H  H1335  1  0.724600  0.076600  0.256600  1.0
  H  H1336  1  0.275400  0.923400  0.756600  1.0
  H  H1337  1  0.152500  0.754600  0.743400  1.0
  H  H1338  1  0.847500  0.245400  0.243400  1.0
  H  H1339  1  0.745400  0.652500  0.993400  1.0
  H  H1340  1  0.254600  0.347500  0.493400  1.0
  H  H1341  1  0.347500  0.254600  0.506600  1.0
  H  H1342  1  0.652500  0.745400  0.006600  1.0
  H  H1343  1  0.754600  0.152500  0.256600  1.0
  H  H1344  1  0.245400  0.847500  0.756600  1.0
  H  H1345  1  0.200600  0.743700  0.764900  1.0
  H  H1346  1  0.799400  0.256300  0.264900  1.0
  H  H1347  1  0.756300  0.700600  0.014900  1.0
  H  H1348  1  0.243700  0.299400  0.514900  1.0
  H  H1349  1  0.299400  0.243700  0.485100  1.0
  H  H1350  1  0.700600  0.756300  0.985100  1.0
  H  H1351  1  0.743700  0.200600  0.235100  1.0
  H  H1352  1  0.256300  0.799400  0.735100  1.0
  H  H1353  1  0.210900  0.610300  0.764200  1.0
  H  H1354  1  0.789100  0.389700  0.264200  1.0
  H  H1355  1  0.889700  0.710900  0.014200  1.0
  H  H1356  1  0.110300  0.289100  0.514200  1.0
  H  H1357  1  0.289100  0.110300  0.485800  1.0
  H  H1358  1  0.710900  0.889700  0.985800  1.0
  H  H1359  1  0.610300  0.210900  0.235800  1.0
  H  H1360  1  0.389700  0.789100  0.735800  1.0
  H  H1361  1  0.279000  0.652600  0.747000  1.0
  H  H1362  1  0.721000  0.347400  0.247000  1.0
  H  H1363  1  0.847400  0.779000  0.997000  1.0
  H  H1364  1  0.152600  0.221000  0.497000  1.0
  H  H1365  1  0.221000  0.152600  0.503000  1.0
  H  H1366  1  0.779000  0.847400  0.003000  1.0
  H  H1367  1  0.652600  0.279000  0.253000  1.0
  H  H1368  1  0.347400  0.721000  0.753000  1.0
  H  H1369  1  0.257800  0.554600  0.745500  1.0
  H  H1370  1  0.742200  0.445400  0.245500  1.0
  H  H1371  1  0.945400  0.757800  0.995500  1.0
  H  H1372  1  0.054600  0.242200  0.495500  1.0
  H  H1373  1  0.242200  0.054600  0.504500  1.0
  H  H1374  1  0.757800  0.945400  0.004500  1.0
  H  H1375  1  0.554600  0.257800  0.254500  1.0
  H  H1376  1  0.445400  0.742200  0.754500  1.0
  H  H1377  1  0.325800  0.547700  0.729600  1.0
  H  H1378  1  0.674200  0.452300  0.229600  1.0
  H  H1379  1  0.952300  0.825800  0.979600  1.0
  H  H1380  1  0.047700  0.174200  0.479600  1.0
  H  H1381  1  0.174200  0.047700  0.520400  1.0
  H  H1382  1  0.825800  0.952300  0.020400  1.0
  H  H1383  1  0.547700  0.325800  0.270400  1.0
  H  H1384  1  0.452300  0.674200  0.770400  1.0
  H  H1385  1  0.292400  0.583400  0.721200  1.0
  H  H1386  1  0.707600  0.416600  0.221200  1.0
  H  H1387  1  0.916600  0.792400  0.971200  1.0
  H  H1388  1  0.083400  0.207600  0.471200  1.0
  H  H1389  1  0.207600  0.083400  0.528800  1.0
  H  H1390  1  0.792400  0.916600  0.028800  1.0
  H  H1391  1  0.583400  0.292400  0.278800  1.0
  H  H1392  1  0.416600  0.707600  0.778800  1.0
  H  H1393  1  0.335500  0.601900  0.730800  1.0
  H  H1394  1  0.664500  0.398100  0.230800  1.0
  H  H1395  1  0.898100  0.835500  0.980800  1.0
  H  H1396  1  0.101900  0.164500  0.480800  1.0
  H  H1397  1  0.164500  0.101900  0.519200  1.0
  H  H1398  1  0.835500  0.898100  0.019200  1.0
  H  H1399  1  0.601900  0.335500  0.269200  1.0
  H  H1400  1  0.398100  0.664500  0.769200  1.0
  H  H1401  1  0.334900  0.543200  0.754600  1.0
  H  H1402  1  0.665100  0.456800  0.254600  1.0
  H  H1403  1  0.956800  0.834900  0.004600  1.0
  H  H1404  1  0.043200  0.165100  0.504600  1.0
  H  H1405  1  0.165100  0.043200  0.495400  1.0
  H  H1406  1  0.834900  0.956800  0.995400  1.0
  H  H1407  1  0.543200  0.334900  0.245400  1.0
  H  H1408  1  0.456800  0.665100  0.745400  1.0
  H  H1409  1  0.343300  0.597700  0.755300  1.0
  H  H1410  1  0.656700  0.402300  0.255300  1.0
  H  H1411  1  0.902300  0.843300  0.005300  1.0
  H  H1412  1  0.097700  0.156700  0.505300  1.0
  H  H1413  1  0.156700  0.097700  0.494700  1.0
  H  H1414  1  0.843300  0.902300  0.994700  1.0
  H  H1415  1  0.597700  0.343300  0.244700  1.0
  H  H1416  1  0.402300  0.656700  0.744700  1.0
  H  H1417  1  0.308500  0.573800  0.767000  1.0
  H  H1418  1  0.691500  0.426200  0.267000  1.0
  H  H1419  1  0.926200  0.808500  0.017000  1.0
  H  H1420  1  0.073800  0.191500  0.517000  1.0
  H  H1421  1  0.191500  0.073800  0.483000  1.0
  H  H1422  1  0.808500  0.926200  0.983000  1.0
  H  H1423  1  0.573800  0.308500  0.233000  1.0
  H  H1424  1  0.426200  0.691500  0.733000  1.0
  H  H1425  1  0.251700  0.690200  0.727000  1.0
  H  H1426  1  0.748300  0.309800  0.227000  1.0
  H  H1427  1  0.809800  0.751700  0.977000  1.0
  H  H1428  1  0.190200  0.248300  0.477000  1.0
  H  H1429  1  0.248300  0.190200  0.523000  1.0
  H  H1430  1  0.751700  0.809800  0.023000  1.0
  H  H1431  1  0.690200  0.251700  0.273000  1.0
  H  H1432  1  0.309800  0.748300  0.773000  1.0
  H  H1433  1  0.139400  0.675600  0.717600  1.0
  H  H1434  1  0.860600  0.324400  0.217600  1.0
  H  H1435  1  0.824400  0.639400  0.967600  1.0
  H  H1436  1  0.175600  0.360600  0.467600  1.0
  H  H1437  1  0.360600  0.175600  0.532400  1.0
  H  H1438  1  0.639400  0.824400  0.032400  1.0
  H  H1439  1  0.675600  0.139400  0.282400  1.0
  H  H1440  1  0.324400  0.860600  0.782400  1.0
  H  H1441  1  0.105600  0.691100  0.693600  1.0
  H  H1442  1  0.894400  0.308900  0.193600  1.0
  H  H1443  1  0.808900  0.605600  0.943600  1.0
  H  H1444  1  0.191100  0.394400  0.443600  1.0
  H  H1445  1  0.394400  0.191100  0.556400  1.0
  H  H1446  1  0.605600  0.808900  0.056400  1.0
  H  H1447  1  0.691100  0.105600  0.306400  1.0
  H  H1448  1  0.308900  0.894400  0.806400  1.0
  H  H1449  1  0.153000  0.707500  0.672300  1.0
  H  H1450  1  0.847000  0.292500  0.172300  1.0
  H  H1451  1  0.792500  0.653000  0.922300  1.0
  H  H1452  1  0.207500  0.347000  0.422300  1.0
  H  H1453  1  0.347000  0.207500  0.577700  1.0
  H  H1454  1  0.653000  0.792500  0.077700  1.0
  H  H1455  1  0.707500  0.153000  0.327700  1.0
  H  H1456  1  0.292500  0.847000  0.827700  1.0
  H  H1457  1  0.267900  0.692900  0.699100  1.0
  H  H1458  1  0.732100  0.307100  0.199100  1.0
  H  H1459  1  0.807100  0.767900  0.949100  1.0
  H  H1460  1  0.192900  0.232100  0.449100  1.0
  H  H1461  1  0.232100  0.192900  0.550900  1.0
  H  H1462  1  0.767900  0.807100  0.050900  1.0
  H  H1463  1  0.692900  0.267900  0.300900  1.0
  H  H1464  1  0.307100  0.732100  0.800900  1.0
  H  H1465  1  0.311600  0.692800  0.650900  1.0
  H  H1466  1  0.688400  0.307200  0.150900  1.0
  H  H1467  1  0.807200  0.811600  0.900900  1.0
  H  H1468  1  0.192800  0.188400  0.400900  1.0
  H  H1469  1  0.188400  0.192800  0.599100  1.0
  H  H1470  1  0.811600  0.807200  0.099100  1.0
  H  H1471  1  0.692800  0.311600  0.349100  1.0
  H  H1472  1  0.307200  0.688400  0.849100  1.0
  H  H1473  1  0.180800  0.664900  0.652700  1.0
  H  H1474  1  0.819200  0.335100  0.152700  1.0
  H  H1475  1  0.835100  0.680800  0.902700  1.0
  H  H1476  1  0.164900  0.319200  0.402700  1.0
  H  H1477  1  0.319200  0.164900  0.597300  1.0
  H  H1478  1  0.680800  0.835100  0.097300  1.0
  H  H1479  1  0.664900  0.180800  0.347300  1.0
  H  H1480  1  0.335100  0.819200  0.847300  1.0
  H  H1481  1  0.220100  0.631400  0.659300  1.0
  H  H1482  1  0.779900  0.368600  0.159300  1.0
  H  H1483  1  0.868600  0.720100  0.909300  1.0
  H  H1484  1  0.131400  0.279900  0.409300  1.0
  H  H1485  1  0.279900  0.131400  0.590700  1.0
  H  H1486  1  0.720100  0.868600  0.090700  1.0
  H  H1487  1  0.631400  0.220100  0.340700  1.0
  H  H1488  1  0.368600  0.779900  0.840700  1.0
  H  H1489  1  0.203100  0.654000  0.628700  1.0
  H  H1490  1  0.796900  0.346000  0.128700  1.0
  H  H1491  1  0.846000  0.703100  0.878700  1.0
  H  H1492  1  0.154000  0.296900  0.378700  1.0
  H  H1493  1  0.296900  0.154000  0.621300  1.0
  H  H1494  1  0.703100  0.846000  0.121300  1.0
  H  H1495  1  0.654000  0.203100  0.371300  1.0
  H  H1496  1  0.346000  0.796900  0.871300  1.0
  H  H1497  1  0.230400  0.610100  0.635100  1.0
  H  H1498  1  0.769600  0.389900  0.135100  1.0
  H  H1499  1  0.889900  0.730400  0.885100  1.0
  H  H1500  1  0.110100  0.269600  0.385100  1.0
  H  H1501  1  0.269600  0.110100  0.614900  1.0
  H  H1502  1  0.730400  0.889900  0.114900  1.0
  H  H1503  1  0.610100  0.230400  0.364900  1.0
  H  H1504  1  0.389900  0.769600  0.864900  1.0
  H  H1505  1  0.299200  0.644200  0.630500  1.0
  H  H1506  1  0.700800  0.355800  0.130500  1.0
  H  H1507  1  0.855800  0.799200  0.880500  1.0
  H  H1508  1  0.144200  0.200800  0.380500  1.0
  H  H1509  1  0.200800  0.144200  0.619500  1.0
  H  H1510  1  0.799200  0.855800  0.119500  1.0
  H  H1511  1  0.644200  0.299200  0.369500  1.0
  H  H1512  1  0.355800  0.700800  0.869500  1.0
  H  H1513  1  0.271600  0.685300  0.622000  1.0
  H  H1514  1  0.728400  0.314700  0.122000  1.0
  H  H1515  1  0.814700  0.771600  0.872000  1.0
  H  H1516  1  0.185300  0.228400  0.372000  1.0
  H  H1517  1  0.228400  0.185300  0.628000  1.0
  H  H1518  1  0.771600  0.814700  0.128000  1.0
  H  H1519  1  0.685300  0.271600  0.378000  1.0
  H  H1520  1  0.314700  0.728400  0.878000  1.0
  H  H1521  1  0.350200  0.758800  0.643500  1.0
  H  H1522  1  0.649800  0.241200  0.143500  1.0
  H  H1523  1  0.741200  0.850200  0.893500  1.0
  H  H1524  1  0.258800  0.149800  0.393500  1.0
  H  H1525  1  0.149800  0.258800  0.606500  1.0
  H  H1526  1  0.850200  0.741200  0.106500  1.0
  H  H1527  1  0.758800  0.350200  0.356500  1.0
  H  H1528  1  0.241200  0.649800  0.856500  1.0
  H  H1529  1  0.355300  0.834700  0.632900  1.0
  H  H1530  1  0.644700  0.165300  0.132900  1.0
  H  H1531  1  0.665300  0.855300  0.882900  1.0
  H  H1532  1  0.334700  0.144700  0.382900  1.0
  H  H1533  1  0.144700  0.334700  0.617100  1.0
  H  H1534  1  0.855300  0.665300  0.117100  1.0
  H  H1535  1  0.834700  0.355300  0.367100  1.0
  H  H1536  1  0.165300  0.644700  0.867100  1.0
  H  H1537  1  0.305400  0.827400  0.625400  1.0
  H  H1538  1  0.694600  0.172600  0.125400  1.0
  H  H1539  1  0.672600  0.805400  0.875400  1.0
  H  H1540  1  0.327400  0.194600  0.375400  1.0
  H  H1541  1  0.194600  0.327400  0.624600  1.0
  H  H1542  1  0.805400  0.672600  0.124600  1.0
  H  H1543  1  0.827400  0.305400  0.374600  1.0
  H  H1544  1  0.172600  0.694600  0.874600  1.0
  H  H1545  1  0.374900  0.788100  0.583200  1.0
  H  H1546  1  0.625100  0.211900  0.083200  1.0
  H  H1547  1  0.711900  0.874900  0.833200  1.0
  H  H1548  1  0.288100  0.125100  0.333200  1.0
  H  H1549  1  0.125100  0.288100  0.666800  1.0
  H  H1550  1  0.874900  0.711900  0.166800  1.0
  H  H1551  1  0.788100  0.374900  0.416800  1.0
  H  H1552  1  0.211900  0.625100  0.916800  1.0
  H  H1553  1  0.363400  0.902700  0.609400  1.0
  H  H1554  1  0.636600  0.097300  0.109400  1.0
  H  H1555  1  0.597300  0.863400  0.859400  1.0
  H  H1556  1  0.402700  0.136600  0.359400  1.0
  H  H1557  1  0.136600  0.402700  0.640600  1.0
  H  H1558  1  0.863400  0.597300  0.140600  1.0
  H  H1559  1  0.902700  0.363400  0.390600  1.0
  H  H1560  1  0.097300  0.636600  0.890600  1.0
  H  H1561  1  0.317800  0.888500  0.599900  1.0
  H  H1562  1  0.682200  0.111500  0.099900  1.0
  H  H1563  1  0.611500  0.817800  0.849900  1.0
  H  H1564  1  0.388500  0.182200  0.349900  1.0
  H  H1565  1  0.182200  0.388500  0.650100  1.0
  H  H1566  1  0.817800  0.611500  0.150100  1.0
  H  H1567  1  0.888500  0.317800  0.400100  1.0
  H  H1568  1  0.111500  0.682200  0.900100  1.0
  H  H1569  1  0.356800  0.926900  0.580700  1.0
  H  H1570  1  0.643200  0.073100  0.080700  1.0
  H  H1571  1  0.573100  0.856800  0.830700  1.0
  H  H1572  1  0.426900  0.143200  0.330700  1.0
  H  H1573  1  0.143200  0.426900  0.669300  1.0
  H  H1574  1  0.856800  0.573100  0.169300  1.0
  H  H1575  1  0.926900  0.356800  0.419300  1.0
  H  H1576  1  0.073100  0.643200  0.919300  1.0
  H  H1577  1  0.406500  0.913100  0.587500  1.0
  H  H1578  1  0.593500  0.086900  0.087500  1.0
  H  H1579  1  0.586900  0.906500  0.837500  1.0
  H  H1580  1  0.413100  0.093500  0.337500  1.0
  H  H1581  1  0.093500  0.413100  0.662500  1.0
  H  H1582  1  0.906500  0.586900  0.162500  1.0
  H  H1583  1  0.913100  0.406500  0.412500  1.0
  H  H1584  1  0.086900  0.593500  0.912500  1.0
  H  H1585  1  0.399800  0.861100  0.567100  1.0
  H  H1586  1  0.600200  0.138900  0.067100  1.0
  H  H1587  1  0.638900  0.899800  0.817100  1.0
  H  H1588  1  0.361100  0.100200  0.317100  1.0
  H  H1589  1  0.100200  0.361100  0.682900  1.0
  H  H1590  1  0.899800  0.638900  0.182900  1.0
  H  H1591  1  0.861100  0.399800  0.432900  1.0
  H  H1592  1  0.138900  0.600200  0.932900  1.0
  H  H1593  1  0.345600  0.853400  0.570200  1.0
  H  H1594  1  0.654400  0.146600  0.070200  1.0
  H  H1595  1  0.646600  0.845600  0.820200  1.0
  H  H1596  1  0.353400  0.154400  0.320200  1.0
  H  H1597  1  0.154400  0.353400  0.679800  1.0
  H  H1598  1  0.845600  0.646600  0.179800  1.0
  H  H1599  1  0.853400  0.345600  0.429800  1.0
  H  H1600  1  0.146600  0.654400  0.929800  1.0
  H  H1601  1  0.434000  0.774100  0.575000  1.0
  H  H1602  1  0.566000  0.225900  0.075000  1.0
  H  H1603  1  0.725900  0.934000  0.825000  1.0
  H  H1604  1  0.274100  0.066000  0.325000  1.0
  H  H1605  1  0.066000  0.274100  0.675000  1.0
  H  H1606  1  0.934000  0.725900  0.175000  1.0
  H  H1607  1  0.774100  0.434000  0.425000  1.0
  H  H1608  1  0.225900  0.566000  0.925000  1.0
  H  H1609  1  0.487900  0.704400  0.575800  1.0
  H  H1610  1  0.512100  0.295600  0.075800  1.0
  H  H1611  1  0.795600  0.987900  0.825800  1.0
  H  H1612  1  0.204400  0.012100  0.325800  1.0
  H  H1613  1  0.012100  0.204400  0.674200  1.0
  H  H1614  1  0.987900  0.795600  0.174200  1.0
  H  H1615  1  0.704400  0.487900  0.424200  1.0
  H  H1616  1  0.295600  0.512100  0.924200  1.0
  H  H1617  1  0.530000  0.835300  0.586400  1.0
  H  H1618  1  0.470000  0.164700  0.086400  1.0
  H  H1619  1  0.664700  0.030000  0.836400  1.0
  H  H1620  1  0.335300  0.970000  0.336400  1.0
  H  H1621  1  0.970000  0.335300  0.663600  1.0
  H  H1622  1  0.030000  0.664700  0.163600  1.0
  H  H1623  1  0.835300  0.530000  0.413600  1.0
  H  H1624  1  0.164700  0.470000  0.913600  1.0
  H  H1625  1  0.606600  0.808500  0.589300  1.0
  H  H1626  1  0.393400  0.191500  0.089300  1.0
  H  H1627  1  0.691500  0.106600  0.839300  1.0
  H  H1628  1  0.308500  0.893400  0.339300  1.0
  H  H1629  1  0.893400  0.308500  0.660700  1.0
  H  H1630  1  0.106600  0.691500  0.160700  1.0
  H  H1631  1  0.808500  0.606600  0.410700  1.0
  H  H1632  1  0.191500  0.393400  0.910700  1.0
  H  H1633  1  0.623800  0.729600  0.585400  1.0
  H  H1634  1  0.376200  0.270400  0.085400  1.0
  H  H1635  1  0.770400  0.123800  0.835400  1.0
  H  H1636  1  0.229600  0.876200  0.335400  1.0
  H  H1637  1  0.876200  0.229600  0.664600  1.0
  H  H1638  1  0.123800  0.770400  0.164600  1.0
  H  H1639  1  0.729600  0.623800  0.414600  1.0
  H  H1640  1  0.270400  0.376200  0.914600  1.0
  C  C1641  1  0.408800  0.078600  0.023000  1
  C  C1642  1  0.591200  0.921400  0.523000  1
  C  C1643  1  0.421400  0.908800  0.273000  1
  C  C1644  1  0.578600  0.091200  0.773000  1
  C  C1645  1  0.091200  0.578600  0.227000  1
  C  C1646  1  0.908800  0.421400  0.727000  1
  C  C1647  1  0.078600  0.408800  0.977000  1
  C  C1648  1  0.921400  0.591200  0.477000  1
  C  C1649  1  0.367200  0.055800  0.019100  1
  C  C1650  1  0.632800  0.944200  0.519100  1
  C  C1651  1  0.444200  0.867200  0.269100  1
  C  C1652  1  0.555800  0.132800  0.769100  1
  C  C1653  1  0.132800  0.555800  0.230900  1
  C  C1654  1  0.867200  0.444200  0.730900  1
  C  C1655  1  0.055800  0.367200  0.980900  1
  C  C1656  1  0.944200  0.632800  0.480900  1
  C  C1657  1  0.363500  0.007300  0.021000  1
  C  C1658  1  0.636500  0.992700  0.521000  1
  C  C1659  1  0.492700  0.863500  0.271000  1
  C  C1660  1  0.507300  0.136500  0.771000  1
  C  C1661  1  0.136500  0.507300  0.229000  1
  C  C1662  1  0.863500  0.492700  0.729000  1
  C  C1663  1  0.007300  0.363500  0.979000  1
  C  C1664  1  0.992700  0.636500  0.479000  1
  C  C1665  1  0.401400  0.981800  0.026700  1
  C  C1666  1  0.598600  0.018200  0.526700  1
  C  C1667  1  0.518200  0.901400  0.276700  1
  C  C1668  1  0.481800  0.098600  0.776700  1
  C  C1669  1  0.098600  0.481800  0.223300  1
  C  C1670  1  0.901400  0.518200  0.723300  1
  C  C1671  1  0.981800  0.401400  0.973300  1
  C  C1672  1  0.018200  0.598600  0.473300  1
  C  C1673  1  0.442900  0.004600  0.030600  1
  C  C1674  1  0.557100  0.995400  0.530600  1
  C  C1675  1  0.495400  0.942900  0.280600  1
  C  C1676  1  0.504600  0.057100  0.780600  1
  C  C1677  1  0.057100  0.504600  0.219400  1
  C  C1678  1  0.942900  0.495400  0.719400  1
  C  C1679  1  0.004600  0.442900  0.969400  1
  C  C1680  1  0.995400  0.557100  0.469400  1
  C  C1681  1  0.330400  0.084100  0.013800  1
  C  C1682  1  0.669600  0.915900  0.513800  1
  C  C1683  1  0.415900  0.830400  0.263800  1
  C  C1684  1  0.584100  0.169600  0.763800  1
  C  C1685  1  0.169600  0.584100  0.236200  1
  C  C1686  1  0.830400  0.415900  0.736200  1
  C  C1687  1  0.084100  0.330400  0.986200  1
  C  C1688  1  0.915900  0.669600  0.486200  1
  C  C1689  1  0.295900  0.154600  0.001500  1
  C  C1690  1  0.704100  0.845400  0.501500  1
  C  C1691  1  0.345400  0.795900  0.251500  1
  C  C1692  1  0.654600  0.204100  0.751500  1
  C  C1693  1  0.204100  0.654600  0.248500  1
  C  C1694  1  0.795900  0.345400  0.748500  1
  C  C1695  1  0.154600  0.295900  0.998500  1
  C  C1696  1  0.845400  0.704100  0.498500  1
  C  C1697  1  0.276800  0.137900  0.985900  1
  C  C1698  1  0.723200  0.862100  0.485900  1
  C  C1699  1  0.362100  0.776800  0.235900  1
  C  C1700  1  0.637900  0.223200  0.735900  1
  C  C1701  1  0.223200  0.637900  0.264100  1
  C  C1702  1  0.776800  0.362100  0.764100  1
  C  C1703  1  0.137900  0.276800  0.014100  1
  C  C1704  1  0.862100  0.723200  0.514100  1
  C  C1705  1  0.313100  0.203800  0.000900  1
  C  C1706  1  0.686900  0.796200  0.500900  1
  C  C1707  1  0.296200  0.813100  0.250900  1
  C  C1708  1  0.703800  0.186900  0.750900  1
  C  C1709  1  0.186900  0.703800  0.249100  1
  C  C1710  1  0.813100  0.296200  0.749100  1
  C  C1711  1  0.203800  0.313100  0.999100  1
  C  C1712  1  0.796200  0.686900  0.499100  1
  C  C1713  1  0.317700  0.223700  0.016700  1
  C  C1714  1  0.682300  0.776300  0.516700  1
  C  C1715  1  0.276300  0.817700  0.266700  1
  C  C1716  1  0.723700  0.182300  0.766700  1
  C  C1717  1  0.182300  0.723700  0.233300  1
  C  C1718  1  0.817700  0.276300  0.733300  1
  C  C1719  1  0.223700  0.317700  0.983300  1
  C  C1720  1  0.776300  0.682300  0.483300  1
  C  C1721  1  0.279400  0.225200  0.026700  1
  C  C1722  1  0.720600  0.774800  0.526700  1
  C  C1723  1  0.274800  0.779400  0.276700  1
  C  C1724  1  0.725200  0.220600  0.776700  1
  C  C1725  1  0.220600  0.725200  0.223300  1
  C  C1726  1  0.779400  0.274800  0.723300  1
  C  C1727  1  0.225200  0.279400  0.973300  1
  C  C1728  1  0.774800  0.720600  0.473300  1
  C  C1729  1  0.285100  0.240900  0.041900  1
  C  C1730  1  0.714900  0.759100  0.541900  1
  C  C1731  1  0.259100  0.785100  0.291900  1
  C  C1732  1  0.740900  0.214900  0.791900  1
  C  C1733  1  0.214900  0.740900  0.208100  1
  C  C1734  1  0.785100  0.259100  0.708100  1
  C  C1735  1  0.240900  0.285100  0.958100  1
  C  C1736  1  0.759100  0.714900  0.458100  1
  C  C1737  1  0.329200  0.255100  0.047100  1
  C  C1738  1  0.670800  0.744900  0.547100  1
  C  C1739  1  0.244900  0.829200  0.297100  1
  C  C1740  1  0.755100  0.170800  0.797100  1
  C  C1741  1  0.170800  0.755100  0.202900  1
  C  C1742  1  0.829200  0.244900  0.702900  1
  C  C1743  1  0.255100  0.329200  0.952900  1
  C  C1744  1  0.744900  0.670800  0.452900  1
  C  C1745  1  0.367500  0.253600  0.037100  1
  C  C1746  1  0.632500  0.746400  0.537100  1
  C  C1747  1  0.246400  0.867500  0.287100  1
  C  C1748  1  0.753600  0.132500  0.787100  1
  C  C1749  1  0.132500  0.753600  0.212900  1
  C  C1750  1  0.867500  0.246400  0.712900  1
  C  C1751  1  0.253600  0.367500  0.962900  1
  C  C1752  1  0.746400  0.632500  0.462900  1
  C  C1753  1  0.361800  0.237900  0.021900  1
  C  C1754  1  0.638200  0.762100  0.521900  1
  C  C1755  1  0.262100  0.861800  0.271900  1
  C  C1756  1  0.737900  0.138200  0.771900  1
  C  C1757  1  0.138200  0.737900  0.228100  1
  C  C1758  1  0.861800  0.262100  0.728100  1
  C  C1759  1  0.237900  0.361800  0.978100  1
  C  C1760  1  0.762100  0.638200  0.478100  1
  C  C1761  1  0.200300  0.128200  0.971500  1
  C  C1762  1  0.799700  0.871800  0.471500  1
  C  C1763  1  0.371800  0.700300  0.221500  1
  C  C1764  1  0.628200  0.299700  0.721500  1
  C  C1765  1  0.299700  0.628200  0.278500  1
  C  C1766  1  0.700300  0.371800  0.778500  1
  C  C1767  1  0.128200  0.200300  0.028500  1
  C  C1768  1  0.871800  0.799700  0.528500  1
  C  C1769  1  0.159800  0.169600  0.971400  1
  C  C1770  1  0.840200  0.830400  0.471400  1
  C  C1771  1  0.330400  0.659800  0.221400  1
  C  C1772  1  0.669600  0.340200  0.721400  1
  C  C1773  1  0.340200  0.669600  0.278600  1
  C  C1774  1  0.659800  0.330400  0.778600  1
  C  C1775  1  0.169600  0.159800  0.028600  1
  C  C1776  1  0.830400  0.840200  0.528600  1
  C  C1777  1  0.176900  0.080400  0.973600  1
  C  C1778  1  0.823100  0.919600  0.473600  1
  C  C1779  1  0.419600  0.676900  0.223600  1
  C  C1780  1  0.580400  0.323100  0.723600  1
  C  C1781  1  0.323100  0.580400  0.276400  1
  C  C1782  1  0.676900  0.419600  0.776400  1
  C  C1783  1  0.080400  0.176900  0.026400  1
  C  C1784  1  0.919600  0.823100  0.526400  1
  C  C1785  1  0.215600  0.045000  0.974700  1
  C  C1786  1  0.784400  0.955000  0.474700  1
  C  C1787  1  0.455000  0.715600  0.224700  1
  C  C1788  1  0.545000  0.284400  0.724700  1
  C  C1789  1  0.284400  0.545000  0.275300  1
  C  C1790  1  0.715600  0.455000  0.775300  1
  C  C1791  1  0.045000  0.215600  0.025300  1
  C  C1792  1  0.955000  0.784400  0.525300  1
  C  C1793  1  0.138300  0.065500  0.962400  1
  C  C1794  1  0.861700  0.934500  0.462400  1
  C  C1795  1  0.434500  0.638300  0.212400  1
  C  C1796  1  0.565500  0.361700  0.712400  1
  C  C1797  1  0.361700  0.565500  0.287600  1
  C  C1798  1  0.638300  0.434500  0.787600  1
  C  C1799  1  0.065500  0.138300  0.037600  1
  C  C1800  1  0.934500  0.861700  0.537600  1
  C  C1801  1  0.110700  0.218400  0.955200  1
  C  C1802  1  0.889300  0.781600  0.455200  1
  C  C1803  1  0.281600  0.610700  0.205200  1
  C  C1804  1  0.718400  0.389300  0.705200  1
  C  C1805  1  0.389300  0.718400  0.294800  1
  C  C1806  1  0.610700  0.281600  0.794800  1
  C  C1807  1  0.218400  0.110700  0.044800  1
  C  C1808  1  0.781600  0.889300  0.544800  1
  C  C1809  1  0.062400  0.191700  0.956000  1
  C  C1810  1  0.937600  0.808300  0.456000  1
  C  C1811  1  0.308300  0.562400  0.206000  1
  C  C1812  1  0.691700  0.437600  0.706000  1
  C  C1813  1  0.437600  0.691700  0.294000  1
  C  C1814  1  0.562400  0.308300  0.794000  1
  C  C1815  1  0.191700  0.062400  0.044000  1
  C  C1816  1  0.808300  0.937600  0.544000  1
  C  C1817  1  0.116200  0.237100  0.938200  1
  C  C1818  1  0.883800  0.762900  0.438200  1
  C  C1819  1  0.262900  0.616200  0.188200  1
  C  C1820  1  0.737100  0.383800  0.688200  1
  C  C1821  1  0.383800  0.737100  0.311800  1
  C  C1822  1  0.616200  0.262900  0.811800  1
  C  C1823  1  0.237100  0.116200  0.061800  1
  C  C1824  1  0.762900  0.883800  0.561800  1
  C  C1825  1  0.083500  0.282900  0.937600  1
  C  C1826  1  0.916500  0.717100  0.437600  1
  C  C1827  1  0.217100  0.583500  0.187600  1
  C  C1828  1  0.782900  0.416500  0.687600  1
  C  C1829  1  0.416500  0.782900  0.312400  1
  C  C1830  1  0.583500  0.217100  0.812400  1
  C  C1831  1  0.282900  0.083500  0.062400  1
  C  C1832  1  0.717100  0.916500  0.562400  1
  C  C1833  1  0.094700  0.329600  0.940600  1
  C  C1834  1  0.905300  0.670400  0.440600  1
  C  C1835  1  0.170400  0.594700  0.190600  1
  C  C1836  1  0.829600  0.405300  0.690600  1
  C  C1837  1  0.405300  0.829600  0.309400  1
  C  C1838  1  0.594700  0.170400  0.809400  1
  C  C1839  1  0.329600  0.094700  0.059400  1
  C  C1840  1  0.670400  0.905300  0.559400  1
  C  C1841  1  0.060900  0.364400  0.938700  1
  C  C1842  1  0.939100  0.635600  0.438700  1
  C  C1843  1  0.135600  0.560900  0.188700  1
  C  C1844  1  0.864400  0.439100  0.688700  1
  C  C1845  1  0.439100  0.864400  0.311300  1
  C  C1846  1  0.560900  0.135600  0.811300  1
  C  C1847  1  0.364400  0.060900  0.061300  1
  C  C1848  1  0.635600  0.939100  0.561300  1
  C  C1849  1  0.015800  0.352500  0.933800  1
  C  C1850  1  0.984200  0.647500  0.433800  1
  C  C1851  1  0.147500  0.515800  0.183800  1
  C  C1852  1  0.852500  0.484200  0.683800  1
  C  C1853  1  0.484200  0.852500  0.316200  1
  C  C1854  1  0.515800  0.147500  0.816200  1
  C  C1855  1  0.352500  0.015800  0.066200  1
  C  C1856  1  0.647500  0.984200  0.566200  1
  C  C1857  1  0.004600  0.305800  0.930800  1
  C  C1858  1  0.995400  0.694200  0.430800  1
  C  C1859  1  0.194200  0.504600  0.180800  1
  C  C1860  1  0.805800  0.495400  0.680800  1
  C  C1861  1  0.495400  0.805800  0.319200  1
  C  C1862  1  0.504600  0.194200  0.819200  1
  C  C1863  1  0.305800  0.004600  0.069200  1
  C  C1864  1  0.694200  0.995400  0.569200  1
  C  C1865  1  0.038400  0.271000  0.932700  1
  C  C1866  1  0.961600  0.729000  0.432700  1
  C  C1867  1  0.229000  0.538400  0.182700  1
  C  C1868  1  0.771000  0.461600  0.682700  1
  C  C1869  1  0.461600  0.771000  0.317300  1
  C  C1870  1  0.538400  0.229000  0.817300  1
  C  C1871  1  0.271000  0.038400  0.067300  1
  C  C1872  1  0.729000  0.961600  0.567300  1
  C  C1873  1  0.984100  0.191800  0.967900  1
  C  C1874  1  0.015900  0.808200  0.467900  1
  C  C1875  1  0.308200  0.484100  0.217900  1
  C  C1876  1  0.691800  0.515900  0.717900  1
  C  C1877  1  0.515900  0.691800  0.282100  1
  C  C1878  1  0.484100  0.308200  0.782100  1
  C  C1879  1  0.191800  0.984100  0.032100  1
  C  C1880  1  0.808200  0.015900  0.532100  1
  C  C1881  1  0.948800  0.234100  0.965300  1
  C  C1882  1  0.051200  0.765900  0.465300  1
  C  C1883  1  0.265900  0.448800  0.215300  1
  C  C1884  1  0.734100  0.551200  0.715300  1
  C  C1885  1  0.551200  0.734100  0.284700  1
  C  C1886  1  0.448800  0.265900  0.784700  1
  C  C1887  1  0.234100  0.948800  0.034700  1
  C  C1888  1  0.765900  0.051200  0.534700  1
  C  C1889  1  0.977800  0.167100  0.983700  1
  C  C1890  1  0.022200  0.832900  0.483700  1
  C  C1891  1  0.332900  0.477800  0.233700  1
  C  C1892  1  0.667100  0.522200  0.733700  1
  C  C1893  1  0.522200  0.667100  0.266300  1
  C  C1894  1  0.477800  0.332900  0.766300  1
  C  C1895  1  0.167100  0.977800  0.016300  1
  C  C1896  1  0.832900  0.022200  0.516300  1
  C  C1897  1  0.012300  0.126400  0.985100  1
  C  C1898  1  0.987700  0.873600  0.485100  1
  C  C1899  1  0.373600  0.512300  0.235100  1
  C  C1900  1  0.626400  0.487700  0.735100  1
  C  C1901  1  0.487700  0.626400  0.264900  1
  C  C1902  1  0.512300  0.373600  0.764900  1
  C  C1903  1  0.126400  0.012300  0.014900  1
  C  C1904  1  0.873600  0.987700  0.514900  1
  C  C1905  1  0.931000  0.141200  0.987500  1
  C  C1906  1  0.069000  0.858800  0.487500  1
  C  C1907  1  0.358800  0.431000  0.237500  1
  C  C1908  1  0.641200  0.569000  0.737500  1
  C  C1909  1  0.569000  0.641200  0.262500  1
  C  C1910  1  0.431000  0.358800  0.762500  1
  C  C1911  1  0.141200  0.931000  0.012500  1
  C  C1912  1  0.858800  0.069000  0.512500  1
  C  C1913  1  0.869500  0.253400  0.957000  1
  C  C1914  1  0.130500  0.746600  0.457000  1
  C  C1915  1  0.246600  0.369500  0.207000  1
  C  C1916  1  0.753400  0.630500  0.707000  1
  C  C1917  1  0.630500  0.753400  0.293000  1
  C  C1918  1  0.369500  0.246600  0.793000  1
  C  C1919  1  0.253400  0.869500  0.043000  1
  C  C1920  1  0.746600  0.130500  0.543000  1
  C  C1921  1  0.869500  0.301900  0.955200  1
  C  C1922  1  0.130500  0.698100  0.455200  1
  C  C1923  1  0.198100  0.369500  0.205200  1
  C  C1924  1  0.801900  0.630500  0.705200  1
  C  C1925  1  0.630500  0.801900  0.294800  1
  C  C1926  1  0.369500  0.198100  0.794800  1
  C  C1927  1  0.301900  0.869500  0.044800  1
  C  C1928  1  0.698100  0.130500  0.544800  1
  C  C1929  1  0.827200  0.326000  0.953600  1
  C  C1930  1  0.172800  0.674000  0.453600  1
  C  C1931  1  0.174000  0.327200  0.203600  1
  C  C1932  1  0.826000  0.672800  0.703600  1
  C  C1933  1  0.672800  0.826000  0.296400  1
  C  C1934  1  0.327200  0.174000  0.796400  1
  C  C1935  1  0.326000  0.827200  0.046400  1
  C  C1936  1  0.674000  0.172800  0.546400  1
  C  C1937  1  0.785000  0.301500  0.953800  1
  C  C1938  1  0.215000  0.698500  0.453800  1
  C  C1939  1  0.198500  0.285000  0.203800  1
  C  C1940  1  0.801500  0.715000  0.703800  1
  C  C1941  1  0.715000  0.801500  0.296200  1
  C  C1942  1  0.285000  0.198500  0.796200  1
  C  C1943  1  0.301500  0.785000  0.046200  1
  C  C1944  1  0.698500  0.215000  0.546200  1
  C  C1945  1  0.785000  0.252900  0.955600  1
  C  C1946  1  0.215000  0.747100  0.455600  1
  C  C1947  1  0.247100  0.285000  0.205600  1
  C  C1948  1  0.752900  0.715000  0.705600  1
  C  C1949  1  0.715000  0.752900  0.294400  1
  C  C1950  1  0.285000  0.247100  0.794400  1
  C  C1951  1  0.252900  0.785000  0.044400  1
  C  C1952  1  0.747100  0.215000  0.544400  1
  C  C1953  1  0.827300  0.228800  0.957200  1
  C  C1954  1  0.172700  0.771200  0.457200  1
  C  C1955  1  0.271200  0.327300  0.207200  1
  C  C1956  1  0.728800  0.672700  0.707200  1
  C  C1957  1  0.672700  0.728800  0.292800  1
  C  C1958  1  0.327300  0.271200  0.792800  1
  C  C1959  1  0.228800  0.827300  0.042800  1
  C  C1960  1  0.771200  0.172700  0.542800  1
  C  C1961  1  0.740400  0.226600  0.955800  1
  C  C1962  1  0.259600  0.773400  0.455800  1
  C  C1963  1  0.273400  0.240400  0.205800  1
  C  C1964  1  0.726600  0.759600  0.705800  1
  C  C1965  1  0.759600  0.726600  0.294200  1
  C  C1966  1  0.240400  0.273400  0.794200  1
  C  C1967  1  0.226600  0.740400  0.044200  1
  C  C1968  1  0.773400  0.259600  0.544200  1
  C  C1969  1  0.664000  0.203800  0.963300  1
  C  C1970  1  0.336000  0.796200  0.463300  1
  C  C1971  1  0.296200  0.164000  0.213300  1
  C  C1972  1  0.703800  0.836000  0.713300  1
  C  C1973  1  0.836000  0.703800  0.286700  1
  C  C1974  1  0.164000  0.296200  0.786700  1
  C  C1975  1  0.203800  0.664000  0.036700  1
  C  C1976  1  0.796200  0.336000  0.536700  1
  C  C1977  1  0.640500  0.203000  0.947500  1
  C  C1978  1  0.359500  0.797000  0.447500  1
  C  C1979  1  0.297000  0.140500  0.197500  1
  C  C1980  1  0.703000  0.859500  0.697500  1
  C  C1981  1  0.859500  0.703000  0.302500  1
  C  C1982  1  0.140500  0.297000  0.802500  1
  C  C1983  1  0.203000  0.640500  0.052500  1
  C  C1984  1  0.797000  0.359500  0.552500  1
  C  C1985  1  0.697000  0.277600  0.973100  1
  C  C1986  1  0.303000  0.722400  0.473100  1
  C  C1987  1  0.222400  0.197000  0.223100  1
  C  C1988  1  0.777600  0.803000  0.723100  1
  C  C1989  1  0.803000  0.777600  0.276900  1
  C  C1990  1  0.197000  0.222400  0.776900  1
  C  C1991  1  0.277600  0.697000  0.026900  1
  C  C1992  1  0.722400  0.303000  0.526900  1
  C  C1993  1  0.657300  0.264000  0.984100  1
  C  C1994  1  0.342700  0.736000  0.484100  1
  C  C1995  1  0.236000  0.157300  0.234100  1
  C  C1996  1  0.764000  0.842700  0.734100  1
  C  C1997  1  0.842700  0.764000  0.265900  1
  C  C1998  1  0.157300  0.236000  0.765900  1
  C  C1999  1  0.264000  0.657300  0.015900  1
  C  C2000  1  0.736000  0.342700  0.515900  1
  C  C2001  1  0.629300  0.229000  0.974600  1
  C  C2002  1  0.370700  0.771000  0.474600  1
  C  C2003  1  0.271000  0.129300  0.224600  1
  C  C2004  1  0.729000  0.870700  0.724600  1
  C  C2005  1  0.870700  0.729000  0.275400  1
  C  C2006  1  0.129300  0.271000  0.775400  1
  C  C2007  1  0.229000  0.629300  0.025400  1
  C  C2008  1  0.771000  0.370700  0.525400  1
  C  C2009  1  0.611200  0.137900  0.929600  1
  C  C2010  1  0.388800  0.862100  0.429600  1
  C  C2011  1  0.362100  0.111200  0.179600  1
  C  C2012  1  0.637900  0.888800  0.679600  1
  C  C2013  1  0.888800  0.637900  0.320400  1
  C  C2014  1  0.111200  0.362100  0.820400  1
  C  C2015  1  0.137900  0.611200  0.070400  1
  C  C2016  1  0.862100  0.388800  0.570400  1
  C  C2017  1  0.559000  0.121900  0.933800  1
  C  C2018  1  0.441000  0.878100  0.433800  1
  C  C2019  1  0.378100  0.059000  0.183800  1
  C  C2020  1  0.621900  0.941000  0.683800  1
  C  C2021  1  0.941000  0.621900  0.316200  1
  C  C2022  1  0.059000  0.378100  0.816200  1
  C  C2023  1  0.121900  0.559000  0.066200  1
  C  C2024  1  0.878100  0.441000  0.566200  1
  C  C2025  1  0.488300  0.084800  0.927600  1
  C  C2026  1  0.511700  0.915200  0.427600  1
  C  C2027  1  0.415200  0.988300  0.177600  1
  C  C2028  1  0.584800  0.011700  0.677600  1
  C  C2029  1  0.011700  0.584800  0.322400  1
  C  C2030  1  0.988300  0.415200  0.822400  1
  C  C2031  1  0.084800  0.488300  0.072400  1
  C  C2032  1  0.915200  0.511700  0.572400  1
  C  C2033  1  0.484500  0.053100  0.941700  1
  C  C2034  1  0.515500  0.946900  0.441700  1
  C  C2035  1  0.446900  0.984500  0.191700  1
  C  C2036  1  0.553100  0.015500  0.691700  1
  C  C2037  1  0.015500  0.553100  0.308300  1
  C  C2038  1  0.984500  0.446900  0.808300  1
  C  C2039  1  0.053100  0.484500  0.058300  1
  C  C2040  1  0.946900  0.515500  0.558300  1
  C  C2041  1  0.553800  0.079000  0.909600  1
  C  C2042  1  0.446200  0.921000  0.409600  1
  C  C2043  1  0.421000  0.053800  0.159600  1
  C  C2044  1  0.579000  0.946200  0.659600  1
  C  C2045  1  0.946200  0.579000  0.340400  1
  C  C2046  1  0.053800  0.421000  0.840400  1
  C  C2047  1  0.079000  0.553800  0.090400  1
  C  C2048  1  0.921000  0.446200  0.590400  1
  C  C2049  1  0.508800  0.068000  0.900900  1
  C  C2050  1  0.491200  0.932000  0.400900  1
  C  C2051  1  0.432000  0.008800  0.150900  1
  C  C2052  1  0.568000  0.991200  0.650900  1
  C  C2053  1  0.991200  0.568000  0.349100  1
  C  C2054  1  0.008800  0.432000  0.849100  1
  C  C2055  1  0.068000  0.508800  0.099100  1
  C  C2056  1  0.932000  0.491200  0.599100  1
  C  C2057  1  0.473400  0.056000  0.913600  1
  C  C2058  1  0.526600  0.944000  0.413600  1
  C  C2059  1  0.444000  0.973400  0.163600  1
  C  C2060  1  0.556000  0.026600  0.663600  1
  C  C2061  1  0.026600  0.556000  0.336400  1
  C  C2062  1  0.973400  0.444000  0.836400  1
  C  C2063  1  0.056000  0.473400  0.086400  1
  C  C2064  1  0.944000  0.526600  0.586400  1
  C  C2065  1  0.437200  0.988200  0.964500  1
  C  C2066  1  0.562800  0.011800  0.464500  1
  C  C2067  1  0.511800  0.937200  0.214500  1
  C  C2068  1  0.488200  0.062800  0.714500  1
  C  C2069  1  0.062800  0.488200  0.285500  1
  C  C2070  1  0.937200  0.511800  0.785500  1
  C  C2071  1  0.988200  0.437200  0.035500  1
  C  C2072  1  0.011800  0.562800  0.535500  1
  C  C2073  1  0.422200  0.034100  0.962100  1
  C  C2074  1  0.577800  0.965900  0.462100  1
  C  C2075  1  0.465900  0.922200  0.212100  1
  C  C2076  1  0.534100  0.077800  0.712100  1
  C  C2077  1  0.077800  0.534100  0.287900  1
  C  C2078  1  0.922200  0.465900  0.787900  1
  C  C2079  1  0.034100  0.422200  0.037900  1
  C  C2080  1  0.965900  0.577800  0.537900  1
  C  C2081  1  0.382800  0.051000  0.969800  1
  C  C2082  1  0.617200  0.949000  0.469800  1
  C  C2083  1  0.449000  0.882800  0.219800  1
  C  C2084  1  0.551000  0.117200  0.719800  1
  C  C2085  1  0.117200  0.551000  0.280200  1
  C  C2086  1  0.882800  0.449000  0.780200  1
  C  C2087  1  0.051000  0.382800  0.030200  1
  C  C2088  1  0.949000  0.617200  0.530200  1
  C  C2089  1  0.358300  0.021800  0.980000  1
  C  C2090  1  0.641700  0.978200  0.480000  1
  C  C2091  1  0.478200  0.858300  0.230000  1
  C  C2092  1  0.521800  0.141700  0.730000  1
  C  C2093  1  0.141700  0.521800  0.270000  1
  C  C2094  1  0.858300  0.478200  0.770000  1
  C  C2095  1  0.021800  0.358300  0.020000  1
  C  C2096  1  0.978200  0.641700  0.520000  1
  C  C2097  1  0.373200  0.975800  0.982400  1
  C  C2098  1  0.626800  0.024200  0.482400  1
  C  C2099  1  0.524200  0.873200  0.232400  1
  C  C2100  1  0.475800  0.126800  0.732400  1
  C  C2101  1  0.126800  0.475800  0.267600  1
  C  C2102  1  0.873200  0.524200  0.767600  1
  C  C2103  1  0.975800  0.373200  0.017600  1
  C  C2104  1  0.024200  0.626800  0.517600  1
  C  C2105  1  0.514300  0.910500  0.005800  1
  C  C2106  1  0.485700  0.089500  0.505800  1
  C  C2107  1  0.589500  0.014300  0.255800  1
  C  C2108  1  0.410500  0.985700  0.755800  1
  C  C2109  1  0.985700  0.410500  0.244200  1
  C  C2110  1  0.014300  0.589500  0.744200  1
  C  C2111  1  0.910500  0.514300  0.994200  1
  C  C2112  1  0.089500  0.485700  0.494200  1
  C  C2113  1  0.557900  0.923000  0.011850  1
  C  C2114  1  0.442100  0.077000  0.511850  1
  C  C2115  1  0.577000  0.057900  0.261850  1
  C  C2116  1  0.423000  0.942100  0.761850  1
  C  C2117  1  0.942100  0.423000  0.238150  1
  C  C2118  1  0.057900  0.577000  0.738150  1
  C  C2119  1  0.923000  0.557900  0.988150  1
  C  C2120  1  0.077000  0.442100  0.488150  1
  C  C2121  1  0.593800  0.937200  0.001900  1
  C  C2122  1  0.406200  0.062800  0.501900  1
  C  C2123  1  0.562800  0.093800  0.251900  1
  C  C2124  1  0.437200  0.906200  0.751900  1
  C  C2125  1  0.906200  0.437200  0.248100  1
  C  C2126  1  0.093800  0.562800  0.748100  1
  C  C2127  1  0.937200  0.593800  0.998100  1
  C  C2128  1  0.062800  0.406200  0.498100  1
  C  C2129  1  0.586100  0.938900  0.986000  1
  C  C2130  1  0.413900  0.061100  0.486000  1
  C  C2131  1  0.561100  0.086100  0.236000  1
  C  C2132  1  0.438900  0.913900  0.736000  1
  C  C2133  1  0.913900  0.438900  0.264000  1
  C  C2134  1  0.086100  0.561100  0.764000  1
  C  C2135  1  0.938900  0.586100  0.014000  1
  C  C2136  1  0.061100  0.413900  0.514000  1
  C  C2137  1  0.542500  0.926400  0.979910  1
  C  C2138  1  0.457500  0.073600  0.479910  1
  C  C2139  1  0.573600  0.042500  0.229910  1
  C  C2140  1  0.426400  0.957500  0.729910  1
  C  C2141  1  0.957500  0.426400  0.270090  1
  C  C2142  1  0.042500  0.573600  0.770090  1
  C  C2143  1  0.926400  0.542500  0.020090  1
  C  C2144  1  0.073600  0.457500  0.520090  1
  C  C2145  1  0.624000  0.950600  0.975000  1
  C  C2146  1  0.376000  0.049400  0.475000  1
  C  C2147  1  0.549400  0.124000  0.225000  1
  C  C2148  1  0.450600  0.876000  0.725000  1
  C  C2149  1  0.876000  0.450600  0.275000  1
  C  C2150  1  0.124000  0.549400  0.775000  1
  C  C2151  1  0.950600  0.624000  0.025000  1
  C  C2152  1  0.049400  0.376000  0.525000  1
  C  C2153  1  0.651300  0.980500  0.950500  1
  C  C2154  1  0.348700  0.019500  0.450500  1
  C  C2155  1  0.519500  0.151300  0.200500  1
  C  C2156  1  0.480500  0.848700  0.700500  1
  C  C2157  1  0.848700  0.480500  0.299500  1
  C  C2158  1  0.151300  0.519500  0.799500  1
  C  C2159  1  0.980500  0.651300  0.049500  1
  C  C2160  1  0.019500  0.348700  0.549500  1
  C  C2161  1  0.672300  0.027100  0.952600  1
  C  C2162  1  0.327700  0.972900  0.452600  1
  C  C2163  1  0.472900  0.172300  0.202600  1
  C  C2164  1  0.527100  0.827700  0.702600  1
  C  C2165  1  0.827700  0.527100  0.297400  1
  C  C2166  1  0.172300  0.472900  0.797400  1
  C  C2167  1  0.027100  0.672300  0.047400  1
  C  C2168  1  0.972900  0.327700  0.547400  1
  C  C2169  1  0.628800  0.981000  0.932800  1
  C  C2170  1  0.371200  0.019000  0.432800  1
  C  C2171  1  0.519000  0.128800  0.182800  1
  C  C2172  1  0.481000  0.871200  0.682800  1
  C  C2173  1  0.871200  0.481000  0.317200  1
  C  C2174  1  0.128800  0.519000  0.817200  1
  C  C2175  1  0.981000  0.628800  0.067200  1
  C  C2176  1  0.019000  0.371200  0.567200  1
  C  C2177  1  0.619200  0.929800  0.928000  1
  C  C2178  1  0.380800  0.070200  0.428000  1
  C  C2179  1  0.570200  0.119200  0.178000  1
  C  C2180  1  0.429800  0.880800  0.678000  1
  C  C2181  1  0.880800  0.429800  0.322000  1
  C  C2182  1  0.119200  0.570200  0.822000  1
  C  C2183  1  0.929800  0.619200  0.072000  1
  C  C2184  1  0.070200  0.380800  0.572000  1
  C  C2185  1  0.573400  0.913000  0.928900  1
  C  C2186  1  0.426600  0.087000  0.428900  1
  C  C2187  1  0.587000  0.073400  0.178900  1
  C  C2188  1  0.413000  0.926600  0.678900  1
  C  C2189  1  0.926600  0.413000  0.321100  1
  C  C2190  1  0.073400  0.587000  0.821100  1
  C  C2191  1  0.913000  0.573400  0.071100  1
  C  C2192  1  0.087000  0.426600  0.571100  1
  C  C2193  1  0.563500  0.866800  0.924700  1
  C  C2194  1  0.436500  0.133200  0.424700  1
  C  C2195  1  0.633200  0.063500  0.174700  1
  C  C2196  1  0.366800  0.936500  0.674700  1
  C  C2197  1  0.936500  0.366800  0.325300  1
  C  C2198  1  0.063500  0.633200  0.825300  1
  C  C2199  1  0.866800  0.563500  0.075300  1
  C  C2200  1  0.133200  0.436500  0.575300  1
  C  C2201  1  0.599500  0.837400  0.919700  1
  C  C2202  1  0.400500  0.162600  0.419700  1
  C  C2203  1  0.662600  0.099500  0.169700  1
  C  C2204  1  0.337400  0.900500  0.669700  1
  C  C2205  1  0.900500  0.337400  0.330300  1
  C  C2206  1  0.099500  0.662600  0.830300  1
  C  C2207  1  0.837400  0.599500  0.080300  1
  C  C2208  1  0.162600  0.400500  0.580300  1
  C  C2209  1  0.645300  0.854100  0.918800  1
  C  C2210  1  0.354700  0.145900  0.418800  1
  C  C2211  1  0.645900  0.145300  0.168800  1
  C  C2212  1  0.354100  0.854700  0.668800  1
  C  C2213  1  0.854700  0.354100  0.331200  1
  C  C2214  1  0.145300  0.645900  0.831200  1
  C  C2215  1  0.854100  0.645300  0.081200  1
  C  C2216  1  0.145900  0.354700  0.581200  1
  C  C2217  1  0.655200  0.900400  0.923000  1
  C  C2218  1  0.344800  0.099600  0.423000  1
  C  C2219  1  0.599600  0.155200  0.173000  1
  C  C2220  1  0.400400  0.844800  0.673000  1
  C  C2221  1  0.844800  0.400400  0.327000  1
  C  C2222  1  0.155200  0.599600  0.827000  1
  C  C2223  1  0.900400  0.655200  0.077000  1
  C  C2224  1  0.099600  0.344800  0.577000  1
  C  C2225  1  0.752400  0.068300  0.954800  1
  C  C2226  1  0.247600  0.931700  0.454800  1
  C  C2227  1  0.431700  0.252400  0.204800  1
  C  C2228  1  0.568300  0.747600  0.704800  1
  C  C2229  1  0.747600  0.568300  0.295200  1
  C  C2230  1  0.252400  0.431700  0.795200  1
  C  C2231  1  0.068300  0.752400  0.045200  1
  C  C2232  1  0.931700  0.247600  0.545200  1
  C  C2233  1  0.787400  0.071700  0.942300  1
  C  C2234  1  0.212600  0.928300  0.442300  1
  C  C2235  1  0.428300  0.287400  0.192300  1
  C  C2236  1  0.571700  0.712600  0.692300  1
  C  C2237  1  0.712600  0.571700  0.307700  1
  C  C2238  1  0.287400  0.428300  0.807700  1
  C  C2239  1  0.071700  0.787400  0.057700  1
  C  C2240  1  0.928300  0.212600  0.557700  1
  C  C2241  1  0.778400  0.062300  0.970600  1
  C  C2242  1  0.221600  0.937700  0.470600  1
  C  C2243  1  0.437700  0.278400  0.220600  1
  C  C2244  1  0.562300  0.721600  0.720600  1
  C  C2245  1  0.721600  0.562300  0.279400  1
  C  C2246  1  0.278400  0.437700  0.779400  1
  C  C2247  1  0.062300  0.778400  0.029400  1
  C  C2248  1  0.937700  0.221600  0.529400  1
  C  C2249  1  0.744300  0.055200  0.984300  1
  C  C2250  1  0.255700  0.944800  0.484300  1
  C  C2251  1  0.444800  0.244300  0.234300  1
  C  C2252  1  0.555200  0.755700  0.734300  1
  C  C2253  1  0.755700  0.555200  0.265700  1
  C  C2254  1  0.244300  0.444800  0.765700  1
  C  C2255  1  0.055200  0.744300  0.015700  1
  C  C2256  1  0.944800  0.255700  0.515700  1
  C  C2257  1  0.815700  0.096000  0.976000  1
  C  C2258  1  0.184300  0.904000  0.476000  1
  C  C2259  1  0.404000  0.315700  0.226000  1
  C  C2260  1  0.596000  0.684300  0.726000  1
  C  C2261  1  0.684300  0.596000  0.274000  1
  C  C2262  1  0.315700  0.404000  0.774000  1
  C  C2263  1  0.096000  0.815700  0.024000  1
  C  C2264  1  0.904000  0.184300  0.524000  1
  C  C2265  1  0.835700  0.116800  0.925000  1
  C  C2266  1  0.164300  0.883200  0.425000  1
  C  C2267  1  0.383200  0.335700  0.175000  1
  C  C2268  1  0.616800  0.664300  0.675000  1
  C  C2269  1  0.664300  0.616800  0.325000  1
  C  C2270  1  0.335700  0.383200  0.825000  1
  C  C2271  1  0.116800  0.835700  0.075000  1
  C  C2272  1  0.883200  0.164300  0.575000  1
  C  C2273  1  0.886300  0.111600  0.932500  1
  C  C2274  1  0.113700  0.888400  0.432500  1
  C  C2275  1  0.388400  0.386300  0.182500  1
  C  C2276  1  0.611600  0.613700  0.682500  1
  C  C2277  1  0.613700  0.611600  0.317500  1
  C  C2278  1  0.386300  0.388400  0.817500  1
  C  C2279  1  0.111600  0.886300  0.067500  1
  C  C2280  1  0.888400  0.113700  0.567500  1
  C  C2281  1  0.831300  0.167000  0.917400  1
  C  C2282  1  0.168700  0.833000  0.417400  1
  C  C2283  1  0.333000  0.331300  0.167400  1
  C  C2284  1  0.667000  0.668700  0.667400  1
  C  C2285  1  0.668700  0.667000  0.332600  1
  C  C2286  1  0.331300  0.333000  0.832600  1
  C  C2287  1  0.167000  0.831300  0.082600  1
  C  C2288  1  0.833000  0.168700  0.582600  1
  C  C2289  1  0.870400  0.174100  0.904800  1
  C  C2290  1  0.129600  0.825900  0.404800  1
  C  C2291  1  0.325900  0.370400  0.154800  1
  C  C2292  1  0.674100  0.629600  0.654800  1
  C  C2293  1  0.629600  0.674100  0.345200  1
  C  C2294  1  0.370400  0.325900  0.845200  1
  C  C2295  1  0.174100  0.870400  0.095200  1
  C  C2296  1  0.825900  0.129600  0.595200  1
  C  C2297  1  0.861900  0.159300  0.889700  1
  C  C2298  1  0.138100  0.840700  0.389700  1
  C  C2299  1  0.340700  0.361900  0.139700  1
  C  C2300  1  0.659300  0.638100  0.639700  1
  C  C2301  1  0.638100  0.659300  0.360300  1
  C  C2302  1  0.361900  0.340700  0.860300  1
  C  C2303  1  0.159300  0.861900  0.110300  1
  C  C2304  1  0.840700  0.138100  0.610300  1
  C  C2305  1  0.896900  0.163600  0.878400  1
  C  C2306  1  0.103100  0.836400  0.378400  1
  C  C2307  1  0.336400  0.396900  0.128400  1
  C  C2308  1  0.663600  0.603100  0.628400  1
  C  C2309  1  0.603100  0.663600  0.371600  1
  C  C2310  1  0.396900  0.336400  0.871600  1
  C  C2311  1  0.163600  0.896900  0.121600  1
  C  C2312  1  0.836400  0.103100  0.621600  1
  C  C2313  1  0.940300  0.182600  0.882400  1
  C  C2314  1  0.059700  0.817400  0.382400  1
  C  C2315  1  0.317400  0.440300  0.132400  1
  C  C2316  1  0.682600  0.559700  0.632400  1
  C  C2317  1  0.559700  0.682600  0.367600  1
  C  C2318  1  0.440300  0.317400  0.867600  1
  C  C2319  1  0.182600  0.940300  0.117600  1
  C  C2320  1  0.817400  0.059700  0.617600  1
  C  C2321  1  0.948700  0.197300  0.897600  1
  C  C2322  1  0.051300  0.802700  0.397600  1
  C  C2323  1  0.302700  0.448700  0.147600  1
  C  C2324  1  0.697300  0.551300  0.647600  1
  C  C2325  1  0.551300  0.697300  0.352400  1
  C  C2326  1  0.448700  0.302700  0.852400  1
  C  C2327  1  0.197300  0.948700  0.102400  1
  C  C2328  1  0.802700  0.051300  0.602400  1
  C  C2329  1  0.913800  0.193100  0.908800  1
  C  C2330  1  0.086200  0.806900  0.408800  1
  C  C2331  1  0.306900  0.413800  0.158800  1
  C  C2332  1  0.693100  0.586200  0.658800  1
  C  C2333  1  0.586200  0.693100  0.341200  1
  C  C2334  1  0.413800  0.306900  0.841200  1
  C  C2335  1  0.193100  0.913800  0.091200  1
  C  C2336  1  0.806900  0.086200  0.591200  1
  C  C2337  1  0.964200  0.076500  0.930900  1
  C  C2338  1  0.035800  0.923500  0.430900  1
  C  C2339  1  0.423500  0.464200  0.180900  1
  C  C2340  1  0.576500  0.535800  0.680900  1
  C  C2341  1  0.535800  0.576500  0.319100  1
  C  C2342  1  0.464200  0.423500  0.819100  1
  C  C2343  1  0.076500  0.964200  0.069100  1
  C  C2344  1  0.923500  0.035800  0.569100  1
  C  C2345  1  0.996900  0.082600  0.919200  1
  C  C2346  1  0.003100  0.917400  0.419200  1
  C  C2347  1  0.417400  0.496900  0.169200  1
  C  C2348  1  0.582600  0.503100  0.669200  1
  C  C2349  1  0.503100  0.582600  0.330800  1
  C  C2350  1  0.496900  0.417400  0.830800  1
  C  C2351  1  0.082600  0.996900  0.080800  1
  C  C2352  1  0.917400  0.003100  0.580800  1
  C  C2353  1  0.970000  0.027800  0.937900  1
  C  C2354  1  0.030000  0.972200  0.437900  1
  C  C2355  1  0.472200  0.470000  0.187900  1
  C  C2356  1  0.527800  0.530000  0.687900  1
  C  C2357  1  0.530000  0.527800  0.312100  1
  C  C2358  1  0.470000  0.472200  0.812100  1
  C  C2359  1  0.027800  0.970000  0.062100  1
  C  C2360  1  0.972200  0.030000  0.562100  1
  C  C2361  1  0.020700  0.028600  0.945100  1
  C  C2362  1  0.979300  0.971400  0.445100  1
  C  C2363  1  0.471400  0.520700  0.195100  1
  C  C2364  1  0.528600  0.479300  0.695100  1
  C  C2365  1  0.479300  0.528600  0.304900  1
  C  C2366  1  0.520700  0.471400  0.804900  1
  C  C2367  1  0.028600  0.020700  0.054900  1
  C  C2368  1  0.971400  0.979300  0.554900  1
  C  C2369  1  0.938800  0.020100  0.952800  1
  C  C2370  1  0.061200  0.979900  0.452800  1
  C  C2371  1  0.479900  0.438800  0.202800  1
  C  C2372  1  0.520100  0.561200  0.702800  1
  C  C2373  1  0.561200  0.520100  0.297200  1
  C  C2374  1  0.438800  0.479900  0.797200  1
  C  C2375  1  0.020100  0.938800  0.047200  1
  C  C2376  1  0.979900  0.061200  0.547200  1
  C  C2377  1  0.075300  0.113200  0.910800  1
  C  C2378  1  0.924700  0.886800  0.410800  1
  C  C2379  1  0.386800  0.575300  0.160800  1
  C  C2380  1  0.613200  0.424700  0.660800  1
  C  C2381  1  0.424700  0.613200  0.339200  1
  C  C2382  1  0.575300  0.386800  0.839200  1
  C  C2383  1  0.113200  0.075300  0.089200  1
  C  C2384  1  0.886800  0.924700  0.589200  1
  C  C2385  1  0.074000  0.117600  0.894700  1
  C  C2386  1  0.926000  0.882400  0.394700  1
  C  C2387  1  0.382400  0.574000  0.144700  1
  C  C2388  1  0.617600  0.426000  0.644700  1
  C  C2389  1  0.426000  0.617600  0.355300  1
  C  C2390  1  0.574000  0.382400  0.855300  1
  C  C2391  1  0.117600  0.074000  0.105300  1
  C  C2392  1  0.882400  0.926000  0.605300  1
  C  C2393  1  0.115400  0.123900  0.886400  1
  C  C2394  1  0.884600  0.876100  0.386400  1
  C  C2395  1  0.376100  0.615400  0.136400  1
  C  C2396  1  0.623900  0.384600  0.636400  1
  C  C2397  1  0.384600  0.623900  0.363600  1
  C  C2398  1  0.615400  0.376100  0.863600  1
  C  C2399  1  0.123900  0.115400  0.113600  1
  C  C2400  1  0.876100  0.884600  0.613600  1
  C  C2401  1  0.158200  0.125800  0.894200  1
  C  C2402  1  0.841800  0.874200  0.394200  1
  C  C2403  1  0.374200  0.658200  0.144200  1
  C  C2404  1  0.625800  0.341800  0.644200  1
  C  C2405  1  0.341800  0.625800  0.355800  1
  C  C2406  1  0.658200  0.374200  0.855800  1
  C  C2407  1  0.125800  0.158200  0.105800  1
  C  C2408  1  0.874200  0.841800  0.605800  1
  C  C2409  1  0.159600  0.121300  0.910300  1
  C  C2410  1  0.840400  0.878700  0.410300  1
  C  C2411  1  0.378700  0.659600  0.160300  1
  C  C2412  1  0.621300  0.340400  0.660300  1
  C  C2413  1  0.340400  0.621300  0.339700  1
  C  C2414  1  0.659600  0.378700  0.839700  1
  C  C2415  1  0.121300  0.159600  0.089700  1
  C  C2416  1  0.878700  0.840400  0.589700  1
  C  C2417  1  0.118100  0.115100  0.918600  1
  C  C2418  1  0.881900  0.884900  0.418600  1
  C  C2419  1  0.384900  0.618100  0.168600  1
  C  C2420  1  0.615100  0.381900  0.668600  1
  C  C2421  1  0.381900  0.615100  0.331400  1
  C  C2422  1  0.618100  0.384900  0.831400  1
  C  C2423  1  0.115100  0.118100  0.081400  1
  C  C2424  1  0.884900  0.881900  0.581400  1
  C  C2425  1  0.204500  0.121700  0.920500  1
  C  C2426  1  0.795500  0.878300  0.420500  1
  C  C2427  1  0.378300  0.704500  0.170500  1
  C  C2428  1  0.621700  0.295500  0.670500  1
  C  C2429  1  0.295500  0.621700  0.329500  1
  C  C2430  1  0.704500  0.378300  0.829500  1
  C  C2431  1  0.121700  0.204500  0.079500  1
  C  C2432  1  0.878300  0.795500  0.579500  1
  C  C2433  1  0.283700  0.099200  0.926000  1
  C  C2434  1  0.716300  0.900800  0.426000  1
  C  C2435  1  0.400800  0.783700  0.176000  1
  C  C2436  1  0.599200  0.216300  0.676000  1
  C  C2437  1  0.216300  0.599200  0.324000  1
  C  C2438  1  0.783700  0.400800  0.824000  1
  C  C2439  1  0.099200  0.283700  0.074000  1
  C  C2440  1  0.900800  0.716300  0.574000  1
  C  C2441  1  0.305000  0.147200  0.929400  1
  C  C2442  1  0.695000  0.852800  0.429400  1
  C  C2443  1  0.352800  0.805000  0.179400  1
  C  C2444  1  0.647200  0.195000  0.679400  1
  C  C2445  1  0.195000  0.647200  0.320600  1
  C  C2446  1  0.805000  0.352800  0.820600  1
  C  C2447  1  0.147200  0.305000  0.070600  1
  C  C2448  1  0.852800  0.695000  0.570600  1
  C  C2449  1  0.247200  0.065500  0.902800  1
  C  C2450  1  0.752800  0.934500  0.402800  1
  C  C2451  1  0.434500  0.747200  0.152800  1
  C  C2452  1  0.565500  0.252800  0.652800  1
  C  C2453  1  0.252800  0.565500  0.347200  1
  C  C2454  1  0.747200  0.434500  0.847200  1
  C  C2455  1  0.065500  0.247200  0.097200  1
  C  C2456  1  0.934500  0.752800  0.597200  1
  C  C2457  1  0.291500  0.037000  0.906500  1
  C  C2458  1  0.708500  0.963000  0.406500  1
  C  C2459  1  0.463000  0.791500  0.156500  1
  C  C2460  1  0.537000  0.208500  0.656500  1
  C  C2461  1  0.208500  0.537000  0.343500  1
  C  C2462  1  0.791500  0.463000  0.843500  1
  C  C2463  1  0.037000  0.291500  0.093500  1
  C  C2464  1  0.963000  0.708500  0.593500  1
  C  C2465  1  0.319000  0.066700  0.917800  1
  C  C2466  1  0.681000  0.933300  0.417800  1
  C  C2467  1  0.433300  0.819000  0.167800  1
  C  C2468  1  0.566700  0.181000  0.667800  1
  C  C2469  1  0.181000  0.566700  0.332200  1
  C  C2470  1  0.819000  0.433300  0.832200  1
  C  C2471  1  0.066700  0.319000  0.082200  1
  C  C2472  1  0.933300  0.681000  0.582200  1
  C  C2473  1  0.336000  0.199300  0.948000  1
  C  C2474  1  0.664000  0.800700  0.448000  1
  C  C2475  1  0.300700  0.836000  0.198000  1
  C  C2476  1  0.699300  0.164000  0.698000  1
  C  C2477  1  0.164000  0.699300  0.302000  1
  C  C2478  1  0.836000  0.300700  0.802000  1
  C  C2479  1  0.199300  0.336000  0.052000  1
  C  C2480  1  0.800700  0.664000  0.552000  1
  C  C2481  1  0.388100  0.187300  0.953700  1
  C  C2482  1  0.611900  0.812700  0.453700  1
  C  C2483  1  0.312700  0.888100  0.203700  1
  C  C2484  1  0.687300  0.111900  0.703700  1
  C  C2485  1  0.111900  0.687300  0.296300  1
  C  C2486  1  0.888100  0.312700  0.796300  1
  C  C2487  1  0.187300  0.388100  0.046300  1
  C  C2488  1  0.812700  0.611900  0.546300  1
  C  C2489  1  0.459000  0.212000  0.963900  1
  C  C2490  1  0.541000  0.788000  0.463900  1
  C  C2491  1  0.288000  0.959000  0.213900  1
  C  C2492  1  0.712000  0.041000  0.713900  1
  C  C2493  1  0.041000  0.712000  0.286100  1
  C  C2494  1  0.959000  0.288000  0.786100  1
  C  C2495  1  0.212000  0.459000  0.036100  1
  C  C2496  1  0.788000  0.541000  0.536100  1
  C  C2497  1  0.462600  0.174300  0.976500  1
  C  C2498  1  0.537400  0.825700  0.476500  1
  C  C2499  1  0.325700  0.962600  0.226500  1
  C  C2500  1  0.674300  0.037400  0.726500  1
  C  C2501  1  0.037400  0.674300  0.273500  1
  C  C2502  1  0.962600  0.325700  0.773500  1
  C  C2503  1  0.174300  0.462600  0.023500  1
  C  C2504  1  0.825700  0.537400  0.523500  1
  C  C2505  1  0.394100  0.267100  0.963400  1
  C  C2506  1  0.605900  0.732900  0.463400  1
  C  C2507  1  0.232900  0.894100  0.213400  1
  C  C2508  1  0.767100  0.105900  0.713400  1
  C  C2509  1  0.105900  0.767100  0.286600  1
  C  C2510  1  0.894100  0.232900  0.786600  1
  C  C2511  1  0.267100  0.394100  0.036600  1
  C  C2512  1  0.732900  0.605900  0.536600  1
  C  C2513  1  0.436300  0.293500  0.969400  1
  C  C2514  1  0.563700  0.706500  0.469400  1
  C  C2515  1  0.206500  0.936300  0.219400  1
  C  C2516  1  0.793500  0.063700  0.719400  1
  C  C2517  1  0.063700  0.793500  0.280600  1
  C  C2518  1  0.936300  0.206500  0.780600  1
  C  C2519  1  0.293500  0.436300  0.030600  1
  C  C2520  1  0.706500  0.563700  0.530600  1
  C  C2521  1  0.476100  0.258200  0.970700  1
  C  C2522  1  0.523900  0.741800  0.470700  1
  C  C2523  1  0.241800  0.976100  0.220700  1
  C  C2524  1  0.758200  0.023900  0.720700  1
  C  C2525  1  0.023900  0.758200  0.279300  1
  C  C2526  1  0.976100  0.241800  0.779300  1
  C  C2527  1  0.258200  0.476100  0.029300  1
  C  C2528  1  0.741800  0.523900  0.529300  1
  C  C2529  1  0.513300  0.116900  0.002100  1
  C  C2530  1  0.486700  0.883100  0.502100  1
  C  C2531  1  0.383100  0.013300  0.252100  1
  C  C2532  1  0.616900  0.986700  0.752100  1
  C  C2533  1  0.986700  0.616900  0.247900  1
  C  C2534  1  0.013300  0.383100  0.747900  1
  C  C2535  1  0.116900  0.513300  0.997900  1
  C  C2536  1  0.883100  0.486700  0.497900  1
  C  C2537  1  0.526000  0.118400  0.986470  1
  C  C2538  1  0.474000  0.881600  0.486470  1
  C  C2539  1  0.381600  0.026000  0.236470  1
  C  C2540  1  0.618400  0.974000  0.736470  1
  C  C2541  1  0.974000  0.618400  0.263530  1
  C  C2542  1  0.026000  0.381600  0.763530  1
  C  C2543  1  0.118400  0.526000  0.013530  1
  C  C2544  1  0.881600  0.474000  0.513530  1
  C  C2545  1  0.563000  0.090900  0.981070  1
  C  C2546  1  0.437000  0.909100  0.481070  1
  C  C2547  1  0.409100  0.063000  0.231070  1
  C  C2548  1  0.590900  0.937000  0.731070  1
  C  C2549  1  0.937000  0.590900  0.268930  1
  C  C2550  1  0.063000  0.409100  0.768930  1
  C  C2551  1  0.090900  0.563000  0.018930  1
  C  C2552  1  0.909100  0.437000  0.518930  1
  C  C2553  1  0.587300  0.061900  0.991300  1
  C  C2554  1  0.412700  0.938100  0.491300  1
  C  C2555  1  0.438100  0.087300  0.241300  1
  C  C2556  1  0.561900  0.912700  0.741300  1
  C  C2557  1  0.912700  0.561900  0.258700  1
  C  C2558  1  0.087300  0.438100  0.758700  1
  C  C2559  1  0.061900  0.587300  0.008700  1
  C  C2560  1  0.938100  0.412700  0.508700  1
  C  C2561  1  0.574700  0.060400  0.006900  1
  C  C2562  1  0.425300  0.939600  0.506900  1
  C  C2563  1  0.439600  0.074700  0.256900  1
  C  C2564  1  0.560400  0.925300  0.756900  1
  C  C2565  1  0.925300  0.560400  0.243100  1
  C  C2566  1  0.074700  0.439600  0.743100  1
  C  C2567  1  0.060400  0.574700  0.993100  1
  C  C2568  1  0.939600  0.425300  0.493100  1
  C  C2569  1  0.437900  0.446800  0.901600  1.0
  C  C2570  1  0.562100  0.553200  0.401600  1.0
  C  C2571  1  0.053200  0.937900  0.151600  1.0
  C  C2572  1  0.946800  0.062100  0.651600  1.0
  C  C2573  1  0.062100  0.946800  0.348400  1.0
  C  C2574  1  0.937900  0.053200  0.848400  1.0
  C  C2575  1  0.446800  0.437900  0.098400  1.0
  C  C2576  1  0.553200  0.562100  0.598400  1.0
  C  C2577  1  0.460100  0.455600  0.887500  1.0
  C  C2578  1  0.539900  0.544400  0.387500  1.0
  C  C2579  1  0.044400  0.960100  0.137500  1.0
  C  C2580  1  0.955600  0.039900  0.637500  1.0
  C  C2581  1  0.039900  0.955600  0.362500  1.0
  C  C2582  1  0.960100  0.044400  0.862500  1.0
  C  C2583  1  0.455600  0.460100  0.112500  1.0
  C  C2584  1  0.544400  0.539900  0.612500  1.0
  C  C2585  1  0.433600  0.466500  0.874400  1.0
  C  C2586  1  0.566400  0.533500  0.374400  1.0
  C  C2587  1  0.033500  0.933600  0.124400  1.0
  C  C2588  1  0.966500  0.066400  0.624400  1.0
  C  C2589  1  0.066400  0.966500  0.375600  1.0
  C  C2590  1  0.933600  0.033500  0.875600  1.0
  C  C2591  1  0.466500  0.433600  0.125600  1.0
  C  C2592  1  0.533500  0.566400  0.625600  1.0
  C  C2593  1  0.384900  0.468600  0.875400  1.0
  C  C2594  1  0.615100  0.531400  0.375400  1.0
  C  C2595  1  0.031400  0.884900  0.125400  1.0
  C  C2596  1  0.968600  0.115100  0.625400  1.0
  C  C2597  1  0.115100  0.968600  0.374600  1.0
  C  C2598  1  0.884900  0.031400  0.874600  1.0
  C  C2599  1  0.468600  0.384900  0.124600  1.0
  C  C2600  1  0.531400  0.615100  0.624600  1.0
  C  C2601  1  0.362700  0.459900  0.889500  1.0
  C  C2602  1  0.637300  0.540100  0.389500  1.0
  C  C2603  1  0.040100  0.862700  0.139500  1.0
  C  C2604  1  0.959900  0.137300  0.639500  1.0
  C  C2605  1  0.137300  0.959900  0.360500  1.0
  C  C2606  1  0.862700  0.040100  0.860500  1.0
  C  C2607  1  0.459900  0.362700  0.110500  1.0
  C  C2608  1  0.540100  0.637300  0.610500  1.0
  C  C2609  1  0.354800  0.478100  0.862800  1.0
  C  C2610  1  0.645200  0.521900  0.362800  1.0
  C  C2611  1  0.021900  0.854800  0.112800  1.0
  C  C2612  1  0.978100  0.145200  0.612800  1.0
  C  C2613  1  0.145200  0.978100  0.387200  1.0
  C  C2614  1  0.854800  0.021900  0.887200  1.0
  C  C2615  1  0.478100  0.354800  0.137200  1.0
  C  C2616  1  0.521900  0.645200  0.637200  1.0
  C  C2617  1  0.288400  0.510800  0.850900  1.0
  C  C2618  1  0.711600  0.489200  0.350900  1.0
  C  C2619  1  0.989200  0.788400  0.100900  1.0
  C  C2620  1  0.010800  0.211600  0.600900  1.0
  C  C2621  1  0.211600  0.010800  0.399100  1.0
  C  C2622  1  0.788400  0.989200  0.899100  1.0
  C  C2623  1  0.510800  0.288400  0.149100  1.0
  C  C2624  1  0.489200  0.711600  0.649100  1.0
  C  C2625  1  0.292700  0.557800  0.844800  1.0
  C  C2626  1  0.707300  0.442200  0.344800  1.0
  C  C2627  1  0.942200  0.792700  0.094800  1.0
  C  C2628  1  0.057800  0.207300  0.594800  1.0
  C  C2629  1  0.207300  0.057800  0.405200  1.0
  C  C2630  1  0.792700  0.942200  0.905200  1.0
  C  C2631  1  0.557800  0.292700  0.155200  1.0
  C  C2632  1  0.442200  0.707300  0.655200  1.0
  C  C2633  1  0.230900  0.497900  0.855700  1.0
  C  C2634  1  0.769100  0.502100  0.355700  1.0
  C  C2635  1  0.002100  0.730900  0.105700  1.0
  C  C2636  1  0.997900  0.269100  0.605700  1.0
  C  C2637  1  0.269100  0.997900  0.394300  1.0
  C  C2638  1  0.730900  0.002100  0.894300  1.0
  C  C2639  1  0.497900  0.230900  0.144300  1.0
  C  C2640  1  0.502100  0.769100  0.644300  1.0
  C  C2641  1  0.223900  0.445500  0.857000  1.0
  C  C2642  1  0.776100  0.554500  0.357000  1.0
  C  C2643  1  0.054500  0.723900  0.107000  1.0
  C  C2644  1  0.945500  0.276100  0.607000  1.0
  C  C2645  1  0.276100  0.945500  0.393000  1.0
  C  C2646  1  0.723900  0.054500  0.893000  1.0
  C  C2647  1  0.445500  0.223900  0.143000  1.0
  C  C2648  1  0.554500  0.776100  0.643000  1.0
  C  C2649  1  0.216100  0.418500  0.843700  1.0
  C  C2650  1  0.783900  0.581500  0.343700  1.0
  C  C2651  1  0.081500  0.716100  0.093700  1.0
  C  C2652  1  0.918500  0.283900  0.593700  1.0
  C  C2653  1  0.283900  0.918500  0.406300  1.0
  C  C2654  1  0.716100  0.081500  0.906300  1.0
  C  C2655  1  0.418500  0.216100  0.156300  1.0
  C  C2656  1  0.581500  0.783900  0.656300  1.0
  C  C2657  1  0.209900  0.370200  0.845000  1.0
  C  C2658  1  0.790100  0.629800  0.345000  1.0
  C  C2659  1  0.129800  0.709900  0.095000  1.0
  C  C2660  1  0.870200  0.290100  0.595000  1.0
  C  C2661  1  0.290100  0.870200  0.405000  1.0
  C  C2662  1  0.709900  0.129800  0.905000  1.0
  C  C2663  1  0.370200  0.209900  0.155000  1.0
  C  C2664  1  0.629800  0.790100  0.655000  1.0
  C  C2665  1  0.211700  0.348800  0.859500  1.0
  C  C2666  1  0.788300  0.651200  0.359500  1.0
  C  C2667  1  0.151200  0.711700  0.109500  1.0
  C  C2668  1  0.848800  0.288300  0.609500  1.0
  C  C2669  1  0.288300  0.848800  0.390500  1.0
  C  C2670  1  0.711700  0.151200  0.890500  1.0
  C  C2671  1  0.348800  0.211700  0.140500  1.0
  C  C2672  1  0.651200  0.788300  0.640500  1.0
  C  C2673  1  0.219500  0.375700  0.872800  1.0
  C  C2674  1  0.780500  0.624300  0.372800  1.0
  C  C2675  1  0.124300  0.719500  0.122800  1.0
  C  C2676  1  0.875700  0.280500  0.622800  1.0
  C  C2677  1  0.280500  0.875700  0.377200  1.0
  C  C2678  1  0.719500  0.124300  0.877200  1.0
  C  C2679  1  0.375700  0.219500  0.127200  1.0
  C  C2680  1  0.624300  0.780500  0.627200  1.0
  C  C2681  1  0.225600  0.424100  0.871500  1.0
  C  C2682  1  0.774400  0.575900  0.371500  1.0
  C  C2683  1  0.075900  0.725600  0.121500  1.0
  C  C2684  1  0.924100  0.274400  0.621500  1.0
  C  C2685  1  0.274400  0.924100  0.378500  1.0
  C  C2686  1  0.725600  0.075900  0.878500  1.0
  C  C2687  1  0.424100  0.225600  0.128500  1.0
  C  C2688  1  0.575900  0.774400  0.628500  1.0
  C  C2689  1  0.298800  0.603900  0.820100  1.0
  C  C2690  1  0.701200  0.396100  0.320100  1.0
  C  C2691  1  0.896100  0.798800  0.070100  1.0
  C  C2692  1  0.103900  0.201200  0.570100  1.0
  C  C2693  1  0.201200  0.103900  0.429900  1.0
  C  C2694  1  0.798800  0.896100  0.929900  1.0
  C  C2695  1  0.603900  0.298800  0.179900  1.0
  C  C2696  1  0.396100  0.701200  0.679900  1.0
  C  C2697  1  0.265300  0.605800  0.806700  1.0
  C  C2698  1  0.734700  0.394200  0.306700  1.0
  C  C2699  1  0.894200  0.765300  0.056700  1.0
  C  C2700  1  0.105800  0.234700  0.556700  1.0
  C  C2701  1  0.234700  0.105800  0.443300  1.0
  C  C2702  1  0.765300  0.894200  0.943300  1.0
  C  C2703  1  0.605800  0.265300  0.193300  1.0
  C  C2704  1  0.394200  0.734700  0.693300  1.0
  C  C2705  1  0.348300  0.620000  0.815500  1.0
  C  C2706  1  0.651700  0.380000  0.315500  1.0
  C  C2707  1  0.880000  0.848300  0.065500  1.0
  C  C2708  1  0.120000  0.151700  0.565500  1.0
  C  C2709  1  0.151700  0.120000  0.434500  1.0
  C  C2710  1  0.848300  0.880000  0.934500  1.0
  C  C2711  1  0.620000  0.348300  0.184500  1.0
  C  C2712  1  0.380000  0.651700  0.684500  1.0
  C  C2713  1  0.380000  0.603000  0.829100  1.0
  C  C2714  1  0.620000  0.397000  0.329100  1.0
  C  C2715  1  0.897000  0.880000  0.079100  1.0
  C  C2716  1  0.103000  0.120000  0.579100  1.0
  C  C2717  1  0.120000  0.103000  0.420900  1.0
  C  C2718  1  0.880000  0.897000  0.920900  1.0
  C  C2719  1  0.603000  0.380000  0.170900  1.0
  C  C2720  1  0.397000  0.620000  0.670900  1.0
  C  C2721  1  0.362000  0.584500  0.803600  1.0
  C  C2722  1  0.638000  0.415500  0.303600  1.0
  C  C2723  1  0.915500  0.862000  0.053600  1.0
  C  C2724  1  0.084500  0.138000  0.553600  1.0
  C  C2725  1  0.138000  0.084500  0.446400  1.0
  C  C2726  1  0.862000  0.915500  0.946400  1.0
  C  C2727  1  0.584500  0.362000  0.196400  1.0
  C  C2728  1  0.415500  0.638000  0.696400  1.0
  C  C2729  1  0.218000  0.651600  0.789600  1.0
  C  C2730  1  0.782000  0.348400  0.289600  1.0
  C  C2731  1  0.848400  0.718000  0.039600  1.0
  C  C2732  1  0.151600  0.282000  0.539600  1.0
  C  C2733  1  0.282000  0.151600  0.460400  1.0
  C  C2734  1  0.718000  0.848400  0.960400  1.0
  C  C2735  1  0.651600  0.218000  0.210400  1.0
  C  C2736  1  0.348400  0.782000  0.710400  1.0
  C  C2737  1  0.245400  0.653000  0.774000  1.0
  C  C2738  1  0.754600  0.347000  0.274000  1.0
  C  C2739  1  0.847000  0.745400  0.024000  1.0
  C  C2740  1  0.153000  0.254600  0.524000  1.0
  C  C2741  1  0.254600  0.153000  0.476000  1.0
  C  C2742  1  0.745400  0.847000  0.976000  1.0
  C  C2743  1  0.653000  0.245400  0.226000  1.0
  C  C2744  1  0.347000  0.754600  0.726000  1.0
  C  C2745  1  0.189200  0.700900  0.791000  1.0
  C  C2746  1  0.810800  0.299100  0.291000  1.0
  C  C2747  1  0.799100  0.689200  0.041000  1.0
  C  C2748  1  0.200900  0.310800  0.541000  1.0
  C  C2749  1  0.310800  0.200900  0.459000  1.0
  C  C2750  1  0.689200  0.799100  0.959000  1.0
  C  C2751  1  0.700900  0.189200  0.209000  1.0
  C  C2752  1  0.299100  0.810800  0.709000  1.0
  C  C2753  1  0.153600  0.707100  0.777700  1.0
  C  C2754  1  0.846400  0.292900  0.277700  1.0
  C  C2755  1  0.792900  0.653600  0.027700  1.0
  C  C2756  1  0.207100  0.346400  0.527700  1.0
  C  C2757  1  0.346400  0.207100  0.472300  1.0
  C  C2758  1  0.653600  0.792900  0.972300  1.0
  C  C2759  1  0.707100  0.153600  0.222300  1.0
  C  C2760  1  0.292900  0.846400  0.722300  1.0
  C  C2761  1  0.108200  0.689200  0.777700  1.0
  C  C2762  1  0.891800  0.310800  0.277700  1.0
  C  C2763  1  0.810800  0.608200  0.027700  1.0
  C  C2764  1  0.189200  0.391800  0.527700  1.0
  C  C2765  1  0.391800  0.189200  0.472300  1.0
  C  C2766  1  0.608200  0.810800  0.972300  1.0
  C  C2767  1  0.689200  0.108200  0.222300  1.0
  C  C2768  1  0.310800  0.891800  0.722300  1.0
  C  C2769  1  0.079300  0.695700  0.764900  1.0
  C  C2770  1  0.920700  0.304300  0.264900  1.0
  C  C2771  1  0.804300  0.579300  0.014900  1.0
  C  C2772  1  0.195700  0.420700  0.514900  1.0
  C  C2773  1  0.420700  0.195700  0.485100  1.0
  C  C2774  1  0.579300  0.804300  0.985100  1.0
  C  C2775  1  0.695700  0.079300  0.235100  1.0
  C  C2776  1  0.304300  0.920700  0.735100  1.0
  C  C2777  1  0.095900  0.720300  0.752000  1.0
  C  C2778  1  0.904100  0.279700  0.252000  1.0
  C  C2779  1  0.779700  0.595900  0.002000  1.0
  C  C2780  1  0.220300  0.404100  0.502000  1.0
  C  C2781  1  0.404100  0.220300  0.498000  1.0
  C  C2782  1  0.595900  0.779700  0.998000  1.0
  C  C2783  1  0.720300  0.095900  0.248000  1.0
  C  C2784  1  0.279700  0.904100  0.748000  1.0
  C  C2785  1  0.141400  0.738200  0.752000  1.0
  C  C2786  1  0.858600  0.261800  0.252000  1.0
  C  C2787  1  0.761800  0.641400  0.002000  1.0
  C  C2788  1  0.238200  0.358600  0.502000  1.0
  C  C2789  1  0.358600  0.238200  0.498000  1.0
  C  C2790  1  0.641400  0.761800  0.998000  1.0
  C  C2791  1  0.738200  0.141400  0.248000  1.0
  C  C2792  1  0.261800  0.858600  0.748000  1.0
  C  C2793  1  0.170200  0.731700  0.764900  1.0
  C  C2794  1  0.829800  0.268300  0.264900  1.0
  C  C2795  1  0.768300  0.670200  0.014900  1.0
  C  C2796  1  0.231700  0.329800  0.514900  1.0
  C  C2797  1  0.329800  0.231700  0.485100  1.0
  C  C2798  1  0.670200  0.768300  0.985100  1.0
  C  C2799  1  0.731700  0.170200  0.235100  1.0
  C  C2800  1  0.268300  0.829800  0.735100  1.0
  C  C2801  1  0.255200  0.627800  0.747500  1.0
  C  C2802  1  0.744800  0.372200  0.247500  1.0
  C  C2803  1  0.872200  0.755200  0.997500  1.0
  C  C2804  1  0.127800  0.244800  0.497500  1.0
  C  C2805  1  0.244800  0.127800  0.502500  1.0
  C  C2806  1  0.755200  0.872200  0.002500  1.0
  C  C2807  1  0.627800  0.255200  0.252500  1.0
  C  C2808  1  0.372200  0.744800  0.752500  1.0
  C  C2809  1  0.222900  0.636200  0.735800  1.0
  C  C2810  1  0.777100  0.363800  0.235800  1.0
  C  C2811  1  0.863800  0.722900  0.985800  1.0
  C  C2812  1  0.136200  0.277100  0.485800  1.0
  C  C2813  1  0.277100  0.136200  0.514200  1.0
  C  C2814  1  0.722900  0.863800  0.014200  1.0
  C  C2815  1  0.636200  0.222900  0.264200  1.0
  C  C2816  1  0.363800  0.777100  0.764200  1.0
  C  C2817  1  0.280200  0.580800  0.745100  1.0
  C  C2818  1  0.719800  0.419200  0.245100  1.0
  C  C2819  1  0.919200  0.780200  0.995100  1.0
  C  C2820  1  0.080800  0.219800  0.495100  1.0
  C  C2821  1  0.219800  0.080800  0.504900  1.0
  C  C2822  1  0.780200  0.919200  0.004900  1.0
  C  C2823  1  0.580800  0.280200  0.254900  1.0
  C  C2824  1  0.419200  0.719800  0.754900  1.0
  C  C2825  1  0.311500  0.578000  0.730200  1.0
  C  C2826  1  0.688500  0.422000  0.230200  1.0
  C  C2827  1  0.922000  0.811500  0.980200  1.0
  C  C2828  1  0.078000  0.188500  0.480200  1.0
  C  C2829  1  0.188500  0.078000  0.519800  1.0
  C  C2830  1  0.811500  0.922000  0.019800  1.0
  C  C2831  1  0.578000  0.311500  0.269800  1.0
  C  C2832  1  0.422000  0.688500  0.769800  1.0
  C  C2833  1  0.320400  0.573200  0.756500  1.0
  C  C2834  1  0.679600  0.426800  0.256500  1.0
  C  C2835  1  0.926800  0.820400  0.006500  1.0
  C  C2836  1  0.073200  0.179600  0.506500  1.0
  C  C2837  1  0.179600  0.073200  0.493500  1.0
  C  C2838  1  0.820400  0.926800  0.993500  1.0
  C  C2839  1  0.573200  0.320400  0.243500  1.0
  C  C2840  1  0.426800  0.679600  0.743500  1.0
  C  C2841  1  0.207000  0.682700  0.710700  1.0
  C  C2842  1  0.793000  0.317300  0.210700  1.0
  C  C2843  1  0.817300  0.707000  0.960700  1.0
  C  C2844  1  0.182700  0.293000  0.460700  1.0
  C  C2845  1  0.293000  0.182700  0.539300  1.0
  C  C2846  1  0.707000  0.817300  0.039300  1.0
  C  C2847  1  0.682700  0.207000  0.289300  1.0
  C  C2848  1  0.317300  0.793000  0.789300  1.0
  C  C2849  1  0.158400  0.682200  0.709100  1.0
  C  C2850  1  0.841600  0.317800  0.209100  1.0
  C  C2851  1  0.817800  0.658400  0.959100  1.0
  C  C2852  1  0.182200  0.341600  0.459100  1.0
  C  C2853  1  0.341600  0.182200  0.540900  1.0
  C  C2854  1  0.658400  0.817800  0.040900  1.0
  C  C2855  1  0.682200  0.158400  0.290900  1.0
  C  C2856  1  0.317800  0.841600  0.790900  1.0
  C  C2857  1  0.138100  0.691500  0.694700  1.0
  C  C2858  1  0.861900  0.308500  0.194700  1.0
  C  C2859  1  0.808500  0.638100  0.944700  1.0
  C  C2860  1  0.191500  0.361900  0.444700  1.0
  C  C2861  1  0.361900  0.191500  0.555300  1.0
  C  C2862  1  0.638100  0.808500  0.055300  1.0
  C  C2863  1  0.691500  0.138100  0.305300  1.0
  C  C2864  1  0.308500  0.861900  0.805300  1.0
  C  C2865  1  0.166500  0.701300  0.681900  1.0
  C  C2866  1  0.833500  0.298700  0.181900  1.0
  C  C2867  1  0.798700  0.666500  0.931900  1.0
  C  C2868  1  0.201300  0.333500  0.431900  1.0
  C  C2869  1  0.333500  0.201300  0.568100  1.0
  C  C2870  1  0.666500  0.798700  0.068100  1.0
  C  C2871  1  0.701300  0.166500  0.318100  1.0
  C  C2872  1  0.298700  0.833500  0.818100  1.0
  C  C2873  1  0.215100  0.701800  0.683600  1.0
  C  C2874  1  0.784900  0.298200  0.183600  1.0
  C  C2875  1  0.798200  0.715100  0.933600  1.0
  C  C2876  1  0.201800  0.284900  0.433600  1.0
  C  C2877  1  0.284900  0.201800  0.566400  1.0
  C  C2878  1  0.715100  0.798200  0.066400  1.0
  C  C2879  1  0.701800  0.215100  0.316400  1.0
  C  C2880  1  0.298200  0.784900  0.816400  1.0
  C  C2881  1  0.235400  0.692500  0.698000  1.0
  C  C2882  1  0.764600  0.307500  0.198000  1.0
  C  C2883  1  0.807500  0.735400  0.948000  1.0
  C  C2884  1  0.192500  0.264600  0.448000  1.0
  C  C2885  1  0.264600  0.192500  0.552000  1.0
  C  C2886  1  0.735400  0.807500  0.052000  1.0
  C  C2887  1  0.692500  0.235400  0.302000  1.0
  C  C2888  1  0.307500  0.764600  0.802000  1.0
  C  C2889  1  0.250400  0.713300  0.669700  1.0
  C  C2890  1  0.749600  0.286700  0.169700  1.0
  C  C2891  1  0.786700  0.750400  0.919700  1.0
  C  C2892  1  0.213300  0.249600  0.419700  1.0
  C  C2893  1  0.249600  0.213300  0.580300  1.0
  C  C2894  1  0.750400  0.786700  0.080300  1.0
  C  C2895  1  0.713300  0.250400  0.330300  1.0
  C  C2896  1  0.286700  0.749600  0.830300  1.0
  C  C2897  1  0.281500  0.699000  0.645800  1.0
  C  C2898  1  0.718500  0.301000  0.145800  1.0
  C  C2899  1  0.801000  0.781500  0.895800  1.0
  C  C2900  1  0.199000  0.218500  0.395800  1.0
  C  C2901  1  0.218500  0.199000  0.604200  1.0
  C  C2902  1  0.781500  0.801000  0.104200  1.0
  C  C2903  1  0.699000  0.281500  0.354200  1.0
  C  C2904  1  0.301000  0.718500  0.854200  1.0
  C  C2905  1  0.280300  0.743800  0.639000  1.0
  C  C2906  1  0.719700  0.256200  0.139000  1.0
  C  C2907  1  0.756200  0.780300  0.889000  1.0
  C  C2908  1  0.243800  0.219700  0.389000  1.0
  C  C2909  1  0.219700  0.243800  0.611000  1.0
  C  C2910  1  0.780300  0.756200  0.111000  1.0
  C  C2911  1  0.743800  0.280300  0.361000  1.0
  C  C2912  1  0.256200  0.719700  0.861000  1.0
  C  C2913  1  0.214100  0.657500  0.652300  1.0
  C  C2914  1  0.785900  0.342500  0.152300  1.0
  C  C2915  1  0.842500  0.714100  0.902300  1.0
  C  C2916  1  0.157500  0.285900  0.402300  1.0
  C  C2917  1  0.285900  0.157500  0.597700  1.0
  C  C2918  1  0.714100  0.842500  0.097700  1.0
  C  C2919  1  0.657500  0.214100  0.347700  1.0
  C  C2920  1  0.342500  0.785900  0.847700  1.0
  C  C2921  1  0.227500  0.644000  0.635900  1.0
  C  C2922  1  0.772500  0.356000  0.135900  1.0
  C  C2923  1  0.856000  0.727500  0.885900  1.0
  C  C2924  1  0.144000  0.272500  0.385900  1.0
  C  C2925  1  0.272500  0.144000  0.614100  1.0
  C  C2926  1  0.727500  0.856000  0.114100  1.0
  C  C2927  1  0.644000  0.227500  0.364100  1.0
  C  C2928  1  0.356000  0.772500  0.864100  1.0
  C  C2929  1  0.274200  0.667200  0.631500  1.0
  C  C2930  1  0.725800  0.332800  0.131500  1.0
  C  C2931  1  0.832800  0.774200  0.881500  1.0
  C  C2932  1  0.167200  0.225800  0.381500  1.0
  C  C2933  1  0.225800  0.167200  0.618500  1.0
  C  C2934  1  0.774200  0.832800  0.118500  1.0
  C  C2935  1  0.667200  0.274200  0.368500  1.0
  C  C2936  1  0.332800  0.725800  0.868500  1.0
  C  C2937  1  0.335100  0.812200  0.627700  1.0
  C  C2938  1  0.664900  0.187800  0.127700  1.0
  C  C2939  1  0.687800  0.835100  0.877700  1.0
  C  C2940  1  0.312200  0.164900  0.377700  1.0
  C  C2941  1  0.164900  0.312200  0.622300  1.0
  C  C2942  1  0.835100  0.687800  0.122300  1.0
  C  C2943  1  0.812200  0.335100  0.372300  1.0
  C  C2944  1  0.187800  0.664900  0.872300  1.0
  C  C2945  1  0.359400  0.794100  0.612100  1.0
  C  C2946  1  0.640600  0.205900  0.112100  1.0
  C  C2947  1  0.705900  0.859400  0.862100  1.0
  C  C2948  1  0.294100  0.140600  0.362100  1.0
  C  C2949  1  0.140600  0.294100  0.637900  1.0
  C  C2950  1  0.859400  0.705900  0.137900  1.0
  C  C2951  1  0.794100  0.359400  0.387900  1.0
  C  C2952  1  0.205900  0.640600  0.887900  1.0
  C  C2953  1  0.387200  0.818800  0.586500  1.0
  C  C2954  1  0.612800  0.181200  0.086500  1.0
  C  C2955  1  0.681200  0.887200  0.836500  1.0
  C  C2956  1  0.318800  0.112800  0.336500  1.0
  C  C2957  1  0.112800  0.318800  0.663500  1.0
  C  C2958  1  0.887200  0.681200  0.163500  1.0
  C  C2959  1  0.818800  0.387200  0.413500  1.0
  C  C2960  1  0.181200  0.612800  0.913500  1.0
  C  C2961  1  0.439600  0.818300  0.590100  1.0
  C  C2962  1  0.560400  0.181700  0.090100  1.0
  C  C2963  1  0.681700  0.939600  0.840100  1.0
  C  C2964  1  0.318300  0.060400  0.340100  1.0
  C  C2965  1  0.060400  0.318300  0.659900  1.0
  C  C2966  1  0.939600  0.681700  0.159900  1.0
  C  C2967  1  0.818300  0.439600  0.409900  1.0
  C  C2968  1  0.181700  0.560400  0.909900  1.0
  C  C2969  1  0.352000  0.885500  0.600400  1.0
  C  C2970  1  0.648000  0.114500  0.100400  1.0
  C  C2971  1  0.614500  0.852000  0.850400  1.0
  C  C2972  1  0.385500  0.148000  0.350400  1.0
  C  C2973  1  0.148000  0.385500  0.649600  1.0
  C  C2974  1  0.852000  0.614500  0.149600  1.0
  C  C2975  1  0.885500  0.352000  0.399600  1.0
  C  C2976  1  0.114500  0.648000  0.899600  1.0
  C  C2977  1  0.375000  0.901900  0.585500  1.0
  C  C2978  1  0.625000  0.098100  0.085500  1.0
  C  C2979  1  0.598100  0.875000  0.835500  1.0
  C  C2980  1  0.401900  0.125000  0.335500  1.0
  C  C2981  1  0.125000  0.401900  0.664500  1.0
  C  C2982  1  0.875000  0.598100  0.164500  1.0
  C  C2983  1  0.901900  0.375000  0.414500  1.0
  C  C2984  1  0.098100  0.625000  0.914500  1.0
  C  C2985  1  0.376000  0.858400  0.575100  1.0
  C  C2986  1  0.624000  0.141600  0.075100  1.0
  C  C2987  1  0.641600  0.876000  0.825100  1.0
  C  C2988  1  0.358400  0.124000  0.325100  1.0
  C  C2989  1  0.124000  0.358400  0.674900  1.0
  C  C2990  1  0.876000  0.641600  0.174900  1.0
  C  C2991  1  0.858400  0.376000  0.424900  1.0
  C  C2992  1  0.141600  0.624000  0.924900  1.0
  C  C2993  1  0.511700  0.725200  0.578500  1.0
  C  C2994  1  0.488300  0.274800  0.078500  1.0
  C  C2995  1  0.774800  0.011700  0.828500  1.0
  C  C2996  1  0.225200  0.988300  0.328500  1.0
  C  C2997  1  0.988300  0.225200  0.671500  1.0
  C  C2998  1  0.011700  0.774800  0.171500  1.0
  C  C2999  1  0.725200  0.511700  0.421500  1.0
  C  C3000  1  0.274800  0.488300  0.921500  1.0
  C  C3001  1  0.501400  0.772500  0.580800  1.0
  C  C3002  1  0.498600  0.227500  0.080800  1.0
  C  C3003  1  0.727500  0.001400  0.830800  1.0
  C  C3004  1  0.272500  0.998600  0.330800  1.0
  C  C3005  1  0.998600  0.272500  0.669200  1.0
  C  C3006  1  0.001400  0.727500  0.169200  1.0
  C  C3007  1  0.772500  0.501400  0.419200  1.0
  C  C3008  1  0.227500  0.498600  0.919200  1.0
  C  C3009  1  0.536900  0.803700  0.584900  1.0
  C  C3010  1  0.463100  0.196300  0.084900  1.0
  C  C3011  1  0.696300  0.036900  0.834900  1.0
  C  C3012  1  0.303700  0.963100  0.334900  1.0
  C  C3013  1  0.963100  0.303700  0.665100  1.0
  C  C3014  1  0.036900  0.696300  0.165100  1.0
  C  C3015  1  0.803700  0.536900  0.415100  1.0
  C  C3016  1  0.196300  0.463100  0.915100  1.0
  C  C3017  1  0.582800  0.787600  0.586600  1.0
  C  C3018  1  0.417200  0.212400  0.086600  1.0
  C  C3019  1  0.712400  0.082800  0.836600  1.0
  C  C3020  1  0.287600  0.917200  0.336600  1.0
  C  C3021  1  0.917200  0.287600  0.663400  1.0
  C  C3022  1  0.082800  0.712400  0.163400  1.0
  C  C3023  1  0.787600  0.582800  0.413400  1.0
  C  C3024  1  0.212400  0.417200  0.913400  1.0
  C  C3025  1  0.593100  0.740400  0.584300  1.0
  C  C3026  1  0.406900  0.259600  0.084300  1.0
  C  C3027  1  0.759600  0.093100  0.834300  1.0
  C  C3028  1  0.240400  0.906900  0.334300  1.0
  C  C3029  1  0.906900  0.240400  0.665700  1.0
  C  C3030  1  0.093100  0.759600  0.165700  1.0
  C  C3031  1  0.740400  0.593100  0.415700  1.0
  C  C3032  1  0.259600  0.406900  0.915700  1.0
  I  I3033  1  0.457340  0.851680  0.955910  1
  I  I3034  1  0.542660  0.148320  0.455910  1
  I  I3035  1  0.648320  0.957340  0.205910  1
  I  I3036  1  0.351680  0.042660  0.705910  1
  I  I3037  1  0.042660  0.351680  0.294090  1
  I  I3038  1  0.957340  0.648320  0.794090  1
  I  I3039  1  0.851680  0.457340  0.044090  1
  I  I3040  1  0.148320  0.542660  0.544090  1
  I  I3041  1  0.393570  0.857800  0.003020  1
  I  I3042  1  0.606430  0.142200  0.503020  1
  I  I3043  1  0.642200  0.893570  0.253020  1
  I  I3044  1  0.357800  0.106430  0.753020  1
  I  I3045  1  0.106430  0.357800  0.246980  1
  I  I3046  1  0.893570  0.642200  0.746980  1
  I  I3047  1  0.857800  0.393570  0.996980  1
  I  I3048  1  0.142200  0.606430  0.496980  1
  I  I3049  1  0.561940  0.027120  0.049730  1
  I  I3050  1  0.438060  0.972880  0.549730  1
  I  I3051  1  0.472880  0.061940  0.299730  1
  I  I3052  1  0.527120  0.938060  0.799730  1
  I  I3053  1  0.938060  0.527120  0.200270  1
  I  I3054  1  0.061940  0.472880  0.700270  1
  I  I3055  1  0.027120  0.561940  0.950270  1
  I  I3056  1  0.972880  0.438060  0.450270  1
  I  I3057  1  0.492150  0.165660  0.043490  1
  I  I3058  1  0.507850  0.834340  0.543490  1
  I  I3059  1  0.334340  0.992150  0.293490  1
  I  I3060  1  0.665660  0.007850  0.793490  1
  I  I3061  1  0.007850  0.665660  0.206510  1
  I  I3062  1  0.992150  0.334340  0.706510  1
  I  I3063  1  0.165660  0.492150  0.956510  1
  I  I3064  1  0.834340  0.507850  0.456510  1
  I  I3065  1  0.373500  0.324300  0.921500  1
  I  I3066  1  0.626500  0.675700  0.421500  1
  I  I3067  1  0.175700  0.873500  0.171500  1
  I  I3068  1  0.824300  0.126500  0.671500  1
  I  I3069  1  0.126500  0.824300  0.328500  1
  I  I3070  1  0.873500  0.175700  0.828500  1
  I  I3071  1  0.324300  0.373500  0.078500  1
  I  I3072  1  0.675700  0.626500  0.578500  1
  I  I3073  1  0.391700  0.446700  0.944710  1
  I  I3074  1  0.608300  0.553300  0.444710  1
  I  I3075  1  0.053300  0.891700  0.194710  1
  I  I3076  1  0.946700  0.108300  0.694710  1
  I  I3077  1  0.108300  0.946700  0.305290  1
  I  I3078  1  0.891700  0.053300  0.805290  1
  I  I3079  1  0.446700  0.391700  0.055290  1
  I  I3080  1  0.553300  0.608300  0.555290  1
  I  I3081  1  0.395300  0.380600  0.937500  1.0
  I  I3082  1  0.604700  0.619400  0.437500  1.0
  I  I3083  1  0.119400  0.895300  0.187500  1.0
  I  I3084  1  0.880600  0.104700  0.687500  1.0
  I  I3085  1  0.104700  0.880600  0.312500  1.0
  I  I3086  1  0.895300  0.119400  0.812500  1.0
  I  I3087  1  0.380600  0.395300  0.062500  1.0
  I  I3088  1  0.619400  0.604700  0.562500  1.0
  I  I3089  1  0.396200  0.519000  0.941420  1.0
  I  I3090  1  0.603800  0.481000  0.441420  1.0
  I  I3091  1  0.981000  0.896200  0.191420  1.0
  I  I3092  1  0.019000  0.103800  0.691420  1.0
  I  I3093  1  0.103800  0.019000  0.308580  1.0
  I  I3094  1  0.896200  0.981000  0.808580  1.0
  I  I3095  1  0.519000  0.396200  0.058580  1.0
  I  I3096  1  0.481000  0.603800  0.558580  1.0
  N  N3097  1  0.446600  0.053100  0.028700  1
  N  N3098  1  0.553400  0.946900  0.528700  1
  N  N3099  1  0.446900  0.946600  0.278700  1
  N  N3100  1  0.553100  0.053400  0.778700  1
  N  N3101  1  0.053400  0.553100  0.221300  1
  N  N3102  1  0.946600  0.446900  0.721300  1
  N  N3103  1  0.053100  0.446600  0.971300  1
  N  N3104  1  0.946900  0.553400  0.471300  1
  N  N3105  1  0.337600  0.125700  0.005700  1
  N  N3106  1  0.662400  0.874300  0.505700  1
  N  N3107  1  0.374300  0.837600  0.255700  1
  N  N3108  1  0.625700  0.162400  0.755700  1
  N  N3109  1  0.162400  0.625700  0.244300  1
  N  N3110  1  0.837600  0.374300  0.744300  1
  N  N3111  1  0.125700  0.337600  0.994300  1
  N  N3112  1  0.874300  0.662400  0.494300  1
  N  N3113  1  0.229400  0.141300  0.985800  1
  N  N3114  1  0.770600  0.858700  0.485800  1
  N  N3115  1  0.358700  0.729400  0.235800  1
  N  N3116  1  0.641300  0.270600  0.735800  1
  N  N3117  1  0.270600  0.641300  0.264200  1
  N  N3118  1  0.729400  0.358700  0.764200  1
  N  N3119  1  0.141300  0.229400  0.014200  1
  N  N3120  1  0.858700  0.770600  0.514200  1
  N  N3121  1  0.149300  0.183800  0.957500  1
  N  N3122  1  0.850700  0.816200  0.457500  1
  N  N3123  1  0.316200  0.649300  0.207500  1
  N  N3124  1  0.683800  0.350700  0.707500  1
  N  N3125  1  0.350700  0.683800  0.292500  1
  N  N3126  1  0.649300  0.316200  0.792500  1
  N  N3127  1  0.183800  0.149300  0.042500  1
  N  N3128  1  0.816200  0.850700  0.542500  1
  N  N3129  1  0.031300  0.211200  0.965900  1
  N  N3130  1  0.968700  0.788800  0.465900  1
  N  N3131  1  0.288800  0.531300  0.215900  1
  N  N3132  1  0.711200  0.468700  0.715900  1
  N  N3133  1  0.468700  0.711200  0.284100  1
  N  N3134  1  0.531300  0.288800  0.784100  1
  N  N3135  1  0.211200  0.031300  0.034100  1
  N  N3136  1  0.788800  0.968700  0.534100  1
  N  N3137  1  0.910600  0.223300  0.957400  1
  N  N3138  1  0.089400  0.776700  0.457400  1
  N  N3139  1  0.276700  0.410600  0.207400  1
  N  N3140  1  0.723300  0.589400  0.707400  1
  N  N3141  1  0.589400  0.723300  0.292600  1
  N  N3142  1  0.410600  0.276700  0.792600  1
  N  N3143  1  0.223300  0.910600  0.042600  1
  N  N3144  1  0.776700  0.089400  0.542600  1
  N  N3145  1  0.700300  0.240700  0.961100  1
  N  N3146  1  0.299700  0.759300  0.461100  1
  N  N3147  1  0.259300  0.200300  0.211100  1
  N  N3148  1  0.740700  0.799700  0.711100  1
  N  N3149  1  0.799700  0.740700  0.288900  1
  N  N3150  1  0.200300  0.259300  0.788900  1
  N  N3151  1  0.240700  0.700300  0.038900  1
  N  N3152  1  0.759300  0.299700  0.538900  1
  N  N3153  1  0.635000  0.156100  0.941900  1
  N  N3154  1  0.365000  0.843900  0.441900  1
  N  N3155  1  0.343900  0.135000  0.191900  1
  N  N3156  1  0.656100  0.865000  0.691900  1
  N  N3157  1  0.865000  0.656100  0.308100  1
  N  N3158  1  0.135000  0.343900  0.808100  1
  N  N3159  1  0.156100  0.635000  0.058100  1
  N  N3160  1  0.843900  0.365000  0.558100  1
  N  N3161  1  0.537200  0.095100  0.924700  1
  N  N3162  1  0.462800  0.904900  0.424700  1
  N  N3163  1  0.404900  0.037200  0.174700  1
  N  N3164  1  0.595100  0.962800  0.674700  1
  N  N3165  1  0.962800  0.595100  0.325300  1
  N  N3166  1  0.037200  0.404900  0.825300  1
  N  N3167  1  0.095100  0.537200  0.075300  1
  N  N3168  1  0.904900  0.462800  0.575300  1
  N  N3169  1  0.442900  0.061300  0.950600  1
  N  N3170  1  0.557100  0.938700  0.450600  1
  N  N3171  1  0.438700  0.942900  0.200600  1
  N  N3172  1  0.561300  0.057100  0.700600  1
  N  N3173  1  0.057100  0.561300  0.299400  1
  N  N3174  1  0.942900  0.438700  0.799400  1
  N  N3175  1  0.061300  0.442900  0.049400  1
  N  N3176  1  0.938700  0.557100  0.549400  1
  N  N3177  1  0.412700  0.959000  0.974600  1
  N  N3178  1  0.587300  0.041000  0.474600  1
  N  N3179  1  0.541000  0.912700  0.224600  1
  N  N3180  1  0.459000  0.087300  0.724600  1
  N  N3181  1  0.087300  0.459000  0.275400  1
  N  N3182  1  0.912700  0.541000  0.775400  1
  N  N3183  1  0.959000  0.412700  0.025400  1
  N  N3184  1  0.041000  0.587300  0.525400  1
  N  N3185  1  0.506600  0.912200  0.989800  1
  N  N3186  1  0.493400  0.087800  0.489800  1
  N  N3187  1  0.587800  0.006600  0.239800  1
  N  N3188  1  0.412200  0.993400  0.739800  1
  N  N3189  1  0.993400  0.412200  0.260200  1
  N  N3190  1  0.006600  0.587800  0.760200  1
  N  N3191  1  0.912200  0.506600  0.010200  1
  N  N3192  1  0.087800  0.493400  0.510200  1
  N  N3193  1  0.612900  0.969500  0.960700  1
  N  N3194  1  0.387100  0.030500  0.460700  1
  N  N3195  1  0.530500  0.112900  0.210700  1
  N  N3196  1  0.469500  0.887100  0.710700  1
  N  N3197  1  0.887100  0.469500  0.289300  1
  N  N3198  1  0.112900  0.530500  0.789300  1
  N  N3199  1  0.969500  0.612900  0.039300  1
  N  N3200  1  0.030500  0.387100  0.539300  1
  N  N3201  1  0.721000  0.027300  0.952000  1
  N  N3202  1  0.279000  0.972700  0.452000  1
  N  N3203  1  0.472700  0.221000  0.202000  1
  N  N3204  1  0.527300  0.779000  0.702000  1
  N  N3205  1  0.779000  0.527300  0.298000  1
  N  N3206  1  0.221000  0.472700  0.798000  1
  N  N3207  1  0.027300  0.721000  0.048000  1
  N  N3208  1  0.972700  0.279000  0.548000  1
  N  N3209  1  0.799900  0.110000  0.936500  1
  N  N3210  1  0.200100  0.890000  0.436500  1
  N  N3211  1  0.390000  0.299900  0.186500  1
  N  N3212  1  0.610000  0.700100  0.686500  1
  N  N3213  1  0.700100  0.610000  0.313500  1
  N  N3214  1  0.299900  0.390000  0.813500  1
  N  N3215  1  0.110000  0.799900  0.063500  1
  N  N3216  1  0.890000  0.200100  0.563500  1
  N  N3217  1  0.916400  0.083100  0.925700  1
  N  N3218  1  0.083600  0.916900  0.425700  1
  N  N3219  1  0.416900  0.416400  0.175700  1
  N  N3220  1  0.583100  0.583600  0.675700  1
  N  N3221  1  0.583600  0.583100  0.324300  1
  N  N3222  1  0.416400  0.416900  0.824300  1
  N  N3223  1  0.083100  0.916400  0.074300  1
  N  N3224  1  0.916900  0.083600  0.574300  1
  N  N3225  1  0.034400  0.109400  0.920600  1
  N  N3226  1  0.965600  0.890600  0.420600  1
  N  N3227  1  0.390600  0.534400  0.170600  1
  N  N3228  1  0.609400  0.465600  0.670600  1
  N  N3229  1  0.465600  0.609400  0.329400  1
  N  N3230  1  0.534400  0.390600  0.829400  1
  N  N3231  1  0.109400  0.034400  0.079400  1
  N  N3232  1  0.890600  0.965600  0.579400  1
  N  N3233  1  0.243200  0.100700  0.915300  1
  N  N3234  1  0.756800  0.899300  0.415300  1
  N  N3235  1  0.399300  0.743200  0.165300  1
  N  N3236  1  0.600700  0.256800  0.665300  1
  N  N3237  1  0.256800  0.600700  0.334700  1
  N  N3238  1  0.743200  0.399300  0.834700  1
  N  N3239  1  0.100700  0.243200  0.084700  1
  N  N3240  1  0.899300  0.756800  0.584700  1
  N  N3241  1  0.311700  0.157900  0.942900  1
  N  N3242  1  0.688300  0.842100  0.442900  1
  N  N3243  1  0.342100  0.811700  0.192900  1
  N  N3244  1  0.657900  0.188300  0.692900  1
  N  N3245  1  0.188300  0.657900  0.307100  1
  N  N3246  1  0.811700  0.342100  0.807100  1
  N  N3247  1  0.157900  0.311700  0.057100  1
  N  N3248  1  0.842100  0.688300  0.557100  1
  N  N3249  1  0.409400  0.219100  0.960600  1
  N  N3250  1  0.590600  0.780900  0.460600  1
  N  N3251  1  0.280900  0.909400  0.210600  1
  N  N3252  1  0.719100  0.090600  0.710600  1
  N  N3253  1  0.090600  0.719100  0.289400  1
  N  N3254  1  0.909400  0.280900  0.789400  1
  N  N3255  1  0.219100  0.409400  0.039400  1
  N  N3256  1  0.780900  0.590600  0.539400  1
  N  N3257  1  0.503200  0.146100  0.975300  1
  N  N3258  1  0.496800  0.853900  0.475300  1
  N  N3259  1  0.353900  0.003200  0.225300  1
  N  N3260  1  0.646100  0.996800  0.725300  1
  N  N3261  1  0.996800  0.646100  0.274700  1
  N  N3262  1  0.003200  0.353900  0.774700  1
  N  N3263  1  0.146100  0.503200  0.024700  1
  N  N3264  1  0.853900  0.496800  0.524700  1
  N  N3265  1  0.537700  0.087900  0.012330  1
  N  N3266  1  0.462300  0.912100  0.512330  1
  N  N3267  1  0.412100  0.037700  0.262330  1
  N  N3268  1  0.587900  0.962300  0.762330  1
  N  N3269  1  0.962300  0.587900  0.237670  1
  N  N3270  1  0.037700  0.412100  0.737670  1
  N  N3271  1  0.087900  0.537700  0.987670  1
  N  N3272  1  0.912100  0.462300  0.487670  1
  N  N3273  1  0.389200  0.448900  0.902600  1.0
  N  N3274  1  0.610800  0.551100  0.402600  1.0
  N  N3275  1  0.051100  0.889200  0.152600  1.0
  N  N3276  1  0.948900  0.110800  0.652600  1.0
  N  N3277  1  0.110800  0.948900  0.347400  1.0
  N  N3278  1  0.889200  0.051100  0.847400  1.0
  N  N3279  1  0.448900  0.389200  0.097400  1.0
  N  N3280  1  0.551100  0.610800  0.597400  1.0
  N  N3281  1  0.317200  0.502100  0.863500  1.0
  N  N3282  1  0.682800  0.497900  0.363500  1.0
  N  N3283  1  0.997900  0.817200  0.113500  1.0
  N  N3284  1  0.002100  0.182800  0.613500  1.0
  N  N3285  1  0.182800  0.002100  0.386500  1.0
  N  N3286  1  0.817200  0.997900  0.886500  1.0
  N  N3287  1  0.502100  0.317200  0.136500  1.0
  N  N3288  1  0.497900  0.682800  0.636500  1.0
  N  N3289  1  0.296500  0.560900  0.828700  1.0
  N  N3290  1  0.703500  0.439100  0.328700  1.0
  N  N3291  1  0.939100  0.796500  0.078700  1.0
  N  N3292  1  0.060900  0.203500  0.578700  1.0
  N  N3293  1  0.203500  0.060900  0.421300  1.0
  N  N3294  1  0.796500  0.939100  0.921300  1.0
  N  N3295  1  0.560900  0.296500  0.171300  1.0
  N  N3296  1  0.439100  0.703500  0.671300  1.0
  N  N3297  1  0.246400  0.647500  0.803300  1.0
  N  N3298  1  0.753600  0.352500  0.303300  1.0
  N  N3299  1  0.852500  0.746400  0.053300  1.0
  N  N3300  1  0.147500  0.253600  0.553300  1.0
  N  N3301  1  0.253600  0.147500  0.446700  1.0
  N  N3302  1  0.746400  0.852500  0.946700  1.0
  N  N3303  1  0.647500  0.246400  0.196700  1.0
  N  N3304  1  0.352500  0.753600  0.696700  1.0
  N  N3305  1  0.234300  0.629000  0.762800  1.0
  N  N3306  1  0.765700  0.371000  0.262800  1.0
  N  N3307  1  0.871000  0.734300  0.012800  1.0
  N  N3308  1  0.129000  0.265700  0.512800  1.0
  N  N3309  1  0.265700  0.129000  0.487200  1.0
  N  N3310  1  0.734300  0.871000  0.987200  1.0
  N  N3311  1  0.629000  0.234300  0.237200  1.0
  N  N3312  1  0.371000  0.765700  0.737200  1.0
  N  N3313  1  0.229100  0.671300  0.724700  1.0
  N  N3314  1  0.770900  0.328700  0.224700  1.0
  N  N3315  1  0.828700  0.729100  0.974700  1.0
  N  N3316  1  0.171300  0.270900  0.474700  1.0
  N  N3317  1  0.270900  0.171300  0.525300  1.0
  N  N3318  1  0.729100  0.828700  0.025300  1.0
  N  N3319  1  0.671300  0.229100  0.275300  1.0
  N  N3320  1  0.328700  0.770900  0.775300  1.0
  N  N3321  1  0.241700  0.698200  0.657000  1.0
  N  N3322  1  0.758300  0.301800  0.157000  1.0
  N  N3323  1  0.801800  0.741700  0.907000  1.0
  N  N3324  1  0.198200  0.258300  0.407000  1.0
  N  N3325  1  0.258300  0.198200  0.593000  1.0
  N  N3326  1  0.741700  0.801800  0.093000  1.0
  N  N3327  1  0.698200  0.241700  0.343000  1.0
  N  N3328  1  0.301800  0.758300  0.843000  1.0
  N  N3329  1  0.327100  0.769100  0.638000  1.0
  N  N3330  1  0.672900  0.230900  0.138000  1.0
  N  N3331  1  0.730900  0.827100  0.888000  1.0
  N  N3332  1  0.269100  0.172900  0.388000  1.0
  N  N3333  1  0.172900  0.269100  0.612000  1.0
  N  N3334  1  0.827100  0.730900  0.112000  1.0
  N  N3335  1  0.769100  0.327100  0.362000  1.0
  N  N3336  1  0.230900  0.672900  0.862000  1.0
  N  N3337  1  0.366200  0.836400  0.600800  1.0
  N  N3338  1  0.633800  0.163600  0.100800  1.0
  N  N3339  1  0.663600  0.866200  0.850800  1.0
  N  N3340  1  0.336400  0.133800  0.350800  1.0
  N  N3341  1  0.133800  0.336400  0.649200  1.0
  N  N3342  1  0.866200  0.663600  0.149200  1.0
  N  N3343  1  0.836400  0.366200  0.399200  1.0
  N  N3344  1  0.163600  0.633800  0.899200  1.0
  N  N3345  1  0.453800  0.787200  0.581200  1.0
  N  N3346  1  0.546200  0.212800  0.081200  1.0
  N  N3347  1  0.712800  0.953800  0.831200  1.0
  N  N3348  1  0.287200  0.046200  0.331200  1.0
  N  N3349  1  0.046200  0.287200  0.668800  1.0
  N  N3350  1  0.953800  0.712800  0.168800  1.0
  N  N3351  1  0.787200  0.453800  0.418800  1.0
  N  N3352  1  0.212800  0.546200  0.918800  1.0
  N  N3353  1  0.557500  0.709200  0.580200  1.0
  N  N3354  1  0.442500  0.290800  0.080200  1.0
  N  N3355  1  0.790800  0.057500  0.830200  1.0
  N  N3356  1  0.209200  0.942500  0.330200  1.0
  N  N3357  1  0.942500  0.209200  0.669800  1.0
  N  N3358  1  0.057500  0.790800  0.169800  1.0
  N  N3359  1  0.709200  0.557500  0.419800  1.0
  N  N3360  1  0.290800  0.442500  0.919800  1.0
  O  O3361  1  0.289800  0.068800  0.014900  1
  O  O3362  1  0.710200  0.931200  0.514900  1
  O  O3363  1  0.431200  0.789800  0.264900  1
  O  O3364  1  0.568800  0.210200  0.764900  1
  O  O3365  1  0.210200  0.568800  0.235100  1
  O  O3366  1  0.789800  0.431200  0.735100  1
  O  O3367  1  0.068800  0.289800  0.985100  1
  O  O3368  1  0.931200  0.710200  0.485100  1
  O  O3369  1  0.300500  0.129400  0.974600  1
  O  O3370  1  0.699500  0.870600  0.474600  1
  O  O3371  1  0.370600  0.800500  0.224600  1
  O  O3372  1  0.629400  0.199500  0.724600  1
  O  O3373  1  0.199500  0.629400  0.275400  1
  O  O3374  1  0.800500  0.370600  0.775400  1
  O  O3375  1  0.129400  0.300500  0.025400  1
  O  O3376  1  0.870600  0.699500  0.525400  1
  O  O3377  1  0.144200  0.185800  0.983200  1
  O  O3378  1  0.855800  0.814200  0.483200  1
  O  O3379  1  0.314200  0.644200  0.233200  1
  O  O3380  1  0.685800  0.355800  0.733200  1
  O  O3381  1  0.355800  0.685800  0.266800  1
  O  O3382  1  0.644200  0.314200  0.766800  1
  O  O3383  1  0.185800  0.144200  0.016800  1
  O  O3384  1  0.814200  0.855800  0.516800  1
  O  O3385  1  0.056800  0.156900  0.948500  1
  O  O3386  1  0.943200  0.843100  0.448500  1
  O  O3387  1  0.343100  0.556800  0.198500  1
  O  O3388  1  0.656900  0.443200  0.698500  1
  O  O3389  1  0.443200  0.656900  0.301500  1
  O  O3390  1  0.556800  0.343100  0.801500  1
  O  O3391  1  0.156900  0.056800  0.051500  1
  O  O3392  1  0.843100  0.943200  0.551500  1
  O  O3393  1  0.954600  0.269300  0.974100  1
  O  O3394  1  0.045400  0.730700  0.474100  1
  O  O3395  1  0.230700  0.454600  0.224100  1
  O  O3396  1  0.769300  0.545400  0.724100  1
  O  O3397  1  0.545400  0.769300  0.275900  1
  O  O3398  1  0.454600  0.230700  0.775900  1
  O  O3399  1  0.269300  0.954600  0.025900  1
  O  O3400  1  0.730700  0.045400  0.525900  1
  O  O3401  1  0.742100  0.187000  0.947700  1
  O  O3402  1  0.257900  0.813000  0.447700  1
  O  O3403  1  0.313000  0.242100  0.197700  1
  O  O3404  1  0.687000  0.757900  0.697700  1
  O  O3405  1  0.757900  0.687000  0.302300  1
  O  O3406  1  0.242100  0.313000  0.802300  1
  O  O3407  1  0.187000  0.742100  0.052300  1
  O  O3408  1  0.813000  0.257900  0.552300  1
  O  O3409  1  0.632300  0.227500  0.936300  1
  O  O3410  1  0.367700  0.772500  0.436300  1
  O  O3411  1  0.272500  0.132300  0.186300  1
  O  O3412  1  0.727500  0.867700  0.686300  1
  O  O3413  1  0.867700  0.727500  0.313700  1
  O  O3414  1  0.132300  0.272500  0.813700  1
  O  O3415  1  0.227500  0.632300  0.063700  1
  O  O3416  1  0.772500  0.367700  0.563700  1
  O  O3417  1  0.542500  0.135300  0.946400  1
  O  O3418  1  0.457500  0.864700  0.446400  1
  O  O3419  1  0.364700  0.042500  0.196400  1
  O  O3420  1  0.635300  0.957500  0.696400  1
  O  O3421  1  0.957500  0.635300  0.303600  1
  O  O3422  1  0.042500  0.364700  0.803600  1
  O  O3423  1  0.135300  0.542500  0.053600  1
  O  O3424  1  0.864700  0.457500  0.553600  1
  O  O3425  1  0.511300  0.019200  0.945300  1
  O  O3426  1  0.488700  0.980800  0.445300  1
  O  O3427  1  0.480800  0.011300  0.195300  1
  O  O3428  1  0.519200  0.988700  0.695300  1
  O  O3429  1  0.988700  0.519200  0.304700  1
  O  O3430  1  0.011300  0.480800  0.804700  1
  O  O3431  1  0.019200  0.511300  0.054700  1
  O  O3432  1  0.980800  0.488700  0.554700  1
  O  O3433  1  0.665300  0.944400  0.978700  1
  O  O3434  1  0.334700  0.055600  0.478700  1
  O  O3435  1  0.555600  0.165300  0.228700  1
  O  O3436  1  0.444400  0.834700  0.728700  1
  O  O3437  1  0.834700  0.444400  0.271300  1
  O  O3438  1  0.165300  0.555600  0.771300  1
  O  O3439  1  0.944400  0.665300  0.021300  1
  O  O3440  1  0.055600  0.334700  0.521300  1
  O  O3441  1  0.649200  0.063600  0.956100  1
  O  O3442  1  0.350800  0.936400  0.456100  1
  O  O3443  1  0.436400  0.149200  0.206100  1
  O  O3444  1  0.563600  0.850800  0.706100  1
  O  O3445  1  0.850800  0.563600  0.293900  1
  O  O3446  1  0.149200  0.436400  0.793900  1
  O  O3447  1  0.063600  0.649200  0.043900  1
  O  O3448  1  0.936400  0.350800  0.543900  1
  O  O3449  1  0.804900  0.035300  0.936500  1
  O  O3450  1  0.195100  0.964700  0.436500  1
  O  O3451  1  0.464700  0.304900  0.186500  1
  O  O3452  1  0.535300  0.695100  0.686500  1
  O  O3453  1  0.695100  0.535300  0.313500  1
  O  O3454  1  0.304900  0.464700  0.813500  1
  O  O3455  1  0.035300  0.804900  0.063500  1
  O  O3456  1  0.964700  0.195100  0.563500  1
  O  O3457  1  0.894300  0.133400  0.944600  1
  O  O3458  1  0.105700  0.866600  0.444600  1
  O  O3459  1  0.366600  0.394300  0.194600  1
  O  O3460  1  0.633400  0.605700  0.694600  1
  O  O3461  1  0.605700  0.633400  0.305400  1
  O  O3462  1  0.394300  0.366600  0.805400  1
  O  O3463  1  0.133400  0.894300  0.055400  1
  O  O3464  1  0.866600  0.105700  0.555400  1
  O  O3465  1  0.993900  0.063800  0.904800  1
  O  O3466  1  0.006100  0.936200  0.404800  1
  O  O3467  1  0.436200  0.493900  0.154800  1
  O  O3468  1  0.563800  0.506100  0.654800  1
  O  O3469  1  0.506100  0.563800  0.345200  1
  O  O3470  1  0.493900  0.436200  0.845200  1
  O  O3471  1  0.063800  0.993900  0.095200  1
  O  O3472  1  0.936200  0.006100  0.595200  1
  O  O3473  1  0.203200  0.141500  0.932700  1
  O  O3474  1  0.796800  0.858500  0.432700  1
  O  O3475  1  0.358500  0.703200  0.182700  1
  O  O3476  1  0.641500  0.296800  0.682700  1
  O  O3477  1  0.296800  0.641500  0.317300  1
  O  O3478  1  0.703200  0.358500  0.817300  1
  O  O3479  1  0.141500  0.203200  0.067300  1
  O  O3480  1  0.858500  0.796800  0.567300  1
  O  O3481  1  0.315800  0.171300  0.917600  1
  O  O3482  1  0.684200  0.828700  0.417600  1
  O  O3483  1  0.328700  0.815800  0.167600  1
  O  O3484  1  0.671300  0.184200  0.667600  1
  O  O3485  1  0.184200  0.671300  0.332400  1
  O  O3486  1  0.815800  0.328700  0.832400  1
  O  O3487  1  0.171300  0.315800  0.082400  1
  O  O3488  1  0.828700  0.684200  0.582400  1
  O  O3489  1  0.403300  0.149000  0.950000  1
  O  O3490  1  0.596700  0.851000  0.450000  1
  O  O3491  1  0.351000  0.903300  0.200000  1
  O  O3492  1  0.649000  0.096700  0.700000  1
  O  O3493  1  0.096700  0.649000  0.300000  1
  O  O3494  1  0.903300  0.351000  0.800000  1
  O  O3495  1  0.149000  0.403300  0.050000  1
  O  O3496  1  0.851000  0.596700  0.550000  1
  O  O3497  1  0.435900  0.168900  0.988400  1
  O  O3498  1  0.564100  0.831100  0.488400  1
  O  O3499  1  0.331100  0.935900  0.238400  1
  O  O3500  1  0.668900  0.064100  0.738400  1
  O  O3501  1  0.064100  0.668900  0.261600  1
  O  O3502  1  0.935900  0.331100  0.761600  1
  O  O3503  1  0.168900  0.435900  0.011600  1
  O  O3504  1  0.831100  0.564100  0.511600  1
  O  O3505  1  0.084500  0.246800  0.892700  1
  O  O3506  1  0.915500  0.753200  0.392700  1
  O  O3507  1  0.253200  0.584500  0.142700  1
  O  O3508  1  0.746800  0.415500  0.642700  1
  O  O3509  1  0.415500  0.746800  0.357300  1
  O  O3510  1  0.584500  0.253200  0.857300  1
  O  O3511  1  0.246800  0.084500  0.107300  1
  O  O3512  1  0.753200  0.915500  0.607300  1
  O  O3513  1  0.656000  0.275000  0.896300  1
  O  O3514  1  0.344000  0.725000  0.396300  1
  O  O3515  1  0.225000  0.156000  0.146300  1
  O  O3516  1  0.775000  0.844000  0.646300  1
  O  O3517  1  0.844000  0.775000  0.353700  1
  O  O3518  1  0.156000  0.225000  0.853700  1
  O  O3519  1  0.275000  0.656000  0.103700  1
  O  O3520  1  0.725000  0.344000  0.603700  1
  O  O3521  1  0.463000  0.893000  0.636600  1
  O  O3522  1  0.537000  0.107000  0.136600  1
  O  O3523  1  0.607000  0.963000  0.886600  1
  O  O3524  1  0.393000  0.037000  0.386600  1
  O  O3525  1  0.037000  0.393000  0.613400  1
  O  O3526  1  0.963000  0.607000  0.113400  1
  O  O3527  1  0.893000  0.463000  0.363400  1
  O  O3528  1  0.107000  0.537000  0.863400  1
  O  O3529  1  0.228000  0.264000  0.915600  1
  O  O3530  1  0.772000  0.736000  0.415600  1
  O  O3531  1  0.236000  0.728000  0.165600  1
  O  O3532  1  0.764000  0.272000  0.665600  1
  O  O3533  1  0.272000  0.764000  0.334400  1
  O  O3534  1  0.728000  0.236000  0.834400  1
  O  O3535  1  0.264000  0.228000  0.084400  1
  O  O3536  1  0.736000  0.772000  0.584400  1
  O  O3537  1  0.107000  0.352000  0.883100  1
  O  O3538  1  0.893000  0.648000  0.383100  1
  O  O3539  1  0.148000  0.607000  0.133100  1
  O  O3540  1  0.852000  0.393000  0.633100  1
  O  O3541  1  0.393000  0.852000  0.366900  1
  O  O3542  1  0.607000  0.148000  0.866900  1
  O  O3543  1  0.352000  0.107000  0.116900  1
  O  O3544  1  0.648000  0.893000  0.616900  1
  O  O3545  1  0.425000  0.918000  0.063500  1
  O  O3546  1  0.575000  0.082000  0.563500  1
  O  O3547  1  0.582000  0.925000  0.313500  1
  O  O3548  1  0.418000  0.075000  0.813500  1
  O  O3549  1  0.075000  0.418000  0.186500  1
  O  O3550  1  0.925000  0.582000  0.686500  1
  O  O3551  1  0.918000  0.425000  0.936500  1
  O  O3552  1  0.082000  0.575000  0.436500  1
  O  O3553  1  0.399200  0.955700  0.923300  1
  O  O3554  1  0.600800  0.044300  0.423300  1
  O  O3555  1  0.544300  0.899200  0.173300  1
  O  O3556  1  0.455700  0.100800  0.673300  1
  O  O3557  1  0.100800  0.455700  0.326700  1
  O  O3558  1  0.899200  0.544300  0.826700  1
  O  O3559  1  0.955700  0.399200  0.076700  1
  O  O3560  1  0.044300  0.600800  0.576700  1
  O  O3561  1  0.353700  0.353700  0.000000  1
  O  O3562  1  0.646300  0.646300  0.500000  1
  O  O3563  1  0.146300  0.853700  0.250000  1
  O  O3564  1  0.853700  0.146300  0.750000  1
  O  O3565  1  0.371600  0.470100  0.849000  1.0
  O  O3566  1  0.628400  0.529900  0.349000  1.0
  O  O3567  1  0.029900  0.871600  0.099000  1.0
  O  O3568  1  0.970100  0.128400  0.599000  1.0
  O  O3569  1  0.128400  0.970100  0.401000  1.0
  O  O3570  1  0.871600  0.029900  0.901000  1.0
  O  O3571  1  0.470100  0.371600  0.151000  1.0
  O  O3572  1  0.529900  0.628400  0.651000  1.0
  O  O3573  1  0.288400  0.591400  0.852200  1.0
  O  O3574  1  0.711600  0.408600  0.352200  1.0
  O  O3575  1  0.908600  0.788400  0.102200  1.0
  O  O3576  1  0.091400  0.211600  0.602200  1.0
  O  O3577  1  0.211600  0.091400  0.397800  1.0
  O  O3578  1  0.788400  0.908600  0.897800  1.0
  O  O3579  1  0.591400  0.288400  0.147800  1.0
  O  O3580  1  0.408600  0.711600  0.647800  1.0
  O  O3581  1  0.256700  0.568600  0.798990  1.0
  O  O3582  1  0.743300  0.431400  0.298990  1.0
  O  O3583  1  0.931400  0.756700  0.048990  1.0
  O  O3584  1  0.068600  0.243300  0.548990  1.0
  O  O3585  1  0.243300  0.068600  0.451010  1.0
  O  O3586  1  0.756700  0.931400  0.951010  1.0
  O  O3587  1  0.568600  0.256700  0.201010  1.0
  O  O3588  1  0.431400  0.743300  0.701010  1.0
  O  O3589  1  0.282200  0.679700  0.774400  1.0
  O  O3590  1  0.717800  0.320300  0.274400  1.0
  O  O3591  1  0.820300  0.782200  0.024400  1.0
  O  O3592  1  0.179700  0.217800  0.524400  1.0
  O  O3593  1  0.217800  0.179700  0.475600  1.0
  O  O3594  1  0.782200  0.820300  0.975600  1.0
  O  O3595  1  0.679700  0.282200  0.225600  1.0
  O  O3596  1  0.320300  0.717800  0.725600  1.0
  O  O3597  1  0.182200  0.617400  0.734600  1.0
  O  O3598  1  0.817800  0.382600  0.234600  1.0
  O  O3599  1  0.882600  0.682200  0.984600  1.0
  O  O3600  1  0.117400  0.317800  0.484600  1.0
  O  O3601  1  0.317800  0.117400  0.515400  1.0
  O  O3602  1  0.682200  0.882600  0.015400  1.0
  O  O3603  1  0.617400  0.182200  0.265400  1.0
  O  O3604  1  0.382600  0.817800  0.765400  1.0
  O  O3605  1  0.284800  0.740200  0.673100  1.0
  O  O3606  1  0.715200  0.259800  0.173100  1.0
  O  O3607  1  0.759800  0.784800  0.923100  1.0
  O  O3608  1  0.240200  0.215200  0.423100  1.0
  O  O3609  1  0.215200  0.240200  0.576900  1.0
  O  O3610  1  0.784800  0.759800  0.076900  1.0
  O  O3611  1  0.740200  0.284800  0.326900  1.0
  O  O3612  1  0.259800  0.715200  0.826900  1.0
  O  O3613  1  0.248200  0.774800  0.636900  1.0
  O  O3614  1  0.751800  0.225200  0.136900  1.0
  O  O3615  1  0.725200  0.748200  0.886900  1.0
  O  O3616  1  0.274800  0.251800  0.386900  1.0
  O  O3617  1  0.251800  0.274800  0.613100  1.0
  O  O3618  1  0.748200  0.725200  0.113100  1.0
  O  O3619  1  0.774800  0.248200  0.363100  1.0
  O  O3620  1  0.225200  0.751800  0.863100  1.0
  O  O3621  1  0.370800  0.761400  0.607500  1.0
  O  O3622  1  0.629200  0.238600  0.107500  1.0
  O  O3623  1  0.738600  0.870800  0.857500  1.0
  O  O3624  1  0.261400  0.129200  0.357500  1.0
  O  O3625  1  0.129200  0.261400  0.642500  1.0
  O  O3626  1  0.870800  0.738600  0.142500  1.0
  O  O3627  1  0.761400  0.370800  0.392500  1.0
  O  O3628  1  0.238600  0.629200  0.892500  1.0
  O  O3629  1  0.460000  0.844300  0.600000  1.0
  O  O3630  1  0.540000  0.155700  0.100000  1.0
  O  O3631  1  0.655700  0.960000  0.850000  1.0
  O  O3632  1  0.344300  0.040000  0.350000  1.0
  O  O3633  1  0.040000  0.344300  0.650000  1.0
  O  O3634  1  0.960000  0.655700  0.150000  1.0
  O  O3635  1  0.844300  0.460000  0.400000  1.0
  O  O3636  1  0.155700  0.540000  0.900000  1.0
