
#######################################################################
#
#                 Cambridge Crystallographic Data Centre
#                                CCDC 
#
#######################################################################
#
# If this CIF has been generated from an entry in the Cambridge 
# Structural Database, then it will include bibliographic, chemical, 
# crystal, experimental, refinement or atomic coordinate data resulting 
# from the CCDC's data processing and validation procedures.
#
#######################################################################

data_BIBZUK
_chemical_formula_moiety         'C116 H134 I4 N22 O18 Zn2,2.67(H2 O1)'
_chemical_name_systematic        
'bis(\m-N-(pyridine-3-carbonyl)-phenylalanyl-valyl-phenylalanyl-N-(3-{2-[(2-oxo-2-{2-[(pyridin-3-yl)carbamoyl]pyrrolidin-1-yl}ethyl)carbamoyl]pyrrolidine-1-carbonyl}phenyl)valinamide)-tetrakis(iodo)-di-zinc hydrate'
_symmetry_cell_setting           tetragonal
_symmetry_space_group_name_H-M   'P 41 21 2'
_symmetry_Int_Tables_number      92
_space_group_name_Hall           'P 4abw 2nw'
loop_
_symmetry_equiv_pos_site_id
_symmetry_equiv_pos_as_xyz
1 x,y,z
2 -x,-y,1/2+z
3 1/2-y,1/2+x,1/4+z
4 1/2+y,1/2-x,3/4+z
5 1/2-x,1/2+y,1/4-z
6 1/2+x,1/2-y,3/4-z
7 y,x,-z
8 -y,-x,1/2-z
_cell_length_a                   28.4415(3)
_cell_length_b                   28.4415(3)
_cell_length_c                   85.872(2)
_cell_angle_alpha                90
_cell_angle_beta                 90
_cell_angle_gamma                90
_cell_volume                     69463.5
_exptl_crystal_colour            colorless
_exptl_crystal_description       plate
_cell_formula_units_Z            12
_chemical_properties_physical    Air-sensitive
_exptl_crystal_recrystallization_method 
'Re-crystallisation from solvent: chloroform, ethanol'
loop_
_atom_site_label
_atom_site_type_symbol
_atom_site_fract_x
_atom_site_fract_y
_atom_site_fract_z
Zn1 Zn 0.44072(14) -0.10587(15) 0.98126(6)
Zn2 Zn 1.51161(14) 0.08415(19) 1.03443(5)
I1 I 0.45734(12) -0.14832(12) 0.95591(5)
I2 I 0.39357(13) -0.14220(13) 1.00302(6)
I3 I 1.56194(12) 0.02712(17) 1.04973(4)
I4 I 1.49215(12) 0.16566(14) 1.04349(4)
N1 N 1.4466(5) 0.0531(7) 1.0287(2)
C1 C 1.4088(7) 0.0786(5) 1.0230(2)
H1 H 1.4112 0.1110 1.0218
C2 C 1.3672(6) 0.0558(7) 1.0191(2)
C3 C 1.3635(6) 0.0073(7) 1.0210(2)
H2 H 1.3357 -0.0079 1.0184
C4 C 1.4014(8) -0.0182(5) 1.0267(2)
H3 H 1.3989 -0.0506 1.0279
C5 C 1.4429(6) 0.0046(7) 1.0306(2)
H4 H 1.4683 -0.0125 1.0344
C6 C 1.3304(12) 0.0841(11) 1.0138(3)
O1 O 1.2898(7) 0.0688(6) 1.0149(2)
N2 N 1.3376(6) 0.1257(6) 1.0057(2)
H5 H 1.3655 0.1346 1.0032
C7 C 1.2959(8) 0.1546(8) 1.0015(3)
H6 H 1.2717 0.1515 1.0095
C8 C 1.2768(9) 0.1379(8) 0.9859(3)
O2 O 1.3005(6) 0.1294(5) 0.9746(2)
C9 C 1.3131(9) 0.2038(9) 1.0009(3)
H7 H 1.2912 0.2227 0.9949
H8 H 1.3433 0.2047 0.9957
C10 C 1.3177(11) 0.2237(9) 1.0167(2)
C11 C 1.2794(8) 0.2252(8) 1.0267(3)
H9 H 1.2499 0.2156 1.0233
C12 C 1.2851(10) 0.2409(9) 1.0419(3)
H10 H 1.2595 0.2418 1.0486
C13 C 1.3292(13) 0.2551(10) 1.0471(3)
H11 H 1.3330 0.2656 1.0573
C14 C 1.3675(9) 0.2536(11) 1.0371(4)
H12 H 1.3970 0.2632 1.0406
C15 C 1.3618(9) 0.2379(11) 1.0219(4)
H13 H 1.3874 0.2370 1.0152
N3 N 1.2294(7) 0.1413(7) 0.9858(2)
H14 H 1.2152 0.1510 0.9941
C16 C 1.2003(9) 0.1282(9) 0.9715(3)
H15 H 1.2194 0.1291 0.9620
C17 C 1.1598(10) 0.1696(10) 0.9714(4)
O3 O 1.1442(6) 0.1858(6) 0.9832(2)
C18 C 1.1769(11) 0.0804(10) 0.9736(4)
H16 H 1.1622 0.0812 0.9839
C19 C 1.2156(12) 0.0450(12) 0.9747(4)
H17 H 1.2391 0.0560 0.9819
H18 H 1.2031 0.0156 0.9784
H19 H 1.2296 0.0405 0.9647
C20 C 1.1383(13) 0.0655(14) 0.9624(4)
H20 H 1.1144 0.0893 0.9621
H21 H 1.1513 0.0613 0.9522
H22 H 1.1248 0.0364 0.9659
N4 N 1.1493(6) 0.1838(6) 0.9575(2)
H23 H 1.1645 0.1732 0.9496
C21 C 1.1107(9) 0.2184(9) 0.9552(3)
H24 H 1.1123 0.2439 0.9628
C22 C 1.0624(9) 0.1917(10) 0.9560(3)
O4 O 1.0568(7) 0.1569(7) 0.9485(2)
C23 C 1.1162(12) 0.2371(11) 0.9382(4)
H25 H 1.1057 0.2138 0.9307
H26 H 1.1487 0.2451 0.9360
C24 C 1.0835(10) 0.2829(10) 0.9376(3)
C25 C 1.0947(9) 0.3296(12) 0.9406(3)
H27 H 1.1248 0.3375 0.9439
C26 C 1.0609(13) 0.3644(8) 0.9387(3)
H28 H 1.0684 0.3956 0.9407
C27 C 1.0158(11) 0.3525(11) 0.9338(4)
H29 H 0.9932 0.3758 0.9325
C28 C 1.0046(9) 0.3058(13) 0.9308(4)
H30 H 0.9745 0.2979 0.9275
C29 C 1.0384(12) 0.2710(9) 0.9327(3)
H31 H 1.0309 0.2398 0.9307
N5 N 1.0313(7) 0.2112(7) 0.9659(2)
H32 H 1.0395 0.2355 0.9712
C30 C 0.9841(11) 0.1918(11) 0.9679(3)
H33 H 0.9788 0.1686 0.9596
C31 C 0.9488(16) 0.2341(16) 0.9653(5)
O5 O 0.9546(10) 0.2693(11) 0.9741(3)
C32 C 0.9778(12) 0.1671(12) 0.9837(4)
H34 H 0.9843 0.1898 0.9920
C33 C 1.0123(13) 0.1264(12) 0.9851(5)
H35 H 1.0081 0.1113 0.9950
H36 H 1.0066 0.1042 0.9769
H37 H 1.0438 0.1381 0.9843
C34 C 0.9310(13) 0.1412(15) 0.9875(5)
H38 H 0.9054 0.1632 0.9870
H39 H 0.9260 0.1166 0.9800
H40 H 0.9328 0.1280 0.9977
N6 N 0.9106(9) 0.2233(9) 0.9574(3)
H41 H 0.9099 0.1972 0.9524
C35 C 0.8695(7) 0.2534(10) 0.9570(3)
C36 C 0.8695(9) 0.3019(10) 0.9552(3)
H42 H 0.8978 0.3183 0.9550
C37 C 0.8272(12) 0.3260(7) 0.9536(3)
H43 H 0.8272 0.3585 0.9524
C38 C 0.7850(9) 0.3015(9) 0.9538(3)
H44 H 0.7567 0.3175 0.9527
C39 C 0.7850(7) 0.2529(9) 0.9556(2)
C40 C 0.8273(9) 0.2288(7) 0.9572(2)
H45 H 0.8273 0.1963 0.9584
C41 C 0.7404(17) 0.2266(17) 0.9558(5)
O6 O 0.7421(7) 0.1870(8) 0.9477(2)
N7 N 0.7003(11) 0.2407(10) 0.9611(3)
C42 C 0.6640(14) 0.2038(15) 0.9633(5)
H46 H 0.6758 0.1734 0.9670
C43 C 0.6405(15) 0.2030(16) 0.9475(6)
O7 O 0.6323(10) 0.2275(10) 0.9363(4)
C44 C 0.697(2) 0.2776(17) 0.9731(6)
H47 H 0.6909 0.3078 0.9683
H48 H 0.7265 0.2797 0.9788
C45 C 0.6573(19) 0.264(2) 0.9841(6)
H49 H 0.6384 0.2917 0.9868
H50 H 0.6692 0.2502 0.9936
C46 C 0.6293(19) 0.229(2) 0.9746(6)
H51 H 0.6052 0.2455 0.9686
H52 H 0.6142 0.2067 0.9814
N8 N 0.6350(9) 0.1561(9) 0.9419(3)
H53 H 0.6495 0.1354 0.9474
C47 C 0.6112(10) 0.1379(11) 0.9296(4)
H54 H 0.6284 0.1110 0.9257
H55 H 0.6099 0.1612 0.9214
C48 C 0.5590(10) 0.1219(10) 0.9338(4)
O8 O 0.5425(6) 0.1353(6) 0.9464(2)
N9 N 0.5372(7) 0.0951(7) 0.9247(2)
C49 C 0.4883(8) 0.0848(9) 0.9276(3)
H56 H 0.4695 0.1135 0.9288
C50 C 0.4845(12) 0.0531(12) 0.9417(4)
O9 O 0.5113(7) 0.0192(7) 0.9453(2)
C51 C 0.5538(11) 0.0790(12) 0.9096(3)
H57 H 0.5731 0.0511 0.9107
H58 H 0.5718 0.1033 0.9044
C52 C 0.5088(14) 0.068(2) 0.9009(4)
H59 H 0.4985 0.0956 0.8950
H60 H 0.5132 0.0422 0.8938
C53 C 0.4734(15) 0.0560(16) 0.9136(4)
H61 H 0.4745 0.0226 0.9159
H62 H 0.4418 0.0642 0.9104
N10 N 0.4429(8) 0.0613(8) 0.9506(3)
H63 H 0.4285 0.0871 0.9485
C54 C 0.4372(6) -0.0118(7) 0.9645(2)
H64 H 0.4636 -0.0231 0.9593
C55 C 0.4222(7) 0.0341(7) 0.9621(2)
C56 C 0.3828(7) 0.0510(5) 0.9698(2)
H65 H 0.3728 0.0817 0.9682
C57 C 0.3583(6) 0.0218(8) 0.9800(2)
H66 H 0.3319 0.0331 0.9852
C58 C 0.3732(7) -0.0242(7) 0.9824(2)
H67 H 0.3568 -0.0437 0.9892
N11 N 0.4127(7) -0.0410(5) 0.9746(2)
N12 N 0.5066(5) -0.0878(6) 0.9898(2)
C59 C 0.5143(7) -0.0895(7) 1.0058(2)
H68 H 0.4903 -0.0990 1.0125
C60 C 0.5579(8) -0.0770(8) 1.01185(17)
H69 H 0.5630 -0.0782 1.0225
C61 C 0.5938(6) -0.0628(7) 1.0019(3)
H70 H 0.6229 -0.0544 1.0060
C62 C 0.5861(6) -0.0611(7) 0.9860(2)
C63 C 0.5425(7) -0.0736(6) 0.97991(17)
H71 H 0.5373 -0.0725 0.9692
C64 C 0.6240(11) -0.0494(10) 0.9750(4)
O10 O 0.6653(8) -0.0556(7) 0.9787(2)
N13 N 0.6129(7) -0.0305(7) 0.9607(2)
H72 H 0.5842 -0.0255 0.9580
C65 C 0.6513(10) -0.0195(10) 0.9505(3)
H73 H 0.6756 -0.0439 0.9513
C66 C 0.6723(10) 0.0271(10) 0.9526(3)
O11 O 0.6492(7) 0.0636(7) 0.9561(2)
C67 C 0.6288(10) -0.0190(10) 0.9328(3)
H74 H 0.5997 -0.0010 0.9326
H75 H 0.6507 -0.0045 0.9255
C68 C 0.6192(9) -0.0702(6) 0.9280(3)
C69 C 0.5734(8) -0.0870(10) 0.9289(3)
H76 H 0.5493 -0.0673 0.9323
C70 C 0.5635(7) -0.1332(11) 0.9247(3)
H77 H 0.5329 -0.1445 0.9253
C71 C 0.5995(10) -0.1626(7) 0.9197(3)
H78 H 0.5929 -0.1936 0.9169
C72 C 0.6453(9) -0.1459(8) 0.9188(2)
H79 H 0.6694 -0.1655 0.9155
C73 C 0.6552(7) -0.0996(8) 0.9230(2)
H80 H 0.6858 -0.0884 0.9224
N14 N 0.7210(7) 0.0273(7) 0.9520(2)
H81 H 0.7344 0.0011 0.9497
C74 C 0.7524(10) 0.0683(10) 0.9548(3)
H82 H 0.7336 0.0972 0.9551
C75 C 0.7874(9) 0.0717(10) 0.9423(3)
O12 O 0.8049(6) 0.0353(7) 0.9365(2)
C76 C 0.7784(12) 0.0623(13) 0.9706(3)
H83 H 0.7947 0.0321 0.9696
C77 C 0.7443(15) 0.0552(16) 0.9843(5)
H84 H 0.7199 0.0339 0.9813
H85 H 0.7612 0.0425 0.9930
H86 H 0.7307 0.0849 0.9871
C78 C 0.8157(19) 0.096(2) 0.9760(7)
H87 H 0.8378 0.1014 0.9677
H88 H 0.8013 0.1253 0.9789
H89 H 0.8318 0.0829 0.9848
N15 N 0.7999(7) 0.1100(7) 0.9365(2)
H90 H 0.7857 0.1348 0.9398
C79 C 0.8357(10) 0.1168(10) 0.9250(3)
H91 H 0.8320 0.0930 0.9168
C80 C 0.8863(9) 0.1116(9) 0.9325(3)
O13 O 0.8943(6) 0.1334(6) 0.9446(2)
C81 C 0.8313(10) 0.1670(10) 0.9174(3)
H92 H 0.8344 0.1908 0.9254
H93 H 0.8005 0.1704 0.9127
C82 C 0.8704(8) 0.1741(8) 0.9048(3)
C83 C 0.8619(8) 0.1593(8) 0.8897(3)
H94 H 0.8329 0.1466 0.8870
C84 C 0.8969(12) 0.1636(11) 0.8784(2)
H95 H 0.8912 0.1537 0.8683
C85 C 0.9403(10) 0.1826(11) 0.8824(4)
H96 H 0.9637 0.1855 0.8749
C86 C 0.9487(8) 0.1973(10) 0.8976(4)
H97 H 0.9778 0.2101 0.9002
C87 C 0.9138(10) 0.1931(9) 0.9088(3)
H98 H 0.9194 0.2029 0.9189
N16 N 0.9164(7) 0.0831(7) 0.9257(2)
H99 H 0.9071 0.0677 0.9176
C88 C 0.9642(9) 0.0765(8) 0.9309(3)
H100 H 0.9706 0.0997 0.9391
C89 C 0.9969(12) 0.0826(11) 0.9192(4)
O14 O 0.9939(9) 0.0638(9) 0.9048(3)
C90 C 0.9700(11) 0.0278(10) 0.9379(4)
H101 H 0.9660 0.0027 0.9302
C91 C 1.0207(14) 0.0286(18) 0.9451(6)
H102 H 1.0273 -0.0013 0.9498
H103 H 1.0433 0.0347 0.9370
H104 H 1.0225 0.0528 0.9529
C92 C 0.9388(14) 0.0201(15) 0.9528(4)
H105 H 0.9437 -0.0111 0.9567
H106 H 0.9473 0.0426 0.9606
H107 H 0.9063 0.0240 0.9501
N17 N 1.0344(8) 0.1094(8) 0.9206(3)
H108 H 1.0345 0.1274 0.9287
C93 C 1.0753(6) 0.1132(7) 0.9108(3)
C94 C 1.0740(7) 0.1176(8) 0.8947(3)
H109 H 1.0453 0.1164 0.8895
C95 C 1.1154(10) 0.1239(9) 0.8864(2)
H110 H 1.1145 0.1269 0.8756
C96 C 1.1582(8) 0.1258(8) 0.8942(3)
H111 H 1.1859 0.1299 0.8886
C97 C 1.1596(6) 0.1213(8) 0.9103(3)
C98 C 1.1181(8) 0.1151(7) 0.9186(2)
H112 H 1.1191 0.1121 0.9294
C99 C 1.2045(12) 0.1217(12) 0.9205(4)
O15 O 1.2032(7) 0.1415(7) 0.9327(3)
N18 N 1.2432(9) 0.1007(9) 0.9153(3)
C100 C 1.2837(10) 0.0992(11) 0.9260(4)
H113 H 1.2738 0.0847 0.9358
C101 C 1.3050(12) 0.1472(12) 0.9294(5)
O16 O 1.3158(8) 0.1713(8) 0.9176(3)
C102 C 1.2472(14) 0.0655(13) 0.9028(4)
H114 H 1.2501 0.0807 0.8927
H115 H 1.2197 0.0452 0.9026
C103 C 1.2915(14) 0.0370(15) 0.9065(5)
H116 H 1.2833 0.0070 0.9111
H117 H 1.3096 0.0313 0.8971
C104 C 1.3190(13) 0.0667(14) 0.9178(5)
H118 H 1.3425 0.0851 0.9123
H119 H 1.3348 0.0469 0.9254
N19 N 1.3117(8) 0.1579(8) 0.9429(3)
H120 H 1.3011 0.1393 0.9500
C105 C 1.3360(10) 0.1993(10) 0.9480(3)
H121 H 1.3187 0.2139 0.9564
H122 H 1.3374 0.2216 0.9394
C106 C 1.3881(9) 0.1873(10) 0.9537(3)
O17 O 1.4033(6) 0.1490(7) 0.9500(2)
N20 N 1.4094(7) 0.2191(7) 0.9606(2)
C107 C 1.4590(9) 0.2120(9) 0.9639(3)
H123 H 1.4766 0.2034 0.9545
C108 C 1.4626(10) 0.1743(10) 0.9765(3)
O18 O 1.4359(7) 0.1689(6) 0.9884(2)
C109 C 1.3941(10) 0.2671(9) 0.9634(4)
H124 H 1.3689 0.2676 0.9710
H125 H 1.3828 0.2812 0.9539
C110 C 1.4363(12) 0.2935(12) 0.9694(6)
H126 H 1.4295 0.3071 0.9795
H127 H 1.4447 0.3186 0.9623
C111 C 1.4761(12) 0.2582(10) 0.9707(4)
H128 H 1.5034 0.2693 0.9650
H129 H 1.4849 0.2540 0.9815
N21 N 1.5032(8) 0.1461(8) 0.9753(3)
H130 H 1.5160 0.1458 0.9663
C112 C 1.5133(5) 0.1169(6) 1.0021(2)
H131 H 1.4886 0.1352 1.0057
C113 C 1.5260(6) 0.1184(6) 0.98647(19)
C114 C 1.5630(7) 0.0909(7) 0.98107(15)
H132 H 1.5714 0.0920 0.9706
C115 C 1.5873(6) 0.0619(6) 0.9913(2)
H133 H 1.6121 0.0436 0.9877
C116 C 1.5747(6) 0.0604(6) 1.0069(2)
H134 H 1.5910 0.0410 1.0138
N22 N 1.5377(6) 0.0879(6) 1.01233(15)
Zn3 Zn 0.3635(9) 0.4536(9) 0.92590(18)
I5 I 0.3953(8) 0.3806(7) 0.9375(2)
I6 I 0.3962(10) 0.5190(13) 0.94142(17)
N23 N 0.3892(10) 0.4489(8) 0.9026(2)
C117 C 0.4379(9) 0.4468(9) 0.9016(3)
H135 H 0.4557 0.4395 0.9104
C118 C 0.4601(7) 0.4556(9) 0.8875(3)
H136 H 0.4927 0.4541 0.8868
C119 C 0.4336(9) 0.4665(8) 0.8744(2)
H137 H 0.4485 0.4724 0.8649
C120 C 0.3849(9) 0.4686(8) 0.8754(2)
C121 C 0.3627(7) 0.4599(8) 0.8895(3)
H138 H 0.3301 0.4613 0.8902
C122 C 0.3548(12) 0.4781(11) 0.8628(4)
O19 O 0.3716(7) 0.4701(7) 0.8490(3)
N24 N 0.3172(8) 0.5021(8) 0.8635(3)
H139 H 0.3092 0.5136 0.8724
C123 C 0.2884(10) 0.5108(11) 0.8509(3)
H140 H 0.2977 0.4891 0.8426
C124 C 0.2927(10) 0.5578(11) 0.8448(4)
O20 O 0.2884(7) 0.5914(8) 0.8522(2)
C125 C 0.2309(9) 0.4979(9) 0.8557(3)
H141 H 0.2231 0.5126 0.8656
H142 H 0.2100 0.5105 0.8478
C126 C 0.2239(8) 0.4455(7) 0.8570(3)
C127 C 0.2161(8) 0.4185(9) 0.8437(2)
H143 H 0.2149 0.4329 0.8340
C128 C 0.2099(8) 0.3702(8) 0.8450(3)
H144 H 0.2047 0.3522 0.8361
C129 C 0.2117(9) 0.3488(7) 0.8595(3)
H145 H 0.2076 0.3165 0.8604
C130 C 0.2195(9) 0.3757(10) 0.8728(2)
H146 H 0.2207 0.3614 0.8825
C131 C 0.2256(9) 0.4241(10) 0.8715(3)
H147 H 0.2309 0.4421 0.8804
N25 N 0.2965(7) 0.5609(8) 0.8287(3)
H148 H 0.2976 0.5350 0.8235
C132 C 0.2988(10) 0.6039(11) 0.8201(4)
H149 H 0.2875 0.6279 0.8273
C133 C 0.2653(9) 0.6058(10) 0.8067(3)
O21 O 0.2567(6) 0.5686(6) 0.79899(19)
C134 C 0.3483(12) 0.6200(14) 0.8155(5)
H150 H 0.3516 0.6531 0.8125
C135 C 0.380(2) 0.603(2) 0.8291(6)
H151 H 0.3747 0.6231 0.8380
H152 H 0.3717 0.5714 0.8318
H153 H 0.4121 0.6047 0.8261
C136 C 0.362(2) 0.5845(18) 0.8036(6)
H154 H 0.3452 0.5903 0.7941
H155 H 0.3954 0.5868 0.8016
H156 H 0.3550 0.5535 0.8073
N26 N 0.2464(8) 0.6475(8) 0.8033(3)
H157 H 0.2513 0.6714 0.8091
C137 C 0.2180(11) 0.6516(11) 0.7896(4)
H158 H 0.1956 0.6254 0.7894
C138 C 0.2454(11) 0.6530(11) 0.7740(4)
O22 O 0.2822(7) 0.6797(7) 0.7744(2)
C139 C 0.1892(12) 0.7009(12) 0.7910(4)
H159 H 0.1728 0.7019 0.8009
H160 H 0.2113 0.7269 0.7907
C140 C 0.1536(10) 0.7071(9) 0.7777(3)
C141 C 0.1082(11) 0.6892(9) 0.7777(3)
H161 H 0.0970 0.6728 0.7864
C142 C 0.0793(8) 0.6957(10) 0.7649(4)
H162 H 0.0489 0.6837 0.7648
C143 C 0.0959(11) 0.7203(10) 0.7520(3)
H163 H 0.0766 0.7246 0.7434
C144 C 0.1414(12) 0.7382(9) 0.7520(3)
H164 H 0.1525 0.7546 0.7434
C145 C 0.1702(8) 0.7317(9) 0.7649(4)
H165 H 0.2006 0.7437 0.7649
N27 N 0.2343(7) 0.6290(7) 0.7628(3)
H166 H 0.2109 0.6103 0.7642
C146 C 0.2552(10) 0.6278(9) 0.7475(3)
H167 H 0.2790 0.6526 0.7470
C147 C 0.2229(15) 0.6362(14) 0.7358(5)
O23 O 0.1822(10) 0.6174(9) 0.7346(3)
C148 C 0.2802(13) 0.5808(12) 0.7451(5)
H168 H 0.2578 0.5546 0.7455
C149 C 0.3115(19) 0.578(2) 0.7302(6)
H169 H 0.3258 0.5477 0.7296
H170 H 0.2924 0.5834 0.7212
H171 H 0.3355 0.6019 0.7308
C150 C 0.3204(16) 0.5732(17) 0.7565(5)
H172 H 0.3349 0.5432 0.7546
H173 H 0.3433 0.5977 0.7553
H174 H 0.3085 0.5738 0.7670
N28 N 0.2291(9) 0.6713(9) 0.7247(3)
H175 H 0.2517 0.6902 0.7270
C151 C 0.2070(10) 0.6827(8) 0.7107(2)
C152 C 0.1584(9) 0.6822(9) 0.7091(3)
H176 H 0.1394 0.6756 0.7176
C153 C 0.1381(7) 0.6915(10) 0.6947(4)
H177 H 0.1056 0.6911 0.6936
C154 C 0.1665(11) 0.7013(10) 0.6819(3)
H178 H 0.1530 0.7075 0.6723
C155 C 0.2151(10) 0.7018(9) 0.6836(3)
C156 C 0.2354(7) 0.6925(8) 0.6980(3)
H179 H 0.2679 0.6929 0.6991
C157 C 0.2504(16) 0.7133(16) 0.6697(6)
O24 O 0.2848(9) 0.7402(9) 0.6731(3)
N29 N 0.2417(11) 0.6982(12) 0.6570(4)
C158 C 0.2815(14) 0.6990(15) 0.6458(4)
H180 H 0.3116 0.6928 0.6509
C159 C 0.2803(17) 0.7438(19) 0.6390(5)
O25 O 0.2482(13) 0.7748(13) 0.6369(4)
C160 C 0.2141(19) 0.6575(17) 0.6523(6)
H181 H 0.1808 0.6649 0.6527
H182 H 0.2201 0.6314 0.6593
C161 C 0.2275(19) 0.644(2) 0.6359(6)
H183 H 0.2031 0.6540 0.6287
H184 H 0.2304 0.6101 0.6351
C162 C 0.2742(19) 0.6672(19) 0.6315(6)
H185 H 0.2992 0.6442 0.6305
H186 H 0.2716 0.6853 0.6220
N30 N 0.3271(12) 0.7691(12) 0.6380(4)
H187 H 0.3502 0.7588 0.6435
C163 C 0.3351(13) 0.8122(12) 0.6277(4)
H188 H 0.3553 0.8347 0.6329
H189 H 0.3054 0.8274 0.6254
C164 C 0.3594(16) 0.7941(19) 0.6121(5)
O26 O 0.3708(12) 0.7614(13) 0.6075(4)
N31 N 0.3662(13) 0.8364(15) 0.6008(4)
C165 C 0.3872(15) 0.8188(14) 0.5865(5)
H190 H 0.3749 0.7881 0.5832
C166 C 0.4396(14) 0.8183(15) 0.5901(5)
O27 O 0.4600(12) 0.8443(14) 0.6000(5)
C167 C 0.352(2) 0.8855(17) 0.6004(6)
H191 H 0.3634 0.9027 0.6094
H192 H 0.3178 0.8885 0.5999
C168 C 0.375(2) 0.9019(15) 0.5855(6)
H193 H 0.3568 0.9269 0.5807
H194 H 0.4065 0.9131 0.5875
C169 C 0.376(2) 0.8584(19) 0.5751(5)
H195 H 0.3998 0.8611 0.5671
H196 H 0.3456 0.8534 0.5702
N32 N 0.4538(11) 0.7872(12) 0.5812(5)
H197 H 0.4340 0.7741 0.5750
C170 C 0.5117(10) 0.7252(8) 0.5785(3)
H198 H 0.4879 0.7044 0.5758
C171 C 0.5014(9) 0.7725(9) 0.5808(4)
C172 C 0.5369(11) 0.8037(8) 0.5849(3)
H199 H 0.5300 0.8353 0.5864
C173 C 0.5828(9) 0.7876(11) 0.5866(3)
H200 H 0.6066 0.8085 0.5893
C174 C 0.5931(9) 0.7404(12) 0.5843(3)
H201 H 0.6238 0.7296 0.5854
N33 N 0.5575(11) 0.7092(9) 0.5802(3)
Zn3G Zn 0.5464(9) 0.6365(9) 0.57410(18)
I5G I 0.6194(7) 0.6047(8) 0.5625(2)
I6G I 0.4810(13) 0.6038(10) 0.55858(17)
N23G N 0.5511(8) 0.6108(10) 0.5974(2)
C117G C 0.5532(9) 0.5621(9) 0.5984(3)
H135G H 0.5605 0.5443 0.5896
C118G C 0.5444(9) 0.5399(7) 0.6125(3)
H136G H 0.5459 0.5073 0.6132
C119G C 0.5335(8) 0.5664(9) 0.6256(2)
H137G H 0.5276 0.5515 0.6351
C120G C 0.5314(8) 0.6151(9) 0.6246(2)
C121G C 0.5401(8) 0.6373(7) 0.6105(3)
H138G H 0.5387 0.6699 0.6098
C122G C 0.5219(11) 0.6452(12) 0.6372(4)
O19G O 0.5299(7) 0.6284(7) 0.6510(3)
N24G N 0.4979(8) 0.6828(8) 0.6365(3)
H139G H 0.4864 0.6908 0.6276
C123G C 0.4892(11) 0.7116(10) 0.6491(3)
H140G H 0.5109 0.7023 0.6574
C124G C 0.4422(11) 0.7073(10) 0.6552(4)
O20G O 0.4086(8) 0.7116(7) 0.6478(2)
C125G C 0.5021(9) 0.7691(9) 0.6443(3)
H141G H 0.4874 0.7769 0.6344
H142G H 0.4895 0.7900 0.6522
C126G C 0.5545(7) 0.7761(8) 0.6430(3)
C127G C 0.5815(9) 0.7839(8) 0.6563(2)
H143G H 0.5671 0.7851 0.6660
C128G C 0.6298(8) 0.7901(8) 0.6550(3)
H144G H 0.6478 0.7953 0.6639
C129G C 0.6512(7) 0.7883(9) 0.6405(3)
H145G H 0.6835 0.7924 0.6396
C130G C 0.6243(10) 0.7805(9) 0.6272(2)
H146G H 0.6386 0.7793 0.6175
C131G C 0.5759(10) 0.7744(9) 0.6285(3)
H147G H 0.5579 0.7691 0.6196
N25G N 0.4391(8) 0.7035(7) 0.6713(3)
H148G H 0.4650 0.7024 0.6765
C132G C 0.3961(11) 0.7012(10) 0.6799(4)
H149G H 0.3721 0.7125 0.6727
C133G C 0.3942(10) 0.7347(9) 0.6933(3)
O21G O 0.4314(6) 0.7433(6) 0.70101(19)
C134G C 0.3800(14) 0.6517(12) 0.6845(5)
H150G H 0.3469 0.6484 0.6875
C135G C 0.397(2) 0.620(2) 0.6709(6)
H151G H 0.3769 0.6253 0.6620
H152G H 0.4286 0.6283 0.6682
H153G H 0.3953 0.5879 0.6739
C136G C 0.4155(18) 0.638(2) 0.6964(6)
H154G H 0.4097 0.6548 0.7059
H155G H 0.4132 0.6046 0.6984
H156G H 0.4465 0.6450 0.6927
N26G N 0.3525(8) 0.7536(8) 0.6967(3)
H157G H 0.3286 0.7487 0.6909
C137G C 0.3484(11) 0.7820(11) 0.7104(4)
H158G H 0.3746 0.8044 0.7106
C138G C 0.3470(11) 0.7546(11) 0.7260(4)
O22G O 0.3203(7) 0.7178(7) 0.7256(2)
C139G C 0.2991(12) 0.8108(12) 0.7090(4)
H159G H 0.2981 0.8272 0.6991
H160G H 0.2731 0.7887 0.7093
C140G C 0.2929(9) 0.8464(10) 0.7223(3)
C141G C 0.3108(9) 0.8918(11) 0.7223(3)
H161G H 0.3272 0.9030 0.7136
C142G C 0.3043(10) 0.9207(8) 0.7351(4)
H162G H 0.3163 0.9511 0.7352
C143G C 0.2797(10) 0.9041(11) 0.7480(3)
H163G H 0.2754 0.9234 0.7566
C144G C 0.2618(9) 0.8586(12) 0.7480(3)
H164G H 0.2454 0.8475 0.7566
C145G C 0.2683(9) 0.8298(8) 0.7351(4)
H165G H 0.2563 0.7994 0.7351
N27G N 0.3710(7) 0.7657(7) 0.7372(3)
H166G H 0.3897 0.7891 0.7358
C146G C 0.3722(9) 0.7448(10) 0.7525(3)
H167G H 0.3474 0.7210 0.7530
C147G C 0.3638(14) 0.7771(15) 0.7642(5)
O23G O 0.3826(9) 0.8178(10) 0.7654(3)
C148G C 0.4192(12) 0.7198(13) 0.7549(5)
H168G H 0.4454 0.7422 0.7545
C149G C 0.422(2) 0.6885(19) 0.7698(6)
H169G H 0.4523 0.6742 0.7704
H170G H 0.4166 0.7076 0.7788
H171G H 0.3981 0.6645 0.7692
C150G C 0.4268(17) 0.6796(16) 0.7435(5)
H172G H 0.4568 0.6651 0.7454
H173G H 0.4023 0.6567 0.7447
H174G H 0.4262 0.6915 0.7330
N28G N 0.3287(9) 0.7709(9) 0.7753(3)
H175G H 0.3098 0.7483 0.7730
C151G C 0.3173(8) 0.7930(10) 0.7893(2)
C152G C 0.3178(9) 0.8416(9) 0.7909(3)
H176G H 0.3244 0.8606 0.7824
C153G C 0.3085(10) 0.8619(7) 0.8053(4)
H177G H 0.3089 0.8944 0.8064
C154G C 0.2987(10) 0.8335(11) 0.8181(3)
H178G H 0.2925 0.8470 0.8277
C155G C 0.2982(9) 0.7849(10) 0.8164(3)
C156G C 0.3075(8) 0.7646(7) 0.8020(3)
H179G H 0.3071 0.7321 0.8009
C157G C 0.2867(16) 0.7496(16) 0.8303(6)
O24G O 0.2598(9) 0.7152(9) 0.8269(3)
N29G N 0.3018(12) 0.7583(11) 0.8430(4)
C158G C 0.3010(15) 0.7185(14) 0.8542(4)
H180G H 0.3072 0.6884 0.8491
C159G C 0.2562(19) 0.7197(17) 0.8610(5)
O25G O 0.2252(13) 0.7518(13) 0.8631(4)
C160G C 0.3425(17) 0.7859(19) 0.8477(6)
H181G H 0.3351 0.8192 0.8473
H182G H 0.3686 0.7799 0.8407
C161G C 0.356(2) 0.7725(19) 0.8641(6)
H183G H 0.3460 0.7969 0.8713
H184G H 0.3899 0.7696 0.8649
C162G C 0.3328(19) 0.7258(19) 0.8685(6)
H185G H 0.3558 0.7008 0.8695
H186G H 0.3147 0.7284 0.8780
N30G N 0.2309(12) 0.6729(12) 0.8620(4)
H187G H 0.2412 0.6498 0.8565
C163G C 0.1878(12) 0.6649(13) 0.8723(4)
H188G H 0.1653 0.6447 0.8671
H189G H 0.1726 0.6946 0.8746
C164G C 0.2059(19) 0.6406(16) 0.8879(5)
O26G O 0.2386(13) 0.6292(12) 0.8925(4)
N31G N 0.1636(15) 0.6338(13) 0.8992(4)
C165G C 0.1812(14) 0.6128(15) 0.9135(5)
H190G H 0.2119 0.6251 0.9168
C166G C 0.1817(15) 0.5604(14) 0.9099(5)
O27G O 0.1557(14) 0.5400(12) 0.9000(5)
C167G C 0.1145(17) 0.648(2) 0.8996(6)
H191G H 0.0973 0.6366 0.8906
H192G H 0.1115 0.6822 0.9001
C168G C 0.0981(15) 0.625(2) 0.9145(6)
H193G H 0.0731 0.6432 0.9193
H194G H 0.0869 0.5935 0.9125
C169G C 0.1416(19) 0.624(2) 0.9249(5)
H195G H 0.1389 0.6002 0.9329
H196G H 0.1466 0.6544 0.9298
N32G N 0.2128(12) 0.5462(11) 0.9188(5)
H197G H 0.2259 0.5660 0.9250
C170G C 0.2748(8) 0.4883(10) 0.9215(3)
H198G H 0.2956 0.5121 0.9242
C171G C 0.2275(9) 0.4986(9) 0.9192(4)
C172G C 0.1963(8) 0.4631(11) 0.9151(3)
H199G H 0.1647 0.4700 0.9136
C173G C 0.2124(11) 0.4172(9) 0.9134(3)
H200G H 0.1915 0.3934 0.9107
C174G C 0.2596(12) 0.4069(9) 0.9157(3)
H201G H 0.2704 0.3762 0.9146
N33G N 0.2908(9) 0.4425(11) 0.9198(3)
O28 O 0.0845(14) 0.2468(14) 0.8927(4)
O29 O 0.656(3) 0.275(3) 0.8963(10)
O30 O 0.463(2) 0.893(2) 0.6366(7)
O31 O 0.228(2) 0.264(2) 0.9156(6)
O32 O 0.107(3) 0.352(3) 0.8831(8)
O33 O 0.425(3) 0.918(3) 0.0635(10)
O34 O 0.3992(19) 0.9557(19) 0.9233(6)
O35 O 0.3537(14) 0.3537(14) 0.0000
Zn4? Zn 0.3595(6) 0.4100(7) 0.92233(15)
I7? I 0.3735(4) 0.3243(5) 0.92150(13)
I8? I 0.3917(5) 0.4467(11) 0.94471(12)
loop_
_geom_bond_atom_site_label_1
_geom_bond_atom_site_label_2
_geom_bond_site_symmetry_1
_geom_bond_site_symmetry_2
Zn1 I1 1_555 1_555
Zn2 I3 1_555 1_555
I2 Zn1 1_555 1_555
I4 Zn2 1_555 1_555
N1 Zn2 1_555 1_555
C1 N1 1_555 1_555
H1 C1 1_555 1_555
C2 C1 1_555 1_555
C3 C2 1_555 1_555
H2 C3 1_555 1_555
C4 C3 1_555 1_555
H3 C4 1_555 1_555
C5 N1 1_555 1_555
H4 C5 1_555 1_555
C6 C2 1_555 1_555
O1 C6 1_555 1_555
N2 C6 1_555 1_555
H5 N2 1_555 1_555
C7 N2 1_555 1_555
H6 C7 1_555 1_555
C8 C7 1_555 1_555
O2 C8 1_555 1_555
C9 C7 1_555 1_555
H7 C9 1_555 1_555
H8 C9 1_555 1_555
C10 C9 1_555 1_555
C11 C10 1_555 1_555
H9 C11 1_555 1_555
C12 C11 1_555 1_555
H10 C12 1_555 1_555
C13 C12 1_555 1_555
H11 C13 1_555 1_555
C14 C13 1_555 1_555
H12 C14 1_555 1_555
C15 C10 1_555 1_555
H13 C15 1_555 1_555
N3 C8 1_555 1_555
H14 N3 1_555 1_555
C16 N3 1_555 1_555
H15 C16 1_555 1_555
C17 C16 1_555 1_555
O3 C17 1_555 1_555
C18 C16 1_555 1_555
H16 C18 1_555 1_555
C19 C18 1_555 1_555
H17 C19 1_555 1_555
H18 C19 1_555 1_555
H19 C19 1_555 1_555
C20 C18 1_555 1_555
H20 C20 1_555 1_555
H21 C20 1_555 1_555
H22 C20 1_555 1_555
N4 C17 1_555 1_555
H23 N4 1_555 1_555
C21 N4 1_555 1_555
H24 C21 1_555 1_555
C22 C21 1_555 1_555
O4 C22 1_555 1_555
C23 C21 1_555 1_555
H25 C23 1_555 1_555
H26 C23 1_555 1_555
C24 C23 1_555 1_555
C25 C24 1_555 1_555
H27 C25 1_555 1_555
C26 C25 1_555 1_555
H28 C26 1_555 1_555
C27 C26 1_555 1_555
H29 C27 1_555 1_555
C28 C27 1_555 1_555
H30 C28 1_555 1_555
C29 C24 1_555 1_555
H31 C29 1_555 1_555
N5 C22 1_555 1_555
H32 N5 1_555 1_555
C30 N5 1_555 1_555
H33 C30 1_555 1_555
C31 C30 1_555 1_555
O5 C31 1_555 1_555
C32 C30 1_555 1_555
H34 C32 1_555 1_555
C33 C32 1_555 1_555
H35 C33 1_555 1_555
H36 C33 1_555 1_555
H37 C33 1_555 1_555
C34 C32 1_555 1_555
H38 C34 1_555 1_555
H39 C34 1_555 1_555
H40 C34 1_555 1_555
N6 C31 1_555 1_555
H41 N6 1_555 1_555
C35 N6 1_555 1_555
C36 C35 1_555 1_555
H42 C36 1_555 1_555
C37 C36 1_555 1_555
H43 C37 1_555 1_555
C38 C37 1_555 1_555
H44 C38 1_555 1_555
C39 C38 1_555 1_555
C40 C35 1_555 1_555
H45 C40 1_555 1_555
C41 C39 1_555 1_555
O6 C41 1_555 1_555
N7 C41 1_555 1_555
C42 N7 1_555 1_555
H46 C42 1_555 1_555
C43 C42 1_555 1_555
O7 C43 1_555 1_555
C44 N7 1_555 1_555
H47 C44 1_555 1_555
H48 C44 1_555 1_555
C45 C44 1_555 1_555
H49 C45 1_555 1_555
H50 C45 1_555 1_555
C46 C42 1_555 1_555
H51 C46 1_555 1_555
H52 C46 1_555 1_555
N8 C43 1_555 1_555
H53 N8 1_555 1_555
C47 N8 1_555 1_555
H54 C47 1_555 1_555
H55 C47 1_555 1_555
C48 C47 1_555 1_555
O8 C48 1_555 1_555
N9 C48 1_555 1_555
C49 N9 1_555 1_555
H56 C49 1_555 1_555
C50 C49 1_555 1_555
O9 C50 1_555 1_555
C51 N9 1_555 1_555
H57 C51 1_555 1_555
H58 C51 1_555 1_555
C52 C51 1_555 1_555
H59 C52 1_555 1_555
H60 C52 1_555 1_555
C53 C49 1_555 1_555
H61 C53 1_555 1_555
H62 C53 1_555 1_555
N10 C50 1_555 1_555
H63 N10 1_555 1_555
C54 H64 1_555 1_555
C55 N10 1_555 1_555
C56 C55 1_555 1_555
H65 C56 1_555 1_555
C57 C56 1_555 1_555
H66 C57 1_555 1_555
C58 C57 1_555 1_555
H67 C58 1_555 1_555
N11 Zn1 1_555 1_555
N12 Zn1 1_555 1_555
C59 N12 1_555 1_555
H68 C59 1_555 1_555
C60 C59 1_555 1_555
H69 C60 1_555 1_555
C61 C60 1_555 1_555
H70 C61 1_555 1_555
C62 C61 1_555 1_555
C63 N12 1_555 1_555
H71 C63 1_555 1_555
C64 C62 1_555 1_555
O10 C64 1_555 1_555
N13 C64 1_555 1_555
H72 N13 1_555 1_555
C65 N13 1_555 1_555
H73 C65 1_555 1_555
C66 C65 1_555 1_555
O11 C66 1_555 1_555
C67 C65 1_555 1_555
H74 C67 1_555 1_555
H75 C67 1_555 1_555
C68 C67 1_555 1_555
C69 C68 1_555 1_555
H76 C69 1_555 1_555
C70 C69 1_555 1_555
H77 C70 1_555 1_555
C71 C70 1_555 1_555
H78 C71 1_555 1_555
C72 C71 1_555 1_555
H79 C72 1_555 1_555
C73 C68 1_555 1_555
H80 C73 1_555 1_555
N14 C66 1_555 1_555
H81 N14 1_555 1_555
C74 N14 1_555 1_555
H82 C74 1_555 1_555
C75 C74 1_555 1_555
O12 C75 1_555 1_555
C76 C74 1_555 1_555
H83 C76 1_555 1_555
C77 C76 1_555 1_555
H84 C77 1_555 1_555
H85 C77 1_555 1_555
H86 C77 1_555 1_555
C78 C76 1_555 1_555
H87 C78 1_555 1_555
H88 C78 1_555 1_555
H89 C78 1_555 1_555
N15 C75 1_555 1_555
H90 N15 1_555 1_555
C79 N15 1_555 1_555
H91 C79 1_555 1_555
C80 C79 1_555 1_555
O13 C80 1_555 1_555
C81 C79 1_555 1_555
H92 C81 1_555 1_555
H93 C81 1_555 1_555
C82 C81 1_555 1_555
C83 C82 1_555 1_555
H94 C83 1_555 1_555
C84 C83 1_555 1_555
H95 C84 1_555 1_555
C85 C84 1_555 1_555
H96 C85 1_555 1_555
C86 C85 1_555 1_555
H97 C86 1_555 1_555
C87 C82 1_555 1_555
H98 C87 1_555 1_555
N16 C80 1_555 1_555
H99 N16 1_555 1_555
C88 N16 1_555 1_555
H100 C88 1_555 1_555
C89 C88 1_555 1_555
O14 C89 1_555 1_555
C90 C88 1_555 1_555
H101 C90 1_555 1_555
C91 C90 1_555 1_555
H102 C91 1_555 1_555
H103 C91 1_555 1_555
H104 C91 1_555 1_555
C92 C90 1_555 1_555
H105 C92 1_555 1_555
H106 C92 1_555 1_555
H107 C92 1_555 1_555
N17 C89 1_555 1_555
H108 N17 1_555 1_555
C93 N17 1_555 1_555
C94 C93 1_555 1_555
H109 C94 1_555 1_555
C95 C94 1_555 1_555
H110 C95 1_555 1_555
C96 C95 1_555 1_555
H111 C96 1_555 1_555
C97 C96 1_555 1_555
C98 C93 1_555 1_555
H112 C98 1_555 1_555
C99 C97 1_555 1_555
O15 C99 1_555 1_555
N18 C99 1_555 1_555
C100 N18 1_555 1_555
H113 C100 1_555 1_555
C101 C100 1_555 1_555
O16 C101 1_555 1_555
C102 N18 1_555 1_555
H114 C102 1_555 1_555
H115 C102 1_555 1_555
C103 C102 1_555 1_555
H116 C103 1_555 1_555
H117 C103 1_555 1_555
C104 C100 1_555 1_555
H118 C104 1_555 1_555
H119 C104 1_555 1_555
N19 C101 1_555 1_555
H120 N19 1_555 1_555
C105 N19 1_555 1_555
H121 C105 1_555 1_555
H122 C105 1_555 1_555
C106 C105 1_555 1_555
O17 C106 1_555 1_555
N20 C106 1_555 1_555
C107 N20 1_555 1_555
H123 C107 1_555 1_555
C108 C107 1_555 1_555
O18 C108 1_555 1_555
C109 N20 1_555 1_555
H124 C109 1_555 1_555
H125 C109 1_555 1_555
C110 C109 1_555 1_555
H126 C110 1_555 1_555
H127 C110 1_555 1_555
C111 C107 1_555 1_555
H128 C111 1_555 1_555
H129 C111 1_555 1_555
N21 C108 1_555 1_555
H130 N21 1_555 1_555
C112 H131 1_555 1_555
C113 N21 1_555 1_555
C114 C113 1_555 1_555
H132 C114 1_555 1_555
C115 C114 1_555 1_555
H133 C115 1_555 1_555
C116 C115 1_555 1_555
H134 C116 1_555 1_555
N22 Zn2 1_555 1_555
Zn3 I5 1_555 1_555
I6 Zn3 1_555 1_555
N23 Zn3 1_555 1_555
C117 N23 1_555 1_555
H135 C117 1_555 1_555
C118 C117 1_555 1_555
H136 C118 1_555 1_555
C119 C118 1_555 1_555
H137 C119 1_555 1_555
C120 C119 1_555 1_555
C121 N23 1_555 1_555
H138 C121 1_555 1_555
C122 C120 1_555 1_555
O19 C122 1_555 1_555
N24 C122 1_555 1_555
H139 N24 1_555 1_555
C123 N24 1_555 1_555
H140 C123 1_555 1_555
C124 C123 1_555 1_555
O20 C124 1_555 1_555
C125 C123 1_555 1_555
H141 C125 1_555 1_555
H142 C125 1_555 1_555
C126 C125 1_555 1_555
C127 C126 1_555 1_555
H143 C127 1_555 1_555
C128 C127 1_555 1_555
H144 C128 1_555 1_555
C129 C128 1_555 1_555
H145 C129 1_555 1_555
C130 C129 1_555 1_555
H146 C130 1_555 1_555
C131 C126 1_555 1_555
H147 C131 1_555 1_555
N25 C124 1_555 1_555
H148 N25 1_555 1_555
C132 N25 1_555 1_555
H149 C132 1_555 1_555
C133 C132 1_555 1_555
O21 C133 1_555 1_555
C134 C132 1_555 1_555
H150 C134 1_555 1_555
C135 C134 1_555 1_555
H151 C135 1_555 1_555
H152 C135 1_555 1_555
H153 C135 1_555 1_555
C136 C134 1_555 1_555
H154 C136 1_555 1_555
H155 C136 1_555 1_555
H156 C136 1_555 1_555
N26 C133 1_555 1_555
H157 N26 1_555 1_555
C137 N26 1_555 1_555
H158 C137 1_555 1_555
C138 C137 1_555 1_555
O22 C138 1_555 1_555
C139 C137 1_555 1_555
H159 C139 1_555 1_555
H160 C139 1_555 1_555
C140 C139 1_555 1_555
C141 C140 1_555 1_555
H161 C141 1_555 1_555
C142 C141 1_555 1_555
H162 C142 1_555 1_555
C143 C142 1_555 1_555
H163 C143 1_555 1_555
C144 C143 1_555 1_555
H164 C144 1_555 1_555
C145 C140 1_555 1_555
H165 C145 1_555 1_555
N27 C138 1_555 1_555
H166 N27 1_555 1_555
C146 N27 1_555 1_555
H167 C146 1_555 1_555
C147 C146 1_555 1_555
O23 C147 1_555 1_555
C148 C146 1_555 1_555
H168 C148 1_555 1_555
C149 C148 1_555 1_555
H169 C149 1_555 1_555
H170 C149 1_555 1_555
H171 C149 1_555 1_555
C150 C148 1_555 1_555
H172 C150 1_555 1_555
H173 C150 1_555 1_555
H174 C150 1_555 1_555
N28 C147 1_555 1_555
H175 N28 1_555 1_555
C151 N28 1_555 1_555
C152 C151 1_555 1_555
H176 C152 1_555 1_555
C153 C152 1_555 1_555
H177 C153 1_555 1_555
C154 C153 1_555 1_555
H178 C154 1_555 1_555
C155 C154 1_555 1_555
C156 C151 1_555 1_555
H179 C156 1_555 1_555
C157 C155 1_555 1_555
O24 C157 1_555 1_555
N29 C157 1_555 1_555
C158 N29 1_555 1_555
H180 C158 1_555 1_555
C159 C158 1_555 1_555
O25 C159 1_555 1_555
C160 N29 1_555 1_555
H181 C160 1_555 1_555
H182 C160 1_555 1_555
C161 C160 1_555 1_555
H183 C161 1_555 1_555
H184 C161 1_555 1_555
C162 C158 1_555 1_555
H185 C162 1_555 1_555
H186 C162 1_555 1_555
N30 C159 1_555 1_555
H187 N30 1_555 1_555
C163 N30 1_555 1_555
H188 C163 1_555 1_555
H189 C163 1_555 1_555
C164 C163 1_555 1_555
O26 C164 1_555 1_555
N31 C164 1_555 1_555
C165 N31 1_555 1_555
H190 C165 1_555 1_555
C166 C165 1_555 1_555
O27 C166 1_555 1_555
C167 N31 1_555 1_555
H191 C167 1_555 1_555
H192 C167 1_555 1_555
C168 C167 1_555 1_555
H193 C168 1_555 1_555
H194 C168 1_555 1_555
C169 C165 1_555 1_555
H195 C169 1_555 1_555
H196 C169 1_555 1_555
N32 C166 1_555 1_555
H197 N32 1_555 1_555
C170 H198 1_555 1_555
C171 N32 1_555 1_555
C172 C171 1_555 1_555
H199 C172 1_555 1_555
C173 C172 1_555 1_555
H200 C173 1_555 1_555
C174 C173 1_555 1_555
H201 C174 1_555 1_555
N33 C170 1_555 1_555
Zn3G N33 1_555 1_555
I5G Zn3G 1_555 1_555
I6G Zn3G 1_555 1_555
N23G Zn3G 1_555 1_555
C117G N23G 1_555 1_555
H135G C117G 1_555 1_555
C118G C117G 1_555 1_555
H136G C118G 1_555 1_555
C119G C118G 1_555 1_555
H137G C119G 1_555 1_555
C120G C119G 1_555 1_555
C121G N23G 1_555 1_555
H138G C121G 1_555 1_555
C122G C120G 1_555 1_555
O19G C122G 1_555 1_555
N24G C122G 1_555 1_555
H139G N24G 1_555 1_555
C123G N24G 1_555 1_555
H140G C123G 1_555 1_555
C124G C123G 1_555 1_555
O20G C124G 1_555 1_555
C125G C123G 1_555 1_555
H141G C125G 1_555 1_555
H142G C125G 1_555 1_555
C126G C125G 1_555 1_555
C127G C126G 1_555 1_555
H143G C127G 1_555 1_555
C128G C127G 1_555 1_555
H144G C128G 1_555 1_555
C129G C128G 1_555 1_555
H145G C129G 1_555 1_555
C130G C129G 1_555 1_555
H146G C130G 1_555 1_555
C131G C126G 1_555 1_555
H147G C131G 1_555 1_555
N25G C124G 1_555 1_555
H148G N25G 1_555 1_555
C132G N25G 1_555 1_555
H149G C132G 1_555 1_555
C133G C132G 1_555 1_555
O21G C133G 1_555 1_555
C134G C132G 1_555 1_555
H150G C134G 1_555 1_555
C135G C134G 1_555 1_555
H151G C135G 1_555 1_555
H152G C135G 1_555 1_555
H153G C135G 1_555 1_555
C136G C134G 1_555 1_555
H154G C136G 1_555 1_555
H155G C136G 1_555 1_555
H156G C136G 1_555 1_555
N26G C133G 1_555 1_555
H157G N26G 1_555 1_555
C137G N26G 1_555 1_555
H158G C137G 1_555 1_555
C138G C137G 1_555 1_555
O22G C138G 1_555 1_555
C139G C137G 1_555 1_555
H159G C139G 1_555 1_555
H160G C139G 1_555 1_555
C140G C139G 1_555 1_555
C141G C140G 1_555 1_555
H161G C141G 1_555 1_555
C142G C141G 1_555 1_555
H162G C142G 1_555 1_555
C143G C142G 1_555 1_555
H163G C143G 1_555 1_555
C144G C143G 1_555 1_555
H164G C144G 1_555 1_555
C145G C140G 1_555 1_555
H165G C145G 1_555 1_555
N27G C138G 1_555 1_555
H166G N27G 1_555 1_555
C146G N27G 1_555 1_555
H167G C146G 1_555 1_555
C147G C146G 1_555 1_555
O23G C147G 1_555 1_555
C148G C146G 1_555 1_555
H168G C148G 1_555 1_555
C149G C148G 1_555 1_555
H169G C149G 1_555 1_555
H170G C149G 1_555 1_555
H171G C149G 1_555 1_555
C150G C148G 1_555 1_555
H172G C150G 1_555 1_555
H173G C150G 1_555 1_555
H174G C150G 1_555 1_555
N28G C147G 1_555 1_555
H175G N28G 1_555 1_555
C151G N28G 1_555 1_555
C152G C151G 1_555 1_555
H176G C152G 1_555 1_555
C153G C152G 1_555 1_555
H177G C153G 1_555 1_555
C154G C153G 1_555 1_555
H178G C154G 1_555 1_555
C155G C154G 1_555 1_555
C156G C151G 1_555 1_555
H179G C156G 1_555 1_555
C157G C155G 1_555 1_555
O24G C157G 1_555 1_555
N29G C157G 1_555 1_555
C158G N29G 1_555 1_555
H180G C158G 1_555 1_555
C159G C158G 1_555 1_555
O25G C159G 1_555 1_555
C160G N29G 1_555 1_555
H181G C160G 1_555 1_555
H182G C160G 1_555 1_555
C161G C160G 1_555 1_555
H183G C161G 1_555 1_555
H184G C161G 1_555 1_555
C162G C158G 1_555 1_555
H185G C162G 1_555 1_555
H186G C162G 1_555 1_555
N30G C159G 1_555 1_555
H187G N30G 1_555 1_555
C163G N30G 1_555 1_555
H188G C163G 1_555 1_555
H189G C163G 1_555 1_555
C164G C163G 1_555 1_555
O26G C164G 1_555 1_555
N31G C164G 1_555 1_555
C165G N31G 1_555 1_555
H190G C165G 1_555 1_555
C166G C165G 1_555 1_555
O27G C166G 1_555 1_555
C167G N31G 1_555 1_555
H191G C167G 1_555 1_555
H192G C167G 1_555 1_555
C168G C167G 1_555 1_555
H193G C168G 1_555 1_555
H194G C168G 1_555 1_555
C169G C165G 1_555 1_555
H195G C169G 1_555 1_555
H196G C169G 1_555 1_555
N32G C166G 1_555 1_555
H197G N32G 1_555 1_555
C170G H198G 1_555 1_555
C171G N32G 1_555 1_555
C172G C171G 1_555 1_555
H199G C172G 1_555 1_555
C173G C172G 1_555 1_555
H200G C173G 1_555 1_555
C174G C173G 1_555 1_555
H201G C174G 1_555 1_555
N33G Zn3 1_555 1_555
C4 C5 1_555 1_555
C14 C15 1_555 1_555
C28 C29 1_555 1_555
C39 C40 1_555 1_555
C45 C46 1_555 1_555
C52 C53 1_555 1_555
C54 C55 1_555 1_555
C54 N11 1_555 1_555
C58 N11 1_555 1_555
C62 C63 1_555 1_555
C72 C73 1_555 1_555
C86 C87 1_555 1_555
C97 C98 1_555 1_555
C103 C104 1_555 1_555
C110 C111 1_555 1_555
C112 C113 1_555 1_555
C112 N22 1_555 1_555
C116 N22 1_555 1_555
C120 C121 1_555 1_555
C130 C131 1_555 1_555
C144 C145 1_555 1_555
C155 C156 1_555 1_555
C161 C162 1_555 1_555
C168 C169 1_555 1_555
C170 C171 1_555 1_555
C174 N33 1_555 1_555
C120G C121G 1_555 1_555
C130G C131G 1_555 1_555
C144G C145G 1_555 1_555
C155G C156G 1_555 1_555
C161G C162G 1_555 1_555
C168G C169G 1_555 1_555
C170G C171G 1_555 1_555
C170G N33G 1_555 1_555
C174G N33G 1_555 1_555

#END
