# generated using pymatgen
data_Zn3H201C174N33(Cl3O17)2
_symmetry_space_group_name_H-M   'P 1'
_cell_length_a   28.39640000
_cell_length_b   28.39640000
_cell_length_c   84.39780000
_cell_angle_alpha   90.00000000
_cell_angle_beta   90.00000000
_cell_angle_gamma   90.00000000
_symmetry_Int_Tables_number   1
_chemical_formula_structural   Zn3H201C174N33(Cl3O17)2
_chemical_formula_sum   'Zn24 H1608 C1392 N264 Cl48 O272'
_cell_volume   68054.63299965
_cell_formula_units_Z   8
loop_
 _symmetry_equiv_pos_site_id
 _symmetry_equiv_pos_as_xyz
  1  'x, y, z'
loop_
 _atom_site_type_symbol
 _atom_site_label
 _atom_site_symmetry_multiplicity
 _atom_site_fract_x
 _atom_site_fract_y
 _atom_site_fract_z
 _atom_site_occupancy
  Zn  Zn1  1  0.439540  0.896100  0.981030  1
  Zn  Zn2  1  0.560460  0.103900  0.481030  1
  Zn  Zn3  1  0.603900  0.939540  0.231030  1
  Zn  Zn4  1  0.396100  0.060460  0.731030  1
  Zn  Zn5  1  0.060460  0.396100  0.268970  1
  Zn  Zn6  1  0.939540  0.603900  0.768970  1
  Zn  Zn7  1  0.896100  0.439540  0.018970  1
  Zn  Zn8  1  0.103900  0.560460  0.518970  1
  Zn  Zn9  1  0.504700  0.083500  0.034650  1
  Zn  Zn10  1  0.495300  0.916500  0.534650  1
  Zn  Zn11  1  0.416500  0.004700  0.284650  1
  Zn  Zn12  1  0.583500  0.995300  0.784650  1
  Zn  Zn13  1  0.995300  0.583500  0.215350  1
  Zn  Zn14  1  0.004700  0.416500  0.715350  1
  Zn  Zn15  1  0.083500  0.504700  0.965350  1
  Zn  Zn16  1  0.916500  0.495300  0.465350  1
  Zn  Zn17  1  0.351600  0.436600  0.926800  1.0
  Zn  Zn18  1  0.648400  0.563400  0.426800  1.0
  Zn  Zn19  1  0.063400  0.851600  0.176800  1.0
  Zn  Zn20  1  0.936600  0.148400  0.676800  1.0
  Zn  Zn21  1  0.148400  0.936600  0.323200  1.0
  Zn  Zn22  1  0.851600  0.063400  0.823200  1.0
  Zn  Zn23  1  0.436600  0.351600  0.073200  1.0
  Zn  Zn24  1  0.563400  0.648400  0.573200  1.0
  H  H25  1  0.406000  0.107900  0.021900  1
  H  H26  1  0.594000  0.892100  0.521900  1
  H  H27  1  0.392100  0.906000  0.271900  1
  H  H28  1  0.607900  0.094000  0.771900  1
  H  H29  1  0.094000  0.607900  0.228100  1
  H  H30  1  0.906000  0.392100  0.728100  1
  H  H31  1  0.107900  0.406000  0.978100  1
  H  H32  1  0.892100  0.594000  0.478100  1
  H  H33  1  0.329000  0.989600  0.018400  1
  H  H34  1  0.671000  0.010400  0.518400  1
  H  H35  1  0.510400  0.829000  0.268400  1
  H  H36  1  0.489600  0.171000  0.768400  1
  H  H37  1  0.171000  0.489600  0.231600  1
  H  H38  1  0.829000  0.510400  0.731600  1
  H  H39  1  0.989600  0.329000  0.981600  1
  H  H40  1  0.010400  0.671000  0.481600  1
  H  H41  1  0.392100  0.946000  0.027800  1
  H  H42  1  0.607900  0.054000  0.527800  1
  H  H43  1  0.554000  0.892100  0.277800  1
  H  H44  1  0.446000  0.107900  0.777800  1
  H  H45  1  0.107900  0.446000  0.222200  1
  H  H46  1  0.892100  0.554000  0.722200  1
  H  H47  1  0.946000  0.392100  0.972200  1
  H  H48  1  0.054000  0.607900  0.472200  1
  H  H49  1  0.462200  0.983300  0.034300  1
  H  H50  1  0.537800  0.016700  0.534300  1
  H  H51  1  0.516700  0.962200  0.284300  1
  H  H52  1  0.483300  0.037800  0.784300  1
  H  H53  1  0.037800  0.483300  0.215700  1
  H  H54  1  0.962200  0.516700  0.715700  1
  H  H55  1  0.983300  0.462200  0.965700  1
  H  H56  1  0.016700  0.537800  0.465700  1
  H  H57  1  0.359100  0.127300  0.002700  1
  H  H58  1  0.640900  0.872700  0.502700  1
  H  H59  1  0.372700  0.859100  0.252700  1
  H  H60  1  0.627300  0.140900  0.752700  1
  H  H61  1  0.140900  0.627300  0.247300  1
  H  H62  1  0.859100  0.372700  0.747300  1
  H  H63  1  0.127300  0.359100  0.997300  1
  H  H64  1  0.872700  0.640900  0.497300  1
  H  H65  1  0.267100  0.148500  0.009400  1
  H  H66  1  0.732900  0.851500  0.509400  1
  H  H67  1  0.351500  0.767100  0.259400  1
  H  H68  1  0.648500  0.232900  0.759400  1
  H  H69  1  0.232900  0.648500  0.240600  1
  H  H70  1  0.767100  0.351500  0.740600  1
  H  H71  1  0.148500  0.267100  0.990600  1
  H  H72  1  0.851500  0.732900  0.490600  1
  H  H73  1  0.286800  0.220400  0.993800  1
  H  H74  1  0.713200  0.779600  0.493800  1
  H  H75  1  0.279600  0.786800  0.243800  1
  H  H76  1  0.720400  0.213200  0.743800  1
  H  H77  1  0.213200  0.720400  0.256200  1
  H  H78  1  0.786800  0.279600  0.756200  1
  H  H79  1  0.220400  0.286800  0.006200  1
  H  H80  1  0.779600  0.713200  0.506200  1
  H  H81  1  0.339200  0.202200  0.994400  1
  H  H82  1  0.660800  0.797800  0.494400  1
  H  H83  1  0.297800  0.839200  0.244400  1
  H  H84  1  0.702200  0.160800  0.744400  1
  H  H85  1  0.160800  0.702200  0.255600  1
  H  H86  1  0.839200  0.297800  0.755600  1
  H  H87  1  0.202200  0.339200  0.005600  1
  H  H88  1  0.797800  0.660800  0.505600  1
  H  H89  1  0.246800  0.213400  0.024200  1
  H  H90  1  0.753200  0.786600  0.524200  1
  H  H91  1  0.286600  0.746800  0.274200  1
  H  H92  1  0.713400  0.253200  0.774200  1
  H  H93  1  0.253200  0.713400  0.225800  1
  H  H94  1  0.746800  0.286600  0.725800  1
  H  H95  1  0.213400  0.246800  0.975800  1
  H  H96  1  0.786600  0.753200  0.475800  1
  H  H97  1  0.259400  0.237600  0.050100  1
  H  H98  1  0.740600  0.762400  0.550100  1
  H  H99  1  0.262400  0.759400  0.300100  1
  H  H100  1  0.737600  0.240600  0.800100  1
  H  H101  1  0.240600  0.737600  0.199900  1
  H  H102  1  0.759400  0.262400  0.699900  1
  H  H103  1  0.237600  0.259400  0.949900  1
  H  H104  1  0.762400  0.740600  0.449900  1
  H  H105  1  0.334300  0.259800  0.058300  1
  H  H106  1  0.665700  0.740200  0.558300  1
  H  H107  1  0.240200  0.834300  0.308300  1
  H  H108  1  0.759800  0.165700  0.808300  1
  H  H109  1  0.165700  0.759800  0.191700  1
  H  H110  1  0.834300  0.240200  0.691700  1
  H  H111  1  0.259800  0.334300  0.941700  1
  H  H112  1  0.740200  0.665700  0.441700  1
  H  H113  1  0.396500  0.257800  0.040400  1
  H  H114  1  0.603500  0.742200  0.540400  1
  H  H115  1  0.242200  0.896500  0.290400  1
  H  H116  1  0.757800  0.103500  0.790400  1
  H  H117  1  0.103500  0.757800  0.209600  1
  H  H118  1  0.896500  0.242200  0.709600  1
  H  H119  1  0.257800  0.396500  0.959600  1
  H  H120  1  0.742200  0.603500  0.459600  1
  H  H121  1  0.383900  0.233600  0.014500  1
  H  H122  1  0.616100  0.766400  0.514500  1
  H  H123  1  0.266400  0.883900  0.264500  1
  H  H124  1  0.733600  0.116100  0.764500  1
  H  H125  1  0.116100  0.733600  0.235500  1
  H  H126  1  0.883900  0.266400  0.735500  1
  H  H127  1  0.233600  0.383900  0.985500  1
  H  H128  1  0.766400  0.616100  0.485500  1
  H  H129  1  0.209400  0.149900  0.993700  1
  H  H130  1  0.790600  0.850100  0.493700  1
  H  H131  1  0.350100  0.709400  0.243700  1
  H  H132  1  0.649900  0.290600  0.743700  1
  H  H133  1  0.290600  0.649900  0.256300  1
  H  H134  1  0.709400  0.350100  0.756300  1
  H  H135  1  0.149900  0.209400  0.006300  1
  H  H136  1  0.850100  0.790600  0.506300  1
  H  H137  1  0.211200  0.123200  0.962400  1
  H  H138  1  0.788800  0.876800  0.462400  1
  H  H139  1  0.376800  0.711200  0.212400  1
  H  H140  1  0.623200  0.288800  0.712400  1
  H  H141  1  0.288800  0.623200  0.287600  1
  H  H142  1  0.711200  0.376800  0.787600  1
  H  H143  1  0.123200  0.211200  0.037600  1
  H  H144  1  0.876800  0.788800  0.537600  1
  H  H145  1  0.151600  0.078800  0.985800  1
  H  H146  1  0.848400  0.921200  0.485800  1
  H  H147  1  0.421200  0.651600  0.235800  1
  H  H148  1  0.578800  0.348400  0.735800  1
  H  H149  1  0.348400  0.578800  0.264200  1
  H  H150  1  0.651600  0.421200  0.764200  1
  H  H151  1  0.078800  0.151600  0.014200  1
  H  H152  1  0.921200  0.848400  0.514200  1
  H  H153  1  0.231900  0.057300  0.981900  1
  H  H154  1  0.768100  0.942700  0.481900  1
  H  H155  1  0.442700  0.731900  0.231900  1
  H  H156  1  0.557300  0.268100  0.731900  1
  H  H157  1  0.268100  0.557300  0.268100  1
  H  H158  1  0.731900  0.442700  0.768100  1
  H  H159  1  0.057300  0.231900  0.018100  1
  H  H160  1  0.942700  0.768100  0.518100  1
  H  H161  1  0.200300  0.015100  0.976400  1
  H  H162  1  0.799700  0.984900  0.476400  1
  H  H163  1  0.484900  0.700300  0.226400  1
  H  H164  1  0.515100  0.299700  0.726400  1
  H  H165  1  0.299700  0.515100  0.273600  1
  H  H166  1  0.700300  0.484900  0.773600  1
  H  H167  1  0.015100  0.200300  0.023600  1
  H  H168  1  0.984900  0.799700  0.523600  1
  H  H169  1  0.222700  0.048900  0.963800  1
  H  H170  1  0.777300  0.951100  0.463800  1
  H  H171  1  0.451100  0.722700  0.213800  1
  H  H172  1  0.548900  0.277300  0.713800  1
  H  H173  1  0.277300  0.548900  0.286200  1
  H  H174  1  0.722700  0.451100  0.786200  1
  H  H175  1  0.048900  0.222700  0.036200  1
  H  H176  1  0.951100  0.777300  0.536200  1
  H  H177  1  0.114000  0.034900  0.966500  1
  H  H178  1  0.886000  0.965100  0.466500  1
  H  H179  1  0.465100  0.614000  0.216500  1
  H  H180  1  0.534900  0.386000  0.716500  1
  H  H181  1  0.386000  0.534900  0.283500  1
  H  H182  1  0.614000  0.465100  0.783500  1
  H  H183  1  0.034900  0.114000  0.033500  1
  H  H184  1  0.965100  0.886000  0.533500  1
  H  H185  1  0.104500  0.087700  0.962100  1
  H  H186  1  0.895500  0.912300  0.462100  1
  H  H187  1  0.412300  0.604500  0.212100  1
  H  H188  1  0.587700  0.395500  0.712100  1
  H  H189  1  0.395500  0.587700  0.287900  1
  H  H190  1  0.604500  0.412300  0.787900  1
  H  H191  1  0.087700  0.104500  0.037900  1
  H  H192  1  0.912300  0.895500  0.537900  1
  H  H193  1  0.143100  0.059200  0.952900  1
  H  H194  1  0.856900  0.940800  0.452900  1
  H  H195  1  0.440800  0.643100  0.202900  1
  H  H196  1  0.559200  0.356900  0.702900  1
  H  H197  1  0.356900  0.559200  0.297100  1
  H  H198  1  0.643100  0.440800  0.797100  1
  H  H199  1  0.059200  0.143100  0.047100  1
  H  H200  1  0.940800  0.856900  0.547100  1
  H  H201  1  0.158100  0.167100  0.948700  1
  H  H202  1  0.841900  0.832900  0.448700  1
  H  H203  1  0.332900  0.658100  0.198700  1
  H  H204  1  0.667100  0.341900  0.698700  1
  H  H205  1  0.341900  0.667100  0.301300  1
  H  H206  1  0.658100  0.332900  0.801300  1
  H  H207  1  0.167100  0.158100  0.051300  1
  H  H208  1  0.832900  0.841900  0.551300  1
  H  H209  1  0.109300  0.238000  0.963000  1
  H  H210  1  0.890700  0.762000  0.463000  1
  H  H211  1  0.262000  0.609300  0.213000  1
  H  H212  1  0.738000  0.390700  0.713000  1
  H  H213  1  0.390700  0.738000  0.287000  1
  H  H214  1  0.609300  0.262000  0.787000  1
  H  H215  1  0.238000  0.109300  0.037000  1
  H  H216  1  0.762000  0.890700  0.537000  1
  H  H217  1  0.141000  0.241600  0.935500  1
  H  H218  1  0.859000  0.758400  0.435500  1
  H  H219  1  0.258400  0.641000  0.185500  1
  H  H220  1  0.741600  0.359000  0.685500  1
  H  H221  1  0.359000  0.741600  0.314500  1
  H  H222  1  0.641000  0.258400  0.814500  1
  H  H223  1  0.241600  0.141000  0.064500  1
  H  H224  1  0.758400  0.859000  0.564500  1
  H  H225  1  0.096300  0.212700  0.930600  1
  H  H226  1  0.903700  0.787300  0.430600  1
  H  H227  1  0.287300  0.596300  0.180600  1
  H  H228  1  0.712700  0.403700  0.680600  1
  H  H229  1  0.403700  0.712700  0.319400  1
  H  H230  1  0.596300  0.287300  0.819400  1
  H  H231  1  0.212700  0.096300  0.069400  1
  H  H232  1  0.787300  0.903700  0.569400  1
  H  H233  1  0.125900  0.332000  0.943900  1
  H  H234  1  0.874100  0.668000  0.443900  1
  H  H235  1  0.168000  0.625900  0.193900  1
  H  H236  1  0.832000  0.374100  0.693900  1
  H  H237  1  0.374100  0.832000  0.306100  1
  H  H238  1  0.625900  0.168000  0.806100  1
  H  H239  1  0.332000  0.125900  0.056100  1
  H  H240  1  0.668000  0.874100  0.556100  1
  H  H241  1  0.075500  0.396100  0.942000  1
  H  H242  1  0.924500  0.603900  0.442000  1
  H  H243  1  0.103900  0.575500  0.192000  1
  H  H244  1  0.896100  0.424500  0.692000  1
  H  H245  1  0.424500  0.896100  0.308000  1
  H  H246  1  0.575500  0.103900  0.808000  1
  H  H247  1  0.396100  0.075500  0.058000  1
  H  H248  1  0.603900  0.924500  0.558000  1
  H  H249  1  0.998600  0.385300  0.933400  1
  H  H250  1  0.001400  0.614700  0.433400  1
  H  H251  1  0.114700  0.498600  0.183400  1
  H  H252  1  0.885300  0.501400  0.683400  1
  H  H253  1  0.501400  0.885300  0.316600  1
  H  H254  1  0.498600  0.114700  0.816600  1
  H  H255  1  0.385300  0.998600  0.066600  1
  H  H256  1  0.614700  0.001400  0.566600  1
  H  H257  1  0.972100  0.310500  0.926800  1
  H  H258  1  0.027900  0.689500  0.426800  1
  H  H259  1  0.189500  0.472100  0.176800  1
  H  H260  1  0.810500  0.527900  0.676800  1
  H  H261  1  0.527900  0.810500  0.323200  1
  H  H262  1  0.472100  0.189500  0.823200  1
  H  H263  1  0.310500  0.972100  0.073200  1
  H  H264  1  0.689500  0.027900  0.573200  1
  H  H265  1  0.022500  0.246500  0.928800  1
  H  H266  1  0.977500  0.753500  0.428800  1
  H  H267  1  0.253500  0.522500  0.178800  1
  H  H268  1  0.746500  0.477500  0.678800  1
  H  H269  1  0.477500  0.746500  0.321200  1
  H  H270  1  0.522500  0.253500  0.821200  1
  H  H271  1  0.246500  0.022500  0.071200  1
  H  H272  1  0.753500  0.977500  0.571200  1
  H  H273  1  0.037700  0.230400  0.973200  1
  H  H274  1  0.962300  0.769600  0.473200  1
  H  H275  1  0.269600  0.537700  0.223200  1
  H  H276  1  0.730400  0.462300  0.723200  1
  H  H277  1  0.462300  0.730400  0.276800  1
  H  H278  1  0.537700  0.269600  0.776800  1
  H  H279  1  0.230400  0.037700  0.026800  1
  H  H280  1  0.769600  0.962300  0.526800  1
  H  H281  1  0.973600  0.168500  0.958300  1
  H  H282  1  0.026400  0.831500  0.458300  1
  H  H283  1  0.331500  0.473600  0.208300  1
  H  H284  1  0.668500  0.526400  0.708300  1
  H  H285  1  0.526400  0.668500  0.291700  1
  H  H286  1  0.473600  0.331500  0.791700  1
  H  H287  1  0.168500  0.973600  0.041700  1
  H  H288  1  0.831500  0.026400  0.541700  1
  H  H289  1  0.979600  0.186400  0.990600  1
  H  H290  1  0.020400  0.813600  0.490600  1
  H  H291  1  0.313600  0.479600  0.240600  1
  H  H292  1  0.686400  0.520400  0.740600  1
  H  H293  1  0.520400  0.686400  0.259400  1
  H  H294  1  0.479600  0.313600  0.759400  1
  H  H295  1  0.186400  0.979600  0.009400  1
  H  H296  1  0.813600  0.020400  0.509400  1
  H  H297  1  0.011800  0.112400  0.995200  1
  H  H298  1  0.988200  0.887600  0.495200  1
  H  H299  1  0.387600  0.511800  0.245200  1
  H  H300  1  0.612400  0.488200  0.745200  1
  H  H301  1  0.488200  0.612400  0.254800  1
  H  H302  1  0.511800  0.387600  0.754800  1
  H  H303  1  0.112400  0.011800  0.004800  1
  H  H304  1  0.887600  0.988200  0.504800  1
  H  H305  1  0.018300  0.106900  0.976800  1
  H  H306  1  0.981700  0.893100  0.476800  1
  H  H307  1  0.393100  0.518300  0.226800  1
  H  H308  1  0.606900  0.481700  0.726800  1
  H  H309  1  0.481700  0.606900  0.273200  1
  H  H310  1  0.518300  0.393100  0.773200  1
  H  H311  1  0.106900  0.018300  0.023200  1
  H  H312  1  0.893100  0.981700  0.523200  1
  H  H313  1  0.044600  0.147200  0.985900  1
  H  H314  1  0.955400  0.852800  0.485900  1
  H  H315  1  0.352800  0.544600  0.235900  1
  H  H316  1  0.647200  0.455400  0.735900  1
  H  H317  1  0.455400  0.647200  0.264100  1
  H  H318  1  0.544600  0.352800  0.764100  1
  H  H319  1  0.147200  0.044600  0.014100  1
  H  H320  1  0.852800  0.955400  0.514100  1
  H  H321  1  0.935600  0.123000  0.998600  1
  H  H322  1  0.064400  0.877000  0.498600  1
  H  H323  1  0.377000  0.435600  0.248600  1
  H  H324  1  0.623000  0.564400  0.748600  1
  H  H325  1  0.564400  0.623000  0.251400  1
  H  H326  1  0.435600  0.377000  0.751400  1
  H  H327  1  0.123000  0.935600  0.001400  1
  H  H328  1  0.877000  0.064400  0.501400  1
  H  H329  1  0.905400  0.162200  0.990300  1
  H  H330  1  0.094600  0.837800  0.490300  1
  H  H331  1  0.337800  0.405400  0.240300  1
  H  H332  1  0.662200  0.594600  0.740300  1
  H  H333  1  0.594600  0.662200  0.259700  1
  H  H334  1  0.405400  0.337800  0.759700  1
  H  H335  1  0.162200  0.905400  0.009700  1
  H  H336  1  0.837800  0.094600  0.509700  1
  H  H337  1  0.918200  0.116000  0.981100  1
  H  H338  1  0.081800  0.884000  0.481100  1
  H  H339  1  0.384000  0.418200  0.231100  1
  H  H340  1  0.616000  0.581800  0.731100  1
  H  H341  1  0.581800  0.616000  0.268900  1
  H  H342  1  0.418200  0.384000  0.768900  1
  H  H343  1  0.116000  0.918200  0.018900  1
  H  H344  1  0.884000  0.081800  0.518900  1
  H  H345  1  0.905800  0.188600  0.954900  1
  H  H346  1  0.094200  0.811400  0.454900  1
  H  H347  1  0.311400  0.405800  0.204900  1
  H  H348  1  0.688600  0.594200  0.704900  1
  H  H349  1  0.594200  0.688600  0.295100  1
  H  H350  1  0.405800  0.311400  0.795100  1
  H  H351  1  0.188600  0.905800  0.045100  1
  H  H352  1  0.811400  0.094200  0.545100  1
  H  H353  1  0.900500  0.308300  0.957300  1
  H  H354  1  0.099500  0.691700  0.457300  1
  H  H355  1  0.191700  0.400500  0.207300  1
  H  H356  1  0.808300  0.599500  0.707300  1
  H  H357  1  0.599500  0.808300  0.292700  1
  H  H358  1  0.400500  0.191700  0.792700  1
  H  H359  1  0.308300  0.900500  0.042700  1
  H  H360  1  0.691700  0.099500  0.542700  1
  H  H361  1  0.829500  0.354800  0.965900  1
  H  H362  1  0.170500  0.645200  0.465900  1
  H  H363  1  0.145200  0.329500  0.215900  1
  H  H364  1  0.854800  0.670500  0.715900  1
  H  H365  1  0.670500  0.854800  0.284100  1
  H  H366  1  0.329500  0.145200  0.784100  1
  H  H367  1  0.354800  0.829500  0.034100  1
  H  H368  1  0.645200  0.170500  0.534100  1
  H  H369  1  0.752700  0.314000  0.956400  1
  H  H370  1  0.247300  0.686000  0.456400  1
  H  H371  1  0.186000  0.252700  0.206400  1
  H  H372  1  0.814000  0.747300  0.706400  1
  H  H373  1  0.747300  0.814000  0.293600  1
  H  H374  1  0.252700  0.186000  0.793600  1
  H  H375  1  0.314000  0.752700  0.043600  1
  H  H376  1  0.686000  0.247300  0.543600  1
  H  H377  1  0.821500  0.193700  0.958700  1
  H  H378  1  0.178500  0.806300  0.458700  1
  H  H379  1  0.306300  0.321500  0.208700  1
  H  H380  1  0.693700  0.678500  0.708700  1
  H  H381  1  0.678500  0.693700  0.291300  1
  H  H382  1  0.321500  0.306300  0.791300  1
  H  H383  1  0.193700  0.821500  0.041300  1
  H  H384  1  0.806300  0.178500  0.541300  1
  H  H385  1  0.673300  0.170100  0.969500  1
  H  H386  1  0.326700  0.829900  0.469500  1
  H  H387  1  0.329900  0.173300  0.219500  1
  H  H388  1  0.670100  0.826700  0.719500  1
  H  H389  1  0.826700  0.670100  0.280500  1
  H  H390  1  0.173300  0.329900  0.780500  1
  H  H391  1  0.170100  0.673300  0.030500  1
  H  H392  1  0.829900  0.326700  0.530500  1
  H  H393  1  0.681400  0.302400  0.968600  1
  H  H394  1  0.318600  0.697600  0.468600  1
  H  H395  1  0.197600  0.181400  0.218600  1
  H  H396  1  0.802400  0.818600  0.718600  1
  H  H397  1  0.818600  0.802400  0.281400  1
  H  H398  1  0.181400  0.197600  0.781400  1
  H  H399  1  0.302400  0.681400  0.031400  1
  H  H400  1  0.697600  0.318600  0.531400  1
  H  H401  1  0.718900  0.278900  0.979600  1
  H  H402  1  0.281100  0.721100  0.479600  1
  H  H403  1  0.221100  0.218900  0.229600  1
  H  H404  1  0.778900  0.781100  0.729600  1
  H  H405  1  0.781100  0.778900  0.270400  1
  H  H406  1  0.218900  0.221100  0.770400  1
  H  H407  1  0.278900  0.718900  0.020400  1
  H  H408  1  0.721100  0.281100  0.520400  1
  H  H409  1  0.661700  0.240500  0.994300  1
  H  H410  1  0.338300  0.759500  0.494300  1
  H  H411  1  0.259500  0.161700  0.244300  1
  H  H412  1  0.740500  0.838300  0.744300  1
  H  H413  1  0.838300  0.740500  0.255700  1
  H  H414  1  0.161700  0.259500  0.755700  1
  H  H415  1  0.240500  0.661700  0.005700  1
  H  H416  1  0.759500  0.338300  0.505700  1
  H  H417  1  0.632900  0.286600  0.989400  1
  H  H418  1  0.367100  0.713400  0.489400  1
  H  H419  1  0.213400  0.132900  0.239400  1
  H  H420  1  0.786600  0.867100  0.739400  1
  H  H421  1  0.867100  0.786600  0.260600  1
  H  H422  1  0.132900  0.213400  0.760600  1
  H  H423  1  0.286600  0.632900  0.010600  1
  H  H424  1  0.713400  0.367100  0.510600  1
  H  H425  1  0.612100  0.252900  0.964700  1
  H  H426  1  0.387900  0.747100  0.464700  1
  H  H427  1  0.247100  0.112100  0.214700  1
  H  H428  1  0.752900  0.887900  0.714700  1
  H  H429  1  0.887900  0.752900  0.285300  1
  H  H430  1  0.112100  0.247100  0.785300  1
  H  H431  1  0.252900  0.612100  0.035300  1
  H  H432  1  0.747100  0.387900  0.535300  1
  H  H433  1  0.600900  0.212600  0.976900  1
  H  H434  1  0.399100  0.787400  0.476900  1
  H  H435  1  0.287400  0.100900  0.226900  1
  H  H436  1  0.712600  0.899100  0.726900  1
  H  H437  1  0.899100  0.712600  0.273100  1
  H  H438  1  0.100900  0.287400  0.773100  1
  H  H439  1  0.212600  0.600900  0.023100  1
  H  H440  1  0.787400  0.399100  0.523100  1
  H  H441  1  0.638400  0.133700  0.948700  1
  H  H442  1  0.361600  0.866300  0.448700  1
  H  H443  1  0.366300  0.138400  0.198700  1
  H  H444  1  0.633700  0.861600  0.698700  1
  H  H445  1  0.861600  0.633700  0.301300  1
  H  H446  1  0.138400  0.366300  0.801300  1
  H  H447  1  0.133700  0.638400  0.051300  1
  H  H448  1  0.866300  0.361600  0.551300  1
  H  H449  1  0.624900  0.120000  0.922700  1
  H  H450  1  0.375100  0.880000  0.422700  1
  H  H451  1  0.380000  0.124900  0.172700  1
  H  H452  1  0.620000  0.875100  0.672700  1
  H  H453  1  0.875100  0.620000  0.327300  1
  H  H454  1  0.124900  0.380000  0.827300  1
  H  H455  1  0.120000  0.624900  0.077300  1
  H  H456  1  0.880000  0.375100  0.577300  1
  H  H457  1  0.606700  0.172300  0.921200  1
  H  H458  1  0.393300  0.827700  0.421200  1
  H  H459  1  0.327700  0.106700  0.171200  1
  H  H460  1  0.672300  0.893300  0.671200  1
  H  H461  1  0.893300  0.672300  0.328800  1
  H  H462  1  0.106700  0.327700  0.828800  1
  H  H463  1  0.172300  0.606700  0.078800  1
  H  H464  1  0.827700  0.393300  0.578800  1
  H  H465  1  0.466800  0.116700  0.928800  1
  H  H466  1  0.533200  0.883300  0.428800  1
  H  H467  1  0.383300  0.966800  0.178800  1
  H  H468  1  0.616700  0.033200  0.678800  1
  H  H469  1  0.033200  0.616700  0.321200  1
  H  H470  1  0.966800  0.383300  0.821200  1
  H  H471  1  0.116700  0.466800  0.071200  1
  H  H472  1  0.883300  0.533200  0.571200  1
  H  H473  1  0.571400  0.056200  0.908900  1
  H  H474  1  0.428600  0.943800  0.408900  1
  H  H475  1  0.443800  0.071400  0.158900  1
  H  H476  1  0.556200  0.928600  0.658900  1
  H  H477  1  0.928600  0.556200  0.341100  1
  H  H478  1  0.071400  0.443800  0.841100  1
  H  H479  1  0.056200  0.571400  0.091100  1
  H  H480  1  0.943800  0.428600  0.591100  1
  H  H481  1  0.566200  0.107600  0.902200  1
  H  H482  1  0.433800  0.892400  0.402200  1
  H  H483  1  0.392400  0.066200  0.152200  1
  H  H484  1  0.607600  0.933800  0.652200  1
  H  H485  1  0.933800  0.607600  0.347800  1
  H  H486  1  0.066200  0.392400  0.847800  1
  H  H487  1  0.107600  0.566200  0.097800  1
  H  H488  1  0.892400  0.433800  0.597800  1
  H  H489  1  0.512200  0.037100  0.893100  1
  H  H490  1  0.487800  0.962900  0.393100  1
  H  H491  1  0.462900  0.012200  0.143100  1
  H  H492  1  0.537100  0.987800  0.643100  1
  H  H493  1  0.987800  0.537100  0.356900  1
  H  H494  1  0.012200  0.462900  0.856900  1
  H  H495  1  0.037100  0.512200  0.106900  1
  H  H496  1  0.962900  0.487800  0.606900  1
  H  H497  1  0.498900  0.090500  0.890300  1
  H  H498  1  0.501100  0.909500  0.390300  1
  H  H499  1  0.409500  0.998900  0.140300  1
  H  H500  1  0.590500  0.001100  0.640300  1
  H  H501  1  0.001100  0.590500  0.359700  1
  H  H502  1  0.998900  0.409500  0.859700  1
  H  H503  1  0.090500  0.498900  0.109700  1
  H  H504  1  0.909500  0.501100  0.609700  1
  H  H505  1  0.440600  0.078800  0.907600  1
  H  H506  1  0.559400  0.921200  0.407600  1
  H  H507  1  0.421200  0.940600  0.157600  1
  H  H508  1  0.578800  0.059400  0.657600  1
  H  H509  1  0.059400  0.578800  0.342400  1
  H  H510  1  0.940600  0.421200  0.842400  1
  H  H511  1  0.078800  0.440600  0.092400  1
  H  H512  1  0.921200  0.559400  0.592400  1
  H  H513  1  0.462500  0.031200  0.913500  1
  H  H514  1  0.537500  0.968800  0.413500  1
  H  H515  1  0.468800  0.962500  0.163500  1
  H  H516  1  0.531200  0.037500  0.663500  1
  H  H517  1  0.037500  0.531200  0.336500  1
  H  H518  1  0.962500  0.468800  0.836500  1
  H  H519  1  0.031200  0.462500  0.086500  1
  H  H520  1  0.968800  0.537500  0.586500  1
  H  H521  1  0.424700  0.086600  0.947500  1
  H  H522  1  0.575300  0.913400  0.447500  1
  H  H523  1  0.413400  0.924700  0.197500  1
  H  H524  1  0.586600  0.075300  0.697500  1
  H  H525  1  0.075300  0.586600  0.302500  1
  H  H526  1  0.924700  0.413400  0.802500  1
  H  H527  1  0.086600  0.424700  0.052500  1
  H  H528  1  0.913400  0.575300  0.552500  1
  H  H529  1  0.463600  0.976800  0.960100  1
  H  H530  1  0.536400  0.023200  0.460100  1
  H  H531  1  0.523200  0.963600  0.210100  1
  H  H532  1  0.476800  0.036400  0.710100  1
  H  H533  1  0.036400  0.476800  0.289900  1
  H  H534  1  0.963600  0.523200  0.789900  1
  H  H535  1  0.976800  0.463600  0.039900  1
  H  H536  1  0.023200  0.536400  0.539900  1
  H  H537  1  0.366400  0.078100  0.966100  1
  H  H538  1  0.633600  0.921900  0.466100  1
  H  H539  1  0.421900  0.866400  0.216100  1
  H  H540  1  0.578100  0.133600  0.716100  1
  H  H541  1  0.133600  0.578100  0.283900  1
  H  H542  1  0.866400  0.421900  0.783900  1
  H  H543  1  0.078100  0.366400  0.033900  1
  H  H544  1  0.921900  0.633600  0.533900  1
  H  H545  1  0.325400  0.029800  0.983400  1
  H  H546  1  0.674600  0.970200  0.483400  1
  H  H547  1  0.470200  0.825400  0.233400  1
  H  H548  1  0.529800  0.174600  0.733400  1
  H  H549  1  0.174600  0.529800  0.266600  1
  H  H550  1  0.825400  0.470200  0.766600  1
  H  H551  1  0.029800  0.325400  0.016600  1
  H  H552  1  0.970200  0.674600  0.516600  1
  H  H553  1  0.353500  0.955000  0.989100  1
  H  H554  1  0.646500  0.045000  0.489100  1
  H  H555  1  0.545000  0.853500  0.239100  1
  H  H556  1  0.455000  0.146500  0.739100  1
  H  H557  1  0.146500  0.455000  0.260900  1
  H  H558  1  0.853500  0.545000  0.760900  1
  H  H559  1  0.955000  0.353500  0.010900  1
  H  H560  1  0.045000  0.646500  0.510900  1
  H  H561  1  0.493700  0.906200  0.015100  1
  H  H562  1  0.506300  0.093800  0.515100  1
  H  H563  1  0.593800  0.993700  0.265100  1
  H  H564  1  0.406200  0.006300  0.765100  1
  H  H565  1  0.006300  0.406200  0.234900  1
  H  H566  1  0.993700  0.593800  0.734900  1
  H  H567  1  0.906200  0.493700  0.984900  1
  H  H568  1  0.093800  0.506300  0.484900  1
  H  H569  1  0.568900  0.925700  0.023600  1
  H  H570  1  0.431100  0.074300  0.523600  1
  H  H571  1  0.574300  0.068900  0.273600  1
  H  H572  1  0.425700  0.931100  0.773600  1
  H  H573  1  0.931100  0.425700  0.226400  1
  H  H574  1  0.068900  0.574300  0.726400  1
  H  H575  1  0.925700  0.568900  0.976400  1
  H  H576  1  0.074300  0.431100  0.476400  1
  H  H577  1  0.626600  0.944700  0.005200  1
  H  H578  1  0.373400  0.055300  0.505200  1
  H  H579  1  0.555300  0.126600  0.255200  1
  H  H580  1  0.444700  0.873400  0.755200  1
  H  H581  1  0.873400  0.444700  0.244800  1
  H  H582  1  0.126600  0.555300  0.744800  1
  H  H583  1  0.944700  0.626600  0.994800  1
  H  H584  1  0.055300  0.373400  0.494800  1
  H  H585  1  0.534000  0.924800  0.969900  1
  H  H586  1  0.466000  0.075200  0.469900  1
  H  H587  1  0.575200  0.034000  0.219900  1
  H  H588  1  0.424800  0.966000  0.719900  1
  H  H589  1  0.966000  0.424800  0.280100  1
  H  H590  1  0.034000  0.575200  0.780100  1
  H  H591  1  0.924800  0.534000  0.030100  1
  H  H592  1  0.075200  0.466000  0.530100  1
  H  H593  1  0.582500  0.976500  0.957800  1
  H  H594  1  0.417500  0.023500  0.457800  1
  H  H595  1  0.523500  0.082500  0.207800  1
  H  H596  1  0.476500  0.917500  0.707800  1
  H  H597  1  0.917500  0.476500  0.292200  1
  H  H598  1  0.082500  0.523500  0.792200  1
  H  H599  1  0.976500  0.582500  0.042200  1
  H  H600  1  0.023500  0.417500  0.542200  1
  H  H601  1  0.669200  0.955300  0.949700  1
  H  H602  1  0.330800  0.044700  0.449700  1
  H  H603  1  0.544700  0.169200  0.199700  1
  H  H604  1  0.455300  0.830800  0.699700  1
  H  H605  1  0.830800  0.455300  0.300300  1
  H  H606  1  0.169200  0.544700  0.800300  1
  H  H607  1  0.955300  0.669200  0.050300  1
  H  H608  1  0.044700  0.330800  0.550300  1
  H  H609  1  0.650500  0.986900  0.925800  1
  H  H610  1  0.349500  0.013100  0.425800  1
  H  H611  1  0.513100  0.150500  0.175800  1
  H  H612  1  0.486900  0.849500  0.675800  1
  H  H613  1  0.849500  0.486900  0.324200  1
  H  H614  1  0.150500  0.513100  0.824200  1
  H  H615  1  0.986900  0.650500  0.074200  1
  H  H616  1  0.013100  0.349500  0.574200  1
  H  H617  1  0.599800  0.996500  0.932400  1
  H  H618  1  0.400200  0.003500  0.432400  1
  H  H619  1  0.503500  0.099800  0.182400  1
  H  H620  1  0.496500  0.900200  0.682400  1
  H  H621  1  0.900200  0.496500  0.317600  1
  H  H622  1  0.099800  0.503500  0.817600  1
  H  H623  1  0.996500  0.599800  0.067600  1
  H  H624  1  0.003500  0.400200  0.567600  1
  H  H625  1  0.543400  0.931300  0.933500  1
  H  H626  1  0.456600  0.068700  0.433500  1
  H  H627  1  0.568700  0.043400  0.183500  1
  H  H628  1  0.431300  0.956600  0.683500  1
  H  H629  1  0.956600  0.431300  0.316500  1
  H  H630  1  0.043400  0.568700  0.816500  1
  H  H631  1  0.931300  0.543400  0.066500  1
  H  H632  1  0.068700  0.456600  0.566500  1
  H  H633  1  0.526600  0.854400  0.926100  1
  H  H634  1  0.473400  0.145600  0.426100  1
  H  H635  1  0.645600  0.026600  0.176100  1
  H  H636  1  0.354400  0.973400  0.676100  1
  H  H637  1  0.973400  0.354400  0.323900  1
  H  H638  1  0.026600  0.645600  0.823900  1
  H  H639  1  0.854400  0.526600  0.073900  1
  H  H640  1  0.145600  0.473400  0.573900  1
  H  H641  1  0.586700  0.805200  0.917600  1
  H  H642  1  0.413300  0.194800  0.417600  1
  H  H643  1  0.694800  0.086700  0.167600  1
  H  H644  1  0.305200  0.913300  0.667600  1
  H  H645  1  0.913300  0.305200  0.332400  1
  H  H646  1  0.086700  0.694800  0.832400  1
  H  H647  1  0.805200  0.586700  0.082400  1
  H  H648  1  0.194800  0.413300  0.582400  1
  H  H649  1  0.663500  0.832800  0.916400  1
  H  H650  1  0.336500  0.167200  0.416400  1
  H  H651  1  0.667200  0.163500  0.166400  1
  H  H652  1  0.332800  0.836500  0.666400  1
  H  H653  1  0.836500  0.332800  0.333600  1
  H  H654  1  0.163500  0.667200  0.833600  1
  H  H655  1  0.832800  0.663500  0.083600  1
  H  H656  1  0.167200  0.336500  0.583600  1
  H  H657  1  0.680200  0.909700  0.923800  1
  H  H658  1  0.319800  0.090300  0.423800  1
  H  H659  1  0.590300  0.180200  0.173800  1
  H  H660  1  0.409700  0.819800  0.673800  1
  H  H661  1  0.819800  0.409700  0.326200  1
  H  H662  1  0.180200  0.590300  0.826200  1
  H  H663  1  0.909700  0.680200  0.076200  1
  H  H664  1  0.090300  0.319800  0.576200  1
  H  H665  1  0.731800  0.001100  0.948600  1
  H  H666  1  0.268200  0.998900  0.448600  1
  H  H667  1  0.498900  0.231800  0.198600  1
  H  H668  1  0.501100  0.768200  0.698600  1
  H  H669  1  0.768200  0.501100  0.301400  1
  H  H670  1  0.231800  0.498900  0.801400  1
  H  H671  1  0.001100  0.731800  0.051400  1
  H  H672  1  0.998900  0.268200  0.551400  1
  H  H673  1  0.733700  0.097900  0.952300  1
  H  H674  1  0.266300  0.902100  0.452300  1
  H  H675  1  0.402100  0.233700  0.202300  1
  H  H676  1  0.597900  0.766300  0.702300  1
  H  H677  1  0.766300  0.597900  0.297700  1
  H  H678  1  0.233700  0.402100  0.797700  1
  H  H679  1  0.097900  0.733700  0.047700  1
  H  H680  1  0.902100  0.266300  0.547700  1
  H  H681  1  0.790300  0.031700  0.969800  1
  H  H682  1  0.209700  0.968300  0.469800  1
  H  H683  1  0.468300  0.290300  0.219800  1
  H  H684  1  0.531700  0.709700  0.719800  1
  H  H685  1  0.709700  0.531700  0.280200  1
  H  H686  1  0.290300  0.468300  0.780200  1
  H  H687  1  0.031700  0.790300  0.030200  1
  H  H688  1  0.968300  0.209700  0.530200  1
  H  H689  1  0.754500  0.054600  0.993400  1
  H  H690  1  0.245500  0.945400  0.493400  1
  H  H691  1  0.445400  0.254500  0.243400  1
  H  H692  1  0.554600  0.745500  0.743400  1
  H  H693  1  0.745500  0.554600  0.256600  1
  H  H694  1  0.254500  0.445400  0.756600  1
  H  H695  1  0.054600  0.754500  0.006600  1
  H  H696  1  0.945400  0.245500  0.506600  1
  H  H697  1  0.720700  0.089000  0.984300  1
  H  H698  1  0.279300  0.911000  0.484300  1
  H  H699  1  0.411000  0.220700  0.234300  1
  H  H700  1  0.589000  0.779300  0.734300  1
  H  H701  1  0.779300  0.589000  0.265700  1
  H  H702  1  0.220700  0.411000  0.765700  1
  H  H703  1  0.089000  0.720700  0.015700  1
  H  H704  1  0.911000  0.279300  0.515700  1
  H  H705  1  0.715000  0.034400  0.982400  1
  H  H706  1  0.285000  0.965600  0.482400  1
  H  H707  1  0.465600  0.215000  0.232400  1
  H  H708  1  0.534400  0.785000  0.732400  1
  H  H709  1  0.785000  0.534400  0.267600  1
  H  H710  1  0.215000  0.465600  0.767600  1
  H  H711  1  0.034400  0.715000  0.017600  1
  H  H712  1  0.965600  0.285000  0.517600  1
  H  H713  1  0.811500  0.093000  0.986700  1
  H  H714  1  0.188500  0.907000  0.486700  1
  H  H715  1  0.407000  0.311500  0.236700  1
  H  H716  1  0.593000  0.688500  0.736700  1
  H  H717  1  0.688500  0.593000  0.263300  1
  H  H718  1  0.311500  0.407000  0.763300  1
  H  H719  1  0.093000  0.811500  0.013300  1
  H  H720  1  0.907000  0.188500  0.513300  1
  H  H721  1  0.826600  0.106900  0.969400  1
  H  H722  1  0.173400  0.893100  0.469400  1
  H  H723  1  0.393100  0.326600  0.219400  1
  H  H724  1  0.606900  0.673400  0.719400  1
  H  H725  1  0.673400  0.606900  0.280600  1
  H  H726  1  0.326600  0.393100  0.780600  1
  H  H727  1  0.106900  0.826600  0.030600  1
  H  H728  1  0.893100  0.173400  0.530600  1
  H  H729  1  0.781000  0.128800  0.976900  1
  H  H730  1  0.219000  0.871200  0.476900  1
  H  H731  1  0.371200  0.281000  0.226900  1
  H  H732  1  0.628800  0.719000  0.726900  1
  H  H733  1  0.719000  0.628800  0.273100  1
  H  H734  1  0.281000  0.371200  0.773100  1
  H  H735  1  0.128800  0.781000  0.023100  1
  H  H736  1  0.871200  0.219000  0.523100  1
  H  H737  1  0.781000  0.134000  0.939700  1
  H  H738  1  0.219000  0.866000  0.439700  1
  H  H739  1  0.366000  0.281000  0.189700  1
  H  H740  1  0.634000  0.719000  0.689700  1
  H  H741  1  0.719000  0.634000  0.310300  1
  H  H742  1  0.281000  0.366000  0.810300  1
  H  H743  1  0.134000  0.781000  0.060300  1
  H  H744  1  0.866000  0.219000  0.560300  1
  H  H745  1  0.832400  0.096500  0.915700  1
  H  H746  1  0.167600  0.903500  0.415700  1
  H  H747  1  0.403500  0.332400  0.165700  1
  H  H748  1  0.596500  0.667600  0.665700  1
  H  H749  1  0.667600  0.596500  0.334300  1
  H  H750  1  0.332400  0.403500  0.834300  1
  H  H751  1  0.096500  0.832400  0.084300  1
  H  H752  1  0.903500  0.167600  0.584300  1
  H  H753  1  0.839900  0.191300  0.927100  1
  H  H754  1  0.160100  0.808700  0.427100  1
  H  H755  1  0.308700  0.339900  0.177100  1
  H  H756  1  0.691300  0.660100  0.677100  1
  H  H757  1  0.660100  0.691300  0.322900  1
  H  H758  1  0.339900  0.308700  0.822900  1
  H  H759  1  0.191300  0.839900  0.072900  1
  H  H760  1  0.808700  0.160100  0.572900  1
  H  H761  1  0.798100  0.175500  0.916000  1
  H  H762  1  0.201900  0.824500  0.416000  1
  H  H763  1  0.324500  0.298100  0.166000  1
  H  H764  1  0.675500  0.701900  0.666000  1
  H  H765  1  0.701900  0.675500  0.334000  1
  H  H766  1  0.298100  0.324500  0.834000  1
  H  H767  1  0.175500  0.798100  0.084000  1
  H  H768  1  0.824500  0.201900  0.584000  1
  H  H769  1  0.834600  0.146900  0.883700  1
  H  H770  1  0.165400  0.853100  0.383700  1
  H  H771  1  0.353100  0.334600  0.133700  1
  H  H772  1  0.646900  0.665400  0.633700  1
  H  H773  1  0.665400  0.646900  0.366300  1
  H  H774  1  0.334600  0.353100  0.866300  1
  H  H775  1  0.146900  0.834600  0.116300  1
  H  H776  1  0.853100  0.165400  0.616300  1
  H  H777  1  0.897700  0.160100  0.866900  1
  H  H778  1  0.102300  0.839900  0.366900  1
  H  H779  1  0.339900  0.397700  0.116900  1
  H  H780  1  0.660100  0.602300  0.616900  1
  H  H781  1  0.602300  0.660100  0.383100  1
  H  H782  1  0.397700  0.339900  0.883100  1
  H  H783  1  0.160100  0.897700  0.133100  1
  H  H784  1  0.839900  0.102300  0.633100  1
  H  H785  1  0.966300  0.194000  0.876500  1
  H  H786  1  0.033700  0.806000  0.376500  1
  H  H787  1  0.306000  0.466300  0.126500  1
  H  H788  1  0.694000  0.533700  0.626500  1
  H  H789  1  0.533700  0.694000  0.373500  1
  H  H790  1  0.466300  0.306000  0.873500  1
  H  H791  1  0.194000  0.966300  0.123500  1
  H  H792  1  0.806000  0.033700  0.623500  1
  H  H793  1  0.971700  0.214700  0.903100  1
  H  H794  1  0.028300  0.785300  0.403100  1
  H  H795  1  0.285300  0.471700  0.153100  1
  H  H796  1  0.714700  0.528300  0.653100  1
  H  H797  1  0.528300  0.714700  0.346900  1
  H  H798  1  0.471700  0.285300  0.846900  1
  H  H799  1  0.214700  0.971700  0.096900  1
  H  H800  1  0.785300  0.028300  0.596900  1
  H  H801  1  0.908600  0.201400  0.919900  1
  H  H802  1  0.091400  0.798600  0.419900  1
  H  H803  1  0.298600  0.408600  0.169900  1
  H  H804  1  0.701400  0.591400  0.669900  1
  H  H805  1  0.591400  0.701400  0.330100  1
  H  H806  1  0.408600  0.298600  0.830100  1
  H  H807  1  0.201400  0.908600  0.080100  1
  H  H808  1  0.798600  0.091400  0.580100  1
  H  H809  1  0.901800  0.069000  0.914400  1
  H  H810  1  0.098200  0.931000  0.414400  1
  H  H811  1  0.431000  0.401800  0.164400  1
  H  H812  1  0.569000  0.598200  0.664400  1
  H  H813  1  0.598200  0.569000  0.335600  1
  H  H814  1  0.401800  0.431000  0.835600  1
  H  H815  1  0.069000  0.901800  0.085600  1
  H  H816  1  0.931000  0.098200  0.585600  1
  H  H817  1  0.967500  0.101600  0.938300  1
  H  H818  1  0.032500  0.898400  0.438300  1
  H  H819  1  0.398400  0.467500  0.188300  1
  H  H820  1  0.601600  0.532500  0.688300  1
  H  H821  1  0.532500  0.601600  0.311700  1
  H  H822  1  0.467500  0.398400  0.811700  1
  H  H823  1  0.101600  0.967500  0.061700  1
  H  H824  1  0.898400  0.032500  0.561700  1
  H  H825  1  0.957700  0.004400  0.929000  1
  H  H826  1  0.042300  0.995600  0.429000  1
  H  H827  1  0.495600  0.457700  0.179000  1
  H  H828  1  0.504400  0.542300  0.679000  1
  H  H829  1  0.542300  0.504400  0.321000  1
  H  H830  1  0.457700  0.495600  0.821000  1
  H  H831  1  0.004400  0.957700  0.071000  1
  H  H832  1  0.995600  0.042300  0.571000  1
  H  H833  1  0.038800  0.020300  0.933000  1
  H  H834  1  0.961200  0.979700  0.433000  1
  H  H835  1  0.479700  0.538800  0.183000  1
  H  H836  1  0.520300  0.461200  0.683000  1
  H  H837  1  0.461200  0.520300  0.317000  1
  H  H838  1  0.538800  0.479700  0.817000  1
  H  H839  1  0.020300  0.038800  0.067000  1
  H  H840  1  0.979700  0.961200  0.567000  1
  H  H841  1  0.028200  0.037700  0.950200  1
  H  H842  1  0.971800  0.962300  0.450200  1
  H  H843  1  0.462300  0.528200  0.200200  1
  H  H844  1  0.537700  0.471800  0.700200  1
  H  H845  1  0.471800  0.537700  0.299800  1
  H  H846  1  0.528200  0.462300  0.799800  1
  H  H847  1  0.037700  0.028200  0.049800  1
  H  H848  1  0.962300  0.971800  0.549800  1
  H  H849  1  0.021000  0.984600  0.945800  1
  H  H850  1  0.979000  0.015400  0.445800  1
  H  H851  1  0.515400  0.521000  0.195800  1
  H  H852  1  0.484600  0.479000  0.695800  1
  H  H853  1  0.479000  0.484600  0.304200  1
  H  H854  1  0.521000  0.515400  0.804200  1
  H  H855  1  0.984600  0.021000  0.054200  1
  H  H856  1  0.015400  0.979000  0.554200  1
  H  H857  1  0.937000  0.990200  0.955400  1
  H  H858  1  0.063000  0.009800  0.455400  1
  H  H859  1  0.509800  0.437000  0.205400  1
  H  H860  1  0.490200  0.563000  0.705400  1
  H  H861  1  0.563000  0.490200  0.294600  1
  H  H862  1  0.437000  0.509800  0.794600  1
  H  H863  1  0.990200  0.937000  0.044600  1
  H  H864  1  0.009800  0.063000  0.544600  1
  H  H865  1  0.941000  0.044200  0.959000  1
  H  H866  1  0.059000  0.955800  0.459000  1
  H  H867  1  0.455800  0.441000  0.209000  1
  H  H868  1  0.544200  0.559000  0.709000  1
  H  H869  1  0.559000  0.544200  0.291000  1
  H  H870  1  0.441000  0.455800  0.791000  1
  H  H871  1  0.044200  0.941000  0.041000  1
  H  H872  1  0.955800  0.059000  0.541000  1
  H  H873  1  0.901800  0.025600  0.947500  1
  H  H874  1  0.098200  0.974400  0.447500  1
  H  H875  1  0.474400  0.401800  0.197500  1
  H  H876  1  0.525600  0.598200  0.697500  1
  H  H877  1  0.598200  0.525600  0.302500  1
  H  H878  1  0.401800  0.474400  0.802500  1
  H  H879  1  0.025600  0.901800  0.052500  1
  H  H880  1  0.974400  0.098200  0.552500  1
  H  H881  1  0.028200  0.132200  0.926100  1
  H  H882  1  0.971800  0.867800  0.426100  1
  H  H883  1  0.367800  0.528200  0.176100  1
  H  H884  1  0.632200  0.471800  0.676100  1
  H  H885  1  0.471800  0.632200  0.323900  1
  H  H886  1  0.528200  0.367800  0.823900  1
  H  H887  1  0.132200  0.028200  0.073900  1
  H  H888  1  0.867800  0.971800  0.573900  1
  H  H889  1  0.042500  0.118200  0.888500  1
  H  H890  1  0.957500  0.881800  0.388500  1
  H  H891  1  0.381800  0.542500  0.138500  1
  H  H892  1  0.618200  0.457500  0.638500  1
  H  H893  1  0.457500  0.618200  0.361500  1
  H  H894  1  0.542500  0.381800  0.861500  1
  H  H895  1  0.118200  0.042500  0.111500  1
  H  H896  1  0.881800  0.957500  0.611500  1
  H  H897  1  0.111000  0.134400  0.874500  1
  H  H898  1  0.889000  0.865600  0.374500  1
  H  H899  1  0.365600  0.611000  0.124500  1
  H  H900  1  0.634400  0.389000  0.624500  1
  H  H901  1  0.389000  0.634400  0.375500  1
  H  H902  1  0.611000  0.365600  0.875500  1
  H  H903  1  0.134400  0.111000  0.125500  1
  H  H904  1  0.865600  0.889000  0.625500  1
  H  H905  1  0.182600  0.138200  0.887700  1
  H  H906  1  0.817400  0.861800  0.387700  1
  H  H907  1  0.361800  0.682600  0.137700  1
  H  H908  1  0.638200  0.317400  0.637700  1
  H  H909  1  0.317400  0.638200  0.362300  1
  H  H910  1  0.682600  0.361800  0.862300  1
  H  H911  1  0.138200  0.182600  0.112300  1
  H  H912  1  0.861800  0.817400  0.612300  1
  H  H913  1  0.117200  0.109600  0.928800  1
  H  H914  1  0.882800  0.890400  0.428800  1
  H  H915  1  0.390400  0.617200  0.178800  1
  H  H916  1  0.609600  0.382800  0.678800  1
  H  H917  1  0.382800  0.609600  0.321200  1
  H  H918  1  0.617200  0.390400  0.821200  1
  H  H919  1  0.109600  0.117200  0.071200  1
  H  H920  1  0.890400  0.882800  0.571200  1
  H  H921  1  0.268400  0.085300  0.935400  1
  H  H922  1  0.731600  0.914700  0.435400  1
  H  H923  1  0.414700  0.768400  0.185400  1
  H  H924  1  0.585300  0.231600  0.685400  1
  H  H925  1  0.231600  0.585300  0.314600  1
  H  H926  1  0.768400  0.414700  0.814600  1
  H  H927  1  0.085300  0.268400  0.064600  1
  H  H928  1  0.914700  0.731600  0.564600  1
  H  H929  1  0.259700  0.072900  0.893600  1
  H  H930  1  0.740300  0.927100  0.393600  1
  H  H931  1  0.427100  0.759700  0.143600  1
  H  H932  1  0.572900  0.240300  0.643600  1
  H  H933  1  0.240300  0.572900  0.356400  1
  H  H934  1  0.759700  0.427100  0.856400  1
  H  H935  1  0.072900  0.259700  0.106400  1
  H  H936  1  0.927100  0.740300  0.606400  1
  H  H937  1  0.219300  0.043200  0.901100  1
  H  H938  1  0.780700  0.956800  0.401100  1
  H  H939  1  0.456800  0.719300  0.151100  1
  H  H940  1  0.543200  0.280700  0.651100  1
  H  H941  1  0.280700  0.543200  0.348900  1
  H  H942  1  0.719300  0.456800  0.848900  1
  H  H943  1  0.043200  0.219300  0.098900  1
  H  H944  1  0.956800  0.780700  0.598900  1
  H  H945  1  0.272000  0.997400  0.915400  1
  H  H946  1  0.728000  0.002600  0.415400  1
  H  H947  1  0.502600  0.772000  0.165400  1
  H  H948  1  0.497400  0.228000  0.665400  1
  H  H949  1  0.228000  0.497400  0.334600  1
  H  H950  1  0.772000  0.502600  0.834600  1
  H  H951  1  0.997400  0.272000  0.084600  1
  H  H952  1  0.002600  0.728000  0.584600  1
  H  H953  1  0.301700  0.007400  0.899600  1
  H  H954  1  0.698300  0.992600  0.399600  1
  H  H955  1  0.492600  0.801700  0.149600  1
  H  H956  1  0.507400  0.198300  0.649600  1
  H  H957  1  0.198300  0.507400  0.350400  1
  H  H958  1  0.801700  0.492600  0.850400  1
  H  H959  1  0.007400  0.301700  0.100400  1
  H  H960  1  0.992600  0.698300  0.600400  1
  H  H961  1  0.330200  0.077500  0.909100  1
  H  H962  1  0.669800  0.922500  0.409100  1
  H  H963  1  0.422500  0.830200  0.159100  1
  H  H964  1  0.577500  0.169800  0.659100  1
  H  H965  1  0.169800  0.577500  0.340900  1
  H  H966  1  0.830200  0.422500  0.840900  1
  H  H967  1  0.077500  0.330200  0.090900  1
  H  H968  1  0.922500  0.669800  0.590900  1
  H  H969  1  0.331600  0.047400  0.924700  1
  H  H970  1  0.668400  0.952600  0.424700  1
  H  H971  1  0.452600  0.831600  0.174700  1
  H  H972  1  0.547400  0.168400  0.674700  1
  H  H973  1  0.168400  0.547400  0.325300  1
  H  H974  1  0.831600  0.452600  0.825300  1
  H  H975  1  0.047400  0.331600  0.075300  1
  H  H976  1  0.952600  0.668400  0.575300  1
  H  H977  1  0.295000  0.139800  0.949000  1
  H  H978  1  0.705000  0.860200  0.449000  1
  H  H979  1  0.360200  0.795000  0.199000  1
  H  H980  1  0.639800  0.205000  0.699000  1
  H  H981  1  0.205000  0.639800  0.301000  1
  H  H982  1  0.795000  0.360200  0.801000  1
  H  H983  1  0.139800  0.295000  0.051000  1
  H  H984  1  0.860200  0.705000  0.551000  1
  H  H985  1  0.316300  0.209400  0.958100  1
  H  H986  1  0.683700  0.790600  0.458100  1
  H  H987  1  0.290600  0.816300  0.208100  1
  H  H988  1  0.709400  0.183700  0.708100  1
  H  H989  1  0.183700  0.709400  0.291900  1
  H  H990  1  0.816300  0.290600  0.791900  1
  H  H991  1  0.209400  0.316300  0.041900  1
  H  H992  1  0.790600  0.683700  0.541900  1
  H  H993  1  0.329800  0.225300  0.940800  1
  H  H994  1  0.670200  0.774700  0.440800  1
  H  H995  1  0.274700  0.829800  0.190800  1
  H  H996  1  0.725300  0.170200  0.690800  1
  H  H997  1  0.170200  0.725300  0.309200  1
  H  H998  1  0.829800  0.274700  0.809200  1
  H  H999  1  0.225300  0.329800  0.059200  1
  H  H1000  1  0.774700  0.670200  0.559200  1
  H  H1001  1  0.472300  0.198600  0.954600  1
  H  H1002  1  0.527700  0.801400  0.454600  1
  H  H1003  1  0.301400  0.972300  0.204600  1
  H  H1004  1  0.698600  0.027700  0.704600  1
  H  H1005  1  0.027700  0.698600  0.295400  1
  H  H1006  1  0.972300  0.301400  0.795400  1
  H  H1007  1  0.198600  0.472300  0.045400  1
  H  H1008  1  0.801400  0.527700  0.545400  1
  H  H1009  1  0.364000  0.266900  0.971300  1
  H  H1010  1  0.636000  0.733100  0.471300  1
  H  H1011  1  0.233100  0.864000  0.221300  1
  H  H1012  1  0.766900  0.136000  0.721300  1
  H  H1013  1  0.136000  0.766900  0.278700  1
  H  H1014  1  0.864000  0.233100  0.778700  1
  H  H1015  1  0.266900  0.364000  0.028700  1
  H  H1016  1  0.733100  0.636000  0.528700  1
  H  H1017  1  0.375100  0.280100  0.953400  1
  H  H1018  1  0.624900  0.719900  0.453400  1
  H  H1019  1  0.219900  0.875100  0.203400  1
  H  H1020  1  0.780100  0.124900  0.703400  1
  H  H1021  1  0.124900  0.780100  0.296600  1
  H  H1022  1  0.875100  0.219900  0.796600  1
  H  H1023  1  0.280100  0.375100  0.046600  1
  H  H1024  1  0.719900  0.624900  0.546600  1
  H  H1025  1  0.441800  0.314800  0.960500  1
  H  H1026  1  0.558200  0.685200  0.460500  1
  H  H1027  1  0.185200  0.941800  0.210500  1
  H  H1028  1  0.814800  0.058200  0.710500  1
  H  H1029  1  0.058200  0.814800  0.289500  1
  H  H1030  1  0.941800  0.185200  0.789500  1
  H  H1031  1  0.314800  0.441800  0.039500  1
  H  H1032  1  0.685200  0.558200  0.539500  1
  H  H1033  1  0.427600  0.307300  0.978300  1
  H  H1034  1  0.572400  0.692700  0.478300  1
  H  H1035  1  0.192700  0.927600  0.228300  1
  H  H1036  1  0.807300  0.072400  0.728300  1
  H  H1037  1  0.072400  0.807300  0.271700  1
  H  H1038  1  0.927600  0.192700  0.771700  1
  H  H1039  1  0.307300  0.427600  0.021700  1
  H  H1040  1  0.692700  0.572400  0.521700  1
  H  H1041  1  0.482000  0.253200  0.981300  1
  H  H1042  1  0.518000  0.746800  0.481300  1
  H  H1043  1  0.246800  0.982000  0.231300  1
  H  H1044  1  0.753200  0.018000  0.731300  1
  H  H1045  1  0.018000  0.753200  0.268700  1
  H  H1046  1  0.982000  0.246800  0.768700  1
  H  H1047  1  0.253200  0.482000  0.018700  1
  H  H1048  1  0.746800  0.518000  0.518700  1
  H  H1049  1  0.500700  0.266200  0.964300  1
  H  H1050  1  0.499300  0.733800  0.464300  1
  H  H1051  1  0.233800  0.000700  0.214300  1
  H  H1052  1  0.766200  0.999300  0.714300  1
  H  H1053  1  0.999300  0.766200  0.285700  1
  H  H1054  1  0.000700  0.233800  0.785700  1
  H  H1055  1  0.266200  0.500700  0.035700  1
  H  H1056  1  0.733800  0.499300  0.535700  1
  H  H1057  1  0.515600  0.157100  0.967000  1
  H  H1058  1  0.484400  0.842900  0.467000  1
  H  H1059  1  0.342900  0.015600  0.217000  1
  H  H1060  1  0.657100  0.984400  0.717000  1
  H  H1061  1  0.984400  0.657100  0.283000  1
  H  H1062  1  0.015600  0.342900  0.783000  1
  H  H1063  1  0.157100  0.515600  0.033000  1
  H  H1064  1  0.842900  0.484400  0.533000  1
  H  H1065  1  0.480000  0.133100  0.004300  1
  H  H1066  1  0.520000  0.866900  0.504300  1
  H  H1067  1  0.366900  0.980000  0.254300  1
  H  H1068  1  0.633100  0.020000  0.754300  1
  H  H1069  1  0.020000  0.633100  0.245700  1
  H  H1070  1  0.980000  0.366900  0.745700  1
  H  H1071  1  0.133100  0.480000  0.995700  1
  H  H1072  1  0.866900  0.520000  0.495700  1
  H  H1073  1  0.569700  0.093200  0.970000  1
  H  H1074  1  0.430300  0.906800  0.470000  1
  H  H1075  1  0.406800  0.069700  0.220000  1
  H  H1076  1  0.593200  0.930300  0.720000  1
  H  H1077  1  0.930300  0.593200  0.280000  1
  H  H1078  1  0.069700  0.406800  0.780000  1
  H  H1079  1  0.093200  0.569700  0.030000  1
  H  H1080  1  0.906800  0.430300  0.530000  1
  H  H1081  1  0.608300  0.044600  0.987900  1
  H  H1082  1  0.391700  0.955400  0.487900  1
  H  H1083  1  0.455400  0.108300  0.237900  1
  H  H1084  1  0.544600  0.891700  0.737900  1
  H  H1085  1  0.891700  0.544600  0.262100  1
  H  H1086  1  0.108300  0.455400  0.762100  1
  H  H1087  1  0.044600  0.608300  0.012100  1
  H  H1088  1  0.955400  0.391700  0.512100  1
  H  H1089  1  0.582800  0.040300  0.014000  1
  H  H1090  1  0.417200  0.959700  0.514000  1
  H  H1091  1  0.459700  0.082800  0.264000  1
  H  H1092  1  0.540300  0.917200  0.764000  1
  H  H1093  1  0.917200  0.540300  0.236000  1
  H  H1094  1  0.082800  0.459700  0.736000  1
  H  H1095  1  0.040300  0.582800  0.986000  1
  H  H1096  1  0.959700  0.417200  0.486000  1
  H  H1097  1  0.443800  0.422900  0.912700  1.0
  H  H1098  1  0.556200  0.577100  0.412700  1.0
  H  H1099  1  0.077100  0.943800  0.162700  1.0
  H  H1100  1  0.922900  0.056200  0.662700  1.0
  H  H1101  1  0.056200  0.922900  0.337300  1.0
  H  H1102  1  0.943800  0.077100  0.837300  1.0
  H  H1103  1  0.422900  0.443800  0.087300  1.0
  H  H1104  1  0.577100  0.556200  0.587300  1.0
  H  H1105  1  0.483700  0.437300  0.889200  1.0
  H  H1106  1  0.516300  0.562700  0.389200  1.0
  H  H1107  1  0.062700  0.983700  0.139200  1.0
  H  H1108  1  0.937300  0.016300  0.639200  1.0
  H  H1109  1  0.016300  0.937300  0.360800  1.0
  H  H1110  1  0.983700  0.062700  0.860800  1.0
  H  H1111  1  0.437300  0.483700  0.110800  1.0
  H  H1112  1  0.562700  0.516300  0.610800  1.0
  H  H1113  1  0.443700  0.467800  0.867600  1.0
  H  H1114  1  0.556300  0.532200  0.367600  1.0
  H  H1115  1  0.032200  0.943700  0.117600  1.0
  H  H1116  1  0.967800  0.056300  0.617600  1.0
  H  H1117  1  0.056300  0.967800  0.382400  1.0
  H  H1118  1  0.943700  0.032200  0.882400  1.0
  H  H1119  1  0.467800  0.443700  0.132400  1.0
  H  H1120  1  0.532200  0.556300  0.632400  1.0
  H  H1121  1  0.323800  0.469300  0.892900  1.0
  H  H1122  1  0.676200  0.530700  0.392900  1.0
  H  H1123  1  0.030700  0.823800  0.142900  1.0
  H  H1124  1  0.969300  0.176200  0.642900  1.0
  H  H1125  1  0.176200  0.969300  0.357100  1.0
  H  H1126  1  0.823800  0.030700  0.857100  1.0
  H  H1127  1  0.469300  0.323800  0.107100  1.0
  H  H1128  1  0.530700  0.676200  0.607100  1.0
  H  H1129  1  0.299400  0.515400  0.874200  1.0
  H  H1130  1  0.700600  0.484600  0.374200  1.0
  H  H1131  1  0.984600  0.799400  0.124200  1.0
  H  H1132  1  0.015400  0.200600  0.624200  1.0
  H  H1133  1  0.200600  0.015400  0.375800  1.0
  H  H1134  1  0.799400  0.984600  0.875800  1.0
  H  H1135  1  0.515400  0.299400  0.125800  1.0
  H  H1136  1  0.484600  0.700600  0.625800  1.0
  H  H1137  1  0.289400  0.490100  0.844100  1.0
  H  H1138  1  0.710600  0.509900  0.344100  1.0
  H  H1139  1  0.009900  0.789400  0.094100  1.0
  H  H1140  1  0.990100  0.210600  0.594100  1.0
  H  H1141  1  0.210600  0.990100  0.405900  1.0
  H  H1142  1  0.789400  0.009900  0.905900  1.0
  H  H1143  1  0.490100  0.289400  0.155900  1.0
  H  H1144  1  0.509900  0.710600  0.655900  1.0
  H  H1145  1  0.227700  0.510200  0.867900  1.0
  H  H1146  1  0.772300  0.489800  0.367900  1.0
  H  H1147  1  0.989800  0.727700  0.117900  1.0
  H  H1148  1  0.010200  0.272300  0.617900  1.0
  H  H1149  1  0.272300  0.010200  0.382100  1.0
  H  H1150  1  0.727700  0.989800  0.882100  1.0
  H  H1151  1  0.510200  0.227700  0.132100  1.0
  H  H1152  1  0.489800  0.772300  0.632100  1.0
  H  H1153  1  0.210300  0.516300  0.850500  1.0
  H  H1154  1  0.789700  0.483700  0.350500  1.0
  H  H1155  1  0.983700  0.710300  0.100500  1.0
  H  H1156  1  0.016300  0.289700  0.600500  1.0
  H  H1157  1  0.289700  0.016300  0.399500  1.0
  H  H1158  1  0.710300  0.983700  0.899500  1.0
  H  H1159  1  0.516300  0.210300  0.149500  1.0
  H  H1160  1  0.483700  0.789700  0.649500  1.0
  H  H1161  1  0.210900  0.432100  0.833600  1.0
  H  H1162  1  0.789100  0.567900  0.333600  1.0
  H  H1163  1  0.067900  0.710900  0.083600  1.0
  H  H1164  1  0.932100  0.289100  0.583600  1.0
  H  H1165  1  0.289100  0.932100  0.416400  1.0
  H  H1166  1  0.710900  0.067900  0.916400  1.0
  H  H1167  1  0.432100  0.210900  0.166400  1.0
  H  H1168  1  0.567900  0.789100  0.666400  1.0
  H  H1169  1  0.201500  0.351800  0.837700  1.0
  H  H1170  1  0.798500  0.648200  0.337700  1.0
  H  H1171  1  0.148200  0.701500  0.087700  1.0
  H  H1172  1  0.851800  0.298500  0.587700  1.0
  H  H1173  1  0.298500  0.851800  0.412300  1.0
  H  H1174  1  0.701500  0.148200  0.912300  1.0
  H  H1175  1  0.351800  0.201500  0.162300  1.0
  H  H1176  1  0.648200  0.798500  0.662300  1.0
  H  H1177  1  0.204000  0.321400  0.863200  1.0
  H  H1178  1  0.796000  0.678600  0.363200  1.0
  H  H1179  1  0.178600  0.704000  0.113200  1.0
  H  H1180  1  0.821400  0.296000  0.613200  1.0
  H  H1181  1  0.296000  0.821400  0.386800  1.0
  H  H1182  1  0.704000  0.178600  0.886800  1.0
  H  H1183  1  0.321400  0.204000  0.136800  1.0
  H  H1184  1  0.678600  0.796000  0.636800  1.0
  H  H1185  1  0.215900  0.371200  0.884600  1.0
  H  H1186  1  0.784100  0.628800  0.384600  1.0
  H  H1187  1  0.128800  0.715900  0.134600  1.0
  H  H1188  1  0.871200  0.284100  0.634600  1.0
  H  H1189  1  0.284100  0.871200  0.365400  1.0
  H  H1190  1  0.715900  0.128800  0.865400  1.0
  H  H1191  1  0.371200  0.215900  0.115400  1.0
  H  H1192  1  0.628800  0.784100  0.615400  1.0
  H  H1193  1  0.225200  0.451400  0.880500  1.0
  H  H1194  1  0.774800  0.548600  0.380500  1.0
  H  H1195  1  0.048600  0.725200  0.130500  1.0
  H  H1196  1  0.951400  0.274800  0.630500  1.0
  H  H1197  1  0.274800  0.951400  0.369500  1.0
  H  H1198  1  0.725200  0.048600  0.869500  1.0
  H  H1199  1  0.451400  0.225200  0.119500  1.0
  H  H1200  1  0.548600  0.774800  0.619500  1.0
  H  H1201  1  0.292600  0.537500  0.823500  1.0
  H  H1202  1  0.707400  0.462500  0.323500  1.0
  H  H1203  1  0.962500  0.792600  0.073500  1.0
  H  H1204  1  0.037500  0.207400  0.573500  1.0
  H  H1205  1  0.207400  0.037500  0.426500  1.0
  H  H1206  1  0.792600  0.962500  0.926500  1.0
  H  H1207  1  0.537500  0.292600  0.176500  1.0
  H  H1208  1  0.462500  0.707400  0.676500  1.0
  H  H1209  1  0.293500  0.633200  0.828300  1.0
  H  H1210  1  0.706500  0.366800  0.328300  1.0
  H  H1211  1  0.866800  0.793500  0.078300  1.0
  H  H1212  1  0.133200  0.206500  0.578300  1.0
  H  H1213  1  0.206500  0.133200  0.421700  1.0
  H  H1214  1  0.793500  0.866800  0.921700  1.0
  H  H1215  1  0.633200  0.293500  0.171700  1.0
  H  H1216  1  0.366800  0.706500  0.671700  1.0
  H  H1217  1  0.352300  0.648200  0.809400  1.0
  H  H1218  1  0.647700  0.351800  0.309400  1.0
  H  H1219  1  0.851800  0.852300  0.059400  1.0
  H  H1220  1  0.148200  0.147700  0.559400  1.0
  H  H1221  1  0.147700  0.148200  0.440600  1.0
  H  H1222  1  0.852300  0.851800  0.940600  1.0
  H  H1223  1  0.648200  0.352300  0.190600  1.0
  H  H1224  1  0.351800  0.647700  0.690600  1.0
  H  H1225  1  0.371500  0.626900  0.836100  1.0
  H  H1226  1  0.628500  0.373100  0.336100  1.0
  H  H1227  1  0.873100  0.871500  0.086100  1.0
  H  H1228  1  0.126900  0.128500  0.586100  1.0
  H  H1229  1  0.128500  0.126900  0.413900  1.0
  H  H1230  1  0.871500  0.873100  0.913900  1.0
  H  H1231  1  0.626900  0.371500  0.163900  1.0
  H  H1232  1  0.373100  0.628500  0.663900  1.0
  H  H1233  1  0.372200  0.573400  0.831600  1.0
  H  H1234  1  0.627800  0.426600  0.331600  1.0
  H  H1235  1  0.926600  0.872200  0.081600  1.0
  H  H1236  1  0.073400  0.127800  0.581600  1.0
  H  H1237  1  0.127800  0.073400  0.418400  1.0
  H  H1238  1  0.872200  0.926600  0.918400  1.0
  H  H1239  1  0.573400  0.372200  0.168400  1.0
  H  H1240  1  0.426600  0.627800  0.668400  1.0
  H  H1241  1  0.411700  0.607100  0.825300  1.0
  H  H1242  1  0.588300  0.392900  0.325300  1.0
  H  H1243  1  0.892900  0.911700  0.075300  1.0
  H  H1244  1  0.107100  0.088300  0.575300  1.0
  H  H1245  1  0.088300  0.107100  0.424700  1.0
  H  H1246  1  0.911700  0.892900  0.924700  1.0
  H  H1247  1  0.607100  0.411700  0.174700  1.0
  H  H1248  1  0.392900  0.588300  0.674700  1.0
  H  H1249  1  0.390900  0.587600  0.795600  1.0
  H  H1250  1  0.609100  0.412400  0.295600  1.0
  H  H1251  1  0.912400  0.890900  0.045600  1.0
  H  H1252  1  0.087600  0.109100  0.545600  1.0
  H  H1253  1  0.109100  0.087600  0.454400  1.0
  H  H1254  1  0.890900  0.912400  0.954400  1.0
  H  H1255  1  0.587600  0.390900  0.204400  1.0
  H  H1256  1  0.412400  0.609100  0.704400  1.0
  H  H1257  1  0.361700  0.549000  0.804500  1.0
  H  H1258  1  0.638300  0.451000  0.304500  1.0
  H  H1259  1  0.951000  0.861700  0.054500  1.0
  H  H1260  1  0.049000  0.138300  0.554500  1.0
  H  H1261  1  0.138300  0.049000  0.445500  1.0
  H  H1262  1  0.861700  0.951000  0.945500  1.0
  H  H1263  1  0.549000  0.361700  0.195500  1.0
  H  H1264  1  0.451000  0.638300  0.695500  1.0
  H  H1265  1  0.337100  0.581300  0.791900  1.0
  H  H1266  1  0.662900  0.418700  0.291900  1.0
  H  H1267  1  0.918700  0.837100  0.041900  1.0
  H  H1268  1  0.081300  0.162900  0.541900  1.0
  H  H1269  1  0.162900  0.081300  0.458100  1.0
  H  H1270  1  0.837100  0.918700  0.958100  1.0
  H  H1271  1  0.581300  0.337100  0.208100  1.0
  H  H1272  1  0.418700  0.662900  0.708100  1.0
  H  H1273  1  0.253000  0.672900  0.809100  1.0
  H  H1274  1  0.747000  0.327100  0.309100  1.0
  H  H1275  1  0.827100  0.753000  0.059100  1.0
  H  H1276  1  0.172900  0.247000  0.559100  1.0
  H  H1277  1  0.247000  0.172900  0.440900  1.0
  H  H1278  1  0.753000  0.827100  0.940900  1.0
  H  H1279  1  0.672900  0.253000  0.190900  1.0
  H  H1280  1  0.327100  0.747000  0.690900  1.0
  H  H1281  1  0.192000  0.629800  0.789900  1.0
  H  H1282  1  0.808000  0.370200  0.289900  1.0
  H  H1283  1  0.870200  0.692000  0.039900  1.0
  H  H1284  1  0.129800  0.308000  0.539900  1.0
  H  H1285  1  0.308000  0.129800  0.460100  1.0
  H  H1286  1  0.692000  0.870200  0.960100  1.0
  H  H1287  1  0.629800  0.192000  0.210100  1.0
  H  H1288  1  0.370200  0.808000  0.710100  1.0
  H  H1289  1  0.167400  0.705800  0.801800  1.0
  H  H1290  1  0.832600  0.294200  0.301800  1.0
  H  H1291  1  0.794200  0.667400  0.051800  1.0
  H  H1292  1  0.205800  0.332600  0.551800  1.0
  H  H1293  1  0.332600  0.205800  0.448200  1.0
  H  H1294  1  0.667400  0.794200  0.948200  1.0
  H  H1295  1  0.705800  0.167400  0.198200  1.0
  H  H1296  1  0.294200  0.832600  0.698200  1.0
  H  H1297  1  0.206600  0.732300  0.791900  1.0
  H  H1298  1  0.793400  0.267700  0.291900  1.0
  H  H1299  1  0.767700  0.706600  0.041900  1.0
  H  H1300  1  0.232300  0.293400  0.541900  1.0
  H  H1301  1  0.293400  0.232300  0.458100  1.0
  H  H1302  1  0.706600  0.767700  0.958100  1.0
  H  H1303  1  0.732300  0.206600  0.208100  1.0
  H  H1304  1  0.267700  0.793400  0.708100  1.0
  H  H1305  1  0.097200  0.667500  0.785000  1.0
  H  H1306  1  0.902800  0.332500  0.285000  1.0
  H  H1307  1  0.832500  0.597200  0.035000  1.0
  H  H1308  1  0.167500  0.402800  0.535000  1.0
  H  H1309  1  0.402800  0.167500  0.465000  1.0
  H  H1310  1  0.597200  0.832500  0.965000  1.0
  H  H1311  1  0.667500  0.097200  0.215000  1.0
  H  H1312  1  0.332500  0.902800  0.715000  1.0
  H  H1313  1  0.049300  0.679400  0.763100  1.0
  H  H1314  1  0.950700  0.320600  0.263100  1.0
  H  H1315  1  0.820600  0.549300  0.013100  1.0
  H  H1316  1  0.179400  0.450700  0.513100  1.0
  H  H1317  1  0.450700  0.179400  0.486900  1.0
  H  H1318  1  0.549300  0.820600  0.986900  1.0
  H  H1319  1  0.679400  0.049300  0.236900  1.0
  H  H1320  1  0.320600  0.950700  0.736900  1.0
  H  H1321  1  0.075200  0.726200  0.742300  1.0
  H  H1322  1  0.924800  0.273800  0.242300  1.0
  H  H1323  1  0.773800  0.575200  0.992300  1.0
  H  H1324  1  0.226200  0.424800  0.492300  1.0
  H  H1325  1  0.424800  0.226200  0.507700  1.0
  H  H1326  1  0.575200  0.773800  0.007700  1.0
  H  H1327  1  0.726200  0.075200  0.257700  1.0
  H  H1328  1  0.273800  0.924800  0.757700  1.0
  H  H1329  1  0.149000  0.761100  0.743400  1.0
  H  H1330  1  0.851000  0.238900  0.243400  1.0
  H  H1331  1  0.738900  0.649000  0.993400  1.0
  H  H1332  1  0.261100  0.351000  0.493400  1.0
  H  H1333  1  0.351000  0.261100  0.506600  1.0
  H  H1334  1  0.649000  0.738900  0.006600  1.0
  H  H1335  1  0.761100  0.149000  0.256600  1.0
  H  H1336  1  0.238900  0.851000  0.756600  1.0
  H  H1337  1  0.196900  0.749100  0.765300  1.0
  H  H1338  1  0.803100  0.250900  0.265300  1.0
  H  H1339  1  0.750900  0.696900  0.015300  1.0
  H  H1340  1  0.249100  0.303100  0.515300  1.0
  H  H1341  1  0.303100  0.249100  0.484700  1.0
  H  H1342  1  0.696900  0.750900  0.984700  1.0
  H  H1343  1  0.749100  0.196900  0.234700  1.0
  H  H1344  1  0.250900  0.803100  0.734700  1.0
  H  H1345  1  0.205200  0.613200  0.763300  1.0
  H  H1346  1  0.794800  0.386800  0.263300  1.0
  H  H1347  1  0.886800  0.705200  0.013300  1.0
  H  H1348  1  0.113200  0.294800  0.513300  1.0
  H  H1349  1  0.294800  0.113200  0.486700  1.0
  H  H1350  1  0.705200  0.886800  0.986700  1.0
  H  H1351  1  0.613200  0.205200  0.236700  1.0
  H  H1352  1  0.386800  0.794800  0.736700  1.0
  H  H1353  1  0.277400  0.652500  0.747500  1.0
  H  H1354  1  0.722600  0.347500  0.247500  1.0
  H  H1355  1  0.847500  0.777400  0.997500  1.0
  H  H1356  1  0.152500  0.222600  0.497500  1.0
  H  H1357  1  0.222600  0.152500  0.502500  1.0
  H  H1358  1  0.777400  0.847500  0.002500  1.0
  H  H1359  1  0.652500  0.277400  0.252500  1.0
  H  H1360  1  0.347500  0.722600  0.752500  1.0
  H  H1361  1  0.255300  0.555600  0.743400  1.0
  H  H1362  1  0.744700  0.444400  0.243400  1.0
  H  H1363  1  0.944400  0.755300  0.993400  1.0
  H  H1364  1  0.055600  0.244700  0.493400  1.0
  H  H1365  1  0.244700  0.055600  0.506600  1.0
  H  H1366  1  0.755300  0.944400  0.006600  1.0
  H  H1367  1  0.555600  0.255300  0.256600  1.0
  H  H1368  1  0.444400  0.744700  0.756600  1.0
  H  H1369  1  0.324300  0.548600  0.729500  1.0
  H  H1370  1  0.675700  0.451400  0.229500  1.0
  H  H1371  1  0.951400  0.824300  0.979500  1.0
  H  H1372  1  0.048600  0.175700  0.479500  1.0
  H  H1373  1  0.175700  0.048600  0.520500  1.0
  H  H1374  1  0.824300  0.951400  0.020500  1.0
  H  H1375  1  0.548600  0.324300  0.270500  1.0
  H  H1376  1  0.451400  0.675700  0.770500  1.0
  H  H1377  1  0.297500  0.589300  0.720800  1.0
  H  H1378  1  0.702500  0.410700  0.220800  1.0
  H  H1379  1  0.910700  0.797500  0.970800  1.0
  H  H1380  1  0.089300  0.202500  0.470800  1.0
  H  H1381  1  0.202500  0.089300  0.529200  1.0
  H  H1382  1  0.797500  0.910700  0.029200  1.0
  H  H1383  1  0.589300  0.297500  0.279200  1.0
  H  H1384  1  0.410700  0.702500  0.779200  1.0
  H  H1385  1  0.338000  0.601300  0.732800  1.0
  H  H1386  1  0.662000  0.398700  0.232800  1.0
  H  H1387  1  0.898700  0.838000  0.982800  1.0
  H  H1388  1  0.101300  0.162000  0.482800  1.0
  H  H1389  1  0.162000  0.101300  0.517200  1.0
  H  H1390  1  0.838000  0.898700  0.017200  1.0
  H  H1391  1  0.601300  0.338000  0.267200  1.0
  H  H1392  1  0.398700  0.662000  0.767200  1.0
  H  H1393  1  0.330200  0.549800  0.756500  1.0
  H  H1394  1  0.669800  0.450200  0.256500  1.0
  H  H1395  1  0.950200  0.830200  0.006500  1.0
  H  H1396  1  0.049800  0.169800  0.506500  1.0
  H  H1397  1  0.169800  0.049800  0.493500  1.0
  H  H1398  1  0.830200  0.950200  0.993500  1.0
  H  H1399  1  0.549800  0.330200  0.243500  1.0
  H  H1400  1  0.450200  0.669800  0.743500  1.0
  H  H1401  1  0.332800  0.604900  0.757600  1.0
  H  H1402  1  0.667200  0.395100  0.257600  1.0
  H  H1403  1  0.895100  0.832800  0.007600  1.0
  H  H1404  1  0.104900  0.167200  0.507600  1.0
  H  H1405  1  0.167200  0.104900  0.492400  1.0
  H  H1406  1  0.832800  0.895100  0.992400  1.0
  H  H1407  1  0.604900  0.332800  0.242400  1.0
  H  H1408  1  0.395100  0.667200  0.742400  1.0
  H  H1409  1  0.294900  0.577400  0.767400  1.0
  H  H1410  1  0.705100  0.422600  0.267400  1.0
  H  H1411  1  0.922600  0.794900  0.017400  1.0
  H  H1412  1  0.077400  0.205100  0.517400  1.0
  H  H1413  1  0.205100  0.077400  0.482600  1.0
  H  H1414  1  0.794900  0.922600  0.982600  1.0
  H  H1415  1  0.577400  0.294900  0.232600  1.0
  H  H1416  1  0.422600  0.705100  0.732600  1.0
  H  H1417  1  0.242400  0.698400  0.727300  1.0
  H  H1418  1  0.757600  0.301600  0.227300  1.0
  H  H1419  1  0.801600  0.742400  0.977300  1.0
  H  H1420  1  0.198400  0.257600  0.477300  1.0
  H  H1421  1  0.257600  0.198400  0.522700  1.0
  H  H1422  1  0.742400  0.801600  0.022700  1.0
  H  H1423  1  0.698400  0.242400  0.272700  1.0
  H  H1424  1  0.301600  0.757600  0.772700  1.0
  H  H1425  1  0.139100  0.680700  0.717400  1.0
  H  H1426  1  0.860900  0.319300  0.217400  1.0
  H  H1427  1  0.819300  0.639100  0.967400  1.0
  H  H1428  1  0.180700  0.360900  0.467400  1.0
  H  H1429  1  0.360900  0.180700  0.532600  1.0
  H  H1430  1  0.639100  0.819300  0.032600  1.0
  H  H1431  1  0.680700  0.139100  0.282600  1.0
  H  H1432  1  0.319300  0.860900  0.782600  1.0
  H  H1433  1  0.105400  0.702600  0.693400  1.0
  H  H1434  1  0.894600  0.297400  0.193400  1.0
  H  H1435  1  0.797400  0.605400  0.943400  1.0
  H  H1436  1  0.202600  0.394600  0.443400  1.0
  H  H1437  1  0.394600  0.202600  0.556600  1.0
  H  H1438  1  0.605400  0.797400  0.056600  1.0
  H  H1439  1  0.702600  0.105400  0.306600  1.0
  H  H1440  1  0.297400  0.894600  0.806600  1.0
  H  H1441  1  0.153000  0.718100  0.671700  1.0
  H  H1442  1  0.847000  0.281900  0.171700  1.0
  H  H1443  1  0.781900  0.653000  0.921700  1.0
  H  H1444  1  0.218100  0.347000  0.421700  1.0
  H  H1445  1  0.347000  0.218100  0.578300  1.0
  H  H1446  1  0.653000  0.781900  0.078300  1.0
  H  H1447  1  0.718100  0.153000  0.328300  1.0
  H  H1448  1  0.281900  0.847000  0.828300  1.0
  H  H1449  1  0.267800  0.689800  0.697800  1.0
  H  H1450  1  0.732200  0.310200  0.197800  1.0
  H  H1451  1  0.810200  0.767800  0.947800  1.0
  H  H1452  1  0.189800  0.232200  0.447800  1.0
  H  H1453  1  0.232200  0.189800  0.552200  1.0
  H  H1454  1  0.767800  0.810200  0.052200  1.0
  H  H1455  1  0.689800  0.267800  0.302200  1.0
  H  H1456  1  0.310200  0.732200  0.802200  1.0
  H  H1457  1  0.310200  0.700400  0.646200  1.0
  H  H1458  1  0.689800  0.299600  0.146200  1.0
  H  H1459  1  0.799600  0.810200  0.896200  1.0
  H  H1460  1  0.200400  0.189800  0.396200  1.0
  H  H1461  1  0.189800  0.200400  0.603800  1.0
  H  H1462  1  0.810200  0.799600  0.103800  1.0
  H  H1463  1  0.700400  0.310200  0.353800  1.0
  H  H1464  1  0.299600  0.689800  0.853800  1.0
  H  H1465  1  0.187500  0.673300  0.645800  1.0
  H  H1466  1  0.812500  0.326700  0.145800  1.0
  H  H1467  1  0.826700  0.687500  0.895800  1.0
  H  H1468  1  0.173300  0.312500  0.395800  1.0
  H  H1469  1  0.312500  0.173300  0.604200  1.0
  H  H1470  1  0.687500  0.826700  0.104200  1.0
  H  H1471  1  0.673300  0.187500  0.354200  1.0
  H  H1472  1  0.326700  0.812500  0.854200  1.0
  H  H1473  1  0.211400  0.638300  0.657500  1.0
  H  H1474  1  0.788600  0.361700  0.157500  1.0
  H  H1475  1  0.861700  0.711400  0.907500  1.0
  H  H1476  1  0.138300  0.288600  0.407500  1.0
  H  H1477  1  0.288600  0.138300  0.592500  1.0
  H  H1478  1  0.711400  0.861700  0.092500  1.0
  H  H1479  1  0.638300  0.211400  0.342500  1.0
  H  H1480  1  0.361700  0.788600  0.842500  1.0
  H  H1481  1  0.261200  0.609400  0.637800  1.0
  H  H1482  1  0.738800  0.390600  0.137800  1.0
  H  H1483  1  0.890600  0.761200  0.887800  1.0
  H  H1484  1  0.109400  0.238800  0.387800  1.0
  H  H1485  1  0.238800  0.109400  0.612200  1.0
  H  H1486  1  0.761200  0.890600  0.112200  1.0
  H  H1487  1  0.609400  0.261200  0.362200  1.0
  H  H1488  1  0.390600  0.738800  0.862200  1.0
  H  H1489  1  0.214400  0.620000  0.627800  1.0
  H  H1490  1  0.785600  0.380000  0.127800  1.0
  H  H1491  1  0.880000  0.714400  0.877800  1.0
  H  H1492  1  0.120000  0.285600  0.377800  1.0
  H  H1493  1  0.285600  0.120000  0.622200  1.0
  H  H1494  1  0.714400  0.880000  0.122200  1.0
  H  H1495  1  0.620000  0.214400  0.372200  1.0
  H  H1496  1  0.380000  0.785600  0.872200  1.0
  H  H1497  1  0.234500  0.697600  0.624200  1.0
  H  H1498  1  0.765500  0.302400  0.124200  1.0
  H  H1499  1  0.802400  0.734500  0.874200  1.0
  H  H1500  1  0.197600  0.265500  0.374200  1.0
  H  H1501  1  0.265500  0.197600  0.625800  1.0
  H  H1502  1  0.734500  0.802400  0.125800  1.0
  H  H1503  1  0.697600  0.234500  0.375800  1.0
  H  H1504  1  0.302400  0.765500  0.875800  1.0
  H  H1505  1  0.283900  0.673700  0.622100  1.0
  H  H1506  1  0.716100  0.326300  0.122100  1.0
  H  H1507  1  0.826300  0.783900  0.872100  1.0
  H  H1508  1  0.173700  0.216100  0.372100  1.0
  H  H1509  1  0.216100  0.173700  0.627900  1.0
  H  H1510  1  0.783900  0.826300  0.127900  1.0
  H  H1511  1  0.673700  0.283900  0.377900  1.0
  H  H1512  1  0.326300  0.716100  0.877900  1.0
  H  H1513  1  0.350900  0.756600  0.638300  1.0
  H  H1514  1  0.649100  0.243400  0.138300  1.0
  H  H1515  1  0.743400  0.850900  0.888300  1.0
  H  H1516  1  0.256600  0.149100  0.388300  1.0
  H  H1517  1  0.149100  0.256600  0.611700  1.0
  H  H1518  1  0.850900  0.743400  0.111700  1.0
  H  H1519  1  0.756600  0.350900  0.361700  1.0
  H  H1520  1  0.243400  0.649100  0.861700  1.0
  H  H1521  1  0.350800  0.840300  0.631700  1.0
  H  H1522  1  0.649200  0.159700  0.131700  1.0
  H  H1523  1  0.659700  0.850800  0.881700  1.0
  H  H1524  1  0.340300  0.149200  0.381700  1.0
  H  H1525  1  0.149200  0.340300  0.618300  1.0
  H  H1526  1  0.850800  0.659700  0.118300  1.0
  H  H1527  1  0.840300  0.350800  0.368300  1.0
  H  H1528  1  0.159700  0.649200  0.868300  1.0
  H  H1529  1  0.302700  0.830900  0.623100  1.0
  H  H1530  1  0.697300  0.169100  0.123100  1.0
  H  H1531  1  0.669100  0.802700  0.873100  1.0
  H  H1532  1  0.330900  0.197300  0.373100  1.0
  H  H1533  1  0.197300  0.330900  0.626900  1.0
  H  H1534  1  0.802700  0.669100  0.126900  1.0
  H  H1535  1  0.830900  0.302700  0.376900  1.0
  H  H1536  1  0.169100  0.697300  0.876900  1.0
  H  H1537  1  0.372000  0.807700  0.578100  1.0
  H  H1538  1  0.628000  0.192300  0.078100  1.0
  H  H1539  1  0.692300  0.872000  0.828100  1.0
  H  H1540  1  0.307700  0.128000  0.328100  1.0
  H  H1541  1  0.128000  0.307700  0.671900  1.0
  H  H1542  1  0.872000  0.692300  0.171900  1.0
  H  H1543  1  0.807700  0.372000  0.421900  1.0
  H  H1544  1  0.192300  0.628000  0.921900  1.0
  H  H1545  1  0.344900  0.898900  0.612200  1.0
  H  H1546  1  0.655100  0.101100  0.112200  1.0
  H  H1547  1  0.601100  0.844900  0.862200  1.0
  H  H1548  1  0.398900  0.155100  0.362200  1.0
  H  H1549  1  0.155100  0.398900  0.637800  1.0
  H  H1550  1  0.844900  0.601100  0.137800  1.0
  H  H1551  1  0.898900  0.344900  0.387800  1.0
  H  H1552  1  0.101100  0.655100  0.887800  1.0
  H  H1553  1  0.301300  0.887800  0.601200  1.0
  H  H1554  1  0.698700  0.112200  0.101200  1.0
  H  H1555  1  0.612200  0.801300  0.851200  1.0
  H  H1556  1  0.387800  0.198700  0.351200  1.0
  H  H1557  1  0.198700  0.387800  0.648800  1.0
  H  H1558  1  0.801300  0.612200  0.148800  1.0
  H  H1559  1  0.887800  0.301300  0.398800  1.0
  H  H1560  1  0.112200  0.698700  0.898800  1.0
  H  H1561  1  0.335100  0.935300  0.583300  1.0
  H  H1562  1  0.664900  0.064700  0.083300  1.0
  H  H1563  1  0.564700  0.835100  0.833300  1.0
  H  H1564  1  0.435300  0.164900  0.333300  1.0
  H  H1565  1  0.164900  0.435300  0.666700  1.0
  H  H1566  1  0.835100  0.564700  0.166700  1.0
  H  H1567  1  0.935300  0.335100  0.416700  1.0
  H  H1568  1  0.064700  0.664900  0.916700  1.0
  H  H1569  1  0.383200  0.935300  0.592500  1.0
  H  H1570  1  0.616800  0.064700  0.092500  1.0
  H  H1571  1  0.564700  0.883200  0.842500  1.0
  H  H1572  1  0.435300  0.116800  0.342500  1.0
  H  H1573  1  0.116800  0.435300  0.657500  1.0
  H  H1574  1  0.883200  0.564700  0.157500  1.0
  H  H1575  1  0.935300  0.383200  0.407500  1.0
  H  H1576  1  0.064700  0.616800  0.907500  1.0
  H  H1577  1  0.410100  0.891800  0.572700  1.0
  H  H1578  1  0.589900  0.108200  0.072700  1.0
  H  H1579  1  0.608200  0.910100  0.822700  1.0
  H  H1580  1  0.391800  0.089900  0.322700  1.0
  H  H1581  1  0.089900  0.391800  0.677300  1.0
  H  H1582  1  0.910100  0.608200  0.177300  1.0
  H  H1583  1  0.891800  0.410100  0.427300  1.0
  H  H1584  1  0.108200  0.589900  0.927300  1.0
  H  H1585  1  0.358800  0.879000  0.566900  1.0
  H  H1586  1  0.641200  0.121000  0.066900  1.0
  H  H1587  1  0.621000  0.858800  0.816900  1.0
  H  H1588  1  0.379000  0.141200  0.316900  1.0
  H  H1589  1  0.141200  0.379000  0.683100  1.0
  H  H1590  1  0.858800  0.621000  0.183100  1.0
  H  H1591  1  0.879000  0.358800  0.433100  1.0
  H  H1592  1  0.121000  0.641200  0.933100  1.0
  H  H1593  1  0.431200  0.776600  0.575700  1.0
  H  H1594  1  0.568800  0.223400  0.075700  1.0
  H  H1595  1  0.723400  0.931200  0.825700  1.0
  H  H1596  1  0.276600  0.068800  0.325700  1.0
  H  H1597  1  0.068800  0.276600  0.674300  1.0
  H  H1598  1  0.931200  0.723400  0.174300  1.0
  H  H1599  1  0.776600  0.431200  0.424300  1.0
  H  H1600  1  0.223400  0.568800  0.924300  1.0
  H  H1601  1  0.480800  0.716100  0.570400  1.0
  H  H1602  1  0.519200  0.283900  0.070400  1.0
  H  H1603  1  0.783900  0.980800  0.820400  1.0
  H  H1604  1  0.216100  0.019200  0.320400  1.0
  H  H1605  1  0.019200  0.216100  0.679600  1.0
  H  H1606  1  0.980800  0.783900  0.179600  1.0
  H  H1607  1  0.716100  0.480800  0.429600  1.0
  H  H1608  1  0.283900  0.519200  0.929600  1.0
  H  H1609  1  0.531400  0.841400  0.584500  1.0
  H  H1610  1  0.468600  0.158600  0.084500  1.0
  H  H1611  1  0.658600  0.031400  0.834500  1.0
  H  H1612  1  0.341400  0.968600  0.334500  1.0
  H  H1613  1  0.968600  0.341400  0.665500  1.0
  H  H1614  1  0.031400  0.658600  0.165500  1.0
  H  H1615  1  0.841400  0.531400  0.415500  1.0
  H  H1616  1  0.158600  0.468600  0.915500  1.0
  H  H1617  1  0.606000  0.808900  0.586900  1.0
  H  H1618  1  0.394000  0.191100  0.086900  1.0
  H  H1619  1  0.691100  0.106000  0.836900  1.0
  H  H1620  1  0.308900  0.894000  0.336900  1.0
  H  H1621  1  0.894000  0.308900  0.663100  1.0
  H  H1622  1  0.106000  0.691100  0.163100  1.0
  H  H1623  1  0.808900  0.606000  0.413100  1.0
  H  H1624  1  0.191100  0.394000  0.913100  1.0
  H  H1625  1  0.618000  0.730000  0.581100  1.0
  H  H1626  1  0.382000  0.270000  0.081100  1.0
  H  H1627  1  0.770000  0.118000  0.831100  1.0
  H  H1628  1  0.230000  0.882000  0.331100  1.0
  H  H1629  1  0.882000  0.230000  0.668900  1.0
  H  H1630  1  0.118000  0.770000  0.168900  1.0
  H  H1631  1  0.730000  0.618000  0.418900  1.0
  H  H1632  1  0.270000  0.382000  0.918900  1.0
  C  C1633  1  0.403200  0.075400  0.023100  1
  C  C1634  1  0.596800  0.924600  0.523100  1
  C  C1635  1  0.424600  0.903200  0.273100  1
  C  C1636  1  0.575400  0.096800  0.773100  1
  C  C1637  1  0.096800  0.575400  0.226900  1
  C  C1638  1  0.903200  0.424600  0.726900  1
  C  C1639  1  0.075400  0.403200  0.976900  1
  C  C1640  1  0.924600  0.596800  0.476900  1
  C  C1641  1  0.361200  0.053000  0.019200  1
  C  C1642  1  0.638800  0.947000  0.519200  1
  C  C1643  1  0.447000  0.861200  0.269200  1
  C  C1644  1  0.553000  0.138800  0.769200  1
  C  C1645  1  0.138800  0.553000  0.230800  1
  C  C1646  1  0.861200  0.447000  0.730800  1
  C  C1647  1  0.053000  0.361200  0.980800  1
  C  C1648  1  0.947000  0.638800  0.480800  1
  C  C1649  1  0.357100  0.004600  0.021000  1
  C  C1650  1  0.642900  0.995400  0.521000  1
  C  C1651  1  0.495400  0.857100  0.271000  1
  C  C1652  1  0.504600  0.142900  0.771000  1
  C  C1653  1  0.142900  0.504600  0.229000  1
  C  C1654  1  0.857100  0.495400  0.729000  1
  C  C1655  1  0.004600  0.357100  0.979000  1
  C  C1656  1  0.995400  0.642900  0.479000  1
  C  C1657  1  0.394900  0.978400  0.026600  1
  C  C1658  1  0.605100  0.021600  0.526600  1
  C  C1659  1  0.521600  0.894900  0.276600  1
  C  C1660  1  0.478400  0.105100  0.776600  1
  C  C1661  1  0.105100  0.478400  0.223400  1
  C  C1662  1  0.894900  0.521600  0.723400  1
  C  C1663  1  0.978400  0.394900  0.973400  1
  C  C1664  1  0.021600  0.605100  0.473400  1
  C  C1665  1  0.436900  0.000800  0.030500  1
  C  C1666  1  0.563100  0.999200  0.530500  1
  C  C1667  1  0.499200  0.936900  0.280500  1
  C  C1668  1  0.500800  0.063100  0.780500  1
  C  C1669  1  0.063100  0.500800  0.219500  1
  C  C1670  1  0.936900  0.499200  0.719500  1
  C  C1671  1  0.000800  0.436900  0.969500  1
  C  C1672  1  0.999200  0.563100  0.469500  1
  C  C1673  1  0.322300  0.080500  0.012900  1
  C  C1674  1  0.677700  0.919500  0.512900  1
  C  C1675  1  0.419500  0.822300  0.262900  1
  C  C1676  1  0.580500  0.177700  0.762900  1
  C  C1677  1  0.177700  0.580500  0.237100  1
  C  C1678  1  0.822300  0.419500  0.737100  1
  C  C1679  1  0.080500  0.322300  0.987100  1
  C  C1680  1  0.919500  0.677700  0.487100  1
  C  C1681  1  0.291100  0.150400  0.001100  1
  C  C1682  1  0.708900  0.849600  0.501100  1
  C  C1683  1  0.349600  0.791100  0.251100  1
  C  C1684  1  0.650400  0.208900  0.751100  1
  C  C1685  1  0.208900  0.650400  0.248900  1
  C  C1686  1  0.791100  0.349600  0.748900  1
  C  C1687  1  0.150400  0.291100  0.998900  1
  C  C1688  1  0.849600  0.708900  0.498900  1
  C  C1689  1  0.271100  0.136600  0.986300  1
  C  C1690  1  0.728900  0.863400  0.486300  1
  C  C1691  1  0.363400  0.771100  0.236300  1
  C  C1692  1  0.636600  0.228900  0.736300  1
  C  C1693  1  0.228900  0.636600  0.263700  1
  C  C1694  1  0.771100  0.363400  0.763700  1
  C  C1695  1  0.136600  0.271100  0.013700  1
  C  C1696  1  0.863400  0.728900  0.513700  1
  C  C1697  1  0.309000  0.201500  0.999800  1
  C  C1698  1  0.691000  0.798500  0.499800  1
  C  C1699  1  0.298500  0.809000  0.249800  1
  C  C1700  1  0.701500  0.191000  0.749800  1
  C  C1701  1  0.191000  0.701500  0.250200  1
  C  C1702  1  0.809000  0.298500  0.750200  1
  C  C1703  1  0.201500  0.309000  0.000200  1
  C  C1704  1  0.798500  0.691000  0.500200  1
  C  C1705  1  0.314100  0.221100  0.016800  1
  C  C1706  1  0.685900  0.778900  0.516800  1
  C  C1707  1  0.278900  0.814100  0.266800  1
  C  C1708  1  0.721100  0.185900  0.766800  1
  C  C1709  1  0.185900  0.721100  0.233200  1
  C  C1710  1  0.814100  0.278900  0.733200  1
  C  C1711  1  0.221100  0.314100  0.983200  1
  C  C1712  1  0.778900  0.685900  0.483200  1
  C  C1713  1  0.276800  0.222300  0.027500  1
  C  C1714  1  0.723200  0.777700  0.527500  1
  C  C1715  1  0.277700  0.776800  0.277500  1
  C  C1716  1  0.722300  0.223200  0.777500  1
  C  C1717  1  0.223200  0.722300  0.222500  1
  C  C1718  1  0.776800  0.277700  0.722500  1
  C  C1719  1  0.222300  0.276800  0.972500  1
  C  C1720  1  0.777700  0.723200  0.472500  1
  C  C1721  1  0.284400  0.236800  0.043000  1
  C  C1722  1  0.715600  0.763200  0.543000  1
  C  C1723  1  0.263200  0.784400  0.293000  1
  C  C1724  1  0.736800  0.215600  0.793000  1
  C  C1725  1  0.215600  0.736800  0.207000  1
  C  C1726  1  0.784400  0.263200  0.707000  1
  C  C1727  1  0.236800  0.284400  0.957000  1
  C  C1728  1  0.763200  0.715600  0.457000  1
  C  C1729  1  0.329200  0.250100  0.047900  1
  C  C1730  1  0.670800  0.749900  0.547900  1
  C  C1731  1  0.249900  0.829200  0.297900  1
  C  C1732  1  0.750100  0.170800  0.797900  1
  C  C1733  1  0.170800  0.750100  0.202100  1
  C  C1734  1  0.829200  0.249900  0.702100  1
  C  C1735  1  0.250100  0.329200  0.952100  1
  C  C1736  1  0.749900  0.670800  0.452100  1
  C  C1737  1  0.366500  0.248900  0.037200  1
  C  C1738  1  0.633500  0.751100  0.537200  1
  C  C1739  1  0.251100  0.866500  0.287200  1
  C  C1740  1  0.748900  0.133500  0.787200  1
  C  C1741  1  0.133500  0.748900  0.212800  1
  C  C1742  1  0.866500  0.251100  0.712800  1
  C  C1743  1  0.248900  0.366500  0.962800  1
  C  C1744  1  0.751100  0.633500  0.462800  1
  C  C1745  1  0.358900  0.234400  0.021700  1
  C  C1746  1  0.641100  0.765600  0.521700  1
  C  C1747  1  0.265600  0.858900  0.271700  1
  C  C1748  1  0.734400  0.141100  0.771700  1
  C  C1749  1  0.141100  0.734400  0.228300  1
  C  C1750  1  0.858900  0.265600  0.728300  1
  C  C1751  1  0.234400  0.358900  0.978300  1
  C  C1752  1  0.765600  0.641100  0.478300  1
  C  C1753  1  0.193100  0.125100  0.972300  1
  C  C1754  1  0.806900  0.874900  0.472300  1
  C  C1755  1  0.374900  0.693100  0.222300  1
  C  C1756  1  0.625100  0.306900  0.722300  1
  C  C1757  1  0.306900  0.625100  0.277700  1
  C  C1758  1  0.693100  0.374900  0.777700  1
  C  C1759  1  0.125100  0.193100  0.027700  1
  C  C1760  1  0.874900  0.806900  0.527700  1
  C  C1761  1  0.154700  0.167400  0.971400  1
  C  C1762  1  0.845300  0.832600  0.471400  1
  C  C1763  1  0.332600  0.654700  0.221400  1
  C  C1764  1  0.667400  0.345300  0.721400  1
  C  C1765  1  0.345300  0.667400  0.278600  1
  C  C1766  1  0.654700  0.332600  0.778600  1
  C  C1767  1  0.167400  0.154700  0.028600  1
  C  C1768  1  0.832600  0.845300  0.528600  1
  C  C1769  1  0.165000  0.079200  0.975100  1
  C  C1770  1  0.835000  0.920800  0.475100  1
  C  C1771  1  0.420800  0.665000  0.225100  1
  C  C1772  1  0.579200  0.335000  0.725100  1
  C  C1773  1  0.335000  0.579200  0.274900  1
  C  C1774  1  0.665000  0.420800  0.774900  1
  C  C1775  1  0.079200  0.165000  0.024900  1
  C  C1776  1  0.920800  0.835000  0.524900  1
  C  C1777  1  0.209200  0.047000  0.974200  1
  C  C1778  1  0.790800  0.953000  0.474200  1
  C  C1779  1  0.453000  0.709200  0.224200  1
  C  C1780  1  0.547000  0.290800  0.724200  1
  C  C1781  1  0.290800  0.547000  0.275800  1
  C  C1782  1  0.709200  0.453000  0.775800  1
  C  C1783  1  0.047000  0.209200  0.025800  1
  C  C1784  1  0.953000  0.790800  0.525800  1
  C  C1785  1  0.128200  0.063800  0.963000  1
  C  C1786  1  0.871800  0.936200  0.463000  1
  C  C1787  1  0.436200  0.628200  0.213000  1
  C  C1788  1  0.563800  0.371800  0.713000  1
  C  C1789  1  0.371800  0.563800  0.287000  1
  C  C1790  1  0.628200  0.436200  0.787000  1
  C  C1791  1  0.063800  0.128200  0.037000  1
  C  C1792  1  0.936200  0.871800  0.537000  1
  C  C1793  1  0.106400  0.213300  0.954900  1
  C  C1794  1  0.893600  0.786700  0.454900  1
  C  C1795  1  0.286700  0.606400  0.204900  1
  C  C1796  1  0.713300  0.393600  0.704900  1
  C  C1797  1  0.393600  0.713300  0.295100  1
  C  C1798  1  0.606400  0.286700  0.795100  1
  C  C1799  1  0.213300  0.106400  0.045100  1
  C  C1800  1  0.786700  0.893600  0.545100  1
  C  C1801  1  0.057100  0.189000  0.956200  1
  C  C1802  1  0.942900  0.811000  0.456200  1
  C  C1803  1  0.311000  0.557100  0.206200  1
  C  C1804  1  0.689000  0.442900  0.706200  1
  C  C1805  1  0.442900  0.689000  0.293800  1
  C  C1806  1  0.557100  0.311000  0.793800  1
  C  C1807  1  0.189000  0.057100  0.043800  1
  C  C1808  1  0.811000  0.942900  0.543800  1
  C  C1809  1  0.108400  0.235300  0.938200  1
  C  C1810  1  0.891600  0.764700  0.438200  1
  C  C1811  1  0.264700  0.608400  0.188200  1
  C  C1812  1  0.735300  0.391600  0.688200  1
  C  C1813  1  0.391600  0.735300  0.311800  1
  C  C1814  1  0.608400  0.264700  0.811800  1
  C  C1815  1  0.235300  0.108400  0.061800  1
  C  C1816  1  0.764700  0.891600  0.561800  1
  C  C1817  1  0.079200  0.282900  0.936600  1
  C  C1818  1  0.920800  0.717100  0.436600  1
  C  C1819  1  0.217100  0.579200  0.186600  1
  C  C1820  1  0.782900  0.420800  0.686600  1
  C  C1821  1  0.420800  0.782900  0.313400  1
  C  C1822  1  0.579200  0.217100  0.813400  1
  C  C1823  1  0.282900  0.079200  0.063400  1
  C  C1824  1  0.717100  0.920800  0.563400  1
  C  C1825  1  0.095100  0.327700  0.940500  1
  C  C1826  1  0.904900  0.672300  0.440500  1
  C  C1827  1  0.172300  0.595100  0.190500  1
  C  C1828  1  0.827700  0.404900  0.690500  1
  C  C1829  1  0.404900  0.827700  0.309500  1
  C  C1830  1  0.595100  0.172300  0.809500  1
  C  C1831  1  0.327700  0.095100  0.059500  1
  C  C1832  1  0.672300  0.904900  0.559500  1
  C  C1833  1  0.064900  0.366100  0.939300  1
  C  C1834  1  0.935100  0.633900  0.439300  1
  C  C1835  1  0.133900  0.564900  0.189300  1
  C  C1836  1  0.866100  0.435100  0.689300  1
  C  C1837  1  0.435100  0.866100  0.310700  1
  C  C1838  1  0.564900  0.133900  0.810700  1
  C  C1839  1  0.366100  0.064900  0.060700  1
  C  C1840  1  0.633900  0.935100  0.560700  1
  C  C1841  1  0.018800  0.359600  0.934200  1
  C  C1842  1  0.981200  0.640400  0.434200  1
  C  C1843  1  0.140400  0.518800  0.184200  1
  C  C1844  1  0.859600  0.481200  0.684200  1
  C  C1845  1  0.481200  0.859600  0.315800  1
  C  C1846  1  0.518800  0.140400  0.815800  1
  C  C1847  1  0.359600  0.018800  0.065800  1
  C  C1848  1  0.640400  0.981200  0.565800  1
  C  C1849  1  0.002900  0.314800  0.930300  1
  C  C1850  1  0.997100  0.685200  0.430300  1
  C  C1851  1  0.185200  0.502900  0.180300  1
  C  C1852  1  0.814800  0.497100  0.680300  1
  C  C1853  1  0.497100  0.814800  0.319700  1
  C  C1854  1  0.502900  0.185200  0.819700  1
  C  C1855  1  0.314800  0.002900  0.069700  1
  C  C1856  1  0.685200  0.997100  0.569700  1
  C  C1857  1  0.033100  0.276500  0.931400  1
  C  C1858  1  0.966900  0.723500  0.431400  1
  C  C1859  1  0.223500  0.533100  0.181400  1
  C  C1860  1  0.776500  0.466900  0.681400  1
  C  C1861  1  0.466900  0.776500  0.318600  1
  C  C1862  1  0.533100  0.223500  0.818600  1
  C  C1863  1  0.276500  0.033100  0.068600  1
  C  C1864  1  0.723500  0.966900  0.568600  1
  C  C1865  1  0.977900  0.190100  0.967300  1
  C  C1866  1  0.022100  0.809900  0.467300  1
  C  C1867  1  0.309900  0.477900  0.217300  1
  C  C1868  1  0.690100  0.522100  0.717300  1
  C  C1869  1  0.522100  0.690100  0.282700  1
  C  C1870  1  0.477900  0.309900  0.782700  1
  C  C1871  1  0.190100  0.977900  0.032700  1
  C  C1872  1  0.809900  0.022100  0.532700  1
  C  C1873  1  0.949000  0.231000  0.964600  1
  C  C1874  1  0.051000  0.769000  0.464600  1
  C  C1875  1  0.269000  0.449000  0.214600  1
  C  C1876  1  0.731000  0.551000  0.714600  1
  C  C1877  1  0.551000  0.731000  0.285400  1
  C  C1878  1  0.449000  0.269000  0.785400  1
  C  C1879  1  0.231000  0.949000  0.035400  1
  C  C1880  1  0.769000  0.051000  0.535400  1
  C  C1881  1  0.974200  0.162000  0.982600  1
  C  C1882  1  0.025800  0.838000  0.482600  1
  C  C1883  1  0.338000  0.474200  0.232600  1
  C  C1884  1  0.662000  0.525800  0.732600  1
  C  C1885  1  0.525800  0.662000  0.267400  1
  C  C1886  1  0.474200  0.338000  0.767400  1
  C  C1887  1  0.162000  0.974200  0.017400  1
  C  C1888  1  0.838000  0.025800  0.517400  1
  C  C1889  1  0.016100  0.129100  0.985400  1
  C  C1890  1  0.983900  0.870900  0.485400  1
  C  C1891  1  0.370900  0.516100  0.235400  1
  C  C1892  1  0.629100  0.483900  0.735400  1
  C  C1893  1  0.483900  0.629100  0.264600  1
  C  C1894  1  0.516100  0.370900  0.764600  1
  C  C1895  1  0.129100  0.016100  0.014600  1
  C  C1896  1  0.870900  0.983900  0.514600  1
  C  C1897  1  0.929100  0.138600  0.988700  1
  C  C1898  1  0.070900  0.861400  0.488700  1
  C  C1899  1  0.361400  0.429100  0.238700  1
  C  C1900  1  0.638600  0.570900  0.738700  1
  C  C1901  1  0.570900  0.638600  0.261300  1
  C  C1902  1  0.429100  0.361400  0.761300  1
  C  C1903  1  0.138600  0.929100  0.011300  1
  C  C1904  1  0.861400  0.070900  0.511300  1
  C  C1905  1  0.870000  0.247000  0.956700  1
  C  C1906  1  0.130000  0.753000  0.456700  1
  C  C1907  1  0.253000  0.370000  0.206700  1
  C  C1908  1  0.747000  0.630000  0.706700  1
  C  C1909  1  0.630000  0.747000  0.293300  1
  C  C1910  1  0.370000  0.253000  0.793300  1
  C  C1911  1  0.247000  0.870000  0.043300  1
  C  C1912  1  0.753000  0.130000  0.543300  1
  C  C1913  1  0.871000  0.294000  0.958300  1
  C  C1914  1  0.129000  0.706000  0.458300  1
  C  C1915  1  0.206000  0.371000  0.208300  1
  C  C1916  1  0.794000  0.629000  0.708300  1
  C  C1917  1  0.629000  0.794000  0.291700  1
  C  C1918  1  0.371000  0.206000  0.791700  1
  C  C1919  1  0.294000  0.871000  0.041700  1
  C  C1920  1  0.706000  0.129000  0.541700  1
  C  C1921  1  0.828000  0.324000  0.961900  1
  C  C1922  1  0.172000  0.676000  0.461900  1
  C  C1923  1  0.176000  0.328000  0.211900  1
  C  C1924  1  0.824000  0.672000  0.711900  1
  C  C1925  1  0.672000  0.824000  0.288100  1
  C  C1926  1  0.328000  0.176000  0.788100  1
  C  C1927  1  0.324000  0.828000  0.038100  1
  C  C1928  1  0.676000  0.172000  0.538100  1
  C  C1929  1  0.780900  0.298000  0.957800  1
  C  C1930  1  0.219100  0.702000  0.457800  1
  C  C1931  1  0.202000  0.280900  0.207800  1
  C  C1932  1  0.798000  0.719100  0.707800  1
  C  C1933  1  0.719100  0.798000  0.292200  1
  C  C1934  1  0.280900  0.202000  0.792200  1
  C  C1935  1  0.298000  0.780900  0.042200  1
  C  C1936  1  0.702000  0.219100  0.542200  1
  C  C1937  1  0.784000  0.248000  0.956200  1
  C  C1938  1  0.216000  0.752000  0.456200  1
  C  C1939  1  0.252000  0.284000  0.206200  1
  C  C1940  1  0.748000  0.716000  0.706200  1
  C  C1941  1  0.716000  0.748000  0.293800  1
  C  C1942  1  0.284000  0.252000  0.793800  1
  C  C1943  1  0.248000  0.784000  0.043800  1
  C  C1944  1  0.752000  0.216000  0.543800  1
  C  C1945  1  0.823000  0.226100  0.957300  1
  C  C1946  1  0.177000  0.773900  0.457300  1
  C  C1947  1  0.273900  0.323000  0.207300  1
  C  C1948  1  0.726100  0.677000  0.707300  1
  C  C1949  1  0.677000  0.726100  0.292700  1
  C  C1950  1  0.323000  0.273900  0.792700  1
  C  C1951  1  0.226100  0.823000  0.042700  1
  C  C1952  1  0.773900  0.177000  0.542700  1
  C  C1953  1  0.738300  0.219100  0.955500  1
  C  C1954  1  0.261700  0.780900  0.455500  1
  C  C1955  1  0.280900  0.238300  0.205500  1
  C  C1956  1  0.719100  0.761700  0.705500  1
  C  C1957  1  0.761700  0.719100  0.294500  1
  C  C1958  1  0.238300  0.280900  0.794500  1
  C  C1959  1  0.219100  0.738300  0.044500  1
  C  C1960  1  0.780900  0.261700  0.544500  1
  C  C1961  1  0.663900  0.199800  0.964500  1
  C  C1962  1  0.336100  0.800200  0.464500  1
  C  C1963  1  0.300200  0.163900  0.214500  1
  C  C1964  1  0.699800  0.836100  0.714500  1
  C  C1965  1  0.836100  0.699800  0.285500  1
  C  C1966  1  0.163900  0.300200  0.785500  1
  C  C1967  1  0.199800  0.663900  0.035500  1
  C  C1968  1  0.800200  0.336100  0.535500  1
  C  C1969  1  0.645300  0.200000  0.947700  1
  C  C1970  1  0.354700  0.800000  0.447700  1
  C  C1971  1  0.300000  0.145300  0.197700  1
  C  C1972  1  0.700000  0.854700  0.697700  1
  C  C1973  1  0.854700  0.700000  0.302300  1
  C  C1974  1  0.145300  0.300000  0.802300  1
  C  C1975  1  0.200000  0.645300  0.052300  1
  C  C1976  1  0.800000  0.354700  0.552300  1
  C  C1977  1  0.690000  0.273200  0.973800  1
  C  C1978  1  0.310000  0.726800  0.473800  1
  C  C1979  1  0.226800  0.190000  0.223800  1
  C  C1980  1  0.773200  0.810000  0.723800  1
  C  C1981  1  0.810000  0.773200  0.276200  1
  C  C1982  1  0.190000  0.226800  0.776200  1
  C  C1983  1  0.273200  0.690000  0.026200  1
  C  C1984  1  0.726800  0.310000  0.526200  1
  C  C1985  1  0.651000  0.260000  0.985600  1
  C  C1986  1  0.349000  0.740000  0.485600  1
  C  C1987  1  0.240000  0.151000  0.235600  1
  C  C1988  1  0.760000  0.849000  0.735600  1
  C  C1989  1  0.849000  0.760000  0.264400  1
  C  C1990  1  0.151000  0.240000  0.764400  1
  C  C1991  1  0.260000  0.651000  0.014400  1
  C  C1992  1  0.740000  0.349000  0.514400  1
  C  C1993  1  0.626000  0.232000  0.972400  1
  C  C1994  1  0.374000  0.768000  0.472400  1
  C  C1995  1  0.268000  0.126000  0.222400  1
  C  C1996  1  0.732000  0.874000  0.722400  1
  C  C1997  1  0.874000  0.732000  0.277600  1
  C  C1998  1  0.126000  0.268000  0.777600  1
  C  C1999  1  0.232000  0.626000  0.027600  1
  C  C2000  1  0.768000  0.374000  0.527600  1
  C  C2001  1  0.608400  0.145100  0.928200  1
  C  C2002  1  0.391600  0.854900  0.428200  1
  C  C2003  1  0.354900  0.108400  0.178200  1
  C  C2004  1  0.645100  0.891600  0.678200  1
  C  C2005  1  0.891600  0.645100  0.321800  1
  C  C2006  1  0.108400  0.354900  0.821800  1
  C  C2007  1  0.145100  0.608400  0.071800  1
  C  C2008  1  0.854900  0.391600  0.571800  1
  C  C2009  1  0.552700  0.127100  0.933600  1
  C  C2010  1  0.447300  0.872900  0.433600  1
  C  C2011  1  0.372900  0.052700  0.183600  1
  C  C2012  1  0.627100  0.947300  0.683600  1
  C  C2013  1  0.947300  0.627100  0.316400  1
  C  C2014  1  0.052700  0.372900  0.816400  1
  C  C2015  1  0.127100  0.552700  0.066400  1
  C  C2016  1  0.872900  0.447300  0.566400  1
  C  C2017  1  0.485000  0.088000  0.926800  1
  C  C2018  1  0.515000  0.912000  0.426800  1
  C  C2019  1  0.412000  0.985000  0.176800  1
  C  C2020  1  0.588000  0.015000  0.676800  1
  C  C2021  1  0.015000  0.588000  0.323200  1
  C  C2022  1  0.985000  0.412000  0.823200  1
  C  C2023  1  0.088000  0.485000  0.073200  1
  C  C2024  1  0.912000  0.515000  0.573200  1
  C  C2025  1  0.481000  0.053900  0.939900  1
  C  C2026  1  0.519000  0.946100  0.439900  1
  C  C2027  1  0.446100  0.981000  0.189900  1
  C  C2028  1  0.553900  0.019000  0.689900  1
  C  C2029  1  0.019000  0.553900  0.310100  1
  C  C2030  1  0.981000  0.446100  0.810100  1
  C  C2031  1  0.053900  0.481000  0.060100  1
  C  C2032  1  0.946100  0.519000  0.560100  1
  C  C2033  1  0.549900  0.082500  0.907700  1
  C  C2034  1  0.450100  0.917500  0.407700  1
  C  C2035  1  0.417500  0.049900  0.157700  1
  C  C2036  1  0.582500  0.950100  0.657700  1
  C  C2037  1  0.950100  0.582500  0.342300  1
  C  C2038  1  0.049900  0.417500  0.842300  1
  C  C2039  1  0.082500  0.549900  0.092300  1
  C  C2040  1  0.917500  0.450100  0.592300  1
  C  C2041  1  0.507200  0.067300  0.898200  1
  C  C2042  1  0.492800  0.932700  0.398200  1
  C  C2043  1  0.432700  0.007200  0.148200  1
  C  C2044  1  0.567300  0.992800  0.648200  1
  C  C2045  1  0.992800  0.567300  0.351800  1
  C  C2046  1  0.007200  0.432700  0.851800  1
  C  C2047  1  0.067300  0.507200  0.101800  1
  C  C2048  1  0.932700  0.492800  0.601800  1
  C  C2049  1  0.469400  0.064000  0.911300  1
  C  C2050  1  0.530600  0.936000  0.411300  1
  C  C2051  1  0.436000  0.969400  0.161300  1
  C  C2052  1  0.564000  0.030600  0.661300  1
  C  C2053  1  0.030600  0.564000  0.338700  1
  C  C2054  1  0.969400  0.436000  0.838700  1
  C  C2055  1  0.064000  0.469400  0.088700  1
  C  C2056  1  0.936000  0.530600  0.588700  1
  C  C2057  1  0.435900  0.987400  0.964800  1
  C  C2058  1  0.564100  0.012600  0.464800  1
  C  C2059  1  0.512600  0.935900  0.214800  1
  C  C2060  1  0.487400  0.064100  0.714800  1
  C  C2061  1  0.064100  0.487400  0.285200  1
  C  C2062  1  0.935900  0.512600  0.785200  1
  C  C2063  1  0.987400  0.435900  0.035200  1
  C  C2064  1  0.012600  0.564100  0.535200  1
  C  C2065  1  0.419100  0.032300  0.961400  1
  C  C2066  1  0.580900  0.967700  0.461400  1
  C  C2067  1  0.467700  0.919100  0.211400  1
  C  C2068  1  0.532300  0.080900  0.711400  1
  C  C2069  1  0.080900  0.532300  0.288600  1
  C  C2070  1  0.919100  0.467700  0.788600  1
  C  C2071  1  0.032300  0.419100  0.038600  1
  C  C2072  1  0.967700  0.580900  0.538600  1
  C  C2073  1  0.377700  0.048100  0.968400  1
  C  C2074  1  0.622300  0.951900  0.468400  1
  C  C2075  1  0.451900  0.877700  0.218400  1
  C  C2076  1  0.548100  0.122300  0.718400  1
  C  C2077  1  0.122300  0.548100  0.281600  1
  C  C2078  1  0.877700  0.451900  0.781600  1
  C  C2079  1  0.048100  0.377700  0.031600  1
  C  C2080  1  0.951900  0.622300  0.531600  1
  C  C2081  1  0.353100  0.019200  0.978800  1
  C  C2082  1  0.646900  0.980800  0.478800  1
  C  C2083  1  0.480800  0.853100  0.228800  1
  C  C2084  1  0.519200  0.146900  0.728800  1
  C  C2085  1  0.146900  0.519200  0.271200  1
  C  C2086  1  0.853100  0.480800  0.771200  1
  C  C2087  1  0.019200  0.353100  0.021200  1
  C  C2088  1  0.980800  0.646900  0.521200  1
  C  C2089  1  0.369900  0.974400  0.982200  1
  C  C2090  1  0.630100  0.025600  0.482200  1
  C  C2091  1  0.525600  0.869900  0.232200  1
  C  C2092  1  0.474400  0.130100  0.732200  1
  C  C2093  1  0.130100  0.474400  0.267800  1
  C  C2094  1  0.869900  0.525600  0.767800  1
  C  C2095  1  0.974400  0.369900  0.017800  1
  C  C2096  1  0.025600  0.630100  0.517800  1
  C  C2097  1  0.516800  0.913800  0.007700  1
  C  C2098  1  0.483200  0.086200  0.507700  1
  C  C2099  1  0.586200  0.016800  0.257700  1
  C  C2100  1  0.413800  0.983200  0.757700  1
  C  C2101  1  0.983200  0.413800  0.242300  1
  C  C2102  1  0.016800  0.586200  0.742300  1
  C  C2103  1  0.913800  0.516800  0.992300  1
  C  C2104  1  0.086200  0.483200  0.492300  1
  C  C2105  1  0.561900  0.925500  0.012800  1
  C  C2106  1  0.438100  0.074500  0.512800  1
  C  C2107  1  0.574500  0.061900  0.262800  1
  C  C2108  1  0.425500  0.938100  0.762800  1
  C  C2109  1  0.938100  0.425500  0.237200  1
  C  C2110  1  0.061900  0.574500  0.737200  1
  C  C2111  1  0.925500  0.561900  0.987200  1
  C  C2112  1  0.074500  0.438100  0.487200  1
  C  C2113  1  0.596500  0.936900  0.001800  1
  C  C2114  1  0.403500  0.063100  0.501800  1
  C  C2115  1  0.563100  0.096500  0.251800  1
  C  C2116  1  0.436900  0.903500  0.751800  1
  C  C2117  1  0.903500  0.436900  0.248200  1
  C  C2118  1  0.096500  0.563100  0.748200  1
  C  C2119  1  0.936900  0.596500  0.998200  1
  C  C2120  1  0.063100  0.403500  0.498200  1
  C  C2121  1  0.586000  0.936700  0.985700  1
  C  C2122  1  0.414000  0.063300  0.485700  1
  C  C2123  1  0.563300  0.086000  0.235700  1
  C  C2124  1  0.436700  0.914000  0.735700  1
  C  C2125  1  0.914000  0.436700  0.264300  1
  C  C2126  1  0.086000  0.563300  0.764300  1
  C  C2127  1  0.936700  0.586000  0.014300  1
  C  C2128  1  0.063300  0.414000  0.514300  1
  C  C2129  1  0.541000  0.925000  0.980600  1
  C  C2130  1  0.459000  0.075000  0.480600  1
  C  C2131  1  0.575000  0.041000  0.230600  1
  C  C2132  1  0.425000  0.959000  0.730600  1
  C  C2133  1  0.959000  0.425000  0.269400  1
  C  C2134  1  0.041000  0.575000  0.769400  1
  C  C2135  1  0.925000  0.541000  0.019400  1
  C  C2136  1  0.075000  0.459000  0.519400  1
  C  C2137  1  0.621900  0.953400  0.974500  1
  C  C2138  1  0.378100  0.046600  0.474500  1
  C  C2139  1  0.546600  0.121900  0.224500  1
  C  C2140  1  0.453400  0.878100  0.724500  1
  C  C2141  1  0.878100  0.453400  0.275500  1
  C  C2142  1  0.121900  0.546600  0.775500  1
  C  C2143  1  0.953400  0.621900  0.025500  1
  C  C2144  1  0.046600  0.378100  0.525500  1
  C  C2145  1  0.645500  0.980200  0.948700  1
  C  C2146  1  0.354500  0.019800  0.448700  1
  C  C2147  1  0.519800  0.145500  0.198700  1
  C  C2148  1  0.480200  0.854500  0.698700  1
  C  C2149  1  0.854500  0.480200  0.301300  1
  C  C2150  1  0.145500  0.519800  0.801300  1
  C  C2151  1  0.980200  0.645500  0.051300  1
  C  C2152  1  0.019800  0.354500  0.551300  1
  C  C2153  1  0.670700  0.026600  0.952700  1
  C  C2154  1  0.329300  0.973400  0.452700  1
  C  C2155  1  0.473400  0.170700  0.202700  1
  C  C2156  1  0.526600  0.829300  0.702700  1
  C  C2157  1  0.829300  0.526600  0.297300  1
  C  C2158  1  0.170700  0.473400  0.797300  1
  C  C2159  1  0.026600  0.670700  0.047300  1
  C  C2160  1  0.973400  0.329300  0.547300  1
  C  C2161  1  0.627100  0.976100  0.933300  1
  C  C2162  1  0.372900  0.023900  0.433300  1
  C  C2163  1  0.523900  0.127100  0.183300  1
  C  C2164  1  0.476100  0.872900  0.683300  1
  C  C2165  1  0.872900  0.476100  0.316700  1
  C  C2166  1  0.127100  0.523900  0.816700  1
  C  C2167  1  0.976100  0.627100  0.066700  1
  C  C2168  1  0.023900  0.372900  0.566700  1
  C  C2169  1  0.613500  0.928100  0.929400  1
  C  C2170  1  0.386500  0.071900  0.429400  1
  C  C2171  1  0.571900  0.113500  0.179400  1
  C  C2172  1  0.428100  0.886500  0.679400  1
  C  C2173  1  0.886500  0.428100  0.320600  1
  C  C2174  1  0.113500  0.571900  0.820600  1
  C  C2175  1  0.928100  0.613500  0.070600  1
  C  C2176  1  0.071900  0.386500  0.570600  1
  C  C2177  1  0.567400  0.911600  0.930100  1
  C  C2178  1  0.432600  0.088400  0.430100  1
  C  C2179  1  0.588400  0.067400  0.180100  1
  C  C2180  1  0.411600  0.932600  0.680100  1
  C  C2181  1  0.932600  0.411600  0.319900  1
  C  C2182  1  0.067400  0.588400  0.819900  1
  C  C2183  1  0.911600  0.567400  0.069900  1
  C  C2184  1  0.088400  0.432600  0.569900  1
  C  C2185  1  0.557400  0.865500  0.925600  1
  C  C2186  1  0.442600  0.134500  0.425600  1
  C  C2187  1  0.634500  0.057400  0.175600  1
  C  C2188  1  0.365500  0.942600  0.675600  1
  C  C2189  1  0.942600  0.365500  0.324400  1
  C  C2190  1  0.057400  0.634500  0.824400  1
  C  C2191  1  0.865500  0.557400  0.074400  1
  C  C2192  1  0.134500  0.442600  0.574400  1
  C  C2193  1  0.593400  0.836000  0.920500  1
  C  C2194  1  0.406600  0.164000  0.420500  1
  C  C2195  1  0.664000  0.093400  0.170500  1
  C  C2196  1  0.336000  0.906600  0.670500  1
  C  C2197  1  0.906600  0.336000  0.329500  1
  C  C2198  1  0.093400  0.664000  0.829500  1
  C  C2199  1  0.836000  0.593400  0.079500  1
  C  C2200  1  0.164000  0.406600  0.579500  1
  C  C2201  1  0.639400  0.852600  0.919800  1
  C  C2202  1  0.360600  0.147400  0.419800  1
  C  C2203  1  0.647400  0.139400  0.169800  1
  C  C2204  1  0.352600  0.860600  0.669800  1
  C  C2205  1  0.860600  0.352600  0.330200  1
  C  C2206  1  0.139400  0.647400  0.830200  1
  C  C2207  1  0.852600  0.639400  0.080200  1
  C  C2208  1  0.147400  0.360600  0.580200  1
  C  C2209  1  0.649400  0.898600  0.924200  1
  C  C2210  1  0.350600  0.101400  0.424200  1
  C  C2211  1  0.601400  0.149400  0.174200  1
  C  C2212  1  0.398600  0.850600  0.674200  1
  C  C2213  1  0.850600  0.398600  0.325800  1
  C  C2214  1  0.149400  0.601400  0.825800  1
  C  C2215  1  0.898600  0.649400  0.075800  1
  C  C2216  1  0.101400  0.350600  0.575800  1
  C  C2217  1  0.750600  0.067900  0.953100  1
  C  C2218  1  0.249400  0.932100  0.453100  1
  C  C2219  1  0.432100  0.250600  0.203100  1
  C  C2220  1  0.567900  0.749400  0.703100  1
  C  C2221  1  0.749400  0.567900  0.296900  1
  C  C2222  1  0.250600  0.432100  0.796900  1
  C  C2223  1  0.067900  0.750600  0.046900  1
  C  C2224  1  0.932100  0.249400  0.546900  1
  C  C2225  1  0.786400  0.064200  0.941300  1
  C  C2226  1  0.213600  0.935800  0.441300  1
  C  C2227  1  0.435800  0.286400  0.191300  1
  C  C2228  1  0.564200  0.713600  0.691300  1
  C  C2229  1  0.713600  0.564200  0.308700  1
  C  C2230  1  0.286400  0.435800  0.808700  1
  C  C2231  1  0.064200  0.786400  0.058700  1
  C  C2232  1  0.935800  0.213600  0.558700  1
  C  C2233  1  0.771300  0.060400  0.969700  1
  C  C2234  1  0.228700  0.939600  0.469700  1
  C  C2235  1  0.439600  0.271300  0.219700  1
  C  C2236  1  0.560400  0.728700  0.719700  1
  C  C2237  1  0.728700  0.560400  0.280300  1
  C  C2238  1  0.271300  0.439600  0.780300  1
  C  C2239  1  0.060400  0.771300  0.030300  1
  C  C2240  1  0.939600  0.228700  0.530300  1
  C  C2241  1  0.737200  0.059500  0.983800  1
  C  C2242  1  0.262800  0.940500  0.483800  1
  C  C2243  1  0.440500  0.237200  0.233800  1
  C  C2244  1  0.559500  0.762800  0.733800  1
  C  C2245  1  0.762800  0.559500  0.266200  1
  C  C2246  1  0.237200  0.440500  0.766200  1
  C  C2247  1  0.059500  0.737200  0.016200  1
  C  C2248  1  0.940500  0.262800  0.516200  1
  C  C2249  1  0.800000  0.101000  0.976300  1
  C  C2250  1  0.200000  0.899000  0.476300  1
  C  C2251  1  0.399000  0.300000  0.226300  1
  C  C2252  1  0.601000  0.700000  0.726300  1
  C  C2253  1  0.700000  0.601000  0.273700  1
  C  C2254  1  0.300000  0.399000  0.773700  1
  C  C2255  1  0.101000  0.800000  0.023700  1
  C  C2256  1  0.899000  0.200000  0.523700  1
  C  C2257  1  0.836300  0.118000  0.924700  1
  C  C2258  1  0.163700  0.882000  0.424700  1
  C  C2259  1  0.382000  0.336300  0.174700  1
  C  C2260  1  0.618000  0.663700  0.674700  1
  C  C2261  1  0.663700  0.618000  0.325300  1
  C  C2262  1  0.336300  0.382000  0.825300  1
  C  C2263  1  0.118000  0.836300  0.075300  1
  C  C2264  1  0.882000  0.163700  0.575300  1
  C  C2265  1  0.886000  0.110500  0.932300  1
  C  C2266  1  0.114000  0.889500  0.432300  1
  C  C2267  1  0.389500  0.386000  0.182300  1
  C  C2268  1  0.610500  0.614000  0.682300  1
  C  C2269  1  0.614000  0.610500  0.317700  1
  C  C2270  1  0.386000  0.389500  0.817700  1
  C  C2271  1  0.110500  0.886000  0.067700  1
  C  C2272  1  0.889500  0.114000  0.567700  1
  C  C2273  1  0.830500  0.169200  0.919000  1
  C  C2274  1  0.169500  0.830800  0.419000  1
  C  C2275  1  0.330800  0.330500  0.169000  1
  C  C2276  1  0.669200  0.669500  0.669000  1
  C  C2277  1  0.669500  0.669200  0.331000  1
  C  C2278  1  0.330500  0.330800  0.831000  1
  C  C2279  1  0.169200  0.830500  0.081000  1
  C  C2280  1  0.830800  0.169500  0.581000  1
  C  C2281  1  0.865300  0.172900  0.903500  1
  C  C2282  1  0.134700  0.827100  0.403500  1
  C  C2283  1  0.327100  0.365300  0.153500  1
  C  C2284  1  0.672900  0.634700  0.653500  1
  C  C2285  1  0.634700  0.672900  0.346500  1
  C  C2286  1  0.365300  0.327100  0.846500  1
  C  C2287  1  0.172900  0.865300  0.096500  1
  C  C2288  1  0.827100  0.134700  0.596500  1
  C  C2289  1  0.862100  0.160500  0.887600  1
  C  C2290  1  0.137900  0.839500  0.387600  1
  C  C2291  1  0.339500  0.362100  0.137600  1
  C  C2292  1  0.660500  0.637900  0.637600  1
  C  C2293  1  0.637900  0.660500  0.362400  1
  C  C2294  1  0.362100  0.339500  0.862400  1
  C  C2295  1  0.160500  0.862100  0.112400  1
  C  C2296  1  0.839500  0.137900  0.612400  1
  C  C2297  1  0.899900  0.168400  0.877500  1
  C  C2298  1  0.100100  0.831600  0.377500  1
  C  C2299  1  0.331600  0.399900  0.127500  1
  C  C2300  1  0.668400  0.600100  0.627500  1
  C  C2301  1  0.600100  0.668400  0.372500  1
  C  C2302  1  0.399900  0.331600  0.872500  1
  C  C2303  1  0.168400  0.899900  0.122500  1
  C  C2304  1  0.831600  0.100100  0.622500  1
  C  C2305  1  0.941000  0.188700  0.883300  1
  C  C2306  1  0.059000  0.811300  0.383300  1
  C  C2307  1  0.311300  0.441000  0.133300  1
  C  C2308  1  0.688700  0.559000  0.633300  1
  C  C2309  1  0.559000  0.688700  0.366700  1
  C  C2310  1  0.441000  0.311300  0.866700  1
  C  C2311  1  0.188700  0.941000  0.116700  1
  C  C2312  1  0.811300  0.059000  0.616700  1
  C  C2313  1  0.944200  0.201100  0.899200  1
  C  C2314  1  0.055800  0.798900  0.399200  1
  C  C2315  1  0.298900  0.444200  0.149200  1
  C  C2316  1  0.701100  0.555800  0.649200  1
  C  C2317  1  0.555800  0.701100  0.350800  1
  C  C2318  1  0.444200  0.298900  0.850800  1
  C  C2319  1  0.201100  0.944200  0.100800  1
  C  C2320  1  0.798900  0.055800  0.600800  1
  C  C2321  1  0.906400  0.193200  0.909300  1
  C  C2322  1  0.093600  0.806800  0.409300  1
  C  C2323  1  0.306800  0.406400  0.159300  1
  C  C2324  1  0.693200  0.593600  0.659300  1
  C  C2325  1  0.593600  0.693200  0.340700  1
  C  C2326  1  0.406400  0.306800  0.840700  1
  C  C2327  1  0.193200  0.906400  0.090700  1
  C  C2328  1  0.806800  0.093600  0.590700  1
  C  C2329  1  0.960500  0.076900  0.930500  1
  C  C2330  1  0.039500  0.923100  0.430500  1
  C  C2331  1  0.423100  0.460500  0.180500  1
  C  C2332  1  0.576900  0.539500  0.680500  1
  C  C2333  1  0.539500  0.576900  0.319500  1
  C  C2334  1  0.460500  0.423100  0.819500  1
  C  C2335  1  0.076900  0.960500  0.069500  1
  C  C2336  1  0.923100  0.039500  0.569500  1
  C  C2337  1  0.993300  0.075300  0.917800  1
  C  C2338  1  0.006700  0.924700  0.417800  1
  C  C2339  1  0.424700  0.493300  0.167800  1
  C  C2340  1  0.575300  0.506700  0.667800  1
  C  C2341  1  0.506700  0.575300  0.332200  1
  C  C2342  1  0.493300  0.424700  0.832200  1
  C  C2343  1  0.075300  0.993300  0.082200  1
  C  C2344  1  0.924700  0.006700  0.582200  1
  C  C2345  1  0.966900  0.026900  0.937200  1
  C  C2346  1  0.033100  0.973100  0.437200  1
  C  C2347  1  0.473100  0.466900  0.187200  1
  C  C2348  1  0.526900  0.533100  0.687200  1
  C  C2349  1  0.533100  0.526900  0.312800  1
  C  C2350  1  0.466900  0.473100  0.812800  1
  C  C2351  1  0.026900  0.966900  0.062800  1
  C  C2352  1  0.973100  0.033100  0.562800  1
  C  C2353  1  0.018700  0.016400  0.942000  1
  C  C2354  1  0.981300  0.983600  0.442000  1
  C  C2355  1  0.483600  0.518700  0.192000  1
  C  C2356  1  0.516400  0.481300  0.692000  1
  C  C2357  1  0.481300  0.516400  0.308000  1
  C  C2358  1  0.518700  0.483600  0.808000  1
  C  C2359  1  0.016400  0.018700  0.058000  1
  C  C2360  1  0.983600  0.981300  0.558000  1
  C  C2361  1  0.933600  0.021200  0.951100  1
  C  C2362  1  0.066400  0.978800  0.451100  1
  C  C2363  1  0.478800  0.433600  0.201100  1
  C  C2364  1  0.521200  0.566400  0.701100  1
  C  C2365  1  0.566400  0.521200  0.298900  1
  C  C2366  1  0.433600  0.478800  0.798900  1
  C  C2367  1  0.021200  0.933600  0.048900  1
  C  C2368  1  0.978800  0.066400  0.548900  1
  C  C2369  1  0.073100  0.112300  0.910000  1
  C  C2370  1  0.926900  0.887700  0.410000  1
  C  C2371  1  0.387700  0.573100  0.160000  1
  C  C2372  1  0.612300  0.426900  0.660000  1
  C  C2373  1  0.426900  0.612300  0.340000  1
  C  C2374  1  0.573100  0.387700  0.840000  1
  C  C2375  1  0.112300  0.073100  0.090000  1
  C  C2376  1  0.887700  0.926900  0.590000  1
  C  C2377  1  0.071200  0.119700  0.893800  1
  C  C2378  1  0.928800  0.880300  0.393800  1
  C  C2379  1  0.380300  0.571200  0.143800  1
  C  C2380  1  0.619700  0.428800  0.643800  1
  C  C2381  1  0.428800  0.619700  0.356200  1
  C  C2382  1  0.571200  0.380300  0.856200  1
  C  C2383  1  0.119700  0.071200  0.106200  1
  C  C2384  1  0.880300  0.928800  0.606200  1
  C  C2385  1  0.112300  0.129400  0.885400  1
  C  C2386  1  0.887700  0.870600  0.385400  1
  C  C2387  1  0.370600  0.612300  0.135400  1
  C  C2388  1  0.629400  0.387700  0.635400  1
  C  C2389  1  0.387700  0.629400  0.364600  1
  C  C2390  1  0.612300  0.370600  0.864600  1
  C  C2391  1  0.129400  0.112300  0.114600  1
  C  C2392  1  0.870600  0.887700  0.614600  1
  C  C2393  1  0.155100  0.131700  0.893300  1
  C  C2394  1  0.844900  0.868300  0.393300  1
  C  C2395  1  0.368300  0.655100  0.143300  1
  C  C2396  1  0.631700  0.344900  0.643300  1
  C  C2397  1  0.344900  0.631700  0.356700  1
  C  C2398  1  0.655100  0.368300  0.856700  1
  C  C2399  1  0.131700  0.155100  0.106700  1
  C  C2400  1  0.868300  0.844900  0.606700  1
  C  C2401  1  0.157000  0.124300  0.909600  1
  C  C2402  1  0.843000  0.875700  0.409600  1
  C  C2403  1  0.375700  0.657000  0.159600  1
  C  C2404  1  0.624300  0.343000  0.659600  1
  C  C2405  1  0.343000  0.624300  0.340400  1
  C  C2406  1  0.657000  0.375700  0.840400  1
  C  C2407  1  0.124300  0.157000  0.090400  1
  C  C2408  1  0.875700  0.843000  0.590400  1
  C  C2409  1  0.116000  0.114600  0.917900  1
  C  C2410  1  0.884000  0.885400  0.417900  1
  C  C2411  1  0.385400  0.616000  0.167900  1
  C  C2412  1  0.614600  0.384000  0.667900  1
  C  C2413  1  0.384000  0.614600  0.332100  1
  C  C2414  1  0.616000  0.385400  0.832100  1
  C  C2415  1  0.114600  0.116000  0.082100  1
  C  C2416  1  0.885400  0.884000  0.582100  1
  C  C2417  1  0.198700  0.118300  0.919400  1
  C  C2418  1  0.801300  0.881700  0.419400  1
  C  C2419  1  0.381700  0.698700  0.169400  1
  C  C2420  1  0.618300  0.301300  0.669400  1
  C  C2421  1  0.301300  0.618300  0.330600  1
  C  C2422  1  0.698700  0.381700  0.830600  1
  C  C2423  1  0.118300  0.198700  0.080600  1
  C  C2424  1  0.881700  0.801300  0.580600  1
  C  C2425  1  0.277800  0.096300  0.924800  1
  C  C2426  1  0.722200  0.903700  0.424800  1
  C  C2427  1  0.403700  0.777800  0.174800  1
  C  C2428  1  0.596300  0.222200  0.674800  1
  C  C2429  1  0.222200  0.596300  0.325200  1
  C  C2430  1  0.777800  0.403700  0.825200  1
  C  C2431  1  0.096300  0.277800  0.075200  1
  C  C2432  1  0.903700  0.722200  0.575200  1
  C  C2433  1  0.303300  0.140600  0.925700  1
  C  C2434  1  0.696700  0.859400  0.425700  1
  C  C2435  1  0.359400  0.803300  0.175700  1
  C  C2436  1  0.640600  0.196700  0.675700  1
  C  C2437  1  0.196700  0.640600  0.324300  1
  C  C2438  1  0.803300  0.359400  0.824300  1
  C  C2439  1  0.140600  0.303300  0.074300  1
  C  C2440  1  0.859400  0.696700  0.574300  1
  C  C2441  1  0.248700  0.059100  0.903400  1
  C  C2442  1  0.751300  0.940900  0.403400  1
  C  C2443  1  0.440900  0.748700  0.153400  1
  C  C2444  1  0.559100  0.251300  0.653400  1
  C  C2445  1  0.251300  0.559100  0.346600  1
  C  C2446  1  0.748700  0.440900  0.846600  1
  C  C2447  1  0.059100  0.248700  0.096600  1
  C  C2448  1  0.940900  0.751300  0.596600  1
  C  C2449  1  0.285000  0.021300  0.908400  1
  C  C2450  1  0.715000  0.978700  0.408400  1
  C  C2451  1  0.478700  0.785000  0.158400  1
  C  C2452  1  0.521300  0.215000  0.658400  1
  C  C2453  1  0.215000  0.521300  0.341600  1
  C  C2454  1  0.785000  0.478700  0.841600  1
  C  C2455  1  0.021300  0.285000  0.091600  1
  C  C2456  1  0.978700  0.715000  0.591600  1
  C  C2457  1  0.310800  0.061000  0.916800  1
  C  C2458  1  0.689200  0.939000  0.416800  1
  C  C2459  1  0.439000  0.810800  0.166800  1
  C  C2460  1  0.561000  0.189200  0.666800  1
  C  C2461  1  0.189200  0.561000  0.333200  1
  C  C2462  1  0.810800  0.439000  0.833200  1
  C  C2463  1  0.061000  0.310800  0.083200  1
  C  C2464  1  0.939000  0.689200  0.583200  1
  C  C2465  1  0.331600  0.199600  0.948400  1
  C  C2466  1  0.668400  0.800400  0.448400  1
  C  C2467  1  0.300400  0.831600  0.198400  1
  C  C2468  1  0.699600  0.168400  0.698400  1
  C  C2469  1  0.168400  0.699600  0.301600  1
  C  C2470  1  0.831600  0.300400  0.801600  1
  C  C2471  1  0.199600  0.331600  0.051600  1
  C  C2472  1  0.800400  0.668400  0.551600  1
  C  C2473  1  0.385100  0.186800  0.951800  1
  C  C2474  1  0.614900  0.813200  0.451800  1
  C  C2475  1  0.313200  0.885100  0.201800  1
  C  C2476  1  0.686800  0.114900  0.701800  1
  C  C2477  1  0.114900  0.686800  0.298200  1
  C  C2478  1  0.885100  0.313200  0.798200  1
  C  C2479  1  0.186800  0.385100  0.048200  1
  C  C2480  1  0.813200  0.614900  0.548200  1
  C  C2481  1  0.454600  0.209400  0.963900  1
  C  C2482  1  0.545400  0.790600  0.463900  1
  C  C2483  1  0.290600  0.954600  0.213900  1
  C  C2484  1  0.709400  0.045400  0.713900  1
  C  C2485  1  0.045400  0.709400  0.286100  1
  C  C2486  1  0.954600  0.290600  0.786100  1
  C  C2487  1  0.209400  0.454600  0.036100  1
  C  C2488  1  0.790600  0.545400  0.536100  1
  C  C2489  1  0.460400  0.177100  0.977800  1
  C  C2490  1  0.539600  0.822900  0.477800  1
  C  C2491  1  0.322900  0.960400  0.227800  1
  C  C2492  1  0.677100  0.039600  0.727800  1
  C  C2493  1  0.039600  0.677100  0.272200  1
  C  C2494  1  0.960400  0.322900  0.772200  1
  C  C2495  1  0.177100  0.460400  0.022200  1
  C  C2496  1  0.822900  0.539600  0.522200  1
  C  C2497  1  0.387800  0.266100  0.963000  1
  C  C2498  1  0.612200  0.733900  0.463000  1
  C  C2499  1  0.233900  0.887800  0.213000  1
  C  C2500  1  0.766100  0.112200  0.713000  1
  C  C2501  1  0.112200  0.766100  0.287000  1
  C  C2502  1  0.887800  0.233900  0.787000  1
  C  C2503  1  0.266100  0.387800  0.037000  1
  C  C2504  1  0.733900  0.612200  0.537000  1
  C  C2505  1  0.433200  0.291300  0.968300  1
  C  C2506  1  0.566800  0.708700  0.468300  1
  C  C2507  1  0.208700  0.933200  0.218300  1
  C  C2508  1  0.791300  0.066800  0.718300  1
  C  C2509  1  0.066800  0.791300  0.281700  1
  C  C2510  1  0.933200  0.208700  0.781700  1
  C  C2511  1  0.291300  0.433200  0.031700  1
  C  C2512  1  0.708700  0.566800  0.531700  1
  C  C2513  1  0.473300  0.256200  0.970300  1
  C  C2514  1  0.526700  0.743800  0.470300  1
  C  C2515  1  0.243800  0.973300  0.220300  1
  C  C2516  1  0.756200  0.026700  0.720300  1
  C  C2517  1  0.026700  0.756200  0.279700  1
  C  C2518  1  0.973300  0.243800  0.779700  1
  C  C2519  1  0.256200  0.473300  0.029700  1
  C  C2520  1  0.743800  0.526700  0.529700  1
  C  C2521  1  0.505700  0.115400  0.001000  1
  C  C2522  1  0.494300  0.884600  0.501000  1
  C  C2523  1  0.384600  0.005700  0.251000  1
  C  C2524  1  0.615400  0.994300  0.751000  1
  C  C2525  1  0.994300  0.615400  0.249000  1
  C  C2526  1  0.005700  0.384600  0.749000  1
  C  C2527  1  0.115400  0.505700  0.999000  1
  C  C2528  1  0.884600  0.494300  0.499000  1
  C  C2529  1  0.521000  0.118000  0.985400  1
  C  C2530  1  0.479000  0.882000  0.485400  1
  C  C2531  1  0.382000  0.021000  0.235400  1
  C  C2532  1  0.618000  0.979000  0.735400  1
  C  C2533  1  0.979000  0.618000  0.264600  1
  C  C2534  1  0.021000  0.382000  0.764600  1
  C  C2535  1  0.118000  0.521000  0.014600  1
  C  C2536  1  0.882000  0.479000  0.514600  1
  C  C2537  1  0.559400  0.091500  0.980500  1
  C  C2538  1  0.440600  0.908500  0.480500  1
  C  C2539  1  0.408500  0.059400  0.230500  1
  C  C2540  1  0.591500  0.940600  0.730500  1
  C  C2541  1  0.940600  0.591500  0.269500  1
  C  C2542  1  0.059400  0.408500  0.769500  1
  C  C2543  1  0.091500  0.559400  0.019500  1
  C  C2544  1  0.908500  0.440600  0.519500  1
  C  C2545  1  0.582600  0.062400  0.991200  1
  C  C2546  1  0.417400  0.937600  0.491200  1
  C  C2547  1  0.437600  0.082600  0.241200  1
  C  C2548  1  0.562400  0.917400  0.741200  1
  C  C2549  1  0.917400  0.562400  0.258800  1
  C  C2550  1  0.082600  0.437600  0.758800  1
  C  C2551  1  0.062400  0.582600  0.008800  1
  C  C2552  1  0.937600  0.417400  0.508800  1
  C  C2553  1  0.567300  0.059700  0.006800  1
  C  C2554  1  0.432700  0.940300  0.506800  1
  C  C2555  1  0.440300  0.067300  0.256800  1
  C  C2556  1  0.559700  0.932700  0.756800  1
  C  C2557  1  0.932700  0.559700  0.243200  1
  C  C2558  1  0.067300  0.440300  0.743200  1
  C  C2559  1  0.059700  0.567300  0.993200  1
  C  C2560  1  0.940300  0.432700  0.493200  1
  C  C2561  1  0.427700  0.435100  0.904000  1.0
  C  C2562  1  0.572300  0.564900  0.404000  1.0
  C  C2563  1  0.064900  0.927700  0.154000  1.0
  C  C2564  1  0.935100  0.072300  0.654000  1.0
  C  C2565  1  0.072300  0.935100  0.346000  1.0
  C  C2566  1  0.927700  0.064900  0.846000  1.0
  C  C2567  1  0.435100  0.427700  0.096000  1.0
  C  C2568  1  0.564900  0.572300  0.596000  1.0
  C  C2569  1  0.451600  0.443800  0.890000  1.0
  C  C2570  1  0.548400  0.556200  0.390000  1.0
  C  C2571  1  0.056200  0.951600  0.140000  1.0
  C  C2572  1  0.943800  0.048400  0.640000  1.0
  C  C2573  1  0.048400  0.943800  0.360000  1.0
  C  C2574  1  0.951600  0.056200  0.860000  1.0
  C  C2575  1  0.443800  0.451600  0.110000  1.0
  C  C2576  1  0.556200  0.548400  0.610000  1.0
  C  C2577  1  0.427700  0.462000  0.877000  1.0
  C  C2578  1  0.572300  0.538000  0.377000  1.0
  C  C2579  1  0.038000  0.927700  0.127000  1.0
  C  C2580  1  0.962000  0.072300  0.627000  1.0
  C  C2581  1  0.072300  0.962000  0.373000  1.0
  C  C2582  1  0.927700  0.038000  0.873000  1.0
  C  C2583  1  0.462000  0.427700  0.123000  1.0
  C  C2584  1  0.538000  0.572300  0.623000  1.0
  C  C2585  1  0.379800  0.471600  0.878100  1.0
  C  C2586  1  0.620200  0.528400  0.378100  1.0
  C  C2587  1  0.028400  0.879800  0.128100  1.0
  C  C2588  1  0.971600  0.120200  0.628100  1.0
  C  C2589  1  0.120200  0.971600  0.371900  1.0
  C  C2590  1  0.879800  0.028400  0.871900  1.0
  C  C2591  1  0.471600  0.379800  0.121900  1.0
  C  C2592  1  0.528400  0.620200  0.621900  1.0
  C  C2593  1  0.355800  0.462900  0.892200  1.0
  C  C2594  1  0.644200  0.537100  0.392200  1.0
  C  C2595  1  0.037100  0.855800  0.142200  1.0
  C  C2596  1  0.962900  0.144200  0.642200  1.0
  C  C2597  1  0.144200  0.962900  0.357800  1.0
  C  C2598  1  0.855800  0.037100  0.857800  1.0
  C  C2599  1  0.462900  0.355800  0.107800  1.0
  C  C2600  1  0.537100  0.644200  0.607800  1.0
  C  C2601  1  0.349200  0.484000  0.864700  1.0
  C  C2602  1  0.650800  0.516000  0.364700  1.0
  C  C2603  1  0.016000  0.849200  0.114700  1.0
  C  C2604  1  0.984000  0.150800  0.614700  1.0
  C  C2605  1  0.150800  0.984000  0.385300  1.0
  C  C2606  1  0.849200  0.016000  0.885300  1.0
  C  C2607  1  0.484000  0.349200  0.135300  1.0
  C  C2608  1  0.516000  0.650800  0.635300  1.0
  C  C2609  1  0.279700  0.512300  0.852300  1.0
  C  C2610  1  0.720300  0.487700  0.352300  1.0
  C  C2611  1  0.987700  0.779700  0.102300  1.0
  C  C2612  1  0.012300  0.220300  0.602300  1.0
  C  C2613  1  0.220300  0.012300  0.397700  1.0
  C  C2614  1  0.779700  0.987700  0.897700  1.0
  C  C2615  1  0.512300  0.279700  0.147700  1.0
  C  C2616  1  0.487700  0.720300  0.647700  1.0
  C  C2617  1  0.282600  0.557000  0.845900  1.0
  C  C2618  1  0.717400  0.443000  0.345900  1.0
  C  C2619  1  0.943000  0.782600  0.095900  1.0
  C  C2620  1  0.057000  0.217400  0.595900  1.0
  C  C2621  1  0.217400  0.057000  0.404100  1.0
  C  C2622  1  0.782600  0.943000  0.904100  1.0
  C  C2623  1  0.557000  0.282600  0.154100  1.0
  C  C2624  1  0.443000  0.717400  0.654100  1.0
  C  C2625  1  0.232300  0.499100  0.857100  1.0
  C  C2626  1  0.767700  0.500900  0.357100  1.0
  C  C2627  1  0.000900  0.732300  0.107100  1.0
  C  C2628  1  0.999100  0.267700  0.607100  1.0
  C  C2629  1  0.267700  0.999100  0.392900  1.0
  C  C2630  1  0.732300  0.000900  0.892900  1.0
  C  C2631  1  0.499100  0.232300  0.142900  1.0
  C  C2632  1  0.500900  0.767700  0.642900  1.0
  C  C2633  1  0.218900  0.449700  0.856700  1.0
  C  C2634  1  0.781100  0.550300  0.356700  1.0
  C  C2635  1  0.050300  0.718900  0.106700  1.0
  C  C2636  1  0.949700  0.281100  0.606700  1.0
  C  C2637  1  0.281100  0.949700  0.393300  1.0
  C  C2638  1  0.718900  0.050300  0.893300  1.0
  C  C2639  1  0.449700  0.218900  0.143300  1.0
  C  C2640  1  0.550300  0.781100  0.643300  1.0
  C  C2641  1  0.211900  0.419900  0.843800  1.0
  C  C2642  1  0.788100  0.580100  0.343800  1.0
  C  C2643  1  0.080100  0.711900  0.093800  1.0
  C  C2644  1  0.919900  0.288100  0.593800  1.0
  C  C2645  1  0.288100  0.919900  0.406200  1.0
  C  C2646  1  0.711900  0.080100  0.906200  1.0
  C  C2647  1  0.419900  0.211900  0.156200  1.0
  C  C2648  1  0.580100  0.788100  0.656200  1.0
  C  C2649  1  0.206300  0.371800  0.846300  1.0
  C  C2650  1  0.793700  0.628200  0.346300  1.0
  C  C2651  1  0.128200  0.706300  0.096300  1.0
  C  C2652  1  0.871800  0.293700  0.596300  1.0
  C  C2653  1  0.293700  0.871800  0.403700  1.0
  C  C2654  1  0.706300  0.128200  0.903700  1.0
  C  C2655  1  0.371800  0.206300  0.153700  1.0
  C  C2656  1  0.628200  0.793700  0.653700  1.0
  C  C2657  1  0.207800  0.353500  0.861600  1.0
  C  C2658  1  0.792200  0.646500  0.361600  1.0
  C  C2659  1  0.146500  0.707800  0.111600  1.0
  C  C2660  1  0.853500  0.292200  0.611600  1.0
  C  C2661  1  0.292200  0.853500  0.388400  1.0
  C  C2662  1  0.707800  0.146500  0.888400  1.0
  C  C2663  1  0.353500  0.207800  0.138400  1.0
  C  C2664  1  0.646500  0.792200  0.638400  1.0
  C  C2665  1  0.214900  0.383400  0.874400  1.0
  C  C2666  1  0.785100  0.616600  0.374400  1.0
  C  C2667  1  0.116600  0.714900  0.124400  1.0
  C  C2668  1  0.883400  0.285100  0.624400  1.0
  C  C2669  1  0.285100  0.883400  0.375600  1.0
  C  C2670  1  0.714900  0.116600  0.875600  1.0
  C  C2671  1  0.383400  0.214900  0.125600  1.0
  C  C2672  1  0.616600  0.785100  0.625600  1.0
  C  C2673  1  0.220400  0.431500  0.872000  1.0
  C  C2674  1  0.779600  0.568500  0.372000  1.0
  C  C2675  1  0.068500  0.720400  0.122000  1.0
  C  C2676  1  0.931500  0.279600  0.622000  1.0
  C  C2677  1  0.279600  0.931500  0.378000  1.0
  C  C2678  1  0.720400  0.068500  0.878000  1.0
  C  C2679  1  0.431500  0.220400  0.128000  1.0
  C  C2680  1  0.568500  0.779600  0.628000  1.0
  C  C2681  1  0.300600  0.607000  0.821200  1.0
  C  C2682  1  0.699400  0.393000  0.321200  1.0
  C  C2683  1  0.893000  0.800600  0.071200  1.0
  C  C2684  1  0.107000  0.199400  0.571200  1.0
  C  C2685  1  0.199400  0.107000  0.428800  1.0
  C  C2686  1  0.800600  0.893000  0.928800  1.0
  C  C2687  1  0.607000  0.300600  0.178800  1.0
  C  C2688  1  0.393000  0.699400  0.678800  1.0
  C  C2689  1  0.261300  0.605100  0.807200  1.0
  C  C2690  1  0.738700  0.394900  0.307200  1.0
  C  C2691  1  0.894900  0.761300  0.057200  1.0
  C  C2692  1  0.105100  0.238700  0.557200  1.0
  C  C2693  1  0.238700  0.105100  0.442800  1.0
  C  C2694  1  0.761300  0.894900  0.942800  1.0
  C  C2695  1  0.605100  0.261300  0.192800  1.0
  C  C2696  1  0.394900  0.738700  0.692800  1.0
  C  C2697  1  0.348700  0.615600  0.813000  1.0
  C  C2698  1  0.651300  0.384400  0.313000  1.0
  C  C2699  1  0.884400  0.848700  0.063000  1.0
  C  C2700  1  0.115600  0.151300  0.563000  1.0
  C  C2701  1  0.151300  0.115600  0.437000  1.0
  C  C2702  1  0.848700  0.884400  0.937000  1.0
  C  C2703  1  0.615600  0.348700  0.187000  1.0
  C  C2704  1  0.384400  0.651300  0.687000  1.0
  C  C2705  1  0.379000  0.605000  0.827900  1.0
  C  C2706  1  0.621000  0.395000  0.327900  1.0
  C  C2707  1  0.895000  0.879000  0.077900  1.0
  C  C2708  1  0.105000  0.121000  0.577900  1.0
  C  C2709  1  0.121000  0.105000  0.422100  1.0
  C  C2710  1  0.879000  0.895000  0.922100  1.0
  C  C2711  1  0.605000  0.379000  0.172100  1.0
  C  C2712  1  0.395000  0.621000  0.672100  1.0
  C  C2713  1  0.361000  0.580000  0.800000  1.0
  C  C2714  1  0.639000  0.420000  0.300000  1.0
  C  C2715  1  0.920000  0.861000  0.050000  1.0
  C  C2716  1  0.080000  0.139000  0.550000  1.0
  C  C2717  1  0.139000  0.080000  0.450000  1.0
  C  C2718  1  0.861000  0.920000  0.950000  1.0
  C  C2719  1  0.580000  0.361000  0.200000  1.0
  C  C2720  1  0.420000  0.639000  0.700000  1.0
  C  C2721  1  0.214800  0.655800  0.790100  1.0
  C  C2722  1  0.785200  0.344200  0.290100  1.0
  C  C2723  1  0.844200  0.714800  0.040100  1.0
  C  C2724  1  0.155800  0.285200  0.540100  1.0
  C  C2725  1  0.285200  0.155800  0.459900  1.0
  C  C2726  1  0.714800  0.844200  0.959900  1.0
  C  C2727  1  0.655800  0.214800  0.209900  1.0
  C  C2728  1  0.344200  0.785200  0.709900  1.0
  C  C2729  1  0.240800  0.655900  0.774700  1.0
  C  C2730  1  0.759200  0.344100  0.274700  1.0
  C  C2731  1  0.844100  0.740800  0.024700  1.0
  C  C2732  1  0.155900  0.259200  0.524700  1.0
  C  C2733  1  0.259200  0.155900  0.475300  1.0
  C  C2734  1  0.740800  0.844100  0.975300  1.0
  C  C2735  1  0.655900  0.240800  0.225300  1.0
  C  C2736  1  0.344100  0.759200  0.725300  1.0
  C  C2737  1  0.185400  0.705500  0.792000  1.0
  C  C2738  1  0.814600  0.294500  0.292000  1.0
  C  C2739  1  0.794500  0.685400  0.042000  1.0
  C  C2740  1  0.205500  0.314600  0.542000  1.0
  C  C2741  1  0.314600  0.205500  0.458000  1.0
  C  C2742  1  0.685400  0.794500  0.958000  1.0
  C  C2743  1  0.705500  0.185400  0.208000  1.0
  C  C2744  1  0.294500  0.814600  0.708000  1.0
  C  C2745  1  0.151800  0.707100  0.777300  1.0
  C  C2746  1  0.848200  0.292900  0.277300  1.0
  C  C2747  1  0.792900  0.651800  0.027300  1.0
  C  C2748  1  0.207100  0.348200  0.527300  1.0
  C  C2749  1  0.348200  0.207100  0.472700  1.0
  C  C2750  1  0.651800  0.792900  0.972700  1.0
  C  C2751  1  0.707100  0.151800  0.222700  1.0
  C  C2752  1  0.292900  0.848200  0.722700  1.0
  C  C2753  1  0.107600  0.686200  0.776600  1.0
  C  C2754  1  0.892400  0.313800  0.276600  1.0
  C  C2755  1  0.813800  0.607600  0.026600  1.0
  C  C2756  1  0.186200  0.392400  0.526600  1.0
  C  C2757  1  0.392400  0.186200  0.473400  1.0
  C  C2758  1  0.607600  0.813800  0.973400  1.0
  C  C2759  1  0.686200  0.107600  0.223400  1.0
  C  C2760  1  0.313800  0.892400  0.723400  1.0
  C  C2761  1  0.078900  0.693400  0.763500  1.0
  C  C2762  1  0.921100  0.306600  0.263500  1.0
  C  C2763  1  0.806600  0.578900  0.013500  1.0
  C  C2764  1  0.193400  0.421100  0.513500  1.0
  C  C2765  1  0.421100  0.193400  0.486500  1.0
  C  C2766  1  0.578900  0.806600  0.986500  1.0
  C  C2767  1  0.693400  0.078900  0.236500  1.0
  C  C2768  1  0.306600  0.921100  0.736500  1.0
  C  C2769  1  0.094400  0.721400  0.751100  1.0
  C  C2770  1  0.905600  0.278600  0.251100  1.0
  C  C2771  1  0.778600  0.594400  0.001100  1.0
  C  C2772  1  0.221400  0.405600  0.501100  1.0
  C  C2773  1  0.405600  0.221400  0.498900  1.0
  C  C2774  1  0.594400  0.778600  0.998900  1.0
  C  C2775  1  0.721400  0.094400  0.248900  1.0
  C  C2776  1  0.278600  0.905600  0.748900  1.0
  C  C2777  1  0.138600  0.742300  0.751700  1.0
  C  C2778  1  0.861400  0.257700  0.251700  1.0
  C  C2779  1  0.757700  0.638600  0.001700  1.0
  C  C2780  1  0.242300  0.361400  0.501700  1.0
  C  C2781  1  0.361400  0.242300  0.498300  1.0
  C  C2782  1  0.638600  0.757700  0.998300  1.0
  C  C2783  1  0.742300  0.138600  0.248300  1.0
  C  C2784  1  0.257700  0.861400  0.748300  1.0
  C  C2785  1  0.167300  0.735200  0.764900  1.0
  C  C2786  1  0.832700  0.264800  0.264900  1.0
  C  C2787  1  0.764800  0.667300  0.014900  1.0
  C  C2788  1  0.235200  0.332700  0.514900  1.0
  C  C2789  1  0.332700  0.235200  0.485100  1.0
  C  C2790  1  0.667300  0.764800  0.985100  1.0
  C  C2791  1  0.735200  0.167300  0.235100  1.0
  C  C2792  1  0.264800  0.832700  0.735100  1.0
  C  C2793  1  0.253600  0.627600  0.747800  1.0
  C  C2794  1  0.746400  0.372400  0.247800  1.0
  C  C2795  1  0.872400  0.753600  0.997800  1.0
  C  C2796  1  0.127600  0.246400  0.497800  1.0
  C  C2797  1  0.246400  0.127600  0.502200  1.0
  C  C2798  1  0.753600  0.872400  0.002200  1.0
  C  C2799  1  0.627600  0.253600  0.252200  1.0
  C  C2800  1  0.372400  0.746400  0.752200  1.0
  C  C2801  1  0.223000  0.636800  0.736900  1.0
  C  C2802  1  0.777000  0.363200  0.236900  1.0
  C  C2803  1  0.863200  0.723000  0.986900  1.0
  C  C2804  1  0.136800  0.277000  0.486900  1.0
  C  C2805  1  0.277000  0.136800  0.513100  1.0
  C  C2806  1  0.723000  0.863200  0.013100  1.0
  C  C2807  1  0.636800  0.223000  0.263100  1.0
  C  C2808  1  0.363200  0.777000  0.763100  1.0
  C  C2809  1  0.277400  0.582100  0.743800  1.0
  C  C2810  1  0.722600  0.417900  0.243800  1.0
  C  C2811  1  0.917900  0.777400  0.993800  1.0
  C  C2812  1  0.082100  0.222600  0.493800  1.0
  C  C2813  1  0.222600  0.082100  0.506200  1.0
  C  C2814  1  0.777400  0.917900  0.006200  1.0
  C  C2815  1  0.582100  0.277400  0.256200  1.0
  C  C2816  1  0.417900  0.722600  0.756200  1.0
  C  C2817  1  0.312500  0.580000  0.730500  1.0
  C  C2818  1  0.687500  0.420000  0.230500  1.0
  C  C2819  1  0.920000  0.812500  0.980500  1.0
  C  C2820  1  0.080000  0.187500  0.480500  1.0
  C  C2821  1  0.187500  0.080000  0.519500  1.0
  C  C2822  1  0.812500  0.920000  0.019500  1.0
  C  C2823  1  0.580000  0.312500  0.269500  1.0
  C  C2824  1  0.420000  0.687500  0.769500  1.0
  C  C2825  1  0.312100  0.578000  0.757600  1.0
  C  C2826  1  0.687900  0.422000  0.257600  1.0
  C  C2827  1  0.922000  0.812100  0.007600  1.0
  C  C2828  1  0.078000  0.187900  0.507600  1.0
  C  C2829  1  0.187900  0.078000  0.492400  1.0
  C  C2830  1  0.812100  0.922000  0.992400  1.0
  C  C2831  1  0.578000  0.312100  0.242400  1.0
  C  C2832  1  0.422000  0.687900  0.742400  1.0
  C  C2833  1  0.206800  0.683100  0.710000  1.0
  C  C2834  1  0.793200  0.316900  0.210000  1.0
  C  C2835  1  0.816900  0.706800  0.960000  1.0
  C  C2836  1  0.183100  0.293200  0.460000  1.0
  C  C2837  1  0.293200  0.183100  0.540000  1.0
  C  C2838  1  0.706800  0.816900  0.040000  1.0
  C  C2839  1  0.683100  0.206800  0.290000  1.0
  C  C2840  1  0.316900  0.793200  0.790000  1.0
  C  C2841  1  0.158100  0.686900  0.708700  1.0
  C  C2842  1  0.841900  0.313100  0.208700  1.0
  C  C2843  1  0.813100  0.658100  0.958700  1.0
  C  C2844  1  0.186900  0.341900  0.458700  1.0
  C  C2845  1  0.341900  0.186900  0.541300  1.0
  C  C2846  1  0.658100  0.813100  0.041300  1.0
  C  C2847  1  0.686900  0.158100  0.291300  1.0
  C  C2848  1  0.313100  0.841900  0.791300  1.0
  C  C2849  1  0.138000  0.700000  0.694300  1.0
  C  C2850  1  0.862000  0.300000  0.194300  1.0
  C  C2851  1  0.800000  0.638000  0.944300  1.0
  C  C2852  1  0.200000  0.362000  0.444300  1.0
  C  C2853  1  0.362000  0.200000  0.555700  1.0
  C  C2854  1  0.638000  0.800000  0.055700  1.0
  C  C2855  1  0.700000  0.138000  0.305700  1.0
  C  C2856  1  0.300000  0.862000  0.805700  1.0
  C  C2857  1  0.166500  0.709300  0.681300  1.0
  C  C2858  1  0.833500  0.290700  0.181300  1.0
  C  C2859  1  0.790700  0.666500  0.931300  1.0
  C  C2860  1  0.209300  0.333500  0.431300  1.0
  C  C2861  1  0.333500  0.209300  0.568700  1.0
  C  C2862  1  0.666500  0.790700  0.068700  1.0
  C  C2863  1  0.709300  0.166500  0.318700  1.0
  C  C2864  1  0.290700  0.833500  0.818700  1.0
  C  C2865  1  0.215100  0.705400  0.682600  1.0
  C  C2866  1  0.784900  0.294600  0.182600  1.0
  C  C2867  1  0.794600  0.715100  0.932600  1.0
  C  C2868  1  0.205400  0.284900  0.432600  1.0
  C  C2869  1  0.284900  0.205400  0.567400  1.0
  C  C2870  1  0.715100  0.794600  0.067400  1.0
  C  C2871  1  0.705400  0.215100  0.317400  1.0
  C  C2872  1  0.294600  0.784900  0.817400  1.0
  C  C2873  1  0.235300  0.692300  0.697000  1.0
  C  C2874  1  0.764700  0.307700  0.197000  1.0
  C  C2875  1  0.807700  0.735300  0.947000  1.0
  C  C2876  1  0.192300  0.264700  0.447000  1.0
  C  C2877  1  0.264700  0.192300  0.553000  1.0
  C  C2878  1  0.735300  0.807700  0.053000  1.0
  C  C2879  1  0.692300  0.235300  0.303000  1.0
  C  C2880  1  0.307700  0.764700  0.803000  1.0
  C  C2881  1  0.245800  0.715200  0.669500  1.0
  C  C2882  1  0.754200  0.284800  0.169500  1.0
  C  C2883  1  0.784800  0.745800  0.919500  1.0
  C  C2884  1  0.215200  0.254200  0.419500  1.0
  C  C2885  1  0.254200  0.215200  0.580500  1.0
  C  C2886  1  0.745800  0.784800  0.080500  1.0
  C  C2887  1  0.715200  0.245800  0.330500  1.0
  C  C2888  1  0.284800  0.754200  0.830500  1.0
  C  C2889  1  0.277900  0.709200  0.643400  1.0
  C  C2890  1  0.722100  0.290800  0.143400  1.0
  C  C2891  1  0.790800  0.777900  0.893400  1.0
  C  C2892  1  0.209200  0.222100  0.393400  1.0
  C  C2893  1  0.222100  0.209200  0.606600  1.0
  C  C2894  1  0.777900  0.790800  0.106600  1.0
  C  C2895  1  0.709200  0.277900  0.356600  1.0
  C  C2896  1  0.290800  0.722100  0.856600  1.0
  C  C2897  1  0.275000  0.758000  0.637600  1.0
  C  C2898  1  0.725000  0.242000  0.137600  1.0
  C  C2899  1  0.742000  0.775000  0.887600  1.0
  C  C2900  1  0.258000  0.225000  0.387600  1.0
  C  C2901  1  0.225000  0.258000  0.612400  1.0
  C  C2902  1  0.775000  0.742000  0.112400  1.0
  C  C2903  1  0.758000  0.275000  0.362400  1.0
  C  C2904  1  0.242000  0.725000  0.862400  1.0
  C  C2905  1  0.217700  0.660700  0.649100  1.0
  C  C2906  1  0.782300  0.339300  0.149100  1.0
  C  C2907  1  0.839300  0.717700  0.899100  1.0
  C  C2908  1  0.160700  0.282300  0.399100  1.0
  C  C2909  1  0.282300  0.160700  0.600900  1.0
  C  C2910  1  0.717700  0.839300  0.100900  1.0
  C  C2911  1  0.660700  0.217700  0.350900  1.0
  C  C2912  1  0.339300  0.782300  0.850900  1.0
  C  C2913  1  0.238000  0.632900  0.634900  1.0
  C  C2914  1  0.762000  0.367100  0.134900  1.0
  C  C2915  1  0.867100  0.738000  0.884900  1.0
  C  C2916  1  0.132900  0.262000  0.384900  1.0
  C  C2917  1  0.262000  0.132900  0.615100  1.0
  C  C2918  1  0.738000  0.867100  0.115100  1.0
  C  C2919  1  0.632900  0.238000  0.365100  1.0
  C  C2920  1  0.367100  0.762000  0.865100  1.0
  C  C2921  1  0.259000  0.679700  0.629600  1.0
  C  C2922  1  0.741000  0.320300  0.129600  1.0
  C  C2923  1  0.820300  0.759000  0.879600  1.0
  C  C2924  1  0.179700  0.241000  0.379600  1.0
  C  C2925  1  0.241000  0.179700  0.620400  1.0
  C  C2926  1  0.759000  0.820300  0.120400  1.0
  C  C2927  1  0.679700  0.259000  0.370400  1.0
  C  C2928  1  0.320300  0.741000  0.870400  1.0
  C  C2929  1  0.333400  0.817600  0.625500  1.0
  C  C2930  1  0.666600  0.182400  0.125500  1.0
  C  C2931  1  0.682400  0.833400  0.875500  1.0
  C  C2932  1  0.317600  0.166600  0.375500  1.0
  C  C2933  1  0.166600  0.317600  0.624500  1.0
  C  C2934  1  0.833400  0.682400  0.124500  1.0
  C  C2935  1  0.817600  0.333400  0.374500  1.0
  C  C2936  1  0.182400  0.666600  0.874500  1.0
  C  C2937  1  0.361000  0.807100  0.609600  1.0
  C  C2938  1  0.639000  0.192900  0.109600  1.0
  C  C2939  1  0.692900  0.861000  0.859600  1.0
  C  C2940  1  0.307100  0.139000  0.359600  1.0
  C  C2941  1  0.139000  0.307100  0.640400  1.0
  C  C2942  1  0.861000  0.692900  0.140400  1.0
  C  C2943  1  0.807100  0.361000  0.390400  1.0
  C  C2944  1  0.192900  0.639000  0.890400  1.0
  C  C2945  1  0.382300  0.834100  0.584800  1.0
  C  C2946  1  0.617700  0.165900  0.084800  1.0
  C  C2947  1  0.665900  0.882300  0.834800  1.0
  C  C2948  1  0.334100  0.117700  0.334800  1.0
  C  C2949  1  0.117700  0.334100  0.665200  1.0
  C  C2950  1  0.882300  0.665900  0.165200  1.0
  C  C2951  1  0.834100  0.382300  0.415200  1.0
  C  C2952  1  0.165900  0.617700  0.915200  1.0
  C  C2953  1  0.434600  0.832000  0.588400  1.0
  C  C2954  1  0.565400  0.168000  0.088400  1.0
  C  C2955  1  0.668000  0.934600  0.838400  1.0
  C  C2956  1  0.332000  0.065400  0.338400  1.0
  C  C2957  1  0.065400  0.332000  0.661600  1.0
  C  C2958  1  0.934600  0.668000  0.161600  1.0
  C  C2959  1  0.832000  0.434600  0.411600  1.0
  C  C2960  1  0.168000  0.565400  0.911600  1.0
  C  C2961  1  0.335000  0.887000  0.601900  1.0
  C  C2962  1  0.665000  0.113000  0.101900  1.0
  C  C2963  1  0.613000  0.835000  0.851900  1.0
  C  C2964  1  0.387000  0.165000  0.351900  1.0
  C  C2965  1  0.165000  0.387000  0.648100  1.0
  C  C2966  1  0.835000  0.613000  0.148100  1.0
  C  C2967  1  0.887000  0.335000  0.398100  1.0
  C  C2968  1  0.113000  0.665000  0.898100  1.0
  C  C2969  1  0.358000  0.915000  0.588300  1.0
  C  C2970  1  0.642000  0.085000  0.088300  1.0
  C  C2971  1  0.585000  0.858000  0.838300  1.0
  C  C2972  1  0.415000  0.142000  0.338300  1.0
  C  C2973  1  0.142000  0.415000  0.661700  1.0
  C  C2974  1  0.858000  0.585000  0.161700  1.0
  C  C2975  1  0.915000  0.358000  0.411700  1.0
  C  C2976  1  0.085000  0.642000  0.911700  1.0
  C  C2977  1  0.379000  0.881000  0.576100  1.0
  C  C2978  1  0.621000  0.119000  0.076100  1.0
  C  C2979  1  0.619000  0.879000  0.826100  1.0
  C  C2980  1  0.381000  0.121000  0.326100  1.0
  C  C2981  1  0.121000  0.381000  0.673900  1.0
  C  C2982  1  0.879000  0.619000  0.173900  1.0
  C  C2983  1  0.881000  0.379000  0.423900  1.0
  C  C2984  1  0.119000  0.621000  0.923900  1.0
  C  C2985  1  0.505900  0.734700  0.573700  1.0
  C  C2986  1  0.494100  0.265300  0.073700  1.0
  C  C2987  1  0.765300  0.005900  0.823700  1.0
  C  C2988  1  0.234700  0.994100  0.323700  1.0
  C  C2989  1  0.994100  0.234700  0.676300  1.0
  C  C2990  1  0.005900  0.765300  0.176300  1.0
  C  C2991  1  0.734700  0.505900  0.426300  1.0
  C  C2992  1  0.265300  0.494100  0.926300  1.0
  C  C2993  1  0.498700  0.782000  0.577200  1.0
  C  C2994  1  0.501300  0.218000  0.077200  1.0
  C  C2995  1  0.718000  0.998700  0.827200  1.0
  C  C2996  1  0.282000  0.001300  0.327200  1.0
  C  C2997  1  0.001300  0.282000  0.672800  1.0
  C  C2998  1  0.998700  0.718000  0.172800  1.0
  C  C2999  1  0.782000  0.498700  0.422800  1.0
  C  C3000  1  0.218000  0.501300  0.922800  1.0
  C  C3001  1  0.536200  0.809800  0.582200  1.0
  C  C3002  1  0.463800  0.190200  0.082200  1.0
  C  C3003  1  0.690200  0.036200  0.832200  1.0
  C  C3004  1  0.309800  0.963800  0.332200  1.0
  C  C3005  1  0.963800  0.309800  0.667800  1.0
  C  C3006  1  0.036200  0.690200  0.167800  1.0
  C  C3007  1  0.809800  0.536200  0.417800  1.0
  C  C3008  1  0.190200  0.463800  0.917800  1.0
  C  C3009  1  0.580900  0.790300  0.583600  1.0
  C  C3010  1  0.419100  0.209700  0.083600  1.0
  C  C3011  1  0.709700  0.080900  0.833600  1.0
  C  C3012  1  0.290300  0.919100  0.333600  1.0
  C  C3013  1  0.919100  0.290300  0.666400  1.0
  C  C3014  1  0.080900  0.709700  0.166400  1.0
  C  C3015  1  0.790300  0.580900  0.416400  1.0
  C  C3016  1  0.209700  0.419100  0.916400  1.0
  C  C3017  1  0.588100  0.743000  0.580100  1.0
  C  C3018  1  0.411900  0.257000  0.080100  1.0
  C  C3019  1  0.757000  0.088100  0.830100  1.0
  C  C3020  1  0.243000  0.911900  0.330100  1.0
  C  C3021  1  0.911900  0.243000  0.669900  1.0
  C  C3022  1  0.088100  0.757000  0.169900  1.0
  C  C3023  1  0.743000  0.588100  0.419900  1.0
  C  C3024  1  0.257000  0.411900  0.919900  1.0
  N  N3025  1  0.441000  0.049300  0.028700  1
  N  N3026  1  0.559000  0.950700  0.528700  1
  N  N3027  1  0.450700  0.941000  0.278700  1
  N  N3028  1  0.549300  0.059000  0.778700  1
  N  N3029  1  0.059000  0.549300  0.221300  1
  N  N3030  1  0.941000  0.450700  0.721300  1
  N  N3031  1  0.049300  0.441000  0.971300  1
  N  N3032  1  0.950700  0.559000  0.471300  1
  N  N3033  1  0.330800  0.119700  0.005200  1
  N  N3034  1  0.669200  0.880300  0.505200  1
  N  N3035  1  0.380300  0.830800  0.255200  1
  N  N3036  1  0.619700  0.169200  0.755200  1
  N  N3037  1  0.169200  0.619700  0.244800  1
  N  N3038  1  0.830800  0.380300  0.744800  1
  N  N3039  1  0.119700  0.330800  0.994800  1
  N  N3040  1  0.880300  0.669200  0.494800  1
  N  N3041  1  0.223400  0.138900  0.985500  1
  N  N3042  1  0.776600  0.861100  0.485500  1
  N  N3043  1  0.361100  0.723400  0.235500  1
  N  N3044  1  0.638900  0.276600  0.735500  1
  N  N3045  1  0.276600  0.638900  0.264500  1
  N  N3046  1  0.723400  0.361100  0.764500  1
  N  N3047  1  0.138900  0.223400  0.014500  1
  N  N3048  1  0.861100  0.776600  0.514500  1
  N  N3049  1  0.143800  0.179100  0.956700  1
  N  N3050  1  0.856200  0.820900  0.456700  1
  N  N3051  1  0.320900  0.643800  0.206700  1
  N  N3052  1  0.679100  0.356200  0.706700  1
  N  N3053  1  0.356200  0.679100  0.293300  1
  N  N3054  1  0.643800  0.320900  0.793300  1
  N  N3055  1  0.179100  0.143800  0.043300  1
  N  N3056  1  0.820900  0.856200  0.543300  1
  N  N3057  1  0.028300  0.208600  0.966900  1
  N  N3058  1  0.971700  0.791400  0.466900  1
  N  N3059  1  0.291400  0.528300  0.216900  1
  N  N3060  1  0.708600  0.471700  0.716900  1
  N  N3061  1  0.471700  0.708600  0.283100  1
  N  N3062  1  0.528300  0.291400  0.783100  1
  N  N3063  1  0.208600  0.028300  0.033100  1
  N  N3064  1  0.791400  0.971700  0.533100  1
  N  N3065  1  0.908200  0.217100  0.958200  1
  N  N3066  1  0.091800  0.782900  0.458200  1
  N  N3067  1  0.282900  0.408200  0.208200  1
  N  N3068  1  0.717100  0.591800  0.708200  1
  N  N3069  1  0.591800  0.717100  0.291800  1
  N  N3070  1  0.408200  0.282900  0.791800  1
  N  N3071  1  0.217100  0.908200  0.041800  1
  N  N3072  1  0.782900  0.091800  0.541800  1
  N  N3073  1  0.699200  0.237500  0.961700  1
  N  N3074  1  0.300800  0.762500  0.461700  1
  N  N3075  1  0.262500  0.199200  0.211700  1
  N  N3076  1  0.737500  0.800800  0.711700  1
  N  N3077  1  0.800800  0.737500  0.288300  1
  N  N3078  1  0.199200  0.262500  0.788300  1
  N  N3079  1  0.237500  0.699200  0.038300  1
  N  N3080  1  0.762500  0.300800  0.538300  1
  N  N3081  1  0.631900  0.156900  0.942600  1
  N  N3082  1  0.368100  0.843100  0.442600  1
  N  N3083  1  0.343100  0.131900  0.192600  1
  N  N3084  1  0.656900  0.868100  0.692600  1
  N  N3085  1  0.868100  0.656900  0.307400  1
  N  N3086  1  0.131900  0.343100  0.807400  1
  N  N3087  1  0.156900  0.631900  0.057400  1
  N  N3088  1  0.843100  0.368100  0.557400  1
  N  N3089  1  0.534900  0.098700  0.923100  1
  N  N3090  1  0.465100  0.901300  0.423100  1
  N  N3091  1  0.401300  0.034900  0.173100  1
  N  N3092  1  0.598700  0.965100  0.673100  1
  N  N3093  1  0.965100  0.598700  0.326900  1
  N  N3094  1  0.034900  0.401300  0.826900  1
  N  N3095  1  0.098700  0.534900  0.076900  1
  N  N3096  1  0.901300  0.465100  0.576900  1
  N  N3097  1  0.439600  0.060800  0.949400  1
  N  N3098  1  0.560400  0.939200  0.449400  1
  N  N3099  1  0.439200  0.939600  0.199400  1
  N  N3100  1  0.560800  0.060400  0.699400  1
  N  N3101  1  0.060400  0.560800  0.300600  1
  N  N3102  1  0.939600  0.439200  0.800600  1
  N  N3103  1  0.060800  0.439600  0.050600  1
  N  N3104  1  0.939200  0.560400  0.550600  1
  N  N3105  1  0.411300  0.958500  0.975200  1
  N  N3106  1  0.588700  0.041500  0.475200  1
  N  N3107  1  0.541500  0.911300  0.225200  1
  N  N3108  1  0.458500  0.088700  0.725200  1
  N  N3109  1  0.088700  0.458500  0.274800  1
  N  N3110  1  0.911300  0.541500  0.774800  1
  N  N3111  1  0.958500  0.411300  0.024800  1
  N  N3112  1  0.041500  0.588700  0.524800  1
  N  N3113  1  0.506400  0.913600  0.991600  1
  N  N3114  1  0.493600  0.086400  0.491600  1
  N  N3115  1  0.586400  0.006400  0.241600  1
  N  N3116  1  0.413600  0.993600  0.741600  1
  N  N3117  1  0.993600  0.413600  0.258400  1
  N  N3118  1  0.006400  0.586400  0.758400  1
  N  N3119  1  0.913600  0.506400  0.008400  1
  N  N3120  1  0.086400  0.493600  0.508400  1
  N  N3121  1  0.611500  0.970900  0.960100  1
  N  N3122  1  0.388500  0.029100  0.460100  1
  N  N3123  1  0.529100  0.111500  0.210100  1
  N  N3124  1  0.470900  0.888500  0.710100  1
  N  N3125  1  0.888500  0.470900  0.289900  1
  N  N3126  1  0.111500  0.529100  0.789900  1
  N  N3127  1  0.970900  0.611500  0.039900  1
  N  N3128  1  0.029100  0.388500  0.539900  1
  N  N3129  1  0.718700  0.027400  0.951100  1
  N  N3130  1  0.281300  0.972600  0.451100  1
  N  N3131  1  0.472600  0.218700  0.201100  1
  N  N3132  1  0.527400  0.781300  0.701100  1
  N  N3133  1  0.781300  0.527400  0.298900  1
  N  N3134  1  0.218700  0.472600  0.798900  1
  N  N3135  1  0.027400  0.718700  0.048900  1
  N  N3136  1  0.972600  0.281300  0.548900  1
  N  N3137  1  0.797000  0.110500  0.936200  1
  N  N3138  1  0.203000  0.889500  0.436200  1
  N  N3139  1  0.389500  0.297000  0.186200  1
  N  N3140  1  0.610500  0.703000  0.686200  1
  N  N3141  1  0.703000  0.610500  0.313800  1
  N  N3142  1  0.297000  0.389500  0.813800  1
  N  N3143  1  0.110500  0.797000  0.063800  1
  N  N3144  1  0.889500  0.203000  0.563800  1
  N  N3145  1  0.911300  0.082100  0.923000  1
  N  N3146  1  0.088700  0.917900  0.423000  1
  N  N3147  1  0.417900  0.411300  0.173000  1
  N  N3148  1  0.582100  0.588700  0.673000  1
  N  N3149  1  0.588700  0.582100  0.327000  1
  N  N3150  1  0.411300  0.417900  0.827000  1
  N  N3151  1  0.082100  0.911300  0.077000  1
  N  N3152  1  0.917900  0.088700  0.577000  1
  N  N3153  1  0.031700  0.110600  0.919100  1
  N  N3154  1  0.968300  0.889400  0.419100  1
  N  N3155  1  0.389400  0.531700  0.169100  1
  N  N3156  1  0.610600  0.468300  0.669100  1
  N  N3157  1  0.468300  0.610600  0.330900  1
  N  N3158  1  0.531700  0.389400  0.830900  1
  N  N3159  1  0.110600  0.031700  0.080900  1
  N  N3160  1  0.889400  0.968300  0.580900  1
  N  N3161  1  0.238200  0.097700  0.914300  1
  N  N3162  1  0.761800  0.902300  0.414300  1
  N  N3163  1  0.402300  0.738200  0.164300  1
  N  N3164  1  0.597700  0.261800  0.664300  1
  N  N3165  1  0.261800  0.597700  0.335700  1
  N  N3166  1  0.738200  0.402300  0.835700  1
  N  N3167  1  0.097700  0.238200  0.085700  1
  N  N3168  1  0.902300  0.761800  0.585700  1
  N  N3169  1  0.308100  0.157400  0.941900  1
  N  N3170  1  0.691900  0.842600  0.441900  1
  N  N3171  1  0.342600  0.808100  0.191900  1
  N  N3172  1  0.657400  0.191900  0.691900  1
  N  N3173  1  0.191900  0.657400  0.308100  1
  N  N3174  1  0.808100  0.342600  0.808100  1
  N  N3175  1  0.157400  0.308100  0.058100  1
  N  N3176  1  0.842600  0.691900  0.558100  1
  N  N3177  1  0.404000  0.217800  0.960100  1
  N  N3178  1  0.596000  0.782200  0.460100  1
  N  N3179  1  0.282200  0.904000  0.210100  1
  N  N3180  1  0.717800  0.096000  0.710100  1
  N  N3181  1  0.096000  0.717800  0.289900  1
  N  N3182  1  0.904000  0.282200  0.789900  1
  N  N3183  1  0.217800  0.404000  0.039900  1
  N  N3184  1  0.782200  0.596000  0.539900  1
  N  N3185  1  0.500700  0.151600  0.975600  1
  N  N3186  1  0.499300  0.848400  0.475600  1
  N  N3187  1  0.348400  0.000700  0.225600  1
  N  N3188  1  0.651600  0.999300  0.725600  1
  N  N3189  1  0.999300  0.651600  0.274400  1
  N  N3190  1  0.000700  0.348400  0.774400  1
  N  N3191  1  0.151600  0.500700  0.024400  1
  N  N3192  1  0.848400  0.499300  0.524400  1
  N  N3193  1  0.528900  0.086300  0.011700  1
  N  N3194  1  0.471100  0.913700  0.511700  1
  N  N3195  1  0.413700  0.028900  0.261700  1
  N  N3196  1  0.586300  0.971100  0.761700  1
  N  N3197  1  0.971100  0.586300  0.238300  1
  N  N3198  1  0.028900  0.413700  0.738300  1
  N  N3199  1  0.086300  0.528900  0.988300  1
  N  N3200  1  0.913700  0.471100  0.488300  1
  N  N3201  1  0.379800  0.444600  0.905100  1.0
  N  N3202  1  0.620200  0.555400  0.405100  1.0
  N  N3203  1  0.055400  0.879800  0.155100  1.0
  N  N3204  1  0.944600  0.120200  0.655100  1.0
  N  N3205  1  0.120200  0.944600  0.344900  1.0
  N  N3206  1  0.879800  0.055400  0.844900  1.0
  N  N3207  1  0.444600  0.379800  0.094900  1.0
  N  N3208  1  0.555400  0.620200  0.594900  1.0
  N  N3209  1  0.308800  0.505100  0.865200  1.0
  N  N3210  1  0.691200  0.494900  0.365200  1.0
  N  N3211  1  0.994900  0.808800  0.115200  1.0
  N  N3212  1  0.005100  0.191200  0.615200  1.0
  N  N3213  1  0.191200  0.005100  0.384800  1.0
  N  N3214  1  0.808800  0.994900  0.884800  1.0
  N  N3215  1  0.505100  0.308800  0.134800  1.0
  N  N3216  1  0.494900  0.691200  0.634800  1.0
  N  N3217  1  0.292000  0.562600  0.829200  1.0
  N  N3218  1  0.708000  0.437400  0.329200  1.0
  N  N3219  1  0.937400  0.792000  0.079200  1.0
  N  N3220  1  0.062600  0.208000  0.579200  1.0
  N  N3221  1  0.208000  0.062600  0.420800  1.0
  N  N3222  1  0.792000  0.937400  0.920800  1.0
  N  N3223  1  0.562600  0.292000  0.170800  1.0
  N  N3224  1  0.437400  0.708000  0.670800  1.0
  N  N3225  1  0.245000  0.649100  0.803400  1.0
  N  N3226  1  0.755000  0.350900  0.303400  1.0
  N  N3227  1  0.850900  0.745000  0.053400  1.0
  N  N3228  1  0.149100  0.255000  0.553400  1.0
  N  N3229  1  0.255000  0.149100  0.446600  1.0
  N  N3230  1  0.745000  0.850900  0.946600  1.0
  N  N3231  1  0.649100  0.245000  0.196600  1.0
  N  N3232  1  0.350900  0.755000  0.696600  1.0
  N  N3233  1  0.229900  0.630400  0.762400  1.0
  N  N3234  1  0.770100  0.369600  0.262400  1.0
  N  N3235  1  0.869600  0.729900  0.012400  1.0
  N  N3236  1  0.130400  0.270100  0.512400  1.0
  N  N3237  1  0.270100  0.130400  0.487600  1.0
  N  N3238  1  0.729900  0.869600  0.987600  1.0
  N  N3239  1  0.630400  0.229900  0.237600  1.0
  N  N3240  1  0.369600  0.770100  0.737600  1.0
  N  N3241  1  0.224800  0.675400  0.724300  1.0
  N  N3242  1  0.775200  0.324600  0.224300  1.0
  N  N3243  1  0.824600  0.724800  0.974300  1.0
  N  N3244  1  0.175400  0.275200  0.474300  1.0
  N  N3245  1  0.275200  0.175400  0.525700  1.0
  N  N3246  1  0.724800  0.824600  0.025700  1.0
  N  N3247  1  0.675400  0.224800  0.275700  1.0
  N  N3248  1  0.324600  0.775200  0.775700  1.0
  N  N3249  1  0.244600  0.699500  0.656000  1.0
  N  N3250  1  0.755400  0.300500  0.156000  1.0
  N  N3251  1  0.800500  0.744600  0.906000  1.0
  N  N3252  1  0.199500  0.255400  0.406000  1.0
  N  N3253  1  0.255400  0.199500  0.594000  1.0
  N  N3254  1  0.744600  0.800500  0.094000  1.0
  N  N3255  1  0.699500  0.244600  0.344000  1.0
  N  N3256  1  0.300500  0.755400  0.844000  1.0
  N  N3257  1  0.327400  0.772600  0.634800  1.0
  N  N3258  1  0.672600  0.227400  0.134800  1.0
  N  N3259  1  0.727400  0.827400  0.884800  1.0
  N  N3260  1  0.272600  0.172600  0.384800  1.0
  N  N3261  1  0.172600  0.272600  0.615200  1.0
  N  N3262  1  0.827400  0.727400  0.115200  1.0
  N  N3263  1  0.772600  0.327400  0.365200  1.0
  N  N3264  1  0.227400  0.672600  0.865200  1.0
  N  N3265  1  0.353500  0.838800  0.599300  1.0
  N  N3266  1  0.646500  0.161200  0.099300  1.0
  N  N3267  1  0.661200  0.853500  0.849300  1.0
  N  N3268  1  0.338800  0.146500  0.349300  1.0
  N  N3269  1  0.146500  0.338800  0.650700  1.0
  N  N3270  1  0.853500  0.661200  0.150700  1.0
  N  N3271  1  0.838800  0.353500  0.400700  1.0
  N  N3272  1  0.161200  0.646500  0.900700  1.0
  N  N3273  1  0.452000  0.794700  0.579900  1.0
  N  N3274  1  0.548000  0.205300  0.079900  1.0
  N  N3275  1  0.705300  0.952000  0.829900  1.0
  N  N3276  1  0.294700  0.048000  0.329900  1.0
  N  N3277  1  0.048000  0.294700  0.670100  1.0
  N  N3278  1  0.952000  0.705300  0.170100  1.0
  N  N3279  1  0.794700  0.452000  0.420100  1.0
  N  N3280  1  0.205300  0.548000  0.920100  1.0
  N  N3281  1  0.550600  0.715200  0.575200  1.0
  N  N3282  1  0.449400  0.284800  0.075200  1.0
  N  N3283  1  0.784800  0.050600  0.825200  1.0
  N  N3284  1  0.215200  0.949400  0.325200  1.0
  N  N3285  1  0.949400  0.215200  0.674800  1.0
  N  N3286  1  0.050600  0.784800  0.174800  1.0
  N  N3287  1  0.715200  0.550600  0.424800  1.0
  N  N3288  1  0.284800  0.449400  0.924800  1.0
  Cl  Cl3289  1  0.454700  0.861800  0.961300  1
  Cl  Cl3290  1  0.545300  0.138200  0.461300  1
  Cl  Cl3291  1  0.638200  0.954700  0.211300  1
  Cl  Cl3292  1  0.361800  0.045300  0.711300  1
  Cl  Cl3293  1  0.045300  0.361800  0.288700  1
  Cl  Cl3294  1  0.954700  0.638200  0.788700  1
  Cl  Cl3295  1  0.861800  0.454700  0.038700  1
  Cl  Cl3296  1  0.138200  0.545300  0.538700  1
  Cl  Cl3297  1  0.396500  0.867400  0.001500  1
  Cl  Cl3298  1  0.603500  0.132600  0.501500  1
  Cl  Cl3299  1  0.632600  0.896500  0.251500  1
  Cl  Cl3300  1  0.367400  0.103500  0.751500  1
  Cl  Cl3301  1  0.103500  0.367400  0.248500  1
  Cl  Cl3302  1  0.896500  0.632600  0.748500  1
  Cl  Cl3303  1  0.867400  0.396500  0.998500  1
  Cl  Cl3304  1  0.132600  0.603500  0.498500  1
  Cl  Cl3305  1  0.548700  0.031900  0.048000  1
  Cl  Cl3306  1  0.451300  0.968100  0.548000  1
  Cl  Cl3307  1  0.468100  0.048700  0.298000  1
  Cl  Cl3308  1  0.531900  0.951300  0.798000  1
  Cl  Cl3309  1  0.951300  0.531900  0.202000  1
  Cl  Cl3310  1  0.048700  0.468100  0.702000  1
  Cl  Cl3311  1  0.031900  0.548700  0.952000  1
  Cl  Cl3312  1  0.968100  0.451300  0.452000  1
  Cl  Cl3313  1  0.485700  0.153800  0.042300  1
  Cl  Cl3314  1  0.514300  0.846200  0.542300  1
  Cl  Cl3315  1  0.346200  0.985700  0.292300  1
  Cl  Cl3316  1  0.653800  0.014300  0.792300  1
  Cl  Cl3317  1  0.014300  0.653800  0.207700  1
  Cl  Cl3318  1  0.985700  0.346200  0.707700  1
  Cl  Cl3319  1  0.153800  0.485700  0.957700  1
  Cl  Cl3320  1  0.846200  0.514300  0.457700  1
  Cl  Cl3321  1  0.366000  0.370200  0.928000  1.0
  Cl  Cl3322  1  0.634000  0.629800  0.428000  1.0
  Cl  Cl3323  1  0.129800  0.866000  0.178000  1.0
  Cl  Cl3324  1  0.870200  0.134000  0.678000  1.0
  Cl  Cl3325  1  0.134000  0.870200  0.322000  1.0
  Cl  Cl3326  1  0.866000  0.129800  0.822000  1.0
  Cl  Cl3327  1  0.370200  0.366000  0.072000  1.0
  Cl  Cl3328  1  0.629800  0.634000  0.572000  1.0
  Cl  Cl3329  1  0.373700  0.498300  0.941800  1.0
  Cl  Cl3330  1  0.626300  0.501700  0.441800  1.0
  Cl  Cl3331  1  0.001700  0.873700  0.191800  1.0
  Cl  Cl3332  1  0.998300  0.126300  0.691800  1.0
  Cl  Cl3333  1  0.126300  0.998300  0.308200  1.0
  Cl  Cl3334  1  0.873700  0.001700  0.808200  1.0
  Cl  Cl3335  1  0.498300  0.373700  0.058200  1.0
  Cl  Cl3336  1  0.501700  0.626300  0.558200  1.0
  O  O3337  1  0.284800  0.063100  0.014600  1
  O  O3338  1  0.715200  0.936900  0.514600  1
  O  O3339  1  0.436900  0.784800  0.264600  1
  O  O3340  1  0.563100  0.215200  0.764600  1
  O  O3341  1  0.215200  0.563100  0.235400  1
  O  O3342  1  0.784800  0.436900  0.735400  1
  O  O3343  1  0.063100  0.284800  0.985400  1
  O  O3344  1  0.936900  0.715200  0.485400  1
  O  O3345  1  0.296100  0.128200  0.974300  1
  O  O3346  1  0.703900  0.871800  0.474300  1
  O  O3347  1  0.371800  0.796100  0.224300  1
  O  O3348  1  0.628200  0.203900  0.724300  1
  O  O3349  1  0.203900  0.628200  0.275700  1
  O  O3350  1  0.796100  0.371800  0.775700  1
  O  O3351  1  0.128200  0.296100  0.025700  1
  O  O3352  1  0.871800  0.703900  0.525700  1
  O  O3353  1  0.138500  0.179700  0.984100  1
  O  O3354  1  0.861500  0.820300  0.484100  1
  O  O3355  1  0.320300  0.638500  0.234100  1
  O  O3356  1  0.679700  0.361500  0.734100  1
  O  O3357  1  0.361500  0.679700  0.265900  1
  O  O3358  1  0.638500  0.320300  0.765900  1
  O  O3359  1  0.179700  0.138500  0.015900  1
  O  O3360  1  0.820300  0.861500  0.515900  1
  O  O3361  1  0.051400  0.151200  0.948400  1
  O  O3362  1  0.948600  0.848800  0.448400  1
  O  O3363  1  0.348800  0.551400  0.198400  1
  O  O3364  1  0.651200  0.448600  0.698400  1
  O  O3365  1  0.448600  0.651200  0.301600  1
  O  O3366  1  0.551400  0.348800  0.801600  1
  O  O3367  1  0.151200  0.051400  0.051600  1
  O  O3368  1  0.848800  0.948600  0.551600  1
  O  O3369  1  0.951800  0.266700  0.974800  1
  O  O3370  1  0.048200  0.733300  0.474800  1
  O  O3371  1  0.233300  0.451800  0.224800  1
  O  O3372  1  0.766700  0.548200  0.724800  1
  O  O3373  1  0.548200  0.766700  0.275200  1
  O  O3374  1  0.451800  0.233300  0.775200  1
  O  O3375  1  0.266700  0.951800  0.025200  1
  O  O3376  1  0.733300  0.048200  0.525200  1
  O  O3377  1  0.737500  0.183100  0.947700  1
  O  O3378  1  0.262500  0.816900  0.447700  1
  O  O3379  1  0.316900  0.237500  0.197700  1
  O  O3380  1  0.683100  0.762500  0.697700  1
  O  O3381  1  0.762500  0.683100  0.302300  1
  O  O3382  1  0.237500  0.316900  0.802300  1
  O  O3383  1  0.183100  0.737500  0.052300  1
  O  O3384  1  0.816900  0.262500  0.552300  1
  O  O3385  1  0.627900  0.223900  0.936400  1
  O  O3386  1  0.372100  0.776100  0.436400  1
  O  O3387  1  0.276100  0.127900  0.186400  1
  O  O3388  1  0.723900  0.872100  0.686400  1
  O  O3389  1  0.872100  0.723900  0.313600  1
  O  O3390  1  0.127900  0.276100  0.813600  1
  O  O3391  1  0.223900  0.627900  0.063600  1
  O  O3392  1  0.776100  0.372100  0.563600  1
  O  O3393  1  0.538100  0.134700  0.946500  1
  O  O3394  1  0.461900  0.865300  0.446500  1
  O  O3395  1  0.365300  0.038100  0.196500  1
  O  O3396  1  0.634700  0.961900  0.696500  1
  O  O3397  1  0.961900  0.634700  0.303500  1
  O  O3398  1  0.038100  0.365300  0.803500  1
  O  O3399  1  0.134700  0.538100  0.053500  1
  O  O3400  1  0.865300  0.461900  0.553500  1
  O  O3401  1  0.509800  0.021300  0.944700  1
  O  O3402  1  0.490200  0.978700  0.444700  1
  O  O3403  1  0.478700  0.009800  0.194700  1
  O  O3404  1  0.521300  0.990200  0.694700  1
  O  O3405  1  0.990200  0.521300  0.305300  1
  O  O3406  1  0.009800  0.478700  0.805300  1
  O  O3407  1  0.021300  0.509800  0.055300  1
  O  O3408  1  0.978700  0.490200  0.555300  1
  O  O3409  1  0.665100  0.942100  0.978400  1
  O  O3410  1  0.334900  0.057900  0.478400  1
  O  O3411  1  0.557900  0.165100  0.228400  1
  O  O3412  1  0.442100  0.834900  0.728400  1
  O  O3413  1  0.834900  0.442100  0.271600  1
  O  O3414  1  0.165100  0.557900  0.771600  1
  O  O3415  1  0.942100  0.665100  0.021600  1
  O  O3416  1  0.057900  0.334900  0.521600  1
  O  O3417  1  0.647900  0.062800  0.955800  1
  O  O3418  1  0.352100  0.937200  0.455800  1
  O  O3419  1  0.437200  0.147900  0.205800  1
  O  O3420  1  0.562800  0.852100  0.705800  1
  O  O3421  1  0.852100  0.562800  0.294200  1
  O  O3422  1  0.147900  0.437200  0.794200  1
  O  O3423  1  0.062800  0.647900  0.044200  1
  O  O3424  1  0.937200  0.352100  0.544200  1
  O  O3425  1  0.802700  0.030400  0.935600  1
  O  O3426  1  0.197300  0.969600  0.435600  1
  O  O3427  1  0.469600  0.302700  0.185600  1
  O  O3428  1  0.530400  0.697300  0.685600  1
  O  O3429  1  0.697300  0.530400  0.314400  1
  O  O3430  1  0.302700  0.469600  0.814400  1
  O  O3431  1  0.030400  0.802700  0.064400  1
  O  O3432  1  0.969600  0.197300  0.564400  1
  O  O3433  1  0.892600  0.132400  0.944100  1
  O  O3434  1  0.107400  0.867600  0.444100  1
  O  O3435  1  0.367600  0.392600  0.194100  1
  O  O3436  1  0.632400  0.607400  0.694100  1
  O  O3437  1  0.607400  0.632400  0.305900  1
  O  O3438  1  0.392600  0.367600  0.805900  1
  O  O3439  1  0.132400  0.892600  0.055900  1
  O  O3440  1  0.867600  0.107400  0.555900  1
  O  O3441  1  0.987600  0.064400  0.903200  1
  O  O3442  1  0.012400  0.935600  0.403200  1
  O  O3443  1  0.435600  0.487600  0.153200  1
  O  O3444  1  0.564400  0.512400  0.653200  1
  O  O3445  1  0.512400  0.564400  0.346800  1
  O  O3446  1  0.487600  0.435600  0.846800  1
  O  O3447  1  0.064400  0.987600  0.096800  1
  O  O3448  1  0.935600  0.012400  0.596800  1
  O  O3449  1  0.199700  0.142100  0.931600  1
  O  O3450  1  0.800300  0.857900  0.431600  1
  O  O3451  1  0.357900  0.699700  0.181600  1
  O  O3452  1  0.642100  0.300300  0.681600  1
  O  O3453  1  0.300300  0.642100  0.318400  1
  O  O3454  1  0.699700  0.357900  0.818400  1
  O  O3455  1  0.142100  0.199700  0.068400  1
  O  O3456  1  0.857900  0.800300  0.568400  1
  O  O3457  1  0.316000  0.168800  0.916600  1
  O  O3458  1  0.684000  0.831200  0.416600  1
  O  O3459  1  0.331200  0.816000  0.166600  1
  O  O3460  1  0.668800  0.184000  0.666600  1
  O  O3461  1  0.184000  0.668800  0.333400  1
  O  O3462  1  0.816000  0.331200  0.833400  1
  O  O3463  1  0.168800  0.316000  0.083400  1
  O  O3464  1  0.831200  0.684000  0.583400  1
  O  O3465  1  0.398900  0.148300  0.948200  1
  O  O3466  1  0.601100  0.851700  0.448200  1
  O  O3467  1  0.351700  0.898900  0.198200  1
  O  O3468  1  0.648300  0.101100  0.698200  1
  O  O3469  1  0.101100  0.648300  0.301800  1
  O  O3470  1  0.898900  0.351700  0.801800  1
  O  O3471  1  0.148300  0.398900  0.051800  1
  O  O3472  1  0.851700  0.601100  0.551800  1
  O  O3473  1  0.432900  0.169200  0.987900  1
  O  O3474  1  0.567100  0.830800  0.487900  1
  O  O3475  1  0.330800  0.932900  0.237900  1
  O  O3476  1  0.669200  0.067100  0.737900  1
  O  O3477  1  0.067100  0.669200  0.262100  1
  O  O3478  1  0.932900  0.330800  0.762100  1
  O  O3479  1  0.169200  0.432900  0.012100  1
  O  O3480  1  0.830800  0.567100  0.512100  1
  O  O3481  1  0.083700  0.245700  0.892100  1
  O  O3482  1  0.916300  0.754300  0.392100  1
  O  O3483  1  0.254300  0.583700  0.142100  1
  O  O3484  1  0.745700  0.416300  0.642100  1
  O  O3485  1  0.416300  0.745700  0.357900  1
  O  O3486  1  0.583700  0.254300  0.857900  1
  O  O3487  1  0.245700  0.083700  0.107900  1
  O  O3488  1  0.754300  0.916300  0.607900  1
  O  O3489  1  0.262000  0.915000  0.986100  1
  O  O3490  1  0.738000  0.085000  0.486100  1
  O  O3491  1  0.585000  0.762000  0.236100  1
  O  O3492  1  0.415000  0.238000  0.736100  1
  O  O3493  1  0.238000  0.415000  0.263900  1
  O  O3494  1  0.762000  0.585000  0.763900  1
  O  O3495  1  0.915000  0.262000  0.013900  1
  O  O3496  1  0.085000  0.738000  0.513900  1
  O  O3497  1  0.671000  0.995000  0.037000  1
  O  O3498  1  0.329000  0.005000  0.537000  1
  O  O3499  1  0.505000  0.171000  0.287000  1
  O  O3500  1  0.495000  0.829000  0.787000  1
  O  O3501  1  0.829000  0.495000  0.213000  1
  O  O3502  1  0.171000  0.505000  0.713000  1
  O  O3503  1  0.995000  0.671000  0.963000  1
  O  O3504  1  0.005000  0.329000  0.463000  1
  O  O3505  1  0.104000  0.343000  0.884900  1
  O  O3506  1  0.896000  0.657000  0.384900  1
  O  O3507  1  0.157000  0.604000  0.134900  1
  O  O3508  1  0.843000  0.396000  0.634900  1
  O  O3509  1  0.396000  0.843000  0.365100  1
  O  O3510  1  0.604000  0.157000  0.865100  1
  O  O3511  1  0.343000  0.104000  0.115100  1
  O  O3512  1  0.657000  0.896000  0.615100  1
  O  O3513  1  0.275000  0.279000  0.879800  1
  O  O3514  1  0.725000  0.721000  0.379800  1
  O  O3515  1  0.221000  0.775000  0.129800  1
  O  O3516  1  0.779000  0.225000  0.629800  1
  O  O3517  1  0.225000  0.779000  0.370200  1
  O  O3518  1  0.775000  0.221000  0.870200  1
  O  O3519  1  0.279000  0.275000  0.120200  1
  O  O3520  1  0.721000  0.725000  0.620200  1
  O  O3521  1  0.012000  0.311600  0.882000  1
  O  O3522  1  0.988000  0.688400  0.382000  1
  O  O3523  1  0.188400  0.512000  0.132000  1
  O  O3524  1  0.811600  0.488000  0.632000  1
  O  O3525  1  0.488000  0.811600  0.368000  1
  O  O3526  1  0.512000  0.188400  0.868000  1
  O  O3527  1  0.311600  0.012000  0.118000  1
  O  O3528  1  0.688400  0.988000  0.618000  1
  O  O3529  1  0.459000  0.901000  0.635500  1
  O  O3530  1  0.541000  0.099000  0.135500  1
  O  O3531  1  0.599000  0.959000  0.885500  1
  O  O3532  1  0.401000  0.041000  0.385500  1
  O  O3533  1  0.041000  0.401000  0.614500  1
  O  O3534  1  0.959000  0.599000  0.114500  1
  O  O3535  1  0.901000  0.459000  0.364500  1
  O  O3536  1  0.099000  0.541000  0.864500  1
  O  O3537  1  0.368700  0.469600  0.850700  1.0
  O  O3538  1  0.631300  0.530400  0.350700  1.0
  O  O3539  1  0.030400  0.868700  0.100700  1.0
  O  O3540  1  0.969600  0.131300  0.600700  1.0
  O  O3541  1  0.131300  0.969600  0.399300  1.0
  O  O3542  1  0.868700  0.030400  0.899300  1.0
  O  O3543  1  0.469600  0.368700  0.149300  1.0
  O  O3544  1  0.530400  0.631300  0.649300  1.0
  O  O3545  1  0.287400  0.593000  0.853600  1.0
  O  O3546  1  0.712600  0.407000  0.353600  1.0
  O  O3547  1  0.907000  0.787400  0.103600  1.0
  O  O3548  1  0.093000  0.212600  0.603600  1.0
  O  O3549  1  0.212600  0.093000  0.396400  1.0
  O  O3550  1  0.787400  0.907000  0.896400  1.0
  O  O3551  1  0.593000  0.287400  0.146400  1.0
  O  O3552  1  0.407000  0.712600  0.646400  1.0
  O  O3553  1  0.256200  0.570100  0.798900  1.0
  O  O3554  1  0.743800  0.429900  0.298900  1.0
  O  O3555  1  0.929900  0.756200  0.048900  1.0
  O  O3556  1  0.070100  0.243800  0.548900  1.0
  O  O3557  1  0.243800  0.070100  0.451100  1.0
  O  O3558  1  0.756200  0.929900  0.951100  1.0
  O  O3559  1  0.570100  0.256200  0.201100  1.0
  O  O3560  1  0.429900  0.743800  0.701100  1.0
  O  O3561  1  0.281200  0.680800  0.774500  1.0
  O  O3562  1  0.718800  0.319200  0.274500  1.0
  O  O3563  1  0.819200  0.781200  0.024500  1.0
  O  O3564  1  0.180800  0.218800  0.524500  1.0
  O  O3565  1  0.218800  0.180800  0.475500  1.0
  O  O3566  1  0.781200  0.819200  0.975500  1.0
  O  O3567  1  0.680800  0.281200  0.225500  1.0
  O  O3568  1  0.319200  0.718800  0.725500  1.0
  O  O3569  1  0.180200  0.620600  0.734400  1.0
  O  O3570  1  0.819800  0.379400  0.234400  1.0
  O  O3571  1  0.879400  0.680200  0.984400  1.0
  O  O3572  1  0.120600  0.319800  0.484400  1.0
  O  O3573  1  0.319800  0.120600  0.515600  1.0
  O  O3574  1  0.680200  0.879400  0.015600  1.0
  O  O3575  1  0.620600  0.180200  0.265600  1.0
  O  O3576  1  0.379400  0.819800  0.765600  1.0
  O  O3577  1  0.282600  0.740700  0.672300  1.0
  O  O3578  1  0.717400  0.259300  0.172300  1.0
  O  O3579  1  0.759300  0.782600  0.922300  1.0
  O  O3580  1  0.240700  0.217400  0.422300  1.0
  O  O3581  1  0.217400  0.240700  0.577700  1.0
  O  O3582  1  0.782600  0.759300  0.077700  1.0
  O  O3583  1  0.740700  0.282600  0.327700  1.0
  O  O3584  1  0.259300  0.717400  0.827700  1.0
  O  O3585  1  0.245000  0.784900  0.634700  1.0
  O  O3586  1  0.755000  0.215100  0.134700  1.0
  O  O3587  1  0.715100  0.745000  0.884700  1.0
  O  O3588  1  0.284900  0.255000  0.384700  1.0
  O  O3589  1  0.255000  0.284900  0.615300  1.0
  O  O3590  1  0.745000  0.715100  0.115300  1.0
  O  O3591  1  0.784900  0.245000  0.365300  1.0
  O  O3592  1  0.215100  0.755000  0.865300  1.0
  O  O3593  1  0.373300  0.767500  0.606600  1.0
  O  O3594  1  0.626700  0.232500  0.106600  1.0
  O  O3595  1  0.732500  0.873300  0.856600  1.0
  O  O3596  1  0.267500  0.126700  0.356600  1.0
  O  O3597  1  0.126700  0.267500  0.643400  1.0
  O  O3598  1  0.873300  0.732500  0.143400  1.0
  O  O3599  1  0.767500  0.373300  0.393400  1.0
  O  O3600  1  0.232500  0.626700  0.893400  1.0
  O  O3601  1  0.456500  0.851800  0.598300  1.0
  O  O3602  1  0.543500  0.148200  0.098300  1.0
  O  O3603  1  0.648200  0.956500  0.848300  1.0
  O  O3604  1  0.351800  0.043500  0.348300  1.0
  O  O3605  1  0.043500  0.351800  0.651700  1.0
  O  O3606  1  0.956500  0.648200  0.151700  1.0
  O  O3607  1  0.851800  0.456500  0.401700  1.0
  O  O3608  1  0.148200  0.543500  0.901700  1.0
