
#######################################################################
#
#                 Cambridge Crystallographic Data Centre
#                                CCDC 
#
#######################################################################
#
# If this CIF has been generated from an entry in the Cambridge 
# Structural Database, then it will include bibliographic, chemical, 
# crystal, experimental, refinement or atomic coordinate data resulting 
# from the CCDC's data processing and validation procedures.
#
#######################################################################

data_BICBEX
_chemical_formula_moiety         'C116 H134 Cl4 N22 O18 Zn2,2.33(H2 O1)'
_chemical_name_systematic        
'bis(\m-N-(pyridine-3-carbonyl)-phenylalanyl-valyl-phenylalanyl-N-(3-{2-[(2-oxo-2-{2-[(pyridin-3-yl)carbamoyl]pyrrolidin-1-yl}ethyl)carbamoyl]pyrrolidine-1-carbonyl}phenyl)valinamide)-tetrachloro-di-zinc hydrate'
_symmetry_cell_setting           tetragonal
_symmetry_space_group_name_H-M   'P 41 21 2'
_symmetry_Int_Tables_number      92
_space_group_name_Hall           'P 4abw 2nw'
loop_
_symmetry_equiv_pos_site_id
_symmetry_equiv_pos_as_xyz
1 x,y,z
2 -x,-y,1/2+z
3 1/2-y,1/2+x,1/4+z
4 1/2+y,1/2-x,3/4+z
5 1/2-x,1/2+y,1/4-z
6 1/2+x,1/2-y,3/4-z
7 y,x,-z
8 -y,-x,1/2-z
_cell_length_a                   28.3964(3)
_cell_length_b                   28.3964(3)
_cell_length_c                   84.3978(18)
_cell_angle_alpha                90
_cell_angle_beta                 90
_cell_angle_gamma                90
_cell_volume                     68054.6
_exptl_crystal_colour            colorless
_exptl_crystal_description       plate
_cell_formula_units_Z            12
_chemical_properties_physical    Air-sensitive
_exptl_crystal_recrystallization_method 
'Re-crystallisation from solvent: chloroform, ethanol'
loop_
_atom_site_label
_atom_site_type_symbol
_atom_site_fract_x
_atom_site_fract_y
_atom_site_fract_z
Zn1 Zn 0.43954(19) -0.1039(2) 0.98103(11)
Cl1 Cl 0.4547(7) -0.1382(6) 0.9613(3)
Cl2 Cl 0.3965(5) -0.1326(6) 1.0015(3)
Zn2 Zn 1.5047(2) 0.0835(3) 1.03465(7)
Cl3 Cl 1.5487(5) 0.0319(10) 1.0480(2)
Cl4 Cl 1.4857(7) 0.1538(8) 1.0423(2)
N1 N 1.4410(7) 0.0493(9) 1.0287(2)
C1 C 1.4032(10) 0.0754(6) 1.0231(3)
H1 H 1.4060 0.1079 1.0219
C2 C 1.3612(8) 0.0530(10) 1.0192(3)
C3 C 1.3571(7) 0.0046(10) 1.0210(3)
H2 H 1.3290 -0.0104 1.0184
C4 C 1.3949(10) -0.0216(7) 1.0266(3)
H3 H 1.3921 -0.0540 1.0278
C5 C 1.4369(8) 0.0008(9) 1.0305(2)
H4 H 1.4622 -0.0167 1.0343
C6 C 1.3223(15) 0.0805(15) 1.0129(4)
O1 O 1.2848(11) 0.0631(9) 1.0146(3)
N2 N 1.3308(9) 0.1197(9) 1.0052(3)
H5 H 1.3591 0.1273 1.0027
C7 C 1.2911(11) 0.1504(11) 1.0011(4)
H6 H 1.2671 0.1485 1.0094
C8 C 1.2711(12) 0.1366(11) 0.9863(4)
O2 O 1.2961(8) 0.1282(8) 0.9743(3)
C9 C 1.3090(12) 0.2015(11) 0.9998(4)
H7 H 1.2868 0.2204 0.9938
H8 H 1.3392 0.2022 0.9944
C10 C 1.3141(14) 0.2211(10) 1.0168(3)
C11 C 1.2768(10) 0.2223(9) 1.0275(4)
H9 H 1.2468 0.2134 1.0242
C12 C 1.2844(13) 0.2368(11) 1.0430(4)
H10 H 1.2594 0.2376 1.0501
C13 C 1.3292(17) 0.2501(13) 1.0479(4)
H11 H 1.3343 0.2598 1.0583
C14 C 1.3665(11) 0.2489(14) 1.0372(6)
H12 H 1.3965 0.2578 1.0404
C15 C 1.3589(11) 0.2344(13) 1.0217(5)
H13 H 1.3839 0.2336 1.0145
N3 N 1.2234(8) 0.1389(7) 0.9855(3)
H14 H 1.2094 0.1499 0.9937
C16 C 1.1931(10) 0.1251(9) 0.9723(4)
H15 H 1.2112 0.1232 0.9624
C17 C 1.1547(10) 0.1674(10) 0.9714(4)
O3 O 1.1385(7) 0.1797(7) 0.9841(3)
C18 C 1.1650(12) 0.0792(10) 0.9751(4)
H16 H 1.1516 0.0788 0.9858
C19 C 1.2092(15) 0.0470(16) 0.9742(6)
H17 H 1.2319 0.0573 0.9819
H18 H 1.2003 0.0151 0.9764
H19 H 1.2227 0.0489 0.9638
C20 C 1.1282(16) 0.0638(18) 0.9630(6)
H20 H 1.1140 0.0349 0.9665
H21 H 1.1045 0.0877 0.9621
H22 H 1.1431 0.0592 0.9529
N4 N 1.1438(8) 0.1791(8) 0.9567(3)
H23 H 1.1581 0.1671 0.9487
C21 C 1.1064(11) 0.2133(11) 0.9549(3)
H24 H 1.1093 0.2380 0.9630
C22 C 1.0571(11) 0.1890(12) 0.9562(4)
O4 O 1.0514(8) 0.1512(9) 0.9484(3)
C23 C 1.1084(13) 0.2353(12) 0.9382(4)
H25 H 1.1410 0.2416 0.9355
H26 H 1.0963 0.2127 0.9306
C24 C 1.0792(14) 0.2829(13) 0.9366(4)
C25 C 1.0951(10) 0.3277(16) 0.9405(4)
H27 H 1.1259 0.3320 0.9439
C26 C 1.0649(17) 0.3661(11) 0.9393(4)
H28 H 1.0755 0.3961 0.9420
C27 C 1.0188(15) 0.3596(14) 0.9342(4)
H29 H 0.9986 0.3853 0.9334
C28 C 1.0029(10) 0.3148(18) 0.9303(4)
H30 H 0.9721 0.3105 0.9268
C29 C 1.0331(16) 0.2765(12) 0.9314(4)
H31 H 1.0225 0.2465 0.9288
N5 N 1.0283(9) 0.2086(9) 0.9669(3)
H32 H 1.0377 0.2304 0.9732
C30 C 0.9779(16) 0.1901(16) 0.9673(5)
H33 H 0.9736 0.1685 0.9583
C31 C 0.949(2) 0.231(3) 0.9646(8)
O5 O 0.9518(14) 0.2667(16) 0.9748(5)
C32 C 0.9742(15) 0.1620(16) 0.9826(5)
H34 H 0.9796 0.1864 0.9906
C33 C 1.0161(14) 0.1291(15) 0.9854(5)
H35 H 1.0118 0.1124 0.9952
H36 H 1.0183 0.1069 0.9768
H37 H 1.0446 0.1472 0.9859
C34 C 0.9291(17) 0.1386(18) 0.9887(6)
H38 H 0.9356 0.1230 0.9986
H39 H 0.9054 0.1622 0.9903
H40 H 0.9182 0.1160 0.9811
N6 N 0.9082(11) 0.2171(11) 0.9582(3)
H41 H 0.9058 0.1886 0.9549
C35 C 0.870(2) 0.247(2) 0.9567(6)
C36 C 0.871(2) 0.294(3) 0.9583(7)
H42 H 0.9005 0.3083 0.9573
C37 C 0.828(2) 0.324(2) 0.9619(7)
H43 H 0.8295 0.3548 0.9659
C38 C 0.7809(19) 0.298(2) 0.9578(5)
H44 H 0.7527 0.3140 0.9564
C39 C 0.784(2) 0.248(2) 0.9562(5)
C40 C 0.8230(17) 0.2261(16) 0.9573(4)
H45 H 0.8215 0.1937 0.9587
C41 C 0.7383(16) 0.2191(17) 0.9555(5)
O6 O 0.7375(9) 0.1831(11) 0.9477(3)
N7 N 0.6992(14) 0.2375(13) 0.9617(4)
C42 C 0.6639(18) 0.1998(18) 0.9645(7)
H46 H 0.6733 0.1701 0.9695
C43 C 0.6453(19) 0.200(2) 0.9477(8)
O7 O 0.6279(14) 0.2239(15) 0.9364(5)
C44 C 0.690(2) 0.2732(19) 0.9738(6)
H47 H 0.6814 0.3024 0.9686
H48 H 0.7189 0.2789 0.9796
C45 C 0.651(2) 0.260(2) 0.9856(7)
H49 H 0.6617 0.2405 0.9943
H50 H 0.6329 0.2866 0.9894
C46 C 0.626(2) 0.232(2) 0.9724(7)
H51 H 0.6121 0.2529 0.9647
H52 H 0.6009 0.2126 0.9769
N8 N 0.6319(10) 0.1569(11) 0.9426(3)
H53 H 0.6384 0.1337 0.9487
C47 C 0.6084(14) 0.1451(15) 0.9282(5)
H54 H 0.6249 0.1200 0.9227
H55 H 0.6067 0.1723 0.9212
C48 C 0.5527(13) 0.1271(13) 0.9336(5)
O8 O 0.5381(8) 0.1347(8) 0.9465(3)
N9 N 0.5349(11) 0.0987(11) 0.9231(4)
C49 C 0.4850(13) 0.0880(16) 0.9268(5)
H56 H 0.4668 0.1167 0.9288
C50 C 0.4810(16) 0.0539(16) 0.9399(5)
O9 O 0.5098(10) 0.0213(10) 0.9447(3)
C51 C 0.5499(14) 0.0825(15) 0.9077(4)
H57 H 0.5714 0.0562 0.9089
H58 H 0.5662 0.1076 0.9022
C52 C 0.5072(15) 0.0673(19) 0.8982(6)
H59 H 0.5122 0.0371 0.8931
H60 H 0.4989 0.0905 0.8903
C53 C 0.4694(19) 0.064(2) 0.9113(5)
H61 H 0.4406 0.0788 0.9076
H62 H 0.4625 0.0312 0.9135
N10 N 0.4396(13) 0.0608(12) 0.9494(4)
H63 H 0.4247 0.0866 0.9475
C54 C 0.4359(7) -0.0126(10) 0.9648(3)
H64 H 0.4636 -0.0232 0.9601
C55 C 0.4191(10) 0.0323(9) 0.9614(3)
C56 C 0.3777(10) 0.0481(7) 0.9684(3)
H65 H 0.3664 0.0781 0.9661
C57 C 0.3531(8) 0.0192(11) 0.9788(3)
H66 H 0.3254 0.0298 0.9834
C58 C 0.3699(10) -0.0256(10) 0.9822(3)
H67 H 0.3535 -0.0450 0.9891
N11 N 0.4113(10) -0.0415(7) 0.9752(3)
N12 N 0.5064(8) -0.0864(9) 0.9916(4)
C59 C 0.5168(10) -0.0862(9) 1.0077(3)
H68 H 0.4937 -0.0938 1.0151
C60 C 0.5619(12) -0.0745(10) 1.0128(3)
H69 H 0.5689 -0.0743 1.0236
C61 C 0.5965(8) -0.0631(10) 1.0018(4)
H70 H 0.6266 -0.0553 1.0052
C62 C 0.5860(9) -0.0633(10) 0.9857(4)
C63 C 0.5410(11) -0.0750(9) 0.9806(3)
H71 H 0.5340 -0.0752 0.9699
C64 C 0.6219(16) -0.0466(14) 0.9745(5)
O10 O 0.6651(10) -0.0579(9) 0.9784(3)
N13 N 0.6115(10) -0.0291(9) 0.9601(3)
H72 H 0.5825 -0.0235 0.9578
C65 C 0.6455(13) -0.0198(12) 0.9487(4)
H73 H 0.6692 -0.0447 0.9497
C66 C 0.6707(17) 0.0266(17) 0.9527(5)
O11 O 0.6479(8) 0.0628(9) 0.9558(3)
C67 C 0.6271(12) -0.0239(11) 0.9333(4)
H74 H 0.6505 -0.0131 0.9258
H75 H 0.5998 -0.0035 0.9324
C68 C 0.6135(13) -0.0719(8) 0.9294(3)
C69 C 0.5674(11) -0.0884(12) 0.9301(3)
H76 H 0.5434 -0.0687 0.9335
C70 C 0.5574(10) -0.1345(14) 0.9256(4)
H77 H 0.5266 -0.1456 0.9261
C71 C 0.5934(14) -0.1640(9) 0.9205(3)
H78 H 0.5867 -0.1948 0.9176
C72 C 0.6394(12) -0.1474(11) 0.9198(3)
H79 H 0.6635 -0.1672 0.9164
C73 C 0.6494(9) -0.1014(12) 0.9242(3)
H80 H 0.6802 -0.0903 0.9238
N14 N 0.7187(12) 0.0274(11) 0.9511(3)
H81 H 0.7318 0.0011 0.9486
C74 C 0.7506(11) 0.0679(12) 0.9531(4)
H82 H 0.7337 0.0979 0.9523
C75 C 0.7864(13) 0.0642(15) 0.9413(4)
O12 O 0.8027(8) 0.0304(9) 0.9356(3)
C76 C 0.7713(17) 0.0604(19) 0.9697(4)
H83 H 0.7903 0.0317 0.9698
C77 C 0.7372(17) 0.0595(18) 0.9838(5)
H84 H 0.7545 0.0546 0.9934
H85 H 0.7207 0.0890 0.9843
H86 H 0.7150 0.0344 0.9824
C78 C 0.800(2) 0.101(2) 0.9763(8)
H87 H 0.8115 0.0930 0.9867
H88 H 0.8266 0.1069 0.9694
H89 H 0.7810 0.1288 0.9769
N15 N 0.7970(9) 0.1105(9) 0.9362(3)
H90 H 0.7810 0.1340 0.9397
C79 C 0.8363(15) 0.1180(15) 0.9247(5)
H91 H 0.8324 0.0965 0.9157
C80 C 0.8860(12) 0.1105(13) 0.9323(5)
O13 O 0.8926(7) 0.1324(7) 0.9441(3)
C81 C 0.8305(14) 0.1692(14) 0.9190(4)
H92 H 0.8399 0.1913 0.9271
H93 H 0.7981 0.1755 0.9160
C82 C 0.8653(11) 0.1729(11) 0.9035(5)
C83 C 0.8621(12) 0.1605(11) 0.8876(5)
H94 H 0.8346 0.1469 0.8837
C84 C 0.8999(18) 0.1684(13) 0.8775(3)
H95 H 0.8977 0.1601 0.8669
C85 C 0.9410(13) 0.1887(14) 0.8833(5)
H96 H 0.9663 0.1940 0.8765
C86 C 0.9442(10) 0.2011(11) 0.8992(5)
H97 H 0.9717 0.2147 0.9031
C87 C 0.9064(14) 0.1932(11) 0.9093(3)
H98 H 0.9086 0.2014 0.9199
N16 N 0.9113(9) 0.0821(9) 0.9230(3)
H99 H 0.9018 0.0690 0.9144
C88 C 0.9605(11) 0.0769(10) 0.9305(4)
H100 H 0.9675 0.1016 0.9383
C89 C 0.9933(16) 0.0753(16) 0.9178(6)
O14 O 0.9876(9) 0.0644(9) 0.9032(4)
C90 C 0.9669(13) 0.0269(12) 0.9372(5)
H101 H 0.9577 0.0044 0.9290
C91 C 1.0187(13) 0.0164(16) 0.9420(5)
H102 H 1.0388 0.0203 0.9330
H103 H 1.0282 0.0377 0.9502
H104 H 1.0210 -0.0154 0.9458
C92 C 0.9336(15) 0.0212(16) 0.9511(5)
H105 H 0.9370 -0.0098 0.9554
H106 H 0.9410 0.0442 0.9590
H107 H 0.9018 0.0256 0.9475
N17 N 1.0317(10) 0.1106(10) 0.9191(3)
H108 H 1.0282 0.1322 0.9261
C93 C 1.0731(8) 0.1123(9) 0.9100(4)
C94 C 1.0712(11) 0.1197(11) 0.8938(4)
H109 H 1.0425 0.1182 0.8885
C95 C 1.1123(15) 0.1294(11) 0.8854(3)
H110 H 1.1110 0.1344 0.8745
C96 C 1.1551(11) 0.1317(11) 0.8933(4)
H111 H 1.1826 0.1382 0.8877
C97 C 1.1570(8) 0.1243(10) 0.9096(4)
C98 C 1.1160(11) 0.1146(8) 0.9179(2)
H112 H 1.1172 0.1096 0.9288
C99 C 1.1987(13) 0.1183(17) 0.9194(5)
O15 O 1.1997(8) 0.1421(9) 0.9316(3)
N18 N 1.2382(12) 0.0977(11) 0.9143(4)
C100 C 1.2778(14) 0.0963(16) 0.9248(5)
H113 H 1.2684 0.0853 0.9354
C101 C 1.3033(17) 0.1406(18) 0.9257(6)
O16 O 1.3160(10) 0.1688(11) 0.9166(4)
C102 C 1.2487(18) 0.0591(16) 0.9034(5)
H114 H 1.2597 0.0729 0.8936
H115 H 1.2193 0.0432 0.9011
C103 C 1.285(2) 0.0213(17) 0.9084(8)
H116 H 1.2720 -0.0026 0.9154
H117 H 1.3017 0.0074 0.8996
C104 C 1.3108(18) 0.0610(19) 0.9168(7)
H118 H 1.3302 0.0775 0.9091
H119 H 1.3316 0.0474 0.9247
N19 N 1.3081(9) 0.1574(10) 0.9419(3)
H120 H 1.2950 0.1398 0.9490
C105 C 1.3316(11) 0.1996(12) 0.9484(4)
H121 H 1.3163 0.2094 0.9581
H122 H 1.3298 0.2253 0.9408
C106 C 1.3851(12) 0.1868(14) 0.9518(4)
O17 O 1.3989(8) 0.1483(9) 0.9482(3)
N20 N 1.4040(10) 0.2178(11) 0.9601(3)
C107 C 1.4546(12) 0.2094(12) 0.9639(5)
H123 H 1.4723 0.1986 0.9546
C108 C 1.4604(14) 0.1771(13) 0.9778(5)
O18 O 1.4329(9) 0.1692(9) 0.9879(3)
C109 C 1.3878(13) 0.2661(11) 0.9630(5)
H124 H 1.3640 0.2669 0.9713
H125 H 1.3751 0.2801 0.9534
C110 C 1.4332(13) 0.2913(14) 0.9683(6)
H126 H 1.4418 0.3148 0.9605
H127 H 1.4276 0.3073 0.9783
C111 C 1.4733(13) 0.2562(12) 0.9703(5)
H128 H 1.4820 0.2532 0.9813
H129 H 1.5007 0.2662 0.9643
N21 N 1.5007(8) 0.1516(8) 0.9756(3)
H130 H 1.5156 0.1571 0.9670
C112 C 1.5057(7) 0.1154(8) 1.0010(3)
H131 H 1.4800 0.1331 1.0043
C113 C 1.5210(8) 0.1180(8) 0.9854(3)
C114 C 1.5594(8) 0.0915(8) 0.9805(2)
H132 H 1.5697 0.0932 0.9700
C115 C 1.5826(7) 0.0624(7) 0.9912(3)
H133 H 1.6083 0.0446 0.9879
C116 C 1.5673(8) 0.0597(8) 1.0068(3)
H134 H 1.5828 0.0403 1.0140
N22 N 1.5289(9) 0.0863(9) 1.0117(2)
Zn3 Zn 0.3516(6) 0.4366(6) 0.92680(18)
Cl5 Cl 0.3660(19) 0.3702(13) 0.9280(6)
Cl6 Cl 0.3737(18) 0.4983(13) 0.9418(5)
N23 N 0.3798(13) 0.4446(10) 0.9051(3)
C117 C 0.4277(13) 0.4351(11) 0.9040(4)
H135 H 0.4438 0.4229 0.9127
C118 C 0.4516(9) 0.4438(13) 0.8900(5)
H136 H 0.4837 0.4373 0.8892
C119 C 0.4277(14) 0.4620(12) 0.8770(4)
H137 H 0.4437 0.4678 0.8676
C120 C 0.3798(14) 0.4716(10) 0.8781(3)
C121 C 0.3558(9) 0.4629(10) 0.8922(4)
H138 H 0.3238 0.4693 0.8929
C122 C 0.3492(18) 0.4840(16) 0.8647(6)
O19 O 0.3687(9) 0.4696(9) 0.8507(3)
N24 N 0.3088(11) 0.5051(10) 0.8652(3)
H139 H 0.2994 0.5154 0.8742
C123 C 0.2797(14) 0.5123(16) 0.8523(5)
H140 H 0.2894 0.4901 0.8441
C124 C 0.2826(17) 0.557(2) 0.8459(7)
O20 O 0.2874(13) 0.5930(16) 0.8536(5)
C125 C 0.2323(19) 0.4991(18) 0.8571(6)
H141 H 0.2277 0.5102 0.8679
H142 H 0.2103 0.5163 0.8505
C126 C 0.2189(10) 0.4497(8) 0.8567(5)
C127 C 0.2119(9) 0.4199(12) 0.8438(3)
H143 H 0.2109 0.4321 0.8336
C128 C 0.2063(9) 0.3718(11) 0.8463(3)
H144 H 0.2015 0.3518 0.8377
C129 C 0.2078(10) 0.3535(9) 0.8616(4)
H145 H 0.2040 0.3214 0.8632
C130 C 0.2149(12) 0.3834(15) 0.8744(3)
H146 H 0.2159 0.3712 0.8846
C131 C 0.2204(11) 0.4315(13) 0.8720(4)
H147 H 0.2252 0.4514 0.8805
N25 N 0.2920(10) 0.5626(12) 0.8292(4)
H148 H 0.2926 0.5375 0.8235
C132 C 0.3006(12) 0.6070(13) 0.8212(4)
H149 H 0.2935 0.6332 0.8283
C133 C 0.2613(11) 0.6051(13) 0.8072(4)
O21 O 0.2562(8) 0.5701(9) 0.7989(3)
C134 C 0.3487(14) 0.6156(17) 0.8130(6)
H150 H 0.3523 0.6482 0.8094
C135 C 0.379(2) 0.605(3) 0.8279(8)
H151 H 0.3715 0.6269 0.8361
H152 H 0.3722 0.5734 0.8316
H153 H 0.4117 0.6071 0.8253
C136 C 0.361(2) 0.580(2) 0.8000(6)
H154 H 0.3909 0.5876 0.7956
H155 H 0.3617 0.5490 0.8045
H156 H 0.3371 0.5813 0.7919
N26 N 0.2450(10) 0.6491(11) 0.8034(3)
H157 H 0.2530 0.6729 0.8091
C137 C 0.2148(13) 0.6558(13) 0.7901(4)
H158 H 0.1920 0.6298 0.7899
C138 C 0.2408(14) 0.6559(14) 0.7747(5)
O22 O 0.2812(9) 0.6808(9) 0.7745(3)
C139 C 0.1854(16) 0.7055(15) 0.7920(5)
H159 H 0.1674 0.7058 0.8018
H160 H 0.2066 0.7323 0.7919
C140 C 0.1518(14) 0.7071(14) 0.7773(4)
C141 C 0.1076(16) 0.6862(11) 0.7766(4)
H161 H 0.0972 0.6675 0.7850
C142 C 0.0789(10) 0.6934(13) 0.7635(5)
H162 H 0.0493 0.6794 0.7631
C143 C 0.0944(15) 0.7214(14) 0.7511(4)
H163 H 0.0752 0.7262 0.7423
C144 C 0.1386(17) 0.7423(12) 0.7517(4)
H164 H 0.1490 0.7611 0.7434
C145 C 0.1673(11) 0.7352(13) 0.7649(6)
H165 H 0.1969 0.7491 0.7653
N27 N 0.2299(11) 0.6304(11) 0.7624(4)
H166 H 0.2052 0.6132 0.7633
C146 C 0.2536(13) 0.6276(12) 0.7478(5)
H167 H 0.2774 0.6525 0.7475
C147 C 0.223(2) 0.6368(19) 0.7369(7)
O23 O 0.1802(13) 0.6206(12) 0.7344(4)
C148 C 0.2774(16) 0.5821(15) 0.7438(5)
H168 H 0.2553 0.5556 0.7434
C149 C 0.3125(19) 0.580(2) 0.7305(6)
H169 H 0.3243 0.5486 0.7295
H170 H 0.2975 0.5893 0.7208
H171 H 0.3380 0.6013 0.7328
C150 C 0.3121(18) 0.578(2) 0.7576(6)
H172 H 0.3302 0.5498 0.7565
H173 H 0.3328 0.6049 0.7576
H174 H 0.2949 0.5774 0.7674
N28 N 0.2248(12) 0.6754(13) 0.7243(4)
H175 H 0.2424 0.6984 0.7273
C151 C 0.2068(15) 0.6831(11) 0.7100(4)
C152 C 0.1581(14) 0.6869(12) 0.7087(4)
H176 H 0.1391 0.6807 0.7174
C153 C 0.1380(9) 0.7000(12) 0.6943(6)
H177 H 0.1054 0.7026 0.6934
C154 C 0.1665(15) 0.7093(12) 0.6813(4)
H178 H 0.1530 0.7181 0.6717
C155 C 0.2151(14) 0.7054(12) 0.6826(4)
C156 C 0.2353(9) 0.6923(11) 0.6970(5)
H179 H 0.2678 0.6898 0.6978
C157 C 0.2458(17) 0.7152(19) 0.6695(5)
O24 O 0.2826(12) 0.7407(11) 0.6723(3)
N29 N 0.2446(16) 0.6995(15) 0.6560(5)
C158 C 0.2779(16) 0.7092(17) 0.6434(6)
H180 H 0.3102 0.7004 0.6462
C159 C 0.275(2) 0.758(2) 0.6376(7)
O25 O 0.2450(18) 0.7849(16) 0.6347(5)
C160 C 0.2177(19) 0.6607(19) 0.6491(6)
H181 H 0.1875 0.6733 0.6458
H182 H 0.2114 0.6383 0.6575
C161 C 0.238(2) 0.6329(16) 0.6349(6)
H183 H 0.2612 0.6094 0.6378
H184 H 0.2144 0.6200 0.6278
C162 C 0.259(2) 0.6797(18) 0.6296(6)
H185 H 0.2345 0.6976 0.6242
H186 H 0.2839 0.6737 0.6221
N30 N 0.3274(17) 0.7726(16) 0.6348(5)
H187 H 0.3509 0.7566 0.6383
C163 C 0.3334(18) 0.8176(16) 0.6255(5)
H188 H 0.3508 0.8403 0.6317
H189 H 0.3027 0.8309 0.6231
C164 C 0.361(2) 0.8071(19) 0.6096(6)
O26 O 0.3733(13) 0.7675(14) 0.6066(4)
N31 N 0.3535(19) 0.8388(19) 0.5993(6)
C165 C 0.3823(18) 0.8341(19) 0.5848(6)
H190 H 0.3720 0.8077 0.5781
C166 C 0.4346(19) 0.832(2) 0.5884(8)
O27 O 0.4565(17) 0.8518(18) 0.5983(6)
C167 C 0.335(3) 0.887(2) 0.6019(9)
H191 H 0.3449 0.8989 0.6122
H192 H 0.3013 0.8878 0.6012
C168 C 0.358(3) 0.915(2) 0.5883(9)
H193 H 0.3351 0.9353 0.5833
H194 H 0.3832 0.9353 0.5925
C169 C 0.379(2) 0.881(2) 0.5761(7)
H195 H 0.4101 0.8918 0.5727
H196 H 0.3588 0.8790 0.5669
N32 N 0.4520(13) 0.7947(14) 0.5799(5)
H197 H 0.4312 0.7766 0.5757
C170 C 0.5059(13) 0.7347(13) 0.5737(4)
H198 H 0.4808 0.7161 0.5704
C171 C 0.4987(13) 0.7820(14) 0.5772(5)
C172 C 0.5362(18) 0.8098(11) 0.5822(5)
H199 H 0.5314 0.8414 0.5845
C173 C 0.5809(15) 0.7903(17) 0.5836(5)
H200 H 0.6060 0.8089 0.5869
C174 C 0.5881(12) 0.7430(18) 0.5801(5)
H201 H 0.6180 0.7300 0.5811
N33 N 0.5506(16) 0.7152(11) 0.5752(4)
Zn3G Zn 0.5634(6) 0.6484(6) 0.57320(18)
Cl5G Cl 0.6298(13) 0.6340(19) 0.5720(6)
Cl6G Cl 0.5017(13) 0.6263(18) 0.5582(5)
N23G N 0.5554(10) 0.6202(13) 0.5949(3)
C117G C 0.5649(11) 0.5723(13) 0.5960(4)
H135G H 0.5771 0.5562 0.5873
C118G C 0.5562(13) 0.5484(9) 0.6100(5)
H136G H 0.5627 0.5163 0.6108
C119G C 0.5380(12) 0.5723(14) 0.6230(4)
H137G H 0.5322 0.5563 0.6324
C120G C 0.5284(10) 0.6202(14) 0.6219(3)
C121G C 0.5371(10) 0.6442(9) 0.6078(4)
H138G H 0.5307 0.6762 0.6071
C122G C 0.5160(16) 0.6508(18) 0.6353(6)
O19G O 0.5304(9) 0.6313(9) 0.6493(3)
N24G N 0.4949(10) 0.6912(11) 0.6348(3)
H139G H 0.4846 0.7006 0.6258
C123G C 0.4877(16) 0.7203(14) 0.6477(5)
H140G H 0.5099 0.7106 0.6559
C124G C 0.443(2) 0.7174(17) 0.6541(7)
O20G O 0.4070(16) 0.7126(13) 0.6464(5)
C125G C 0.5009(18) 0.7677(19) 0.6429(6)
H141G H 0.4898 0.7723 0.6321
H142G H 0.4837 0.7897 0.6495
C126G C 0.5503(8) 0.7811(10) 0.6433(5)
C127G C 0.5801(12) 0.7881(9) 0.6562(3)
H143G H 0.5679 0.7891 0.6664
C128G C 0.6282(11) 0.7937(9) 0.6537(3)
H144G H 0.6482 0.7985 0.6623
C129G C 0.6465(9) 0.7922(10) 0.6384(4)
H145G H 0.6786 0.7960 0.6368
C130G C 0.6166(15) 0.7851(12) 0.6256(3)
H146G H 0.6288 0.7841 0.6154
C131G C 0.5685(13) 0.7796(11) 0.6280(4)
H147G H 0.5486 0.7748 0.6195
N25G N 0.4374(12) 0.7080(10) 0.6708(4)
H148G H 0.4625 0.7074 0.6765
C132G C 0.3930(13) 0.6994(12) 0.6788(4)
H149G H 0.3668 0.7065 0.6717
C133G C 0.3949(13) 0.7387(11) 0.6928(4)
O21G O 0.4299(9) 0.7438(8) 0.7011(3)
C134G C 0.3844(17) 0.6513(14) 0.6870(6)
H150G H 0.3518 0.6477 0.6906
C135G C 0.395(3) 0.621(2) 0.6721(8)
H151G H 0.3731 0.6285 0.6639
H152G H 0.4266 0.6278 0.6684
H153G H 0.3929 0.5883 0.6747
C136G C 0.420(2) 0.639(2) 0.7000(6)
H154G H 0.4124 0.6091 0.7044
H155G H 0.4510 0.6383 0.6955
H156G H 0.4187 0.6629 0.7081
N26G N 0.3509(11) 0.7550(10) 0.6966(3)
H157G H 0.3271 0.7470 0.6909
C137G C 0.3442(13) 0.7852(13) 0.7099(4)
H158G H 0.3702 0.8080 0.7101
C138G C 0.3441(14) 0.7592(14) 0.7253(5)
O22G O 0.3192(9) 0.7188(9) 0.7255(3)
C139G C 0.2945(15) 0.8146(16) 0.7080(5)
H159G H 0.2942 0.8326 0.6982
H160G H 0.2677 0.7934 0.7081
C140G C 0.2929(14) 0.8482(14) 0.7227(4)
C141G C 0.3138(11) 0.8924(16) 0.7234(4)
H161G H 0.3325 0.9028 0.7150
C142G C 0.3066(13) 0.9211(10) 0.7365(5)
H162G H 0.3206 0.9507 0.7369
C143G C 0.2786(14) 0.9056(15) 0.7489(4)
H163G H 0.2738 0.9248 0.7577
C144G C 0.2577(12) 0.8614(17) 0.7483(4)
H164G H 0.2389 0.8510 0.7566
C145G C 0.2648(13) 0.8327(11) 0.7351(6)
H165G H 0.2509 0.8031 0.7347
N27G N 0.3696(11) 0.7701(11) 0.7376(4)
H166G H 0.3868 0.7948 0.7367
C146G C 0.3724(12) 0.7464(13) 0.7522(5)
H167G H 0.3475 0.7226 0.7525
C147G C 0.3632(19) 0.777(2) 0.7631(7)
O23G O 0.3794(12) 0.8198(13) 0.7656(4)
C148G C 0.4179(15) 0.7226(16) 0.7562(5)
H168G H 0.4444 0.7447 0.7566
C149G C 0.420(2) 0.6875(19) 0.7695(6)
H169G H 0.4514 0.6757 0.7705
H170G H 0.4107 0.7025 0.7792
H171G H 0.3987 0.6620 0.7672
C150G C 0.422(2) 0.6879(18) 0.7424(6)
H172G H 0.4502 0.6698 0.7435
H173G H 0.3951 0.6672 0.7424
H174G H 0.4226 0.7051 0.7326
N28G N 0.3246(13) 0.7752(12) 0.7757(4)
H175G H 0.3016 0.7576 0.7727
C151G C 0.3169(11) 0.7932(15) 0.7900(4)
C152G C 0.3131(12) 0.8419(14) 0.7913(4)
H176G H 0.3193 0.8609 0.7826
C153G C 0.3000(12) 0.8620(9) 0.8057(6)
H177G H 0.2974 0.8946 0.8066
C154G C 0.2907(12) 0.8335(15) 0.8187(4)
H178G H 0.2819 0.8470 0.8283
C155G C 0.2946(12) 0.7849(14) 0.8174(4)
C156G C 0.3077(11) 0.7647(9) 0.8030(5)
H179G H 0.3102 0.7322 0.8022
C157G C 0.2848(19) 0.7542(17) 0.8305(5)
O24G O 0.2593(11) 0.7174(12) 0.8277(3)
N29G N 0.3005(15) 0.7554(16) 0.8440(5)
C158G C 0.2908(17) 0.7221(16) 0.8566(6)
H180G H 0.2996 0.6898 0.8538
C159G C 0.242(2) 0.725(2) 0.8624(7)
O25G O 0.2151(16) 0.7550(18) 0.8653(5)
C160G C 0.3393(19) 0.7823(19) 0.8509(6)
H181G H 0.3267 0.8125 0.8542
H182G H 0.3617 0.7886 0.8425
C161G C 0.3671(16) 0.762(2) 0.8651(6)
H183G H 0.3906 0.7388 0.8622
H184G H 0.3800 0.7856 0.8722
C162G C 0.3203(18) 0.741(2) 0.8704(6)
H185G H 0.3024 0.7655 0.8758
H186G H 0.3263 0.7161 0.8779
N30G N 0.2274(16) 0.6726(17) 0.8652(5)
H187G H 0.2434 0.6491 0.8617
C163G C 0.1824(16) 0.6666(18) 0.8745(5)
H188G H 0.1597 0.6492 0.8683
H189G H 0.1691 0.6973 0.8769
C164G C 0.1929(19) 0.639(2) 0.8904(6)
O26G O 0.2325(14) 0.6267(13) 0.8934(4)
N31G N 0.1612(19) 0.6465(19) 0.9007(6)
C165G C 0.1659(19) 0.6177(18) 0.9152(6)
H190G H 0.1923 0.6280 0.9219
C166G C 0.168(2) 0.5654(19) 0.9116(8)
O27G O 0.1482(18) 0.5435(17) 0.9017(6)
C167G C 0.113(2) 0.665(3) 0.8981(9)
H191G H 0.1011 0.6551 0.8878
H192G H 0.1122 0.6987 0.8988
C168G C 0.085(2) 0.642(3) 0.9117(9)
H193G H 0.0647 0.6649 0.9167
H194G H 0.0647 0.6168 0.9075
C169G C 0.119(2) 0.621(2) 0.9239(7)
H195G H 0.1082 0.5899 0.9273
H196G H 0.1210 0.6412 0.9331
N32G N 0.2053(14) 0.5480(13) 0.9201(5)
H197G H 0.2234 0.5688 0.9243
C170G C 0.2653(13) 0.4941(13) 0.9263(4)
H198G H 0.2839 0.5192 0.9296
C171G C 0.2180(14) 0.5013(13) 0.9228(5)
C172G C 0.1902(11) 0.4638(18) 0.9178(5)
H199G H 0.1586 0.4686 0.9155
C173G C 0.2097(17) 0.4191(15) 0.9164(5)
H200G H 0.1911 0.3940 0.9131
C174G C 0.2570(18) 0.4119(12) 0.9199(5)
H201G H 0.2700 0.3820 0.9189
N33G N 0.2848(11) 0.4494(16) 0.9248(4)
O28 O 0.0837(18) 0.2457(18) 0.8921(6)
O29 O 0.262(3) 0.915(3) 0.9861(9)
O30 O 0.671(4) -0.005(4) 0.0370(14)
O31 O 0.104(3) 0.343(3) 0.8849(9)
O32 O 0.275(3) 0.279(3) 0.8798(10)
O33 O 0.0120(18) 0.3116(18) 0.8820(6)
O34 O 0.459(3) 0.901(3) 0.6355(9)
loop_
_geom_bond_atom_site_label_1
_geom_bond_atom_site_label_2
_geom_bond_site_symmetry_1
_geom_bond_site_symmetry_2
Zn1 Cl1 1_555 1_555
Cl2 Zn1 1_555 1_555
Zn2 Cl3 1_555 1_555
Cl4 Zn2 1_555 1_555
N1 Zn2 1_555 1_555
C1 N1 1_555 1_555
H1 C1 1_555 1_555
C2 C1 1_555 1_555
C3 C2 1_555 1_555
H2 C3 1_555 1_555
C4 C3 1_555 1_555
H3 C4 1_555 1_555
C5 N1 1_555 1_555
H4 C5 1_555 1_555
C6 C2 1_555 1_555
O1 C6 1_555 1_555
N2 C6 1_555 1_555
H5 N2 1_555 1_555
C7 N2 1_555 1_555
H6 C7 1_555 1_555
C8 C7 1_555 1_555
O2 C8 1_555 1_555
C9 C7 1_555 1_555
H7 C9 1_555 1_555
H8 C9 1_555 1_555
C10 C9 1_555 1_555
C11 C10 1_555 1_555
H9 C11 1_555 1_555
C12 C11 1_555 1_555
H10 C12 1_555 1_555
C13 C12 1_555 1_555
H11 C13 1_555 1_555
C14 C13 1_555 1_555
H12 C14 1_555 1_555
C15 C10 1_555 1_555
H13 C15 1_555 1_555
N3 C8 1_555 1_555
H14 N3 1_555 1_555
C16 N3 1_555 1_555
H15 C16 1_555 1_555
C17 C16 1_555 1_555
O3 C17 1_555 1_555
C18 C16 1_555 1_555
H16 C18 1_555 1_555
C19 C18 1_555 1_555
H17 C19 1_555 1_555
H18 C19 1_555 1_555
H19 C19 1_555 1_555
C20 C18 1_555 1_555
H20 C20 1_555 1_555
H21 C20 1_555 1_555
H22 C20 1_555 1_555
N4 C17 1_555 1_555
H23 N4 1_555 1_555
C21 N4 1_555 1_555
H24 C21 1_555 1_555
C22 C21 1_555 1_555
O4 C22 1_555 1_555
C23 C21 1_555 1_555
H25 C23 1_555 1_555
H26 C23 1_555 1_555
C24 C23 1_555 1_555
C25 C24 1_555 1_555
H27 C25 1_555 1_555
C26 C25 1_555 1_555
H28 C26 1_555 1_555
C27 C26 1_555 1_555
H29 C27 1_555 1_555
C28 C27 1_555 1_555
H30 C28 1_555 1_555
C29 C24 1_555 1_555
H31 C29 1_555 1_555
N5 C22 1_555 1_555
H32 N5 1_555 1_555
C30 N5 1_555 1_555
H33 C30 1_555 1_555
C31 C30 1_555 1_555
O5 C31 1_555 1_555
C32 C30 1_555 1_555
H34 C32 1_555 1_555
C33 C32 1_555 1_555
H35 C33 1_555 1_555
H36 C33 1_555 1_555
H37 C33 1_555 1_555
C34 C32 1_555 1_555
H38 C34 1_555 1_555
H39 C34 1_555 1_555
H40 C34 1_555 1_555
N6 C31 1_555 1_555
H41 N6 1_555 1_555
C35 N6 1_555 1_555
C36 C35 1_555 1_555
H42 C36 1_555 1_555
C37 C36 1_555 1_555
H43 C37 1_555 1_555
C38 C37 1_555 1_555
H44 C38 1_555 1_555
C39 C38 1_555 1_555
C40 C35 1_555 1_555
H45 C40 1_555 1_555
C41 C39 1_555 1_555
O6 C41 1_555 1_555
N7 C41 1_555 1_555
C42 N7 1_555 1_555
H46 C42 1_555 1_555
C43 C42 1_555 1_555
O7 C43 1_555 1_555
C44 N7 1_555 1_555
H47 C44 1_555 1_555
H48 C44 1_555 1_555
C45 C44 1_555 1_555
H49 C45 1_555 1_555
H50 C45 1_555 1_555
C46 C42 1_555 1_555
H51 C46 1_555 1_555
H52 C46 1_555 1_555
N8 C43 1_555 1_555
H53 N8 1_555 1_555
C47 N8 1_555 1_555
H54 C47 1_555 1_555
H55 C47 1_555 1_555
C48 C47 1_555 1_555
O8 C48 1_555 1_555
N9 C48 1_555 1_555
C49 N9 1_555 1_555
H56 C49 1_555 1_555
C50 C49 1_555 1_555
O9 C50 1_555 1_555
C51 N9 1_555 1_555
H57 C51 1_555 1_555
H58 C51 1_555 1_555
C52 C51 1_555 1_555
H59 C52 1_555 1_555
H60 C52 1_555 1_555
C53 C49 1_555 1_555
H61 C53 1_555 1_555
H62 C53 1_555 1_555
N10 C50 1_555 1_555
H63 N10 1_555 1_555
C54 H64 1_555 1_555
C55 N10 1_555 1_555
C56 C55 1_555 1_555
H65 C56 1_555 1_555
C57 C56 1_555 1_555
H66 C57 1_555 1_555
C58 C57 1_555 1_555
H67 C58 1_555 1_555
N11 Zn1 1_555 1_555
N12 Zn1 1_555 1_555
C59 N12 1_555 1_555
H68 C59 1_555 1_555
C60 C59 1_555 1_555
H69 C60 1_555 1_555
C61 C60 1_555 1_555
H70 C61 1_555 1_555
C62 C61 1_555 1_555
C63 N12 1_555 1_555
H71 C63 1_555 1_555
C64 C62 1_555 1_555
O10 C64 1_555 1_555
N13 C64 1_555 1_555
H72 N13 1_555 1_555
C65 N13 1_555 1_555
H73 C65 1_555 1_555
C66 C65 1_555 1_555
O11 C66 1_555 1_555
C67 C65 1_555 1_555
H74 C67 1_555 1_555
H75 C67 1_555 1_555
C68 C67 1_555 1_555
C69 C68 1_555 1_555
H76 C69 1_555 1_555
C70 C69 1_555 1_555
H77 C70 1_555 1_555
C71 C70 1_555 1_555
H78 C71 1_555 1_555
C72 C71 1_555 1_555
H79 C72 1_555 1_555
C73 C68 1_555 1_555
H80 C73 1_555 1_555
N14 C66 1_555 1_555
H81 N14 1_555 1_555
C74 N14 1_555 1_555
H82 C74 1_555 1_555
C75 C74 1_555 1_555
O12 C75 1_555 1_555
C76 C74 1_555 1_555
H83 C76 1_555 1_555
C77 C76 1_555 1_555
H84 C77 1_555 1_555
H85 C77 1_555 1_555
H86 C77 1_555 1_555
C78 C76 1_555 1_555
H87 C78 1_555 1_555
H88 C78 1_555 1_555
H89 C78 1_555 1_555
N15 C75 1_555 1_555
H90 N15 1_555 1_555
C79 N15 1_555 1_555
H91 C79 1_555 1_555
C80 C79 1_555 1_555
O13 C80 1_555 1_555
C81 C79 1_555 1_555
H92 C81 1_555 1_555
H93 C81 1_555 1_555
C82 C81 1_555 1_555
C83 C82 1_555 1_555
H94 C83 1_555 1_555
C84 C83 1_555 1_555
H95 C84 1_555 1_555
C85 C84 1_555 1_555
H96 C85 1_555 1_555
C86 C85 1_555 1_555
H97 C86 1_555 1_555
C87 C82 1_555 1_555
H98 C87 1_555 1_555
N16 C80 1_555 1_555
H99 N16 1_555 1_555
C88 N16 1_555 1_555
H100 C88 1_555 1_555
C89 C88 1_555 1_555
O14 C89 1_555 1_555
C90 C88 1_555 1_555
H101 C90 1_555 1_555
C91 C90 1_555 1_555
H102 C91 1_555 1_555
H103 C91 1_555 1_555
H104 C91 1_555 1_555
C92 C90 1_555 1_555
H105 C92 1_555 1_555
H106 C92 1_555 1_555
H107 C92 1_555 1_555
N17 C89 1_555 1_555
H108 N17 1_555 1_555
C93 N17 1_555 1_555
C94 C93 1_555 1_555
H109 C94 1_555 1_555
C95 C94 1_555 1_555
H110 C95 1_555 1_555
C96 C95 1_555 1_555
H111 C96 1_555 1_555
C97 C96 1_555 1_555
C98 C93 1_555 1_555
H112 C98 1_555 1_555
C99 C97 1_555 1_555
O15 C99 1_555 1_555
N18 C99 1_555 1_555
C100 N18 1_555 1_555
H113 C100 1_555 1_555
C101 C100 1_555 1_555
O16 C101 1_555 1_555
C102 N18 1_555 1_555
H114 C102 1_555 1_555
H115 C102 1_555 1_555
C103 C102 1_555 1_555
H116 C103 1_555 1_555
H117 C103 1_555 1_555
C104 C100 1_555 1_555
H118 C104 1_555 1_555
H119 C104 1_555 1_555
N19 C101 1_555 1_555
H120 N19 1_555 1_555
C105 N19 1_555 1_555
H121 C105 1_555 1_555
H122 C105 1_555 1_555
C106 C105 1_555 1_555
O17 C106 1_555 1_555
N20 C106 1_555 1_555
C107 N20 1_555 1_555
H123 C107 1_555 1_555
C108 C107 1_555 1_555
O18 C108 1_555 1_555
C109 N20 1_555 1_555
H124 C109 1_555 1_555
H125 C109 1_555 1_555
C110 C109 1_555 1_555
H126 C110 1_555 1_555
H127 C110 1_555 1_555
C111 C107 1_555 1_555
H128 C111 1_555 1_555
H129 C111 1_555 1_555
N21 C108 1_555 1_555
H130 N21 1_555 1_555
C112 H131 1_555 1_555
C113 N21 1_555 1_555
C114 C113 1_555 1_555
H132 C114 1_555 1_555
C115 C114 1_555 1_555
H133 C115 1_555 1_555
C116 C115 1_555 1_555
H134 C116 1_555 1_555
N22 Zn2 1_555 1_555
Zn3 Cl5 1_555 1_555
Cl6 Zn3 1_555 1_555
N23 Zn3 1_555 1_555
C117 N23 1_555 1_555
H135 C117 1_555 1_555
C118 C117 1_555 1_555
H136 C118 1_555 1_555
C119 C118 1_555 1_555
H137 C119 1_555 1_555
C120 C119 1_555 1_555
C121 N23 1_555 1_555
H138 C121 1_555 1_555
C122 C120 1_555 1_555
O19 C122 1_555 1_555
N24 C122 1_555 1_555
H139 N24 1_555 1_555
C123 N24 1_555 1_555
H140 C123 1_555 1_555
C124 C123 1_555 1_555
O20 C124 1_555 1_555
C125 C123 1_555 1_555
H141 C125 1_555 1_555
H142 C125 1_555 1_555
C126 C125 1_555 1_555
C127 C126 1_555 1_555
H143 C127 1_555 1_555
C128 C127 1_555 1_555
H144 C128 1_555 1_555
C129 C128 1_555 1_555
H145 C129 1_555 1_555
C130 C129 1_555 1_555
H146 C130 1_555 1_555
C131 C126 1_555 1_555
H147 C131 1_555 1_555
N25 C124 1_555 1_555
H148 N25 1_555 1_555
C132 N25 1_555 1_555
H149 C132 1_555 1_555
C133 C132 1_555 1_555
O21 C133 1_555 1_555
C134 C132 1_555 1_555
H150 C134 1_555 1_555
C135 C134 1_555 1_555
H151 C135 1_555 1_555
H152 C135 1_555 1_555
H153 C135 1_555 1_555
C136 C134 1_555 1_555
H154 C136 1_555 1_555
H155 C136 1_555 1_555
H156 C136 1_555 1_555
N26 C133 1_555 1_555
H157 N26 1_555 1_555
C137 N26 1_555 1_555
H158 C137 1_555 1_555
C138 C137 1_555 1_555
O22 C138 1_555 1_555
C139 C137 1_555 1_555
H159 C139 1_555 1_555
H160 C139 1_555 1_555
C140 C139 1_555 1_555
C141 C140 1_555 1_555
H161 C141 1_555 1_555
C142 C141 1_555 1_555
H162 C142 1_555 1_555
C143 C142 1_555 1_555
H163 C143 1_555 1_555
C144 C143 1_555 1_555
H164 C144 1_555 1_555
C145 C140 1_555 1_555
H165 C145 1_555 1_555
N27 C138 1_555 1_555
H166 N27 1_555 1_555
C146 N27 1_555 1_555
H167 C146 1_555 1_555
C147 C146 1_555 1_555
O23 C147 1_555 1_555
C148 C146 1_555 1_555
H168 C148 1_555 1_555
C149 C148 1_555 1_555
H169 C149 1_555 1_555
H170 C149 1_555 1_555
H171 C149 1_555 1_555
C150 C148 1_555 1_555
H172 C150 1_555 1_555
H173 C150 1_555 1_555
H174 C150 1_555 1_555
N28 C147 1_555 1_555
H175 N28 1_555 1_555
C151 N28 1_555 1_555
C152 C151 1_555 1_555
H176 C152 1_555 1_555
C153 C152 1_555 1_555
H177 C153 1_555 1_555
C154 C153 1_555 1_555
H178 C154 1_555 1_555
C155 C154 1_555 1_555
C156 C151 1_555 1_555
H179 C156 1_555 1_555
C157 C155 1_555 1_555
O24 C157 1_555 1_555
N29 C157 1_555 1_555
C158 N29 1_555 1_555
H180 C158 1_555 1_555
C159 C158 1_555 1_555
O25 C159 1_555 1_555
C160 N29 1_555 1_555
H181 C160 1_555 1_555
H182 C160 1_555 1_555
C161 C160 1_555 1_555
H183 C161 1_555 1_555
H184 C161 1_555 1_555
C162 C158 1_555 1_555
H185 C162 1_555 1_555
H186 C162 1_555 1_555
N30 C159 1_555 1_555
H187 N30 1_555 1_555
C163 N30 1_555 1_555
H188 C163 1_555 1_555
H189 C163 1_555 1_555
C164 C163 1_555 1_555
O26 C164 1_555 1_555
N31 C164 1_555 1_555
C165 N31 1_555 1_555
H190 C165 1_555 1_555
C166 C165 1_555 1_555
O27 C166 1_555 1_555
C167 N31 1_555 1_555
H191 C167 1_555 1_555
H192 C167 1_555 1_555
C168 C167 1_555 1_555
H193 C168 1_555 1_555
H194 C168 1_555 1_555
C169 C165 1_555 1_555
H195 C169 1_555 1_555
H196 C169 1_555 1_555
N32 C166 1_555 1_555
H197 N32 1_555 1_555
C170 H198 1_555 1_555
C171 N32 1_555 1_555
C172 C171 1_555 1_555
H199 C172 1_555 1_555
C173 C172 1_555 1_555
H200 C173 1_555 1_555
C174 C173 1_555 1_555
H201 C174 1_555 1_555
N33 C170 1_555 1_555
Zn3G N33 1_555 1_555
Cl5G Zn3G 1_555 1_555
Cl6G Zn3G 1_555 1_555
N23G Zn3G 1_555 1_555
C117G N23G 1_555 1_555
H135G C117G 1_555 1_555
C118G C117G 1_555 1_555
H136G C118G 1_555 1_555
C119G C118G 1_555 1_555
H137G C119G 1_555 1_555
C120G C119G 1_555 1_555
C121G N23G 1_555 1_555
H138G C121G 1_555 1_555
C122G C120G 1_555 1_555
O19G C122G 1_555 1_555
N24G C122G 1_555 1_555
H139G N24G 1_555 1_555
C123G N24G 1_555 1_555
H140G C123G 1_555 1_555
C124G C123G 1_555 1_555
O20G C124G 1_555 1_555
C125G C123G 1_555 1_555
H141G C125G 1_555 1_555
H142G C125G 1_555 1_555
C126G C125G 1_555 1_555
C127G C126G 1_555 1_555
H143G C127G 1_555 1_555
C128G C127G 1_555 1_555
H144G C128G 1_555 1_555
C129G C128G 1_555 1_555
H145G C129G 1_555 1_555
C130G C129G 1_555 1_555
H146G C130G 1_555 1_555
C131G C126G 1_555 1_555
H147G C131G 1_555 1_555
N25G C124G 1_555 1_555
H148G N25G 1_555 1_555
C132G N25G 1_555 1_555
H149G C132G 1_555 1_555
C133G C132G 1_555 1_555
O21G C133G 1_555 1_555
C134G C132G 1_555 1_555
H150G C134G 1_555 1_555
C135G C134G 1_555 1_555
H151G C135G 1_555 1_555
H152G C135G 1_555 1_555
H153G C135G 1_555 1_555
C136G C134G 1_555 1_555
H154G C136G 1_555 1_555
H155G C136G 1_555 1_555
H156G C136G 1_555 1_555
N26G C133G 1_555 1_555
H157G N26G 1_555 1_555
C137G N26G 1_555 1_555
H158G C137G 1_555 1_555
C138G C137G 1_555 1_555
O22G C138G 1_555 1_555
C139G C137G 1_555 1_555
H159G C139G 1_555 1_555
H160G C139G 1_555 1_555
C140G C139G 1_555 1_555
C141G C140G 1_555 1_555
H161G C141G 1_555 1_555
C142G C141G 1_555 1_555
H162G C142G 1_555 1_555
C143G C142G 1_555 1_555
H163G C143G 1_555 1_555
C144G C143G 1_555 1_555
H164G C144G 1_555 1_555
C145G C140G 1_555 1_555
H165G C145G 1_555 1_555
N27G C138G 1_555 1_555
H166G N27G 1_555 1_555
C146G N27G 1_555 1_555
H167G C146G 1_555 1_555
C147G C146G 1_555 1_555
O23G C147G 1_555 1_555
C148G C146G 1_555 1_555
H168G C148G 1_555 1_555
C149G C148G 1_555 1_555
H169G C149G 1_555 1_555
H170G C149G 1_555 1_555
H171G C149G 1_555 1_555
C150G C148G 1_555 1_555
H172G C150G 1_555 1_555
H173G C150G 1_555 1_555
H174G C150G 1_555 1_555
N28G C147G 1_555 1_555
H175G N28G 1_555 1_555
C151G N28G 1_555 1_555
C152G C151G 1_555 1_555
H176G C152G 1_555 1_555
C153G C152G 1_555 1_555
H177G C153G 1_555 1_555
C154G C153G 1_555 1_555
H178G C154G 1_555 1_555
C155G C154G 1_555 1_555
C156G C151G 1_555 1_555
H179G C156G 1_555 1_555
C157G C155G 1_555 1_555
O24G C157G 1_555 1_555
N29G C157G 1_555 1_555
C158G N29G 1_555 1_555
H180G C158G 1_555 1_555
C159G C158G 1_555 1_555
O25G C159G 1_555 1_555
C160G N29G 1_555 1_555
H181G C160G 1_555 1_555
H182G C160G 1_555 1_555
C161G C160G 1_555 1_555
H183G C161G 1_555 1_555
H184G C161G 1_555 1_555
C162G C158G 1_555 1_555
H185G C162G 1_555 1_555
H186G C162G 1_555 1_555
N30G C159G 1_555 1_555
H187G N30G 1_555 1_555
C163G N30G 1_555 1_555
H188G C163G 1_555 1_555
H189G C163G 1_555 1_555
C164G C163G 1_555 1_555
O26G C164G 1_555 1_555
N31G C164G 1_555 1_555
C165G N31G 1_555 1_555
H190G C165G 1_555 1_555
C166G C165G 1_555 1_555
O27G C166G 1_555 1_555
C167G N31G 1_555 1_555
H191G C167G 1_555 1_555
H192G C167G 1_555 1_555
C168G C167G 1_555 1_555
H193G C168G 1_555 1_555
H194G C168G 1_555 1_555
C169G C165G 1_555 1_555
H195G C169G 1_555 1_555
H196G C169G 1_555 1_555
N32G C166G 1_555 1_555
H197G N32G 1_555 1_555
C170G H198G 1_555 1_555
C171G N32G 1_555 1_555
C172G C171G 1_555 1_555
H199G C172G 1_555 1_555
C173G C172G 1_555 1_555
H200G C173G 1_555 1_555
C174G C173G 1_555 1_555
H201G C174G 1_555 1_555
N33G Zn3 1_555 1_555
C4 C5 1_555 1_555
C14 C15 1_555 1_555
C28 C29 1_555 1_555
C39 C40 1_555 1_555
C45 C46 1_555 1_555
C52 C53 1_555 1_555
C54 C55 1_555 1_555
C54 N11 1_555 1_555
C58 N11 1_555 1_555
C62 C63 1_555 1_555
C72 C73 1_555 1_555
C86 C87 1_555 1_555
C97 C98 1_555 1_555
C103 C104 1_555 1_555
C110 C111 1_555 1_555
C112 C113 1_555 1_555
C112 N22 1_555 1_555
C116 N22 1_555 1_555
C120 C121 1_555 1_555
C130 C131 1_555 1_555
C144 C145 1_555 1_555
C155 C156 1_555 1_555
C161 C162 1_555 1_555
C168 C169 1_555 1_555
C170 C171 1_555 1_555
C174 N33 1_555 1_555
C120G C121G 1_555 1_555
C130G C131G 1_555 1_555
C144G C145G 1_555 1_555
C155G C156G 1_555 1_555
C161G C162G 1_555 1_555
C168G C169G 1_555 1_555
C170G C171G 1_555 1_555
C170G N33G 1_555 1_555
C174G N33G 1_555 1_555

#END
