# generated using pymatgen
data_Zn4H201C174Br8N33O37
_symmetry_space_group_name_H-M   'P 1'
_cell_length_a   28.39310000
_cell_length_b   28.39310000
_cell_length_c   84.81700000
_cell_angle_alpha   90.00000000
_cell_angle_beta   90.00000000
_cell_angle_gamma   90.00000000
_symmetry_Int_Tables_number   1
_chemical_formula_structural   Zn4H201C174Br8N33O37
_chemical_formula_sum   'Zn32 H1608 C1392 Br64 N264 O296'
_cell_volume   68376.76207950
_cell_formula_units_Z   8
loop_
 _symmetry_equiv_pos_site_id
 _symmetry_equiv_pos_as_xyz
  1  'x, y, z'
loop_
 _atom_site_type_symbol
 _atom_site_label
 _atom_site_symmetry_multiplicity
 _atom_site_fract_x
 _atom_site_fract_y
 _atom_site_fract_z
 _atom_site_occupancy
  Zn  Zn1  1  0.441540  0.896100  0.981530  1
  Zn  Zn2  1  0.558460  0.103900  0.481530  1
  Zn  Zn3  1  0.603900  0.941540  0.231530  1
  Zn  Zn4  1  0.396100  0.058460  0.731530  1
  Zn  Zn5  1  0.058460  0.396100  0.268470  1
  Zn  Zn6  1  0.941540  0.603900  0.768470  1
  Zn  Zn7  1  0.896100  0.441540  0.018470  1
  Zn  Zn8  1  0.103900  0.558460  0.518470  1
  Zn  Zn9  1  0.508550  0.085200  0.034600  1
  Zn  Zn10  1  0.491450  0.914800  0.534600  1
  Zn  Zn11  1  0.414800  0.008550  0.284600  1
  Zn  Zn12  1  0.585200  0.991450  0.784600  1
  Zn  Zn13  1  0.991450  0.585200  0.215400  1
  Zn  Zn14  1  0.008550  0.414800  0.715400  1
  Zn  Zn15  1  0.085200  0.508550  0.965400  1
  Zn  Zn16  1  0.914800  0.491450  0.465400  1
  Zn  Zn17  1  0.359600  0.405900  0.922500  1
  Zn  Zn18  1  0.640400  0.594100  0.422500  1
  Zn  Zn19  1  0.094100  0.859600  0.172500  1
  Zn  Zn20  1  0.905900  0.140400  0.672500  1
  Zn  Zn21  1  0.140400  0.905900  0.327500  1
  Zn  Zn22  1  0.859600  0.094100  0.827500  1
  Zn  Zn23  1  0.405900  0.359600  0.077500  1
  Zn  Zn24  1  0.594100  0.640400  0.577500  1
  Zn  Zn25  1  0.356500  0.446600  0.926900  1.0
  Zn  Zn26  1  0.643500  0.553400  0.426900  1.0
  Zn  Zn27  1  0.053400  0.856500  0.176900  1.0
  Zn  Zn28  1  0.946600  0.143500  0.676900  1.0
  Zn  Zn29  1  0.143500  0.946600  0.323100  1.0
  Zn  Zn30  1  0.856500  0.053400  0.823100  1.0
  Zn  Zn31  1  0.446600  0.356500  0.073100  1.0
  Zn  Zn32  1  0.553400  0.643500  0.573100  1.0
  H  H33  1  0.411700  0.110200  0.022600  1
  H  H34  1  0.588300  0.889800  0.522600  1
  H  H35  1  0.389800  0.911700  0.272600  1
  H  H36  1  0.610200  0.088300  0.772600  1
  H  H37  1  0.088300  0.610200  0.227400  1
  H  H38  1  0.911700  0.389800  0.727400  1
  H  H39  1  0.110200  0.411700  0.977400  1
  H  H40  1  0.889800  0.588300  0.477400  1
  H  H41  1  0.336100  0.991800  0.016900  1
  H  H42  1  0.663900  0.008200  0.516900  1
  H  H43  1  0.508200  0.836100  0.266900  1
  H  H44  1  0.491800  0.163900  0.766900  1
  H  H45  1  0.163900  0.491800  0.233100  1
  H  H46  1  0.836100  0.508200  0.733100  1
  H  H47  1  0.991800  0.336100  0.983100  1
  H  H48  1  0.008200  0.663900  0.483100  1
  H  H49  1  0.397800  0.947900  0.027200  1
  H  H50  1  0.602200  0.052100  0.527200  1
  H  H51  1  0.552100  0.897800  0.277200  1
  H  H52  1  0.447900  0.102200  0.777200  1
  H  H53  1  0.102200  0.447900  0.222800  1
  H  H54  1  0.897800  0.552100  0.722800  1
  H  H55  1  0.947900  0.397800  0.972800  1
  H  H56  1  0.052100  0.602200  0.472800  1
  H  H57  1  0.466600  0.985200  0.035100  1
  H  H58  1  0.533400  0.014800  0.535100  1
  H  H59  1  0.514800  0.966600  0.285100  1
  H  H60  1  0.485200  0.033400  0.785100  1
  H  H61  1  0.033400  0.485200  0.214900  1
  H  H62  1  0.966600  0.514800  0.714900  1
  H  H63  1  0.985200  0.466600  0.964900  1
  H  H64  1  0.014800  0.533400  0.464900  1
  H  H65  1  0.361600  0.129900  0.003200  1
  H  H66  1  0.638400  0.870100  0.503200  1
  H  H67  1  0.370100  0.861600  0.253200  1
  H  H68  1  0.629900  0.138400  0.753200  1
  H  H69  1  0.138400  0.629900  0.246800  1
  H  H70  1  0.861600  0.370100  0.746800  1
  H  H71  1  0.129900  0.361600  0.996800  1
  H  H72  1  0.870100  0.638400  0.496800  1
  H  H73  1  0.269700  0.153900  0.008600  1
  H  H74  1  0.730300  0.846100  0.508600  1
  H  H75  1  0.346100  0.769700  0.258600  1
  H  H76  1  0.653900  0.230300  0.758600  1
  H  H77  1  0.230300  0.653900  0.241400  1
  H  H78  1  0.769700  0.346100  0.741400  1
  H  H79  1  0.153900  0.269700  0.991400  1
  H  H80  1  0.846100  0.730300  0.491400  1
  H  H81  1  0.287800  0.220200  0.993400  1
  H  H82  1  0.712200  0.779800  0.493400  1
  H  H83  1  0.279800  0.787800  0.243400  1
  H  H84  1  0.720200  0.212200  0.743400  1
  H  H85  1  0.212200  0.720200  0.256600  1
  H  H86  1  0.787800  0.279800  0.756600  1
  H  H87  1  0.220200  0.287800  0.006600  1
  H  H88  1  0.779800  0.712200  0.506600  1
  H  H89  1  0.340500  0.202700  0.993600  1
  H  H90  1  0.659500  0.797300  0.493600  1
  H  H91  1  0.297300  0.840500  0.243600  1
  H  H92  1  0.702700  0.159500  0.743600  1
  H  H93  1  0.159500  0.702700  0.256400  1
  H  H94  1  0.840500  0.297300  0.756400  1
  H  H95  1  0.202700  0.340500  0.006400  1
  H  H96  1  0.797300  0.659500  0.506400  1
  H  H97  1  0.248200  0.217200  0.024100  1
  H  H98  1  0.751800  0.782800  0.524100  1
  H  H99  1  0.282800  0.748200  0.274100  1
  H  H100  1  0.717200  0.251800  0.774100  1
  H  H101  1  0.251800  0.717200  0.225900  1
  H  H102  1  0.748200  0.282800  0.725900  1
  H  H103  1  0.217200  0.248200  0.975900  1
  H  H104  1  0.782800  0.751800  0.475900  1
  H  H105  1  0.255700  0.239100  0.050300  1
  H  H106  1  0.744300  0.760900  0.550300  1
  H  H107  1  0.260900  0.755700  0.300300  1
  H  H108  1  0.739100  0.244300  0.800300  1
  H  H109  1  0.244300  0.739100  0.199700  1
  H  H110  1  0.755700  0.260900  0.699700  1
  H  H111  1  0.239100  0.255700  0.949700  1
  H  H112  1  0.760900  0.744300  0.449700  1
  H  H113  1  0.329300  0.257900  0.060500  1
  H  H114  1  0.670700  0.742100  0.560500  1
  H  H115  1  0.242100  0.829300  0.310500  1
  H  H116  1  0.757900  0.170700  0.810500  1
  H  H117  1  0.170700  0.757900  0.189500  1
  H  H118  1  0.829300  0.242100  0.689500  1
  H  H119  1  0.257900  0.329300  0.939500  1
  H  H120  1  0.742100  0.670700  0.439500  1
  H  H121  1  0.395200  0.254900  0.044400  1
  H  H122  1  0.604800  0.745100  0.544400  1
  H  H123  1  0.245100  0.895200  0.294400  1
  H  H124  1  0.754900  0.104800  0.794400  1
  H  H125  1  0.104800  0.754900  0.205600  1
  H  H126  1  0.895200  0.245100  0.705600  1
  H  H127  1  0.254900  0.395200  0.955600  1
  H  H128  1  0.745100  0.604800  0.455600  1
  H  H129  1  0.387700  0.233000  0.018100  1
  H  H130  1  0.612300  0.767000  0.518100  1
  H  H131  1  0.267000  0.887700  0.268100  1
  H  H132  1  0.733000  0.112300  0.768100  1
  H  H133  1  0.112300  0.733000  0.231900  1
  H  H134  1  0.887700  0.267000  0.731900  1
  H  H135  1  0.233000  0.387700  0.981900  1
  H  H136  1  0.767000  0.612300  0.481900  1
  H  H137  1  0.213000  0.149400  0.993700  1
  H  H138  1  0.787000  0.850600  0.493700  1
  H  H139  1  0.350600  0.713000  0.243700  1
  H  H140  1  0.649400  0.287000  0.743700  1
  H  H141  1  0.287000  0.649400  0.256300  1
  H  H142  1  0.713000  0.350600  0.756300  1
  H  H143  1  0.149400  0.213000  0.006300  1
  H  H144  1  0.850600  0.787000  0.506300  1
  H  H145  1  0.215300  0.128100  0.961700  1
  H  H146  1  0.784700  0.871900  0.461700  1
  H  H147  1  0.371900  0.715300  0.211700  1
  H  H148  1  0.628100  0.284700  0.711700  1
  H  H149  1  0.284700  0.628100  0.288300  1
  H  H150  1  0.715300  0.371900  0.788300  1
  H  H151  1  0.128100  0.215300  0.038300  1
  H  H152  1  0.871900  0.784700  0.538300  1
  H  H153  1  0.158900  0.079100  0.984400  1
  H  H154  1  0.841100  0.920900  0.484400  1
  H  H155  1  0.420900  0.658900  0.234400  1
  H  H156  1  0.579100  0.341100  0.734400  1
  H  H157  1  0.341100  0.579100  0.265600  1
  H  H158  1  0.658900  0.420900  0.765600  1
  H  H159  1  0.079100  0.158900  0.015600  1
  H  H160  1  0.920900  0.841100  0.515600  1
  H  H161  1  0.239100  0.056100  0.981900  1
  H  H162  1  0.760900  0.943900  0.481900  1
  H  H163  1  0.443900  0.739100  0.231900  1
  H  H164  1  0.556100  0.260900  0.731900  1
  H  H165  1  0.260900  0.556100  0.268100  1
  H  H166  1  0.739100  0.443900  0.768100  1
  H  H167  1  0.056100  0.239100  0.018100  1
  H  H168  1  0.943900  0.760900  0.518100  1
  H  H169  1  0.206300  0.014300  0.976900  1
  H  H170  1  0.793700  0.985700  0.476900  1
  H  H171  1  0.485700  0.706300  0.226900  1
  H  H172  1  0.514300  0.293700  0.726900  1
  H  H173  1  0.293700  0.514300  0.273100  1
  H  H174  1  0.706300  0.485700  0.773100  1
  H  H175  1  0.014300  0.206300  0.023100  1
  H  H176  1  0.985700  0.793700  0.523100  1
  H  H177  1  0.231300  0.045000  0.964000  1
  H  H178  1  0.768700  0.955000  0.464000  1
  H  H179  1  0.455000  0.731300  0.214000  1
  H  H180  1  0.545000  0.268700  0.714000  1
  H  H181  1  0.268700  0.545000  0.286000  1
  H  H182  1  0.731300  0.455000  0.786000  1
  H  H183  1  0.045000  0.231300  0.036000  1
  H  H184  1  0.955000  0.768700  0.536000  1
  H  H185  1  0.125800  0.032700  0.964600  1
  H  H186  1  0.874200  0.967300  0.464600  1
  H  H187  1  0.467300  0.625800  0.214600  1
  H  H188  1  0.532700  0.374200  0.714600  1
  H  H189  1  0.374200  0.532700  0.285400  1
  H  H190  1  0.625800  0.467300  0.785400  1
  H  H191  1  0.032700  0.125800  0.035400  1
  H  H192  1  0.967300  0.874200  0.535400  1
  H  H193  1  0.111800  0.085300  0.961500  1
  H  H194  1  0.888200  0.914700  0.461500  1
  H  H195  1  0.414700  0.611800  0.211500  1
  H  H196  1  0.585300  0.388200  0.711500  1
  H  H197  1  0.388200  0.585300  0.288500  1
  H  H198  1  0.611800  0.414700  0.788500  1
  H  H199  1  0.085300  0.111800  0.038500  1
  H  H200  1  0.914700  0.888200  0.538500  1
  H  H201  1  0.152000  0.061700  0.951600  1
  H  H202  1  0.848000  0.938300  0.451600  1
  H  H203  1  0.438300  0.652000  0.201600  1
  H  H204  1  0.561700  0.348000  0.701600  1
  H  H205  1  0.348000  0.561700  0.298400  1
  H  H206  1  0.652000  0.438300  0.798400  1
  H  H207  1  0.061700  0.152000  0.048400  1
  H  H208  1  0.938300  0.848000  0.548400  1
  H  H209  1  0.160000  0.170400  0.949100  1
  H  H210  1  0.840000  0.829600  0.449100  1
  H  H211  1  0.329600  0.660000  0.199100  1
  H  H212  1  0.670400  0.340000  0.699100  1
  H  H213  1  0.340000  0.670400  0.300900  1
  H  H214  1  0.660000  0.329600  0.800900  1
  H  H215  1  0.170400  0.160000  0.050900  1
  H  H216  1  0.829600  0.840000  0.550900  1
  H  H217  1  0.110400  0.241200  0.962800  1
  H  H218  1  0.889600  0.758800  0.462800  1
  H  H219  1  0.258800  0.610400  0.212800  1
  H  H220  1  0.741200  0.389600  0.712800  1
  H  H221  1  0.389600  0.741200  0.287200  1
  H  H222  1  0.610400  0.258800  0.787200  1
  H  H223  1  0.241200  0.110400  0.037200  1
  H  H224  1  0.758800  0.889600  0.537200  1
  H  H225  1  0.146400  0.244000  0.935500  1
  H  H226  1  0.853600  0.756000  0.435500  1
  H  H227  1  0.256000  0.646400  0.185500  1
  H  H228  1  0.744000  0.353600  0.685500  1
  H  H229  1  0.353600  0.744000  0.314500  1
  H  H230  1  0.646400  0.256000  0.814500  1
  H  H231  1  0.244000  0.146400  0.064500  1
  H  H232  1  0.756000  0.853600  0.564500  1
  H  H233  1  0.104500  0.211600  0.929800  1
  H  H234  1  0.895500  0.788400  0.429800  1
  H  H235  1  0.288400  0.604500  0.179800  1
  H  H236  1  0.711600  0.395500  0.679800  1
  H  H237  1  0.395500  0.711600  0.320200  1
  H  H238  1  0.604500  0.288400  0.820200  1
  H  H239  1  0.211600  0.104500  0.070200  1
  H  H240  1  0.788400  0.895500  0.570200  1
  H  H241  1  0.128400  0.326600  0.944800  1
  H  H242  1  0.871600  0.673400  0.444800  1
  H  H243  1  0.173400  0.628400  0.194800  1
  H  H244  1  0.826600  0.371600  0.694800  1
  H  H245  1  0.371600  0.826600  0.305200  1
  H  H246  1  0.628400  0.173400  0.805200  1
  H  H247  1  0.326600  0.128400  0.055200  1
  H  H248  1  0.673400  0.871600  0.555200  1
  H  H249  1  0.081700  0.393400  0.942700  1
  H  H250  1  0.918300  0.606600  0.442700  1
  H  H251  1  0.106600  0.581700  0.192700  1
  H  H252  1  0.893400  0.418300  0.692700  1
  H  H253  1  0.418300  0.893400  0.307300  1
  H  H254  1  0.581700  0.106600  0.807300  1
  H  H255  1  0.393400  0.081700  0.057300  1
  H  H256  1  0.606600  0.918300  0.557300  1
  H  H257  1  0.005100  0.387300  0.933500  1
  H  H258  1  0.994900  0.612700  0.433500  1
  H  H259  1  0.112700  0.505100  0.183500  1
  H  H260  1  0.887300  0.494900  0.683500  1
  H  H261  1  0.494900  0.887300  0.316500  1
  H  H262  1  0.505100  0.112700  0.816500  1
  H  H263  1  0.387300  0.005100  0.066500  1
  H  H264  1  0.612700  0.994900  0.566500  1
  H  H265  1  0.975100  0.314400  0.926200  1
  H  H266  1  0.024900  0.685600  0.426200  1
  H  H267  1  0.185600  0.475100  0.176200  1
  H  H268  1  0.814400  0.524900  0.676200  1
  H  H269  1  0.524900  0.814400  0.323800  1
  H  H270  1  0.475100  0.185600  0.823800  1
  H  H271  1  0.314400  0.975100  0.073800  1
  H  H272  1  0.685600  0.024900  0.573800  1
  H  H273  1  0.021800  0.247600  0.928300  1
  H  H274  1  0.978200  0.752400  0.428300  1
  H  H275  1  0.252400  0.521800  0.178300  1
  H  H276  1  0.747600  0.478200  0.678300  1
  H  H277  1  0.478200  0.747600  0.321700  1
  H  H278  1  0.521800  0.252400  0.821700  1
  H  H279  1  0.247600  0.021800  0.071700  1
  H  H280  1  0.752400  0.978200  0.571700  1
  H  H281  1  0.041500  0.234300  0.971600  1
  H  H282  1  0.958500  0.765700  0.471600  1
  H  H283  1  0.265700  0.541500  0.221600  1
  H  H284  1  0.734300  0.458500  0.721600  1
  H  H285  1  0.458500  0.734300  0.278400  1
  H  H286  1  0.541500  0.265700  0.778400  1
  H  H287  1  0.234300  0.041500  0.028400  1
  H  H288  1  0.765700  0.958500  0.528400  1
  H  H289  1  0.976100  0.171900  0.959700  1
  H  H290  1  0.023900  0.828100  0.459700  1
  H  H291  1  0.328100  0.476100  0.209700  1
  H  H292  1  0.671900  0.523900  0.709700  1
  H  H293  1  0.523900  0.671900  0.290300  1
  H  H294  1  0.476100  0.328100  0.790300  1
  H  H295  1  0.171900  0.976100  0.040300  1
  H  H296  1  0.828100  0.023900  0.540300  1
  H  H297  1  0.984200  0.185600  0.992100  1
  H  H298  1  0.015800  0.814400  0.492100  1
  H  H299  1  0.314400  0.484200  0.242100  1
  H  H300  1  0.685600  0.515800  0.742100  1
  H  H301  1  0.515800  0.685600  0.257900  1
  H  H302  1  0.484200  0.314400  0.757900  1
  H  H303  1  0.185600  0.984200  0.007900  1
  H  H304  1  0.814400  0.015800  0.507900  1
  H  H305  1  0.006300  0.108600  0.995400  1
  H  H306  1  0.993700  0.891400  0.495400  1
  H  H307  1  0.391400  0.506300  0.245400  1
  H  H308  1  0.608600  0.493700  0.745400  1
  H  H309  1  0.493700  0.608600  0.254600  1
  H  H310  1  0.506300  0.391400  0.754600  1
  H  H311  1  0.108600  0.006300  0.004600  1
  H  H312  1  0.891400  0.993700  0.504600  1
  H  H313  1  0.009600  0.102200  0.977100  1
  H  H314  1  0.990400  0.897800  0.477100  1
  H  H315  1  0.397800  0.509600  0.227100  1
  H  H316  1  0.602200  0.490400  0.727100  1
  H  H317  1  0.490400  0.602200  0.272900  1
  H  H318  1  0.509600  0.397800  0.772900  1
  H  H319  1  0.102200  0.009600  0.022900  1
  H  H320  1  0.897800  0.990400  0.522900  1
  H  H321  1  0.044100  0.136700  0.985700  1
  H  H322  1  0.955900  0.863300  0.485700  1
  H  H323  1  0.363300  0.544100  0.235700  1
  H  H324  1  0.636700  0.455900  0.735700  1
  H  H325  1  0.455900  0.636700  0.264300  1
  H  H326  1  0.544100  0.363300  0.764300  1
  H  H327  1  0.136700  0.044100  0.014300  1
  H  H328  1  0.863300  0.955900  0.514300  1
  H  H329  1  0.906200  0.155700  0.987600  1
  H  H330  1  0.093800  0.844300  0.487600  1
  H  H331  1  0.344300  0.406200  0.237600  1
  H  H332  1  0.655700  0.593800  0.737600  1
  H  H333  1  0.593800  0.655700  0.262400  1
  H  H334  1  0.406200  0.344300  0.762400  1
  H  H335  1  0.155700  0.906200  0.012400  1
  H  H336  1  0.844300  0.093800  0.512400  1
  H  H337  1  0.929400  0.109200  0.981300  1
  H  H338  1  0.070600  0.890800  0.481300  1
  H  H339  1  0.390800  0.429400  0.231300  1
  H  H340  1  0.609200  0.570600  0.731300  1
  H  H341  1  0.570600  0.609200  0.268700  1
  H  H342  1  0.429400  0.390800  0.768700  1
  H  H343  1  0.109200  0.929400  0.018700  1
  H  H344  1  0.890800  0.070600  0.518700  1
  H  H345  1  0.936800  0.124600  0.998900  1
  H  H346  1  0.063200  0.875400  0.498900  1
  H  H347  1  0.375400  0.436800  0.248900  1
  H  H348  1  0.624600  0.563200  0.748900  1
  H  H349  1  0.563200  0.624600  0.251100  1
  H  H350  1  0.436800  0.375400  0.751100  1
  H  H351  1  0.124600  0.936800  0.001100  1
  H  H352  1  0.875400  0.063200  0.501100  1
  H  H353  1  0.911300  0.195500  0.952800  1
  H  H354  1  0.088700  0.804500  0.452800  1
  H  H355  1  0.304500  0.411300  0.202800  1
  H  H356  1  0.695500  0.588700  0.702800  1
  H  H357  1  0.588700  0.695500  0.297200  1
  H  H358  1  0.411300  0.304500  0.797200  1
  H  H359  1  0.195500  0.911300  0.047200  1
  H  H360  1  0.804500  0.088700  0.547200  1
  H  H361  1  0.896500  0.315400  0.959400  1
  H  H362  1  0.103500  0.684600  0.459400  1
  H  H363  1  0.184600  0.396500  0.209400  1
  H  H364  1  0.815400  0.603500  0.709400  1
  H  H365  1  0.603500  0.815400  0.290600  1
  H  H366  1  0.396500  0.184600  0.790600  1
  H  H367  1  0.315400  0.896500  0.040600  1
  H  H368  1  0.684600  0.103500  0.540600  1
  H  H369  1  0.826200  0.356600  0.957500  1
  H  H370  1  0.173800  0.643400  0.457500  1
  H  H371  1  0.143400  0.326200  0.207500  1
  H  H372  1  0.856600  0.673800  0.707500  1
  H  H373  1  0.673800  0.856600  0.292500  1
  H  H374  1  0.326200  0.143400  0.792500  1
  H  H375  1  0.356600  0.826200  0.042500  1
  H  H376  1  0.643400  0.173800  0.542500  1
  H  H377  1  0.755600  0.316100  0.955100  1
  H  H378  1  0.244400  0.683900  0.455100  1
  H  H379  1  0.183900  0.255600  0.205100  1
  H  H380  1  0.816100  0.744400  0.705100  1
  H  H381  1  0.744400  0.816100  0.294900  1
  H  H382  1  0.255600  0.183900  0.794900  1
  H  H383  1  0.316100  0.755600  0.044900  1
  H  H384  1  0.683900  0.244400  0.544900  1
  H  H385  1  0.825500  0.193200  0.956600  1
  H  H386  1  0.174500  0.806800  0.456600  1
  H  H387  1  0.306800  0.325500  0.206600  1
  H  H388  1  0.693200  0.674500  0.706600  1
  H  H389  1  0.674500  0.693200  0.293400  1
  H  H390  1  0.325500  0.306800  0.793400  1
  H  H391  1  0.193200  0.825500  0.043400  1
  H  H392  1  0.806800  0.174500  0.543400  1
  H  H393  1  0.669800  0.175700  0.968500  1
  H  H394  1  0.330200  0.824300  0.468500  1
  H  H395  1  0.324300  0.169800  0.218500  1
  H  H396  1  0.675700  0.830200  0.718500  1
  H  H397  1  0.830200  0.675700  0.281500  1
  H  H398  1  0.169800  0.324300  0.781500  1
  H  H399  1  0.175700  0.669800  0.031500  1
  H  H400  1  0.824300  0.330200  0.531500  1
  H  H401  1  0.674700  0.304500  0.962100  1
  H  H402  1  0.325300  0.695500  0.462100  1
  H  H403  1  0.195500  0.174700  0.212100  1
  H  H404  1  0.804500  0.825300  0.712100  1
  H  H405  1  0.825300  0.804500  0.287900  1
  H  H406  1  0.174700  0.195500  0.787900  1
  H  H407  1  0.304500  0.674700  0.037900  1
  H  H408  1  0.695500  0.325300  0.537900  1
  H  H409  1  0.719400  0.299000  0.973300  1
  H  H410  1  0.280600  0.701000  0.473300  1
  H  H411  1  0.201000  0.219400  0.223300  1
  H  H412  1  0.799000  0.780600  0.723300  1
  H  H413  1  0.780600  0.799000  0.276700  1
  H  H414  1  0.219400  0.201000  0.776700  1
  H  H415  1  0.299000  0.719400  0.026700  1
  H  H416  1  0.701000  0.280600  0.526700  1
  H  H417  1  0.678500  0.240400  0.988500  1
  H  H418  1  0.321500  0.759600  0.488500  1
  H  H419  1  0.259600  0.178500  0.238500  1
  H  H420  1  0.740400  0.821500  0.738500  1
  H  H421  1  0.821500  0.740400  0.261500  1
  H  H422  1  0.178500  0.259600  0.761500  1
  H  H423  1  0.240400  0.678500  0.011500  1
  H  H424  1  0.759600  0.321500  0.511500  1
  H  H425  1  0.645400  0.285100  0.988200  1
  H  H426  1  0.354600  0.714900  0.488200  1
  H  H427  1  0.214900  0.145400  0.238200  1
  H  H428  1  0.785100  0.854600  0.738200  1
  H  H429  1  0.854600  0.785100  0.261800  1
  H  H430  1  0.145400  0.214900  0.761800  1
  H  H431  1  0.285100  0.645400  0.011800  1
  H  H432  1  0.714900  0.354600  0.511800  1
  H  H433  1  0.605600  0.253700  0.965100  1
  H  H434  1  0.394400  0.746300  0.465100  1
  H  H435  1  0.246300  0.105600  0.215100  1
  H  H436  1  0.753700  0.894400  0.715100  1
  H  H437  1  0.894400  0.753700  0.284900  1
  H  H438  1  0.105600  0.246300  0.784900  1
  H  H439  1  0.253700  0.605600  0.034900  1
  H  H440  1  0.746300  0.394400  0.534900  1
  H  H441  1  0.603700  0.214100  0.978400  1
  H  H442  1  0.396300  0.785900  0.478400  1
  H  H443  1  0.285900  0.103700  0.228400  1
  H  H444  1  0.714100  0.896300  0.728400  1
  H  H445  1  0.896300  0.714100  0.271600  1
  H  H446  1  0.103700  0.285900  0.771600  1
  H  H447  1  0.214100  0.603700  0.021600  1
  H  H448  1  0.785900  0.396300  0.521600  1
  H  H449  1  0.639000  0.132100  0.949200  1
  H  H450  1  0.361000  0.867900  0.449200  1
  H  H451  1  0.367900  0.139000  0.199200  1
  H  H452  1  0.632100  0.861000  0.699200  1
  H  H453  1  0.861000  0.632100  0.300800  1
  H  H454  1  0.139000  0.367900  0.800800  1
  H  H455  1  0.132100  0.639000  0.050800  1
  H  H456  1  0.867900  0.361000  0.550800  1
  H  H457  1  0.625100  0.110300  0.923500  1
  H  H458  1  0.374900  0.889700  0.423500  1
  H  H459  1  0.389700  0.125100  0.173500  1
  H  H460  1  0.610300  0.874900  0.673500  1
  H  H461  1  0.874900  0.610300  0.326500  1
  H  H462  1  0.125100  0.389700  0.826500  1
  H  H463  1  0.110300  0.625100  0.076500  1
  H  H464  1  0.889700  0.374900  0.576500  1
  H  H465  1  0.608700  0.162400  0.920000  1
  H  H466  1  0.391300  0.837600  0.420000  1
  H  H467  1  0.337600  0.108700  0.170000  1
  H  H468  1  0.662400  0.891300  0.670000  1
  H  H469  1  0.891300  0.662400  0.330000  1
  H  H470  1  0.108700  0.337600  0.830000  1
  H  H471  1  0.162400  0.608700  0.080000  1
  H  H472  1  0.837600  0.391300  0.580000  1
  H  H473  1  0.468800  0.113200  0.930800  1
  H  H474  1  0.531200  0.886800  0.430800  1
  H  H475  1  0.386800  0.968800  0.180800  1
  H  H476  1  0.613200  0.031200  0.680800  1
  H  H477  1  0.031200  0.613200  0.319200  1
  H  H478  1  0.968800  0.386800  0.819200  1
  H  H479  1  0.113200  0.468800  0.069200  1
  H  H480  1  0.886800  0.531200  0.569200  1
  H  H481  1  0.580400  0.065100  0.908500  1
  H  H482  1  0.419600  0.934900  0.408500  1
  H  H483  1  0.434900  0.080400  0.158500  1
  H  H484  1  0.565100  0.919600  0.658500  1
  H  H485  1  0.919600  0.565100  0.341500  1
  H  H486  1  0.080400  0.434900  0.841500  1
  H  H487  1  0.065100  0.580400  0.091500  1
  H  H488  1  0.934900  0.419600  0.591500  1
  H  H489  1  0.559200  0.113000  0.901800  1
  H  H490  1  0.440800  0.887000  0.401800  1
  H  H491  1  0.387000  0.059200  0.151800  1
  H  H492  1  0.613000  0.940800  0.651800  1
  H  H493  1  0.940800  0.613000  0.348200  1
  H  H494  1  0.059200  0.387000  0.848200  1
  H  H495  1  0.113000  0.559200  0.098200  1
  H  H496  1  0.887000  0.440800  0.598200  1
  H  H497  1  0.516600  0.026600  0.902000  1
  H  H498  1  0.483400  0.973400  0.402000  1
  H  H499  1  0.473400  0.016600  0.152000  1
  H  H500  1  0.526600  0.983400  0.652000  1
  H  H501  1  0.983400  0.526600  0.348000  1
  H  H502  1  0.016600  0.473400  0.848000  1
  H  H503  1  0.026600  0.516600  0.098000  1
  H  H504  1  0.973400  0.483400  0.598000  1
  H  H505  1  0.499700  0.071200  0.892900  1
  H  H506  1  0.500300  0.928800  0.392900  1
  H  H507  1  0.428800  0.999700  0.142900  1
  H  H508  1  0.571200  0.000300  0.642900  1
  H  H509  1  0.000300  0.571200  0.357100  1
  H  H510  1  0.999700  0.428800  0.857100  1
  H  H511  1  0.071200  0.499700  0.107100  1
  H  H512  1  0.928800  0.500300  0.607100  1
  H  H513  1  0.439800  0.080800  0.908900  1
  H  H514  1  0.560200  0.919200  0.408900  1
  H  H515  1  0.419200  0.939800  0.158900  1
  H  H516  1  0.580800  0.060200  0.658900  1
  H  H517  1  0.060200  0.580800  0.341100  1
  H  H518  1  0.939800  0.419200  0.841100  1
  H  H519  1  0.080800  0.439800  0.091100  1
  H  H520  1  0.919200  0.560200  0.591100  1
  H  H521  1  0.452100  0.030500  0.916000  1
  H  H522  1  0.547900  0.969500  0.416000  1
  H  H523  1  0.469500  0.952100  0.166000  1
  H  H524  1  0.530500  0.047900  0.666000  1
  H  H525  1  0.047900  0.530500  0.334000  1
  H  H526  1  0.952100  0.469500  0.834000  1
  H  H527  1  0.030500  0.452100  0.084000  1
  H  H528  1  0.969500  0.547900  0.584000  1
  H  H529  1  0.432300  0.087500  0.947400  1
  H  H530  1  0.567700  0.912500  0.447400  1
  H  H531  1  0.412500  0.932300  0.197400  1
  H  H532  1  0.587500  0.067700  0.697400  1
  H  H533  1  0.067700  0.587500  0.302600  1
  H  H534  1  0.932300  0.412500  0.802600  1
  H  H535  1  0.087500  0.432300  0.052600  1
  H  H536  1  0.912500  0.567700  0.552600  1
  H  H537  1  0.465200  0.980100  0.959600  1
  H  H538  1  0.534800  0.019900  0.459600  1
  H  H539  1  0.519900  0.965200  0.209600  1
  H  H540  1  0.480100  0.034800  0.709600  1
  H  H541  1  0.034800  0.480100  0.290400  1
  H  H542  1  0.965200  0.519900  0.790400  1
  H  H543  1  0.980100  0.465200  0.040400  1
  H  H544  1  0.019900  0.534800  0.540400  1
  H  H545  1  0.368000  0.080800  0.966700  1
  H  H546  1  0.632000  0.919200  0.466700  1
  H  H547  1  0.419200  0.868000  0.216700  1
  H  H548  1  0.580800  0.132000  0.716700  1
  H  H549  1  0.132000  0.580800  0.283300  1
  H  H550  1  0.868000  0.419200  0.783300  1
  H  H551  1  0.080800  0.368000  0.033300  1
  H  H552  1  0.919200  0.632000  0.533300  1
  H  H553  1  0.330300  0.032900  0.984900  1
  H  H554  1  0.669700  0.967100  0.484900  1
  H  H555  1  0.467100  0.830300  0.234900  1
  H  H556  1  0.532900  0.169700  0.734900  1
  H  H557  1  0.169700  0.532900  0.265100  1
  H  H558  1  0.830300  0.467100  0.765100  1
  H  H559  1  0.032900  0.330300  0.015100  1
  H  H560  1  0.967100  0.669700  0.515100  1
  H  H561  1  0.360100  0.958700  0.990500  1
  H  H562  1  0.639900  0.041300  0.490500  1
  H  H563  1  0.541300  0.860100  0.240500  1
  H  H564  1  0.458700  0.139900  0.740500  1
  H  H565  1  0.139900  0.458700  0.259500  1
  H  H566  1  0.860100  0.541300  0.759500  1
  H  H567  1  0.958700  0.360100  0.009500  1
  H  H568  1  0.041300  0.639900  0.509500  1
  H  H569  1  0.490300  0.904200  0.013900  1
  H  H570  1  0.509700  0.095800  0.513900  1
  H  H571  1  0.595800  0.990300  0.263900  1
  H  H572  1  0.404200  0.009700  0.763900  1
  H  H573  1  0.009700  0.404200  0.236100  1
  H  H574  1  0.990300  0.595800  0.736100  1
  H  H575  1  0.904200  0.490300  0.986100  1
  H  H576  1  0.095800  0.509700  0.486100  1
  H  H577  1  0.563300  0.926000  0.023800  1
  H  H578  1  0.436700  0.074000  0.523800  1
  H  H579  1  0.574000  0.063300  0.273800  1
  H  H580  1  0.426000  0.936700  0.773800  1
  H  H581  1  0.936700  0.426000  0.226200  1
  H  H582  1  0.063300  0.574000  0.726200  1
  H  H583  1  0.926000  0.563300  0.976200  1
  H  H584  1  0.074000  0.436700  0.476200  1
  H  H585  1  0.623400  0.947100  0.006700  1
  H  H586  1  0.376600  0.052900  0.506700  1
  H  H587  1  0.552900  0.123400  0.256700  1
  H  H588  1  0.447100  0.876600  0.756700  1
  H  H589  1  0.876600  0.447100  0.243300  1
  H  H590  1  0.123400  0.552900  0.743300  1
  H  H591  1  0.947100  0.623400  0.993300  1
  H  H592  1  0.052900  0.376600  0.493300  1
  H  H593  1  0.537500  0.924700  0.969800  1
  H  H594  1  0.462500  0.075300  0.469800  1
  H  H595  1  0.575300  0.037500  0.219800  1
  H  H596  1  0.424700  0.962500  0.719800  1
  H  H597  1  0.962500  0.424700  0.280200  1
  H  H598  1  0.037500  0.575300  0.780200  1
  H  H599  1  0.924700  0.537500  0.030200  1
  H  H600  1  0.075300  0.462500  0.530200  1
  H  H601  1  0.583800  0.975800  0.958600  1
  H  H602  1  0.416200  0.024200  0.458600  1
  H  H603  1  0.524200  0.083800  0.208600  1
  H  H604  1  0.475800  0.916200  0.708600  1
  H  H605  1  0.916200  0.475800  0.291400  1
  H  H606  1  0.083800  0.524200  0.791400  1
  H  H607  1  0.975800  0.583800  0.041400  1
  H  H608  1  0.024200  0.416200  0.541400  1
  H  H609  1  0.670600  0.954600  0.950100  1
  H  H610  1  0.329400  0.045400  0.450100  1
  H  H611  1  0.545400  0.170600  0.200100  1
  H  H612  1  0.454600  0.829400  0.700100  1
  H  H613  1  0.829400  0.454600  0.299900  1
  H  H614  1  0.170600  0.545400  0.799900  1
  H  H615  1  0.954600  0.670600  0.049900  1
  H  H616  1  0.045400  0.329400  0.549900  1
  H  H617  1  0.652600  0.995100  0.927200  1
  H  H618  1  0.347400  0.004900  0.427200  1
  H  H619  1  0.504900  0.152600  0.177200  1
  H  H620  1  0.495100  0.847400  0.677200  1
  H  H621  1  0.847400  0.495100  0.322800  1
  H  H622  1  0.152600  0.504900  0.822800  1
  H  H623  1  0.995100  0.652600  0.072800  1
  H  H624  1  0.004900  0.347400  0.572800  1
  H  H625  1  0.601600  0.002700  0.933900  1
  H  H626  1  0.398400  0.997300  0.433900  1
  H  H627  1  0.497300  0.101600  0.183900  1
  H  H628  1  0.502700  0.898400  0.683900  1
  H  H629  1  0.898400  0.502700  0.316100  1
  H  H630  1  0.101600  0.497300  0.816100  1
  H  H631  1  0.002700  0.601600  0.066100  1
  H  H632  1  0.997300  0.398400  0.566100  1
  H  H633  1  0.544300  0.933900  0.932700  1
  H  H634  1  0.455700  0.066100  0.432700  1
  H  H635  1  0.566100  0.044300  0.182700  1
  H  H636  1  0.433900  0.955700  0.682700  1
  H  H637  1  0.955700  0.433900  0.317300  1
  H  H638  1  0.044300  0.566100  0.817300  1
  H  H639  1  0.933900  0.544300  0.067300  1
  H  H640  1  0.066100  0.455700  0.567300  1
  H  H641  1  0.529100  0.855800  0.926500  1
  H  H642  1  0.470900  0.144200  0.426500  1
  H  H643  1  0.644200  0.029100  0.176500  1
  H  H644  1  0.355800  0.970900  0.676500  1
  H  H645  1  0.970900  0.355800  0.323500  1
  H  H646  1  0.029100  0.644200  0.823500  1
  H  H647  1  0.855800  0.529100  0.073500  1
  H  H648  1  0.144200  0.470900  0.573500  1
  H  H649  1  0.590000  0.807000  0.918300  1
  H  H650  1  0.410000  0.193000  0.418300  1
  H  H651  1  0.693000  0.090000  0.168300  1
  H  H652  1  0.307000  0.910000  0.668300  1
  H  H653  1  0.910000  0.307000  0.331700  1
  H  H654  1  0.090000  0.693000  0.831700  1
  H  H655  1  0.807000  0.590000  0.081700  1
  H  H656  1  0.193000  0.410000  0.581700  1
  H  H657  1  0.666000  0.836300  0.916300  1
  H  H658  1  0.334000  0.163700  0.416300  1
  H  H659  1  0.663700  0.166000  0.166300  1
  H  H660  1  0.336300  0.834000  0.666300  1
  H  H661  1  0.834000  0.336300  0.333700  1
  H  H662  1  0.166000  0.663700  0.833700  1
  H  H663  1  0.836300  0.666000  0.083700  1
  H  H664  1  0.163700  0.334000  0.583700  1
  H  H665  1  0.681200  0.914400  0.922500  1
  H  H666  1  0.318800  0.085600  0.422500  1
  H  H667  1  0.585600  0.181200  0.172500  1
  H  H668  1  0.414400  0.818800  0.672500  1
  H  H669  1  0.818800  0.414400  0.327500  1
  H  H670  1  0.181200  0.585600  0.827500  1
  H  H671  1  0.914400  0.681200  0.077500  1
  H  H672  1  0.085600  0.318800  0.577500  1
  H  H673  1  0.734800  0.001700  0.949100  1
  H  H674  1  0.265200  0.998300  0.449100  1
  H  H675  1  0.498300  0.234800  0.199100  1
  H  H676  1  0.501700  0.765200  0.699100  1
  H  H677  1  0.765200  0.501700  0.300900  1
  H  H678  1  0.234800  0.498300  0.800900  1
  H  H679  1  0.001700  0.734800  0.050900  1
  H  H680  1  0.998300  0.265200  0.550900  1
  H  H681  1  0.731700  0.097500  0.954200  1
  H  H682  1  0.268300  0.902500  0.454200  1
  H  H683  1  0.402500  0.231700  0.204200  1
  H  H684  1  0.597500  0.768300  0.704200  1
  H  H685  1  0.768300  0.597500  0.295800  1
  H  H686  1  0.231700  0.402500  0.795800  1
  H  H687  1  0.097500  0.731700  0.045800  1
  H  H688  1  0.902500  0.268300  0.545800  1
  H  H689  1  0.789800  0.029700  0.970800  1
  H  H690  1  0.210200  0.970300  0.470800  1
  H  H691  1  0.470300  0.289800  0.220800  1
  H  H692  1  0.529700  0.710200  0.720800  1
  H  H693  1  0.710200  0.529700  0.279200  1
  H  H694  1  0.289800  0.470300  0.779200  1
  H  H695  1  0.029700  0.789800  0.029200  1
  H  H696  1  0.970300  0.210200  0.529200  1
  H  H697  1  0.710400  0.040900  0.980500  1
  H  H698  1  0.289600  0.959100  0.480500  1
  H  H699  1  0.459100  0.210400  0.230500  1
  H  H700  1  0.540900  0.789600  0.730500  1
  H  H701  1  0.789600  0.540900  0.269500  1
  H  H702  1  0.210400  0.459100  0.769500  1
  H  H703  1  0.040900  0.710400  0.019500  1
  H  H704  1  0.959100  0.289600  0.519500  1
  H  H705  1  0.745600  0.063000  0.992700  1
  H  H706  1  0.254400  0.937000  0.492700  1
  H  H707  1  0.437000  0.245600  0.242700  1
  H  H708  1  0.563000  0.754400  0.742700  1
  H  H709  1  0.754400  0.563000  0.257300  1
  H  H710  1  0.245600  0.437000  0.757300  1
  H  H711  1  0.063000  0.745600  0.007300  1
  H  H712  1  0.937000  0.254400  0.507300  1
  H  H713  1  0.718400  0.095500  0.980900  1
  H  H714  1  0.281600  0.904500  0.480900  1
  H  H715  1  0.404500  0.218400  0.230900  1
  H  H716  1  0.595500  0.781600  0.730900  1
  H  H717  1  0.781600  0.595500  0.269100  1
  H  H718  1  0.218400  0.404500  0.769100  1
  H  H719  1  0.095500  0.718400  0.019100  1
  H  H720  1  0.904500  0.281600  0.519100  1
  H  H721  1  0.819000  0.094500  0.984700  1
  H  H722  1  0.181000  0.905500  0.484700  1
  H  H723  1  0.405500  0.319000  0.234700  1
  H  H724  1  0.594500  0.681000  0.734700  1
  H  H725  1  0.681000  0.594500  0.265300  1
  H  H726  1  0.319000  0.405500  0.765300  1
  H  H727  1  0.094500  0.819000  0.015300  1
  H  H728  1  0.905500  0.181000  0.515300  1
  H  H729  1  0.828700  0.104900  0.966900  1
  H  H730  1  0.171300  0.895100  0.466900  1
  H  H731  1  0.395100  0.328700  0.216900  1
  H  H732  1  0.604900  0.671300  0.716900  1
  H  H733  1  0.671300  0.604900  0.283100  1
  H  H734  1  0.328700  0.395100  0.783100  1
  H  H735  1  0.104900  0.828700  0.033100  1
  H  H736  1  0.895100  0.171300  0.533100  1
  H  H737  1  0.786000  0.128900  0.975400  1
  H  H738  1  0.214000  0.871100  0.475400  1
  H  H739  1  0.371100  0.286000  0.225400  1
  H  H740  1  0.628900  0.714000  0.725400  1
  H  H741  1  0.714000  0.628900  0.274600  1
  H  H742  1  0.286000  0.371100  0.774600  1
  H  H743  1  0.128900  0.786000  0.024600  1
  H  H744  1  0.871100  0.214000  0.524600  1
  H  H745  1  0.785300  0.135200  0.939700  1
  H  H746  1  0.214700  0.864800  0.439700  1
  H  H747  1  0.364800  0.285300  0.189700  1
  H  H748  1  0.635200  0.714700  0.689700  1
  H  H749  1  0.714700  0.635200  0.310300  1
  H  H750  1  0.285300  0.364800  0.810300  1
  H  H751  1  0.135200  0.785300  0.060300  1
  H  H752  1  0.864800  0.214700  0.560300  1
  H  H753  1  0.833100  0.095200  0.915700  1
  H  H754  1  0.166900  0.904800  0.415700  1
  H  H755  1  0.404800  0.333100  0.165700  1
  H  H756  1  0.595200  0.666900  0.665700  1
  H  H757  1  0.666900  0.595200  0.334300  1
  H  H758  1  0.333100  0.404800  0.834300  1
  H  H759  1  0.095200  0.833100  0.084300  1
  H  H760  1  0.904800  0.166900  0.584300  1
  H  H761  1  0.838900  0.189100  0.927200  1
  H  H762  1  0.161100  0.810900  0.427200  1
  H  H763  1  0.310900  0.338900  0.177200  1
  H  H764  1  0.689100  0.661100  0.677200  1
  H  H765  1  0.661100  0.689100  0.322800  1
  H  H766  1  0.338900  0.310900  0.822800  1
  H  H767  1  0.189100  0.838900  0.072800  1
  H  H768  1  0.810900  0.161100  0.572800  1
  H  H769  1  0.799400  0.173400  0.915300  1
  H  H770  1  0.200600  0.826600  0.415300  1
  H  H771  1  0.326600  0.299400  0.165300  1
  H  H772  1  0.673400  0.700600  0.665300  1
  H  H773  1  0.700600  0.673400  0.334700  1
  H  H774  1  0.299400  0.326600  0.834700  1
  H  H775  1  0.173400  0.799400  0.084700  1
  H  H776  1  0.826600  0.200600  0.584700  1
  H  H777  1  0.832100  0.145300  0.886100  1
  H  H778  1  0.167900  0.854700  0.386100  1
  H  H779  1  0.354700  0.332100  0.136100  1
  H  H780  1  0.645300  0.667900  0.636100  1
  H  H781  1  0.667900  0.645300  0.363900  1
  H  H782  1  0.332100  0.354700  0.863900  1
  H  H783  1  0.145300  0.832100  0.113900  1
  H  H784  1  0.854700  0.167900  0.613900  1
  H  H785  1  0.893400  0.152400  0.868200  1
  H  H786  1  0.106600  0.847600  0.368200  1
  H  H787  1  0.347600  0.393400  0.118200  1
  H  H788  1  0.652400  0.606600  0.618200  1
  H  H789  1  0.606600  0.652400  0.381800  1
  H  H790  1  0.393400  0.347600  0.881800  1
  H  H791  1  0.152400  0.893400  0.131800  1
  H  H792  1  0.847600  0.106600  0.631800  1
  H  H793  1  0.964700  0.184700  0.876000  1
  H  H794  1  0.035300  0.815300  0.376000  1
  H  H795  1  0.315300  0.464700  0.126000  1
  H  H796  1  0.684700  0.535300  0.626000  1
  H  H797  1  0.535300  0.684700  0.374000  1
  H  H798  1  0.464700  0.315300  0.874000  1
  H  H799  1  0.184700  0.964700  0.124000  1
  H  H800  1  0.815300  0.035300  0.624000  1
  H  H801  1  0.974700  0.210000  0.901800  1
  H  H802  1  0.025300  0.790000  0.401800  1
  H  H803  1  0.290000  0.474700  0.151800  1
  H  H804  1  0.710000  0.525300  0.651800  1
  H  H805  1  0.525300  0.710000  0.348200  1
  H  H806  1  0.474700  0.290000  0.848200  1
  H  H807  1  0.210000  0.974700  0.098200  1
  H  H808  1  0.790000  0.025300  0.598200  1
  H  H809  1  0.913500  0.203000  0.919700  1
  H  H810  1  0.086500  0.797000  0.419700  1
  H  H811  1  0.297000  0.413500  0.169700  1
  H  H812  1  0.703000  0.586500  0.669700  1
  H  H813  1  0.586500  0.703000  0.330300  1
  H  H814  1  0.413500  0.297000  0.830300  1
  H  H815  1  0.203000  0.913500  0.080300  1
  H  H816  1  0.797000  0.086500  0.580300  1
  H  H817  1  0.907100  0.066300  0.916600  1
  H  H818  1  0.092900  0.933700  0.416600  1
  H  H819  1  0.433700  0.407100  0.166600  1
  H  H820  1  0.566300  0.592900  0.666600  1
  H  H821  1  0.592900  0.566300  0.333400  1
  H  H822  1  0.407100  0.433700  0.833400  1
  H  H823  1  0.066300  0.907100  0.083400  1
  H  H824  1  0.933700  0.092900  0.583400  1
  H  H825  1  0.971000  0.101000  0.939100  1
  H  H826  1  0.029000  0.899000  0.439100  1
  H  H827  1  0.399000  0.471000  0.189100  1
  H  H828  1  0.601000  0.529000  0.689100  1
  H  H829  1  0.529000  0.601000  0.310900  1
  H  H830  1  0.471000  0.399000  0.810900  1
  H  H831  1  0.101000  0.971000  0.060900  1
  H  H832  1  0.899000  0.029000  0.560900  1
  H  H833  1  0.963200  0.002900  0.929400  1
  H  H834  1  0.036800  0.997100  0.429400  1
  H  H835  1  0.497100  0.463200  0.179400  1
  H  H836  1  0.502900  0.536800  0.679400  1
  H  H837  1  0.536800  0.502900  0.320600  1
  H  H838  1  0.463200  0.497100  0.820600  1
  H  H839  1  0.002900  0.963200  0.070600  1
  H  H840  1  0.997100  0.036800  0.570600  1
  H  H841  1  0.043000  0.025000  0.935700  1
  H  H842  1  0.957000  0.975000  0.435700  1
  H  H843  1  0.475000  0.543000  0.185700  1
  H  H844  1  0.525000  0.457000  0.685700  1
  H  H845  1  0.457000  0.525000  0.314300  1
  H  H846  1  0.543000  0.475000  0.814300  1
  H  H847  1  0.025000  0.043000  0.064300  1
  H  H848  1  0.975000  0.957000  0.564300  1
  H  H849  1  0.026400  0.045700  0.951900  1
  H  H850  1  0.973600  0.954300  0.451900  1
  H  H851  1  0.454300  0.526400  0.201900  1
  H  H852  1  0.545700  0.473600  0.701900  1
  H  H853  1  0.473600  0.545700  0.298100  1
  H  H854  1  0.526400  0.454300  0.798100  1
  H  H855  1  0.045700  0.026400  0.048100  1
  H  H856  1  0.954300  0.973600  0.548100  1
  H  H857  1  0.024500  0.991200  0.948900  1
  H  H858  1  0.975500  0.008800  0.448900  1
  H  H859  1  0.508800  0.524500  0.198900  1
  H  H860  1  0.491200  0.475500  0.698900  1
  H  H861  1  0.475500  0.491200  0.301100  1
  H  H862  1  0.524500  0.508800  0.801100  1
  H  H863  1  0.991200  0.024500  0.051100  1
  H  H864  1  0.008800  0.975500  0.551100  1
  H  H865  1  0.941500  0.989400  0.956000  1
  H  H866  1  0.058500  0.010600  0.456000  1
  H  H867  1  0.510600  0.441500  0.206000  1
  H  H868  1  0.489400  0.558500  0.706000  1
  H  H869  1  0.558500  0.489400  0.294000  1
  H  H870  1  0.441500  0.510600  0.794000  1
  H  H871  1  0.989400  0.941500  0.044000  1
  H  H872  1  0.010600  0.058500  0.544000  1
  H  H873  1  0.946800  0.043200  0.959800  1
  H  H874  1  0.053200  0.956800  0.459800  1
  H  H875  1  0.456800  0.446800  0.209800  1
  H  H876  1  0.543200  0.553200  0.709800  1
  H  H877  1  0.553200  0.543200  0.290200  1
  H  H878  1  0.446800  0.456800  0.790200  1
  H  H879  1  0.043200  0.946800  0.040200  1
  H  H880  1  0.956800  0.053200  0.540200  1
  H  H881  1  0.905900  0.025800  0.948800  1
  H  H882  1  0.094100  0.974200  0.448800  1
  H  H883  1  0.474200  0.405900  0.198800  1
  H  H884  1  0.525800  0.594100  0.698800  1
  H  H885  1  0.594100  0.525800  0.301200  1
  H  H886  1  0.405900  0.474200  0.801200  1
  H  H887  1  0.025800  0.905900  0.051200  1
  H  H888  1  0.974200  0.094100  0.551200  1
  H  H889  1  0.034900  0.129000  0.928100  1
  H  H890  1  0.965100  0.871000  0.428100  1
  H  H891  1  0.371000  0.534900  0.178100  1
  H  H892  1  0.629000  0.465100  0.678100  1
  H  H893  1  0.465100  0.629000  0.321900  1
  H  H894  1  0.534900  0.371000  0.821900  1
  H  H895  1  0.129000  0.034900  0.071900  1
  H  H896  1  0.871000  0.965100  0.571900  1
  H  H897  1  0.042400  0.118700  0.888900  1
  H  H898  1  0.957600  0.881300  0.388900  1
  H  H899  1  0.381300  0.542400  0.138900  1
  H  H900  1  0.618700  0.457600  0.638900  1
  H  H901  1  0.457600  0.618700  0.361100  1
  H  H902  1  0.542400  0.381300  0.861100  1
  H  H903  1  0.118700  0.042400  0.111100  1
  H  H904  1  0.881300  0.957600  0.611100  1
  H  H905  1  0.110800  0.128200  0.874300  1
  H  H906  1  0.889200  0.871800  0.374300  1
  H  H907  1  0.371800  0.610800  0.124300  1
  H  H908  1  0.628200  0.389200  0.624300  1
  H  H909  1  0.389200  0.628200  0.375700  1
  H  H910  1  0.610800  0.371800  0.875700  1
  H  H911  1  0.128200  0.110800  0.125700  1
  H  H912  1  0.871800  0.889200  0.625700  1
  H  H913  1  0.183400  0.129300  0.886800  1
  H  H914  1  0.816600  0.870700  0.386800  1
  H  H915  1  0.370700  0.683400  0.136800  1
  H  H916  1  0.629300  0.316600  0.636800  1
  H  H917  1  0.316600  0.629300  0.363200  1
  H  H918  1  0.683400  0.370700  0.863200  1
  H  H919  1  0.129300  0.183400  0.113200  1
  H  H920  1  0.870700  0.816600  0.613200  1
  H  H921  1  0.119100  0.111300  0.928600  1
  H  H922  1  0.880900  0.888700  0.428600  1
  H  H923  1  0.388700  0.619100  0.178600  1
  H  H924  1  0.611300  0.380900  0.678600  1
  H  H925  1  0.380900  0.611300  0.321400  1
  H  H926  1  0.619100  0.388700  0.821400  1
  H  H927  1  0.111300  0.119100  0.071400  1
  H  H928  1  0.888700  0.880900  0.571400  1
  H  H929  1  0.269300  0.086300  0.936100  1
  H  H930  1  0.730700  0.913700  0.436100  1
  H  H931  1  0.413700  0.769300  0.186100  1
  H  H932  1  0.586300  0.230700  0.686100  1
  H  H933  1  0.230700  0.586300  0.313900  1
  H  H934  1  0.769300  0.413700  0.813900  1
  H  H935  1  0.086300  0.269300  0.063900  1
  H  H936  1  0.913700  0.730700  0.563900  1
  H  H937  1  0.244600  0.084600  0.891100  1
  H  H938  1  0.755400  0.915400  0.391100  1
  H  H939  1  0.415400  0.744600  0.141100  1
  H  H940  1  0.584600  0.255400  0.641100  1
  H  H941  1  0.255400  0.584600  0.358900  1
  H  H942  1  0.744600  0.415400  0.858900  1
  H  H943  1  0.084600  0.244600  0.108900  1
  H  H944  1  0.915400  0.755400  0.608900  1
  H  H945  1  0.225000  0.040300  0.900400  1
  H  H946  1  0.775000  0.959700  0.400400  1
  H  H947  1  0.459700  0.725000  0.150400  1
  H  H948  1  0.540300  0.275000  0.650400  1
  H  H949  1  0.275000  0.540300  0.349600  1
  H  H950  1  0.725000  0.459700  0.849600  1
  H  H951  1  0.040300  0.225000  0.099600  1
  H  H952  1  0.959700  0.775000  0.599600  1
  H  H953  1  0.318200  0.062900  0.895100  1
  H  H954  1  0.681800  0.937100  0.395100  1
  H  H955  1  0.437100  0.818200  0.145100  1
  H  H956  1  0.562900  0.181800  0.645100  1
  H  H957  1  0.181800  0.562900  0.354900  1
  H  H958  1  0.818200  0.437100  0.854900  1
  H  H959  1  0.062900  0.318200  0.104900  1
  H  H960  1  0.937100  0.681800  0.604900  1
  H  H961  1  0.298300  0.014000  0.900700  1
  H  H962  1  0.701700  0.986000  0.400700  1
  H  H963  1  0.486000  0.798300  0.150700  1
  H  H964  1  0.514000  0.201700  0.650700  1
  H  H965  1  0.201700  0.514000  0.349300  1
  H  H966  1  0.798300  0.486000  0.849300  1
  H  H967  1  0.014000  0.298300  0.099300  1
  H  H968  1  0.986000  0.701700  0.599300  1
  H  H969  1  0.346700  0.068500  0.919400  1
  H  H970  1  0.653300  0.931500  0.419400  1
  H  H971  1  0.431500  0.846700  0.169400  1
  H  H972  1  0.568500  0.153300  0.669400  1
  H  H973  1  0.153300  0.568500  0.330600  1
  H  H974  1  0.846700  0.431500  0.830600  1
  H  H975  1  0.068500  0.346700  0.080600  1
  H  H976  1  0.931500  0.653300  0.580600  1
  H  H977  1  0.311900  0.029900  0.926000  1
  H  H978  1  0.688100  0.970100  0.426000  1
  H  H979  1  0.470100  0.811900  0.176000  1
  H  H980  1  0.529900  0.188100  0.676000  1
  H  H981  1  0.188100  0.529900  0.324000  1
  H  H982  1  0.811900  0.470100  0.824000  1
  H  H983  1  0.029900  0.311900  0.074000  1
  H  H984  1  0.970100  0.688100  0.574000  1
  H  H985  1  0.298300  0.142400  0.950200  1
  H  H986  1  0.701700  0.857600  0.450200  1
  H  H987  1  0.357600  0.798300  0.200200  1
  H  H988  1  0.642400  0.201700  0.700200  1
  H  H989  1  0.201700  0.642400  0.299800  1
  H  H990  1  0.798300  0.357600  0.799800  1
  H  H991  1  0.142400  0.298300  0.049800  1
  H  H992  1  0.857600  0.701700  0.549800  1
  H  H993  1  0.316200  0.215300  0.955600  1
  H  H994  1  0.683800  0.784700  0.455600  1
  H  H995  1  0.284700  0.816200  0.205600  1
  H  H996  1  0.715300  0.183800  0.705600  1
  H  H997  1  0.183800  0.715300  0.294400  1
  H  H998  1  0.816200  0.284700  0.794400  1
  H  H999  1  0.215300  0.316200  0.044400  1
  H  H1000  1  0.784700  0.683800  0.544400  1
  H  H1001  1  0.333800  0.221600  0.938200  1
  H  H1002  1  0.666200  0.778400  0.438200  1
  H  H1003  1  0.278400  0.833800  0.188200  1
  H  H1004  1  0.721600  0.166200  0.688200  1
  H  H1005  1  0.166200  0.721600  0.311800  1
  H  H1006  1  0.833800  0.278400  0.811800  1
  H  H1007  1  0.221600  0.333800  0.061800  1
  H  H1008  1  0.778400  0.666200  0.561800  1
  H  H1009  1  0.475100  0.203300  0.954900  1
  H  H1010  1  0.524900  0.796700  0.454900  1
  H  H1011  1  0.296700  0.975100  0.204900  1
  H  H1012  1  0.703300  0.024900  0.704900  1
  H  H1013  1  0.024900  0.703300  0.295100  1
  H  H1014  1  0.975100  0.296700  0.795100  1
  H  H1015  1  0.203300  0.475100  0.045100  1
  H  H1016  1  0.796700  0.524900  0.545100  1
  H  H1017  1  0.372300  0.268100  0.972100  1
  H  H1018  1  0.627700  0.731900  0.472100  1
  H  H1019  1  0.231900  0.872300  0.222100  1
  H  H1020  1  0.768100  0.127700  0.722100  1
  H  H1021  1  0.127700  0.768100  0.277900  1
  H  H1022  1  0.872300  0.231900  0.777900  1
  H  H1023  1  0.268100  0.372300  0.027900  1
  H  H1024  1  0.731900  0.627700  0.527900  1
  H  H1025  1  0.378400  0.280500  0.954200  1
  H  H1026  1  0.621600  0.719500  0.454200  1
  H  H1027  1  0.219500  0.878400  0.204200  1
  H  H1028  1  0.780500  0.121600  0.704200  1
  H  H1029  1  0.121600  0.780500  0.295800  1
  H  H1030  1  0.878400  0.219500  0.795800  1
  H  H1031  1  0.280500  0.378400  0.045800  1
  H  H1032  1  0.719500  0.621600  0.545800  1
  H  H1033  1  0.430300  0.316800  0.976600  1
  H  H1034  1  0.569700  0.683200  0.476600  1
  H  H1035  1  0.183200  0.930300  0.226600  1
  H  H1036  1  0.816800  0.069700  0.726600  1
  H  H1037  1  0.069700  0.816800  0.273400  1
  H  H1038  1  0.930300  0.183200  0.773400  1
  H  H1039  1  0.316800  0.430300  0.023400  1
  H  H1040  1  0.683200  0.569700  0.523400  1
  H  H1041  1  0.444800  0.317800  0.958500  1
  H  H1042  1  0.555200  0.682200  0.458500  1
  H  H1043  1  0.182200  0.944800  0.208500  1
  H  H1044  1  0.817800  0.055200  0.708500  1
  H  H1045  1  0.055200  0.817800  0.291500  1
  H  H1046  1  0.944800  0.182200  0.791500  1
  H  H1047  1  0.317800  0.444800  0.041500  1
  H  H1048  1  0.682200  0.555200  0.541500  1
  H  H1049  1  0.478900  0.258100  0.981700  1
  H  H1050  1  0.521100  0.741900  0.481700  1
  H  H1051  1  0.241900  0.978900  0.231700  1
  H  H1052  1  0.758100  0.021100  0.731700  1
  H  H1053  1  0.021100  0.758100  0.268300  1
  H  H1054  1  0.978900  0.241900  0.768300  1
  H  H1055  1  0.258100  0.478900  0.018300  1
  H  H1056  1  0.741900  0.521100  0.518300  1
  H  H1057  1  0.502200  0.268900  0.965300  1
  H  H1058  1  0.497800  0.731100  0.465300  1
  H  H1059  1  0.231100  0.002200  0.215300  1
  H  H1060  1  0.768900  0.997800  0.715300  1
  H  H1061  1  0.997800  0.768900  0.284700  1
  H  H1062  1  0.002200  0.231100  0.784700  1
  H  H1063  1  0.268900  0.502200  0.034700  1
  H  H1064  1  0.731100  0.497800  0.534700  1
  H  H1065  1  0.515800  0.153200  0.967300  1
  H  H1066  1  0.484200  0.846800  0.467300  1
  H  H1067  1  0.346800  0.015800  0.217300  1
  H  H1068  1  0.653200  0.984200  0.717300  1
  H  H1069  1  0.984200  0.653200  0.282700  1
  H  H1070  1  0.015800  0.346800  0.782700  1
  H  H1071  1  0.153200  0.515800  0.032700  1
  H  H1072  1  0.846800  0.484200  0.532700  1
  H  H1073  1  0.486100  0.134900  0.005700  1
  H  H1074  1  0.513900  0.865100  0.505700  1
  H  H1075  1  0.365100  0.986100  0.255700  1
  H  H1076  1  0.634900  0.013900  0.755700  1
  H  H1077  1  0.013900  0.634900  0.244300  1
  H  H1078  1  0.986100  0.365100  0.744300  1
  H  H1079  1  0.134900  0.486100  0.994300  1
  H  H1080  1  0.865100  0.513900  0.494300  1
  H  H1081  1  0.570200  0.091700  0.970400  1
  H  H1082  1  0.429800  0.908300  0.470400  1
  H  H1083  1  0.408300  0.070200  0.220400  1
  H  H1084  1  0.591700  0.929800  0.720400  1
  H  H1085  1  0.929800  0.591700  0.279600  1
  H  H1086  1  0.070200  0.408300  0.779600  1
  H  H1087  1  0.091700  0.570200  0.029600  1
  H  H1088  1  0.908300  0.429800  0.529600  1
  H  H1089  1  0.610900  0.043700  0.987900  1
  H  H1090  1  0.389100  0.956300  0.487900  1
  H  H1091  1  0.456300  0.110900  0.237900  1
  H  H1092  1  0.543700  0.889100  0.737900  1
  H  H1093  1  0.889100  0.543700  0.262100  1
  H  H1094  1  0.110900  0.456300  0.762100  1
  H  H1095  1  0.043700  0.610900  0.012100  1
  H  H1096  1  0.956300  0.389100  0.512100  1
  H  H1097  1  0.589100  0.041300  0.014300  1
  H  H1098  1  0.410900  0.958700  0.514300  1
  H  H1099  1  0.458700  0.089100  0.264300  1
  H  H1100  1  0.541300  0.910900  0.764300  1
  H  H1101  1  0.910900  0.541300  0.235700  1
  H  H1102  1  0.089100  0.458700  0.735700  1
  H  H1103  1  0.041300  0.589100  0.985700  1
  H  H1104  1  0.958700  0.410900  0.485700  1
  H  H1105  1  0.452100  0.431400  0.911900  1.0
  H  H1106  1  0.547900  0.568600  0.411900  1.0
  H  H1107  1  0.068600  0.952100  0.161900  1.0
  H  H1108  1  0.931400  0.047900  0.661900  1.0
  H  H1109  1  0.047900  0.931400  0.338100  1.0
  H  H1110  1  0.952100  0.068600  0.838100  1.0
  H  H1111  1  0.431400  0.452100  0.088100  1.0
  H  H1112  1  0.568600  0.547900  0.588100  1.0
  H  H1113  1  0.490600  0.447900  0.888400  1.0
  H  H1114  1  0.509400  0.552100  0.388400  1.0
  H  H1115  1  0.052100  0.990600  0.138400  1.0
  H  H1116  1  0.947900  0.009400  0.638400  1.0
  H  H1117  1  0.009400  0.947900  0.361600  1.0
  H  H1118  1  0.990600  0.052100  0.861600  1.0
  H  H1119  1  0.447900  0.490600  0.111600  1.0
  H  H1120  1  0.552100  0.509400  0.611600  1.0
  H  H1121  1  0.448000  0.473700  0.866700  1.0
  H  H1122  1  0.552000  0.526300  0.366700  1.0
  H  H1123  1  0.026300  0.948000  0.116700  1.0
  H  H1124  1  0.973700  0.052000  0.616700  1.0
  H  H1125  1  0.052000  0.973700  0.383300  1.0
  H  H1126  1  0.948000  0.026300  0.883300  1.0
  H  H1127  1  0.473700  0.448000  0.133300  1.0
  H  H1128  1  0.526300  0.552000  0.633300  1.0
  H  H1129  1  0.328600  0.466400  0.892000  1.0
  H  H1130  1  0.671400  0.533600  0.392000  1.0
  H  H1131  1  0.033600  0.828600  0.142000  1.0
  H  H1132  1  0.966400  0.171400  0.642000  1.0
  H  H1133  1  0.171400  0.966400  0.358000  1.0
  H  H1134  1  0.828600  0.033600  0.858000  1.0
  H  H1135  1  0.466400  0.328600  0.108000  1.0
  H  H1136  1  0.533600  0.671400  0.608000  1.0
  H  H1137  1  0.302900  0.515900  0.872800  1.0
  H  H1138  1  0.697100  0.484100  0.372800  1.0
  H  H1139  1  0.984100  0.802900  0.122800  1.0
  H  H1140  1  0.015900  0.197100  0.622800  1.0
  H  H1141  1  0.197100  0.015900  0.377200  1.0
  H  H1142  1  0.802900  0.984100  0.877200  1.0
  H  H1143  1  0.515900  0.302900  0.127200  1.0
  H  H1144  1  0.484100  0.697100  0.627200  1.0
  H  H1145  1  0.290500  0.483200  0.842800  1.0
  H  H1146  1  0.709500  0.516800  0.342800  1.0
  H  H1147  1  0.016800  0.790500  0.092800  1.0
  H  H1148  1  0.983200  0.209500  0.592800  1.0
  H  H1149  1  0.209500  0.983200  0.407200  1.0
  H  H1150  1  0.790500  0.016800  0.907200  1.0
  H  H1151  1  0.483200  0.290500  0.157200  1.0
  H  H1152  1  0.516800  0.709500  0.657200  1.0
  H  H1153  1  0.223300  0.512900  0.865100  1.0
  H  H1154  1  0.776700  0.487100  0.365100  1.0
  H  H1155  1  0.987100  0.723300  0.115100  1.0
  H  H1156  1  0.012900  0.276700  0.615100  1.0
  H  H1157  1  0.276700  0.012900  0.384900  1.0
  H  H1158  1  0.723300  0.987100  0.884900  1.0
  H  H1159  1  0.512900  0.223300  0.134900  1.0
  H  H1160  1  0.487100  0.776700  0.634900  1.0
  H  H1161  1  0.209600  0.510200  0.847200  1.0
  H  H1162  1  0.790400  0.489800  0.347200  1.0
  H  H1163  1  0.989800  0.709600  0.097200  1.0
  H  H1164  1  0.010200  0.290400  0.597200  1.0
  H  H1165  1  0.290400  0.010200  0.402800  1.0
  H  H1166  1  0.709600  0.989800  0.902800  1.0
  H  H1167  1  0.510200  0.209600  0.152800  1.0
  H  H1168  1  0.489800  0.790400  0.652800  1.0
  H  H1169  1  0.220300  0.432900  0.833400  1.0
  H  H1170  1  0.779700  0.567100  0.333400  1.0
  H  H1171  1  0.067100  0.720300  0.083400  1.0
  H  H1172  1  0.932900  0.279700  0.583400  1.0
  H  H1173  1  0.279700  0.932900  0.416600  1.0
  H  H1174  1  0.720300  0.067100  0.916600  1.0
  H  H1175  1  0.432900  0.220300  0.166600  1.0
  H  H1176  1  0.567100  0.779700  0.666600  1.0
  H  H1177  1  0.206400  0.353000  0.836900  1.0
  H  H1178  1  0.793600  0.647000  0.336900  1.0
  H  H1179  1  0.147000  0.706400  0.086900  1.0
  H  H1180  1  0.853000  0.293600  0.586900  1.0
  H  H1181  1  0.293600  0.853000  0.413100  1.0
  H  H1182  1  0.706400  0.147000  0.913100  1.0
  H  H1183  1  0.353000  0.206400  0.163100  1.0
  H  H1184  1  0.647000  0.793600  0.663100  1.0
  H  H1185  1  0.201300  0.321900  0.862200  1.0
  H  H1186  1  0.798700  0.678100  0.362200  1.0
  H  H1187  1  0.178100  0.701300  0.112200  1.0
  H  H1188  1  0.821900  0.298700  0.612200  1.0
  H  H1189  1  0.298700  0.821900  0.387800  1.0
  H  H1190  1  0.701300  0.178100  0.887800  1.0
  H  H1191  1  0.321900  0.201300  0.137800  1.0
  H  H1192  1  0.678100  0.798700  0.637800  1.0
  H  H1193  1  0.210000  0.370700  0.883900  1.0
  H  H1194  1  0.790000  0.629300  0.383900  1.0
  H  H1195  1  0.129300  0.710000  0.133900  1.0
  H  H1196  1  0.870700  0.290000  0.633900  1.0
  H  H1197  1  0.290000  0.870700  0.366100  1.0
  H  H1198  1  0.710000  0.129300  0.866100  1.0
  H  H1199  1  0.370700  0.210000  0.116100  1.0
  H  H1200  1  0.629300  0.790000  0.616100  1.0
  H  H1201  1  0.223900  0.450600  0.880400  1.0
  H  H1202  1  0.776100  0.549400  0.380400  1.0
  H  H1203  1  0.049400  0.723900  0.130400  1.0
  H  H1204  1  0.950600  0.276100  0.630400  1.0
  H  H1205  1  0.276100  0.950600  0.369600  1.0
  H  H1206  1  0.723900  0.049400  0.869600  1.0
  H  H1207  1  0.450600  0.223900  0.119600  1.0
  H  H1208  1  0.549400  0.776100  0.619600  1.0
  H  H1209  1  0.294400  0.535700  0.823600  1.0
  H  H1210  1  0.705600  0.464300  0.323600  1.0
  H  H1211  1  0.964300  0.794400  0.073600  1.0
  H  H1212  1  0.035700  0.205600  0.573600  1.0
  H  H1213  1  0.205600  0.035700  0.426400  1.0
  H  H1214  1  0.794400  0.964300  0.926400  1.0
  H  H1215  1  0.535700  0.294400  0.176400  1.0
  H  H1216  1  0.464300  0.705600  0.676400  1.0
  H  H1217  1  0.288800  0.630500  0.828900  1.0
  H  H1218  1  0.711200  0.369500  0.328900  1.0
  H  H1219  1  0.869500  0.788800  0.078900  1.0
  H  H1220  1  0.130500  0.211200  0.578900  1.0
  H  H1221  1  0.211200  0.130500  0.421100  1.0
  H  H1222  1  0.788800  0.869500  0.921100  1.0
  H  H1223  1  0.630500  0.288800  0.171100  1.0
  H  H1224  1  0.369500  0.711200  0.671100  1.0
  H  H1225  1  0.348900  0.651100  0.809700  1.0
  H  H1226  1  0.651100  0.348900  0.309700  1.0
  H  H1227  1  0.848900  0.848900  0.059700  1.0
  H  H1228  1  0.151100  0.151100  0.559700  1.0
  H  H1229  1  0.151100  0.151100  0.440300  1.0
  H  H1230  1  0.848900  0.848900  0.940300  1.0
  H  H1231  1  0.651100  0.348900  0.190300  1.0
  H  H1232  1  0.348900  0.651100  0.690300  1.0
  H  H1233  1  0.373000  0.639900  0.836900  1.0
  H  H1234  1  0.627000  0.360100  0.336900  1.0
  H  H1235  1  0.860100  0.873000  0.086900  1.0
  H  H1236  1  0.139900  0.127000  0.586900  1.0
  H  H1237  1  0.127000  0.139900  0.413100  1.0
  H  H1238  1  0.873000  0.860100  0.913100  1.0
  H  H1239  1  0.639900  0.373000  0.163100  1.0
  H  H1240  1  0.360100  0.627000  0.663100  1.0
  H  H1241  1  0.374800  0.585200  0.834400  1.0
  H  H1242  1  0.625200  0.414800  0.334400  1.0
  H  H1243  1  0.914800  0.874800  0.084400  1.0
  H  H1244  1  0.085200  0.125200  0.584400  1.0
  H  H1245  1  0.125200  0.085200  0.415600  1.0
  H  H1246  1  0.874800  0.914800  0.915600  1.0
  H  H1247  1  0.585200  0.374800  0.165600  1.0
  H  H1248  1  0.414800  0.625200  0.665600  1.0
  H  H1249  1  0.412400  0.617600  0.826300  1.0
  H  H1250  1  0.587600  0.382400  0.326300  1.0
  H  H1251  1  0.882400  0.912400  0.076300  1.0
  H  H1252  1  0.117600  0.087600  0.576300  1.0
  H  H1253  1  0.087600  0.117600  0.423700  1.0
  H  H1254  1  0.912400  0.882400  0.923700  1.0
  H  H1255  1  0.617600  0.412400  0.173700  1.0
  H  H1256  1  0.382400  0.587600  0.673700  1.0
  H  H1257  1  0.345900  0.579300  0.795300  1.0
  H  H1258  1  0.654100  0.420700  0.295300  1.0
  H  H1259  1  0.920700  0.845900  0.045300  1.0
  H  H1260  1  0.079300  0.154100  0.545300  1.0
  H  H1261  1  0.154100  0.079300  0.454700  1.0
  H  H1262  1  0.845900  0.920700  0.954700  1.0
  H  H1263  1  0.579300  0.345900  0.204700  1.0
  H  H1264  1  0.420700  0.654100  0.704700  1.0
  H  H1265  1  0.396600  0.583300  0.802500  1.0
  H  H1266  1  0.603400  0.416700  0.302500  1.0
  H  H1267  1  0.916700  0.896600  0.052500  1.0
  H  H1268  1  0.083300  0.103400  0.552500  1.0
  H  H1269  1  0.103400  0.083300  0.447500  1.0
  H  H1270  1  0.896600  0.916700  0.947500  1.0
  H  H1271  1  0.583300  0.396600  0.197500  1.0
  H  H1272  1  0.416700  0.603400  0.697500  1.0
  H  H1273  1  0.358900  0.550900  0.810600  1.0
  H  H1274  1  0.641100  0.449100  0.310600  1.0
  H  H1275  1  0.949100  0.858900  0.060600  1.0
  H  H1276  1  0.050900  0.141100  0.560600  1.0
  H  H1277  1  0.141100  0.050900  0.439400  1.0
  H  H1278  1  0.858900  0.949100  0.939400  1.0
  H  H1279  1  0.550900  0.358900  0.189400  1.0
  H  H1280  1  0.449100  0.641100  0.689400  1.0
  H  H1281  1  0.255200  0.671600  0.807800  1.0
  H  H1282  1  0.744800  0.328400  0.307800  1.0
  H  H1283  1  0.828400  0.755200  0.057800  1.0
  H  H1284  1  0.171600  0.244800  0.557800  1.0
  H  H1285  1  0.244800  0.171600  0.442200  1.0
  H  H1286  1  0.755200  0.828400  0.942200  1.0
  H  H1287  1  0.671600  0.255200  0.192200  1.0
  H  H1288  1  0.328400  0.744800  0.692200  1.0
  H  H1289  1  0.192800  0.626500  0.790100  1.0
  H  H1290  1  0.807200  0.373500  0.290100  1.0
  H  H1291  1  0.873500  0.692800  0.040100  1.0
  H  H1292  1  0.126500  0.307200  0.540100  1.0
  H  H1293  1  0.307200  0.126500  0.459900  1.0
  H  H1294  1  0.692800  0.873500  0.959900  1.0
  H  H1295  1  0.626500  0.192800  0.209900  1.0
  H  H1296  1  0.373500  0.807200  0.709900  1.0
  H  H1297  1  0.212100  0.725400  0.792000  1.0
  H  H1298  1  0.787900  0.274600  0.292000  1.0
  H  H1299  1  0.774600  0.712100  0.042000  1.0
  H  H1300  1  0.225400  0.287900  0.542000  1.0
  H  H1301  1  0.287900  0.225400  0.458000  1.0
  H  H1302  1  0.712100  0.774600  0.958000  1.0
  H  H1303  1  0.725400  0.212100  0.208000  1.0
  H  H1304  1  0.274600  0.787900  0.708000  1.0
  H  H1305  1  0.173900  0.700400  0.802500  1.0
  H  H1306  1  0.826100  0.299600  0.302500  1.0
  H  H1307  1  0.799600  0.673900  0.052500  1.0
  H  H1308  1  0.200400  0.326100  0.552500  1.0
  H  H1309  1  0.326100  0.200400  0.447500  1.0
  H  H1310  1  0.673900  0.799600  0.947500  1.0
  H  H1311  1  0.700400  0.173900  0.197500  1.0
  H  H1312  1  0.299600  0.826100  0.697500  1.0
  H  H1313  1  0.096500  0.669200  0.787700  1.0
  H  H1314  1  0.903500  0.330800  0.287700  1.0
  H  H1315  1  0.830800  0.596500  0.037700  1.0
  H  H1316  1  0.169200  0.403500  0.537700  1.0
  H  H1317  1  0.403500  0.169200  0.462300  1.0
  H  H1318  1  0.596500  0.830800  0.962300  1.0
  H  H1319  1  0.669200  0.096500  0.212300  1.0
  H  H1320  1  0.330800  0.903500  0.712300  1.0
  H  H1321  1  0.045900  0.676700  0.766300  1.0
  H  H1322  1  0.954100  0.323300  0.266300  1.0
  H  H1323  1  0.823300  0.545900  0.016300  1.0
  H  H1324  1  0.176700  0.454100  0.516300  1.0
  H  H1325  1  0.454100  0.176700  0.483700  1.0
  H  H1326  1  0.545900  0.823300  0.983700  1.0
  H  H1327  1  0.676700  0.045900  0.233700  1.0
  H  H1328  1  0.323300  0.954100  0.733700  1.0
  H  H1329  1  0.070100  0.717300  0.744000  1.0
  H  H1330  1  0.929900  0.282700  0.244000  1.0
  H  H1331  1  0.782700  0.570100  0.994000  1.0
  H  H1332  1  0.217300  0.429900  0.494000  1.0
  H  H1333  1  0.429900  0.217300  0.506000  1.0
  H  H1334  1  0.570100  0.782700  0.006000  1.0
  H  H1335  1  0.717300  0.070100  0.256000  1.0
  H  H1336  1  0.282700  0.929900  0.756000  1.0
  H  H1337  1  0.144800  0.750300  0.743000  1.0
  H  H1338  1  0.855200  0.249700  0.243000  1.0
  H  H1339  1  0.749700  0.644800  0.993000  1.0
  H  H1340  1  0.250300  0.355200  0.493000  1.0
  H  H1341  1  0.355200  0.250300  0.507000  1.0
  H  H1342  1  0.644800  0.749700  0.007000  1.0
  H  H1343  1  0.750300  0.144800  0.257000  1.0
  H  H1344  1  0.249700  0.855200  0.757000  1.0
  H  H1345  1  0.195300  0.742700  0.764400  1.0
  H  H1346  1  0.804700  0.257300  0.264400  1.0
  H  H1347  1  0.757300  0.695300  0.014400  1.0
  H  H1348  1  0.242700  0.304700  0.514400  1.0
  H  H1349  1  0.304700  0.242700  0.485600  1.0
  H  H1350  1  0.695300  0.757300  0.985600  1.0
  H  H1351  1  0.742700  0.195300  0.235600  1.0
  H  H1352  1  0.257300  0.804700  0.735600  1.0
  H  H1353  1  0.207900  0.612400  0.763400  1.0
  H  H1354  1  0.792100  0.387600  0.263400  1.0
  H  H1355  1  0.887600  0.707900  0.013400  1.0
  H  H1356  1  0.112400  0.292100  0.513400  1.0
  H  H1357  1  0.292100  0.112400  0.486600  1.0
  H  H1358  1  0.707900  0.887600  0.986600  1.0
  H  H1359  1  0.612400  0.207900  0.236600  1.0
  H  H1360  1  0.387600  0.792100  0.736600  1.0
  H  H1361  1  0.279000  0.653200  0.748400  1.0
  H  H1362  1  0.721000  0.346800  0.248400  1.0
  H  H1363  1  0.846800  0.779000  0.998400  1.0
  H  H1364  1  0.153200  0.221000  0.498400  1.0
  H  H1365  1  0.221000  0.153200  0.501600  1.0
  H  H1366  1  0.779000  0.846800  0.001600  1.0
  H  H1367  1  0.653200  0.279000  0.251600  1.0
  H  H1368  1  0.346800  0.721000  0.751600  1.0
  H  H1369  1  0.260300  0.556100  0.746300  1.0
  H  H1370  1  0.739700  0.443900  0.246300  1.0
  H  H1371  1  0.943900  0.760300  0.996300  1.0
  H  H1372  1  0.056100  0.239700  0.496300  1.0
  H  H1373  1  0.239700  0.056100  0.503700  1.0
  H  H1374  1  0.760300  0.943900  0.003700  1.0
  H  H1375  1  0.556100  0.260300  0.253700  1.0
  H  H1376  1  0.443900  0.739700  0.753700  1.0
  H  H1377  1  0.283500  0.582300  0.721100  1.0
  H  H1378  1  0.716500  0.417700  0.221100  1.0
  H  H1379  1  0.917700  0.783500  0.971100  1.0
  H  H1380  1  0.082300  0.216500  0.471100  1.0
  H  H1381  1  0.216500  0.082300  0.528900  1.0
  H  H1382  1  0.783500  0.917700  0.028900  1.0
  H  H1383  1  0.582300  0.283500  0.278900  1.0
  H  H1384  1  0.417700  0.716500  0.778900  1.0
  H  H1385  1  0.329800  0.603200  0.728400  1.0
  H  H1386  1  0.670200  0.396800  0.228400  1.0
  H  H1387  1  0.896800  0.829800  0.978400  1.0
  H  H1388  1  0.103200  0.170200  0.478400  1.0
  H  H1389  1  0.170200  0.103200  0.521600  1.0
  H  H1390  1  0.829800  0.896800  0.021600  1.0
  H  H1391  1  0.603200  0.329800  0.271600  1.0
  H  H1392  1  0.396800  0.670200  0.771600  1.0
  H  H1393  1  0.321600  0.548600  0.728400  1.0
  H  H1394  1  0.678400  0.451400  0.228400  1.0
  H  H1395  1  0.951400  0.821600  0.978400  1.0
  H  H1396  1  0.048600  0.178400  0.478400  1.0
  H  H1397  1  0.178400  0.048600  0.521600  1.0
  H  H1398  1  0.821600  0.951400  0.021600  1.0
  H  H1399  1  0.548600  0.321600  0.271600  1.0
  H  H1400  1  0.451400  0.678400  0.771600  1.0
  H  H1401  1  0.336600  0.548100  0.756300  1.0
  H  H1402  1  0.663400  0.451900  0.256300  1.0
  H  H1403  1  0.951900  0.836600  0.006300  1.0
  H  H1404  1  0.048100  0.163400  0.506300  1.0
  H  H1405  1  0.163400  0.048100  0.493700  1.0
  H  H1406  1  0.836600  0.951900  0.993700  1.0
  H  H1407  1  0.548100  0.336600  0.243700  1.0
  H  H1408  1  0.451900  0.663400  0.743700  1.0
  H  H1409  1  0.340600  0.603000  0.757700  1.0
  H  H1410  1  0.659400  0.397000  0.257700  1.0
  H  H1411  1  0.897000  0.840600  0.007700  1.0
  H  H1412  1  0.103000  0.159400  0.507700  1.0
  H  H1413  1  0.159400  0.103000  0.492300  1.0
  H  H1414  1  0.840600  0.897000  0.992300  1.0
  H  H1415  1  0.603000  0.340600  0.242300  1.0
  H  H1416  1  0.397000  0.659400  0.742300  1.0
  H  H1417  1  0.304300  0.575600  0.768200  1.0
  H  H1418  1  0.695700  0.424400  0.268200  1.0
  H  H1419  1  0.924400  0.804300  0.018200  1.0
  H  H1420  1  0.075600  0.195700  0.518200  1.0
  H  H1421  1  0.195700  0.075600  0.481800  1.0
  H  H1422  1  0.804300  0.924400  0.981800  1.0
  H  H1423  1  0.575600  0.304300  0.231800  1.0
  H  H1424  1  0.424400  0.695700  0.731800  1.0
  H  H1425  1  0.249000  0.693600  0.727100  1.0
  H  H1426  1  0.751000  0.306400  0.227100  1.0
  H  H1427  1  0.806400  0.749000  0.977100  1.0
  H  H1428  1  0.193600  0.251000  0.477100  1.0
  H  H1429  1  0.251000  0.193600  0.522900  1.0
  H  H1430  1  0.749000  0.806400  0.022900  1.0
  H  H1431  1  0.693600  0.249000  0.272900  1.0
  H  H1432  1  0.306400  0.751000  0.772900  1.0
  H  H1433  1  0.140200  0.682500  0.718100  1.0
  H  H1434  1  0.859800  0.317500  0.218100  1.0
  H  H1435  1  0.817500  0.640200  0.968100  1.0
  H  H1436  1  0.182500  0.359800  0.468100  1.0
  H  H1437  1  0.359800  0.182500  0.531900  1.0
  H  H1438  1  0.640200  0.817500  0.031900  1.0
  H  H1439  1  0.682500  0.140200  0.281900  1.0
  H  H1440  1  0.317500  0.859800  0.781900  1.0
  H  H1441  1  0.106000  0.695900  0.693700  1.0
  H  H1442  1  0.894000  0.304100  0.193700  1.0
  H  H1443  1  0.804100  0.606000  0.943700  1.0
  H  H1444  1  0.195900  0.394000  0.443700  1.0
  H  H1445  1  0.394000  0.195900  0.556300  1.0
  H  H1446  1  0.606000  0.804100  0.056300  1.0
  H  H1447  1  0.695900  0.106000  0.306300  1.0
  H  H1448  1  0.304100  0.894000  0.806300  1.0
  H  H1449  1  0.153100  0.708300  0.671700  1.0
  H  H1450  1  0.846900  0.291700  0.171700  1.0
  H  H1451  1  0.791700  0.653100  0.921700  1.0
  H  H1452  1  0.208300  0.346900  0.421700  1.0
  H  H1453  1  0.346900  0.208300  0.578300  1.0
  H  H1454  1  0.653100  0.791700  0.078300  1.0
  H  H1455  1  0.708300  0.153100  0.328300  1.0
  H  H1456  1  0.291700  0.846900  0.828300  1.0
  H  H1457  1  0.268700  0.693800  0.698600  1.0
  H  H1458  1  0.731300  0.306200  0.198600  1.0
  H  H1459  1  0.806200  0.768700  0.948600  1.0
  H  H1460  1  0.193800  0.231300  0.448600  1.0
  H  H1461  1  0.231300  0.193800  0.551400  1.0
  H  H1462  1  0.768700  0.806200  0.051400  1.0
  H  H1463  1  0.693800  0.268700  0.301400  1.0
  H  H1464  1  0.306200  0.731300  0.801400  1.0
  H  H1465  1  0.314300  0.688300  0.646900  1.0
  H  H1466  1  0.685700  0.311700  0.146900  1.0
  H  H1467  1  0.811700  0.814300  0.896900  1.0
  H  H1468  1  0.188300  0.185700  0.396900  1.0
  H  H1469  1  0.185700  0.188300  0.603100  1.0
  H  H1470  1  0.814300  0.811700  0.103100  1.0
  H  H1471  1  0.688300  0.314300  0.353100  1.0
  H  H1472  1  0.311700  0.685700  0.853100  1.0
  H  H1473  1  0.187700  0.694000  0.641800  1.0
  H  H1474  1  0.812300  0.306000  0.141800  1.0
  H  H1475  1  0.806000  0.687700  0.891800  1.0
  H  H1476  1  0.194000  0.312300  0.391800  1.0
  H  H1477  1  0.312300  0.194000  0.608200  1.0
  H  H1478  1  0.687700  0.806000  0.108200  1.0
  H  H1479  1  0.694000  0.187700  0.358200  1.0
  H  H1480  1  0.306000  0.812300  0.858200  1.0
  H  H1481  1  0.184500  0.660000  0.656700  1.0
  H  H1482  1  0.815500  0.340000  0.156700  1.0
  H  H1483  1  0.840000  0.684500  0.906700  1.0
  H  H1484  1  0.160000  0.315500  0.406700  1.0
  H  H1485  1  0.315500  0.160000  0.593300  1.0
  H  H1486  1  0.684500  0.840000  0.093300  1.0
  H  H1487  1  0.660000  0.184500  0.343300  1.0
  H  H1488  1  0.340000  0.815500  0.843300  1.0
  H  H1489  1  0.252200  0.616600  0.647000  1.0
  H  H1490  1  0.747800  0.383400  0.147000  1.0
  H  H1491  1  0.883400  0.752200  0.897000  1.0
  H  H1492  1  0.116600  0.247800  0.397000  1.0
  H  H1493  1  0.247800  0.116600  0.603000  1.0
  H  H1494  1  0.752200  0.883400  0.103000  1.0
  H  H1495  1  0.616600  0.252200  0.353000  1.0
  H  H1496  1  0.383400  0.747800  0.853000  1.0
  H  H1497  1  0.213300  0.615700  0.633600  1.0
  H  H1498  1  0.786700  0.384300  0.133600  1.0
  H  H1499  1  0.884300  0.713300  0.883600  1.0
  H  H1500  1  0.115700  0.286700  0.383600  1.0
  H  H1501  1  0.286700  0.115700  0.616400  1.0
  H  H1502  1  0.713300  0.884300  0.116400  1.0
  H  H1503  1  0.615700  0.213300  0.366400  1.0
  H  H1504  1  0.384300  0.786700  0.866400  1.0
  H  H1505  1  0.246400  0.685100  0.621900  1.0
  H  H1506  1  0.753600  0.314900  0.121900  1.0
  H  H1507  1  0.814900  0.746400  0.871900  1.0
  H  H1508  1  0.185100  0.253600  0.371900  1.0
  H  H1509  1  0.253600  0.185100  0.628100  1.0
  H  H1510  1  0.746400  0.814900  0.128100  1.0
  H  H1511  1  0.685100  0.246400  0.378100  1.0
  H  H1512  1  0.314900  0.753600  0.878100  1.0
  H  H1513  1  0.289400  0.649900  0.624300  1.0
  H  H1514  1  0.710600  0.350100  0.124300  1.0
  H  H1515  1  0.850100  0.789400  0.874300  1.0
  H  H1516  1  0.149900  0.210600  0.374300  1.0
  H  H1517  1  0.210600  0.149900  0.625700  1.0
  H  H1518  1  0.789400  0.850100  0.125700  1.0
  H  H1519  1  0.649900  0.289400  0.375700  1.0
  H  H1520  1  0.350100  0.710600  0.875700  1.0
  H  H1521  1  0.345100  0.755500  0.641700  1.0
  H  H1522  1  0.654900  0.244500  0.141700  1.0
  H  H1523  1  0.744500  0.845100  0.891700  1.0
  H  H1524  1  0.255500  0.154900  0.391700  1.0
  H  H1525  1  0.154900  0.255500  0.608300  1.0
  H  H1526  1  0.845100  0.744500  0.108300  1.0
  H  H1527  1  0.755500  0.345100  0.358300  1.0
  H  H1528  1  0.244500  0.654900  0.858300  1.0
  H  H1529  1  0.358400  0.828800  0.635100  1.0
  H  H1530  1  0.641600  0.171200  0.135100  1.0
  H  H1531  1  0.671200  0.858400  0.885100  1.0
  H  H1532  1  0.328800  0.141600  0.385100  1.0
  H  H1533  1  0.141600  0.328800  0.614900  1.0
  H  H1534  1  0.858400  0.671200  0.114900  1.0
  H  H1535  1  0.828800  0.358400  0.364900  1.0
  H  H1536  1  0.171200  0.641600  0.864900  1.0
  H  H1537  1  0.309300  0.831200  0.626900  1.0
  H  H1538  1  0.690700  0.168800  0.126900  1.0
  H  H1539  1  0.668800  0.809300  0.876900  1.0
  H  H1540  1  0.331200  0.190700  0.376900  1.0
  H  H1541  1  0.190700  0.331200  0.623100  1.0
  H  H1542  1  0.809300  0.668800  0.123100  1.0
  H  H1543  1  0.831200  0.309300  0.373100  1.0
  H  H1544  1  0.168800  0.690700  0.873100  1.0
  H  H1545  1  0.373900  0.801200  0.579400  1.0
  H  H1546  1  0.626100  0.198800  0.079400  1.0
  H  H1547  1  0.698800  0.873900  0.829400  1.0
  H  H1548  1  0.301200  0.126100  0.329400  1.0
  H  H1549  1  0.126100  0.301200  0.670600  1.0
  H  H1550  1  0.873900  0.698800  0.170600  1.0
  H  H1551  1  0.801200  0.373900  0.420600  1.0
  H  H1552  1  0.198800  0.626100  0.920600  1.0
  H  H1553  1  0.356500  0.907600  0.609300  1.0
  H  H1554  1  0.643500  0.092400  0.109300  1.0
  H  H1555  1  0.592400  0.856500  0.859300  1.0
  H  H1556  1  0.407600  0.143500  0.359300  1.0
  H  H1557  1  0.143500  0.407600  0.640700  1.0
  H  H1558  1  0.856500  0.592400  0.140700  1.0
  H  H1559  1  0.907600  0.356500  0.390700  1.0
  H  H1560  1  0.092400  0.643500  0.890700  1.0
  H  H1561  1  0.310400  0.892600  0.599800  1.0
  H  H1562  1  0.689600  0.107400  0.099800  1.0
  H  H1563  1  0.607400  0.810400  0.849800  1.0
  H  H1564  1  0.392600  0.189600  0.349800  1.0
  H  H1565  1  0.189600  0.392600  0.650200  1.0
  H  H1566  1  0.810400  0.607400  0.150200  1.0
  H  H1567  1  0.892600  0.310400  0.400200  1.0
  H  H1568  1  0.107400  0.689600  0.900200  1.0
  H  H1569  1  0.344100  0.923100  0.578700  1.0
  H  H1570  1  0.655900  0.076900  0.078700  1.0
  H  H1571  1  0.576900  0.844100  0.828700  1.0
  H  H1572  1  0.423100  0.155900  0.328700  1.0
  H  H1573  1  0.155900  0.423100  0.671300  1.0
  H  H1574  1  0.844100  0.576900  0.171300  1.0
  H  H1575  1  0.923100  0.344100  0.421300  1.0
  H  H1576  1  0.076900  0.655900  0.921300  1.0
  H  H1577  1  0.391800  0.929200  0.587500  1.0
  H  H1578  1  0.608200  0.070800  0.087500  1.0
  H  H1579  1  0.570800  0.891800  0.837500  1.0
  H  H1580  1  0.429200  0.108200  0.337500  1.0
  H  H1581  1  0.108200  0.429200  0.662500  1.0
  H  H1582  1  0.891800  0.570800  0.162500  1.0
  H  H1583  1  0.929200  0.391800  0.412500  1.0
  H  H1584  1  0.070800  0.608200  0.912500  1.0
  H  H1585  1  0.422800  0.880100  0.570900  1.0
  H  H1586  1  0.577200  0.119900  0.070900  1.0
  H  H1587  1  0.619900  0.922800  0.820900  1.0
  H  H1588  1  0.380100  0.077200  0.320900  1.0
  H  H1589  1  0.077200  0.380100  0.679100  1.0
  H  H1590  1  0.922800  0.619900  0.179100  1.0
  H  H1591  1  0.880100  0.422800  0.429100  1.0
  H  H1592  1  0.119900  0.577200  0.929100  1.0
  H  H1593  1  0.372500  0.867200  0.563900  1.0
  H  H1594  1  0.627500  0.132800  0.063900  1.0
  H  H1595  1  0.632800  0.872500  0.813900  1.0
  H  H1596  1  0.367200  0.127500  0.313900  1.0
  H  H1597  1  0.127500  0.367200  0.686100  1.0
  H  H1598  1  0.872500  0.632800  0.186100  1.0
  H  H1599  1  0.867200  0.372500  0.436100  1.0
  H  H1600  1  0.132800  0.627500  0.936100  1.0
  H  H1601  1  0.437700  0.769900  0.574100  1.0
  H  H1602  1  0.562300  0.230100  0.074100  1.0
  H  H1603  1  0.730100  0.937700  0.824100  1.0
  H  H1604  1  0.269900  0.062300  0.324100  1.0
  H  H1605  1  0.062300  0.269900  0.675900  1.0
  H  H1606  1  0.937700  0.730100  0.175900  1.0
  H  H1607  1  0.769900  0.437700  0.425900  1.0
  H  H1608  1  0.230100  0.562300  0.925900  1.0
  H  H1609  1  0.494500  0.705600  0.571700  1.0
  H  H1610  1  0.505500  0.294400  0.071700  1.0
  H  H1611  1  0.794400  0.994500  0.821700  1.0
  H  H1612  1  0.205600  0.005500  0.321700  1.0
  H  H1613  1  0.005500  0.205600  0.678300  1.0
  H  H1614  1  0.994500  0.794400  0.178300  1.0
  H  H1615  1  0.705600  0.494500  0.428300  1.0
  H  H1616  1  0.294400  0.505500  0.928300  1.0
  H  H1617  1  0.533200  0.836200  0.584600  1.0
  H  H1618  1  0.466800  0.163800  0.084600  1.0
  H  H1619  1  0.663800  0.033200  0.834600  1.0
  H  H1620  1  0.336200  0.966800  0.334600  1.0
  H  H1621  1  0.966800  0.336200  0.665400  1.0
  H  H1622  1  0.033200  0.663800  0.165400  1.0
  H  H1623  1  0.836200  0.533200  0.415400  1.0
  H  H1624  1  0.163800  0.466800  0.915400  1.0
  H  H1625  1  0.608800  0.809400  0.589700  1.0
  H  H1626  1  0.391200  0.190600  0.089700  1.0
  H  H1627  1  0.690600  0.108800  0.839700  1.0
  H  H1628  1  0.309400  0.891200  0.339700  1.0
  H  H1629  1  0.891200  0.309400  0.660300  1.0
  H  H1630  1  0.108800  0.690600  0.160300  1.0
  H  H1631  1  0.809400  0.608800  0.410300  1.0
  H  H1632  1  0.190600  0.391200  0.910300  1.0
  H  H1633  1  0.627300  0.730600  0.585800  1.0
  H  H1634  1  0.372700  0.269400  0.085800  1.0
  H  H1635  1  0.769400  0.127300  0.835800  1.0
  H  H1636  1  0.230600  0.872700  0.335800  1.0
  H  H1637  1  0.872700  0.230600  0.664200  1.0
  H  H1638  1  0.127300  0.769400  0.164200  1.0
  H  H1639  1  0.730600  0.627300  0.414200  1.0
  H  H1640  1  0.269400  0.372700  0.914200  1.0
  C  C1641  1  0.409000  0.077700  0.023500  1
  C  C1642  1  0.591000  0.922300  0.523500  1
  C  C1643  1  0.422300  0.909000  0.273500  1
  C  C1644  1  0.577700  0.091000  0.773500  1
  C  C1645  1  0.091000  0.577700  0.226500  1
  C  C1646  1  0.909000  0.422300  0.726500  1
  C  C1647  1  0.077700  0.409000  0.976500  1
  C  C1648  1  0.922300  0.591000  0.476500  1
  C  C1649  1  0.367800  0.055400  0.018800  1
  C  C1650  1  0.632200  0.944600  0.518800  1
  C  C1651  1  0.444600  0.867800  0.268800  1
  C  C1652  1  0.555400  0.132200  0.768800  1
  C  C1653  1  0.132200  0.555400  0.231200  1
  C  C1654  1  0.867800  0.444600  0.731200  1
  C  C1655  1  0.055400  0.367800  0.981200  1
  C  C1656  1  0.944600  0.632200  0.481200  1
  C  C1657  1  0.363600  0.006800  0.020100  1
  C  C1658  1  0.636400  0.993200  0.520100  1
  C  C1659  1  0.493200  0.863600  0.270100  1
  C  C1660  1  0.506800  0.136400  0.770100  1
  C  C1661  1  0.136400  0.506800  0.229900  1
  C  C1662  1  0.863600  0.493200  0.729900  1
  C  C1663  1  0.006800  0.363600  0.979900  1
  C  C1664  1  0.993200  0.636400  0.479900  1
  C  C1665  1  0.400600  0.980500  0.026300  1
  C  C1666  1  0.599400  0.019500  0.526300  1
  C  C1667  1  0.519500  0.900600  0.276300  1
  C  C1668  1  0.480500  0.099400  0.776300  1
  C  C1669  1  0.099400  0.480500  0.223700  1
  C  C1670  1  0.900600  0.519500  0.723700  1
  C  C1671  1  0.980500  0.400600  0.973700  1
  C  C1672  1  0.019500  0.599400  0.473700  1
  C  C1673  1  0.441800  0.002800  0.031000  1
  C  C1674  1  0.558200  0.997200  0.531000  1
  C  C1675  1  0.497200  0.941800  0.281000  1
  C  C1676  1  0.502800  0.058200  0.781000  1
  C  C1677  1  0.058200  0.502800  0.219000  1
  C  C1678  1  0.941800  0.497200  0.719000  1
  C  C1679  1  0.002800  0.441800  0.969000  1
  C  C1680  1  0.997200  0.558200  0.469000  1
  C  C1681  1  0.329800  0.085400  0.013800  1
  C  C1682  1  0.670200  0.914600  0.513800  1
  C  C1683  1  0.414600  0.829800  0.263800  1
  C  C1684  1  0.585400  0.170200  0.763800  1
  C  C1685  1  0.170200  0.585400  0.236200  1
  C  C1686  1  0.829800  0.414600  0.736200  1
  C  C1687  1  0.085400  0.329800  0.986200  1
  C  C1688  1  0.914600  0.670200  0.486200  1
  C  C1689  1  0.295100  0.154800  0.000800  1
  C  C1690  1  0.704900  0.845200  0.500800  1
  C  C1691  1  0.345200  0.795100  0.250800  1
  C  C1692  1  0.654800  0.204900  0.750800  1
  C  C1693  1  0.204900  0.654800  0.249200  1
  C  C1694  1  0.795100  0.345200  0.749200  1
  C  C1695  1  0.154800  0.295100  0.999200  1
  C  C1696  1  0.845200  0.704900  0.499200  1
  C  C1697  1  0.276200  0.136800  0.985100  1
  C  C1698  1  0.723800  0.863200  0.485100  1
  C  C1699  1  0.363200  0.776200  0.235100  1
  C  C1700  1  0.636800  0.223800  0.735100  1
  C  C1701  1  0.223800  0.636800  0.264900  1
  C  C1702  1  0.776200  0.363200  0.764900  1
  C  C1703  1  0.136800  0.276200  0.014900  1
  C  C1704  1  0.863200  0.723800  0.514900  1
  C  C1705  1  0.310700  0.201600  0.999200  1
  C  C1706  1  0.689300  0.798400  0.499200  1
  C  C1707  1  0.298400  0.810700  0.249200  1
  C  C1708  1  0.701600  0.189300  0.749200  1
  C  C1709  1  0.189300  0.701600  0.250800  1
  C  C1710  1  0.810700  0.298400  0.750800  1
  C  C1711  1  0.201600  0.310700  0.000800  1
  C  C1712  1  0.798400  0.689300  0.500800  1
  C  C1713  1  0.317200  0.223000  0.018500  1
  C  C1714  1  0.682800  0.777000  0.518500  1
  C  C1715  1  0.277000  0.817200  0.268500  1
  C  C1716  1  0.723000  0.182800  0.768500  1
  C  C1717  1  0.182800  0.723000  0.231500  1
  C  C1718  1  0.817200  0.277000  0.731500  1
  C  C1719  1  0.223000  0.317200  0.981500  1
  C  C1720  1  0.777000  0.682800  0.481500  1
  C  C1721  1  0.277700  0.224800  0.028200  1
  C  C1722  1  0.722300  0.775200  0.528200  1
  C  C1723  1  0.275200  0.777700  0.278200  1
  C  C1724  1  0.724800  0.222300  0.778200  1
  C  C1725  1  0.222300  0.724800  0.221800  1
  C  C1726  1  0.777700  0.275200  0.721800  1
  C  C1727  1  0.224800  0.277700  0.971800  1
  C  C1728  1  0.775200  0.722300  0.471800  1
  C  C1729  1  0.282200  0.237900  0.043900  1
  C  C1730  1  0.717800  0.762100  0.543900  1
  C  C1731  1  0.262100  0.782200  0.293900  1
  C  C1732  1  0.737900  0.217800  0.793900  1
  C  C1733  1  0.217800  0.737900  0.206100  1
  C  C1734  1  0.782200  0.262100  0.706100  1
  C  C1735  1  0.237900  0.282200  0.956100  1
  C  C1736  1  0.762100  0.717800  0.456100  1
  C  C1737  1  0.326200  0.249100  0.050000  1
  C  C1738  1  0.673800  0.750900  0.550000  1
  C  C1739  1  0.250900  0.826200  0.300000  1
  C  C1740  1  0.749100  0.173800  0.800000  1
  C  C1741  1  0.173800  0.749100  0.200000  1
  C  C1742  1  0.826200  0.250900  0.700000  1
  C  C1743  1  0.249100  0.326200  0.950000  1
  C  C1744  1  0.750900  0.673800  0.450000  1
  C  C1745  1  0.365800  0.247300  0.040300  1
  C  C1746  1  0.634200  0.752700  0.540300  1
  C  C1747  1  0.252700  0.865800  0.290300  1
  C  C1748  1  0.747300  0.134200  0.790300  1
  C  C1749  1  0.134200  0.747300  0.209700  1
  C  C1750  1  0.865800  0.252700  0.709700  1
  C  C1751  1  0.247300  0.365800  0.959700  1
  C  C1752  1  0.752700  0.634200  0.459700  1
  C  C1753  1  0.361300  0.234200  0.024600  1
  C  C1754  1  0.638700  0.765800  0.524600  1
  C  C1755  1  0.265800  0.861300  0.274600  1
  C  C1756  1  0.734200  0.138700  0.774600  1
  C  C1757  1  0.138700  0.734200  0.225400  1
  C  C1758  1  0.861300  0.265800  0.725400  1
  C  C1759  1  0.234200  0.361300  0.975400  1
  C  C1760  1  0.765800  0.638700  0.475400  1
  C  C1761  1  0.196600  0.128000  0.971400  1
  C  C1762  1  0.803400  0.872000  0.471400  1
  C  C1763  1  0.372000  0.696600  0.221400  1
  C  C1764  1  0.628000  0.303400  0.721400  1
  C  C1765  1  0.303400  0.628000  0.278600  1
  C  C1766  1  0.696600  0.372000  0.778600  1
  C  C1767  1  0.128000  0.196600  0.028600  1
  C  C1768  1  0.872000  0.803400  0.528600  1
  C  C1769  1  0.157200  0.167000  0.970700  1
  C  C1770  1  0.842800  0.833000  0.470700  1
  C  C1771  1  0.333000  0.657200  0.220700  1
  C  C1772  1  0.667000  0.342800  0.720700  1
  C  C1773  1  0.342800  0.667000  0.279300  1
  C  C1774  1  0.657200  0.333000  0.779300  1
  C  C1775  1  0.167000  0.157200  0.029300  1
  C  C1776  1  0.833000  0.842800  0.529300  1
  C  C1777  1  0.173800  0.079500  0.974000  1
  C  C1778  1  0.826200  0.920500  0.474000  1
  C  C1779  1  0.420500  0.673800  0.224000  1
  C  C1780  1  0.579500  0.326200  0.724000  1
  C  C1781  1  0.326200  0.579500  0.276000  1
  C  C1782  1  0.673800  0.420500  0.776000  1
  C  C1783  1  0.079500  0.173800  0.026000  1
  C  C1784  1  0.920500  0.826200  0.526000  1
  C  C1785  1  0.216700  0.045500  0.974200  1
  C  C1786  1  0.783300  0.954500  0.474200  1
  C  C1787  1  0.454500  0.716700  0.224200  1
  C  C1788  1  0.545500  0.283300  0.724200  1
  C  C1789  1  0.283300  0.545500  0.275800  1
  C  C1790  1  0.716700  0.454500  0.775800  1
  C  C1791  1  0.045500  0.216700  0.025800  1
  C  C1792  1  0.954500  0.783300  0.525800  1
  C  C1793  1  0.137500  0.063300  0.961800  1
  C  C1794  1  0.862500  0.936700  0.461800  1
  C  C1795  1  0.436700  0.637500  0.211800  1
  C  C1796  1  0.563300  0.362500  0.711800  1
  C  C1797  1  0.362500  0.563300  0.288200  1
  C  C1798  1  0.637500  0.436700  0.788200  1
  C  C1799  1  0.063300  0.137500  0.038200  1
  C  C1800  1  0.936700  0.862500  0.538200  1
  C  C1801  1  0.107800  0.215600  0.955100  1
  C  C1802  1  0.892200  0.784400  0.455100  1
  C  C1803  1  0.284400  0.607800  0.205100  1
  C  C1804  1  0.715600  0.392200  0.705100  1
  C  C1805  1  0.392200  0.715600  0.294900  1
  C  C1806  1  0.607800  0.284400  0.794900  1
  C  C1807  1  0.215600  0.107800  0.044900  1
  C  C1808  1  0.784400  0.892200  0.544900  1
  C  C1809  1  0.059600  0.190300  0.956600  1
  C  C1810  1  0.940400  0.809700  0.456600  1
  C  C1811  1  0.309700  0.559600  0.206600  1
  C  C1812  1  0.690300  0.440400  0.706600  1
  C  C1813  1  0.440400  0.690300  0.293400  1
  C  C1814  1  0.559600  0.309700  0.793400  1
  C  C1815  1  0.190300  0.059600  0.043400  1
  C  C1816  1  0.809700  0.940400  0.543400  1
  C  C1817  1  0.113900  0.235100  0.937500  1
  C  C1818  1  0.886100  0.764900  0.437500  1
  C  C1819  1  0.264900  0.613900  0.187500  1
  C  C1820  1  0.735100  0.386100  0.687500  1
  C  C1821  1  0.386100  0.735100  0.312500  1
  C  C1822  1  0.613900  0.264900  0.812500  1
  C  C1823  1  0.235100  0.113900  0.062500  1
  C  C1824  1  0.764900  0.886100  0.562500  1
  C  C1825  1  0.079700  0.280500  0.936700  1
  C  C1826  1  0.920300  0.719500  0.436700  1
  C  C1827  1  0.219500  0.579700  0.186700  1
  C  C1828  1  0.780500  0.420300  0.686700  1
  C  C1829  1  0.420300  0.780500  0.313300  1
  C  C1830  1  0.579700  0.219500  0.813300  1
  C  C1831  1  0.280500  0.079700  0.063300  1
  C  C1832  1  0.719500  0.920300  0.563300  1
  C  C1833  1  0.097700  0.324200  0.941000  1
  C  C1834  1  0.902300  0.675800  0.441000  1
  C  C1835  1  0.175800  0.597700  0.191000  1
  C  C1836  1  0.824200  0.402300  0.691000  1
  C  C1837  1  0.402300  0.824200  0.309000  1
  C  C1838  1  0.597700  0.175800  0.809000  1
  C  C1839  1  0.324200  0.097700  0.059000  1
  C  C1840  1  0.675800  0.902300  0.559000  1
  C  C1841  1  0.069700  0.364200  0.939800  1
  C  C1842  1  0.930300  0.635800  0.439800  1
  C  C1843  1  0.135800  0.569700  0.189800  1
  C  C1844  1  0.864200  0.430300  0.689800  1
  C  C1845  1  0.430300  0.864200  0.310200  1
  C  C1846  1  0.569700  0.135800  0.810200  1
  C  C1847  1  0.364200  0.069700  0.060200  1
  C  C1848  1  0.635800  0.930300  0.560200  1
  C  C1849  1  0.023800  0.360500  0.934300  1
  C  C1850  1  0.976200  0.639500  0.434300  1
  C  C1851  1  0.139500  0.523800  0.184300  1
  C  C1852  1  0.860500  0.476200  0.684300  1
  C  C1853  1  0.476200  0.860500  0.315700  1
  C  C1854  1  0.523800  0.139500  0.815700  1
  C  C1855  1  0.360500  0.023800  0.065700  1
  C  C1856  1  0.639500  0.976200  0.565700  1
  C  C1857  1  0.005800  0.316800  0.929900  1
  C  C1858  1  0.994200  0.683200  0.429900  1
  C  C1859  1  0.183200  0.505800  0.179900  1
  C  C1860  1  0.816800  0.494200  0.679900  1
  C  C1861  1  0.494200  0.816800  0.320100  1
  C  C1862  1  0.505800  0.183200  0.820100  1
  C  C1863  1  0.316800  0.005800  0.070100  1
  C  C1864  1  0.683200  0.994200  0.570100  1
  C  C1865  1  0.033800  0.276800  0.931200  1
  C  C1866  1  0.966200  0.723200  0.431200  1
  C  C1867  1  0.223200  0.533800  0.181200  1
  C  C1868  1  0.776800  0.466200  0.681200  1
  C  C1869  1  0.466200  0.776800  0.318800  1
  C  C1870  1  0.533800  0.223200  0.818800  1
  C  C1871  1  0.276800  0.033800  0.068800  1
  C  C1872  1  0.723200  0.966200  0.568800  1
  C  C1873  1  0.981500  0.194000  0.968400  1
  C  C1874  1  0.018500  0.806000  0.468400  1
  C  C1875  1  0.306000  0.481500  0.218400  1
  C  C1876  1  0.694000  0.518500  0.718400  1
  C  C1877  1  0.518500  0.694000  0.281600  1
  C  C1878  1  0.481500  0.306000  0.781600  1
  C  C1879  1  0.194000  0.981500  0.031600  1
  C  C1880  1  0.806000  0.018500  0.531600  1
  C  C1881  1  0.950100  0.235700  0.964800  1
  C  C1882  1  0.049900  0.764300  0.464800  1
  C  C1883  1  0.264300  0.450100  0.214800  1
  C  C1884  1  0.735700  0.549900  0.714800  1
  C  C1885  1  0.549900  0.735700  0.285200  1
  C  C1886  1  0.450100  0.264300  0.785200  1
  C  C1887  1  0.235700  0.950100  0.035200  1
  C  C1888  1  0.764300  0.049900  0.535200  1
  C  C1889  1  0.978200  0.163900  0.983300  1
  C  C1890  1  0.021800  0.836100  0.483300  1
  C  C1891  1  0.336100  0.478200  0.233300  1
  C  C1892  1  0.663900  0.521800  0.733300  1
  C  C1893  1  0.521800  0.663900  0.266700  1
  C  C1894  1  0.478200  0.336100  0.766700  1
  C  C1895  1  0.163900  0.978200  0.016700  1
  C  C1896  1  0.836100  0.021800  0.516700  1
  C  C1897  1  0.012700  0.124300  0.985600  1
  C  C1898  1  0.987300  0.875700  0.485600  1
  C  C1899  1  0.375700  0.512700  0.235600  1
  C  C1900  1  0.624300  0.487300  0.735600  1
  C  C1901  1  0.487300  0.624300  0.264400  1
  C  C1902  1  0.512700  0.375700  0.764400  1
  C  C1903  1  0.124300  0.012700  0.014400  1
  C  C1904  1  0.875700  0.987300  0.514400  1
  C  C1905  1  0.933300  0.135600  0.988300  1
  C  C1906  1  0.066700  0.864400  0.488300  1
  C  C1907  1  0.364400  0.433300  0.238300  1
  C  C1908  1  0.635600  0.566700  0.738300  1
  C  C1909  1  0.566700  0.635600  0.261700  1
  C  C1910  1  0.433300  0.364400  0.761700  1
  C  C1911  1  0.135600  0.933300  0.011700  1
  C  C1912  1  0.864400  0.066700  0.511700  1
  C  C1913  1  0.868000  0.250200  0.958200  1
  C  C1914  1  0.132000  0.749800  0.458200  1
  C  C1915  1  0.249800  0.368000  0.208200  1
  C  C1916  1  0.750200  0.632000  0.708200  1
  C  C1917  1  0.632000  0.750200  0.291800  1
  C  C1918  1  0.368000  0.249800  0.791800  1
  C  C1919  1  0.250200  0.868000  0.041800  1
  C  C1920  1  0.749800  0.132000  0.541800  1
  C  C1921  1  0.868200  0.299100  0.958500  1
  C  C1922  1  0.131800  0.700900  0.458500  1
  C  C1923  1  0.200900  0.368200  0.208500  1
  C  C1924  1  0.799100  0.631800  0.708500  1
  C  C1925  1  0.631800  0.799100  0.291500  1
  C  C1926  1  0.368200  0.200900  0.791500  1
  C  C1927  1  0.299100  0.868200  0.041500  1
  C  C1928  1  0.700900  0.131800  0.541500  1
  C  C1929  1  0.826100  0.323800  0.957300  1
  C  C1930  1  0.173900  0.676200  0.457300  1
  C  C1931  1  0.176200  0.326100  0.207300  1
  C  C1932  1  0.823800  0.673900  0.707300  1
  C  C1933  1  0.673900  0.823800  0.292700  1
  C  C1934  1  0.326100  0.176200  0.792700  1
  C  C1935  1  0.323800  0.826100  0.042700  1
  C  C1936  1  0.676200  0.173900  0.542700  1
  C  C1937  1  0.783800  0.299600  0.955900  1
  C  C1938  1  0.216200  0.700400  0.455900  1
  C  C1939  1  0.200400  0.283800  0.205900  1
  C  C1940  1  0.799600  0.716200  0.705900  1
  C  C1941  1  0.716200  0.799600  0.294100  1
  C  C1942  1  0.283800  0.200400  0.794100  1
  C  C1943  1  0.299600  0.783800  0.044100  1
  C  C1944  1  0.700400  0.216200  0.544100  1
  C  C1945  1  0.783600  0.250700  0.955600  1
  C  C1946  1  0.216400  0.749300  0.455600  1
  C  C1947  1  0.249300  0.283600  0.205600  1
  C  C1948  1  0.750700  0.716400  0.705600  1
  C  C1949  1  0.716400  0.750700  0.294400  1
  C  C1950  1  0.283600  0.249300  0.794400  1
  C  C1951  1  0.250700  0.783600  0.044400  1
  C  C1952  1  0.749300  0.216400  0.544400  1
  C  C1953  1  0.825700  0.225900  0.956800  1
  C  C1954  1  0.174300  0.774100  0.456800  1
  C  C1955  1  0.274100  0.325700  0.206800  1
  C  C1956  1  0.725900  0.674300  0.706800  1
  C  C1957  1  0.674300  0.725900  0.293200  1
  C  C1958  1  0.325700  0.274100  0.793200  1
  C  C1959  1  0.225900  0.825700  0.043200  1
  C  C1960  1  0.774100  0.174300  0.543200  1
  C  C1961  1  0.742300  0.221400  0.954800  1
  C  C1962  1  0.257700  0.778600  0.454800  1
  C  C1963  1  0.278600  0.242300  0.204800  1
  C  C1964  1  0.721400  0.757700  0.704800  1
  C  C1965  1  0.757700  0.721400  0.295200  1
  C  C1966  1  0.242300  0.278600  0.795200  1
  C  C1967  1  0.221400  0.742300  0.045200  1
  C  C1968  1  0.778600  0.257700  0.545200  1
  C  C1969  1  0.661800  0.205100  0.963100  1
  C  C1970  1  0.338200  0.794900  0.463100  1
  C  C1971  1  0.294900  0.161800  0.213100  1
  C  C1972  1  0.705100  0.838200  0.713100  1
  C  C1973  1  0.838200  0.705100  0.286900  1
  C  C1974  1  0.161800  0.294900  0.786900  1
  C  C1975  1  0.205100  0.661800  0.036900  1
  C  C1976  1  0.794900  0.338200  0.536900  1
  C  C1977  1  0.644600  0.197100  0.947000  1
  C  C1978  1  0.355400  0.802900  0.447000  1
  C  C1979  1  0.302900  0.144600  0.197000  1
  C  C1980  1  0.697100  0.855400  0.697000  1
  C  C1981  1  0.855400  0.697100  0.303000  1
  C  C1982  1  0.144600  0.302900  0.803000  1
  C  C1983  1  0.197100  0.644600  0.053000  1
  C  C1984  1  0.802900  0.355400  0.553000  1
  C  C1985  1  0.691700  0.283500  0.969100  1
  C  C1986  1  0.308300  0.716500  0.469100  1
  C  C1987  1  0.216500  0.191700  0.219100  1
  C  C1988  1  0.783500  0.808300  0.719100  1
  C  C1989  1  0.808300  0.783500  0.280900  1
  C  C1990  1  0.191700  0.216500  0.780900  1
  C  C1991  1  0.283500  0.691700  0.030900  1
  C  C1992  1  0.716500  0.308300  0.530900  1
  C  C1993  1  0.660500  0.261000  0.981800  1
  C  C1994  1  0.339500  0.739000  0.481800  1
  C  C1995  1  0.239000  0.160500  0.231800  1
  C  C1996  1  0.761000  0.839500  0.731800  1
  C  C1997  1  0.839500  0.761000  0.268200  1
  C  C1998  1  0.160500  0.239000  0.768200  1
  C  C1999  1  0.261000  0.660500  0.018200  1
  C  C2000  1  0.739000  0.339500  0.518200  1
  C  C2001  1  0.624200  0.233700  0.972000  1
  C  C2002  1  0.375800  0.766300  0.472000  1
  C  C2003  1  0.266300  0.124200  0.222000  1
  C  C2004  1  0.733700  0.875800  0.722000  1
  C  C2005  1  0.875800  0.733700  0.278000  1
  C  C2006  1  0.124200  0.266300  0.778000  1
  C  C2007  1  0.233700  0.624200  0.028000  1
  C  C2008  1  0.766300  0.375800  0.528000  1
  C  C2009  1  0.609200  0.137700  0.927800  1
  C  C2010  1  0.390800  0.862300  0.427800  1
  C  C2011  1  0.362300  0.109200  0.177800  1
  C  C2012  1  0.637700  0.890800  0.677800  1
  C  C2013  1  0.890800  0.637700  0.322200  1
  C  C2014  1  0.109200  0.362300  0.822200  1
  C  C2015  1  0.137700  0.609200  0.072200  1
  C  C2016  1  0.862300  0.390800  0.572200  1
  C  C2017  1  0.555300  0.124300  0.933700  1
  C  C2018  1  0.444700  0.875700  0.433700  1
  C  C2019  1  0.375700  0.055300  0.183700  1
  C  C2020  1  0.624300  0.944700  0.683700  1
  C  C2021  1  0.944700  0.624300  0.316300  1
  C  C2022  1  0.055300  0.375700  0.816300  1
  C  C2023  1  0.124300  0.555300  0.066300  1
  C  C2024  1  0.875700  0.444700  0.566300  1
  C  C2025  1  0.486400  0.084800  0.927900  1
  C  C2026  1  0.513600  0.915200  0.427900  1
  C  C2027  1  0.415200  0.986400  0.177900  1
  C  C2028  1  0.584800  0.013600  0.677900  1
  C  C2029  1  0.013600  0.584800  0.322100  1
  C  C2030  1  0.986400  0.415200  0.822100  1
  C  C2031  1  0.084800  0.486400  0.072100  1
  C  C2032  1  0.915200  0.513600  0.572100  1
  C  C2033  1  0.482200  0.049900  0.940000  1
  C  C2034  1  0.517800  0.950100  0.440000  1
  C  C2035  1  0.450100  0.982200  0.190000  1
  C  C2036  1  0.549900  0.017800  0.690000  1
  C  C2037  1  0.017800  0.549900  0.310000  1
  C  C2038  1  0.982200  0.450100  0.810000  1
  C  C2039  1  0.049900  0.482200  0.060000  1
  C  C2040  1  0.950100  0.517800  0.560000  1
  C  C2041  1  0.552900  0.085400  0.908200  1
  C  C2042  1  0.447100  0.914600  0.408200  1
  C  C2043  1  0.414600  0.052900  0.158200  1
  C  C2044  1  0.585400  0.947100  0.658200  1
  C  C2045  1  0.947100  0.585400  0.341800  1
  C  C2046  1  0.052900  0.414600  0.841800  1
  C  C2047  1  0.085400  0.552900  0.091800  1
  C  C2048  1  0.914600  0.447100  0.591800  1
  C  C2049  1  0.508400  0.059500  0.903200  1
  C  C2050  1  0.491600  0.940500  0.403200  1
  C  C2051  1  0.440500  0.008400  0.153200  1
  C  C2052  1  0.559500  0.991600  0.653200  1
  C  C2053  1  0.991600  0.559500  0.346800  1
  C  C2054  1  0.008400  0.440500  0.846800  1
  C  C2055  1  0.059500  0.508400  0.096800  1
  C  C2056  1  0.940500  0.491600  0.596800  1
  C  C2057  1  0.464400  0.061600  0.913600  1
  C  C2058  1  0.535600  0.938400  0.413600  1
  C  C2059  1  0.438400  0.964400  0.163600  1
  C  C2060  1  0.561600  0.035600  0.663600  1
  C  C2061  1  0.035600  0.561600  0.336400  1
  C  C2062  1  0.964400  0.438400  0.836400  1
  C  C2063  1  0.061600  0.464400  0.086400  1
  C  C2064  1  0.938400  0.535600  0.586400  1
  C  C2065  1  0.438100  0.990700  0.964600  1
  C  C2066  1  0.561900  0.009300  0.464600  1
  C  C2067  1  0.509300  0.938100  0.214600  1
  C  C2068  1  0.490700  0.061900  0.714600  1
  C  C2069  1  0.061900  0.490700  0.285400  1
  C  C2070  1  0.938100  0.509300  0.785400  1
  C  C2071  1  0.990700  0.438100  0.035400  1
  C  C2072  1  0.009300  0.561900  0.535400  1
  C  C2073  1  0.420300  0.035200  0.961300  1
  C  C2074  1  0.579700  0.964800  0.461300  1
  C  C2075  1  0.464800  0.920300  0.211300  1
  C  C2076  1  0.535200  0.079700  0.711300  1
  C  C2077  1  0.079700  0.535200  0.288700  1
  C  C2078  1  0.920300  0.464800  0.788700  1
  C  C2079  1  0.035200  0.420300  0.038700  1
  C  C2080  1  0.964800  0.579700  0.538700  1
  C  C2081  1  0.379900  0.051000  0.968900  1
  C  C2082  1  0.620100  0.949000  0.468900  1
  C  C2083  1  0.449000  0.879900  0.218900  1
  C  C2084  1  0.551000  0.120100  0.718900  1
  C  C2085  1  0.120100  0.551000  0.281100  1
  C  C2086  1  0.879900  0.449000  0.781100  1
  C  C2087  1  0.051000  0.379900  0.031100  1
  C  C2088  1  0.949000  0.620100  0.531100  1
  C  C2089  1  0.357300  0.022300  0.979800  1
  C  C2090  1  0.642700  0.977700  0.479800  1
  C  C2091  1  0.477700  0.857300  0.229800  1
  C  C2092  1  0.522300  0.142700  0.729800  1
  C  C2093  1  0.142700  0.522300  0.270200  1
  C  C2094  1  0.857300  0.477700  0.770200  1
  C  C2095  1  0.022300  0.357300  0.020200  1
  C  C2096  1  0.977700  0.642700  0.520200  1
  C  C2097  1  0.375200  0.977800  0.983200  1
  C  C2098  1  0.624800  0.022200  0.483200  1
  C  C2099  1  0.522200  0.875200  0.233200  1
  C  C2100  1  0.477800  0.124800  0.733200  1
  C  C2101  1  0.124800  0.477800  0.266800  1
  C  C2102  1  0.875200  0.522200  0.766800  1
  C  C2103  1  0.977800  0.375200  0.016800  1
  C  C2104  1  0.022200  0.624800  0.516800  1
  C  C2105  1  0.514400  0.912700  0.007100  1
  C  C2106  1  0.485600  0.087300  0.507100  1
  C  C2107  1  0.587300  0.014400  0.257100  1
  C  C2108  1  0.412700  0.985600  0.757100  1
  C  C2109  1  0.985600  0.412700  0.242900  1
  C  C2110  1  0.014400  0.587300  0.742900  1
  C  C2111  1  0.912700  0.514400  0.992900  1
  C  C2112  1  0.087300  0.485600  0.492900  1
  C  C2113  1  0.558200  0.925700  0.013000  1
  C  C2114  1  0.441800  0.074300  0.513000  1
  C  C2115  1  0.574300  0.058200  0.263000  1
  C  C2116  1  0.425700  0.941800  0.763000  1
  C  C2117  1  0.941800  0.425700  0.237000  1
  C  C2118  1  0.058200  0.574300  0.737000  1
  C  C2119  1  0.925700  0.558200  0.987000  1
  C  C2120  1  0.074300  0.441800  0.487000  1
  C  C2121  1  0.594200  0.938400  0.002700  1
  C  C2122  1  0.405800  0.061600  0.502700  1
  C  C2123  1  0.561600  0.094200  0.252700  1
  C  C2124  1  0.438400  0.905800  0.752700  1
  C  C2125  1  0.905800  0.438400  0.247300  1
  C  C2126  1  0.094200  0.561600  0.747300  1
  C  C2127  1  0.938400  0.594200  0.997300  1
  C  C2128  1  0.061600  0.405800  0.497300  1
  C  C2129  1  0.586400  0.938000  0.986500  1
  C  C2130  1  0.413600  0.062000  0.486500  1
  C  C2131  1  0.562000  0.086400  0.236500  1
  C  C2132  1  0.438000  0.913600  0.736500  1
  C  C2133  1  0.913600  0.438000  0.263500  1
  C  C2134  1  0.086400  0.562000  0.763500  1
  C  C2135  1  0.938000  0.586400  0.013500  1
  C  C2136  1  0.062000  0.413600  0.513500  1
  C  C2137  1  0.542700  0.924900  0.980600  1
  C  C2138  1  0.457300  0.075100  0.480600  1
  C  C2139  1  0.575100  0.042700  0.230600  1
  C  C2140  1  0.424900  0.957300  0.730600  1
  C  C2141  1  0.957300  0.424900  0.269400  1
  C  C2142  1  0.042700  0.575100  0.769400  1
  C  C2143  1  0.924900  0.542700  0.019400  1
  C  C2144  1  0.075100  0.457300  0.519400  1
  C  C2145  1  0.624100  0.953100  0.975100  1
  C  C2146  1  0.375900  0.046900  0.475100  1
  C  C2147  1  0.546900  0.124100  0.225100  1
  C  C2148  1  0.453100  0.875900  0.725100  1
  C  C2149  1  0.875900  0.453100  0.274900  1
  C  C2150  1  0.124100  0.546900  0.774900  1
  C  C2151  1  0.953100  0.624100  0.024900  1
  C  C2152  1  0.046900  0.375900  0.524900  1
  C  C2153  1  0.646700  0.979500  0.949700  1
  C  C2154  1  0.353300  0.020500  0.449700  1
  C  C2155  1  0.520500  0.146700  0.199700  1
  C  C2156  1  0.479500  0.853300  0.699700  1
  C  C2157  1  0.853300  0.479500  0.300300  1
  C  C2158  1  0.146700  0.520500  0.800300  1
  C  C2159  1  0.979500  0.646700  0.050300  1
  C  C2160  1  0.020500  0.353300  0.550300  1
  C  C2161  1  0.671800  0.029800  0.953300  1
  C  C2162  1  0.328200  0.970200  0.453300  1
  C  C2163  1  0.470200  0.171800  0.203300  1
  C  C2164  1  0.529800  0.828200  0.703300  1
  C  C2165  1  0.828200  0.529800  0.296700  1
  C  C2166  1  0.171800  0.470200  0.796700  1
  C  C2167  1  0.029800  0.671800  0.046700  1
  C  C2168  1  0.970200  0.328200  0.546700  1
  C  C2169  1  0.628800  0.982100  0.934100  1
  C  C2170  1  0.371200  0.017900  0.434100  1
  C  C2171  1  0.517900  0.128800  0.184100  1
  C  C2172  1  0.482100  0.871200  0.684100  1
  C  C2173  1  0.871200  0.482100  0.315900  1
  C  C2174  1  0.128800  0.517900  0.815900  1
  C  C2175  1  0.982100  0.628800  0.065900  1
  C  C2176  1  0.017900  0.371200  0.565900  1
  C  C2177  1  0.614300  0.931900  0.928200  1
  C  C2178  1  0.385700  0.068100  0.428200  1
  C  C2179  1  0.568100  0.114300  0.178200  1
  C  C2180  1  0.431900  0.885700  0.678200  1
  C  C2181  1  0.885700  0.431900  0.321800  1
  C  C2182  1  0.114300  0.568100  0.821800  1
  C  C2183  1  0.931900  0.614300  0.071800  1
  C  C2184  1  0.068100  0.385700  0.571800  1
  C  C2185  1  0.568700  0.914300  0.929400  1
  C  C2186  1  0.431300  0.085700  0.429400  1
  C  C2187  1  0.585700  0.068700  0.179400  1
  C  C2188  1  0.414300  0.931300  0.679400  1
  C  C2189  1  0.931300  0.414300  0.320600  1
  C  C2190  1  0.068700  0.585700  0.820600  1
  C  C2191  1  0.914300  0.568700  0.070600  1
  C  C2192  1  0.085700  0.431300  0.570600  1
  C  C2193  1  0.559600  0.867500  0.925700  1
  C  C2194  1  0.440400  0.132500  0.425700  1
  C  C2195  1  0.632500  0.059600  0.175700  1
  C  C2196  1  0.367500  0.940400  0.675700  1
  C  C2197  1  0.940400  0.367500  0.324300  1
  C  C2198  1  0.059600  0.632500  0.824300  1
  C  C2199  1  0.867500  0.559600  0.074300  1
  C  C2200  1  0.132500  0.440400  0.574300  1
  C  C2201  1  0.596100  0.838300  0.920800  1
  C  C2202  1  0.403900  0.161700  0.420800  1
  C  C2203  1  0.661700  0.096100  0.170800  1
  C  C2204  1  0.338300  0.903900  0.670800  1
  C  C2205  1  0.903900  0.338300  0.329200  1
  C  C2206  1  0.096100  0.661700  0.829200  1
  C  C2207  1  0.838300  0.596100  0.079200  1
  C  C2208  1  0.161700  0.403900  0.579200  1
  C  C2209  1  0.641600  0.855900  0.919600  1
  C  C2210  1  0.358400  0.144100  0.419600  1
  C  C2211  1  0.644100  0.141600  0.169600  1
  C  C2212  1  0.355900  0.858400  0.669600  1
  C  C2213  1  0.858400  0.355900  0.330400  1
  C  C2214  1  0.141600  0.644100  0.830400  1
  C  C2215  1  0.855900  0.641600  0.080400  1
  C  C2216  1  0.144100  0.358400  0.580400  1
  C  C2217  1  0.650700  0.902700  0.923300  1
  C  C2218  1  0.349300  0.097300  0.423300  1
  C  C2219  1  0.597300  0.150700  0.173300  1
  C  C2220  1  0.402700  0.849300  0.673300  1
  C  C2221  1  0.849300  0.402700  0.326700  1
  C  C2222  1  0.150700  0.597300  0.826700  1
  C  C2223  1  0.902700  0.650700  0.076700  1
  C  C2224  1  0.097300  0.349300  0.576700  1
  C  C2225  1  0.750200  0.068300  0.954400  1
  C  C2226  1  0.249800  0.931700  0.454400  1
  C  C2227  1  0.431700  0.250200  0.204400  1
  C  C2228  1  0.568300  0.749800  0.704400  1
  C  C2229  1  0.749800  0.568300  0.295600  1
  C  C2230  1  0.250200  0.431700  0.795600  1
  C  C2231  1  0.068300  0.750200  0.045600  1
  C  C2232  1  0.931700  0.249800  0.545600  1
  C  C2233  1  0.787300  0.067300  0.941400  1
  C  C2234  1  0.212700  0.932700  0.441400  1
  C  C2235  1  0.432700  0.287300  0.191400  1
  C  C2236  1  0.567300  0.712700  0.691400  1
  C  C2237  1  0.712700  0.567300  0.308600  1
  C  C2238  1  0.287300  0.432700  0.808600  1
  C  C2239  1  0.067300  0.787300  0.058600  1
  C  C2240  1  0.932700  0.212700  0.558600  1
  C  C2241  1  0.773800  0.060200  0.970200  1
  C  C2242  1  0.226200  0.939800  0.470200  1
  C  C2243  1  0.439800  0.273800  0.220200  1
  C  C2244  1  0.560200  0.726200  0.720200  1
  C  C2245  1  0.726200  0.560200  0.279800  1
  C  C2246  1  0.273800  0.439800  0.779800  1
  C  C2247  1  0.060200  0.773800  0.029800  1
  C  C2248  1  0.939800  0.226200  0.529800  1
  C  C2249  1  0.733200  0.065000  0.982200  1
  C  C2250  1  0.266800  0.935000  0.482200  1
  C  C2251  1  0.435000  0.233200  0.232200  1
  C  C2252  1  0.565000  0.766800  0.732200  1
  C  C2253  1  0.766800  0.565000  0.267800  1
  C  C2254  1  0.233200  0.435000  0.767800  1
  C  C2255  1  0.065000  0.733200  0.017800  1
  C  C2256  1  0.935000  0.266800  0.517800  1
  C  C2257  1  0.804700  0.100800  0.974700  1
  C  C2258  1  0.195300  0.899200  0.474700  1
  C  C2259  1  0.399200  0.304700  0.224700  1
  C  C2260  1  0.600800  0.695300  0.724700  1
  C  C2261  1  0.695300  0.600800  0.275300  1
  C  C2262  1  0.304700  0.399200  0.775300  1
  C  C2263  1  0.100800  0.804700  0.025300  1
  C  C2264  1  0.899200  0.195300  0.525300  1
  C  C2265  1  0.836000  0.117700  0.924400  1
  C  C2266  1  0.164000  0.882300  0.424400  1
  C  C2267  1  0.382300  0.336000  0.174400  1
  C  C2268  1  0.617700  0.664000  0.674400  1
  C  C2269  1  0.664000  0.617700  0.325600  1
  C  C2270  1  0.336000  0.382300  0.825600  1
  C  C2271  1  0.117700  0.836000  0.075600  1
  C  C2272  1  0.882300  0.164000  0.575600  1
  C  C2273  1  0.886200  0.112900  0.933300  1
  C  C2274  1  0.113800  0.887100  0.433300  1
  C  C2275  1  0.387100  0.386200  0.183300  1
  C  C2276  1  0.612900  0.613800  0.683300  1
  C  C2277  1  0.613800  0.612900  0.316700  1
  C  C2278  1  0.386200  0.387100  0.816700  1
  C  C2279  1  0.112900  0.886200  0.066700  1
  C  C2280  1  0.887100  0.113800  0.566700  1
  C  C2281  1  0.831300  0.167300  0.918800  1
  C  C2282  1  0.168700  0.832700  0.418800  1
  C  C2283  1  0.332700  0.331300  0.168800  1
  C  C2284  1  0.667300  0.668700  0.668800  1
  C  C2285  1  0.668700  0.667300  0.331200  1
  C  C2286  1  0.331300  0.332700  0.831200  1
  C  C2287  1  0.167300  0.831300  0.081200  1
  C  C2288  1  0.832700  0.168700  0.581200  1
  C  C2289  1  0.866800  0.173400  0.904700  1
  C  C2290  1  0.133200  0.826600  0.404700  1
  C  C2291  1  0.326600  0.366800  0.154700  1
  C  C2292  1  0.673400  0.633200  0.654700  1
  C  C2293  1  0.633200  0.673400  0.345300  1
  C  C2294  1  0.366800  0.326600  0.845300  1
  C  C2295  1  0.173400  0.866800  0.095300  1
  C  C2296  1  0.826600  0.133200  0.595300  1
  C  C2297  1  0.860700  0.158300  0.889300  1
  C  C2298  1  0.139300  0.841700  0.389300  1
  C  C2299  1  0.341700  0.360700  0.139300  1
  C  C2300  1  0.658300  0.639300  0.639300  1
  C  C2301  1  0.639300  0.658300  0.360700  1
  C  C2302  1  0.360700  0.341700  0.860700  1
  C  C2303  1  0.158300  0.860700  0.110700  1
  C  C2304  1  0.841700  0.139300  0.610700  1
  C  C2305  1  0.897400  0.162500  0.878500  1
  C  C2306  1  0.102600  0.837500  0.378500  1
  C  C2307  1  0.337500  0.397400  0.128500  1
  C  C2308  1  0.662500  0.602600  0.628500  1
  C  C2309  1  0.602600  0.662500  0.371500  1
  C  C2310  1  0.397400  0.337500  0.871500  1
  C  C2311  1  0.162500  0.897400  0.121500  1
  C  C2312  1  0.837500  0.102600  0.621500  1
  C  C2313  1  0.940100  0.181900  0.883200  1
  C  C2314  1  0.059900  0.818100  0.383200  1
  C  C2315  1  0.318100  0.440100  0.133200  1
  C  C2316  1  0.681900  0.559900  0.633200  1
  C  C2317  1  0.559900  0.681900  0.366800  1
  C  C2318  1  0.440100  0.318100  0.866800  1
  C  C2319  1  0.181900  0.940100  0.116800  1
  C  C2320  1  0.818100  0.059900  0.616800  1
  C  C2321  1  0.946200  0.197000  0.898600  1
  C  C2322  1  0.053800  0.803000  0.398600  1
  C  C2323  1  0.303000  0.446200  0.148600  1
  C  C2324  1  0.697000  0.553800  0.648600  1
  C  C2325  1  0.553800  0.697000  0.351400  1
  C  C2326  1  0.446200  0.303000  0.851400  1
  C  C2327  1  0.197000  0.946200  0.101400  1
  C  C2328  1  0.803000  0.053800  0.601400  1
  C  C2329  1  0.909500  0.192800  0.909400  1
  C  C2330  1  0.090500  0.807200  0.409400  1
  C  C2331  1  0.307200  0.409500  0.159400  1
  C  C2332  1  0.692800  0.590500  0.659400  1
  C  C2333  1  0.590500  0.692800  0.340600  1
  C  C2334  1  0.409500  0.307200  0.840600  1
  C  C2335  1  0.192800  0.909500  0.090600  1
  C  C2336  1  0.807200  0.090500  0.590600  1
  C  C2337  1  0.963800  0.076900  0.931200  1
  C  C2338  1  0.036200  0.923100  0.431200  1
  C  C2339  1  0.423100  0.463800  0.181200  1
  C  C2340  1  0.576900  0.536200  0.681200  1
  C  C2341  1  0.536200  0.576900  0.318800  1
  C  C2342  1  0.463800  0.423100  0.818800  1
  C  C2343  1  0.076900  0.963800  0.068800  1
  C  C2344  1  0.923100  0.036200  0.568800  1
  C  C2345  1  0.994900  0.080100  0.917100  1
  C  C2346  1  0.005100  0.919900  0.417100  1
  C  C2347  1  0.419900  0.494900  0.167100  1
  C  C2348  1  0.580100  0.505100  0.667100  1
  C  C2349  1  0.505100  0.580100  0.332900  1
  C  C2350  1  0.494900  0.419900  0.832900  1
  C  C2351  1  0.080100  0.994900  0.082900  1
  C  C2352  1  0.919900  0.005100  0.582900  1
  C  C2353  1  0.969900  0.026600  0.937500  1
  C  C2354  1  0.030100  0.973400  0.437500  1
  C  C2355  1  0.473400  0.469900  0.187500  1
  C  C2356  1  0.526600  0.530100  0.687500  1
  C  C2357  1  0.530100  0.526600  0.312500  1
  C  C2358  1  0.469900  0.473400  0.812500  1
  C  C2359  1  0.026600  0.969900  0.062500  1
  C  C2360  1  0.973400  0.030100  0.562500  1
  C  C2361  1  0.020800  0.021700  0.944100  1
  C  C2362  1  0.979200  0.978300  0.444100  1
  C  C2363  1  0.478300  0.520800  0.194100  1
  C  C2364  1  0.521700  0.479200  0.694100  1
  C  C2365  1  0.479200  0.521700  0.305900  1
  C  C2366  1  0.520800  0.478300  0.805900  1
  C  C2367  1  0.021700  0.020800  0.055900  1
  C  C2368  1  0.978300  0.979200  0.555900  1
  C  C2369  1  0.938100  0.020700  0.951900  1
  C  C2370  1  0.061900  0.979300  0.451900  1
  C  C2371  1  0.479300  0.438100  0.201900  1
  C  C2372  1  0.520700  0.561900  0.701900  1
  C  C2373  1  0.561900  0.520700  0.298100  1
  C  C2374  1  0.438100  0.479300  0.798100  1
  C  C2375  1  0.020700  0.938100  0.048100  1
  C  C2376  1  0.979300  0.061900  0.548100  1
  C  C2377  1  0.073900  0.114000  0.910200  1
  C  C2378  1  0.926100  0.886000  0.410200  1
  C  C2379  1  0.386000  0.573900  0.160200  1
  C  C2380  1  0.614000  0.426100  0.660200  1
  C  C2381  1  0.426100  0.614000  0.339800  1
  C  C2382  1  0.573900  0.386000  0.839800  1
  C  C2383  1  0.114000  0.073900  0.089800  1
  C  C2384  1  0.886000  0.926100  0.589800  1
  C  C2385  1  0.071500  0.119100  0.893900  1
  C  C2386  1  0.928500  0.880900  0.393900  1
  C  C2387  1  0.380900  0.571500  0.143900  1
  C  C2388  1  0.619100  0.428500  0.643900  1
  C  C2389  1  0.428500  0.619100  0.356100  1
  C  C2390  1  0.571500  0.380900  0.856100  1
  C  C2391  1  0.119100  0.071500  0.106100  1
  C  C2392  1  0.880900  0.928500  0.606100  1
  C  C2393  1  0.112500  0.124800  0.885200  1
  C  C2394  1  0.887500  0.875200  0.385200  1
  C  C2395  1  0.375200  0.612500  0.135200  1
  C  C2396  1  0.624800  0.387500  0.635200  1
  C  C2397  1  0.387500  0.624800  0.364800  1
  C  C2398  1  0.612500  0.375200  0.864800  1
  C  C2399  1  0.124800  0.112500  0.114800  1
  C  C2400  1  0.875200  0.887500  0.614800  1
  C  C2401  1  0.155900  0.125500  0.892700  1
  C  C2402  1  0.844100  0.874500  0.392700  1
  C  C2403  1  0.374500  0.655900  0.142700  1
  C  C2404  1  0.625500  0.344100  0.642700  1
  C  C2405  1  0.344100  0.625500  0.357300  1
  C  C2406  1  0.655900  0.374500  0.857300  1
  C  C2407  1  0.125500  0.155900  0.107300  1
  C  C2408  1  0.874500  0.844100  0.607300  1
  C  C2409  1  0.158400  0.120400  0.909000  1
  C  C2410  1  0.841600  0.879600  0.409000  1
  C  C2411  1  0.379600  0.658400  0.159000  1
  C  C2412  1  0.620400  0.341600  0.659000  1
  C  C2413  1  0.341600  0.620400  0.341000  1
  C  C2414  1  0.658400  0.379600  0.841000  1
  C  C2415  1  0.120400  0.158400  0.091000  1
  C  C2416  1  0.879600  0.841600  0.591000  1
  C  C2417  1  0.117400  0.114700  0.917700  1
  C  C2418  1  0.882600  0.885300  0.417700  1
  C  C2419  1  0.385300  0.617400  0.167700  1
  C  C2420  1  0.614700  0.382600  0.667700  1
  C  C2421  1  0.382600  0.614700  0.332300  1
  C  C2422  1  0.617400  0.385300  0.832300  1
  C  C2423  1  0.114700  0.117400  0.082300  1
  C  C2424  1  0.885300  0.882600  0.582300  1
  C  C2425  1  0.204200  0.122800  0.920200  1
  C  C2426  1  0.795800  0.877200  0.420200  1
  C  C2427  1  0.377200  0.704200  0.170200  1
  C  C2428  1  0.622800  0.295800  0.670200  1
  C  C2429  1  0.295800  0.622800  0.329800  1
  C  C2430  1  0.704200  0.377200  0.829800  1
  C  C2431  1  0.122800  0.204200  0.079800  1
  C  C2432  1  0.877200  0.795800  0.579800  1
  C  C2433  1  0.281500  0.097400  0.925900  1
  C  C2434  1  0.718500  0.902600  0.425900  1
  C  C2435  1  0.402600  0.781500  0.175900  1
  C  C2436  1  0.597400  0.218500  0.675900  1
  C  C2437  1  0.218500  0.597400  0.324100  1
  C  C2438  1  0.781500  0.402600  0.824100  1
  C  C2439  1  0.097400  0.281500  0.074100  1
  C  C2440  1  0.902600  0.718500  0.574100  1
  C  C2441  1  0.305800  0.144900  0.929000  1
  C  C2442  1  0.694200  0.855100  0.429000  1
  C  C2443  1  0.355100  0.805800  0.179000  1
  C  C2444  1  0.644900  0.194200  0.679000  1
  C  C2445  1  0.194200  0.644900  0.321000  1
  C  C2446  1  0.805800  0.355100  0.821000  1
  C  C2447  1  0.144900  0.305800  0.071000  1
  C  C2448  1  0.855100  0.694200  0.571000  1
  C  C2449  1  0.247700  0.065800  0.900600  1
  C  C2450  1  0.752300  0.934200  0.400600  1
  C  C2451  1  0.434200  0.747700  0.150600  1
  C  C2452  1  0.565800  0.252300  0.650600  1
  C  C2453  1  0.252300  0.565800  0.349400  1
  C  C2454  1  0.747700  0.434200  0.849400  1
  C  C2455  1  0.065800  0.247700  0.099400  1
  C  C2456  1  0.934200  0.752300  0.599400  1
  C  C2457  1  0.297500  0.048000  0.902600  1
  C  C2458  1  0.702500  0.952000  0.402600  1
  C  C2459  1  0.452000  0.797500  0.152600  1
  C  C2460  1  0.548000  0.202500  0.652600  1
  C  C2461  1  0.202500  0.548000  0.347400  1
  C  C2462  1  0.797500  0.452000  0.847400  1
  C  C2463  1  0.048000  0.297500  0.097400  1
  C  C2464  1  0.952000  0.702500  0.597400  1
  C  C2465  1  0.314200  0.058000  0.919500  1
  C  C2466  1  0.685800  0.942000  0.419500  1
  C  C2467  1  0.442000  0.814200  0.169500  1
  C  C2468  1  0.558000  0.185800  0.669500  1
  C  C2469  1  0.185800  0.558000  0.330500  1
  C  C2470  1  0.814200  0.442000  0.830500  1
  C  C2471  1  0.058000  0.314200  0.080500  1
  C  C2472  1  0.942000  0.685800  0.580500  1
  C  C2473  1  0.333000  0.200100  0.947100  1
  C  C2474  1  0.667000  0.799900  0.447100  1
  C  C2475  1  0.299900  0.833000  0.197100  1
  C  C2476  1  0.700100  0.167000  0.697100  1
  C  C2477  1  0.167000  0.700100  0.302900  1
  C  C2478  1  0.833000  0.299900  0.802900  1
  C  C2479  1  0.200100  0.333000  0.052900  1
  C  C2480  1  0.799900  0.667000  0.552900  1
  C  C2481  1  0.385100  0.188100  0.952500  1
  C  C2482  1  0.614900  0.811900  0.452500  1
  C  C2483  1  0.311900  0.885100  0.202500  1
  C  C2484  1  0.688100  0.114900  0.702500  1
  C  C2485  1  0.114900  0.688100  0.297500  1
  C  C2486  1  0.885100  0.311900  0.797500  1
  C  C2487  1  0.188100  0.385100  0.047500  1
  C  C2488  1  0.811900  0.614900  0.547500  1
  C  C2489  1  0.457000  0.211800  0.964300  1
  C  C2490  1  0.543000  0.788200  0.464300  1
  C  C2491  1  0.288200  0.957000  0.214300  1
  C  C2492  1  0.711800  0.043000  0.714300  1
  C  C2493  1  0.043000  0.711800  0.285700  1
  C  C2494  1  0.957000  0.288200  0.785700  1
  C  C2495  1  0.211800  0.457000  0.035700  1
  C  C2496  1  0.788200  0.543000  0.535700  1
  C  C2497  1  0.461400  0.174800  0.976300  1
  C  C2498  1  0.538600  0.825200  0.476300  1
  C  C2499  1  0.325200  0.961400  0.226300  1
  C  C2500  1  0.674800  0.038600  0.726300  1
  C  C2501  1  0.038600  0.674800  0.273700  1
  C  C2502  1  0.961400  0.325200  0.773700  1
  C  C2503  1  0.174800  0.461400  0.023700  1
  C  C2504  1  0.825200  0.538600  0.523700  1
  C  C2505  1  0.394300  0.267500  0.963400  1
  C  C2506  1  0.605700  0.732500  0.463400  1
  C  C2507  1  0.232500  0.894300  0.213400  1
  C  C2508  1  0.767500  0.105700  0.713400  1
  C  C2509  1  0.105700  0.767500  0.286600  1
  C  C2510  1  0.894300  0.232500  0.786600  1
  C  C2511  1  0.267500  0.394300  0.036600  1
  C  C2512  1  0.732500  0.605700  0.536600  1
  C  C2513  1  0.436100  0.297600  0.967300  1
  C  C2514  1  0.563900  0.702400  0.467300  1
  C  C2515  1  0.202400  0.936100  0.217300  1
  C  C2516  1  0.797600  0.063900  0.717300  1
  C  C2517  1  0.063900  0.797600  0.282700  1
  C  C2518  1  0.936100  0.202400  0.782700  1
  C  C2519  1  0.297600  0.436100  0.032700  1
  C  C2520  1  0.702400  0.563900  0.532700  1
  C  C2521  1  0.473000  0.260100  0.970400  1
  C  C2522  1  0.527000  0.739900  0.470400  1
  C  C2523  1  0.239900  0.973000  0.220400  1
  C  C2524  1  0.760100  0.027000  0.720400  1
  C  C2525  1  0.027000  0.760100  0.279600  1
  C  C2526  1  0.973000  0.239900  0.779600  1
  C  C2527  1  0.260100  0.473000  0.029600  1
  C  C2528  1  0.739900  0.527000  0.529600  1
  C  C2529  1  0.511100  0.116600  0.002100  1
  C  C2530  1  0.488900  0.883400  0.502100  1
  C  C2531  1  0.383400  0.011100  0.252100  1
  C  C2532  1  0.616600  0.988900  0.752100  1
  C  C2533  1  0.988900  0.616600  0.247900  1
  C  C2534  1  0.011100  0.383400  0.747900  1
  C  C2535  1  0.116600  0.511100  0.997900  1
  C  C2536  1  0.883400  0.488900  0.497900  1
  C  C2537  1  0.524100  0.118000  0.986300  1
  C  C2538  1  0.475900  0.882000  0.486300  1
  C  C2539  1  0.382000  0.024100  0.236300  1
  C  C2540  1  0.618000  0.975900  0.736300  1
  C  C2541  1  0.975900  0.618000  0.263700  1
  C  C2542  1  0.024100  0.382000  0.763700  1
  C  C2543  1  0.118000  0.524100  0.013700  1
  C  C2544  1  0.882000  0.475900  0.513700  1
  C  C2545  1  0.561500  0.090700  0.981010  1
  C  C2546  1  0.438500  0.909300  0.481010  1
  C  C2547  1  0.409300  0.061500  0.231010  1
  C  C2548  1  0.590700  0.938500  0.731010  1
  C  C2549  1  0.938500  0.590700  0.268990  1
  C  C2550  1  0.061500  0.409300  0.768990  1
  C  C2551  1  0.090700  0.561500  0.018990  1
  C  C2552  1  0.909300  0.438500  0.518990  1
  C  C2553  1  0.585900  0.062000  0.991500  1
  C  C2554  1  0.414100  0.938000  0.491500  1
  C  C2555  1  0.438000  0.085900  0.241500  1
  C  C2556  1  0.562000  0.914100  0.741500  1
  C  C2557  1  0.914100  0.562000  0.258500  1
  C  C2558  1  0.085900  0.438000  0.758500  1
  C  C2559  1  0.062000  0.585900  0.008500  1
  C  C2560  1  0.938000  0.414100  0.508500  1
  C  C2561  1  0.572800  0.060500  0.007300  1
  C  C2562  1  0.427200  0.939500  0.507300  1
  C  C2563  1  0.439500  0.072800  0.257300  1
  C  C2564  1  0.560500  0.927200  0.757300  1
  C  C2565  1  0.927200  0.560500  0.242700  1
  C  C2566  1  0.072800  0.439500  0.742700  1
  C  C2567  1  0.060500  0.572800  0.992700  1
  C  C2568  1  0.939500  0.427200  0.492700  1
  C  C2569  1  0.435100  0.441700  0.903200  1.0
  C  C2570  1  0.564900  0.558300  0.403200  1.0
  C  C2571  1  0.058300  0.935100  0.153200  1.0
  C  C2572  1  0.941700  0.064900  0.653200  1.0
  C  C2573  1  0.064900  0.941700  0.346800  1.0
  C  C2574  1  0.935100  0.058300  0.846800  1.0
  C  C2575  1  0.441700  0.435100  0.096800  1.0
  C  C2576  1  0.558300  0.564900  0.596800  1.0
  C  C2577  1  0.458100  0.451600  0.889100  1.0
  C  C2578  1  0.541900  0.548400  0.389100  1.0
  C  C2579  1  0.048400  0.958100  0.139100  1.0
  C  C2580  1  0.951600  0.041900  0.639100  1.0
  C  C2581  1  0.041900  0.951600  0.360900  1.0
  C  C2582  1  0.958100  0.048400  0.860900  1.0
  C  C2583  1  0.451600  0.458100  0.110900  1.0
  C  C2584  1  0.548400  0.541900  0.610900  1.0
  C  C2585  1  0.432600  0.467100  0.876100  1.0
  C  C2586  1  0.567400  0.532900  0.376100  1.0
  C  C2587  1  0.032900  0.932600  0.126100  1.0
  C  C2588  1  0.967100  0.067400  0.626100  1.0
  C  C2589  1  0.067400  0.967100  0.373900  1.0
  C  C2590  1  0.932600  0.032900  0.873900  1.0
  C  C2591  1  0.467100  0.432600  0.123900  1.0
  C  C2592  1  0.532900  0.567400  0.623900  1.0
  C  C2593  1  0.384100  0.472600  0.877200  1.0
  C  C2594  1  0.615900  0.527400  0.377200  1.0
  C  C2595  1  0.027400  0.884100  0.127200  1.0
  C  C2596  1  0.972600  0.115900  0.627200  1.0
  C  C2597  1  0.115900  0.972600  0.372800  1.0
  C  C2598  1  0.884100  0.027400  0.872800  1.0
  C  C2599  1  0.472600  0.384100  0.122800  1.0
  C  C2600  1  0.527400  0.615900  0.622800  1.0
  C  C2601  1  0.361000  0.462700  0.891200  1.0
  C  C2602  1  0.639000  0.537300  0.391200  1.0
  C  C2603  1  0.037300  0.861000  0.141200  1.0
  C  C2604  1  0.962700  0.139000  0.641200  1.0
  C  C2605  1  0.139000  0.962700  0.358800  1.0
  C  C2606  1  0.861000  0.037300  0.858800  1.0
  C  C2607  1  0.462700  0.361000  0.108800  1.0
  C  C2608  1  0.537300  0.639000  0.608800  1.0
  C  C2609  1  0.356000  0.479200  0.863000  1.0
  C  C2610  1  0.644000  0.520800  0.363000  1.0
  C  C2611  1  0.020800  0.856000  0.113000  1.0
  C  C2612  1  0.979200  0.144000  0.613000  1.0
  C  C2613  1  0.144000  0.979200  0.387000  1.0
  C  C2614  1  0.856000  0.020800  0.887000  1.0
  C  C2615  1  0.479200  0.356000  0.137000  1.0
  C  C2616  1  0.520800  0.644000  0.637000  1.0
  C  C2617  1  0.280800  0.506400  0.850700  1.0
  C  C2618  1  0.719200  0.493600  0.350700  1.0
  C  C2619  1  0.993600  0.780800  0.100700  1.0
  C  C2620  1  0.006400  0.219200  0.600700  1.0
  C  C2621  1  0.219200  0.006400  0.399300  1.0
  C  C2622  1  0.780800  0.993600  0.899300  1.0
  C  C2623  1  0.506400  0.280800  0.149300  1.0
  C  C2624  1  0.493600  0.719200  0.649300  1.0
  C  C2625  1  0.289700  0.554600  0.844600  1.0
  C  C2626  1  0.710300  0.445400  0.344600  1.0
  C  C2627  1  0.945400  0.789700  0.094600  1.0
  C  C2628  1  0.054600  0.210300  0.594600  1.0
  C  C2629  1  0.210300  0.054600  0.405400  1.0
  C  C2630  1  0.789700  0.945400  0.905400  1.0
  C  C2631  1  0.554600  0.289700  0.155400  1.0
  C  C2632  1  0.445400  0.710300  0.655400  1.0
  C  C2633  1  0.230400  0.497500  0.855200  1.0
  C  C2634  1  0.769600  0.502500  0.355200  1.0
  C  C2635  1  0.002500  0.730400  0.105200  1.0
  C  C2636  1  0.997500  0.269600  0.605200  1.0
  C  C2637  1  0.269600  0.997500  0.394800  1.0
  C  C2638  1  0.730400  0.002500  0.894800  1.0
  C  C2639  1  0.497500  0.230400  0.144800  1.0
  C  C2640  1  0.502500  0.769600  0.644800  1.0
  C  C2641  1  0.223400  0.449600  0.856600  1.0
  C  C2642  1  0.776600  0.550400  0.356600  1.0
  C  C2643  1  0.050400  0.723400  0.106600  1.0
  C  C2644  1  0.949600  0.276600  0.606600  1.0
  C  C2645  1  0.276600  0.949600  0.393400  1.0
  C  C2646  1  0.723400  0.050400  0.893400  1.0
  C  C2647  1  0.449600  0.223400  0.143400  1.0
  C  C2648  1  0.550400  0.776600  0.643400  1.0
  C  C2649  1  0.218200  0.420400  0.843500  1.0
  C  C2650  1  0.781800  0.579600  0.343500  1.0
  C  C2651  1  0.079600  0.718200  0.093500  1.0
  C  C2652  1  0.920400  0.281800  0.593500  1.0
  C  C2653  1  0.281800  0.920400  0.406500  1.0
  C  C2654  1  0.718200  0.079600  0.906500  1.0
  C  C2655  1  0.420400  0.218200  0.156500  1.0
  C  C2656  1  0.579600  0.781800  0.656500  1.0
  C  C2657  1  0.209900  0.372600  0.845600  1.0
  C  C2658  1  0.790100  0.627400  0.345600  1.0
  C  C2659  1  0.127400  0.709900  0.095600  1.0
  C  C2660  1  0.872600  0.290100  0.595600  1.0
  C  C2661  1  0.290100  0.872600  0.404400  1.0
  C  C2662  1  0.709900  0.127400  0.904400  1.0
  C  C2663  1  0.372600  0.209900  0.154400  1.0
  C  C2664  1  0.627400  0.790100  0.654400  1.0
  C  C2665  1  0.206900  0.354000  0.860800  1.0
  C  C2666  1  0.793100  0.646000  0.360800  1.0
  C  C2667  1  0.146000  0.706900  0.110800  1.0
  C  C2668  1  0.854000  0.293100  0.610800  1.0
  C  C2669  1  0.293100  0.854000  0.389200  1.0
  C  C2670  1  0.706900  0.146000  0.889200  1.0
  C  C2671  1  0.354000  0.206900  0.139200  1.0
  C  C2672  1  0.646000  0.793100  0.639200  1.0
  C  C2673  1  0.212100  0.383200  0.873800  1.0
  C  C2674  1  0.787900  0.616800  0.373800  1.0
  C  C2675  1  0.116800  0.712100  0.123800  1.0
  C  C2676  1  0.883200  0.287900  0.623800  1.0
  C  C2677  1  0.287900  0.883200  0.376200  1.0
  C  C2678  1  0.712100  0.116800  0.876200  1.0
  C  C2679  1  0.383200  0.212100  0.126200  1.0
  C  C2680  1  0.616800  0.787900  0.626200  1.0
  C  C2681  1  0.220400  0.431000  0.871700  1.0
  C  C2682  1  0.779600  0.569000  0.371700  1.0
  C  C2683  1  0.069000  0.720400  0.121700  1.0
  C  C2684  1  0.931000  0.279600  0.621700  1.0
  C  C2685  1  0.279600  0.931000  0.378300  1.0
  C  C2686  1  0.720400  0.069000  0.878300  1.0
  C  C2687  1  0.431000  0.220400  0.128300  1.0
  C  C2688  1  0.569000  0.779600  0.628300  1.0
  C  C2689  1  0.299100  0.606000  0.821600  1.0
  C  C2690  1  0.700900  0.394000  0.321600  1.0
  C  C2691  1  0.894000  0.799100  0.071600  1.0
  C  C2692  1  0.106000  0.200900  0.571600  1.0
  C  C2693  1  0.200900  0.106000  0.428400  1.0
  C  C2694  1  0.799100  0.894000  0.928400  1.0
  C  C2695  1  0.606000  0.299100  0.178400  1.0
  C  C2696  1  0.394000  0.700900  0.678400  1.0
  C  C2697  1  0.262200  0.603400  0.807600  1.0
  C  C2698  1  0.737800  0.396600  0.307600  1.0
  C  C2699  1  0.896600  0.762200  0.057600  1.0
  C  C2700  1  0.103400  0.237800  0.557600  1.0
  C  C2701  1  0.237800  0.103400  0.442400  1.0
  C  C2702  1  0.762200  0.896600  0.942400  1.0
  C  C2703  1  0.603400  0.262200  0.192400  1.0
  C  C2704  1  0.396600  0.737800  0.692400  1.0
  C  C2705  1  0.347900  0.620300  0.814900  1.0
  C  C2706  1  0.652100  0.379700  0.314900  1.0
  C  C2707  1  0.879700  0.847900  0.064900  1.0
  C  C2708  1  0.120300  0.152100  0.564900  1.0
  C  C2709  1  0.152100  0.120300  0.435100  1.0
  C  C2710  1  0.847900  0.879700  0.935100  1.0
  C  C2711  1  0.620300  0.347900  0.185100  1.0
  C  C2712  1  0.379700  0.652100  0.685100  1.0
  C  C2713  1  0.380000  0.615000  0.829500  1.0
  C  C2714  1  0.620000  0.385000  0.329500  1.0
  C  C2715  1  0.885000  0.880000  0.079500  1.0
  C  C2716  1  0.115000  0.120000  0.579500  1.0
  C  C2717  1  0.120000  0.115000  0.420500  1.0
  C  C2718  1  0.880000  0.885000  0.920500  1.0
  C  C2719  1  0.615000  0.380000  0.170500  1.0
  C  C2720  1  0.385000  0.620000  0.670500  1.0
  C  C2721  1  0.363700  0.579800  0.804900  1.0
  C  C2722  1  0.636300  0.420200  0.304900  1.0
  C  C2723  1  0.920200  0.863700  0.054900  1.0
  C  C2724  1  0.079800  0.136300  0.554900  1.0
  C  C2725  1  0.136300  0.079800  0.445100  1.0
  C  C2726  1  0.863700  0.920200  0.945100  1.0
  C  C2727  1  0.579800  0.363700  0.195100  1.0
  C  C2728  1  0.420200  0.636300  0.695100  1.0
  C  C2729  1  0.215500  0.652500  0.790400  1.0
  C  C2730  1  0.784500  0.347500  0.290400  1.0
  C  C2731  1  0.847500  0.715500  0.040400  1.0
  C  C2732  1  0.152500  0.284500  0.540400  1.0
  C  C2733  1  0.284500  0.152500  0.459600  1.0
  C  C2734  1  0.715500  0.847500  0.959600  1.0
  C  C2735  1  0.652500  0.215500  0.209600  1.0
  C  C2736  1  0.347500  0.784500  0.709600  1.0
  C  C2737  1  0.244100  0.652600  0.775800  1.0
  C  C2738  1  0.755900  0.347400  0.275800  1.0
  C  C2739  1  0.847400  0.744100  0.025800  1.0
  C  C2740  1  0.152600  0.255900  0.525800  1.0
  C  C2741  1  0.255900  0.152600  0.474200  1.0
  C  C2742  1  0.744100  0.847400  0.974200  1.0
  C  C2743  1  0.652600  0.244100  0.224200  1.0
  C  C2744  1  0.347400  0.755900  0.724200  1.0
  C  C2745  1  0.189700  0.699600  0.792400  1.0
  C  C2746  1  0.810300  0.300400  0.292400  1.0
  C  C2747  1  0.800400  0.689700  0.042400  1.0
  C  C2748  1  0.199600  0.310300  0.542400  1.0
  C  C2749  1  0.310300  0.199600  0.457600  1.0
  C  C2750  1  0.689700  0.800400  0.957600  1.0
  C  C2751  1  0.699600  0.189700  0.207600  1.0
  C  C2752  1  0.300400  0.810300  0.707600  1.0
  C  C2753  1  0.150900  0.705200  0.778100  1.0
  C  C2754  1  0.849100  0.294800  0.278100  1.0
  C  C2755  1  0.794800  0.650900  0.028100  1.0
  C  C2756  1  0.205200  0.349100  0.528100  1.0
  C  C2757  1  0.349100  0.205200  0.471900  1.0
  C  C2758  1  0.650900  0.794800  0.971900  1.0
  C  C2759  1  0.705200  0.150900  0.221900  1.0
  C  C2760  1  0.294800  0.849100  0.721900  1.0
  C  C2761  1  0.106200  0.685400  0.778700  1.0
  C  C2762  1  0.893800  0.314600  0.278700  1.0
  C  C2763  1  0.814600  0.606200  0.028700  1.0
  C  C2764  1  0.185400  0.393800  0.528700  1.0
  C  C2765  1  0.393800  0.185400  0.471300  1.0
  C  C2766  1  0.606200  0.814600  0.971300  1.0
  C  C2767  1  0.685400  0.106200  0.221300  1.0
  C  C2768  1  0.314600  0.893800  0.721300  1.0
  C  C2769  1  0.075900  0.689900  0.765900  1.0
  C  C2770  1  0.924100  0.310100  0.265900  1.0
  C  C2771  1  0.810100  0.575900  0.015900  1.0
  C  C2772  1  0.189900  0.424100  0.515900  1.0
  C  C2773  1  0.424100  0.189900  0.484100  1.0
  C  C2774  1  0.575900  0.810100  0.984100  1.0
  C  C2775  1  0.689900  0.075900  0.234100  1.0
  C  C2776  1  0.310100  0.924100  0.734100  1.0
  C  C2777  1  0.090300  0.714200  0.752600  1.0
  C  C2778  1  0.909700  0.285800  0.252600  1.0
  C  C2779  1  0.785800  0.590300  0.002600  1.0
  C  C2780  1  0.214200  0.409700  0.502600  1.0
  C  C2781  1  0.409700  0.214200  0.497400  1.0
  C  C2782  1  0.590300  0.785800  0.997400  1.0
  C  C2783  1  0.714200  0.090300  0.247400  1.0
  C  C2784  1  0.285800  0.909700  0.747400  1.0
  C  C2785  1  0.135100  0.734000  0.752000  1.0
  C  C2786  1  0.864900  0.266000  0.252000  1.0
  C  C2787  1  0.766000  0.635100  0.002000  1.0
  C  C2788  1  0.234000  0.364900  0.502000  1.0
  C  C2789  1  0.364900  0.234000  0.498000  1.0
  C  C2790  1  0.635100  0.766000  0.998000  1.0
  C  C2791  1  0.734000  0.135100  0.248000  1.0
  C  C2792  1  0.266000  0.864900  0.748000  1.0
  C  C2793  1  0.165400  0.729500  0.764700  1.0
  C  C2794  1  0.834600  0.270500  0.264700  1.0
  C  C2795  1  0.770500  0.665400  0.014700  1.0
  C  C2796  1  0.229500  0.334600  0.514700  1.0
  C  C2797  1  0.334600  0.229500  0.485300  1.0
  C  C2798  1  0.665400  0.770500  0.985300  1.0
  C  C2799  1  0.729500  0.165400  0.235300  1.0
  C  C2800  1  0.270500  0.834600  0.735300  1.0
  C  C2801  1  0.255600  0.627900  0.748300  1.0
  C  C2802  1  0.744400  0.372100  0.248300  1.0
  C  C2803  1  0.872100  0.755600  0.998300  1.0
  C  C2804  1  0.127900  0.244400  0.498300  1.0
  C  C2805  1  0.244400  0.127900  0.501700  1.0
  C  C2806  1  0.755600  0.872100  0.001700  1.0
  C  C2807  1  0.627900  0.255600  0.251700  1.0
  C  C2808  1  0.372100  0.744400  0.751700  1.0
  C  C2809  1  0.223000  0.638900  0.735800  1.0
  C  C2810  1  0.777000  0.361100  0.235800  1.0
  C  C2811  1  0.861100  0.723000  0.985800  1.0
  C  C2812  1  0.138900  0.277000  0.485800  1.0
  C  C2813  1  0.277000  0.138900  0.514200  1.0
  C  C2814  1  0.723000  0.861100  0.014200  1.0
  C  C2815  1  0.638900  0.223000  0.264200  1.0
  C  C2816  1  0.361100  0.777000  0.764200  1.0
  C  C2817  1  0.282500  0.582400  0.745300  1.0
  C  C2818  1  0.717500  0.417600  0.245300  1.0
  C  C2819  1  0.917600  0.782500  0.995300  1.0
  C  C2820  1  0.082400  0.217500  0.495300  1.0
  C  C2821  1  0.217500  0.082400  0.504700  1.0
  C  C2822  1  0.782500  0.917600  0.004700  1.0
  C  C2823  1  0.582400  0.282500  0.254700  1.0
  C  C2824  1  0.417600  0.717500  0.754700  1.0
  C  C2825  1  0.306600  0.578800  0.729300  1.0
  C  C2826  1  0.693400  0.421200  0.229300  1.0
  C  C2827  1  0.921200  0.806600  0.979300  1.0
  C  C2828  1  0.078800  0.193400  0.479300  1.0
  C  C2829  1  0.193400  0.078800  0.520700  1.0
  C  C2830  1  0.806600  0.921200  0.020700  1.0
  C  C2831  1  0.578800  0.306600  0.270700  1.0
  C  C2832  1  0.421200  0.693400  0.770700  1.0
  C  C2833  1  0.319400  0.576800  0.758000  1.0
  C  C2834  1  0.680600  0.423200  0.258000  1.0
  C  C2835  1  0.923200  0.819400  0.008000  1.0
  C  C2836  1  0.076800  0.180600  0.508000  1.0
  C  C2837  1  0.180600  0.076800  0.492000  1.0
  C  C2838  1  0.819400  0.923200  0.992000  1.0
  C  C2839  1  0.576800  0.319400  0.242000  1.0
  C  C2840  1  0.423200  0.680600  0.742000  1.0
  C  C2841  1  0.207900  0.686800  0.710800  1.0
  C  C2842  1  0.792100  0.313200  0.210800  1.0
  C  C2843  1  0.813200  0.707900  0.960800  1.0
  C  C2844  1  0.186800  0.292100  0.460800  1.0
  C  C2845  1  0.292100  0.186800  0.539200  1.0
  C  C2846  1  0.707900  0.813200  0.039200  1.0
  C  C2847  1  0.686800  0.207900  0.289200  1.0
  C  C2848  1  0.313200  0.792100  0.789200  1.0
  C  C2849  1  0.159100  0.687400  0.709300  1.0
  C  C2850  1  0.840900  0.312600  0.209300  1.0
  C  C2851  1  0.812600  0.659100  0.959300  1.0
  C  C2852  1  0.187400  0.340900  0.459300  1.0
  C  C2853  1  0.340900  0.187400  0.540700  1.0
  C  C2854  1  0.659100  0.812600  0.040700  1.0
  C  C2855  1  0.687400  0.159100  0.290700  1.0
  C  C2856  1  0.312600  0.840900  0.790700  1.0
  C  C2857  1  0.138600  0.695500  0.694700  1.0
  C  C2858  1  0.861400  0.304500  0.194700  1.0
  C  C2859  1  0.804500  0.638600  0.944700  1.0
  C  C2860  1  0.195500  0.361400  0.444700  1.0
  C  C2861  1  0.361400  0.195500  0.555300  1.0
  C  C2862  1  0.638600  0.804500  0.055300  1.0
  C  C2863  1  0.695500  0.138600  0.305300  1.0
  C  C2864  1  0.304500  0.861400  0.805300  1.0
  C  C2865  1  0.166800  0.702900  0.681500  1.0
  C  C2866  1  0.833200  0.297100  0.181500  1.0
  C  C2867  1  0.797100  0.666800  0.931500  1.0
  C  C2868  1  0.202900  0.333200  0.431500  1.0
  C  C2869  1  0.333200  0.202900  0.568500  1.0
  C  C2870  1  0.666800  0.797100  0.068500  1.0
  C  C2871  1  0.702900  0.166800  0.318500  1.0
  C  C2872  1  0.297100  0.833200  0.818500  1.0
  C  C2873  1  0.215600  0.702300  0.683000  1.0
  C  C2874  1  0.784400  0.297700  0.183000  1.0
  C  C2875  1  0.797700  0.715600  0.933000  1.0
  C  C2876  1  0.202300  0.284400  0.433000  1.0
  C  C2877  1  0.284400  0.202300  0.567000  1.0
  C  C2878  1  0.715600  0.797700  0.067000  1.0
  C  C2879  1  0.702300  0.215600  0.317000  1.0
  C  C2880  1  0.297700  0.784400  0.817000  1.0
  C  C2881  1  0.236100  0.694200  0.697600  1.0
  C  C2882  1  0.763900  0.305800  0.197600  1.0
  C  C2883  1  0.805800  0.736100  0.947600  1.0
  C  C2884  1  0.194200  0.263900  0.447600  1.0
  C  C2885  1  0.263900  0.194200  0.552400  1.0
  C  C2886  1  0.736100  0.805800  0.052400  1.0
  C  C2887  1  0.694200  0.236100  0.302400  1.0
  C  C2888  1  0.305800  0.763900  0.802400  1.0
  C  C2889  1  0.245600  0.716900  0.667900  1.0
  C  C2890  1  0.754400  0.283100  0.167900  1.0
  C  C2891  1  0.783100  0.745600  0.917900  1.0
  C  C2892  1  0.216900  0.254400  0.417900  1.0
  C  C2893  1  0.254400  0.216900  0.582100  1.0
  C  C2894  1  0.745600  0.783100  0.082100  1.0
  C  C2895  1  0.716900  0.245600  0.332100  1.0
  C  C2896  1  0.283100  0.754400  0.832100  1.0
  C  C2897  1  0.283100  0.698200  0.643200  1.0
  C  C2898  1  0.716900  0.301800  0.143200  1.0
  C  C2899  1  0.801800  0.783100  0.893200  1.0
  C  C2900  1  0.198200  0.216900  0.393200  1.0
  C  C2901  1  0.216900  0.198200  0.606800  1.0
  C  C2902  1  0.783100  0.801800  0.106800  1.0
  C  C2903  1  0.698200  0.283100  0.356800  1.0
  C  C2904  1  0.301800  0.716900  0.856800  1.0
  C  C2905  1  0.283000  0.746800  0.637200  1.0
  C  C2906  1  0.717000  0.253200  0.137200  1.0
  C  C2907  1  0.753200  0.783000  0.887200  1.0
  C  C2908  1  0.246800  0.217000  0.387200  1.0
  C  C2909  1  0.217000  0.246800  0.612800  1.0
  C  C2910  1  0.783000  0.753200  0.112800  1.0
  C  C2911  1  0.746800  0.283000  0.362800  1.0
  C  C2912  1  0.253200  0.717000  0.862800  1.0
  C  C2913  1  0.205200  0.673000  0.648800  1.0
  C  C2914  1  0.794800  0.327000  0.148800  1.0
  C  C2915  1  0.827000  0.705200  0.898800  1.0
  C  C2916  1  0.173000  0.294800  0.398800  1.0
  C  C2917  1  0.294800  0.173000  0.601200  1.0
  C  C2918  1  0.705200  0.827000  0.101200  1.0
  C  C2919  1  0.673000  0.205200  0.351200  1.0
  C  C2920  1  0.327000  0.794800  0.851200  1.0
  C  C2921  1  0.234000  0.635800  0.639900  1.0
  C  C2922  1  0.766000  0.364200  0.139900  1.0
  C  C2923  1  0.864200  0.734000  0.889900  1.0
  C  C2924  1  0.135800  0.266000  0.389900  1.0
  C  C2925  1  0.266000  0.135800  0.610100  1.0
  C  C2926  1  0.734000  0.864200  0.110100  1.0
  C  C2927  1  0.635800  0.234000  0.360100  1.0
  C  C2928  1  0.364200  0.766000  0.860100  1.0
  C  C2929  1  0.265000  0.667200  0.629600  1.0
  C  C2930  1  0.735000  0.332800  0.129600  1.0
  C  C2931  1  0.832800  0.765000  0.879600  1.0
  C  C2932  1  0.167200  0.235000  0.379600  1.0
  C  C2933  1  0.235000  0.167200  0.620400  1.0
  C  C2934  1  0.765000  0.832800  0.120400  1.0
  C  C2935  1  0.667200  0.265000  0.370400  1.0
  C  C2936  1  0.332800  0.735000  0.870400  1.0
  C  C2937  1  0.337200  0.811900  0.628100  1.0
  C  C2938  1  0.662800  0.188100  0.128100  1.0
  C  C2939  1  0.688100  0.837200  0.878100  1.0
  C  C2940  1  0.311900  0.162800  0.378100  1.0
  C  C2941  1  0.162800  0.311900  0.621900  1.0
  C  C2942  1  0.837200  0.688100  0.121900  1.0
  C  C2943  1  0.811900  0.337200  0.371900  1.0
  C  C2944  1  0.188100  0.662800  0.871900  1.0
  C  C2945  1  0.362000  0.809000  0.611500  1.0
  C  C2946  1  0.638000  0.191000  0.111500  1.0
  C  C2947  1  0.691000  0.862000  0.861500  1.0
  C  C2948  1  0.309000  0.138000  0.361500  1.0
  C  C2949  1  0.138000  0.309000  0.638500  1.0
  C  C2950  1  0.862000  0.691000  0.138500  1.0
  C  C2951  1  0.809000  0.362000  0.388500  1.0
  C  C2952  1  0.191000  0.638000  0.888500  1.0
  C  C2953  1  0.388000  0.828800  0.584500  1.0
  C  C2954  1  0.612000  0.171200  0.084500  1.0
  C  C2955  1  0.671200  0.888000  0.834500  1.0
  C  C2956  1  0.328800  0.112000  0.334500  1.0
  C  C2957  1  0.112000  0.328800  0.665500  1.0
  C  C2958  1  0.888000  0.671200  0.165500  1.0
  C  C2959  1  0.828800  0.388000  0.415500  1.0
  C  C2960  1  0.171200  0.612000  0.915500  1.0
  C  C2961  1  0.438000  0.821500  0.588700  1.0
  C  C2962  1  0.562000  0.178500  0.088700  1.0
  C  C2963  1  0.678500  0.938000  0.838700  1.0
  C  C2964  1  0.321500  0.062000  0.338700  1.0
  C  C2965  1  0.062000  0.321500  0.661300  1.0
  C  C2966  1  0.938000  0.678500  0.161300  1.0
  C  C2967  1  0.821500  0.438000  0.411300  1.0
  C  C2968  1  0.178500  0.562000  0.911300  1.0
  C  C2969  1  0.345000  0.891000  0.600100  1.0
  C  C2970  1  0.655000  0.109000  0.100100  1.0
  C  C2971  1  0.609000  0.845000  0.850100  1.0
  C  C2972  1  0.391000  0.155000  0.350100  1.0
  C  C2973  1  0.155000  0.391000  0.649900  1.0
  C  C2974  1  0.845000  0.609000  0.149900  1.0
  C  C2975  1  0.891000  0.345000  0.399900  1.0
  C  C2976  1  0.109000  0.655000  0.899900  1.0
  C  C2977  1  0.368000  0.906300  0.584700  1.0
  C  C2978  1  0.632000  0.093700  0.084700  1.0
  C  C2979  1  0.593700  0.868000  0.834700  1.0
  C  C2980  1  0.406300  0.132000  0.334700  1.0
  C  C2981  1  0.132000  0.406300  0.665300  1.0
  C  C2982  1  0.868000  0.593700  0.165300  1.0
  C  C2983  1  0.906300  0.368000  0.415300  1.0
  C  C2984  1  0.093700  0.632000  0.915300  1.0
  C  C2985  1  0.391000  0.871500  0.573500  1.0
  C  C2986  1  0.609000  0.128500  0.073500  1.0
  C  C2987  1  0.628500  0.891000  0.823500  1.0
  C  C2988  1  0.371500  0.109000  0.323500  1.0
  C  C2989  1  0.109000  0.371500  0.676500  1.0
  C  C2990  1  0.891000  0.628500  0.176500  1.0
  C  C2991  1  0.871500  0.391000  0.426500  1.0
  C  C2992  1  0.128500  0.609000  0.926500  1.0
  C  C2993  1  0.517400  0.726400  0.575300  1.0
  C  C2994  1  0.482600  0.273600  0.075300  1.0
  C  C2995  1  0.773600  0.017400  0.825300  1.0
  C  C2996  1  0.226400  0.982600  0.325300  1.0
  C  C2997  1  0.982600  0.226400  0.674700  1.0
  C  C2998  1  0.017400  0.773600  0.174700  1.0
  C  C2999  1  0.726400  0.517400  0.424700  1.0
  C  C3000  1  0.273600  0.482600  0.924700  1.0
  C  C3001  1  0.506300  0.773600  0.577600  1.0
  C  C3002  1  0.493700  0.226400  0.077600  1.0
  C  C3003  1  0.726400  0.006300  0.827600  1.0
  C  C3004  1  0.273600  0.993700  0.327600  1.0
  C  C3005  1  0.993700  0.273600  0.672400  1.0
  C  C3006  1  0.006300  0.726400  0.172400  1.0
  C  C3007  1  0.773600  0.506300  0.422400  1.0
  C  C3008  1  0.226400  0.493700  0.922400  1.0
  C  C3009  1  0.540600  0.804700  0.583000  1.0
  C  C3010  1  0.459400  0.195300  0.083000  1.0
  C  C3011  1  0.695300  0.040600  0.833000  1.0
  C  C3012  1  0.304700  0.959400  0.333000  1.0
  C  C3013  1  0.959400  0.304700  0.667000  1.0
  C  C3014  1  0.040600  0.695300  0.167000  1.0
  C  C3015  1  0.804700  0.540600  0.417000  1.0
  C  C3016  1  0.195300  0.459400  0.917000  1.0
  C  C3017  1  0.585900  0.788600  0.586100  1.0
  C  C3018  1  0.414100  0.211400  0.086100  1.0
  C  C3019  1  0.711400  0.085900  0.836100  1.0
  C  C3020  1  0.288600  0.914100  0.336100  1.0
  C  C3021  1  0.914100  0.288600  0.663900  1.0
  C  C3022  1  0.085900  0.711400  0.163900  1.0
  C  C3023  1  0.788600  0.585900  0.413900  1.0
  C  C3024  1  0.211400  0.414100  0.913900  1.0
  C  C3025  1  0.597000  0.741400  0.583700  1.0
  C  C3026  1  0.403000  0.258600  0.083700  1.0
  C  C3027  1  0.758600  0.097000  0.833700  1.0
  C  C3028  1  0.241400  0.903000  0.333700  1.0
  C  C3029  1  0.903000  0.241400  0.666300  1.0
  C  C3030  1  0.097000  0.758600  0.166300  1.0
  C  C3031  1  0.741400  0.597000  0.416300  1.0
  C  C3032  1  0.258600  0.403000  0.916300  1.0
  Br  Br3033  1  0.458000  0.857500  0.957960  1
  Br  Br3034  1  0.542000  0.142500  0.457960  1
  Br  Br3035  1  0.642500  0.958000  0.207960  1
  Br  Br3036  1  0.357500  0.042000  0.707960  1
  Br  Br3037  1  0.042000  0.357500  0.292040  1
  Br  Br3038  1  0.958000  0.642500  0.792040  1
  Br  Br3039  1  0.857500  0.458000  0.042040  1
  Br  Br3040  1  0.142500  0.542000  0.542040  1
  Br  Br3041  1  0.397700  0.864200  0.002190  1
  Br  Br3042  1  0.602300  0.135800  0.502190  1
  Br  Br3043  1  0.635800  0.897700  0.252190  1
  Br  Br3044  1  0.364200  0.102300  0.752190  1
  Br  Br3045  1  0.102300  0.364200  0.247810  1
  Br  Br3046  1  0.897700  0.635800  0.747810  1
  Br  Br3047  1  0.864200  0.397700  0.997810  1
  Br  Br3048  1  0.135800  0.602300  0.497810  1
  Br  Br3049  1  0.555700  0.031100  0.048460  1
  Br  Br3050  1  0.444300  0.968900  0.548460  1
  Br  Br3051  1  0.468900  0.055700  0.298460  1
  Br  Br3052  1  0.531100  0.944300  0.798460  1
  Br  Br3053  1  0.944300  0.531100  0.201540  1
  Br  Br3054  1  0.055700  0.468900  0.701540  1
  Br  Br3055  1  0.031100  0.555700  0.951540  1
  Br  Br3056  1  0.968900  0.444300  0.451540  1
  Br  Br3057  1  0.488000  0.158300  0.042940  1
  Br  Br3058  1  0.512000  0.841700  0.542940  1
  Br  Br3059  1  0.341700  0.988000  0.292940  1
  Br  Br3060  1  0.658300  0.012000  0.792940  1
  Br  Br3061  1  0.012000  0.658300  0.207060  1
  Br  Br3062  1  0.988000  0.341700  0.707060  1
  Br  Br3063  1  0.158300  0.488000  0.957060  1
  Br  Br3064  1  0.841700  0.512000  0.457060  1
  Br  Br3065  1  0.369500  0.332900  0.922500  1
  Br  Br3066  1  0.630500  0.667100  0.422500  1
  Br  Br3067  1  0.167100  0.869500  0.172500  1
  Br  Br3068  1  0.832900  0.130500  0.672500  1
  Br  Br3069  1  0.130500  0.832900  0.327500  1
  Br  Br3070  1  0.869500  0.167100  0.827500  1
  Br  Br3071  1  0.332900  0.369500  0.077500  1
  Br  Br3072  1  0.667100  0.630500  0.577500  1
  Br  Br3073  1  0.388900  0.447000  0.944400  1
  Br  Br3074  1  0.611100  0.553000  0.444400  1
  Br  Br3075  1  0.053000  0.888900  0.194400  1
  Br  Br3076  1  0.947000  0.111100  0.694400  1
  Br  Br3077  1  0.111100  0.947000  0.305600  1
  Br  Br3078  1  0.888900  0.053000  0.805600  1
  Br  Br3079  1  0.447000  0.388900  0.055600  1
  Br  Br3080  1  0.553000  0.611100  0.555600  1
  Br  Br3081  1  0.385300  0.378600  0.937200  1.0
  Br  Br3082  1  0.614700  0.621400  0.437200  1.0
  Br  Br3083  1  0.121400  0.885300  0.187200  1.0
  Br  Br3084  1  0.878600  0.114700  0.687200  1.0
  Br  Br3085  1  0.114700  0.878600  0.312800  1.0
  Br  Br3086  1  0.885300  0.121400  0.812800  1.0
  Br  Br3087  1  0.378600  0.385300  0.062800  1.0
  Br  Br3088  1  0.621400  0.614700  0.562800  1.0
  Br  Br3089  1  0.385500  0.514700  0.941800  1.0
  Br  Br3090  1  0.614500  0.485300  0.441800  1.0
  Br  Br3091  1  0.985300  0.885500  0.191800  1.0
  Br  Br3092  1  0.014700  0.114500  0.691800  1.0
  Br  Br3093  1  0.114500  0.014700  0.308200  1.0
  Br  Br3094  1  0.885500  0.985300  0.808200  1.0
  Br  Br3095  1  0.514700  0.385500  0.058200  1.0
  Br  Br3096  1  0.485300  0.614500  0.558200  1.0
  N  N3097  1  0.446000  0.051400  0.029700  1
  N  N3098  1  0.554000  0.948600  0.529700  1
  N  N3099  1  0.448600  0.946000  0.279700  1
  N  N3100  1  0.551400  0.054000  0.779700  1
  N  N3101  1  0.054000  0.551400  0.220300  1
  N  N3102  1  0.946000  0.448600  0.720300  1
  N  N3103  1  0.051400  0.446000  0.970300  1
  N  N3104  1  0.948600  0.554000  0.470300  1
  N  N3105  1  0.333500  0.122200  0.005900  1
  N  N3106  1  0.666500  0.877800  0.505900  1
  N  N3107  1  0.377800  0.833500  0.255900  1
  N  N3108  1  0.622200  0.166500  0.755900  1
  N  N3109  1  0.166500  0.622200  0.244100  1
  N  N3110  1  0.833500  0.377800  0.744100  1
  N  N3111  1  0.122200  0.333500  0.994100  1
  N  N3112  1  0.877800  0.666500  0.494100  1
  N  N3113  1  0.226600  0.140000  0.985200  1
  N  N3114  1  0.773400  0.860000  0.485200  1
  N  N3115  1  0.360000  0.726600  0.235200  1
  N  N3116  1  0.640000  0.273400  0.735200  1
  N  N3117  1  0.273400  0.640000  0.264800  1
  N  N3118  1  0.726600  0.360000  0.764800  1
  N  N3119  1  0.140000  0.226600  0.014800  1
  N  N3120  1  0.860000  0.773400  0.514800  1
  N  N3121  1  0.145500  0.181200  0.957200  1
  N  N3122  1  0.854500  0.818800  0.457200  1
  N  N3123  1  0.318800  0.645500  0.207200  1
  N  N3124  1  0.681200  0.354500  0.707200  1
  N  N3125  1  0.354500  0.681200  0.292800  1
  N  N3126  1  0.645500  0.318800  0.792800  1
  N  N3127  1  0.181200  0.145500  0.042800  1
  N  N3128  1  0.818800  0.854500  0.542800  1
  N  N3129  1  0.031600  0.210600  0.966200  1
  N  N3130  1  0.968400  0.789400  0.466200  1
  N  N3131  1  0.289400  0.531600  0.216200  1
  N  N3132  1  0.710600  0.468400  0.716200  1
  N  N3133  1  0.468400  0.710600  0.283800  1
  N  N3134  1  0.531600  0.289400  0.783800  1
  N  N3135  1  0.210600  0.031600  0.033800  1
  N  N3136  1  0.789400  0.968400  0.533800  1
  N  N3137  1  0.911400  0.221900  0.957800  1
  N  N3138  1  0.088600  0.778100  0.457800  1
  N  N3139  1  0.278100  0.411400  0.207800  1
  N  N3140  1  0.721900  0.588600  0.707800  1
  N  N3141  1  0.588600  0.721900  0.292200  1
  N  N3142  1  0.411400  0.278100  0.792200  1
  N  N3143  1  0.221900  0.911400  0.042200  1
  N  N3144  1  0.778100  0.088600  0.542200  1
  N  N3145  1  0.702200  0.237300  0.961900  1
  N  N3146  1  0.297800  0.762700  0.461900  1
  N  N3147  1  0.262700  0.202200  0.211900  1
  N  N3148  1  0.737300  0.797800  0.711900  1
  N  N3149  1  0.797800  0.737300  0.288100  1
  N  N3150  1  0.202200  0.262700  0.788100  1
  N  N3151  1  0.237300  0.702200  0.038100  1
  N  N3152  1  0.762700  0.297800  0.538100  1
  N  N3153  1  0.632400  0.154000  0.942500  1
  N  N3154  1  0.367600  0.846000  0.442500  1
  N  N3155  1  0.346000  0.132400  0.192500  1
  N  N3156  1  0.654000  0.867600  0.692500  1
  N  N3157  1  0.867600  0.654000  0.307500  1
  N  N3158  1  0.132400  0.346000  0.807500  1
  N  N3159  1  0.154000  0.632400  0.057500  1
  N  N3160  1  0.846000  0.367600  0.557500  1
  N  N3161  1  0.535000  0.097000  0.923900  1
  N  N3162  1  0.465000  0.903000  0.423900  1
  N  N3163  1  0.403000  0.035000  0.173900  1
  N  N3164  1  0.597000  0.965000  0.673900  1
  N  N3165  1  0.965000  0.597000  0.326100  1
  N  N3166  1  0.035000  0.403000  0.826100  1
  N  N3167  1  0.097000  0.535000  0.076100  1
  N  N3168  1  0.903000  0.465000  0.576100  1
  N  N3169  1  0.444200  0.060200  0.949300  1
  N  N3170  1  0.555800  0.939800  0.449300  1
  N  N3171  1  0.439800  0.944200  0.199300  1
  N  N3172  1  0.560200  0.055800  0.699300  1
  N  N3173  1  0.055800  0.560200  0.300700  1
  N  N3174  1  0.944200  0.439800  0.800700  1
  N  N3175  1  0.060200  0.444200  0.050700  1
  N  N3176  1  0.939800  0.555800  0.550700  1
  N  N3177  1  0.415600  0.962000  0.975600  1
  N  N3178  1  0.584400  0.038000  0.475600  1
  N  N3179  1  0.538000  0.915600  0.225600  1
  N  N3180  1  0.462000  0.084400  0.725600  1
  N  N3181  1  0.084400  0.462000  0.274400  1
  N  N3182  1  0.915600  0.538000  0.774400  1
  N  N3183  1  0.962000  0.415600  0.024400  1
  N  N3184  1  0.038000  0.584400  0.524400  1
  N  N3185  1  0.506600  0.912300  0.990900  1
  N  N3186  1  0.493400  0.087700  0.490900  1
  N  N3187  1  0.587700  0.006600  0.240900  1
  N  N3188  1  0.412300  0.993400  0.740900  1
  N  N3189  1  0.993400  0.412300  0.259100  1
  N  N3190  1  0.006600  0.587700  0.759100  1
  N  N3191  1  0.912300  0.506600  0.009100  1
  N  N3192  1  0.087700  0.493400  0.509100  1
  N  N3193  1  0.612800  0.970400  0.960800  1
  N  N3194  1  0.387200  0.029600  0.460800  1
  N  N3195  1  0.529600  0.112800  0.210800  1
  N  N3196  1  0.470400  0.887200  0.710800  1
  N  N3197  1  0.887200  0.470400  0.289200  1
  N  N3198  1  0.112800  0.529600  0.789200  1
  N  N3199  1  0.970400  0.612800  0.039200  1
  N  N3200  1  0.029600  0.387200  0.539200  1
  N  N3201  1  0.721700  0.027800  0.951700  1
  N  N3202  1  0.278300  0.972200  0.451700  1
  N  N3203  1  0.472200  0.221700  0.201700  1
  N  N3204  1  0.527800  0.778300  0.701700  1
  N  N3205  1  0.778300  0.527800  0.298300  1
  N  N3206  1  0.221700  0.472200  0.798300  1
  N  N3207  1  0.027800  0.721700  0.048300  1
  N  N3208  1  0.972200  0.278300  0.548300  1
  N  N3209  1  0.799700  0.110900  0.936000  1
  N  N3210  1  0.200300  0.889100  0.436000  1
  N  N3211  1  0.389100  0.299700  0.186000  1
  N  N3212  1  0.610900  0.700300  0.686000  1
  N  N3213  1  0.700300  0.610900  0.314000  1
  N  N3214  1  0.299700  0.389100  0.814000  1
  N  N3215  1  0.110900  0.799700  0.064000  1
  N  N3216  1  0.889100  0.200300  0.564000  1
  N  N3217  1  0.916300  0.081500  0.924800  1
  N  N3218  1  0.083700  0.918500  0.424800  1
  N  N3219  1  0.418500  0.416300  0.174800  1
  N  N3220  1  0.581500  0.583700  0.674800  1
  N  N3221  1  0.583700  0.581500  0.325200  1
  N  N3222  1  0.416300  0.418500  0.825200  1
  N  N3223  1  0.081500  0.916300  0.075200  1
  N  N3224  1  0.918500  0.083700  0.575200  1
  N  N3225  1  0.035400  0.111300  0.919900  1
  N  N3226  1  0.964600  0.888700  0.419900  1
  N  N3227  1  0.388700  0.535400  0.169900  1
  N  N3228  1  0.611300  0.464600  0.669900  1
  N  N3229  1  0.464600  0.611300  0.330100  1
  N  N3230  1  0.535400  0.388700  0.830100  1
  N  N3231  1  0.111300  0.035400  0.080100  1
  N  N3232  1  0.888700  0.964600  0.580100  1
  N  N3233  1  0.242700  0.094200  0.914600  1
  N  N3234  1  0.757300  0.905800  0.414600  1
  N  N3235  1  0.405800  0.742700  0.164600  1
  N  N3236  1  0.594200  0.257300  0.664600  1
  N  N3237  1  0.257300  0.594200  0.335400  1
  N  N3238  1  0.742700  0.405800  0.835400  1
  N  N3239  1  0.094200  0.242700  0.085400  1
  N  N3240  1  0.905800  0.757300  0.585400  1
  N  N3241  1  0.310300  0.159200  0.942800  1
  N  N3242  1  0.689700  0.840800  0.442800  1
  N  N3243  1  0.340800  0.810300  0.192800  1
  N  N3244  1  0.659200  0.189700  0.692800  1
  N  N3245  1  0.189700  0.659200  0.307200  1
  N  N3246  1  0.810300  0.340800  0.807200  1
  N  N3247  1  0.159200  0.310300  0.057200  1
  N  N3248  1  0.840800  0.689700  0.557200  1
  N  N3249  1  0.407200  0.219300  0.960100  1
  N  N3250  1  0.592800  0.780700  0.460100  1
  N  N3251  1  0.280700  0.907200  0.210100  1
  N  N3252  1  0.719300  0.092800  0.710100  1
  N  N3253  1  0.092800  0.719300  0.289900  1
  N  N3254  1  0.907200  0.280700  0.789900  1
  N  N3255  1  0.219300  0.407200  0.039900  1
  N  N3256  1  0.780700  0.592800  0.539900  1
  N  N3257  1  0.500700  0.149600  0.976000  1
  N  N3258  1  0.499300  0.850400  0.476000  1
  N  N3259  1  0.350400  0.000700  0.226000  1
  N  N3260  1  0.649600  0.999300  0.726000  1
  N  N3261  1  0.999300  0.649600  0.274000  1
  N  N3262  1  0.000700  0.350400  0.774000  1
  N  N3263  1  0.149600  0.500700  0.024000  1
  N  N3264  1  0.850400  0.499300  0.524000  1
  N  N3265  1  0.535500  0.087800  0.012590  1
  N  N3266  1  0.464500  0.912200  0.512590  1
  N  N3267  1  0.412200  0.035500  0.262590  1
  N  N3268  1  0.587800  0.964500  0.762590  1
  N  N3269  1  0.964500  0.587800  0.237410  1
  N  N3270  1  0.035500  0.412200  0.737410  1
  N  N3271  1  0.087800  0.535500  0.987410  1
  N  N3272  1  0.912200  0.464500  0.487410  1
  N  N3273  1  0.386500  0.447300  0.904200  1.0
  N  N3274  1  0.613500  0.552700  0.404200  1.0
  N  N3275  1  0.052700  0.886500  0.154200  1.0
  N  N3276  1  0.947300  0.113500  0.654200  1.0
  N  N3277  1  0.113500  0.947300  0.345800  1.0
  N  N3278  1  0.886500  0.052700  0.845800  1.0
  N  N3279  1  0.447300  0.386500  0.095800  1.0
  N  N3280  1  0.552700  0.613500  0.595800  1.0
  N  N3281  1  0.311300  0.503300  0.864000  1.0
  N  N3282  1  0.688700  0.496700  0.364000  1.0
  N  N3283  1  0.996700  0.811300  0.114000  1.0
  N  N3284  1  0.003300  0.188700  0.614000  1.0
  N  N3285  1  0.188700  0.003300  0.386000  1.0
  N  N3286  1  0.811300  0.996700  0.886000  1.0
  N  N3287  1  0.503300  0.311300  0.136000  1.0
  N  N3288  1  0.496700  0.688700  0.636000  1.0
  N  N3289  1  0.294300  0.560500  0.829400  1.0
  N  N3290  1  0.705700  0.439500  0.329400  1.0
  N  N3291  1  0.939500  0.794300  0.079400  1.0
  N  N3292  1  0.060500  0.205700  0.579400  1.0
  N  N3293  1  0.205700  0.060500  0.420600  1.0
  N  N3294  1  0.794300  0.939500  0.920600  1.0
  N  N3295  1  0.560500  0.294300  0.170600  1.0
  N  N3296  1  0.439500  0.705700  0.670600  1.0
  N  N3297  1  0.245900  0.647000  0.802800  1.0
  N  N3298  1  0.754100  0.353000  0.302800  1.0
  N  N3299  1  0.853000  0.745900  0.052800  1.0
  N  N3300  1  0.147000  0.254100  0.552800  1.0
  N  N3301  1  0.254100  0.147000  0.447200  1.0
  N  N3302  1  0.745900  0.853000  0.947200  1.0
  N  N3303  1  0.647000  0.245900  0.197200  1.0
  N  N3304  1  0.353000  0.754100  0.697200  1.0
  N  N3305  1  0.233000  0.629300  0.762700  1.0
  N  N3306  1  0.767000  0.370700  0.262700  1.0
  N  N3307  1  0.870700  0.733000  0.012700  1.0
  N  N3308  1  0.129300  0.267000  0.512700  1.0
  N  N3309  1  0.267000  0.129300  0.487300  1.0
  N  N3310  1  0.733000  0.870700  0.987300  1.0
  N  N3311  1  0.629300  0.233000  0.237300  1.0
  N  N3312  1  0.370700  0.767000  0.737300  1.0
  N  N3313  1  0.227300  0.674000  0.724500  1.0
  N  N3314  1  0.772700  0.326000  0.224500  1.0
  N  N3315  1  0.826000  0.727300  0.974500  1.0
  N  N3316  1  0.174000  0.272700  0.474500  1.0
  N  N3317  1  0.272700  0.174000  0.525500  1.0
  N  N3318  1  0.727300  0.826000  0.025500  1.0
  N  N3319  1  0.674000  0.227300  0.275500  1.0
  N  N3320  1  0.326000  0.772700  0.775500  1.0
  N  N3321  1  0.247300  0.696100  0.655600  1.0
  N  N3322  1  0.752700  0.303900  0.155600  1.0
  N  N3323  1  0.803900  0.747300  0.905600  1.0
  N  N3324  1  0.196100  0.252700  0.405600  1.0
  N  N3325  1  0.252700  0.196100  0.594400  1.0
  N  N3326  1  0.747300  0.803900  0.094400  1.0
  N  N3327  1  0.696100  0.247300  0.344400  1.0
  N  N3328  1  0.303900  0.752700  0.844400  1.0
  N  N3329  1  0.322800  0.768600  0.636400  1.0
  N  N3330  1  0.677200  0.231400  0.136400  1.0
  N  N3331  1  0.731400  0.822800  0.886400  1.0
  N  N3332  1  0.268600  0.177200  0.386400  1.0
  N  N3333  1  0.177200  0.268600  0.613600  1.0
  N  N3334  1  0.822800  0.731400  0.113600  1.0
  N  N3335  1  0.768600  0.322800  0.363600  1.0
  N  N3336  1  0.231400  0.677200  0.863600  1.0
  N  N3337  1  0.362700  0.842800  0.598800  1.0
  N  N3338  1  0.637300  0.157200  0.098800  1.0
  N  N3339  1  0.657200  0.862700  0.848800  1.0
  N  N3340  1  0.342800  0.137300  0.348800  1.0
  N  N3341  1  0.137300  0.342800  0.651200  1.0
  N  N3342  1  0.862700  0.657200  0.151200  1.0
  N  N3343  1  0.842800  0.362700  0.401200  1.0
  N  N3344  1  0.157200  0.637300  0.901200  1.0
  N  N3345  1  0.457400  0.786300  0.579400  1.0
  N  N3346  1  0.542600  0.213700  0.079400  1.0
  N  N3347  1  0.713700  0.957400  0.829400  1.0
  N  N3348  1  0.286300  0.042600  0.329400  1.0
  N  N3349  1  0.042600  0.286300  0.670600  1.0
  N  N3350  1  0.957400  0.713700  0.170600  1.0
  N  N3351  1  0.786300  0.457400  0.420600  1.0
  N  N3352  1  0.213700  0.542600  0.920600  1.0
  N  N3353  1  0.562800  0.710300  0.578300  1.0
  N  N3354  1  0.437200  0.289700  0.078300  1.0
  N  N3355  1  0.789700  0.062800  0.828300  1.0
  N  N3356  1  0.210300  0.937200  0.328300  1.0
  N  N3357  1  0.937200  0.210300  0.671700  1.0
  N  N3358  1  0.062800  0.789700  0.171700  1.0
  N  N3359  1  0.710300  0.562800  0.421700  1.0
  N  N3360  1  0.289700  0.437200  0.921700  1.0
  O  O3361  1  0.287900  0.068200  0.015100  1
  O  O3362  1  0.712100  0.931800  0.515100  1
  O  O3363  1  0.431800  0.787900  0.265100  1
  O  O3364  1  0.568200  0.212100  0.765100  1
  O  O3365  1  0.212100  0.568200  0.234900  1
  O  O3366  1  0.787900  0.431800  0.734900  1
  O  O3367  1  0.068200  0.287900  0.984900  1
  O  O3368  1  0.931800  0.712100  0.484900  1
  O  O3369  1  0.298600  0.129600  0.973500  1
  O  O3370  1  0.701400  0.870400  0.473500  1
  O  O3371  1  0.370400  0.798600  0.223500  1
  O  O3372  1  0.629600  0.201400  0.723500  1
  O  O3373  1  0.201400  0.629600  0.276500  1
  O  O3374  1  0.798600  0.370400  0.776500  1
  O  O3375  1  0.129600  0.298600  0.026500  1
  O  O3376  1  0.870400  0.701400  0.526500  1
  O  O3377  1  0.141400  0.182600  0.982700  1
  O  O3378  1  0.858600  0.817400  0.482700  1
  O  O3379  1  0.317400  0.641400  0.232700  1
  O  O3380  1  0.682600  0.358600  0.732700  1
  O  O3381  1  0.358600  0.682600  0.267300  1
  O  O3382  1  0.641400  0.317400  0.767300  1
  O  O3383  1  0.182600  0.141400  0.017300  1
  O  O3384  1  0.817400  0.858600  0.517300  1
  O  O3385  1  0.056000  0.154600  0.948600  1
  O  O3386  1  0.944000  0.845400  0.448600  1
  O  O3387  1  0.345400  0.556000  0.198600  1
  O  O3388  1  0.654600  0.444000  0.698600  1
  O  O3389  1  0.444000  0.654600  0.301400  1
  O  O3390  1  0.556000  0.345400  0.801400  1
  O  O3391  1  0.154600  0.056000  0.051400  1
  O  O3392  1  0.845400  0.944000  0.551400  1
  O  O3393  1  0.954700  0.265100  0.974500  1
  O  O3394  1  0.045300  0.734900  0.474500  1
  O  O3395  1  0.234900  0.454700  0.224500  1
  O  O3396  1  0.765100  0.545300  0.724500  1
  O  O3397  1  0.545300  0.765100  0.275500  1
  O  O3398  1  0.454700  0.234900  0.775500  1
  O  O3399  1  0.265100  0.954700  0.025500  1
  O  O3400  1  0.734900  0.045300  0.525500  1
  O  O3401  1  0.740500  0.183700  0.947400  1
  O  O3402  1  0.259500  0.816300  0.447400  1
  O  O3403  1  0.316300  0.240500  0.197400  1
  O  O3404  1  0.683700  0.759500  0.697400  1
  O  O3405  1  0.759500  0.683700  0.302600  1
  O  O3406  1  0.240500  0.316300  0.802600  1
  O  O3407  1  0.183700  0.740500  0.052600  1
  O  O3408  1  0.816300  0.259500  0.552600  1
  O  O3409  1  0.630600  0.225300  0.936600  1
  O  O3410  1  0.369400  0.774700  0.436600  1
  O  O3411  1  0.274700  0.130600  0.186600  1
  O  O3412  1  0.725300  0.869400  0.686600  1
  O  O3413  1  0.869400  0.725300  0.313400  1
  O  O3414  1  0.130600  0.274700  0.813400  1
  O  O3415  1  0.225300  0.630600  0.063400  1
  O  O3416  1  0.774700  0.369400  0.563400  1
  O  O3417  1  0.540300  0.136700  0.946000  1
  O  O3418  1  0.459700  0.863300  0.446000  1
  O  O3419  1  0.363300  0.040300  0.196000  1
  O  O3420  1  0.636700  0.959700  0.696000  1
  O  O3421  1  0.959700  0.636700  0.304000  1
  O  O3422  1  0.040300  0.363300  0.804000  1
  O  O3423  1  0.136700  0.540300  0.054000  1
  O  O3424  1  0.863300  0.459700  0.554000  1
  O  O3425  1  0.511200  0.020700  0.944300  1
  O  O3426  1  0.488800  0.979300  0.444300  1
  O  O3427  1  0.479300  0.011200  0.194300  1
  O  O3428  1  0.520700  0.988800  0.694300  1
  O  O3429  1  0.988800  0.520700  0.305700  1
  O  O3430  1  0.011200  0.479300  0.805700  1
  O  O3431  1  0.020700  0.511200  0.055700  1
  O  O3432  1  0.979300  0.488800  0.555700  1
  O  O3433  1  0.666800  0.942900  0.978500  1
  O  O3434  1  0.333200  0.057100  0.478500  1
  O  O3435  1  0.557100  0.166800  0.228500  1
  O  O3436  1  0.442900  0.833200  0.728500  1
  O  O3437  1  0.833200  0.442900  0.271500  1
  O  O3438  1  0.166800  0.557100  0.771500  1
  O  O3439  1  0.942900  0.666800  0.021500  1
  O  O3440  1  0.057100  0.333200  0.521500  1
  O  O3441  1  0.649900  0.063300  0.955900  1
  O  O3442  1  0.350100  0.936700  0.455900  1
  O  O3443  1  0.436700  0.149900  0.205900  1
  O  O3444  1  0.563300  0.850100  0.705900  1
  O  O3445  1  0.850100  0.563300  0.294100  1
  O  O3446  1  0.149900  0.436700  0.794100  1
  O  O3447  1  0.063300  0.649900  0.044100  1
  O  O3448  1  0.936700  0.350100  0.544100  1
  O  O3449  1  0.805200  0.032700  0.936200  1
  O  O3450  1  0.194800  0.967300  0.436200  1
  O  O3451  1  0.467300  0.305200  0.186200  1
  O  O3452  1  0.532700  0.694800  0.686200  1
  O  O3453  1  0.694800  0.532700  0.313800  1
  O  O3454  1  0.305200  0.467300  0.813800  1
  O  O3455  1  0.032700  0.805200  0.063800  1
  O  O3456  1  0.967300  0.194800  0.563800  1
  O  O3457  1  0.893300  0.133100  0.945000  1
  O  O3458  1  0.106700  0.866900  0.445000  1
  O  O3459  1  0.366900  0.393300  0.195000  1
  O  O3460  1  0.633100  0.606700  0.695000  1
  O  O3461  1  0.606700  0.633100  0.305000  1
  O  O3462  1  0.393300  0.366900  0.805000  1
  O  O3463  1  0.133100  0.893300  0.055000  1
  O  O3464  1  0.866900  0.106700  0.555000  1
  O  O3465  1  0.990100  0.062600  0.903500  1
  O  O3466  1  0.009900  0.937400  0.403500  1
  O  O3467  1  0.437400  0.490100  0.153500  1
  O  O3468  1  0.562600  0.509900  0.653500  1
  O  O3469  1  0.509900  0.562600  0.346500  1
  O  O3470  1  0.490100  0.437400  0.846500  1
  O  O3471  1  0.062600  0.990100  0.096500  1
  O  O3472  1  0.937400  0.009900  0.596500  1
  O  O3473  1  0.202900  0.142600  0.932900  1
  O  O3474  1  0.797100  0.857400  0.432900  1
  O  O3475  1  0.357400  0.702900  0.182900  1
  O  O3476  1  0.642600  0.297100  0.682900  1
  O  O3477  1  0.297100  0.642600  0.317100  1
  O  O3478  1  0.702900  0.357400  0.817100  1
  O  O3479  1  0.142600  0.202900  0.067100  1
  O  O3480  1  0.857400  0.797100  0.567100  1
  O  O3481  1  0.316800  0.168700  0.917600  1
  O  O3482  1  0.683200  0.831300  0.417600  1
  O  O3483  1  0.331300  0.816800  0.167600  1
  O  O3484  1  0.668700  0.183200  0.667600  1
  O  O3485  1  0.183200  0.668700  0.332400  1
  O  O3486  1  0.816800  0.331300  0.832400  1
  O  O3487  1  0.168700  0.316800  0.082400  1
  O  O3488  1  0.831300  0.683200  0.582400  1
  O  O3489  1  0.400300  0.150300  0.949300  1
  O  O3490  1  0.599700  0.849700  0.449300  1
  O  O3491  1  0.349700  0.900300  0.199300  1
  O  O3492  1  0.650300  0.099700  0.699300  1
  O  O3493  1  0.099700  0.650300  0.300700  1
  O  O3494  1  0.900300  0.349700  0.800700  1
  O  O3495  1  0.150300  0.400300  0.050700  1
  O  O3496  1  0.849700  0.599700  0.550700  1
  O  O3497  1  0.436200  0.168900  0.988300  1
  O  O3498  1  0.563800  0.831100  0.488300  1
  O  O3499  1  0.331100  0.936200  0.238300  1
  O  O3500  1  0.668900  0.063800  0.738300  1
  O  O3501  1  0.063800  0.668900  0.261700  1
  O  O3502  1  0.936200  0.331100  0.761700  1
  O  O3503  1  0.168900  0.436200  0.011700  1
  O  O3504  1  0.831100  0.563800  0.511700  1
  O  O3505  1  0.360000  0.180000  0.879900  1
  O  O3506  1  0.640000  0.820000  0.379900  1
  O  O3507  1  0.320000  0.860000  0.129900  1
  O  O3508  1  0.680000  0.140000  0.629900  1
  O  O3509  1  0.140000  0.680000  0.370100  1
  O  O3510  1  0.860000  0.320000  0.870100  1
  O  O3511  1  0.180000  0.360000  0.120100  1
  O  O3512  1  0.820000  0.640000  0.620100  1
  O  O3513  1  0.443100  0.697800  0.606600  1
  O  O3514  1  0.556900  0.302200  0.106600  1
  O  O3515  1  0.802200  0.943100  0.856600  1
  O  O3516  1  0.197800  0.056900  0.356600  1
  O  O3517  1  0.056900  0.197800  0.643400  1
  O  O3518  1  0.943100  0.802200  0.143400  1
  O  O3519  1  0.697800  0.443100  0.393400  1
  O  O3520  1  0.302200  0.556900  0.893400  1
  O  O3521  1  0.463000  0.899900  0.637100  1
  O  O3522  1  0.537000  0.100100  0.137100  1
  O  O3523  1  0.600100  0.963000  0.887100  1
  O  O3524  1  0.399900  0.037000  0.387100  1
  O  O3525  1  0.037000  0.399900  0.612900  1
  O  O3526  1  0.963000  0.600100  0.112900  1
  O  O3527  1  0.899900  0.463000  0.362900  1
  O  O3528  1  0.100100  0.537000  0.862900  1
  O  O3529  1  0.453000  0.881000  0.054100  1
  O  O3530  1  0.547000  0.119000  0.554100  1
  O  O3531  1  0.619000  0.953000  0.304100  1
  O  O3532  1  0.381000  0.047000  0.804100  1
  O  O3533  1  0.047000  0.381000  0.195900  1
  O  O3534  1  0.953000  0.619000  0.695900  1
  O  O3535  1  0.881000  0.453000  0.945900  1
  O  O3536  1  0.119000  0.547000  0.445900  1
  O  O3537  1  0.215000  0.471000  0.698800  1
  O  O3538  1  0.785000  0.529000  0.198800  1
  O  O3539  1  0.029000  0.715000  0.948800  1
  O  O3540  1  0.971000  0.285000  0.448800  1
  O  O3541  1  0.285000  0.971000  0.551200  1
  O  O3542  1  0.715000  0.029000  0.051200  1
  O  O3543  1  0.471000  0.215000  0.301200  1
  O  O3544  1  0.529000  0.785000  0.801200  1
  O  O3545  1  0.335000  0.360000  0.988000  1
  O  O3546  1  0.665000  0.640000  0.488000  1
  O  O3547  1  0.140000  0.835000  0.238000  1
  O  O3548  1  0.860000  0.165000  0.738000  1
  O  O3549  1  0.165000  0.860000  0.262000  1
  O  O3550  1  0.835000  0.140000  0.762000  1
  O  O3551  1  0.360000  0.335000  0.012000  1
  O  O3552  1  0.640000  0.665000  0.512000  1
  O  O3553  1  0.164000  0.830000  0.714000  1
  O  O3554  1  0.836000  0.170000  0.214000  1
  O  O3555  1  0.670000  0.664000  0.964000  1
  O  O3556  1  0.330000  0.336000  0.464000  1
  O  O3557  1  0.336000  0.330000  0.536000  1
  O  O3558  1  0.664000  0.670000  0.036000  1
  O  O3559  1  0.830000  0.164000  0.286000  1
  O  O3560  1  0.170000  0.836000  0.786000  1
  O  O3561  1  0.659000  0.293000  0.898600  1
  O  O3562  1  0.341000  0.707000  0.398600  1
  O  O3563  1  0.207000  0.159000  0.148600  1
  O  O3564  1  0.793000  0.841000  0.648600  1
  O  O3565  1  0.841000  0.793000  0.351400  1
  O  O3566  1  0.159000  0.207000  0.851400  1
  O  O3567  1  0.293000  0.659000  0.101400  1
  O  O3568  1  0.707000  0.341000  0.601400  1
  O  O3569  1  0.083100  0.244900  0.892500  1
  O  O3570  1  0.916900  0.755100  0.392500  1
  O  O3571  1  0.255100  0.583100  0.142500  1
  O  O3572  1  0.744900  0.416900  0.642500  1
  O  O3573  1  0.416900  0.744900  0.357500  1
  O  O3574  1  0.583100  0.255100  0.857500  1
  O  O3575  1  0.244900  0.083100  0.107500  1
  O  O3576  1  0.755100  0.916900  0.607500  1
  O  O3577  1  0.449000  0.844000  0.042600  1
  O  O3578  1  0.551000  0.156000  0.542600  1
  O  O3579  1  0.656000  0.949000  0.292600  1
  O  O3580  1  0.344000  0.051000  0.792600  1
  O  O3581  1  0.051000  0.344000  0.207400  1
  O  O3582  1  0.949000  0.656000  0.707400  1
  O  O3583  1  0.844000  0.449000  0.957400  1
  O  O3584  1  0.156000  0.551000  0.457400  1
  O  O3585  1  0.370000  0.472000  0.850100  1.0
  O  O3586  1  0.630000  0.528000  0.350100  1.0
  O  O3587  1  0.028000  0.870000  0.100100  1.0
  O  O3588  1  0.972000  0.130000  0.600100  1.0
  O  O3589  1  0.130000  0.972000  0.399900  1.0
  O  O3590  1  0.870000  0.028000  0.899900  1.0
  O  O3591  1  0.472000  0.370000  0.149900  1.0
  O  O3592  1  0.528000  0.630000  0.649900  1.0
  O  O3593  1  0.287700  0.590700  0.852900  1.0
  O  O3594  1  0.712300  0.409300  0.352900  1.0
  O  O3595  1  0.909300  0.787700  0.102900  1.0
  O  O3596  1  0.090700  0.212300  0.602900  1.0
  O  O3597  1  0.212300  0.090700  0.397100  1.0
  O  O3598  1  0.787700  0.909300  0.897100  1.0
  O  O3599  1  0.590700  0.287700  0.147100  1.0
  O  O3600  1  0.409300  0.712300  0.647100  1.0
  O  O3601  1  0.257900  0.570000  0.798500  1.0
  O  O3602  1  0.742100  0.430000  0.298500  1.0
  O  O3603  1  0.930000  0.757900  0.048500  1.0
  O  O3604  1  0.070000  0.242100  0.548500  1.0
  O  O3605  1  0.242100  0.070000  0.451500  1.0
  O  O3606  1  0.757900  0.930000  0.951500  1.0
  O  O3607  1  0.570000  0.257900  0.201500  1.0
  O  O3608  1  0.430000  0.742100  0.701500  1.0
  O  O3609  1  0.282000  0.680200  0.774200  1.0
  O  O3610  1  0.718000  0.319800  0.274200  1.0
  O  O3611  1  0.819800  0.782000  0.024200  1.0
  O  O3612  1  0.180200  0.218000  0.524200  1.0
  O  O3613  1  0.218000  0.180200  0.475800  1.0
  O  O3614  1  0.782000  0.819800  0.975800  1.0
  O  O3615  1  0.680200  0.282000  0.225800  1.0
  O  O3616  1  0.319800  0.718000  0.725800  1.0
  O  O3617  1  0.181900  0.620900  0.735300  1.0
  O  O3618  1  0.818100  0.379100  0.235300  1.0
  O  O3619  1  0.879100  0.681900  0.985300  1.0
  O  O3620  1  0.120900  0.318100  0.485300  1.0
  O  O3621  1  0.318100  0.120900  0.514700  1.0
  O  O3622  1  0.681900  0.879100  0.014700  1.0
  O  O3623  1  0.620900  0.181900  0.264700  1.0
  O  O3624  1  0.379100  0.818100  0.764700  1.0
  O  O3625  1  0.284000  0.739700  0.673000  1.0
  O  O3626  1  0.716000  0.260300  0.173000  1.0
  O  O3627  1  0.760300  0.784000  0.923000  1.0
  O  O3628  1  0.239700  0.216000  0.423000  1.0
  O  O3629  1  0.216000  0.239700  0.577000  1.0
  O  O3630  1  0.784000  0.760300  0.077000  1.0
  O  O3631  1  0.739700  0.284000  0.327000  1.0
  O  O3632  1  0.260300  0.716000  0.827000  1.0
  O  O3633  1  0.249700  0.776400  0.636400  1.0
  O  O3634  1  0.750300  0.223600  0.136400  1.0
  O  O3635  1  0.723600  0.749700  0.886400  1.0
  O  O3636  1  0.276400  0.250300  0.386400  1.0
  O  O3637  1  0.250300  0.276400  0.613600  1.0
  O  O3638  1  0.749700  0.723600  0.113600  1.0
  O  O3639  1  0.776400  0.249700  0.363600  1.0
  O  O3640  1  0.223600  0.750300  0.863600  1.0
  O  O3641  1  0.369500  0.766100  0.606800  1.0
  O  O3642  1  0.630500  0.233900  0.106800  1.0
  O  O3643  1  0.733900  0.869500  0.856800  1.0
  O  O3644  1  0.266100  0.130500  0.356800  1.0
  O  O3645  1  0.130500  0.266100  0.643200  1.0
  O  O3646  1  0.869500  0.733900  0.143200  1.0
  O  O3647  1  0.766100  0.369500  0.393200  1.0
  O  O3648  1  0.233900  0.630500  0.893200  1.0
  O  O3649  1  0.456200  0.846000  0.598900  1.0
  O  O3650  1  0.543800  0.154000  0.098900  1.0
  O  O3651  1  0.654000  0.956200  0.848900  1.0
  O  O3652  1  0.346000  0.043800  0.348900  1.0
  O  O3653  1  0.043800  0.346000  0.651100  1.0
  O  O3654  1  0.956200  0.654000  0.151100  1.0
  O  O3655  1  0.846000  0.456200  0.401100  1.0
  O  O3656  1  0.154000  0.543800  0.901100  1.0
