
#######################################################################
#
#                 Cambridge Crystallographic Data Centre
#                                CCDC 
#
#######################################################################
#
# If this CIF has been generated from an entry in the Cambridge 
# Structural Database, then it will include bibliographic, chemical, 
# crystal, experimental, refinement or atomic coordinate data resulting 
# from the CCDC's data processing and validation procedures.
#
#######################################################################

data_BICBAT
_chemical_formula_moiety         'C116 H134 Br4 N22 O18 Zn2,3.33(H2 O1)'
_chemical_name_systematic        
'bis(\m-N-(pyridine-3-carbonyl)-phenylalanyl-valyl-phenylalanyl-N-(3-{2-[(2-oxo-2-{2-[(pyridin-3-yl)carbamoyl]pyrrolidin-1-yl}ethyl)carbamoyl]pyrrolidine-1-carbonyl}phenyl)valinamide)-tetrabromo-di-zinc hydrate'
_symmetry_cell_setting           tetragonal
_symmetry_space_group_name_H-M   'P 41 21 2'
_symmetry_Int_Tables_number      92
_space_group_name_Hall           'P 4abw 2nw'
loop_
_symmetry_equiv_pos_site_id
_symmetry_equiv_pos_as_xyz
1 x,y,z
2 -x,-y,1/2+z
3 1/2-y,1/2+x,1/4+z
4 1/2+y,1/2-x,3/4+z
5 1/2-x,1/2+y,1/4-z
6 1/2+x,1/2-y,3/4-z
7 y,x,-z
8 -y,-x,1/2-z
_cell_length_a                   28.3931(3)
_cell_length_b                   28.3931(3)
_cell_length_c                   84.817(3)
_cell_angle_alpha                90
_cell_angle_beta                 90
_cell_angle_gamma                90
_cell_volume                     68376.8
_exptl_crystal_colour            colorless
_exptl_crystal_description       plate
_cell_formula_units_Z            12
_chemical_properties_physical    Air-sensitive
_exptl_crystal_recrystallization_method 
'Re-crystallisation from solvent: chloroform, ethanol'
loop_
_atom_site_label
_atom_site_type_symbol
_atom_site_fract_x
_atom_site_fract_y
_atom_site_fract_z
Zn1 Zn 0.44154(15) -0.10390(17) 0.98153(9)
Br1 Br 0.4580(2) -0.1425(2) 0.95796(11)
Br2 Br 0.3977(2) -0.1358(2) 1.00219(12)
Zn2 Zn 1.50855(15) 0.0852(2) 1.03460(6)
Br3 Br 1.5557(2) 0.0311(3) 1.04846(9)
Br4 Br 1.4880(2) 0.1583(3) 1.04294(8)
N1 N 1.4460(5) 0.0514(7) 1.0297(2)
C1 C 1.4090(7) 0.0777(5) 1.0235(2)
H1 H 1.4117 0.1102 1.0226
C2 C 1.3678(6) 0.0554(7) 1.0188(2)
C3 C 1.3636(6) 0.0068(7) 1.0201(3)
H2 H 1.3361 -0.0082 1.0169
C4 C 1.4006(8) -0.0195(5) 1.0263(3)
H3 H 1.3978 -0.0521 1.0272
C5 C 1.4418(7) 0.0028(7) 1.0310(2)
H4 H 1.4666 -0.0148 1.0351
C6 C 1.3298(9) 0.0854(9) 1.0138(3)
O1 O 1.2879(7) 0.0682(7) 1.0151(2)
N2 N 1.3335(8) 0.1222(8) 1.0059(3)
H5 H 1.3616 0.1299 1.0032
C7 C 1.2951(8) 0.1548(8) 1.0008(3)
H6 H 1.2697 0.1539 1.0086
C8 C 1.2762(9) 0.1368(8) 0.9851(3)
O2 O 1.2986(6) 0.1296(6) 0.9735(2)
C9 C 1.3107(9) 0.2016(9) 0.9992(3)
H7 H 1.2878 0.2202 0.9934
H8 H 1.3405 0.2027 0.9936
C10 C 1.3172(14) 0.2230(10) 1.0185(3)
C11 C 1.2777(9) 0.2248(9) 1.0282(4)
H9 H 1.2482 0.2172 1.0241
C12 C 1.2822(11) 0.2379(10) 1.0439(4)
H10 H 1.2557 0.2391 1.0503
C13 C 1.3262(15) 0.2491(12) 1.0500(3)
H11 H 1.3293 0.2579 1.0605
C14 C 1.3658(10) 0.2473(14) 1.0403(6)
H12 H 1.3952 0.2549 1.0444
C15 C 1.3613(10) 0.2342(13) 1.0246(5)
H13 H 1.3877 0.2330 1.0181
N3 N 1.2266(6) 0.1400(6) 0.9852(2)
H14 H 1.2130 0.1494 0.9937
C16 C 1.1966(9) 0.1280(8) 0.9714(3)
H15 H 1.2153 0.1281 0.9617
C17 C 1.1572(8) 0.1670(8) 0.9707(4)
O3 O 1.1414(6) 0.1826(6) 0.9827(2)
C18 C 1.1738(11) 0.0795(10) 0.9740(5)
H16 H 1.1589 0.0791 0.9844
C19 C 1.2167(13) 0.0455(14) 0.9742(6)
H17 H 1.2391 0.0561 0.9819
H18 H 1.2063 0.0143 0.9769
H19 H 1.2313 0.0450 0.9640
C20 C 1.1375(16) 0.0633(18) 0.9618(5)
H20 H 1.1258 0.0327 0.9646
H21 H 1.1118 0.0853 0.9615
H22 H 1.1520 0.0617 0.9516
N4 N 1.1455(7) 0.1812(7) 0.9572(3)
H23 H 1.1600 0.1704 0.9491
C21 C 1.1078(9) 0.2156(10) 0.9551(4)
H24 H 1.1104 0.2412 0.9628
C22 C 1.0596(8) 0.1903(9) 0.9566(3)
O4 O 1.0560(6) 0.1546(7) 0.9486(2)
C23 C 1.1139(11) 0.2351(11) 0.9375(4)
H25 H 1.1464 0.2440 0.9355
H26 H 1.1045 0.2116 0.9298
C24 C 1.0797(11) 0.2805(10) 0.9367(3)
C25 C 1.0977(9) 0.3242(13) 0.9410(4)
H27 H 1.1284 0.3266 0.9448
C26 C 1.0697(14) 0.3642(9) 0.9398(4)
H28 H 1.0817 0.3934 0.9427
C27 C 1.0238(13) 0.3605(11) 0.9343(4)
H29 H 1.0051 0.3873 0.9335
C28 C 1.0058(9) 0.3168(14) 0.9299(4)
H30 H 0.9751 0.3144 0.9262
C29 C 1.0338(12) 0.2768(10) 0.9312(4)
H31 H 1.0218 0.2476 0.9283
N5 N 1.0316(7) 0.2106(6) 0.9662(2)
H32 H 1.0415 0.2343 0.9716
C30 C 0.9815(11) 0.1940(11) 0.9684(4)
H33 H 0.9761 0.1719 0.9597
C31 C 0.9501(16) 0.2357(17) 0.9648(6)
O5 O 0.9547(10) 0.2651(11) 0.9745(4)
C32 C 0.9782(12) 0.1639(13) 0.9833(4)
H34 H 0.9842 0.1856 0.9921
C33 C 1.0127(14) 0.1243(13) 0.9856(5)
H35 H 1.0063 0.1086 0.9954
H36 H 1.0096 0.1022 0.9771
H37 H 1.0441 0.1367 0.9857
C34 C 0.9333(12) 0.1356(13) 0.9883(5)
H38 H 0.9062 0.1557 0.9876
H39 H 0.9294 0.1092 0.9813
H40 H 0.9368 0.1246 0.9989
N6 N 0.9114(9) 0.2219(9) 0.9578(3)
H41 H 0.9113 0.1955 0.9528
C35 C 0.8680(7) 0.2502(10) 0.9582(3)
C36 C 0.8682(9) 0.2991(10) 0.9585(3)
H42 H 0.8965 0.3154 0.9594
C37 C 0.8261(11) 0.3238(6) 0.9573(4)
H43 H 0.8262 0.3566 0.9575
C38 C 0.7838(9) 0.2996(9) 0.9559(3)
H44 H 0.7556 0.3161 0.9551
C39 C 0.7836(7) 0.2507(9) 0.9556(3)
C40 C 0.8257(9) 0.2259(6) 0.9568(3)
H45 H 0.8255 0.1932 0.9566
C41 C 0.7423(15) 0.2214(16) 0.9548(5)
O6 O 0.7405(7) 0.1837(8) 0.9474(3)
N7 N 0.7022(11) 0.2373(11) 0.9619(4)
C42 C 0.6618(13) 0.2051(13) 0.9631(5)
H46 H 0.6698 0.1757 0.9685
C43 C 0.6446(13) 0.1971(15) 0.9470(5)
O7 O 0.6306(12) 0.2253(12) 0.9366(4)
C44 C 0.6917(18) 0.2835(14) 0.9691(6)
H47 H 0.6747 0.3045 0.9621
H48 H 0.7194 0.2990 0.9733
C45 C 0.6605(18) 0.261(2) 0.9818(6)
H49 H 0.6785 0.2404 0.9885
H50 H 0.6454 0.2851 0.9882
C46 C 0.6242(15) 0.2337(16) 0.9720(5)
H51 H 0.6056 0.2537 0.9651
H52 H 0.6037 0.2141 0.9784
N8 N 0.6324(8) 0.1540(9) 0.9425(3)
H53 H 0.6390 0.1321 0.9492
C47 C 0.6092(10) 0.1377(11) 0.9278(4)
H54 H 0.6251 0.1103 0.9235
H55 H 0.6087 0.1624 0.9200
C48 C 0.5553(9) 0.1243(9) 0.9337(4)
O8 O 0.5403(7) 0.1367(7) 0.9460(3)
N9 N 0.5350(8) 0.0970(8) 0.9239(3)
C49 C 0.4864(10) 0.0848(12) 0.9279(4)
H56 H 0.4688 0.1132 0.9308
C50 C 0.4822(13) 0.0499(13) 0.9400(5)
O9 O 0.5112(8) 0.0207(8) 0.9443(3)
C51 C 0.5529(12) 0.0854(13) 0.9082(4)
H57 H 0.5804 0.0651 0.9085
H58 H 0.5592 0.1130 0.9018
C52 C 0.5084(14) 0.0595(19) 0.9032(6)
H59 H 0.5166 0.0266 0.9020
H60 H 0.4997 0.0712 0.8929
C53 C 0.4644(14) 0.0616(17) 0.9136(5)
H61 H 0.4398 0.0808 0.9089
H62 H 0.4521 0.0305 0.9160
N10 N 0.4442(9) 0.0602(9) 0.9493(3)
H63 H 0.4323 0.0875 0.9474
C54 C 0.4381(6) -0.0093(8) 0.9646(3)
H64 H 0.4652 -0.0199 0.9596
C55 C 0.4203(8) 0.0352(7) 0.9613(2)
C56 C 0.3799(8) 0.0510(6) 0.9689(3)
H65 H 0.3680 0.0808 0.9667
C57 C 0.3573(7) 0.0223(8) 0.9798(3)
H66 H 0.3303 0.0329 0.9849
C58 C 0.3752(8) -0.0222(8) 0.9832(2)
H67 H 0.3601 -0.0413 0.9905
N11 N 0.4156(8) -0.0380(6) 0.9756(3)
N12 N 0.5066(6) -0.0877(6) 0.9909(3)
C59 C 0.5144(7) -0.0873(7) 1.0071(3)
H68 H 0.4903 -0.0958 1.0139
C60 C 0.5582(9) -0.0743(8) 1.0130(2)
H69 H 0.5633 -0.0740 1.0238
C61 C 0.5942(6) -0.0616(8) 1.0027(3)
H70 H 0.6234 -0.0529 1.0067
C62 C 0.5864(7) -0.0620(7) 0.9865(3)
C63 C 0.5427(8) -0.0751(7) 0.9806(2)
H71 H 0.5375 -0.0753 0.9698
C64 C 0.6241(11) -0.0469(10) 0.9751(4)
O10 O 0.6668(8) -0.0571(7) 0.9785(3)
N13 N 0.6128(7) -0.0296(7) 0.9608(3)
H72 H 0.5838 -0.0242 0.9586
C65 C 0.6467(9) -0.0205(9) 0.9497(3)
H73 H 0.6706 -0.0454 0.9501
C66 C 0.6718(11) 0.0298(11) 0.9533(4)
O11 O 0.6499(6) 0.0633(7) 0.9559(2)
C67 C 0.6288(9) -0.0179(9) 0.9341(3)
H74 H 0.6526 -0.0049 0.9272
H75 H 0.6016 0.0027 0.9339
C68 C 0.6143(10) -0.0681(7) 0.9282(3)
C69 C 0.5687(8) -0.0857(10) 0.9294(3)
H76 H 0.5443 -0.0661 0.9327
C70 C 0.5596(8) -0.1325(11) 0.9257(3)
H77 H 0.5291 -0.1442 0.9265
C71 C 0.5961(11) -0.1617(7) 0.9208(3)
H78 H 0.5900 -0.1930 0.9183
C72 C 0.6416(9) -0.1441(9) 0.9196(3)
H79 H 0.6660 -0.1637 0.9163
C73 C 0.6507(7) -0.0973(9) 0.9233(3)
H80 H 0.6812 -0.0856 0.9225
N14 N 0.7217(8) 0.0278(7) 0.9517(3)
H81 H 0.7348 0.0017 0.9491
C74 C 0.7502(10) 0.0683(11) 0.9544(4)
H82 H 0.7317 0.0975 0.9542
C75 C 0.7873(9) 0.0673(10) 0.9414(3)
O12 O 0.8052(7) 0.0327(7) 0.9362(2)
C76 C 0.7738(15) 0.0602(15) 0.9702(4)
H83 H 0.7898 0.0297 0.9708
C77 C 0.7332(18) 0.065(2) 0.9822(7)
H84 H 0.7104 0.0409 0.9805
H85 H 0.7456 0.0630 0.9927
H86 H 0.7184 0.0955 0.9809
C78 C 0.8047(15) 0.1008(15) 0.9747(6)
H87 H 0.8190 0.0945 0.9847
H88 H 0.8287 0.1049 0.9669
H89 H 0.7860 0.1289 0.9754
N15 N 0.7997(7) 0.1109(7) 0.9360(3)
H90 H 0.7853 0.1352 0.9397
C79 C 0.8360(8) 0.1177(8) 0.9244(3)
H91 H 0.8331 0.0952 0.9157
C80 C 0.8862(9) 0.1129(9) 0.9333(4)
O13 O 0.8933(6) 0.1331(6) 0.9450(2)
C81 C 0.8313(12) 0.1673(12) 0.9188(4)
H92 H 0.8389 0.1891 0.9272
H93 H 0.7994 0.1734 0.9153
C82 C 0.8668(8) 0.1734(8) 0.9047(3)
C83 C 0.8607(8) 0.1583(8) 0.8893(4)
H94 H 0.8321 0.1453 0.8861
C84 C 0.8974(12) 0.1625(10) 0.8785(3)
H95 H 0.8934 0.1524 0.8682
C85 C 0.9401(10) 0.1819(11) 0.8832(4)
H96 H 0.9647 0.1847 0.8760
C86 C 0.9462(8) 0.1970(9) 0.8986(4)
H97 H 0.9747 0.2100 0.9018
C87 C 0.9095(11) 0.1928(9) 0.9094(3)
H98 H 0.9135 0.2030 0.9197
N16 N 0.9163(6) 0.0815(6) 0.9248(2)
H99 H 0.9071 0.0663 0.9166
C88 C 0.9638(9) 0.0769(9) 0.9312(3)
H100 H 0.9710 0.1010 0.9391
C89 C 0.9949(14) 0.0801(14) 0.9171(6)
O14 O 0.9901(9) 0.0626(9) 0.9035(4)
C90 C 0.9699(10) 0.0266(10) 0.9375(4)
H101 H 0.9632 0.0029 0.9294
C91 C 1.0208(12) 0.0217(16) 0.9441(5)
H102 H 1.0430 0.0250 0.9357
H103 H 1.0264 0.0457 0.9519
H104 H 1.0245 -0.0088 0.9489
C92 C 0.9381(12) 0.0207(13) 0.9519(4)
H105 H 0.9415 -0.0106 0.9560
H106 H 0.9468 0.0432 0.9598
H107 H 0.9059 0.0258 0.9488
N17 N 1.0354(7) 0.1113(7) 0.9199(3)
H108 H 1.0349 0.1290 0.9281
C93 C 1.0739(6) 0.1140(7) 0.9102(3)
C94 C 1.0715(8) 0.1191(9) 0.8939(3)
H109 H 1.0424 0.1187 0.8889
C95 C 1.1125(12) 0.1248(10) 0.8852(2)
H110 H 1.1108 0.1282 0.8743
C96 C 1.1559(9) 0.1255(10) 0.8927(3)
H111 H 1.1834 0.1293 0.8868
C97 C 1.1584(6) 0.1204(8) 0.9090(3)
C98 C 1.1174(8) 0.1147(7) 0.9177(2)
H112 H 1.1191 0.1113 0.9286
C99 C 1.2042(11) 0.1228(12) 0.9202(5)
O15 O 1.2029(6) 0.1426(7) 0.9329(3)
N18 N 1.2427(9) 0.0942(9) 0.9146(3)
C100 C 1.2815(10) 0.0974(10) 0.9259(4)
H113 H 1.2693 0.0863 0.9361
C101 C 1.3058(13) 0.1449(15) 0.9290(6)
O16 O 1.3168(9) 0.1687(10) 0.9176(4)
C102 C 1.2477(14) 0.0658(14) 0.9006(5)
H114 H 1.2446 0.0846 0.8911
H115 H 1.2250 0.0403 0.9004
C103 C 1.2975(16) 0.048(2) 0.9026(7)
H116 H 1.3182 0.0629 0.8951
H117 H 1.2983 0.0140 0.9007
C104 C 1.3142(18) 0.0580(17) 0.9195(6)
H118 H 1.3467 0.0685 0.9194
H119 H 1.3119 0.0299 0.9260
N19 N 1.3103(8) 0.1592(9) 0.9428(3)
H120 H 1.2983 0.1424 0.9502
C105 C 1.3330(12) 0.2001(12) 0.9471(4)
H121 H 1.3162 0.2153 0.9556
H122 H 1.3338 0.2216 0.9382
C106 C 1.3851(8) 0.1881(9) 0.9525(3)
O17 O 1.4003(6) 0.1503(7) 0.9493(2)
N20 N 1.4072(7) 0.2193(8) 0.9601(3)
C107 C 1.4570(9) 0.2118(10) 0.9643(4)
H123 H 1.4751 0.2033 0.9549
C108 C 1.4614(10) 0.1748(9) 0.9763(4)
O18 O 1.4362(7) 0.1689(6) 0.9883(3)
C109 C 1.3943(14) 0.2675(11) 0.9634(5)
H124 H 1.3723 0.2681 0.9721
H125 H 1.3784 0.2805 0.9542
C110 C 1.4361(14) 0.2976(15) 0.9673(7)
H126 H 1.4303 0.3168 0.9766
H127 H 1.4448 0.3178 0.9585
C111 C 1.4730(14) 0.2601(11) 0.9704(5)
H128 H 1.4789 0.2581 0.9817
H129 H 1.5022 0.2689 0.9653
N21 N 1.5007(8) 0.1496(8) 0.9760(3)
H130 H 1.5158 0.1532 0.9673
C112 C 1.5111(5) 0.1166(6) 1.0021(2)
H131 H 1.4861 0.1349 1.0057
C113 C 1.5241(6) 0.1180(6) 0.9863(2)
C114 C 1.5615(7) 0.0907(7) 0.98101(18)
H132 H 1.5702 0.0917 0.9704
C115 C 1.5859(6) 0.0620(6) 0.9915(3)
H133 H 1.6109 0.0437 0.9879
C116 C 1.5728(6) 0.0605(6) 1.0073(2)
H134 H 1.5891 0.0413 1.0143
N22 N 1.5355(7) 0.0878(7) 1.01259(18)
Zn3 Zn 0.3565(7) 0.4466(10) 0.9269(2)
Br5 Br 0.3853(11) 0.3786(12) 0.9372(4)
Br6 Br 0.3855(15) 0.5147(17) 0.9418(3)
N23 N 0.3865(14) 0.4473(10) 0.9042(3)
C117 C 0.4351(14) 0.4417(11) 0.9032(4)
H135 H 0.4521 0.4314 0.9119
C118 C 0.4581(8) 0.4516(11) 0.8891(5)
H136 H 0.4906 0.4479 0.8884
C119 C 0.4326(12) 0.4671(10) 0.8761(3)
H137 H 0.4480 0.4737 0.8667
C120 C 0.3841(12) 0.4726(9) 0.8772(3)
C121 C 0.3610(9) 0.4627(10) 0.8912(4)
H138 H 0.3286 0.4664 0.8920
C122 C 0.3560(11) 0.4792(11) 0.8630(5)
O19 O 0.3700(8) 0.4720(7) 0.8501(3)
N24 N 0.3113(9) 0.5033(8) 0.8640(3)
H139 H 0.3029 0.5159 0.8728
C123 C 0.2808(11) 0.5064(11) 0.8507(4)
H140 H 0.2905 0.4832 0.8428
C124 C 0.2897(11) 0.5546(14) 0.8446(5)
O20 O 0.2877(8) 0.5907(9) 0.8529(3)
C125 C 0.2304(9) 0.4975(9) 0.8552(4)
H141 H 0.2233 0.5129 0.8651
H142 H 0.2096 0.5102 0.8472
C126 C 0.2234(8) 0.4496(7) 0.8566(4)
C127 C 0.2182(8) 0.4204(10) 0.8435(3)
H143 H 0.2203 0.4329 0.8334
C128 C 0.2099(9) 0.3726(9) 0.8456(4)
H144 H 0.2064 0.3530 0.8369
C129 C 0.2069(10) 0.3540(8) 0.8608(5)
H145 H 0.2013 0.3219 0.8622
C130 C 0.2121(11) 0.3832(13) 0.8738(3)
H146 H 0.2100 0.3707 0.8839
C131 C 0.2204(10) 0.4310(12) 0.8717(3)
H147 H 0.2239 0.4506 0.8804
N25 N 0.2943(8) 0.5605(9) 0.8294(4)
H148 H 0.2944 0.5357 0.8236
C132 C 0.2991(11) 0.6060(12) 0.8216(4)
H149 H 0.2888 0.6305 0.8289
C133 C 0.2622(11) 0.6034(13) 0.8076(4)
O21 O 0.2579(6) 0.5700(7) 0.7985(2)
C134 C 0.3479(13) 0.6203(15) 0.8149(5)
H150 H 0.3489 0.6511 0.8097
C135 C 0.380(3) 0.615(3) 0.8295(8)
H151 H 0.3730 0.6399 0.8369
H152 H 0.3748 0.5852 0.8344
H153 H 0.4124 0.6176 0.8263
C136 C 0.3637(14) 0.5798(13) 0.8049(5)
H154 H 0.3459 0.5793 0.7953
H155 H 0.3966 0.5833 0.8025
H156 H 0.3589 0.5509 0.8106
N26 N 0.2459(8) 0.6470(8) 0.8028(3)
H157 H 0.2552 0.6716 0.8078
C137 C 0.2155(9) 0.6525(9) 0.7904(3)
H158 H 0.1928 0.6265 0.7901
C138 C 0.2441(11) 0.6526(11) 0.7758(4)
O22 O 0.2820(7) 0.6802(7) 0.7742(2)
C139 C 0.1897(12) 0.6996(12) 0.7924(4)
H159 H 0.2121 0.7254 0.7920
H160 H 0.1739 0.7004 0.8025
C140 C 0.1509(10) 0.7052(9) 0.7781(3)
C141 C 0.1062(11) 0.6854(9) 0.7787(3)
H161 H 0.0965 0.6692 0.7877
C142 C 0.0759(8) 0.6899(10) 0.7659(4)
H162 H 0.0459 0.6767 0.7663
C143 C 0.0903(11) 0.7142(11) 0.7526(3)
H163 H 0.0701 0.7173 0.7440
C144 C 0.1351(13) 0.7340(10) 0.7520(3)
H164 H 0.1448 0.7503 0.7430
C145 C 0.1654(8) 0.7295(9) 0.7647(4)
H165 H 0.1953 0.7427 0.7644
N27 N 0.2330(8) 0.6293(8) 0.7627(3)
H166 H 0.2079 0.6124 0.7634
C146 C 0.2556(11) 0.6279(10) 0.7483(4)
H167 H 0.2790 0.6532 0.7484
C147 C 0.2230(15) 0.6389(15) 0.7358(5)
O23 O 0.1819(12) 0.6209(11) 0.7353(4)
C148 C 0.2825(13) 0.5824(12) 0.7453(5)
H168 H 0.2603 0.5561 0.7463
C149 C 0.3066(18) 0.5788(18) 0.7293(5)
H169 H 0.2835 0.5823 0.7211
H170 H 0.3298 0.6032 0.7284
H171 H 0.3216 0.5486 0.7284
C150 C 0.3194(15) 0.5768(17) 0.7580(5)
H172 H 0.3366 0.5481 0.7563
H173 H 0.3406 0.6030 0.7577
H174 H 0.3043 0.5756 0.7682
N28 N 0.2273(9) 0.6740(10) 0.7245(3)
H175 H 0.2490 0.6936 0.7271
C151 C 0.2079(11) 0.6868(9) 0.7108(3)
C152 C 0.1591(11) 0.6874(10) 0.7093(3)
H176 H 0.1402 0.6825 0.7181
C153 C 0.1386(7) 0.6955(10) 0.6947(4)
H177 H 0.1060 0.6959 0.6937
C154 C 0.1668(12) 0.7029(10) 0.6815(3)
H178 H 0.1531 0.7083 0.6717
C155 C 0.2156(11) 0.7023(9) 0.6830(3)
C156 C 0.2361(7) 0.6942(9) 0.6976(4)
H179 H 0.2687 0.6938 0.6986
C157 C 0.2456(15) 0.7169(15) 0.6679(6)
O24 O 0.2840(9) 0.7397(9) 0.6730(3)
N29 N 0.2473(16) 0.6961(15) 0.6556(5)
C158 C 0.2831(15) 0.6982(16) 0.6432(5)
H180 H 0.3143 0.6883 0.6469
C159 C 0.2830(15) 0.7468(15) 0.6372(5)
O25 O 0.2497(13) 0.7764(13) 0.6364(4)
C160 C 0.2052(16) 0.673(2) 0.6488(7)
H181 H 0.1877 0.6940 0.6418
H182 H 0.1845 0.6600 0.6567
C161 C 0.234(2) 0.6358(18) 0.6399(7)
H183 H 0.2522 0.6166 0.6470
H184 H 0.2133 0.6157 0.6336
C162 C 0.265(2) 0.6672(19) 0.6296(6)
H185 H 0.2464 0.6851 0.6219
H186 H 0.2894 0.6499 0.6243
N30 N 0.3228(12) 0.7686(12) 0.6364(4)
H187 H 0.3451 0.7555 0.6417
C163 C 0.3372(18) 0.8119(18) 0.6281(7)
H188 H 0.3584 0.8288 0.6351
H189 H 0.3093 0.8312 0.6269
C164 C 0.362(3) 0.809(3) 0.6115(9)
O26 O 0.3695(11) 0.7661(13) 0.6068(4)
N31 N 0.3627(17) 0.8428(19) 0.5988(6)
C165 C 0.3880(17) 0.8288(15) 0.5845(6)
H190 H 0.3739 0.8012 0.5794
C166 C 0.4380(17) 0.8215(17) 0.5887(6)
O27 O 0.4562(14) 0.8460(16) 0.5989(6)
C167 C 0.345(3) 0.891(2) 0.6001(7)
H191 H 0.3565 0.9076 0.6093
H192 H 0.3104 0.8926 0.5998
C168 C 0.368(2) 0.9063(16) 0.5847(6)
H193 H 0.3441 0.9231 0.5787
H194 H 0.3918 0.9292 0.5875
C169 C 0.391(2) 0.8715(19) 0.5735(6)
H195 H 0.4228 0.8801 0.5709
H196 H 0.3725 0.8672 0.5639
N32 N 0.4574(15) 0.7863(13) 0.5794(5)
H197 H 0.4377 0.7699 0.5741
C170 C 0.5174(14) 0.7264(10) 0.5753(4)
H198 H 0.4945 0.7056 0.5717
C171 C 0.5063(11) 0.7736(10) 0.5776(5)
C172 C 0.5406(13) 0.8047(10) 0.5830(5)
H199 H 0.5332 0.8362 0.5846
C173 C 0.5859(12) 0.7886(15) 0.5861(5)
H200 H 0.6088 0.8094 0.5897
C174 C 0.5970(12) 0.7414(16) 0.5837(5)
H201 H 0.6273 0.7306 0.5858
N33 N 0.5628(15) 0.7103(11) 0.5783(5)
Zn3G Zn 0.5534(10) 0.6435(7) 0.5731(2)
Br5G Br 0.6214(12) 0.6147(11) 0.5628(4)
Br6G Br 0.4853(17) 0.6145(15) 0.5582(3)
N23G N 0.5527(10) 0.6135(14) 0.5958(3)
C117G C 0.5583(11) 0.5649(14) 0.5968(4)
H135G H 0.5686 0.5479 0.5881
C118G C 0.5484(11) 0.5419(8) 0.6109(5)
H136G H 0.5521 0.5094 0.6116
C119G C 0.5329(10) 0.5674(12) 0.6239(3)
H137G H 0.5263 0.5520 0.6333
C120G C 0.5274(9) 0.6159(12) 0.6228(3)
C121G C 0.5373(10) 0.6390(9) 0.6088(4)
H138G H 0.5336 0.6714 0.6080
C122G C 0.5208(11) 0.6440(11) 0.6370(5)
O19G O 0.5280(7) 0.6300(8) 0.6499(3)
N24G N 0.4967(8) 0.6887(9) 0.6360(3)
H139G H 0.4841 0.6971 0.6272
C123G C 0.4936(11) 0.7192(11) 0.6493(4)
H140G H 0.5168 0.7095 0.6572
C124G C 0.4454(14) 0.7103(11) 0.6554(5)
O20G O 0.4093(9) 0.7123(8) 0.6471(3)
C125G C 0.5025(9) 0.7696(9) 0.6448(4)
H141G H 0.4871 0.7767 0.6349
H142G H 0.4898 0.7904 0.6528
C126G C 0.5504(7) 0.7766(8) 0.6434(4)
C127G C 0.5796(10) 0.7818(8) 0.6565(3)
H143G H 0.5671 0.7797 0.6666
C128G C 0.6274(9) 0.7901(9) 0.6544(4)
H144G H 0.6470 0.7936 0.6631
C129G C 0.6460(8) 0.7931(10) 0.6392(5)
H145G H 0.6781 0.7987 0.6378
C130G C 0.6168(13) 0.7879(11) 0.6262(3)
H146G H 0.6293 0.7900 0.6161
C131G C 0.5690(12) 0.7796(10) 0.6283(3)
H147G H 0.5494 0.7761 0.6196
N25G N 0.4395(9) 0.7057(8) 0.6706(4)
H148G H 0.4643 0.7056 0.6764
C132G C 0.3940(12) 0.7009(11) 0.6784(4)
H149G H 0.3695 0.7112 0.6711
C133G C 0.3966(13) 0.7378(11) 0.6924(4)
O21G O 0.4300(7) 0.7421(6) 0.7015(2)
C134G C 0.3797(15) 0.6521(13) 0.6851(5)
H150G H 0.3489 0.6511 0.6903
C135G C 0.385(3) 0.620(3) 0.6705(8)
H151G H 0.3601 0.6270 0.6631
H152G H 0.4148 0.6252 0.6656
H153G H 0.3824 0.5876 0.6737
C136G C 0.4202(13) 0.6363(14) 0.6951(5)
H154G H 0.4207 0.6541 0.7047
H155G H 0.4167 0.6034 0.6975
H156G H 0.4491 0.6411 0.6894
N26G N 0.3530(8) 0.7541(8) 0.6972(3)
H157G H 0.3284 0.7448 0.6922
C137G C 0.3475(9) 0.7845(9) 0.7096(3)
H158G H 0.3735 0.8072 0.7099
C138G C 0.3474(11) 0.7559(11) 0.7242(4)
O22G O 0.3198(7) 0.7180(7) 0.7258(2)
C139G C 0.3004(12) 0.8103(12) 0.7076(4)
H159G H 0.2746 0.7879 0.7080
H160G H 0.2996 0.8261 0.6975
C140G C 0.2948(9) 0.8491(10) 0.7219(3)
C141G C 0.3146(9) 0.8938(11) 0.7213(3)
H161G H 0.3308 0.9035 0.7123
C142G C 0.3101(10) 0.9241(8) 0.7341(4)
H162G H 0.3233 0.9541 0.7337
C143G C 0.2858(11) 0.9097(11) 0.7474(3)
H163G H 0.2827 0.9299 0.7560
C144G C 0.2660(10) 0.8649(13) 0.7480(3)
H164G H 0.2497 0.8552 0.7570
C145G C 0.2705(9) 0.8346(8) 0.7353(4)
H165G H 0.2573 0.8047 0.7356
N27G N 0.3707(8) 0.7670(8) 0.7373(3)
H166G H 0.3876 0.7921 0.7366
C146G C 0.3721(10) 0.7444(11) 0.7517(4)
H167G H 0.3468 0.7210 0.7516
C147G C 0.3611(15) 0.7770(15) 0.7642(5)
O23G O 0.3791(11) 0.8181(12) 0.7647(4)
C148G C 0.4176(12) 0.7175(13) 0.7547(5)
H168G H 0.4439 0.7397 0.7537
C149G C 0.4212(18) 0.6934(18) 0.7707(5)
H169G H 0.4177 0.7165 0.7789
H170G H 0.3968 0.6702 0.7716
H171G H 0.4514 0.6784 0.7716
C150G C 0.4232(17) 0.6806(15) 0.7420(5)
H172G H 0.4519 0.6634 0.7437
H173G H 0.3970 0.6594 0.7423
H174G H 0.4244 0.6957 0.7318
N28G N 0.3260(10) 0.7727(9) 0.7755(3)
H175G H 0.3064 0.7510 0.7729
C151G C 0.3132(9) 0.7921(11) 0.7892(3)
C152G C 0.3126(10) 0.8409(11) 0.7907(3)
H176G H 0.3175 0.8598 0.7819
C153G C 0.3045(10) 0.8614(7) 0.8053(4)
H177G H 0.3041 0.8940 0.8063
C154G C 0.2971(10) 0.8332(12) 0.8185(3)
H178G H 0.2917 0.8469 0.8283
C155G C 0.2977(9) 0.7844(11) 0.8170(3)
C156G C 0.3058(9) 0.7639(7) 0.8024(4)
H179G H 0.3062 0.7313 0.8014
C157G C 0.2831(15) 0.7544(15) 0.8321(6)
O24G O 0.2603(9) 0.7160(9) 0.8270(3)
N29G N 0.3039(15) 0.7527(16) 0.8444(5)
C158G C 0.3018(16) 0.7169(15) 0.8568(5)
H180G H 0.3117 0.6857 0.8531
C159G C 0.2532(15) 0.7170(15) 0.8628(5)
O25G O 0.2236(13) 0.7503(13) 0.8636(4)
C160G C 0.327(2) 0.7948(16) 0.8512(7)
H181G H 0.3060 0.8123 0.8582
H182G H 0.3400 0.8155 0.8433
C161G C 0.3642(18) 0.766(2) 0.8601(7)
H183G H 0.3834 0.7478 0.8530
H184G H 0.3843 0.7867 0.8664
C162G C 0.3328(19) 0.735(2) 0.8704(6)
H185G H 0.3149 0.7536 0.8781
H186G H 0.3501 0.7106 0.8757
N30G N 0.2314(12) 0.6772(12) 0.8636(4)
H187G H 0.2445 0.6549 0.8583
C163G C 0.1881(18) 0.6628(18) 0.8719(7)
H188G H 0.1712 0.6416 0.8649
H189G H 0.1688 0.6907 0.8731
C164G C 0.191(3) 0.638(3) 0.8885(9)
O26G O 0.2339(13) 0.6305(11) 0.8932(4)
N31G N 0.1572(19) 0.6373(17) 0.9012(6)
C165G C 0.1712(15) 0.6120(17) 0.9155(6)
H190G H 0.1988 0.6261 0.9206
C166G C 0.1785(17) 0.5620(17) 0.9113(6)
O27G O 0.1540(16) 0.5438(14) 0.9011(6)
C167G C 0.109(2) 0.655(3) 0.8999(7)
H191G H 0.0924 0.6435 0.8907
H192G H 0.1074 0.6896 0.9002
C168G C 0.0937(16) 0.632(2) 0.9153(6)
H193G H 0.0769 0.6559 0.9213
H194G H 0.0708 0.6082 0.9125
C169G C 0.1285(19) 0.609(2) 0.9265(6)
H195G H 0.1199 0.5772 0.9291
H196G H 0.1328 0.6275 0.9361
N32G N 0.2137(13) 0.5426(15) 0.9206(5)
H197G H 0.2301 0.5623 0.9259
C170G C 0.2736(10) 0.4826(14) 0.9247(4)
H198G H 0.2944 0.5055 0.9283
C171G C 0.2264(10) 0.4937(11) 0.9224(5)
C172G C 0.1953(10) 0.4594(13) 0.9170(5)
H199G H 0.1638 0.4668 0.9154
C173G C 0.2114(15) 0.4141(12) 0.9139(5)
H200G H 0.1906 0.3912 0.9103
C174G C 0.2586(16) 0.4030(12) 0.9163(5)
H201G H 0.2694 0.3727 0.9142
N33G N 0.2897(11) 0.4372(15) 0.9217(5)
O28 O 1.360(3) 0.180(3) 0.8799(10)
O29 O 0.4431(14) 0.6978(14) 0.6066(5)
O30 O 0.4630(18) 0.8999(18) 0.6371(6)
O31 O 0.453(3) -0.119(3) 1.0541(11)
O33 O 0.215(3) 0.471(3) 0.6988(11)
O34 O 0.335(3) 0.360(3) 0.9880(10)
O35 O 0.164(3) 0.830(3) 0.7140(10)
O36 O 0.659(3) 0.293(3) 0.8986(11)
O37 O 1.0831(16) 0.2449(16) 0.8925(6)
loop_
_geom_bond_atom_site_label_1
_geom_bond_atom_site_label_2
_geom_bond_site_symmetry_1
_geom_bond_site_symmetry_2
Zn1 Br1 1_555 1_555
Br2 Zn1 1_555 1_555
Zn2 Br3 1_555 1_555
Br4 Zn2 1_555 1_555
N1 Zn2 1_555 1_555
C1 N1 1_555 1_555
H1 C1 1_555 1_555
C2 C1 1_555 1_555
C3 C2 1_555 1_555
H2 C3 1_555 1_555
C4 C3 1_555 1_555
H3 C4 1_555 1_555
C5 N1 1_555 1_555
H4 C5 1_555 1_555
C6 C2 1_555 1_555
O1 C6 1_555 1_555
N2 C6 1_555 1_555
H5 N2 1_555 1_555
C7 N2 1_555 1_555
H6 C7 1_555 1_555
C8 C7 1_555 1_555
O2 C8 1_555 1_555
C9 C7 1_555 1_555
H7 C9 1_555 1_555
H8 C9 1_555 1_555
C10 C9 1_555 1_555
C11 C10 1_555 1_555
H9 C11 1_555 1_555
C12 C11 1_555 1_555
H10 C12 1_555 1_555
C13 C12 1_555 1_555
H11 C13 1_555 1_555
C14 C13 1_555 1_555
H12 C14 1_555 1_555
C15 C10 1_555 1_555
H13 C15 1_555 1_555
N3 C8 1_555 1_555
H14 N3 1_555 1_555
C16 N3 1_555 1_555
H15 C16 1_555 1_555
C17 C16 1_555 1_555
O3 C17 1_555 1_555
C18 C16 1_555 1_555
H16 C18 1_555 1_555
C19 C18 1_555 1_555
H17 C19 1_555 1_555
H18 C19 1_555 1_555
H19 C19 1_555 1_555
C20 C18 1_555 1_555
H20 C20 1_555 1_555
H21 C20 1_555 1_555
H22 C20 1_555 1_555
N4 C17 1_555 1_555
H23 N4 1_555 1_555
C21 N4 1_555 1_555
H24 C21 1_555 1_555
C22 C21 1_555 1_555
O4 C22 1_555 1_555
C23 C21 1_555 1_555
H25 C23 1_555 1_555
H26 C23 1_555 1_555
C24 C23 1_555 1_555
C25 C24 1_555 1_555
H27 C25 1_555 1_555
C26 C25 1_555 1_555
H28 C26 1_555 1_555
C27 C26 1_555 1_555
H29 C27 1_555 1_555
C28 C27 1_555 1_555
H30 C28 1_555 1_555
C29 C24 1_555 1_555
H31 C29 1_555 1_555
N5 C22 1_555 1_555
H32 N5 1_555 1_555
C30 N5 1_555 1_555
H33 C30 1_555 1_555
C31 C30 1_555 1_555
O5 C31 1_555 1_555
C32 C30 1_555 1_555
H34 C32 1_555 1_555
C33 C32 1_555 1_555
H35 C33 1_555 1_555
H36 C33 1_555 1_555
H37 C33 1_555 1_555
C34 C32 1_555 1_555
H38 C34 1_555 1_555
H39 C34 1_555 1_555
H40 C34 1_555 1_555
N6 C31 1_555 1_555
H41 N6 1_555 1_555
C35 N6 1_555 1_555
C36 C35 1_555 1_555
H42 C36 1_555 1_555
C37 C36 1_555 1_555
H43 C37 1_555 1_555
C38 C37 1_555 1_555
H44 C38 1_555 1_555
C39 C38 1_555 1_555
C40 C35 1_555 1_555
H45 C40 1_555 1_555
C41 C39 1_555 1_555
O6 C41 1_555 1_555
N7 C41 1_555 1_555
C42 N7 1_555 1_555
H46 C42 1_555 1_555
C43 C42 1_555 1_555
O7 C43 1_555 1_555
C44 N7 1_555 1_555
H47 C44 1_555 1_555
H48 C44 1_555 1_555
C45 C44 1_555 1_555
H49 C45 1_555 1_555
H50 C45 1_555 1_555
C46 C42 1_555 1_555
H51 C46 1_555 1_555
H52 C46 1_555 1_555
N8 C43 1_555 1_555
H53 N8 1_555 1_555
C47 N8 1_555 1_555
H54 C47 1_555 1_555
H55 C47 1_555 1_555
C48 C47 1_555 1_555
O8 C48 1_555 1_555
N9 C48 1_555 1_555
C49 N9 1_555 1_555
H56 C49 1_555 1_555
C50 C49 1_555 1_555
O9 C50 1_555 1_555
C51 N9 1_555 1_555
H57 C51 1_555 1_555
H58 C51 1_555 1_555
C52 C51 1_555 1_555
H59 C52 1_555 1_555
H60 C52 1_555 1_555
C53 C49 1_555 1_555
H61 C53 1_555 1_555
H62 C53 1_555 1_555
N10 C50 1_555 1_555
H63 N10 1_555 1_555
C54 H64 1_555 1_555
C55 N10 1_555 1_555
C56 C55 1_555 1_555
H65 C56 1_555 1_555
C57 C56 1_555 1_555
H66 C57 1_555 1_555
C58 C57 1_555 1_555
H67 C58 1_555 1_555
N11 Zn1 1_555 1_555
N12 Zn1 1_555 1_555
C59 N12 1_555 1_555
H68 C59 1_555 1_555
C60 C59 1_555 1_555
H69 C60 1_555 1_555
C61 C60 1_555 1_555
H70 C61 1_555 1_555
C62 C61 1_555 1_555
C63 N12 1_555 1_555
H71 C63 1_555 1_555
C64 C62 1_555 1_555
O10 C64 1_555 1_555
N13 C64 1_555 1_555
H72 N13 1_555 1_555
C65 N13 1_555 1_555
H73 C65 1_555 1_555
C66 C65 1_555 1_555
O11 C66 1_555 1_555
C67 C65 1_555 1_555
H74 C67 1_555 1_555
H75 C67 1_555 1_555
C68 C67 1_555 1_555
C69 C68 1_555 1_555
H76 C69 1_555 1_555
C70 C69 1_555 1_555
H77 C70 1_555 1_555
C71 C70 1_555 1_555
H78 C71 1_555 1_555
C72 C71 1_555 1_555
H79 C72 1_555 1_555
C73 C68 1_555 1_555
H80 C73 1_555 1_555
N14 C66 1_555 1_555
H81 N14 1_555 1_555
C74 N14 1_555 1_555
H82 C74 1_555 1_555
C75 C74 1_555 1_555
O12 C75 1_555 1_555
C76 C74 1_555 1_555
H83 C76 1_555 1_555
C77 C76 1_555 1_555
H84 C77 1_555 1_555
H85 C77 1_555 1_555
H86 C77 1_555 1_555
C78 C76 1_555 1_555
H87 C78 1_555 1_555
H88 C78 1_555 1_555
H89 C78 1_555 1_555
N15 C75 1_555 1_555
H90 N15 1_555 1_555
C79 N15 1_555 1_555
H91 C79 1_555 1_555
C80 C79 1_555 1_555
O13 C80 1_555 1_555
C81 C79 1_555 1_555
H92 C81 1_555 1_555
H93 C81 1_555 1_555
C82 C81 1_555 1_555
C83 C82 1_555 1_555
H94 C83 1_555 1_555
C84 C83 1_555 1_555
H95 C84 1_555 1_555
C85 C84 1_555 1_555
H96 C85 1_555 1_555
C86 C85 1_555 1_555
H97 C86 1_555 1_555
C87 C82 1_555 1_555
H98 C87 1_555 1_555
N16 C80 1_555 1_555
H99 N16 1_555 1_555
C88 N16 1_555 1_555
H100 C88 1_555 1_555
C89 C88 1_555 1_555
O14 C89 1_555 1_555
C90 C88 1_555 1_555
H101 C90 1_555 1_555
C91 C90 1_555 1_555
H102 C91 1_555 1_555
H103 C91 1_555 1_555
H104 C91 1_555 1_555
C92 C90 1_555 1_555
H105 C92 1_555 1_555
H106 C92 1_555 1_555
H107 C92 1_555 1_555
N17 C89 1_555 1_555
H108 N17 1_555 1_555
C93 N17 1_555 1_555
C94 C93 1_555 1_555
H109 C94 1_555 1_555
C95 C94 1_555 1_555
H110 C95 1_555 1_555
C96 C95 1_555 1_555
H111 C96 1_555 1_555
C97 C96 1_555 1_555
C98 C93 1_555 1_555
H112 C98 1_555 1_555
C99 C97 1_555 1_555
O15 C99 1_555 1_555
N18 C99 1_555 1_555
C100 N18 1_555 1_555
H113 C100 1_555 1_555
C101 C100 1_555 1_555
O16 C101 1_555 1_555
C102 N18 1_555 1_555
H114 C102 1_555 1_555
H115 C102 1_555 1_555
C103 C102 1_555 1_555
H116 C103 1_555 1_555
H117 C103 1_555 1_555
C104 C100 1_555 1_555
H118 C104 1_555 1_555
H119 C104 1_555 1_555
N19 C101 1_555 1_555
H120 N19 1_555 1_555
C105 N19 1_555 1_555
H121 C105 1_555 1_555
H122 C105 1_555 1_555
C106 C105 1_555 1_555
O17 C106 1_555 1_555
N20 C106 1_555 1_555
C107 N20 1_555 1_555
H123 C107 1_555 1_555
C108 C107 1_555 1_555
O18 C108 1_555 1_555
C109 N20 1_555 1_555
H124 C109 1_555 1_555
H125 C109 1_555 1_555
C110 C109 1_555 1_555
H126 C110 1_555 1_555
H127 C110 1_555 1_555
C111 C107 1_555 1_555
H128 C111 1_555 1_555
H129 C111 1_555 1_555
N21 C108 1_555 1_555
H130 N21 1_555 1_555
C112 H131 1_555 1_555
C113 N21 1_555 1_555
C114 C113 1_555 1_555
H132 C114 1_555 1_555
C115 C114 1_555 1_555
H133 C115 1_555 1_555
C116 C115 1_555 1_555
H134 C116 1_555 1_555
N22 Zn2 1_555 1_555
Zn3 Br5 1_555 1_555
Br6 Zn3 1_555 1_555
N23 Zn3 1_555 1_555
C117 N23 1_555 1_555
H135 C117 1_555 1_555
C118 C117 1_555 1_555
H136 C118 1_555 1_555
C119 C118 1_555 1_555
H137 C119 1_555 1_555
C120 C119 1_555 1_555
C121 N23 1_555 1_555
H138 C121 1_555 1_555
C122 C120 1_555 1_555
O19 C122 1_555 1_555
N24 C122 1_555 1_555
H139 N24 1_555 1_555
C123 N24 1_555 1_555
H140 C123 1_555 1_555
C124 C123 1_555 1_555
O20 C124 1_555 1_555
C125 C123 1_555 1_555
H141 C125 1_555 1_555
H142 C125 1_555 1_555
C126 C125 1_555 1_555
C127 C126 1_555 1_555
H143 C127 1_555 1_555
C128 C127 1_555 1_555
H144 C128 1_555 1_555
C129 C128 1_555 1_555
H145 C129 1_555 1_555
C130 C129 1_555 1_555
H146 C130 1_555 1_555
C131 C126 1_555 1_555
H147 C131 1_555 1_555
N25 C124 1_555 1_555
H148 N25 1_555 1_555
C132 N25 1_555 1_555
H149 C132 1_555 1_555
C133 C132 1_555 1_555
O21 C133 1_555 1_555
C134 C132 1_555 1_555
H150 C134 1_555 1_555
C135 C134 1_555 1_555
H151 C135 1_555 1_555
H152 C135 1_555 1_555
H153 C135 1_555 1_555
C136 C134 1_555 1_555
H154 C136 1_555 1_555
H155 C136 1_555 1_555
H156 C136 1_555 1_555
N26 C133 1_555 1_555
H157 N26 1_555 1_555
C137 N26 1_555 1_555
H158 C137 1_555 1_555
C138 C137 1_555 1_555
O22 C138 1_555 1_555
C139 C137 1_555 1_555
H159 C139 1_555 1_555
H160 C139 1_555 1_555
C140 C139 1_555 1_555
C141 C140 1_555 1_555
H161 C141 1_555 1_555
C142 C141 1_555 1_555
H162 C142 1_555 1_555
C143 C142 1_555 1_555
H163 C143 1_555 1_555
C144 C143 1_555 1_555
H164 C144 1_555 1_555
C145 C140 1_555 1_555
H165 C145 1_555 1_555
N27 C138 1_555 1_555
H166 N27 1_555 1_555
C146 N27 1_555 1_555
H167 C146 1_555 1_555
C147 C146 1_555 1_555
O23 C147 1_555 1_555
C148 C146 1_555 1_555
H168 C148 1_555 1_555
C149 C148 1_555 1_555
H169 C149 1_555 1_555
H170 C149 1_555 1_555
H171 C149 1_555 1_555
C150 C148 1_555 1_555
H172 C150 1_555 1_555
H173 C150 1_555 1_555
H174 C150 1_555 1_555
N28 C147 1_555 1_555
H175 N28 1_555 1_555
C151 N28 1_555 1_555
C152 C151 1_555 1_555
H176 C152 1_555 1_555
C153 C152 1_555 1_555
H177 C153 1_555 1_555
C154 C153 1_555 1_555
H178 C154 1_555 1_555
C155 C154 1_555 1_555
C156 C151 1_555 1_555
H179 C156 1_555 1_555
C157 C155 1_555 1_555
O24 C157 1_555 1_555
N29 C157 1_555 1_555
C158 N29 1_555 1_555
H180 C158 1_555 1_555
C159 C158 1_555 1_555
O25 C159 1_555 1_555
C160 N29 1_555 1_555
H181 C160 1_555 1_555
H182 C160 1_555 1_555
C161 C160 1_555 1_555
H183 C161 1_555 1_555
H184 C161 1_555 1_555
C162 C158 1_555 1_555
H185 C162 1_555 1_555
H186 C162 1_555 1_555
N30 C159 1_555 1_555
H187 N30 1_555 1_555
C163 N30 1_555 1_555
H188 C163 1_555 1_555
H189 C163 1_555 1_555
C164 C163 1_555 1_555
O26 C164 1_555 1_555
N31 C164 1_555 1_555
C165 N31 1_555 1_555
H190 C165 1_555 1_555
C166 C165 1_555 1_555
O27 C166 1_555 1_555
C167 N31 1_555 1_555
H191 C167 1_555 1_555
H192 C167 1_555 1_555
C168 C167 1_555 1_555
H193 C168 1_555 1_555
H194 C168 1_555 1_555
C169 C165 1_555 1_555
H195 C169 1_555 1_555
H196 C169 1_555 1_555
N32 C166 1_555 1_555
H197 N32 1_555 1_555
C170 H198 1_555 1_555
C171 N32 1_555 1_555
C172 C171 1_555 1_555
H199 C172 1_555 1_555
C173 C172 1_555 1_555
H200 C173 1_555 1_555
C174 C173 1_555 1_555
H201 C174 1_555 1_555
N33 C170 1_555 1_555
Zn3G N33 1_555 1_555
Br5G Zn3G 1_555 1_555
Br6G Zn3G 1_555 1_555
N23G Zn3G 1_555 1_555
C117G N23G 1_555 1_555
H135G C117G 1_555 1_555
C118G C117G 1_555 1_555
H136G C118G 1_555 1_555
C119G C118G 1_555 1_555
H137G C119G 1_555 1_555
C120G C119G 1_555 1_555
C121G N23G 1_555 1_555
H138G C121G 1_555 1_555
C122G C120G 1_555 1_555
O19G C122G 1_555 1_555
N24G C122G 1_555 1_555
H139G N24G 1_555 1_555
C123G N24G 1_555 1_555
H140G C123G 1_555 1_555
C124G C123G 1_555 1_555
O20G C124G 1_555 1_555
C125G C123G 1_555 1_555
H141G C125G 1_555 1_555
H142G C125G 1_555 1_555
C126G C125G 1_555 1_555
C127G C126G 1_555 1_555
H143G C127G 1_555 1_555
C128G C127G 1_555 1_555
H144G C128G 1_555 1_555
C129G C128G 1_555 1_555
H145G C129G 1_555 1_555
C130G C129G 1_555 1_555
H146G C130G 1_555 1_555
C131G C126G 1_555 1_555
H147G C131G 1_555 1_555
N25G C124G 1_555 1_555
H148G N25G 1_555 1_555
C132G N25G 1_555 1_555
H149G C132G 1_555 1_555
C133G C132G 1_555 1_555
O21G C133G 1_555 1_555
C134G C132G 1_555 1_555
H150G C134G 1_555 1_555
C135G C134G 1_555 1_555
H151G C135G 1_555 1_555
H152G C135G 1_555 1_555
H153G C135G 1_555 1_555
C136G C134G 1_555 1_555
H154G C136G 1_555 1_555
H155G C136G 1_555 1_555
H156G C136G 1_555 1_555
N26G C133G 1_555 1_555
H157G N26G 1_555 1_555
C137G N26G 1_555 1_555
H158G C137G 1_555 1_555
C138G C137G 1_555 1_555
O22G C138G 1_555 1_555
C139G C137G 1_555 1_555
H159G C139G 1_555 1_555
H160G C139G 1_555 1_555
C140G C139G 1_555 1_555
C141G C140G 1_555 1_555
H161G C141G 1_555 1_555
C142G C141G 1_555 1_555
H162G C142G 1_555 1_555
C143G C142G 1_555 1_555
H163G C143G 1_555 1_555
C144G C143G 1_555 1_555
H164G C144G 1_555 1_555
C145G C140G 1_555 1_555
H165G C145G 1_555 1_555
N27G C138G 1_555 1_555
H166G N27G 1_555 1_555
C146G N27G 1_555 1_555
H167G C146G 1_555 1_555
C147G C146G 1_555 1_555
O23G C147G 1_555 1_555
C148G C146G 1_555 1_555
H168G C148G 1_555 1_555
C149G C148G 1_555 1_555
H169G C149G 1_555 1_555
H170G C149G 1_555 1_555
H171G C149G 1_555 1_555
C150G C148G 1_555 1_555
H172G C150G 1_555 1_555
H173G C150G 1_555 1_555
H174G C150G 1_555 1_555
N28G C147G 1_555 1_555
H175G N28G 1_555 1_555
C151G N28G 1_555 1_555
C152G C151G 1_555 1_555
H176G C152G 1_555 1_555
C153G C152G 1_555 1_555
H177G C153G 1_555 1_555
C154G C153G 1_555 1_555
H178G C154G 1_555 1_555
C155G C154G 1_555 1_555
C156G C151G 1_555 1_555
H179G C156G 1_555 1_555
C157G C155G 1_555 1_555
O24G C157G 1_555 1_555
N29G C157G 1_555 1_555
C158G N29G 1_555 1_555
H180G C158G 1_555 1_555
C159G C158G 1_555 1_555
O25G C159G 1_555 1_555
C160G N29G 1_555 1_555
H181G C160G 1_555 1_555
H182G C160G 1_555 1_555
C161G C160G 1_555 1_555
H183G C161G 1_555 1_555
H184G C161G 1_555 1_555
C162G C158G 1_555 1_555
H185G C162G 1_555 1_555
H186G C162G 1_555 1_555
N30G C159G 1_555 1_555
H187G N30G 1_555 1_555
C163G N30G 1_555 1_555
H188G C163G 1_555 1_555
H189G C163G 1_555 1_555
C164G C163G 1_555 1_555
O26G C164G 1_555 1_555
N31G C164G 1_555 1_555
C165G N31G 1_555 1_555
H190G C165G 1_555 1_555
C166G C165G 1_555 1_555
O27G C166G 1_555 1_555
C167G N31G 1_555 1_555
H191G C167G 1_555 1_555
H192G C167G 1_555 1_555
C168G C167G 1_555 1_555
H193G C168G 1_555 1_555
H194G C168G 1_555 1_555
C169G C165G 1_555 1_555
H195G C169G 1_555 1_555
H196G C169G 1_555 1_555
N32G C166G 1_555 1_555
H197G N32G 1_555 1_555
C170G H198G 1_555 1_555
C171G N32G 1_555 1_555
C172G C171G 1_555 1_555
H199G C172G 1_555 1_555
C173G C172G 1_555 1_555
H200G C173G 1_555 1_555
C174G C173G 1_555 1_555
H201G C174G 1_555 1_555
N33G Zn3 1_555 1_555
C4 C5 1_555 1_555
C14 C15 1_555 1_555
C28 C29 1_555 1_555
C39 C40 1_555 1_555
C45 C46 1_555 1_555
C52 C53 1_555 1_555
C54 C55 1_555 1_555
C54 N11 1_555 1_555
C58 N11 1_555 1_555
C62 C63 1_555 1_555
C72 C73 1_555 1_555
C86 C87 1_555 1_555
C97 C98 1_555 1_555
C103 C104 1_555 1_555
C110 C111 1_555 1_555
C112 C113 1_555 1_555
C112 N22 1_555 1_555
C116 N22 1_555 1_555
C120 C121 1_555 1_555
C130 C131 1_555 1_555
C144 C145 1_555 1_555
C155 C156 1_555 1_555
C161 C162 1_555 1_555
C168 C169 1_555 1_555
C170 C171 1_555 1_555
C174 N33 1_555 1_555
C120G C121G 1_555 1_555
C130G C131G 1_555 1_555
C144G C145G 1_555 1_555
C155G C156G 1_555 1_555
C161G C162G 1_555 1_555
C168G C169G 1_555 1_555
C170G C171G 1_555 1_555
C170G N33G 1_555 1_555
C174G N33G 1_555 1_555

#END
