# generated using pymatgen
data_Fe32B44.6H1530C1802N304F274.4
_symmetry_space_group_name_H-M   'P 1'
_cell_length_a   36.54070000
_cell_length_b   37.99960000
_cell_length_c   43.09690000
_cell_angle_alpha   90.00000000
_cell_angle_beta   110.74100000
_cell_angle_gamma   90.00000000
_symmetry_Int_Tables_number   1
_chemical_formula_structural   Fe32B44.6H1530C1802N304F274.4
_chemical_formula_sum   'Fe32 B44.6 H1530 C1802 N304 F274.4'
_cell_volume   55963.15222506
_cell_formula_units_Z   1
loop_
 _symmetry_equiv_pos_site_id
 _symmetry_equiv_pos_as_xyz
  1  'x, y, z'
loop_
 _atom_site_type_symbol
 _atom_site_label
 _atom_site_symmetry_multiplicity
 _atom_site_fract_x
 _atom_site_fract_y
 _atom_site_fract_z
 _atom_site_occupancy
  Fe  Fe1  1  0.993780  0.380040  0.360950  1.0
  Fe  Fe2  1  0.506220  0.880040  0.639050  1.0
  Fe  Fe3  1  0.006220  0.619960  0.639050  1.0
  Fe  Fe4  1  0.493780  0.119960  0.360950  1.0
  Fe  Fe5  1  0.689910  0.336560  0.399540  1.0
  Fe  Fe6  1  0.810090  0.836560  0.600460  1.0
  Fe  Fe7  1  0.310090  0.663440  0.600460  1.0
  Fe  Fe8  1  0.189910  0.163440  0.399540  1.0
  Fe  Fe9  1  0.638630  0.627260  0.401950  1.0
  Fe  Fe10  1  0.861370  0.127260  0.598050  1.0
  Fe  Fe11  1  0.361370  0.372740  0.598050  1.0
  Fe  Fe12  1  0.138630  0.872740  0.401950  1.0
  Fe  Fe13  1  0.941990  0.678560  0.364300  1.0
  Fe  Fe14  1  0.558010  0.178560  0.635700  1.0
  Fe  Fe15  1  0.058010  0.321440  0.635700  1.0
  Fe  Fe16  1  0.441990  0.821440  0.364300  1.0
  Fe  Fe17  1  0.762430  0.311230  0.105640  1.0
  Fe  Fe18  1  0.737570  0.811230  0.894360  1.0
  Fe  Fe19  1  0.237570  0.688770  0.894360  1.0
  Fe  Fe20  1  0.262430  0.188770  0.105640  1.0
  Fe  Fe21  1  0.476070  0.402340  0.132730  1.0
  Fe  Fe22  1  0.023930  0.902340  0.867270  1.0
  Fe  Fe23  1  0.523930  0.597660  0.867270  1.0
  Fe  Fe24  1  0.976070  0.097660  0.132730  1.0
  Fe  Fe25  1  0.586420  0.701430  0.129560  1.0
  Fe  Fe26  1  0.913580  0.201430  0.870440  1.0
  Fe  Fe27  1  0.413580  0.298570  0.870440  1.0
  Fe  Fe28  1  0.086420  0.798570  0.129560  1.0
  Fe  Fe29  1  0.858640  0.603380  0.084400  1.0
  Fe  Fe30  1  0.641360  0.103380  0.915600  1.0
  Fe  Fe31  1  0.141360  0.396620  0.915600  1.0
  Fe  Fe32  1  0.358640  0.896620  0.084400  1.0
  B  B33  1  0.693600  0.475400  0.431800  1.0
  B  B34  1  0.806400  0.975400  0.568200  1.0
  B  B35  1  0.306400  0.524600  0.568200  1.0
  B  B36  1  0.193600  0.024600  0.431800  1.0
  B  B37  1  0.094700  0.739200  0.469800  1.0
  B  B38  1  0.405300  0.239200  0.530200  1.0
  B  B39  1  0.905300  0.260800  0.530200  1.0
  B  B40  1  0.594700  0.760800  0.469800  1.0
  B  B41  1  0.105300  0.271200  0.456300  1.0
  B  B42  1  0.394700  0.771200  0.543700  1.0
  B  B43  1  0.894700  0.728800  0.543700  1.0
  B  B44  1  0.605300  0.228800  0.456300  1.0
  B  B45  1  0.694200  0.504300  0.157300  1.0
  B  B46  1  0.805800  0.004300  0.842700  1.0
  B  B47  1  0.305800  0.495700  0.842700  1.0
  B  B48  1  0.194200  0.995700  0.157300  1.0
  B  B49  1  0.799700  0.504800  0.349100  1.0
  B  B50  1  0.700300  0.004800  0.650900  1.0
  B  B51  1  0.200300  0.495200  0.650900  1.0
  B  B52  1  0.299700  0.995200  0.349100  1.0
  B  B53  1  0.609200  0.217200  0.297100  1.0
  B  B54  1  0.890800  0.717200  0.702900  1.0
  B  B55  1  0.390800  0.782800  0.702900  1.0
  B  B56  1  0.109200  0.282800  0.297100  1.0
  B  B57  1  0.941500  0.717400  0.021500  1.0
  B  B58  1  0.558500  0.217400  0.978500  1.0
  B  B59  1  0.058500  0.282600  0.978500  1.0
  B  B60  1  0.441500  0.782600  0.021500  1.0
  B  B61  1  0.788600  0.456000  0.090000  0.2
  B  B62  1  0.711400  0.956000  0.910000  0.2
  B  B63  1  0.211400  0.544000  0.910000  0.2
  B  B64  1  0.288600  0.044000  0.090000  0.2
  B  B65  1  0.542600  0.539700  0.099600  0.2
  B  B66  1  0.957400  0.039700  0.900400  0.2
  B  B67  1  0.457400  0.460300  0.900400  0.2
  B  B68  1  0.042600  0.960300  0.099600  0.2
  B  B69  1  0.602900  0.446300  0.041700  0.2
  B  B70  1  0.897100  0.946300  0.958300  0.2
  B  B71  1  0.397100  0.553700  0.958300  0.2
  B  B72  1  0.102900  0.053700  0.041700  0.2
  B  B73  1  0.979700  0.527600  0.409500  0.25
  B  B74  1  0.520300  0.027600  0.590500  0.25
  B  B75  1  0.020300  0.472400  0.590500  0.25
  B  B76  1  0.479700  0.972400  0.409500  0.25
  B  B77  1  0.029300  0.547900  0.471000  0.25
  B  B78  1  0.470700  0.047900  0.529000  0.25
  B  B79  1  0.970700  0.452100  0.529000  0.25
  B  B80  1  0.529300  0.952100  0.471000  0.25
  B  B81  1  0.713400  0.637700  0.090300  0.25
  B  B82  1  0.786600  0.137700  0.909700  0.25
  B  B83  1  0.286600  0.362300  0.909700  0.25
  B  B84  1  0.213400  0.862300  0.090300  0.25
  B  B85  1  0.602400  0.372600  0.075200  0.3
  B  B86  1  0.897600  0.872600  0.924800  0.3
  B  B87  1  0.397600  0.627400  0.924800  0.3
  B  B88  1  0.102400  0.127400  0.075200  0.3
  B  B89  1  0.778500  0.458700  0.068300  0.4
  B  B90  1  0.721500  0.958700  0.931700  0.4
  B  B91  1  0.221500  0.541300  0.931700  0.4
  B  B92  1  0.278500  0.041300  0.068300  0.4
  B  B93  1  0.974800  0.533900  0.395300  0.5
  B  B94  1  0.525200  0.033900  0.604700  0.5
  B  B95  1  0.025200  0.466100  0.604700  0.5
  B  B96  1  0.474800  0.966100  0.395300  0.5
  B  B97  1  0.833600  0.190600  0.214000  0.5
  B  B98  1  0.666400  0.690600  0.786000  0.5
  B  B99  1  0.166400  0.809400  0.786000  0.5
  B  B100  1  0.333600  0.309400  0.214000  0.5
  B  B101  1  0.472100  0.667700  0.299800  0.5
  B  B102  1  0.027900  0.167700  0.700200  0.5
  B  B103  1  0.527900  0.332300  0.700200  0.5
  B  B104  1  0.972100  0.832300  0.299800  0.5
  B  B105  1  0.335200  0.303300  0.044200  0.6
  B  B106  1  0.164800  0.803300  0.955800  0.6
  B  B107  1  0.664800  0.696700  0.955800  0.6
  B  B108  1  0.835200  0.196700  0.044200  0.6
  H  H109  1  0.093997  0.399134  0.418697  1.0
  H  H110  1  0.406003  0.899134  0.581303  1.0
  H  H111  1  0.906003  0.600866  0.581303  1.0
  H  H112  1  0.593997  0.100866  0.418697  1.0
  H  H113  1  0.157721  0.413932  0.422113  1.0
  H  H114  1  0.342279  0.913932  0.577887  1.0
  H  H115  1  0.842279  0.586068  0.577887  1.0
  H  H116  1  0.657721  0.086068  0.422113  1.0
  H  H117  1  0.143550  0.360201  0.339211  1.0
  H  H118  1  0.356450  0.860201  0.660789  1.0
  H  H119  1  0.856450  0.639799  0.660789  1.0
  H  H120  1  0.643550  0.139799  0.339211  1.0
  H  H121  1  0.082031  0.338679  0.339652  1.0
  H  H122  1  0.417969  0.838679  0.660348  1.0
  H  H123  1  0.917969  0.661321  0.660348  1.0
  H  H124  1  0.582031  0.161321  0.339652  1.0
  H  H125  1  0.064992  0.309010  0.392000  1.0
  H  H126  1  0.435008  0.809010  0.608000  1.0
  H  H127  1  0.935008  0.690990  0.608000  1.0
  H  H128  1  0.564992  0.190990  0.392000  1.0
  H  H129  1  0.019017  0.261372  0.403056  1.0
  H  H130  1  0.480983  0.761372  0.596944  1.0
  H  H131  1  0.980983  0.738628  0.596944  1.0
  H  H132  1  0.519017  0.238628  0.403056  1.0
  H  H133  1  0.956285  0.246863  0.400801  1.0
  H  H134  1  0.543715  0.746863  0.599199  1.0
  H  H135  1  0.043715  0.753137  0.599199  1.0
  H  H136  1  0.456285  0.253137  0.400801  1.0
  H  H137  1  0.923213  0.346356  0.373056  1.0
  H  H138  1  0.576787  0.846356  0.626944  1.0
  H  H139  1  0.076787  0.653644  0.626944  1.0
  H  H140  1  0.423213  0.153644  0.373056  1.0
  H  H141  1  0.773493  0.317284  0.401806  1.0
  H  H142  1  0.726507  0.817284  0.598194  1.0
  H  H143  1  0.226507  0.682716  0.598194  1.0
  H  H144  1  0.273493  0.182716  0.401806  1.0
  H  H145  1  0.757589  0.255921  0.322053  1.0
  H  H146  1  0.742411  0.755921  0.677947  1.0
  H  H147  1  0.242411  0.744079  0.677947  1.0
  H  H148  1  0.257589  0.244079  0.322053  1.0
  H  H149  1  0.689209  0.262953  0.307772  1.0
  H  H150  1  0.810791  0.762953  0.692228  1.0
  H  H151  1  0.310791  0.737047  0.692228  1.0
  H  H152  1  0.189209  0.237047  0.307772  1.0
  H  H153  1  0.632352  0.288696  0.323491  1.0
  H  H154  1  0.867648  0.788696  0.676509  1.0
  H  H155  1  0.367648  0.711304  0.676509  1.0
  H  H156  1  0.132352  0.211304  0.323491  1.0
  H  H157  1  0.593227  0.270038  0.362217  1.0
  H  H158  1  0.906773  0.770038  0.637783  1.0
  H  H159  1  0.406773  0.729962  0.637783  1.0
  H  H160  1  0.093227  0.229962  0.362217  1.0
  H  H161  1  0.527206  0.276959  0.356569  1.0
  H  H162  1  0.972794  0.776959  0.643431  1.0
  H  H163  1  0.472794  0.723041  0.643431  1.0
  H  H164  1  0.027206  0.223041  0.356569  1.0
  H  H165  1  0.535363  0.381416  0.350387  1.0
  H  H166  1  0.964637  0.881416  0.649613  1.0
  H  H167  1  0.464637  0.618584  0.649613  1.0
  H  H168  1  0.035363  0.118584  0.350387  1.0
  H  H169  1  0.601120  0.374794  0.354210  1.0
  H  H170  1  0.898880  0.874794  0.645790  1.0
  H  H171  1  0.398880  0.625206  0.645790  1.0
  H  H172  1  0.101120  0.125206  0.354210  1.0
  H  H173  1  0.935425  0.270093  0.444965  1.0
  H  H174  1  0.564575  0.770093  0.555035  1.0
  H  H175  1  0.064575  0.729907  0.555035  1.0
  H  H176  1  0.435425  0.229907  0.444965  1.0
  H  H177  1  0.901522  0.263527  0.459454  1.0
  H  H178  1  0.598478  0.763527  0.540546  1.0
  H  H179  1  0.098478  0.736473  0.540546  1.0
  H  H180  1  0.401522  0.236473  0.459454  1.0
  H  H181  1  0.926710  0.211567  0.424227  1.0
  H  H182  1  0.573290  0.711567  0.575773  1.0
  H  H183  1  0.073290  0.788433  0.575773  1.0
  H  H184  1  0.426710  0.288433  0.424227  1.0
  H  H185  1  0.943368  0.214546  0.463643  1.0
  H  H186  1  0.556632  0.714546  0.536357  1.0
  H  H187  1  0.056632  0.785454  0.536357  1.0
  H  H188  1  0.443368  0.285454  0.463643  1.0
  H  H189  1  0.880322  0.200300  0.463989  1.0
  H  H190  1  0.619678  0.700300  0.536011  1.0
  H  H191  1  0.119678  0.799700  0.536011  1.0
  H  H192  1  0.380322  0.299700  0.463989  1.0
  H  H193  1  0.900553  0.169297  0.450903  1.0
  H  H194  1  0.599447  0.669297  0.549097  1.0
  H  H195  1  0.099447  0.830703  0.549097  1.0
  H  H196  1  0.400553  0.330703  0.450903  1.0
  H  H197  1  0.858160  0.199080  0.394475  1.0
  H  H198  1  0.641840  0.699080  0.605525  1.0
  H  H199  1  0.141840  0.800920  0.605525  1.0
  H  H200  1  0.358160  0.300920  0.394475  1.0
  H  H201  1  0.844650  0.164895  0.409159  1.0
  H  H202  1  0.655350  0.664895  0.590841  1.0
  H  H203  1  0.155350  0.835105  0.590841  1.0
  H  H204  1  0.344650  0.335105  0.409159  1.0
  H  H205  1  0.806890  0.197588  0.430800  1.0
  H  H206  1  0.693110  0.697588  0.569200  1.0
  H  H207  1  0.193110  0.802412  0.569200  1.0
  H  H208  1  0.306890  0.302412  0.430800  1.0
  H  H209  1  0.795700  0.208665  0.392798  1.0
  H  H210  1  0.704300  0.708665  0.607202  1.0
  H  H211  1  0.204300  0.791335  0.607202  1.0
  H  H212  1  0.295700  0.291335  0.392798  1.0
  H  H213  1  0.799899  0.260081  0.424800  1.0
  H  H214  1  0.700101  0.760081  0.575200  1.0
  H  H215  1  0.200101  0.739919  0.575200  1.0
  H  H216  1  0.299899  0.239919  0.424800  1.0
  H  H217  1  0.843418  0.250111  0.448505  1.0
  H  H218  1  0.656582  0.750111  0.551495  1.0
  H  H219  1  0.156582  0.749889  0.551495  1.0
  H  H220  1  0.343418  0.249889  0.448505  1.0
  H  H221  1  0.744684  0.267529  0.472137  1.0
  H  H222  1  0.755316  0.767529  0.527863  1.0
  H  H223  1  0.255316  0.732471  0.527863  1.0
  H  H224  1  0.244684  0.232471  0.472137  1.0
  H  H225  1  0.766799  0.208831  0.476889  1.0
  H  H226  1  0.733201  0.708831  0.523111  1.0
  H  H227  1  0.233201  0.791169  0.523111  1.0
  H  H228  1  0.266799  0.291169  0.476889  1.0
  H  H229  1  0.686399  0.186672  0.387823  1.0
  H  H230  1  0.813601  0.686672  0.612177  1.0
  H  H231  1  0.313601  0.813328  0.612177  1.0
  H  H232  1  0.186399  0.313328  0.387823  1.0
  H  H233  1  0.663101  0.245517  0.383500  1.0
  H  H234  1  0.836899  0.745517  0.616500  1.0
  H  H235  1  0.336899  0.754483  0.616500  1.0
  H  H236  1  0.163101  0.254483  0.383500  1.0
  H  H237  1  0.655200  0.282550  0.454156  1.0
  H  H238  1  0.844800  0.782550  0.545844  1.0
  H  H239  1  0.344800  0.717450  0.545844  1.0
  H  H240  1  0.155200  0.217450  0.454156  1.0
  H  H241  1  0.606847  0.326734  0.464957  1.0
  H  H242  1  0.893153  0.826734  0.535043  1.0
  H  H243  1  0.393153  0.673266  0.535043  1.0
  H  H244  1  0.106847  0.173266  0.464957  1.0
  H  H245  1  0.579037  0.382693  0.455321  1.0
  H  H246  1  0.920963  0.882693  0.544679  1.0
  H  H247  1  0.420963  0.617307  0.544679  1.0
  H  H248  1  0.079037  0.117307  0.455321  1.0
  H  H249  1  0.650069  0.407315  0.405265  1.0
  H  H250  1  0.849931  0.907315  0.594735  1.0
  H  H251  1  0.349931  0.592685  0.594735  1.0
  H  H252  1  0.150069  0.092685  0.405265  1.0
  H  H253  1  0.615802  0.552655  0.414776  1.0
  H  H254  1  0.884198  0.052655  0.585224  1.0
  H  H255  1  0.384198  0.447345  0.585224  1.0
  H  H256  1  0.115802  0.947345  0.414776  1.0
  H  H257  1  0.518634  0.528681  0.337194  1.0
  H  H258  1  0.981366  0.028681  0.662806  1.0
  H  H259  1  0.481366  0.471319  0.662806  1.0
  H  H260  1  0.018634  0.971319  0.337194  1.0
  H  H261  1  0.521804  0.585017  0.315508  1.0
  H  H262  1  0.978196  0.085017  0.684492  1.0
  H  H263  1  0.478196  0.414983  0.684492  1.0
  H  H264  1  0.021804  0.914983  0.315508  1.0
  H  H265  1  0.558404  0.646883  0.323309  1.0
  H  H266  1  0.941596  0.146883  0.676691  1.0
  H  H267  1  0.441596  0.353117  0.676691  1.0
  H  H268  1  0.058404  0.853117  0.323309  1.0
  H  H269  1  0.554188  0.702412  0.360550  1.0
  H  H270  1  0.945812  0.202412  0.639450  1.0
  H  H271  1  0.445812  0.297588  0.639450  1.0
  H  H272  1  0.054188  0.797588  0.360550  1.0
  H  H273  1  0.560162  0.763766  0.355729  1.0
  H  H274  1  0.939838  0.263766  0.644271  1.0
  H  H275  1  0.439838  0.236234  0.644271  1.0
  H  H276  1  0.060162  0.736234  0.355729  1.0
  H  H277  1  0.664061  0.751614  0.344445  1.0
  H  H278  1  0.835939  0.251614  0.655555  1.0
  H  H279  1  0.335939  0.248386  0.655555  1.0
  H  H280  1  0.164061  0.748386  0.344445  1.0
  H  H281  1  0.659846  0.689892  0.351875  1.0
  H  H282  1  0.840154  0.189892  0.648125  1.0
  H  H283  1  0.340154  0.310108  0.648125  1.0
  H  H284  1  0.159846  0.810108  0.351875  1.0
  H  H285  1  0.610444  0.474316  0.489998  1.0
  H  H286  1  0.889556  0.974316  0.510002  1.0
  H  H287  1  0.389556  0.525684  0.510002  1.0
  H  H288  1  0.110444  0.025684  0.489998  1.0
  H  H289  1  0.617687  0.434153  0.483085  1.0
  H  H290  1  0.882313  0.934153  0.516915  1.0
  H  H291  1  0.382313  0.565847  0.516915  1.0
  H  H292  1  0.117687  0.065847  0.483085  1.0
  H  H293  1  0.550511  0.422174  0.473400  1.0
  H  H294  1  0.949489  0.922174  0.526600  1.0
  H  H295  1  0.449489  0.577826  0.526600  1.0
  H  H296  1  0.050511  0.077826  0.473400  1.0
  H  H297  1  0.574974  0.433400  0.510604  1.0
  H  H298  1  0.925026  0.933400  0.489396  1.0
  H  H299  1  0.425026  0.566600  0.489396  1.0
  H  H300  1  0.074974  0.066600  0.510604  1.0
  H  H301  1  0.546220  0.490230  0.499403  1.0
  H  H302  1  0.953780  0.990230  0.500597  1.0
  H  H303  1  0.453780  0.509770  0.500597  1.0
  H  H304  1  0.046220  0.009770  0.499403  1.0
  H  H305  1  0.515576  0.459564  0.497145  1.0
  H  H306  1  0.984424  0.959564  0.502855  1.0
  H  H307  1  0.484424  0.540436  0.502855  1.0
  H  H308  1  0.015576  0.040436  0.497145  1.0
  H  H309  1  0.507955  0.465102  0.434646  1.0
  H  H310  1  0.992045  0.965102  0.565354  1.0
  H  H311  1  0.492045  0.534898  0.565354  1.0
  H  H312  1  0.007955  0.034898  0.434646  1.0
  H  H313  1  0.479569  0.484201  0.450341  1.0
  H  H314  1  0.020431  0.984201  0.549659  1.0
  H  H315  1  0.520431  0.515799  0.549659  1.0
  H  H316  1  0.979569  0.015799  0.450341  1.0
  H  H317  1  0.512657  0.536157  0.456045  1.0
  H  H318  1  0.987343  0.036157  0.543955  1.0
  H  H319  1  0.487343  0.463843  0.543955  1.0
  H  H320  1  0.012657  0.963843  0.456045  1.0
  H  H321  1  0.503616  0.522956  0.418939  1.0
  H  H322  1  0.996384  0.022956  0.581061  1.0
  H  H323  1  0.496384  0.477044  0.581061  1.0
  H  H324  1  0.003616  0.977044  0.418939  1.0
  H  H325  1  0.579036  0.520044  0.470871  1.0
  H  H326  1  0.920964  0.020044  0.529129  1.0
  H  H327  1  0.420964  0.479956  0.529129  1.0
  H  H328  1  0.079036  0.979956  0.470871  1.0
  H  H329  1  0.567313  0.545857  0.439420  1.0
  H  H330  1  0.932687  0.045857  0.560580  1.0
  H  H331  1  0.432687  0.454143  0.560580  1.0
  H  H332  1  0.067313  0.954143  0.439420  1.0
  H  H333  1  0.539260  0.641384  0.388399  1.0
  H  H334  1  0.960740  0.141384  0.611601  1.0
  H  H335  1  0.460740  0.358616  0.611601  1.0
  H  H336  1  0.039260  0.858616  0.388399  1.0
  H  H337  1  0.485156  0.618103  0.399635  1.0
  H  H338  1  0.014844  0.118103  0.600365  1.0
  H  H339  1  0.514844  0.381897  0.600365  1.0
  H  H340  1  0.985156  0.881897  0.399635  1.0
  H  H341  1  0.552360  0.603146  0.495015  1.0
  H  H342  1  0.947640  0.103146  0.504985  1.0
  H  H343  1  0.447640  0.396854  0.504985  1.0
  H  H344  1  0.052360  0.896854  0.495015  1.0
  H  H345  1  0.607368  0.627615  0.484497  1.0
  H  H346  1  0.892632  0.127615  0.515503  1.0
  H  H347  1  0.392632  0.372385  0.515503  1.0
  H  H348  1  0.107368  0.872385  0.484497  1.0
  H  H349  1  0.614451  0.691696  0.454961  1.0
  H  H350  1  0.885549  0.191696  0.545039  1.0
  H  H351  1  0.385549  0.308304  0.545039  1.0
  H  H352  1  0.114451  0.808304  0.454961  1.0
  H  H353  1  0.667392  0.739376  0.457348  1.0
  H  H354  1  0.832608  0.239376  0.542652  1.0
  H  H355  1  0.332608  0.260624  0.542652  1.0
  H  H356  1  0.167392  0.760624  0.457348  1.0
  H  H357  1  0.720768  0.755501  0.443061  1.0
  H  H358  1  0.779232  0.255501  0.556939  1.0
  H  H359  1  0.279232  0.244499  0.556939  1.0
  H  H360  1  0.220768  0.744499  0.443061  1.0
  H  H361  1  0.715213  0.660002  0.401064  1.0
  H  H362  1  0.784787  0.160002  0.598936  1.0
  H  H363  1  0.284787  0.339998  0.598936  1.0
  H  H364  1  0.215213  0.839998  0.401064  1.0
  H  H365  1  0.874219  0.694634  0.388714  1.0
  H  H366  1  0.625781  0.194634  0.611286  1.0
  H  H367  1  0.125781  0.305366  0.611286  1.0
  H  H368  1  0.374219  0.805366  0.388714  1.0
  H  H369  1  0.797371  0.752650  0.317642  1.0
  H  H370  1  0.702629  0.252650  0.682358  1.0
  H  H371  1  0.202629  0.247350  0.682358  1.0
  H  H372  1  0.297371  0.747350  0.317642  1.0
  H  H373  1  0.837293  0.745243  0.285519  1.0
  H  H374  1  0.662707  0.245243  0.714481  1.0
  H  H375  1  0.162707  0.254757  0.714481  1.0
  H  H376  1  0.337293  0.754757  0.285519  1.0
  H  H377  1  0.904387  0.723881  0.283283  1.0
  H  H378  1  0.595613  0.223881  0.716717  1.0
  H  H379  1  0.095613  0.276119  0.716717  1.0
  H  H380  1  0.404387  0.776119  0.283283  1.0
  H  H381  1  0.971437  0.749817  0.301672  1.0
  H  H382  1  0.528563  0.249817  0.698328  1.0
  H  H383  1  0.028563  0.250183  0.698328  1.0
  H  H384  1  0.471437  0.750183  0.301672  1.0
  H  H385  1  0.022155  0.748921  0.279584  1.0
  H  H386  1  0.477845  0.248921  0.720416  1.0
  H  H387  1  0.977845  0.251079  0.720416  1.0
  H  H388  1  0.522155  0.751079  0.279584  1.0
  H  H389  1  0.024632  0.642520  0.283204  1.0
  H  H390  1  0.475368  0.142520  0.716796  1.0
  H  H391  1  0.975368  0.357480  0.716796  1.0
  H  H392  1  0.524632  0.857480  0.283204  1.0
  H  H393  1  0.976191  0.643558  0.307992  1.0
  H  H394  1  0.523809  0.143558  0.692008  1.0
  H  H395  1  0.023809  0.356442  0.692008  1.0
  H  H396  1  0.476191  0.856442  0.307992  1.0
  H  H397  1  0.785114  0.728398  0.470863  1.0
  H  H398  1  0.714886  0.228398  0.529137  1.0
  H  H399  1  0.214886  0.271602  0.529137  1.0
  H  H400  1  0.285114  0.771602  0.470863  1.0
  H  H401  1  0.828804  0.737592  0.473658  1.0
  H  H402  1  0.671196  0.237592  0.526342  1.0
  H  H403  1  0.171196  0.262408  0.526342  1.0
  H  H404  1  0.328804  0.762408  0.473658  1.0
  H  H405  1  0.792836  0.783896  0.490088  1.0
  H  H406  1  0.707164  0.283896  0.509912  1.0
  H  H407  1  0.207164  0.216104  0.509912  1.0
  H  H408  1  0.292836  0.716104  0.490088  1.0
  H  H409  1  0.768058  0.788784  0.451552  1.0
  H  H410  1  0.731942  0.288784  0.548448  1.0
  H  H411  1  0.231942  0.211216  0.548448  1.0
  H  H412  1  0.268058  0.711216  0.451552  1.0
  H  H413  1  0.850970  0.798321  0.476917  1.0
  H  H414  1  0.649030  0.298321  0.523083  1.0
  H  H415  1  0.149030  0.201679  0.523083  1.0
  H  H416  1  0.350970  0.701679  0.476917  1.0
  H  H417  1  0.821751  0.830287  0.474998  1.0
  H  H418  1  0.678249  0.330287  0.525002  1.0
  H  H419  1  0.178249  0.169713  0.525002  1.0
  H  H420  1  0.321751  0.669713  0.474998  1.0
  H  H421  1  0.794564  0.806453  0.413264  1.0
  H  H422  1  0.705436  0.306453  0.586736  1.0
  H  H423  1  0.205436  0.193547  0.586736  1.0
  H  H424  1  0.294564  0.693547  0.413264  1.0
  H  H425  1  0.822083  0.840269  0.424755  1.0
  H  H426  1  0.677917  0.340269  0.575245  1.0
  H  H427  1  0.177917  0.159731  0.575245  1.0
  H  H428  1  0.322083  0.659731  0.424755  1.0
  H  H429  1  0.876654  0.808388  0.429844  1.0
  H  H430  1  0.623346  0.308388  0.570156  1.0
  H  H431  1  0.123346  0.191612  0.570156  1.0
  H  H432  1  0.376654  0.691612  0.429844  1.0
  H  H433  1  0.844862  0.800399  0.394066  1.0
  H  H434  1  0.655138  0.300399  0.605934  1.0
  H  H435  1  0.155138  0.199601  0.605934  1.0
  H  H436  1  0.344862  0.699601  0.394066  1.0
  H  H437  1  0.875960  0.746990  0.417541  1.0
  H  H438  1  0.624040  0.246990  0.582459  1.0
  H  H439  1  0.124040  0.253010  0.582459  1.0
  H  H440  1  0.375960  0.753010  0.417541  1.0
  H  H441  1  0.864758  0.752870  0.449870  1.0
  H  H442  1  0.635242  0.252870  0.550130  1.0
  H  H443  1  0.135242  0.247130  0.550130  1.0
  H  H444  1  0.364758  0.747130  0.449870  1.0
  H  H445  1  0.928802  0.767892  0.347411  1.0
  H  H446  1  0.571198  0.267892  0.652589  1.0
  H  H447  1  0.071198  0.232108  0.652589  1.0
  H  H448  1  0.428802  0.732108  0.347411  1.0
  H  H449  1  0.909376  0.823732  0.361398  1.0
  H  H450  1  0.590624  0.323732  0.638602  1.0
  H  H451  1  0.090624  0.176268  0.638602  1.0
  H  H452  1  0.409376  0.676268  0.361398  1.0
  H  H453  1  0.973633  0.806671  0.456998  1.0
  H  H454  1  0.526367  0.306671  0.543002  1.0
  H  H455  1  0.026367  0.193329  0.543002  1.0
  H  H456  1  0.473633  0.693329  0.456998  1.0
  H  H457  1  0.989720  0.749165  0.443338  1.0
  H  H458  1  0.510280  0.249165  0.556662  1.0
  H  H459  1  0.010280  0.250835  0.556662  1.0
  H  H460  1  0.489720  0.750835  0.443338  1.0
  H  H461  1  0.028028  0.734418  0.404793  1.0
  H  H462  1  0.471972  0.234418  0.595207  1.0
  H  H463  1  0.971972  0.265582  0.595207  1.0
  H  H464  1  0.528028  0.765582  0.404793  1.0
  H  H465  1  0.082761  0.690258  0.405577  1.0
  H  H466  1  0.417239  0.190258  0.594423  1.0
  H  H467  1  0.917239  0.309742  0.594423  1.0
  H  H468  1  0.582761  0.809742  0.405577  1.0
  H  H469  1  0.098484  0.633878  0.392556  1.0
  H  H470  1  0.401516  0.133878  0.607444  1.0
  H  H471  1  0.901516  0.366122  0.607444  1.0
  H  H472  1  0.598484  0.866122  0.392556  1.0
  H  H473  1  0.984058  0.609215  0.361474  1.0
  H  H474  1  0.515942  0.109215  0.638526  1.0
  H  H475  1  0.015942  0.390785  0.638526  1.0
  H  H476  1  0.484058  0.890785  0.361474  1.0
  H  H477  1  0.027182  0.456746  0.373075  1.0
  H  H478  1  0.472818  0.956746  0.626925  1.0
  H  H479  1  0.972818  0.543254  0.626925  1.0
  H  H480  1  0.527182  0.043254  0.373075  1.0
  H  H481  1  0.041060  0.484996  0.288424  1.0
  H  H482  1  0.458940  0.984996  0.711576  1.0
  H  H483  1  0.958940  0.515004  0.711576  1.0
  H  H484  1  0.541060  0.015004  0.288424  1.0
  H  H485  1  0.024095  0.428028  0.268202  1.0
  H  H486  1  0.475905  0.928028  0.731798  1.0
  H  H487  1  0.975905  0.571972  0.731798  1.0
  H  H488  1  0.524095  0.071972  0.268202  1.0
  H  H489  1  0.997165  0.366361  0.277283  1.0
  H  H490  1  0.502835  0.866361  0.722717  1.0
  H  H491  1  0.002835  0.633639  0.722717  1.0
  H  H492  1  0.497165  0.133639  0.277283  1.0
  H  H493  1  0.030391  0.310096  0.302243  1.0
  H  H494  1  0.469609  0.810096  0.697757  1.0
  H  H495  1  0.969609  0.689904  0.697757  1.0
  H  H496  1  0.530391  0.189904  0.302243  1.0
  H  H497  1  0.016706  0.250189  0.288901  1.0
  H  H498  1  0.483294  0.750189  0.711099  1.0
  H  H499  1  0.983294  0.749811  0.711099  1.0
  H  H500  1  0.516706  0.249811  0.288901  1.0
  H  H501  1  0.912957  0.258928  0.301456  1.0
  H  H502  1  0.587043  0.758928  0.698544  1.0
  H  H503  1  0.087043  0.741072  0.698544  1.0
  H  H504  1  0.412957  0.241072  0.301456  1.0
  H  H505  1  0.925995  0.319317  0.314514  1.0
  H  H506  1  0.574005  0.819317  0.685486  1.0
  H  H507  1  0.074005  0.680683  0.685486  1.0
  H  H508  1  0.425995  0.180683  0.314514  1.0
  H  H509  1  0.095171  0.585331  0.430643  1.0
  H  H510  1  0.404829  0.085331  0.569357  1.0
  H  H511  1  0.904829  0.414669  0.569357  1.0
  H  H512  1  0.595171  0.914669  0.430643  1.0
  H  H513  1  0.110268  0.545667  0.437096  1.0
  H  H514  1  0.389732  0.045667  0.562904  1.0
  H  H515  1  0.889732  0.454333  0.562904  1.0
  H  H516  1  0.610268  0.954333  0.437096  1.0
  H  H517  1  0.160247  0.589926  0.443129  1.0
  H  H518  1  0.339753  0.089926  0.556871  1.0
  H  H519  1  0.839753  0.410074  0.556871  1.0
  H  H520  1  0.660247  0.910074  0.443129  1.0
  H  H521  1  0.142699  0.594546  0.403781  1.0
  H  H522  1  0.357301  0.094546  0.596219  1.0
  H  H523  1  0.857301  0.405454  0.596219  1.0
  H  H524  1  0.642699  0.905454  0.403781  1.0
  H  H525  1  0.175313  0.529329  0.434926  1.0
  H  H526  1  0.324687  0.029329  0.565074  1.0
  H  H527  1  0.824687  0.470671  0.565074  1.0
  H  H528  1  0.675313  0.970671  0.434926  1.0
  H  H529  1  0.200053  0.557439  0.422898  1.0
  H  H530  1  0.299947  0.057439  0.577102  1.0
  H  H531  1  0.799947  0.442561  0.577102  1.0
  H  H532  1  0.700053  0.942561  0.422898  1.0
  H  H533  1  0.139115  0.546878  0.367763  1.0
  H  H534  1  0.360885  0.046878  0.632237  1.0
  H  H535  1  0.860885  0.453122  0.632237  1.0
  H  H536  1  0.639115  0.953122  0.367763  1.0
  H  H537  1  0.181034  0.529236  0.375231  1.0
  H  H538  1  0.318966  0.029236  0.624769  1.0
  H  H539  1  0.818966  0.470764  0.624769  1.0
  H  H540  1  0.681034  0.970764  0.375231  1.0
  H  H541  1  0.160831  0.477739  0.393977  1.0
  H  H542  1  0.339169  0.977739  0.606023  1.0
  H  H543  1  0.839169  0.522261  0.606023  1.0
  H  H544  1  0.660831  0.022261  0.393977  1.0
  H  H545  1  0.130700  0.486657  0.357631  1.0
  H  H546  1  0.369300  0.986657  0.642369  1.0
  H  H547  1  0.869300  0.513343  0.642369  1.0
  H  H548  1  0.630700  0.013343  0.357631  1.0
  H  H549  1  0.094405  0.470076  0.390875  1.0
  H  H550  1  0.405595  0.970076  0.609125  1.0
  H  H551  1  0.905595  0.529924  0.609125  1.0
  H  H552  1  0.594405  0.029924  0.390875  1.0
  H  H553  1  0.116551  0.498671  0.418427  1.0
  H  H554  1  0.383449  0.998671  0.581573  1.0
  H  H555  1  0.883449  0.501329  0.581573  1.0
  H  H556  1  0.616551  0.001329  0.418427  1.0
  H  H557  1  0.866535  0.604930  0.990626  1.0
  H  H558  1  0.633465  0.104930  0.009374  1.0
  H  H559  1  0.133465  0.395070  0.009374  1.0
  H  H560  1  0.366535  0.895070  0.990626  1.0
  H  H561  1  0.904989  0.575021  0.964174  1.0
  H  H562  1  0.595011  0.075021  0.035826  1.0
  H  H563  1  0.095011  0.424979  0.035826  1.0
  H  H564  1  0.404989  0.924979  0.964174  1.0
  H  H565  1  0.981999  0.546127  0.053530  1.0
  H  H566  1  0.518001  0.046127  0.946470  1.0
  H  H567  1  0.018001  0.453873  0.946470  1.0
  H  H568  1  0.481999  0.953873  0.053530  1.0
  H  H569  1  0.948259  0.583112  0.080087  1.0
  H  H570  1  0.551741  0.083112  0.919913  1.0
  H  H571  1  0.051741  0.416888  0.919913  1.0
  H  H572  1  0.448259  0.916888  0.080087  1.0
  H  H573  1  0.891262  0.661333  0.030967  1.0
  H  H574  1  0.608738  0.161333  0.969033  1.0
  H  H575  1  0.108738  0.338667  0.969033  1.0
  H  H576  1  0.391262  0.838667  0.030967  1.0
  H  H577  1  0.854954  0.718596  0.035477  1.0
  H  H578  1  0.645046  0.218596  0.964523  1.0
  H  H579  1  0.145046  0.281404  0.964523  1.0
  H  H580  1  0.354954  0.781404  0.035477  1.0
  H  H581  1  0.808502  0.745704  0.053598  1.0
  H  H582  1  0.691498  0.245704  0.946402  1.0
  H  H583  1  0.191498  0.254296  0.946402  1.0
  H  H584  1  0.308502  0.754296  0.053598  1.0
  H  H585  1  0.797126  0.653793  0.095925  1.0
  H  H586  1  0.702874  0.153793  0.904075  1.0
  H  H587  1  0.202874  0.346207  0.904075  1.0
  H  H588  1  0.297126  0.846207  0.095925  1.0
  H  H589  1  0.656191  0.712863  0.108973  1.0
  H  H590  1  0.843809  0.212863  0.891027  1.0
  H  H591  1  0.343809  0.287137  0.891027  1.0
  H  H592  1  0.156191  0.787137  0.108973  1.0
  H  H593  1  0.738386  0.757767  0.187851  1.0
  H  H594  1  0.761614  0.257767  0.812149  1.0
  H  H595  1  0.261614  0.242233  0.812149  1.0
  H  H596  1  0.238386  0.742233  0.187851  1.0
  H  H597  1  0.691986  0.760016  0.214683  1.0
  H  H598  1  0.808014  0.260016  0.785317  1.0
  H  H599  1  0.308014  0.239984  0.785317  1.0
  H  H600  1  0.191986  0.739984  0.214683  1.0
  H  H601  1  0.620666  0.746458  0.210040  1.0
  H  H602  1  0.879334  0.246458  0.789960  1.0
  H  H603  1  0.379334  0.253542  0.789960  1.0
  H  H604  1  0.120666  0.753542  0.210040  1.0
  H  H605  1  0.542781  0.672320  0.181637  1.0
  H  H606  1  0.957219  0.172320  0.818363  1.0
  H  H607  1  0.457219  0.327680  0.818363  1.0
  H  H608  1  0.042781  0.827680  0.181637  1.0
  H  H609  1  0.490310  0.676466  0.200796  1.0
  H  H610  1  0.009690  0.176466  0.799204  1.0
  H  H611  1  0.509690  0.323534  0.799204  1.0
  H  H612  1  0.990310  0.823534  0.200796  1.0
  H  H613  1  0.501259  0.782233  0.201896  1.0
  H  H614  1  0.998741  0.282233  0.798104  1.0
  H  H615  1  0.498741  0.217767  0.798104  1.0
  H  H616  1  0.001259  0.717767  0.201896  1.0
  H  H617  1  0.555914  0.777873  0.185154  1.0
  H  H618  1  0.944086  0.277873  0.814846  1.0
  H  H619  1  0.444086  0.222127  0.814846  1.0
  H  H620  1  0.055914  0.722127  0.185154  1.0
  H  H621  1  0.737948  0.726396  0.027118  1.0
  H  H622  1  0.762052  0.226396  0.972882  1.0
  H  H623  1  0.262052  0.273604  0.972882  1.0
  H  H624  1  0.237948  0.773604  0.027118  1.0
  H  H625  1  0.698089  0.744051  0.026734  1.0
  H  H626  1  0.801911  0.244051  0.973266  1.0
  H  H627  1  0.301911  0.255949  0.973266  1.0
  H  H628  1  0.198089  0.755949  0.026734  1.0
  H  H629  1  0.741164  0.780712  0.007927  1.0
  H  H630  1  0.758836  0.280712  0.992073  1.0
  H  H631  1  0.258836  0.219288  0.992073  1.0
  H  H632  1  0.241164  0.719288  0.007927  1.0
  H  H633  1  0.768847  0.783349  0.046017  1.0
  H  H634  1  0.731153  0.283349  0.953983  1.0
  H  H635  1  0.231153  0.216651  0.953983  1.0
  H  H636  1  0.268847  0.716651  0.046017  1.0
  H  H637  1  0.689024  0.806838  0.024670  1.0
  H  H638  1  0.810976  0.306838  0.975330  1.0
  H  H639  1  0.310976  0.193162  0.975330  1.0
  H  H640  1  0.189024  0.693162  0.024670  1.0
  H  H641  1  0.723465  0.833019  0.024899  1.0
  H  H642  1  0.776535  0.333019  0.975101  1.0
  H  H643  1  0.276535  0.166981  0.975101  1.0
  H  H644  1  0.223465  0.666981  0.024899  1.0
  H  H645  1  0.749693  0.806631  0.086713  1.0
  H  H646  1  0.750307  0.306631  0.913287  1.0
  H  H647  1  0.250307  0.193369  0.913287  1.0
  H  H648  1  0.249693  0.693369  0.086713  1.0
  H  H649  1  0.731824  0.845296  0.077368  1.0
  H  H650  1  0.768176  0.345296  0.922632  1.0
  H  H651  1  0.268176  0.154704  0.922632  1.0
  H  H652  1  0.231824  0.654704  0.077368  1.0
  H  H653  1  0.669739  0.825462  0.072653  1.0
  H  H654  1  0.830261  0.325462  0.927347  1.0
  H  H655  1  0.330261  0.174538  0.927347  1.0
  H  H656  1  0.169739  0.674538  0.072653  1.0
  H  H657  1  0.700066  0.814376  0.108292  1.0
  H  H658  1  0.799934  0.314376  0.891708  1.0
  H  H659  1  0.299934  0.185624  0.891708  1.0
  H  H660  1  0.200066  0.685624  0.108292  1.0
  H  H661  1  0.659378  0.765411  0.086370  1.0
  H  H662  1  0.840622  0.265411  0.913630  1.0
  H  H663  1  0.340622  0.234589  0.913630  1.0
  H  H664  1  0.159378  0.734589  0.086370  1.0
  H  H665  1  0.668145  0.767367  0.052508  1.0
  H  H666  1  0.831855  0.267367  0.947492  1.0
  H  H667  1  0.331855  0.232633  0.947492  1.0
  H  H668  1  0.168145  0.732633  0.052508  1.0
  H  H669  1  0.593913  0.791362  0.149875  1.0
  H  H670  1  0.906087  0.291362  0.850125  1.0
  H  H671  1  0.406087  0.208638  0.850125  1.0
  H  H672  1  0.093913  0.708638  0.149875  1.0
  H  H673  1  0.615538  0.848277  0.141271  1.0
  H  H674  1  0.884462  0.348277  0.858729  1.0
  H  H675  1  0.384462  0.151723  0.858729  1.0
  H  H676  1  0.115538  0.651723  0.141271  1.0
  H  H677  1  0.590183  0.827379  0.044607  1.0
  H  H678  1  0.909817  0.327379  0.955393  1.0
  H  H679  1  0.409817  0.172621  0.955393  1.0
  H  H680  1  0.090183  0.672621  0.044607  1.0
  H  H681  1  0.565262  0.770408  0.052618  1.0
  H  H682  1  0.934738  0.270408  0.947382  1.0
  H  H683  1  0.434738  0.229592  0.947382  1.0
  H  H684  1  0.065262  0.729592  0.052618  1.0
  H  H685  1  0.507999  0.763148  0.085287  1.0
  H  H686  1  0.992001  0.263148  0.914713  1.0
  H  H687  1  0.492001  0.236852  0.914713  1.0
  H  H688  1  0.007999  0.736852  0.085287  1.0
  H  H689  1  0.448823  0.722396  0.077144  1.0
  H  H690  1  0.051177  0.222396  0.922856  1.0
  H  H691  1  0.551177  0.277604  0.922856  1.0
  H  H692  1  0.948823  0.777604  0.077144  1.0
  H  H693  1  0.425857  0.667035  0.083350  1.0
  H  H694  1  0.074143  0.167035  0.916650  1.0
  H  H695  1  0.574143  0.332965  0.916650  1.0
  H  H696  1  0.925857  0.832965  0.083350  1.0
  H  H697  1  0.536479  0.635954  0.128278  1.0
  H  H698  1  0.963521  0.135954  0.871722  1.0
  H  H699  1  0.463521  0.364046  0.871722  1.0
  H  H700  1  0.036479  0.864046  0.128278  1.0
  H  H701  1  0.466768  0.481448  0.115515  1.0
  H  H702  1  0.033232  0.981448  0.884485  1.0
  H  H703  1  0.533232  0.518552  0.884485  1.0
  H  H704  1  0.966768  0.018552  0.115515  1.0
  H  H705  1  0.448260  0.529963  0.191238  1.0
  H  H706  1  0.051740  0.029963  0.808762  1.0
  H  H707  1  0.551740  0.470037  0.808762  1.0
  H  H708  1  0.948260  0.970037  0.191238  1.0
  H  H709  1  0.450458  0.473742  0.216079  1.0
  H  H710  1  0.049542  0.973742  0.783921  1.0
  H  H711  1  0.549542  0.526258  0.783921  1.0
  H  H712  1  0.950458  0.026258  0.216079  1.0
  H  H713  1  0.459823  0.405458  0.213108  1.0
  H  H714  1  0.040177  0.905458  0.786892  1.0
  H  H715  1  0.540177  0.594542  0.786892  1.0
  H  H716  1  0.959823  0.094542  0.213108  1.0
  H  H717  1  0.420227  0.350226  0.188805  1.0
  H  H718  1  0.079773  0.850226  0.811195  1.0
  H  H719  1  0.579773  0.649774  0.811195  1.0
  H  H720  1  0.920227  0.149774  0.188805  1.0
  H  H721  1  0.422627  0.291888  0.206865  1.0
  H  H722  1  0.077373  0.791888  0.793135  1.0
  H  H723  1  0.577373  0.708112  0.793135  1.0
  H  H724  1  0.922627  0.208112  0.206865  1.0
  H  H725  1  0.532893  0.282453  0.207504  1.0
  H  H726  1  0.967107  0.782453  0.792496  1.0
  H  H727  1  0.467107  0.717547  0.792496  1.0
  H  H728  1  0.032893  0.217547  0.207504  1.0
  H  H729  1  0.530527  0.341887  0.189544  1.0
  H  H730  1  0.969473  0.841887  0.810456  1.0
  H  H731  1  0.469473  0.658113  0.810456  1.0
  H  H732  1  0.030527  0.158113  0.189544  1.0
  H  H733  1  0.441324  0.617945  0.049714  1.0
  H  H734  1  0.058676  0.117945  0.950286  1.0
  H  H735  1  0.558676  0.382055  0.950286  1.0
  H  H736  1  0.941324  0.882055  0.049714  1.0
  H  H737  1  0.424447  0.579241  0.039322  1.0
  H  H738  1  0.075553  0.079241  0.960678  1.0
  H  H739  1  0.575553  0.420759  0.960678  1.0
  H  H740  1  0.924447  0.920759  0.039322  1.0
  H  H741  1  0.381907  0.632090  0.059467  1.0
  H  H742  1  0.118093  0.132090  0.940533  1.0
  H  H743  1  0.618093  0.367910  0.940533  1.0
  H  H744  1  0.881907  0.867910  0.059467  1.0
  H  H745  1  0.376267  0.625563  0.021469  1.0
  H  H746  1  0.123733  0.125563  0.978531  1.0
  H  H747  1  0.623733  0.374437  0.978531  1.0
  H  H748  1  0.876267  0.874437  0.021469  1.0
  H  H749  1  0.355012  0.565831  0.028689  1.0
  H  H750  1  0.144988  0.065831  0.971311  1.0
  H  H751  1  0.644988  0.434169  0.971311  1.0
  H  H752  1  0.855012  0.934169  0.028689  1.0
  H  H753  1  0.324986  0.596946  0.027229  1.0
  H  H754  1  0.175014  0.096946  0.972771  1.0
  H  H755  1  0.675014  0.403054  0.972771  1.0
  H  H756  1  0.824986  0.903054  0.027229  1.0
  H  H757  1  0.365408  0.591317  0.092811  1.0
  H  H758  1  0.134592  0.091317  0.907189  1.0
  H  H759  1  0.634592  0.408683  0.907189  1.0
  H  H760  1  0.865408  0.908683  0.092811  1.0
  H  H761  1  0.322205  0.576014  0.074882  1.0
  H  H762  1  0.177795  0.076014  0.925118  1.0
  H  H763  1  0.677795  0.423986  0.925118  1.0
  H  H764  1  0.822205  0.923986  0.074882  1.0
  H  H765  1  0.344998  0.520711  0.071062  1.0
  H  H766  1  0.155002  0.020711  0.928938  1.0
  H  H767  1  0.655002  0.479289  0.928938  1.0
  H  H768  1  0.844998  0.979289  0.071062  1.0
  H  H769  1  0.369220  0.533268  0.108069  1.0
  H  H770  1  0.130780  0.033268  0.891931  1.0
  H  H771  1  0.630780  0.466732  0.891931  1.0
  H  H772  1  0.869220  0.966732  0.108069  1.0
  H  H773  1  0.412082  0.505509  0.084043  1.0
  H  H774  1  0.087918  0.005509  0.915957  1.0
  H  H775  1  0.587918  0.494491  0.915957  1.0
  H  H776  1  0.912082  0.994491  0.084043  1.0
  H  H777  1  0.400513  0.534511  0.055028  1.0
  H  H778  1  0.099487  0.034511  0.944972  1.0
  H  H779  1  0.599487  0.465489  0.944972  1.0
  H  H780  1  0.900513  0.965489  0.055028  1.0
  H  H781  1  0.393196  0.424895  0.149720  1.0
  H  H782  1  0.106804  0.924895  0.850280  1.0
  H  H783  1  0.606804  0.575105  0.850280  1.0
  H  H784  1  0.893196  0.075105  0.149720  1.0
  H  H785  1  0.338675  0.461787  0.135990  1.0
  H  H786  1  0.161325  0.961787  0.864010  1.0
  H  H787  1  0.661325  0.538213  0.864010  1.0
  H  H788  1  0.838675  0.038213  0.135990  1.0
  H  H789  1  0.321334  0.448534  0.040714  1.0
  H  H790  1  0.178666  0.948534  0.959286  1.0
  H  H791  1  0.678666  0.551466  0.959286  1.0
  H  H792  1  0.821334  0.051466  0.040714  1.0
  H  H793  1  0.375519  0.408894  0.054654  1.0
  H  H794  1  0.124481  0.908894  0.945346  1.0
  H  H795  1  0.624481  0.591106  0.945346  1.0
  H  H796  1  0.875519  0.091106  0.054654  1.0
  H  H797  1  0.390703  0.345954  0.095589  1.0
  H  H798  1  0.109297  0.845954  0.904411  1.0
  H  H799  1  0.609297  0.654046  0.904411  1.0
  H  H800  1  0.890703  0.154046  0.095589  1.0
  H  H801  1  0.427029  0.287619  0.090103  1.0
  H  H802  1  0.072971  0.787619  0.909897  1.0
  H  H803  1  0.572971  0.712381  0.909897  1.0
  H  H804  1  0.927029  0.212381  0.090103  1.0
  H  H805  1  0.486216  0.258202  0.101836  1.0
  H  H806  1  0.013784  0.758202  0.898164  1.0
  H  H807  1  0.513784  0.741798  0.898164  1.0
  H  H808  1  0.986216  0.241798  0.101836  1.0
  H  H809  1  0.540117  0.351412  0.130074  1.0
  H  H810  1  0.959883  0.851412  0.869926  1.0
  H  H811  1  0.459883  0.648588  0.869926  1.0
  H  H812  1  0.040117  0.148588  0.130074  1.0
  H  H813  1  0.679489  0.301277  0.106802  1.0
  H  H814  1  0.820511  0.801277  0.893198  1.0
  H  H815  1  0.320511  0.698723  0.893198  1.0
  H  H816  1  0.179489  0.198723  0.106802  1.0
  H  H817  1  0.692121  0.252263  0.193338  1.0
  H  H818  1  0.807879  0.752263  0.806662  1.0
  H  H819  1  0.307879  0.747737  0.806662  1.0
  H  H820  1  0.192121  0.247737  0.193338  1.0
  H  H821  1  0.760035  0.250116  0.203829  1.0
  H  H822  1  0.739965  0.750116  0.796171  1.0
  H  H823  1  0.239965  0.749884  0.796171  1.0
  H  H824  1  0.260035  0.249884  0.203829  1.0
  H  H825  1  0.818619  0.266410  0.183772  1.0
  H  H826  1  0.681381  0.766410  0.816228  1.0
  H  H827  1  0.181381  0.733590  0.816228  1.0
  H  H828  1  0.318619  0.233590  0.183772  1.0
  H  H829  1  0.846112  0.236630  0.141058  1.0
  H  H830  1  0.653888  0.736630  0.858942  1.0
  H  H831  1  0.153888  0.763370  0.858942  1.0
  H  H832  1  0.346112  0.263370  0.141058  1.0
  H  H833  1  0.910216  0.233239  0.139760  1.0
  H  H834  1  0.589784  0.733239  0.860240  1.0
  H  H835  1  0.089784  0.766761  0.860240  1.0
  H  H836  1  0.410216  0.266761  0.139760  1.0
  H  H837  1  0.918963  0.339189  0.141802  1.0
  H  H838  1  0.581037  0.839189  0.858198  1.0
  H  H839  1  0.081037  0.660811  0.858198  1.0
  H  H840  1  0.418963  0.160811  0.141802  1.0
  H  H841  1  0.855588  0.342584  0.144872  1.0
  H  H842  1  0.644412  0.842584  0.855128  1.0
  H  H843  1  0.144412  0.657416  0.855128  1.0
  H  H844  1  0.355588  0.157416  0.144872  1.0
  H  H845  1  0.551939  0.249562  0.053265  1.0
  H  H846  1  0.948061  0.749562  0.946735  1.0
  H  H847  1  0.448061  0.750438  0.946735  1.0
  H  H848  1  0.051939  0.250438  0.053265  1.0
  H  H849  1  0.517819  0.265813  0.063794  1.0
  H  H850  1  0.982181  0.765813  0.936206  1.0
  H  H851  1  0.482181  0.734187  0.936206  1.0
  H  H852  1  0.017819  0.234187  0.063794  1.0
  H  H853  1  0.519441  0.212466  0.094988  1.0
  H  H854  1  0.980559  0.712466  0.905012  1.0
  H  H855  1  0.480559  0.787534  0.905012  1.0
  H  H856  1  0.019441  0.287534  0.094988  1.0
  H  H857  1  0.502640  0.208139  0.055639  1.0
  H  H858  1  0.997360  0.708139  0.944361  1.0
  H  H859  1  0.497360  0.791861  0.944361  1.0
  H  H860  1  0.002640  0.291861  0.055639  1.0
  H  H861  1  0.565159  0.184457  0.059126  1.0
  H  H862  1  0.934841  0.684457  0.940874  1.0
  H  H863  1  0.434841  0.815543  0.940874  1.0
  H  H864  1  0.065159  0.315543  0.059126  1.0
  H  H865  1  0.541042  0.160132  0.075359  1.0
  H  H866  1  0.958958  0.660132  0.924641  1.0
  H  H867  1  0.458958  0.839868  0.924641  1.0
  H  H868  1  0.041042  0.339868  0.075359  1.0
  H  H869  1  0.584213  0.197587  0.127161  1.0
  H  H870  1  0.915787  0.697587  0.872839  1.0
  H  H871  1  0.415787  0.802413  0.872839  1.0
  H  H872  1  0.084213  0.302413  0.127161  1.0
  H  H873  1  0.594503  0.158277  0.119936  1.0
  H  H874  1  0.905497  0.658277  0.880064  1.0
  H  H875  1  0.405497  0.841723  0.880064  1.0
  H  H876  1  0.094503  0.341723  0.119936  1.0
  H  H877  1  0.637710  0.178206  0.095237  1.0
  H  H878  1  0.862290  0.678206  0.904763  1.0
  H  H879  1  0.362290  0.821794  0.904763  1.0
  H  H880  1  0.137710  0.321794  0.095237  1.0
  H  H881  1  0.649154  0.196236  0.130916  1.0
  H  H882  1  0.850846  0.696236  0.869084  1.0
  H  H883  1  0.350846  0.803764  0.869084  1.0
  H  H884  1  0.149154  0.303764  0.130916  1.0
  H  H885  1  0.652642  0.239501  0.092914  1.0
  H  H886  1  0.847358  0.739501  0.907086  1.0
  H  H887  1  0.347358  0.760499  0.907086  1.0
  H  H888  1  0.152642  0.260499  0.092914  1.0
  H  H889  1  0.608811  0.231045  0.068726  1.0
  H  H890  1  0.891189  0.731045  0.931274  1.0
  H  H891  1  0.391189  0.768955  0.931274  1.0
  H  H892  1  0.108811  0.268955  0.068726  1.0
  H  H893  1  0.705800  0.241312  0.030016  1.0
  H  H894  1  0.794200  0.741312  0.969984  1.0
  H  H895  1  0.294200  0.758688  0.969984  1.0
  H  H896  1  0.205800  0.258688  0.030016  1.0
  H  H897  1  0.668851  0.189844  0.026812  1.0
  H  H898  1  0.831149  0.689844  0.973188  1.0
  H  H899  1  0.331149  0.810156  0.973188  1.0
  H  H900  1  0.168851  0.310156  0.026812  1.0
  H  H901  1  0.729903  0.167376  0.121759  1.0
  H  H902  1  0.770097  0.667376  0.878241  1.0
  H  H903  1  0.270097  0.832624  0.878241  1.0
  H  H904  1  0.229903  0.332624  0.121759  1.0
  H  H905  1  0.765371  0.221244  0.126452  1.0
  H  H906  1  0.734629  0.721244  0.873548  1.0
  H  H907  1  0.234629  0.778756  0.873548  1.0
  H  H908  1  0.265371  0.278756  0.126452  1.0
  H  H909  1  0.786301  0.248361  0.051978  1.0
  H  H910  1  0.713699  0.748361  0.948022  1.0
  H  H911  1  0.213699  0.751639  0.948022  1.0
  H  H912  1  0.286301  0.251639  0.051978  1.0
  H  H913  1  0.838659  0.284990  0.038034  1.0
  H  H914  1  0.661341  0.784990  0.961966  1.0
  H  H915  1  0.161341  0.715010  0.961966  1.0
  H  H916  1  0.338659  0.215010  0.038034  1.0
  H  H917  1  0.866455  0.340089  0.038747  1.0
  H  H918  1  0.633545  0.840089  0.961253  1.0
  H  H919  1  0.133545  0.659911  0.961253  1.0
  H  H920  1  0.366455  0.159911  0.038747  1.0
  H  H921  1  0.806128  0.375802  0.093779  1.0
  H  H922  1  0.693872  0.875802  0.906221  1.0
  H  H923  1  0.193872  0.624198  0.906221  1.0
  H  H924  1  0.306128  0.124198  0.093779  1.0
  H  H925  1  0.855091  0.525417  0.069378  1.0
  H  H926  1  0.644909  0.025417  0.930622  1.0
  H  H927  1  0.144909  0.474583  0.930622  1.0
  H  H928  1  0.355091  0.974583  0.069378  1.0
  H  H929  1  0.951256  0.483693  0.136979  1.0
  H  H930  1  0.548744  0.983693  0.863021  1.0
  H  H931  1  0.048744  0.516307  0.863021  1.0
  H  H932  1  0.451256  0.016307  0.136979  1.0
  H  H933  1  0.971473  0.542285  0.156319  1.0
  H  H934  1  0.528527  0.042285  0.843681  1.0
  H  H935  1  0.028527  0.457715  0.843681  1.0
  H  H936  1  0.471473  0.957715  0.156319  1.0
  H  H937  1  0.951658  0.608540  0.152685  1.0
  H  H938  1  0.548342  0.108540  0.847315  1.0
  H  H939  1  0.048342  0.391460  0.847315  1.0
  H  H940  1  0.451658  0.891460  0.152685  1.0
  H  H941  1  0.955249  0.662640  0.110189  1.0
  H  H942  1  0.544751  0.162640  0.889811  1.0
  H  H943  1  0.044751  0.337360  0.889811  1.0
  H  H944  1  0.455249  0.837360  0.110189  1.0
  H  H945  1  0.967403  0.723241  0.122161  1.0
  H  H946  1  0.532597  0.223241  0.877839  1.0
  H  H947  1  0.032597  0.276759  0.877839  1.0
  H  H948  1  0.467403  0.776759  0.122161  1.0
  H  H949  1  0.875439  0.729659  0.152273  1.0
  H  H950  1  0.624561  0.229659  0.847727  1.0
  H  H951  1  0.124561  0.270341  0.847727  1.0
  H  H952  1  0.375439  0.770341  0.152273  1.0
  H  H953  1  0.867871  0.667166  0.146436  1.0
  H  H954  1  0.632129  0.167166  0.853564  1.0
  H  H955  1  0.132129  0.332834  0.853564  1.0
  H  H956  1  0.367871  0.832834  0.146436  1.0
  H  H957  1  0.819240  0.393164  0.006002  1.0
  H  H958  1  0.680760  0.893164  0.993998  1.0
  H  H959  1  0.180760  0.606836  0.993998  1.0
  H  H960  1  0.319240  0.106836  0.006002  1.0
  H  H961  1  0.826565  0.431769  0.994704  1.0
  H  H962  1  0.673435  0.931769  0.005296  1.0
  H  H963  1  0.173435  0.568231  0.005296  1.0
  H  H964  1  0.326565  0.068231  0.994704  1.0
  H  H965  1  0.850852  0.385327  0.969738  1.0
  H  H966  1  0.649148  0.885327  0.030262  1.0
  H  H967  1  0.149148  0.614673  0.030262  1.0
  H  H968  1  0.350852  0.114673  0.969738  1.0
  H  H969  1  0.881748  0.375987  0.005412  1.0
  H  H970  1  0.618252  0.875987  0.994588  1.0
  H  H971  1  0.118252  0.624013  0.994588  1.0
  H  H972  1  0.381748  0.124013  0.005412  1.0
  H  H973  1  0.883019  0.440120  0.971481  1.0
  H  H974  1  0.616981  0.940120  0.028519  1.0
  H  H975  1  0.116981  0.559880  0.028519  1.0
  H  H976  1  0.383019  0.059880  0.971481  1.0
  H  H977  1  0.909899  0.406936  0.971650  1.0
  H  H978  1  0.590101  0.906936  0.028350  1.0
  H  H979  1  0.090101  0.593064  0.028350  1.0
  H  H980  1  0.409899  0.093064  0.971650  1.0
  H  H981  1  0.930934  0.419512  0.036083  1.0
  H  H982  1  0.569066  0.919512  0.963917  1.0
  H  H983  1  0.069066  0.580488  0.963917  1.0
  H  H984  1  0.430934  0.080488  0.036083  1.0
  H  H985  1  0.955343  0.432941  0.014025  1.0
  H  H986  1  0.544657  0.932941  0.985975  1.0
  H  H987  1  0.044657  0.567059  0.985975  1.0
  H  H988  1  0.455343  0.067059  0.014025  1.0
  H  H989  1  0.924845  0.487437  0.006502  1.0
  H  H990  1  0.575155  0.987437  0.993498  1.0
  H  H991  1  0.075155  0.512563  0.993498  1.0
  H  H992  1  0.424845  0.012563  0.006502  1.0
  H  H993  1  0.943407  0.479410  0.045292  1.0
  H  H994  1  0.556593  0.979410  0.954708  1.0
  H  H995  1  0.056593  0.520590  0.954708  1.0
  H  H996  1  0.443407  0.020590  0.045292  1.0
  H  H997  1  0.861458  0.477671  0.006073  1.0
  H  H998  1  0.638542  0.977671  0.993927  1.0
  H  H999  1  0.138542  0.522329  0.993927  1.0
  H  H1000  1  0.361458  0.022329  0.006073  1.0
  H  H1001  1  0.882407  0.504613  0.035713  1.0
  H  H1002  1  0.617593  0.004613  0.964287  1.0
  H  H1003  1  0.117593  0.495387  0.964287  1.0
  H  H1004  1  0.382407  0.995387  0.035713  1.0
  H  H1005  1  0.652958  0.543032  0.467923  1.0
  H  H1006  1  0.847042  0.043032  0.532077  1.0
  H  H1007  1  0.347042  0.456968  0.532077  1.0
  H  H1008  1  0.152958  0.956968  0.467923  1.0
  H  H1009  1  0.654979  0.538580  0.523042  1.0
  H  H1010  1  0.845021  0.038580  0.476958  1.0
  H  H1011  1  0.345021  0.461420  0.476958  1.0
  H  H1012  1  0.154979  0.961420  0.523042  1.0
  H  H1013  1  0.691885  0.638372  0.539378  1.0
  H  H1014  1  0.808115  0.138372  0.460622  1.0
  H  H1015  1  0.308115  0.361628  0.460622  1.0
  H  H1016  1  0.191885  0.861628  0.539378  1.0
  H  H1017  1  0.693402  0.641958  0.485032  1.0
  H  H1018  1  0.806598  0.141958  0.514968  1.0
  H  H1019  1  0.306598  0.358042  0.514968  1.0
  H  H1020  1  0.193402  0.858042  0.485032  1.0
  H  H1021  1  0.709648  0.557681  0.443434  1.0
  H  H1022  1  0.790352  0.057681  0.556566  1.0
  H  H1023  1  0.290352  0.442319  0.556566  1.0
  H  H1024  1  0.209648  0.942319  0.443434  1.0
  H  H1025  1  0.726959  0.536472  0.393487  1.0
  H  H1026  1  0.773041  0.036472  0.606513  1.0
  H  H1027  1  0.273041  0.463528  0.606513  1.0
  H  H1028  1  0.226959  0.963528  0.393487  1.0
  H  H1029  1  0.721262  0.544920  0.338161  1.0
  H  H1030  1  0.778738  0.044920  0.661839  1.0
  H  H1031  1  0.278738  0.455080  0.661839  1.0
  H  H1032  1  0.221262  0.955080  0.338161  1.0
  H  H1033  1  0.651322  0.628091  0.334311  1.0
  H  H1034  1  0.848678  0.128091  0.665689  1.0
  H  H1035  1  0.348678  0.371909  0.665689  1.0
  H  H1036  1  0.151322  0.871909  0.334311  1.0
  H  H1037  1  0.617280  0.661019  0.197530  1.0
  H  H1038  1  0.882720  0.161019  0.802470  1.0
  H  H1039  1  0.382720  0.338981  0.802470  1.0
  H  H1040  1  0.117280  0.838981  0.197530  1.0
  H  H1041  1  0.669432  0.573751  0.179900  1.0
  H  H1042  1  0.830568  0.073751  0.820100  1.0
  H  H1043  1  0.330568  0.426249  0.820100  1.0
  H  H1044  1  0.169432  0.926249  0.179900  1.0
  H  H1045  1  0.644794  0.589032  0.123305  1.0
  H  H1046  1  0.855206  0.089032  0.876695  1.0
  H  H1047  1  0.355206  0.410968  0.876695  1.0
  H  H1048  1  0.144794  0.910968  0.123305  1.0
  H  H1049  1  0.610118  0.635104  0.077229  1.0
  H  H1050  1  0.889882  0.135104  0.922771  1.0
  H  H1051  1  0.389882  0.364896  0.922771  1.0
  H  H1052  1  0.110118  0.864896  0.077229  1.0
  H  H1053  1  0.527083  0.701055  0.048496  1.0
  H  H1054  1  0.972917  0.201055  0.951504  1.0
  H  H1055  1  0.472917  0.298945  0.951504  1.0
  H  H1056  1  0.027083  0.798945  0.048496  1.0
  H  H1057  1  0.510827  0.718031  0.992360  1.0
  H  H1058  1  0.989173  0.218031  0.007640  1.0
  H  H1059  1  0.489173  0.281969  0.007640  1.0
  H  H1060  1  0.010827  0.781969  0.992360  1.0
  H  H1061  1  0.625226  0.722866  0.004162  1.0
  H  H1062  1  0.874774  0.222866  0.995838  1.0
  H  H1063  1  0.374774  0.277134  0.995838  1.0
  H  H1064  1  0.125226  0.777134  0.004162  1.0
  H  H1065  1  0.639314  0.692712  0.055585  1.0
  H  H1066  1  0.860686  0.192712  0.944415  1.0
  H  H1067  1  0.360686  0.307288  0.944415  1.0
  H  H1068  1  0.139314  0.807288  0.055585  1.0
  H  H1069  1  0.759601  0.582245  0.325690  1.0
  H  H1070  1  0.740399  0.082245  0.674310  1.0
  H  H1071  1  0.240399  0.417755  0.674310  1.0
  H  H1072  1  0.259601  0.917755  0.325690  1.0
  H  H1073  1  0.771739  0.582806  0.293494  1.0
  H  H1074  1  0.728261  0.082806  0.706506  1.0
  H  H1075  1  0.228261  0.417194  0.706506  1.0
  H  H1076  1  0.271739  0.917194  0.293494  1.0
  H  H1077  1  0.760316  0.647761  0.322328  1.0
  H  H1078  1  0.739684  0.147761  0.677672  1.0
  H  H1079  1  0.239684  0.352239  0.677672  1.0
  H  H1080  1  0.260316  0.852239  0.322328  1.0
  H  H1081  1  0.801685  0.628157  0.336865  1.0
  H  H1082  1  0.698315  0.128157  0.663135  1.0
  H  H1083  1  0.198315  0.371843  0.663135  1.0
  H  H1084  1  0.301685  0.871843  0.336865  1.0
  H  H1085  1  0.800960  0.629353  0.279660  1.0
  H  H1086  1  0.699040  0.129353  0.720340  1.0
  H  H1087  1  0.199040  0.370647  0.720340  1.0
  H  H1088  1  0.300960  0.870647  0.279660  1.0
  H  H1089  1  0.812686  0.664360  0.301132  1.0
  H  H1090  1  0.687314  0.164360  0.698868  1.0
  H  H1091  1  0.187314  0.335640  0.698868  1.0
  H  H1092  1  0.312686  0.835640  0.301132  1.0
  H  H1093  1  0.740694  0.678374  0.269849  1.0
  H  H1094  1  0.759306  0.178374  0.730151  1.0
  H  H1095  1  0.259306  0.321626  0.730151  1.0
  H  H1096  1  0.240694  0.821626  0.269849  1.0
  H  H1097  1  0.774732  0.689864  0.256990  1.0
  H  H1098  1  0.725268  0.189864  0.743010  1.0
  H  H1099  1  0.225268  0.310136  0.743010  1.0
  H  H1100  1  0.274732  0.810136  0.256990  1.0
  H  H1101  1  0.755077  0.654696  0.214160  1.0
  H  H1102  1  0.744923  0.154696  0.785840  1.0
  H  H1103  1  0.244923  0.345304  0.785840  1.0
  H  H1104  1  0.255077  0.845304  0.214160  1.0
  H  H1105  1  0.713928  0.661976  0.218441  1.0
  H  H1106  1  0.786072  0.161976  0.781559  1.0
  H  H1107  1  0.286072  0.338024  0.781559  1.0
  H  H1108  1  0.213928  0.838024  0.218441  1.0
  H  H1109  1  0.728101  0.598660  0.212777  1.0
  H  H1110  1  0.771899  0.098660  0.787223  1.0
  H  H1111  1  0.271899  0.401340  0.787223  1.0
  H  H1112  1  0.228101  0.901340  0.212777  1.0
  H  H1113  1  0.760730  0.601289  0.249253  1.0
  H  H1114  1  0.739270  0.101289  0.750747  1.0
  H  H1115  1  0.239270  0.398711  0.750747  1.0
  H  H1116  1  0.260730  0.898711  0.249253  1.0
  H  H1117  1  0.721039  0.374141  0.485256  1.0
  H  H1118  1  0.778961  0.874141  0.514744  1.0
  H  H1119  1  0.278961  0.625859  0.514744  1.0
  H  H1120  1  0.221039  0.125859  0.485256  1.0
  H  H1121  1  0.755613  0.359878  0.541421  1.0
  H  H1122  1  0.744387  0.859878  0.458579  1.0
  H  H1123  1  0.244387  0.640122  0.458579  1.0
  H  H1124  1  0.255613  0.140122  0.541421  1.0
  H  H1125  1  0.833124  0.304400  0.515655  1.0
  H  H1126  1  0.666876  0.804400  0.484345  1.0
  H  H1127  1  0.166876  0.695600  0.484345  1.0
  H  H1128  1  0.333124  0.195600  0.515655  1.0
  H  H1129  1  0.797877  0.318286  0.458855  1.0
  H  H1130  1  0.702123  0.818286  0.541145  1.0
  H  H1131  1  0.202123  0.681714  0.541145  1.0
  H  H1132  1  0.297877  0.181714  0.458855  1.0
  H  H1133  1  0.769935  0.398835  0.438652  1.0
  H  H1134  1  0.730065  0.898835  0.561348  1.0
  H  H1135  1  0.230065  0.601165  0.561348  1.0
  H  H1136  1  0.269935  0.101165  0.438652  1.0
  H  H1137  1  0.761457  0.440504  0.388807  1.0
  H  H1138  1  0.738543  0.940504  0.611193  1.0
  H  H1139  1  0.238543  0.559496  0.611193  1.0
  H  H1140  1  0.261457  0.059496  0.388807  1.0
  H  H1141  1  0.725299  0.455546  0.334199  1.0
  H  H1142  1  0.774701  0.955546  0.665801  1.0
  H  H1143  1  0.274701  0.544454  0.665801  1.0
  H  H1144  1  0.225299  0.044454  0.334199  1.0
  H  H1145  1  0.652709  0.374741  0.332371  1.0
  H  H1146  1  0.847291  0.874741  0.667629  1.0
  H  H1147  1  0.347291  0.625259  0.667629  1.0
  H  H1148  1  0.152709  0.125259  0.332371  1.0
  H  H1149  1  0.547024  0.406048  0.199403  1.0
  H  H1150  1  0.952976  0.906048  0.800597  1.0
  H  H1151  1  0.452976  0.593952  0.800597  1.0
  H  H1152  1  0.047024  0.093952  0.199403  1.0
  H  H1153  1  0.632938  0.454292  0.177168  1.0
  H  H1154  1  0.867062  0.954292  0.822832  1.0
  H  H1155  1  0.367062  0.545708  0.822832  1.0
  H  H1156  1  0.132938  0.045708  0.177168  1.0
  H  H1157  1  0.591593  0.453462  0.121084  1.0
  H  H1158  1  0.908407  0.953462  0.878916  1.0
  H  H1159  1  0.408407  0.546538  0.878916  1.0
  H  H1160  1  0.091593  0.046538  0.121084  1.0
  H  H1161  1  0.523324  0.437958  0.076721  1.0
  H  H1162  1  0.976676  0.937958  0.923279  1.0
  H  H1163  1  0.476676  0.562042  0.923279  1.0
  H  H1164  1  0.023324  0.062042  0.076721  1.0
  H  H1165  1  0.452289  0.472211  0.052075  1.0
  H  H1166  1  0.047711  0.972211  0.947925  1.0
  H  H1167  1  0.547711  0.527789  0.947925  1.0
  H  H1168  1  0.952289  0.027789  0.052075  1.0
  H  H1169  1  0.408744  0.470618  0.995802  1.0
  H  H1170  1  0.091256  0.970618  0.004198  1.0
  H  H1171  1  0.591256  0.529382  0.004198  1.0
  H  H1172  1  0.908744  0.029382  0.995802  1.0
  H  H1173  1  0.412958  0.364397  0.997217  1.0
  H  H1174  1  0.087042  0.864397  0.002783  1.0
  H  H1175  1  0.587042  0.635603  0.002783  1.0
  H  H1176  1  0.912958  0.135603  0.997217  1.0
  H  H1177  1  0.456735  0.366629  0.052743  1.0
  H  H1178  1  0.043265  0.866629  0.947257  1.0
  H  H1179  1  0.543265  0.633371  0.947257  1.0
  H  H1180  1  0.956735  0.133371  0.052743  1.0
  H  H1181  1  0.731860  0.347256  0.018739  1.0
  H  H1182  1  0.768140  0.847256  0.981261  1.0
  H  H1183  1  0.268140  0.652744  0.981261  1.0
  H  H1184  1  0.231860  0.152744  0.018739  1.0
  H  H1185  1  0.694750  0.331930  0.962575  1.0
  H  H1186  1  0.805250  0.831930  0.037425  1.0
  H  H1187  1  0.305250  0.668070  0.037425  1.0
  H  H1188  1  0.194750  0.168070  0.962575  1.0
  H  H1189  1  0.618595  0.278741  0.992485  1.0
  H  H1190  1  0.881405  0.778741  0.007515  1.0
  H  H1191  1  0.381405  0.721259  0.007515  1.0
  H  H1192  1  0.118595  0.221259  0.992485  1.0
  H  H1193  1  0.655959  0.295274  0.049145  1.0
  H  H1194  1  0.844041  0.795274  0.950855  1.0
  H  H1195  1  0.344041  0.704726  0.950855  1.0
  H  H1196  1  0.155959  0.204726  0.049145  1.0
  H  H1197  1  0.688949  0.379002  0.063992  1.0
  H  H1198  1  0.811051  0.879002  0.936008  1.0
  H  H1199  1  0.311051  0.620998  0.936008  1.0
  H  H1200  1  0.188949  0.120998  0.063992  1.0
  H  H1201  1  0.701614  0.422128  0.113309  1.0
  H  H1202  1  0.798386  0.922128  0.886691  1.0
  H  H1203  1  0.298386  0.577872  0.886691  1.0
  H  H1204  1  0.201614  0.077872  0.113309  1.0
  H  H1205  1  0.739649  0.437479  0.167478  1.0
  H  H1206  1  0.760351  0.937479  0.832522  1.0
  H  H1207  1  0.260351  0.562521  0.832522  1.0
  H  H1208  1  0.239649  0.062521  0.167478  1.0
  H  H1209  1  0.804174  0.350572  0.172261  1.0
  H  H1210  1  0.695826  0.850572  0.827739  1.0
  H  H1211  1  0.195826  0.649428  0.827739  1.0
  H  H1212  1  0.304174  0.149428  0.172261  1.0
  H  H1213  1  0.915422  0.382087  0.299937  1.0
  H  H1214  1  0.584578  0.882087  0.700063  1.0
  H  H1215  1  0.084578  0.617913  0.700063  1.0
  H  H1216  1  0.415422  0.117913  0.299937  1.0
  H  H1217  1  0.852589  0.459943  0.319465  1.0
  H  H1218  1  0.647411  0.959943  0.680535  1.0
  H  H1219  1  0.147411  0.540057  0.680535  1.0
  H  H1220  1  0.352589  0.040057  0.319465  1.0
  H  H1221  1  0.903283  0.467298  0.371498  1.0
  H  H1222  1  0.596717  0.967298  0.628502  1.0
  H  H1223  1  0.096717  0.532702  0.628502  1.0
  H  H1224  1  0.403283  0.032702  0.371498  1.0
  H  H1225  1  0.968163  0.443356  0.414175  1.0
  H  H1226  1  0.531837  0.943356  0.585825  1.0
  H  H1227  1  0.031837  0.556644  0.585825  1.0
  H  H1228  1  0.468163  0.056644  0.414175  1.0
  H  H1229  1  0.036559  0.462675  0.431498  1.0
  H  H1230  1  0.463441  0.962675  0.568502  1.0
  H  H1231  1  0.963441  0.537325  0.568502  1.0
  H  H1232  1  0.536559  0.037325  0.431498  1.0
  H  H1233  1  0.084942  0.466129  0.485161  1.0
  H  H1234  1  0.415058  0.966129  0.514839  1.0
  H  H1235  1  0.915058  0.533871  0.514839  1.0
  H  H1236  1  0.584942  0.033871  0.485161  1.0
  H  H1237  1  0.081633  0.360618  0.494000  1.0
  H  H1238  1  0.418367  0.860618  0.506000  1.0
  H  H1239  1  0.918367  0.639382  0.506000  1.0
  H  H1240  1  0.581633  0.139382  0.494000  1.0
  H  H1241  1  0.030831  0.357614  0.441471  1.0
  H  H1242  1  0.469169  0.857614  0.558529  1.0
  H  H1243  1  0.969169  0.642386  0.558529  1.0
  H  H1244  1  0.530831  0.142386  0.441471  1.0
  H  H1245  1  0.727871  0.407823  0.247506  1.0
  H  H1246  1  0.772129  0.907823  0.752494  1.0
  H  H1247  1  0.272129  0.592177  0.752494  1.0
  H  H1248  1  0.227871  0.092177  0.247506  1.0
  H  H1249  1  0.720012  0.410049  0.208467  1.0
  H  H1250  1  0.779988  0.910049  0.791533  1.0
  H  H1251  1  0.279988  0.589951  0.791533  1.0
  H  H1252  1  0.220012  0.089951  0.208467  1.0
  H  H1253  1  0.732363  0.348865  0.207685  1.0
  H  H1254  1  0.767637  0.848865  0.792315  1.0
  H  H1255  1  0.267637  0.651135  0.792315  1.0
  H  H1256  1  0.232363  0.151135  0.207685  1.0
  H  H1257  1  0.696065  0.356185  0.219293  1.0
  H  H1258  1  0.803935  0.856185  0.780707  1.0
  H  H1259  1  0.303935  0.643815  0.780707  1.0
  H  H1260  1  0.196065  0.143815  0.219293  1.0
  H  H1261  1  0.772715  0.333112  0.260351  1.0
  H  H1262  1  0.727285  0.833112  0.739649  1.0
  H  H1263  1  0.227285  0.666888  0.739649  1.0
  H  H1264  1  0.272715  0.166888  0.260351  1.0
  H  H1265  1  0.732002  0.314345  0.256158  1.0
  H  H1266  1  0.767998  0.814345  0.743842  1.0
  H  H1267  1  0.267998  0.685655  0.743842  1.0
  H  H1268  1  0.232002  0.185655  0.256158  1.0
  H  H1269  1  0.724025  0.376397  0.282399  1.0
  H  H1270  1  0.775975  0.876397  0.717601  1.0
  H  H1271  1  0.275975  0.623603  0.717601  1.0
  H  H1272  1  0.224025  0.123603  0.282399  1.0
  H  H1273  1  0.735141  0.340725  0.303274  1.0
  H  H1274  1  0.764859  0.840725  0.696726  1.0
  H  H1275  1  0.264859  0.659275  0.696726  1.0
  H  H1276  1  0.235141  0.159275  0.303274  1.0
  H  H1277  1  0.783138  0.376452  0.334215  1.0
  H  H1278  1  0.716862  0.876452  0.665785  1.0
  H  H1279  1  0.216862  0.623548  0.665785  1.0
  H  H1280  1  0.283138  0.123548  0.334215  1.0
  H  H1281  1  0.804409  0.357232  0.312197  1.0
  H  H1282  1  0.695591  0.857232  0.687803  1.0
  H  H1283  1  0.195591  0.642768  0.687803  1.0
  H  H1284  1  0.304409  0.142768  0.312197  1.0
  H  H1285  1  0.810432  0.422266  0.316616  1.0
  H  H1286  1  0.689568  0.922266  0.683384  1.0
  H  H1287  1  0.189568  0.577734  0.683384  1.0
  H  H1288  1  0.310432  0.077734  0.316616  1.0
  H  H1289  1  0.766143  0.423298  0.291253  1.0
  H  H1290  1  0.733857  0.923298  0.708747  1.0
  H  H1291  1  0.233857  0.576702  0.708747  1.0
  H  H1292  1  0.266143  0.076702  0.291253  1.0
  H  H1293  1  0.916915  0.615579  0.419099  1.0
  H  H1294  1  0.583085  0.115579  0.580901  1.0
  H  H1295  1  0.083085  0.384421  0.580901  1.0
  H  H1296  1  0.416915  0.884421  0.419099  1.0
  H  H1297  1  0.875103  0.571488  0.374764  1.0
  H  H1298  1  0.624897  0.071488  0.625236  1.0
  H  H1299  1  0.124897  0.428512  0.625236  1.0
  H  H1300  1  0.375103  0.928512  0.374764  1.0
  H  H1301  1  0.849647  0.555278  0.318994  1.0
  H  H1302  1  0.650353  0.055278  0.681006  1.0
  H  H1303  1  0.150353  0.444722  0.681006  1.0
  H  H1304  1  0.349647  0.944722  0.318994  1.0
  H  H1305  1  0.904619  0.638302  0.297851  1.0
  H  H1306  1  0.595381  0.138302  0.702149  1.0
  H  H1307  1  0.095381  0.361698  0.702149  1.0
  H  H1308  1  0.404619  0.861698  0.297851  1.0
  H  H1309  1  0.865176  0.603273  0.158615  1.0
  H  H1310  1  0.634824  0.103273  0.841385  1.0
  H  H1311  1  0.134824  0.396727  0.841385  1.0
  H  H1312  1  0.365176  0.896727  0.158615  1.0
  H  H1313  1  0.770673  0.549035  0.160341  1.0
  H  H1314  1  0.729327  0.049035  0.839659  1.0
  H  H1315  1  0.229327  0.450965  0.839659  1.0
  H  H1316  1  0.270673  0.950965  0.160341  1.0
  H  H1317  1  0.754287  0.539346  0.102496  1.0
  H  H1318  1  0.745713  0.039346  0.897504  1.0
  H  H1319  1  0.245713  0.460654  0.897504  1.0
  H  H1320  1  0.254287  0.960654  0.102496  1.0
  H  H1321  1  0.766634  0.554740  0.048269  1.0
  H  H1322  1  0.733366  0.054740  0.951731  1.0
  H  H1323  1  0.233366  0.445260  0.951731  1.0
  H  H1324  1  0.266634  0.945260  0.048269  1.0
  H  H1325  1  0.768934  0.630155  0.010695  1.0
  H  H1326  1  0.731066  0.130155  0.989305  1.0
  H  H1327  1  0.231066  0.369845  0.989305  1.0
  H  H1328  1  0.268934  0.869845  0.010695  1.0
  H  H1329  1  0.747814  0.632546  0.951822  1.0
  H  H1330  1  0.752186  0.132546  0.048178  1.0
  H  H1331  1  0.252186  0.367454  0.048178  1.0
  H  H1332  1  0.247814  0.867454  0.951822  1.0
  H  H1333  1  0.807436  0.542748  0.951369  1.0
  H  H1334  1  0.692564  0.042748  0.048631  1.0
  H  H1335  1  0.192564  0.457252  0.048631  1.0
  H  H1336  1  0.307436  0.957252  0.951369  1.0
  H  H1337  1  0.824199  0.538037  0.010047  1.0
  H  H1338  1  0.675801  0.038037  0.989953  1.0
  H  H1339  1  0.175801  0.461963  0.989953  1.0
  H  H1340  1  0.324199  0.961963  0.010047  1.0
  H  H1341  1  0.947116  0.548938  0.266506  1.0
  H  H1342  1  0.552884  0.048938  0.733494  1.0
  H  H1343  1  0.052884  0.451062  0.733494  1.0
  H  H1344  1  0.447116  0.951062  0.266506  1.0
  H  H1345  1  0.937007  0.561310  0.298251  1.0
  H  H1346  1  0.562993  0.061310  0.701749  1.0
  H  H1347  1  0.062993  0.438690  0.701749  1.0
  H  H1348  1  0.437007  0.938690  0.298251  1.0
  H  H1349  1  0.941802  0.500675  0.303862  1.0
  H  H1350  1  0.558198  0.000675  0.696138  1.0
  H  H1351  1  0.058198  0.499325  0.696138  1.0
  H  H1352  1  0.441802  0.999325  0.303862  1.0
  H  H1353  1  0.895726  0.507999  0.289953  1.0
  H  H1354  1  0.604274  0.007999  0.710047  1.0
  H  H1355  1  0.104274  0.492001  0.710047  1.0
  H  H1356  1  0.395726  0.992001  0.289953  1.0
  H  H1357  1  0.918317  0.459892  0.263428  1.0
  H  H1358  1  0.581683  0.959892  0.736572  1.0
  H  H1359  1  0.081683  0.540108  0.736572  1.0
  H  H1360  1  0.418317  0.040108  0.263428  1.0
  H  H1361  1  0.936049  0.489422  0.246417  1.0
  H  H1362  1  0.563951  0.989422  0.753583  1.0
  H  H1363  1  0.063951  0.510578  0.753583  1.0
  H  H1364  1  0.436049  0.010578  0.246417  1.0
  H  H1365  1  0.860182  0.464618  0.221002  1.0
  H  H1366  1  0.639818  0.964618  0.778998  1.0
  H  H1367  1  0.139818  0.535382  0.778998  1.0
  H  H1368  1  0.360182  0.035382  0.221002  1.0
  H  H1369  1  0.856738  0.505035  0.230908  1.0
  H  H1370  1  0.643262  0.005035  0.769092  1.0
  H  H1371  1  0.143262  0.494965  0.769092  1.0
  H  H1372  1  0.356738  0.994965  0.230908  1.0
  H  H1373  1  0.860988  0.497693  0.175156  1.0
  H  H1374  1  0.639012  0.997693  0.824844  1.0
  H  H1375  1  0.139012  0.502307  0.824844  1.0
  H  H1376  1  0.360988  0.002307  0.175156  1.0
  H  H1377  1  0.905361  0.484996  0.193613  1.0
  H  H1378  1  0.594639  0.984996  0.806387  1.0
  H  H1379  1  0.094639  0.515004  0.806387  1.0
  H  H1380  1  0.405361  0.015004  0.193613  1.0
  H  H1381  1  0.893225  0.550524  0.180386  1.0
  H  H1382  1  0.606775  0.050524  0.819614  1.0
  H  H1383  1  0.106775  0.449476  0.819614  1.0
  H  H1384  1  0.393225  0.949476  0.180386  1.0
  H  H1385  1  0.925743  0.539809  0.215325  1.0
  H  H1386  1  0.574257  0.039809  0.784675  1.0
  H  H1387  1  0.074257  0.460191  0.784675  1.0
  H  H1388  1  0.425743  0.960191  0.215325  1.0
  H  H1389  1  0.113052  0.716106  0.267028  1.0
  H  H1390  1  0.386948  0.216106  0.732972  1.0
  H  H1391  1  0.886948  0.283894  0.732972  1.0
  H  H1392  1  0.613052  0.783894  0.267028  1.0
  H  H1393  1  0.078190  0.768945  0.260229  1.0
  H  H1394  1  0.421810  0.268945  0.739771  1.0
  H  H1395  1  0.921810  0.231055  0.739771  1.0
  H  H1396  1  0.578190  0.731055  0.260229  1.0
  H  H1397  1  0.111232  0.822752  0.266863  1.0
  H  H1398  1  0.388768  0.322752  0.733137  1.0
  H  H1399  1  0.888768  0.177248  0.733137  1.0
  H  H1400  1  0.611232  0.677248  0.266863  1.0
  H  H1401  1  0.179135  0.823721  0.280298  1.0
  H  H1402  1  0.320865  0.323721  0.719702  1.0
  H  H1403  1  0.820865  0.176279  0.719702  1.0
  H  H1404  1  0.679135  0.676279  0.280298  1.0
  H  H1405  1  0.213997  0.770884  0.287097  1.0
  H  H1406  1  0.286003  0.270884  0.712903  1.0
  H  H1407  1  0.786003  0.229116  0.712903  1.0
  H  H1408  1  0.713997  0.729116  0.287097  1.0
  H  H1409  1  0.180956  0.717076  0.280462  1.0
  H  H1410  1  0.319044  0.217076  0.719538  1.0
  H  H1411  1  0.819044  0.282924  0.719538  1.0
  H  H1412  1  0.680956  0.782924  0.280462  1.0
  H  H1413  1  0.024723  0.547511  0.136348  0.25
  H  H1414  1  0.475277  0.047511  0.863652  0.25
  H  H1415  1  0.975277  0.452489  0.863652  0.25
  H  H1416  1  0.524723  0.952489  0.136348  0.25
  H  H1417  1  0.016575  0.490590  0.114218  0.25
  H  H1418  1  0.483425  0.990590  0.885782  0.25
  H  H1419  1  0.983425  0.509410  0.885782  0.25
  H  H1420  1  0.516575  0.009410  0.114218  0.25
  H  H1421  1  0.033199  0.478281  0.067669  0.25
  H  H1422  1  0.466801  0.978281  0.932331  0.25
  H  H1423  1  0.966801  0.521719  0.932331  0.25
  H  H1424  1  0.533199  0.021719  0.067669  0.25
  H  H1425  1  0.057970  0.522893  0.043248  0.25
  H  H1426  1  0.442030  0.022893  0.956752  0.25
  H  H1427  1  0.942030  0.477107  0.956752  0.25
  H  H1428  1  0.557970  0.977107  0.043248  0.25
  H  H1429  1  0.066117  0.579814  0.065377  0.25
  H  H1430  1  0.433883  0.079814  0.934623  0.25
  H  H1431  1  0.933883  0.420186  0.934623  0.25
  H  H1432  1  0.566117  0.920186  0.065377  0.25
  H  H1433  1  0.049494  0.592124  0.111926  0.25
  H  H1434  1  0.450506  0.092124  0.888074  0.25
  H  H1435  1  0.950506  0.407876  0.888074  0.25
  H  H1436  1  0.549494  0.907876  0.111926  0.25
  H  H1437  1  0.542011  0.407385  0.279409  0.4
  H  H1438  1  0.957989  0.907385  0.720591  0.4
  H  H1439  1  0.457989  0.592615  0.720591  0.4
  H  H1440  1  0.042011  0.092615  0.279409  0.4
  H  H1441  1  0.505425  0.457691  0.280212  0.4
  H  H1442  1  0.994575  0.957691  0.719788  0.4
  H  H1443  1  0.494575  0.542309  0.719788  0.4
  H  H1444  1  0.005425  0.042309  0.280212  0.4
  H  H1445  1  0.438746  0.452685  0.271731  0.4
  H  H1446  1  0.061254  0.952685  0.728269  0.4
  H  H1447  1  0.561254  0.547315  0.728269  0.4
  H  H1448  1  0.938746  0.047315  0.271731  0.4
  H  H1449  1  0.408652  0.397371  0.262447  0.4
  H  H1450  1  0.091348  0.897371  0.737553  0.4
  H  H1451  1  0.591348  0.602629  0.737553  0.4
  H  H1452  1  0.908652  0.102629  0.262447  0.4
  H  H1453  1  0.445238  0.347065  0.261643  0.4
  H  H1454  1  0.054762  0.847065  0.738357  0.4
  H  H1455  1  0.554762  0.652935  0.738357  0.4
  H  H1456  1  0.945238  0.152935  0.261643  0.4
  H  H1457  1  0.511917  0.352070  0.270125  0.4
  H  H1458  1  0.988083  0.852070  0.729875  0.4
  H  H1459  1  0.488083  0.647930  0.729875  0.4
  H  H1460  1  0.011917  0.147930  0.270125  0.4
  H  H1461  1  0.002143  0.622382  0.450123  0.418
  H  H1462  1  0.497857  0.122382  0.549877  0.418
  H  H1463  1  0.997857  0.377618  0.549877  0.418
  H  H1464  1  0.502143  0.877618  0.450123  0.418
  H  H1465  1  0.033993  0.636885  0.506020  0.418
  H  H1466  1  0.466007  0.136885  0.493980  0.418
  H  H1467  1  0.966007  0.363115  0.493980  0.418
  H  H1468  1  0.533993  0.863115  0.506020  0.418
  H  H1469  1  0.960097  0.719213  0.495736  0.418
  H  H1470  1  0.539903  0.219213  0.504264  0.418
  H  H1471  1  0.039903  0.280787  0.504264  0.418
  H  H1472  1  0.460097  0.780787  0.495736  0.418
  H  H1473  1  0.928246  0.704710  0.439839  0.418
  H  H1474  1  0.571754  0.204710  0.560161  0.418
  H  H1475  1  0.071754  0.295290  0.560161  0.418
  H  H1476  1  0.428246  0.795290  0.439839  0.418
  H  H1477  1  0.669136  0.492531  0.324893  0.426
  H  H1478  1  0.830864  0.992531  0.675107  0.426
  H  H1479  1  0.330864  0.507469  0.675107  0.426
  H  H1480  1  0.169136  0.007469  0.324893  0.426
  H  H1481  1  0.654970  0.516032  0.292104  0.426
  H  H1482  1  0.845030  0.016032  0.707896  0.426
  H  H1483  1  0.345030  0.483968  0.707896  0.426
  H  H1484  1  0.154970  0.983968  0.292104  0.426
  H  H1485  1  0.598028  0.483584  0.313359  0.426
  H  H1486  1  0.901972  0.983584  0.686641  0.426
  H  H1487  1  0.401972  0.516416  0.686641  0.426
  H  H1488  1  0.098028  0.016416  0.313359  0.426
  H  H1489  1  0.618350  0.519041  0.330982  0.426
  H  H1490  1  0.881650  0.019041  0.669018  0.426
  H  H1491  1  0.381650  0.480959  0.669018  0.426
  H  H1492  1  0.118350  0.980959  0.330982  0.426
  H  H1493  1  0.593506  0.547806  0.278152  0.426
  H  H1494  1  0.906494  0.047806  0.721848  0.426
  H  H1495  1  0.406494  0.452194  0.721848  0.426
  H  H1496  1  0.093506  0.952194  0.278152  0.426
  H  H1497  1  0.560947  0.536141  0.292731  0.426
  H  H1498  1  0.939053  0.036141  0.707269  0.426
  H  H1499  1  0.439053  0.463859  0.707269  0.426
  H  H1500  1  0.060947  0.963859  0.292731  0.426
  H  H1501  1  0.553890  0.483929  0.254585  0.426
  H  H1502  1  0.946110  0.983929  0.745415  0.426
  H  H1503  1  0.446110  0.516071  0.745415  0.426
  H  H1504  1  0.053890  0.016071  0.254585  0.426
  H  H1505  1  0.530428  0.519555  0.241479  0.426
  H  H1506  1  0.969572  0.019555  0.758521  0.426
  H  H1507  1  0.469572  0.480445  0.758521  0.426
  H  H1508  1  0.030428  0.980445  0.241479  0.426
  H  H1509  1  0.571821  0.535978  0.215520  0.426
  H  H1510  1  0.928179  0.035978  0.784480  0.426
  H  H1511  1  0.428179  0.464022  0.784480  0.426
  H  H1512  1  0.071821  0.964022  0.215520  0.426
  H  H1513  1  0.557411  0.496942  0.204291  0.426
  H  H1514  1  0.942589  0.996942  0.795709  0.426
  H  H1515  1  0.442589  0.503058  0.795709  0.426
  H  H1516  1  0.057411  0.003058  0.204291  0.426
  H  H1517  1  0.634161  0.518038  0.244382  0.426
  H  H1518  1  0.865839  0.018038  0.755618  0.426
  H  H1519  1  0.365839  0.481962  0.755618  0.426
  H  H1520  1  0.134161  0.981962  0.244382  0.426
  H  H1521  1  0.621290  0.498502  0.209296  0.426
  H  H1522  1  0.878710  0.998502  0.790704  0.426
  H  H1523  1  0.378710  0.501498  0.790704  0.426
  H  H1524  1  0.121290  0.001498  0.209296  0.426
  H  H1525  1  0.823918  0.574661  0.408692  0.5
  H  H1526  1  0.676082  0.074661  0.591308  0.5
  H  H1527  1  0.176082  0.425339  0.591308  0.5
  H  H1528  1  0.323918  0.925339  0.408692  0.5
  H  H1529  1  0.781771  0.592446  0.392019  0.5
  H  H1530  1  0.718229  0.092446  0.607981  0.5
  H  H1531  1  0.218229  0.407554  0.607981  0.5
  H  H1532  1  0.281771  0.907554  0.392019  0.5
  H  H1533  1  0.800523  0.588354  0.431484  0.5
  H  H1534  1  0.699477  0.088354  0.568516  0.5
  H  H1535  1  0.199477  0.411646  0.568516  0.5
  H  H1536  1  0.300523  0.911646  0.431484  0.5
  H  H1537  1  0.829410  0.615670  0.524242  0.5
  H  H1538  1  0.670590  0.115670  0.475758  0.5
  H  H1539  1  0.170590  0.384330  0.475758  0.5
  H  H1540  1  0.329410  0.884330  0.524242  0.5
  H  H1541  1  0.822086  0.652280  0.537777  0.5
  H  H1542  1  0.677914  0.152280  0.462223  0.5
  H  H1543  1  0.177914  0.347720  0.462223  0.5
  H  H1544  1  0.322086  0.847720  0.537777  0.5
  H  H1545  1  0.845399  0.650092  0.513508  0.5
  H  H1546  1  0.654601  0.150092  0.486492  0.5
  H  H1547  1  0.154601  0.349908  0.486492  0.5
  H  H1548  1  0.345399  0.849908  0.513508  0.5
  H  H1549  1  0.404417  0.358231  0.314029  0.5
  H  H1550  1  0.095583  0.858231  0.685971  0.5
  H  H1551  1  0.595583  0.641769  0.685971  0.5
  H  H1552  1  0.904417  0.141769  0.314029  0.5
  H  H1553  1  0.364634  0.340012  0.290868  0.5
  H  H1554  1  0.135366  0.840012  0.709132  0.5
  H  H1555  1  0.635366  0.659988  0.709132  0.5
  H  H1556  1  0.864634  0.159988  0.290868  0.5
  H  H1557  1  0.405841  0.325649  0.290956  0.5
  H  H1558  1  0.094159  0.825649  0.709044  0.5
  H  H1559  1  0.594159  0.674351  0.709044  0.5
  H  H1560  1  0.905841  0.174351  0.290956  0.5
  H  H1561  1  0.724157  0.525286  0.270015  0.5
  H  H1562  1  0.775843  0.025286  0.729985  0.5
  H  H1563  1  0.275843  0.474714  0.729985  0.5
  H  H1564  1  0.224157  0.974714  0.270015  0.5
  H  H1565  1  0.725515  0.483244  0.272315  0.5
  H  H1566  1  0.774485  0.983244  0.727685  0.5
  H  H1567  1  0.274485  0.516756  0.727685  0.5
  H  H1568  1  0.225515  0.016756  0.272315  0.5
  H  H1569  1  0.708454  0.502137  0.236888  0.5
  H  H1570  1  0.791546  0.002137  0.763112  0.5
  H  H1571  1  0.291546  0.497863  0.763112  0.5
  H  H1572  1  0.208454  0.997863  0.236888  0.5
  H  H1573  1  0.662335  0.308875  0.247072  0.5
  H  H1574  1  0.837665  0.808875  0.752928  0.5
  H  H1575  1  0.337665  0.691125  0.752928  0.5
  H  H1576  1  0.162335  0.191125  0.247072  0.5
  H  H1577  1  0.622237  0.316095  0.216936  0.5
  H  H1578  1  0.877763  0.816095  0.783064  0.5
  H  H1579  1  0.377763  0.683905  0.783064  0.5
  H  H1580  1  0.122237  0.183905  0.216936  0.5
  H  H1581  1  0.625997  0.282790  0.240597  0.5
  H  H1582  1  0.874003  0.782790  0.759403  0.5
  H  H1583  1  0.374003  0.717210  0.759403  0.5
  H  H1584  1  0.125997  0.217210  0.240597  0.5
  H  H1585  1  0.820491  0.243724  0.267907  0.5
  H  H1586  1  0.679509  0.743724  0.732093  0.5
  H  H1587  1  0.179509  0.756276  0.732093  0.5
  H  H1588  1  0.320491  0.256276  0.267907  0.5
  H  H1589  1  0.795145  0.273736  0.276870  0.5
  H  H1590  1  0.704855  0.773736  0.723130  0.5
  H  H1591  1  0.204855  0.726264  0.723130  0.5
  H  H1592  1  0.295145  0.226264  0.276870  0.5
  H  H1593  1  0.840447  0.269104  0.298954  0.5
  H  H1594  1  0.659553  0.769104  0.701046  0.5
  H  H1595  1  0.159553  0.730896  0.701046  0.5
  H  H1596  1  0.340447  0.230896  0.298954  0.5
  H  H1597  1  0.546069  0.579616  0.239538  0.5
  H  H1598  1  0.953931  0.079616  0.760462  0.5
  H  H1599  1  0.453931  0.420384  0.760462  0.5
  H  H1600  1  0.046069  0.920384  0.239538  0.5
  H  H1601  1  0.554119  0.609429  0.216517  0.5
  H  H1602  1  0.945881  0.109429  0.783483  0.5
  H  H1603  1  0.445881  0.390571  0.783483  0.5
  H  H1604  1  0.054119  0.890571  0.216517  0.5
  H  H1605  1  0.510207  0.600477  0.213540  0.5
  H  H1606  1  0.989793  0.100477  0.786460  0.5
  H  H1607  1  0.489793  0.399523  0.786460  0.5
  H  H1608  1  0.010207  0.899523  0.213540  0.5
  H  H1609  1  0.835642  0.423184  0.392480  0.5
  H  H1610  1  0.664358  0.923184  0.607520  0.5
  H  H1611  1  0.164358  0.576816  0.607520  0.5
  H  H1612  1  0.335642  0.076816  0.392480  0.5
  H  H1613  1  0.875371  0.409694  0.390651  0.5
  H  H1614  1  0.624629  0.909694  0.609349  0.5
  H  H1615  1  0.124629  0.590306  0.609349  0.5
  H  H1616  1  0.375371  0.090306  0.390651  0.5
  H  H1617  1  0.872951  0.421277  0.424784  0.5
  H  H1618  1  0.627049  0.921277  0.575216  0.5
  H  H1619  1  0.127049  0.578723  0.575216  0.5
  H  H1620  1  0.372951  0.078723  0.424784  0.5
  H  H1621  1  0.550744  0.310625  0.494632  0.5
  H  H1622  1  0.949256  0.810625  0.505368  0.5
  H  H1623  1  0.449256  0.689375  0.505368  0.5
  H  H1624  1  0.050744  0.189375  0.494632  0.5
  H  H1625  1  0.518202  0.359963  0.504603  0.5
  H  H1626  1  0.981798  0.859963  0.495397  0.5
  H  H1627  1  0.481798  0.640037  0.495397  0.5
  H  H1628  1  0.018202  0.140037  0.504603  0.5
  H  H1629  1  0.472152  0.389558  0.460216  0.5
  H  H1630  1  0.027848  0.889558  0.539784  0.5
  H  H1631  1  0.527848  0.610442  0.539784  0.5
  H  H1632  1  0.972152  0.110442  0.460216  0.5
  H  H1633  1  0.458645  0.369815  0.405858  0.5
  H  H1634  1  0.041355  0.869815  0.594142  0.5
  H  H1635  1  0.541355  0.630185  0.594142  0.5
  H  H1636  1  0.958645  0.130185  0.405858  0.5
  H  H1637  1  0.491187  0.320477  0.395886  0.5
  H  H1638  1  0.008813  0.820477  0.604114  0.5
  H  H1639  1  0.508813  0.679523  0.604114  0.5
  H  H1640  1  0.991187  0.179523  0.395886  0.5
  H  H1641  1  0.537236  0.290881  0.440273  0.5
  H  H1642  1  0.962764  0.790881  0.559727  0.5
  H  H1643  1  0.462764  0.709119  0.559727  0.5
  H  H1644  1  0.037236  0.209119  0.440273  0.5
  H  H1645  1  0.538623  0.360022  0.510626  0.5
  H  H1646  1  0.961377  0.860022  0.489374  0.5
  H  H1647  1  0.461377  0.639978  0.489374  0.5
  H  H1648  1  0.038623  0.139978  0.510626  0.5
  H  H1649  1  0.493602  0.388389  0.464733  0.5
  H  H1650  1  0.006398  0.888389  0.535267  0.5
  H  H1651  1  0.506398  0.611611  0.535267  0.5
  H  H1652  1  0.993602  0.111611  0.464733  0.5
  H  H1653  1  0.472593  0.361115  0.412683  0.5
  H  H1654  1  0.027407  0.861115  0.587317  0.5
  H  H1655  1  0.527407  0.638885  0.587317  0.5
  H  H1656  1  0.972593  0.138885  0.412683  0.5
  H  H1657  1  0.496604  0.305474  0.406526  0.5
  H  H1658  1  0.003396  0.805474  0.593474  0.5
  H  H1659  1  0.503396  0.694526  0.593474  0.5
  H  H1660  1  0.996604  0.194526  0.406526  0.5
  H  H1661  1  0.541625  0.277106  0.452419  0.5
  H  H1662  1  0.958375  0.777106  0.547581  0.5
  H  H1663  1  0.458375  0.722894  0.547581  0.5
  H  H1664  1  0.041625  0.222894  0.452419  0.5
  H  H1665  1  0.562635  0.304379  0.504469  0.5
  H  H1666  1  0.937365  0.804379  0.495531  0.5
  H  H1667  1  0.437365  0.695621  0.495531  0.5
  H  H1668  1  0.062635  0.195621  0.504469  0.5
  H  H1669  1  0.790410  0.365516  0.602950  0.5
  H  H1670  1  0.709590  0.865516  0.397050  0.5
  H  H1671  1  0.209590  0.634484  0.397050  0.5
  H  H1672  1  0.290410  0.134484  0.602950  0.5
  H  H1673  1  0.802746  0.307341  0.621530  0.5
  H  H1674  1  0.697254  0.807341  0.378470  0.5
  H  H1675  1  0.197254  0.692659  0.378470  0.5
  H  H1676  1  0.302746  0.192659  0.621530  0.5
  H  H1677  1  0.773468  0.284445  0.657478  0.5
  H  H1678  1  0.726532  0.784445  0.342522  0.5
  H  H1679  1  0.226532  0.715555  0.342522  0.5
  H  H1680  1  0.273468  0.215555  0.657478  0.5
  H  H1681  1  0.731855  0.319723  0.674845  0.5
  H  H1682  1  0.768145  0.819723  0.325155  0.5
  H  H1683  1  0.268145  0.680277  0.325155  0.5
  H  H1684  1  0.231855  0.180277  0.674845  0.5
  H  H1685  1  0.719519  0.377897  0.656265  0.5
  H  H1686  1  0.780481  0.877897  0.343735  0.5
  H  H1687  1  0.280481  0.622103  0.343735  0.5
  H  H1688  1  0.219519  0.122103  0.656265  0.5
  H  H1689  1  0.748796  0.400795  0.620318  0.5
  H  H1690  1  0.751204  0.900795  0.379682  0.5
  H  H1691  1  0.251204  0.599205  0.379682  0.5
  H  H1692  1  0.248796  0.099205  0.620318  0.5
  H  H1693  1  0.406359  0.737182  0.223696  0.5
  H  H1694  1  0.093641  0.237182  0.776304  0.5
  H  H1695  1  0.593641  0.262818  0.776304  0.5
  H  H1696  1  0.906359  0.762818  0.223696  0.5
  H  H1697  1  0.430268  0.794580  0.225642  0.5
  H  H1698  1  0.069732  0.294580  0.774358  0.5
  H  H1699  1  0.569732  0.205420  0.774358  0.5
  H  H1700  1  0.930268  0.705420  0.225642  0.5
  H  H1701  1  0.389453  0.842587  0.223823  0.5
  H  H1702  1  0.110547  0.342587  0.776177  0.5
  H  H1703  1  0.610547  0.157413  0.776177  0.5
  H  H1704  1  0.889453  0.657413  0.223823  0.5
  H  H1705  1  0.324727  0.833196  0.220059  0.5
  H  H1706  1  0.175273  0.333196  0.779941  0.5
  H  H1707  1  0.675273  0.166804  0.779941  0.5
  H  H1708  1  0.824727  0.666804  0.220059  0.5
  H  H1709  1  0.300817  0.775799  0.218112  0.5
  H  H1710  1  0.199183  0.275799  0.781888  0.5
  H  H1711  1  0.699183  0.224201  0.781888  0.5
  H  H1712  1  0.800817  0.724201  0.218112  0.5
  H  H1713  1  0.341633  0.727792  0.219932  0.5
  H  H1714  1  0.158367  0.227792  0.780068  0.5
  H  H1715  1  0.658367  0.272208  0.780068  0.5
  H  H1716  1  0.841633  0.772208  0.219932  0.5
  H  H1717  1  0.780676  0.866217  0.160806  0.5
  H  H1718  1  0.719324  0.366217  0.839194  0.5
  H  H1719  1  0.219324  0.133783  0.839194  0.5
  H  H1720  1  0.280676  0.633783  0.160806  0.5
  H  H1721  1  0.783241  0.806595  0.175004  0.5
  H  H1722  1  0.716759  0.306595  0.824996  0.5
  H  H1723  1  0.216759  0.193405  0.824996  0.5
  H  H1724  1  0.283241  0.693405  0.175004  0.5
  H  H1725  1  0.816441  0.766705  0.153066  0.5
  H  H1726  1  0.683559  0.266705  0.846934  0.5
  H  H1727  1  0.183559  0.233295  0.846934  0.5
  H  H1728  1  0.316441  0.733295  0.153066  0.5
  H  H1729  1  0.847075  0.786438  0.116930  0.5
  H  H1730  1  0.652925  0.286438  0.883070  0.5
  H  H1731  1  0.152925  0.213562  0.883070  0.5
  H  H1732  1  0.347075  0.713562  0.116930  0.5
  H  H1733  1  0.844510  0.846059  0.102730  0.5
  H  H1734  1  0.655490  0.346059  0.897270  0.5
  H  H1735  1  0.155490  0.153941  0.897270  0.5
  H  H1736  1  0.344510  0.653941  0.102730  0.5
  H  H1737  1  0.811311  0.885949  0.124668  0.5
  H  H1738  1  0.688689  0.385949  0.875332  0.5
  H  H1739  1  0.188689  0.114051  0.875332  0.5
  H  H1740  1  0.311311  0.614051  0.124668  0.5
  H  H1741  1  0.497783  0.182128  0.220526  0.5
  H  H1742  1  0.002217  0.682128  0.779474  0.5
  H  H1743  1  0.502217  0.817872  0.779474  0.5
  H  H1744  1  0.997783  0.317872  0.220526  0.5
  H  H1745  1  0.441399  0.194395  0.232445  0.5
  H  H1746  1  0.058601  0.694395  0.767555  0.5
  H  H1747  1  0.558601  0.805605  0.767555  0.5
  H  H1748  1  0.941399  0.305605  0.232445  0.5
  H  H1749  1  0.395458  0.149974  0.227977  0.5
  H  H1750  1  0.104542  0.649974  0.772023  0.5
  H  H1751  1  0.604542  0.850026  0.772023  0.5
  H  H1752  1  0.895458  0.350026  0.227977  0.5
  H  H1753  1  0.405900  0.093285  0.211591  0.5
  H  H1754  1  0.094100  0.593285  0.788409  0.5
  H  H1755  1  0.594100  0.906715  0.788409  0.5
  H  H1756  1  0.905900  0.406715  0.211591  0.5
  H  H1757  1  0.462284  0.081017  0.199672  0.5
  H  H1758  1  0.037716  0.581017  0.800328  0.5
  H  H1759  1  0.537716  0.918983  0.800328  0.5
  H  H1760  1  0.962284  0.418983  0.199672  0.5
  H  H1761  1  0.508225  0.125438  0.204140  0.5
  H  H1762  1  0.991775  0.625438  0.795860  0.5
  H  H1763  1  0.491775  0.874562  0.795860  0.5
  H  H1764  1  0.008225  0.374562  0.204140  0.5
  H  H1765  1  0.835793  0.219917  0.252921  0.5
  H  H1766  1  0.664207  0.719917  0.747079  0.5
  H  H1767  1  0.164207  0.780083  0.747079  0.5
  H  H1768  1  0.335793  0.280083  0.252921  0.5
  H  H1769  1  0.878177  0.225047  0.223243  0.5
  H  H1770  1  0.621823  0.725047  0.776757  0.5
  H  H1771  1  0.121823  0.774953  0.776757  0.5
  H  H1772  1  0.378177  0.274953  0.223243  0.5
  H  H1773  1  0.898581  0.280693  0.212665  0.5
  H  H1774  1  0.601419  0.780693  0.787335  0.5
  H  H1775  1  0.101419  0.719307  0.787335  0.5
  H  H1776  1  0.398581  0.219307  0.212665  0.5
  H  H1777  1  0.876603  0.331207  0.231767  0.5
  H  H1778  1  0.623397  0.831207  0.768233  0.5
  H  H1779  1  0.123397  0.668793  0.768233  0.5
  H  H1780  1  0.376603  0.168793  0.231767  0.5
  H  H1781  1  0.834220  0.326078  0.261446  0.5
  H  H1782  1  0.665780  0.826078  0.738554  0.5
  H  H1783  1  0.165780  0.673922  0.738554  0.5
  H  H1784  1  0.334220  0.173922  0.261446  0.5
  H  H1785  1  0.813815  0.270432  0.272024  0.5
  H  H1786  1  0.686185  0.770432  0.727976  0.5
  H  H1787  1  0.186185  0.729568  0.727976  0.5
  H  H1788  1  0.313815  0.229568  0.272024  0.5
  H  H1789  1  0.582325  0.461222  0.303554  0.574
  H  H1790  1  0.917675  0.961222  0.696446  0.574
  H  H1791  1  0.417675  0.538778  0.696446  0.574
  H  H1792  1  0.082325  0.038778  0.303554  0.574
  H  H1793  1  0.620712  0.446916  0.331905  0.574
  H  H1794  1  0.879288  0.946916  0.668095  0.574
  H  H1795  1  0.379288  0.553084  0.668095  0.574
  H  H1796  1  0.120712  0.053084  0.331905  0.574
  H  H1797  1  0.653379  0.500557  0.324082  0.574
  H  H1798  1  0.846621  0.000557  0.675918  0.574
  H  H1799  1  0.346621  0.499443  0.675918  0.574
  H  H1800  1  0.153379  0.999443  0.324082  0.574
  H  H1801  1  0.622080  0.505176  0.341959  0.574
  H  H1802  1  0.877920  0.005176  0.658041  0.574
  H  H1803  1  0.377920  0.494824  0.658041  0.574
  H  H1804  1  0.122080  0.994824  0.341959  0.574
  H  H1805  1  0.610831  0.549973  0.303720  0.574
  H  H1806  1  0.889169  0.049973  0.696280  0.574
  H  H1807  1  0.389169  0.450027  0.696280  0.574
  H  H1808  1  0.110831  0.950027  0.303720  0.574
  H  H1809  1  0.574694  0.523510  0.290165  0.574
  H  H1810  1  0.925306  0.023510  0.709835  0.574
  H  H1811  1  0.425306  0.476490  0.709835  0.574
  H  H1812  1  0.074694  0.976490  0.290165  0.574
  H  H1813  1  0.615404  0.546983  0.254020  0.574
  H  H1814  1  0.884596  0.046983  0.745980  0.574
  H  H1815  1  0.384596  0.453017  0.745980  0.574
  H  H1816  1  0.115404  0.953017  0.254020  0.574
  H  H1817  1  0.632621  0.508048  0.263590  0.574
  H  H1818  1  0.867379  0.008048  0.736410  0.574
  H  H1819  1  0.367379  0.491952  0.736410  0.574
  H  H1820  1  0.132621  0.991952  0.263590  0.574
  H  H1821  1  0.576959  0.509198  0.212529  0.574
  H  H1822  1  0.923041  0.009198  0.787471  0.574
  H  H1823  1  0.423041  0.490802  0.787471  0.574
  H  H1824  1  0.076959  0.990802  0.212529  0.574
  H  H1825  1  0.550501  0.522840  0.232708  0.574
  H  H1826  1  0.949499  0.022840  0.767292  0.574
  H  H1827  1  0.449499  0.477160  0.767292  0.574
  H  H1828  1  0.050501  0.977160  0.232708  0.574
  H  H1829  1  0.552616  0.469267  0.258203  0.574
  H  H1830  1  0.947384  0.969267  0.741797  0.574
  H  H1831  1  0.447384  0.530733  0.741797  0.574
  H  H1832  1  0.052616  0.030733  0.258203  0.574
  H  H1833  1  0.545154  0.459628  0.220311  0.574
  H  H1834  1  0.954846  0.959628  0.779689  0.574
  H  H1835  1  0.454846  0.540372  0.779689  0.574
  H  H1836  1  0.045154  0.040372  0.220311  0.574
  H  H1837  1  0.008936  0.667624  0.442069  0.582
  H  H1838  1  0.491064  0.167624  0.557931  0.582
  H  H1839  1  0.991064  0.332376  0.557931  0.582
  H  H1840  1  0.508936  0.832376  0.442069  0.582
  H  H1841  1  0.034327  0.695463  0.495429  0.582
  H  H1842  1  0.465673  0.195463  0.504571  0.582
  H  H1843  1  0.965673  0.304537  0.504571  0.582
  H  H1844  1  0.534327  0.804537  0.495429  0.582
  H  H1845  1  0.924883  0.709163  0.493997  0.582
  H  H1846  1  0.575117  0.209163  0.506003  0.582
  H  H1847  1  0.075117  0.290837  0.506003  0.582
  H  H1848  1  0.424883  0.790837  0.493997  0.582
  H  H1849  1  0.899063  0.683338  0.439562  0.582
  H  H1850  1  0.600937  0.183338  0.560438  0.582
  H  H1851  1  0.100937  0.316662  0.560438  0.582
  H  H1852  1  0.399063  0.816662  0.439562  0.582
  H  H1853  1  0.566866  0.426434  0.280948  0.6
  H  H1854  1  0.933134  0.926434  0.719052  0.6
  H  H1855  1  0.433134  0.573566  0.719052  0.6
  H  H1856  1  0.066866  0.073566  0.280948  0.6
  H  H1857  1  0.566477  0.367328  0.265600  0.6
  H  H1858  1  0.933523  0.867328  0.734400  0.6
  H  H1859  1  0.433523  0.632672  0.734400  0.6
  H  H1860  1  0.066477  0.132672  0.265600  0.6
  H  H1861  1  0.513392  0.331268  0.262522  0.6
  H  H1862  1  0.986608  0.831268  0.737478  0.6
  H  H1863  1  0.486608  0.668732  0.737478  0.6
  H  H1864  1  0.013392  0.168732  0.262522  0.6
  H  H1865  1  0.460697  0.354314  0.274792  0.6
  H  H1866  1  0.039303  0.854314  0.725208  0.6
  H  H1867  1  0.539303  0.645686  0.725208  0.6
  H  H1868  1  0.960697  0.145686  0.274792  0.6
  H  H1869  1  0.461084  0.413420  0.290141  0.6
  H  H1870  1  0.038916  0.913420  0.709859  0.6
  H  H1871  1  0.538916  0.586580  0.709859  0.6
  H  H1872  1  0.961084  0.086580  0.290141  0.6
  H  H1873  1  0.514169  0.449480  0.293220  0.6
  H  H1874  1  0.985831  0.949480  0.706780  0.6
  H  H1875  1  0.485831  0.550520  0.706780  0.6
  H  H1876  1  0.014169  0.050520  0.293220  0.6
  C  C1877  1  0.081800  0.368300  0.378400  1.0
  C  C1878  1  0.418200  0.868300  0.621600  1.0
  C  C1879  1  0.918200  0.631700  0.621600  1.0
  C  C1880  1  0.581800  0.131700  0.378400  1.0
  C  C1881  1  0.103900  0.390700  0.402500  1.0
  C  C1882  1  0.396100  0.890700  0.597500  1.0
  C  C1883  1  0.896100  0.609300  0.597500  1.0
  C  C1884  1  0.603900  0.109300  0.402500  1.0
  C  C1885  1  0.140700  0.401100  0.403700  1.0
  C  C1886  1  0.359300  0.901100  0.596300  1.0
  C  C1887  1  0.859300  0.598900  0.596300  1.0
  C  C1888  1  0.640700  0.098900  0.403700  1.0
  C  C1889  1  0.151600  0.392700  0.378100  1.0
  C  C1890  1  0.348400  0.892700  0.621900  1.0
  C  C1891  1  0.848400  0.607300  0.621900  1.0
  C  C1892  1  0.651600  0.107300  0.378100  1.0
  C  C1893  1  0.132900  0.368500  0.355000  1.0
  C  C1894  1  0.367100  0.868500  0.645000  1.0
  C  C1895  1  0.867100  0.631500  0.645000  1.0
  C  C1896  1  0.632900  0.131500  0.355000  1.0
  C  C1897  1  0.096300  0.355800  0.355400  1.0
  C  C1898  1  0.403700  0.855800  0.644600  1.0
  C  C1899  1  0.903700  0.644200  0.644600  1.0
  C  C1900  1  0.596300  0.144200  0.355400  1.0
  C  C1901  1  0.042900  0.324200  0.386600  1.0
  C  C1902  1  0.457100  0.824200  0.613400  1.0
  C  C1903  1  0.957100  0.675800  0.613400  1.0
  C  C1904  1  0.542900  0.175800  0.386600  1.0
  C  C1905  1  0.005900  0.311700  0.387400  1.0
  C  C1906  1  0.494100  0.811700  0.612600  1.0
  C  C1907  1  0.994100  0.688300  0.612600  1.0
  C  C1908  1  0.505900  0.188300  0.387400  1.0
  C  C1909  1  0.998700  0.278400  0.396400  1.0
  C  C1910  1  0.501300  0.778400  0.603600  1.0
  C  C1911  1  0.001300  0.721600  0.603600  1.0
  C  C1912  1  0.498700  0.221600  0.396400  1.0
  C  C1913  1  0.961900  0.270100  0.395800  1.0
  C  C1914  1  0.538100  0.770100  0.604200  1.0
  C  C1915  1  0.038100  0.729900  0.604200  1.0
  C  C1916  1  0.461900  0.229900  0.395800  1.0
  C  C1917  1  0.932900  0.295700  0.387690  1.0
  C  C1918  1  0.567100  0.795700  0.612310  1.0
  C  C1919  1  0.067100  0.704300  0.612310  1.0
  C  C1920  1  0.432900  0.204300  0.387690  1.0
  C  C1921  1  0.942800  0.328700  0.379000  1.0
  C  C1922  1  0.557200  0.828700  0.621000  1.0
  C  C1923  1  0.057200  0.671300  0.621000  1.0
  C  C1924  1  0.442800  0.171300  0.379000  1.0
  C  C1925  1  0.891600  0.289200  0.385130  1.0
  C  C1926  1  0.608400  0.789200  0.614870  1.0
  C  C1927  1  0.108400  0.710800  0.614870  1.0
  C  C1928  1  0.391600  0.210800  0.385130  1.0
  C  C1929  1  0.880500  0.271500  0.408980  1.0
  C  C1930  1  0.619500  0.771500  0.591020  1.0
  C  C1931  1  0.119500  0.728500  0.591020  1.0
  C  C1932  1  0.380500  0.228500  0.408980  1.0
  C  C1933  1  0.841100  0.268900  0.402600  1.0
  C  C1934  1  0.658900  0.768900  0.597400  1.0
  C  C1935  1  0.158900  0.731100  0.597400  1.0
  C  C1936  1  0.341100  0.231100  0.402600  1.0
  C  C1937  1  0.815900  0.284500  0.372900  1.0
  C  C1938  1  0.684100  0.784500  0.627100  1.0
  C  C1939  1  0.184100  0.715500  0.627100  1.0
  C  C1940  1  0.315900  0.215500  0.372900  1.0
  C  C1941  1  0.756200  0.305700  0.382700  1.0
  C  C1942  1  0.743800  0.805700  0.617300  1.0
  C  C1943  1  0.243800  0.694300  0.617300  1.0
  C  C1944  1  0.256200  0.194300  0.382700  1.0
  C  C1945  1  0.772400  0.285700  0.363800  1.0
  C  C1946  1  0.727600  0.785700  0.636200  1.0
  C  C1947  1  0.227600  0.714300  0.636200  1.0
  C  C1948  1  0.272400  0.214300  0.363800  1.0
  C  C1949  1  0.747500  0.269600  0.335600  1.0
  C  C1950  1  0.752500  0.769600  0.664400  1.0
  C  C1951  1  0.252500  0.730400  0.664400  1.0
  C  C1952  1  0.247500  0.230400  0.335600  1.0
  C  C1953  1  0.707000  0.273700  0.327200  1.0
  C  C1954  1  0.793000  0.773700  0.672800  1.0
  C  C1955  1  0.293000  0.726300  0.672800  1.0
  C  C1956  1  0.207000  0.226300  0.327200  1.0
  C  C1957  1  0.693600  0.293300  0.347500  1.0
  C  C1958  1  0.806400  0.793300  0.652500  1.0
  C  C1959  1  0.306400  0.706700  0.652500  1.0
  C  C1960  1  0.193600  0.206700  0.347500  1.0
  C  C1961  1  0.652300  0.299000  0.341800  1.0
  C  C1962  1  0.847700  0.799000  0.658200  1.0
  C  C1963  1  0.347700  0.701000  0.658200  1.0
  C  C1964  1  0.152300  0.201000  0.341800  1.0
  C  C1965  1  0.603100  0.322000  0.358900  1.0
  C  C1966  1  0.896900  0.822000  0.641100  1.0
  C  C1967  1  0.396900  0.678000  0.641100  1.0
  C  C1968  1  0.103100  0.178000  0.358900  1.0
  C  C1969  1  0.581700  0.292800  0.359600  1.0
  C  C1970  1  0.918300  0.792800  0.640400  1.0
  C  C1971  1  0.418300  0.707200  0.640400  1.0
  C  C1972  1  0.081700  0.207200  0.359600  1.0
  C  C1973  1  0.542600  0.297000  0.356300  1.0
  C  C1974  1  0.957400  0.797000  0.643700  1.0
  C  C1975  1  0.457400  0.703000  0.643700  1.0
  C  C1976  1  0.042600  0.203000  0.356300  1.0
  C  C1977  1  0.526600  0.329100  0.352900  1.0
  C  C1978  1  0.973400  0.829100  0.647100  1.0
  C  C1979  1  0.473400  0.670900  0.647100  1.0
  C  C1980  1  0.026600  0.170900  0.352900  1.0
  C  C1981  1  0.547100  0.358800  0.352400  1.0
  C  C1982  1  0.952900  0.858800  0.647600  1.0
  C  C1983  1  0.452900  0.641200  0.647600  1.0
  C  C1984  1  0.047100  0.141200  0.352400  1.0
  C  C1985  1  0.586100  0.354600  0.355100  1.0
  C  C1986  1  0.913900  0.854600  0.644900  1.0
  C  C1987  1  0.413900  0.645400  0.644900  1.0
  C  C1988  1  0.086100  0.145400  0.355100  1.0
  C  C1989  1  0.910600  0.257300  0.441100  1.0
  C  C1990  1  0.589400  0.757300  0.558900  1.0
  C  C1991  1  0.089400  0.742700  0.558900  1.0
  C  C1992  1  0.410600  0.242700  0.441100  1.0
  C  C1993  1  0.919800  0.218200  0.443600  1.0
  C  C1994  1  0.580200  0.718200  0.556400  1.0
  C  C1995  1  0.080200  0.781800  0.556400  1.0
  C  C1996  1  0.419800  0.281800  0.443600  1.0
  C  C1997  1  0.888700  0.193000  0.445500  1.0
  C  C1998  1  0.611300  0.693000  0.554500  1.0
  C  C1999  1  0.111300  0.807000  0.554500  1.0
  C  C2000  1  0.388700  0.307000  0.445500  1.0
  C  C2001  1  0.851700  0.190100  0.413400  1.0
  C  C2002  1  0.648300  0.690100  0.586600  1.0
  C  C2003  1  0.148300  0.809900  0.586600  1.0
  C  C2004  1  0.351700  0.309900  0.413400  1.0
  C  C2005  1  0.816700  0.209700  0.414900  1.0
  C  C2006  1  0.683300  0.709700  0.585100  1.0
  C  C2007  1  0.183300  0.790300  0.585100  1.0
  C  C2008  1  0.316700  0.290300  0.414900  1.0
  C  C2009  1  0.824600  0.248800  0.425400  1.0
  C  C2010  1  0.675400  0.748800  0.574600  1.0
  C  C2011  1  0.175400  0.751200  0.574600  1.0
  C  C2012  1  0.324600  0.251200  0.425400  1.0
  C  C2013  1  0.701300  0.261200  0.428200  1.0
  C  C2014  1  0.798700  0.761200  0.571800  1.0
  C  C2015  1  0.298700  0.738800  0.571800  1.0
  C  C2016  1  0.201300  0.238800  0.428200  1.0
  C  C2017  1  0.732200  0.251000  0.455100  1.0
  C  C2018  1  0.767800  0.751000  0.544900  1.0
  C  C2019  1  0.267800  0.749000  0.544900  1.0
  C  C2020  1  0.232200  0.249000  0.455100  1.0
  C  C2021  1  0.745600  0.216400  0.457900  1.0
  C  C2022  1  0.754400  0.716400  0.542100  1.0
  C  C2023  1  0.254400  0.783600  0.542100  1.0
  C  C2024  1  0.245600  0.283600  0.457900  1.0
  C  C2025  1  0.727700  0.193900  0.432900  1.0
  C  C2026  1  0.772300  0.693900  0.567100  1.0
  C  C2027  1  0.272300  0.806100  0.567100  1.0
  C  C2028  1  0.227700  0.306100  0.432900  1.0
  C  C2029  1  0.697800  0.203200  0.405100  1.0
  C  C2030  1  0.802200  0.703200  0.594900  1.0
  C  C2031  1  0.302200  0.796800  0.594900  1.0
  C  C2032  1  0.197800  0.296800  0.405100  1.0
  C  C2033  1  0.684100  0.238000  0.402700  1.0
  C  C2034  1  0.815900  0.738000  0.597300  1.0
  C  C2035  1  0.315900  0.762000  0.597300  1.0
  C  C2036  1  0.184100  0.262000  0.402700  1.0
  C  C2037  1  0.661100  0.300900  0.441700  1.0
  C  C2038  1  0.838900  0.800900  0.558300  1.0
  C  C2039  1  0.338900  0.699100  0.558300  1.0
  C  C2040  1  0.161100  0.199100  0.441700  1.0
  C  C2041  1  0.643200  0.335000  0.439400  1.0
  C  C2042  1  0.856800  0.835000  0.560600  1.0
  C  C2043  1  0.356800  0.665000  0.560600  1.0
  C  C2044  1  0.143200  0.165000  0.439400  1.0
  C  C2045  1  0.615000  0.343500  0.452300  1.0
  C  C2046  1  0.885000  0.843500  0.547700  1.0
  C  C2047  1  0.385000  0.656500  0.547700  1.0
  C  C2048  1  0.115000  0.156500  0.452300  1.0
  C  C2049  1  0.598800  0.376400  0.446800  1.0
  C  C2050  1  0.901200  0.876400  0.553200  1.0
  C  C2051  1  0.401200  0.623600  0.553200  1.0
  C  C2052  1  0.098800  0.123600  0.446800  1.0
  C  C2053  1  0.611400  0.400600  0.428600  1.0
  C  C2054  1  0.888600  0.900600  0.571400  1.0
  C  C2055  1  0.388600  0.599400  0.571400  1.0
  C  C2056  1  0.111400  0.099400  0.428600  1.0
  C  C2057  1  0.640600  0.390500  0.416900  1.0
  C  C2058  1  0.859400  0.890500  0.583100  1.0
  C  C2059  1  0.359400  0.609500  0.583100  1.0
  C  C2060  1  0.140600  0.109500  0.416900  1.0
  C  C2061  1  0.593700  0.436400  0.418300  1.0
  C  C2062  1  0.906300  0.936400  0.581700  1.0
  C  C2063  1  0.406300  0.563600  0.581700  1.0
  C  C2064  1  0.093700  0.063600  0.418300  1.0
  C  C2065  1  0.588100  0.461700  0.440200  1.0
  C  C2066  1  0.911900  0.961700  0.559800  1.0
  C  C2067  1  0.411900  0.538300  0.559800  1.0
  C  C2068  1  0.088100  0.038300  0.440200  1.0
  C  C2069  1  0.574900  0.493700  0.427000  1.0
  C  C2070  1  0.925100  0.993700  0.573000  1.0
  C  C2071  1  0.425100  0.506300  0.573000  1.0
  C  C2072  1  0.074900  0.006300  0.427000  1.0
  C  C2073  1  0.570800  0.499700  0.393300  1.0
  C  C2074  1  0.929200  0.999700  0.606700  1.0
  C  C2075  1  0.429200  0.500300  0.606700  1.0
  C  C2076  1  0.070800  0.000300  0.393300  1.0
  C  C2077  1  0.596300  0.559300  0.394300  1.0
  C  C2078  1  0.903700  0.059300  0.605700  1.0
  C  C2079  1  0.403700  0.440700  0.605700  1.0
  C  C2080  1  0.096300  0.940700  0.394300  1.0
  C  C2081  1  0.567000  0.535100  0.378400  1.0
  C  C2082  1  0.933000  0.035100  0.621600  1.0
  C  C2083  1  0.433000  0.464900  0.621600  1.0
  C  C2084  1  0.067000  0.964900  0.378400  1.0
  C  C2085  1  0.539000  0.544500  0.348800  1.0
  C  C2086  1  0.961000  0.044500  0.651200  1.0
  C  C2087  1  0.461000  0.455500  0.651200  1.0
  C  C2088  1  0.039000  0.955500  0.348800  1.0
  C  C2089  1  0.541000  0.577900  0.335900  1.0
  C  C2090  1  0.959000  0.077900  0.664100  1.0
  C  C2091  1  0.459000  0.422100  0.664100  1.0
  C  C2092  1  0.041000  0.922100  0.335900  1.0
  C  C2093  1  0.570600  0.600100  0.352800  1.0
  C  C2094  1  0.929400  0.100100  0.647200  1.0
  C  C2095  1  0.429400  0.399900  0.647200  1.0
  C  C2096  1  0.070600  0.899900  0.352800  1.0
  C  C2097  1  0.575800  0.636600  0.343100  1.0
  C  C2098  1  0.924200  0.136600  0.656900  1.0
  C  C2099  1  0.424200  0.363400  0.656900  1.0
  C  C2100  1  0.075800  0.863400  0.343100  1.0
  C  C2101  1  0.606800  0.690800  0.356600  1.0
  C  C2102  1  0.893200  0.190800  0.643400  1.0
  C  C2103  1  0.393200  0.309200  0.643400  1.0
  C  C2104  1  0.106800  0.809200  0.356600  1.0
  C  C2105  1  0.576800  0.712200  0.357800  1.0
  C  C2106  1  0.923200  0.212200  0.642200  1.0
  C  C2107  1  0.423200  0.287800  0.642200  1.0
  C  C2108  1  0.076800  0.787800  0.357800  1.0
  C  C2109  1  0.580400  0.748500  0.354900  1.0
  C  C2110  1  0.919600  0.248500  0.645100  1.0
  C  C2111  1  0.419600  0.251500  0.645100  1.0
  C  C2112  1  0.080400  0.751500  0.354900  1.0
  C  C2113  1  0.612800  0.762100  0.350900  1.0
  C  C2114  1  0.887200  0.262100  0.649100  1.0
  C  C2115  1  0.387200  0.237900  0.649100  1.0
  C  C2116  1  0.112800  0.737900  0.350900  1.0
  C  C2117  1  0.642300  0.741600  0.348500  1.0
  C  C2118  1  0.857700  0.241600  0.651500  1.0
  C  C2119  1  0.357700  0.258400  0.651500  1.0
  C  C2120  1  0.142300  0.758400  0.348500  1.0
  C  C2121  1  0.639300  0.704900  0.352300  1.0
  C  C2122  1  0.860700  0.204900  0.647700  1.0
  C  C2123  1  0.360700  0.295100  0.647700  1.0
  C  C2124  1  0.139300  0.795100  0.352300  1.0
  C  C2125  1  0.598000  0.453300  0.477000  1.0
  C  C2126  1  0.902000  0.953300  0.523000  1.0
  C  C2127  1  0.402000  0.546700  0.523000  1.0
  C  C2128  1  0.098000  0.046700  0.477000  1.0
  C  C2129  1  0.563900  0.442200  0.487500  1.0
  C  C2130  1  0.936100  0.942200  0.512500  1.0
  C  C2131  1  0.436100  0.557800  0.512500  1.0
  C  C2132  1  0.063900  0.057800  0.487500  1.0
  C  C2133  1  0.532900  0.469600  0.486200  1.0
  C  C2134  1  0.967100  0.969600  0.513800  1.0
  C  C2135  1  0.467100  0.530400  0.513800  1.0
  C  C2136  1  0.032900  0.030400  0.486200  1.0
  C  C2137  1  0.507000  0.482600  0.451300  1.0
  C  C2138  1  0.993000  0.982600  0.548700  1.0
  C  C2139  1  0.493000  0.517400  0.548700  1.0
  C  C2140  1  0.007000  0.017400  0.451300  1.0
  C  C2141  1  0.519400  0.518000  0.442500  1.0
  C  C2142  1  0.980600  0.018000  0.557500  1.0
  C  C2143  1  0.480600  0.482000  0.557500  1.0
  C  C2144  1  0.019400  0.982000  0.442500  1.0
  C  C2145  1  0.562800  0.522200  0.447100  1.0
  C  C2146  1  0.937200  0.022200  0.552900  1.0
  C  C2147  1  0.437200  0.477800  0.552900  1.0
  C  C2148  1  0.062800  0.977800  0.447100  1.0
  C  C2149  1  0.577600  0.636400  0.435600  1.0
  C  C2150  1  0.922400  0.136400  0.564400  1.0
  C  C2151  1  0.422400  0.363600  0.564400  1.0
  C  C2152  1  0.077600  0.863600  0.435600  1.0
  C  C2153  1  0.542100  0.633900  0.410200  1.0
  C  C2154  1  0.957900  0.133900  0.589800  1.0
  C  C2155  1  0.457900  0.366100  0.589800  1.0
  C  C2156  1  0.042100  0.866100  0.410200  1.0
  C  C2157  1  0.510000  0.620200  0.416800  1.0
  C  C2158  1  0.990000  0.120200  0.583200  1.0
  C  C2159  1  0.490000  0.379800  0.583200  1.0
  C  C2160  1  0.010000  0.879800  0.416800  1.0
  C  C2161  1  0.515300  0.610100  0.448000  1.0
  C  C2162  1  0.984700  0.110100  0.552000  1.0
  C  C2163  1  0.484700  0.389900  0.552000  1.0
  C  C2164  1  0.015300  0.889900  0.448000  1.0
  C  C2165  1  0.549900  0.611400  0.473600  1.0
  C  C2166  1  0.950100  0.111400  0.526400  1.0
  C  C2167  1  0.450100  0.388600  0.526400  1.0
  C  C2168  1  0.049900  0.888600  0.473600  1.0
  C  C2169  1  0.582600  0.625600  0.467200  1.0
  C  C2170  1  0.917400  0.125600  0.532800  1.0
  C  C2171  1  0.417400  0.374400  0.532800  1.0
  C  C2172  1  0.082600  0.874400  0.467200  1.0
  C  C2173  1  0.625700  0.678700  0.441800  1.0
  C  C2174  1  0.874300  0.178700  0.558200  1.0
  C  C2175  1  0.374300  0.321300  0.558200  1.0
  C  C2176  1  0.125700  0.821300  0.441800  1.0
  C  C2177  1  0.659800  0.691300  0.435800  1.0
  C  C2178  1  0.840200  0.191300  0.564200  1.0
  C  C2179  1  0.340200  0.308700  0.564200  1.0
  C  C2180  1  0.159800  0.808700  0.435800  1.0
  C  C2181  1  0.677300  0.723500  0.445200  1.0
  C  C2182  1  0.822700  0.223500  0.554800  1.0
  C  C2183  1  0.322700  0.276500  0.554800  1.0
  C  C2184  1  0.177300  0.776500  0.445200  1.0
  C  C2185  1  0.709000  0.733000  0.437100  1.0
  C  C2186  1  0.791000  0.233000  0.562900  1.0
  C  C2187  1  0.291000  0.267000  0.562900  1.0
  C  C2188  1  0.209000  0.767000  0.437100  1.0
  C  C2189  1  0.723700  0.709000  0.420100  1.0
  C  C2190  1  0.776300  0.209000  0.579900  1.0
  C  C2191  1  0.276300  0.291000  0.579900  1.0
  C  C2192  1  0.223700  0.791000  0.420100  1.0
  C  C2193  1  0.704800  0.676800  0.412000  1.0
  C  C2194  1  0.795200  0.176800  0.588000  1.0
  C  C2195  1  0.295200  0.323200  0.588000  1.0
  C  C2196  1  0.204800  0.823200  0.412000  1.0
  C  C2197  1  0.755300  0.716800  0.406700  1.0
  C  C2198  1  0.744700  0.216800  0.593300  1.0
  C  C2199  1  0.244700  0.283200  0.593300  1.0
  C  C2200  1  0.255300  0.783200  0.406700  1.0
  C  C2201  1  0.791000  0.732900  0.425000  1.0
  C  C2202  1  0.709000  0.232900  0.575000  1.0
  C  C2203  1  0.209000  0.267100  0.575000  1.0
  C  C2204  1  0.291000  0.767100  0.425000  1.0
  C  C2205  1  0.817600  0.736800  0.409100  1.0
  C  C2206  1  0.682400  0.236800  0.590900  1.0
  C  C2207  1  0.182400  0.263200  0.590900  1.0
  C  C2208  1  0.317600  0.763200  0.409100  1.0
  C  C2209  1  0.806300  0.723300  0.376600  1.0
  C  C2210  1  0.693700  0.223300  0.623400  1.0
  C  C2211  1  0.193700  0.276700  0.623400  1.0
  C  C2212  1  0.306300  0.776700  0.376600  1.0
  C  C2213  1  0.867100  0.705600  0.367600  1.0
  C  C2214  1  0.632900  0.205600  0.632400  1.0
  C  C2215  1  0.132900  0.294400  0.632400  1.0
  C  C2216  1  0.367100  0.794400  0.367600  1.0
  C  C2217  1  0.832300  0.723500  0.356600  1.0
  C  C2218  1  0.667700  0.223500  0.643400  1.0
  C  C2219  1  0.167700  0.276500  0.643400  1.0
  C  C2220  1  0.332300  0.776500  0.356600  1.0
  C  C2221  1  0.820900  0.739400  0.325800  1.0
  C  C2222  1  0.679100  0.239400  0.674200  1.0
  C  C2223  1  0.179100  0.260600  0.674200  1.0
  C  C2224  1  0.320900  0.760600  0.325800  1.0
  C  C2225  1  0.844800  0.735500  0.307200  1.0
  C  C2226  1  0.655200  0.235500  0.692800  1.0
  C  C2227  1  0.155200  0.264500  0.692800  1.0
  C  C2228  1  0.344800  0.764500  0.307200  1.0
  C  C2229  1  0.879100  0.717500  0.320300  1.0
  C  C2230  1  0.620900  0.217500  0.679700  1.0
  C  C2231  1  0.120900  0.282500  0.679700  1.0
  C  C2232  1  0.379100  0.782500  0.320300  1.0
  C  C2233  1  0.908400  0.714100  0.304500  1.0
  C  C2234  1  0.591600  0.214100  0.695500  1.0
  C  C2235  1  0.091600  0.285900  0.695500  1.0
  C  C2236  1  0.408400  0.785900  0.304500  1.0
  C  C2237  1  0.970100  0.696600  0.307000  1.0
  C  C2238  1  0.529900  0.196600  0.693000  1.0
  C  C2239  1  0.029900  0.303400  0.693000  1.0
  C  C2240  1  0.470100  0.803400  0.307000  1.0
  C  C2241  1  0.982700  0.728200  0.298500  1.0
  C  C2242  1  0.517300  0.228200  0.701500  1.0
  C  C2243  1  0.017300  0.271800  0.701500  1.0
  C  C2244  1  0.482700  0.771800  0.298500  1.0
  C  C2245  1  0.012300  0.727600  0.285100  1.0
  C  C2246  1  0.487700  0.227600  0.714900  1.0
  C  C2247  1  0.987700  0.272400  0.714900  1.0
  C  C2248  1  0.512300  0.772400  0.285100  1.0
  C  C2249  1  0.026700  0.696200  0.280100  1.0
  C  C2250  1  0.473300  0.196200  0.719900  1.0
  C  C2251  1  0.973300  0.303800  0.719900  1.0
  C  C2252  1  0.526700  0.803800  0.280100  1.0
  C  C2253  1  0.014200  0.664100  0.287600  1.0
  C  C2254  1  0.485800  0.164100  0.712400  1.0
  C  C2255  1  0.985800  0.335900  0.712400  1.0
  C  C2256  1  0.514200  0.835900  0.287600  1.0
  C  C2257  1  0.985300  0.664900  0.301800  1.0
  C  C2258  1  0.514700  0.164900  0.698200  1.0
  C  C2259  1  0.014700  0.335100  0.698200  1.0
  C  C2260  1  0.485300  0.835100  0.301800  1.0
  C  C2261  1  0.800900  0.743200  0.461400  1.0
  C  C2262  1  0.699100  0.243200  0.538600  1.0
  C  C2263  1  0.199100  0.256800  0.538600  1.0
  C  C2264  1  0.300900  0.756800  0.461400  1.0
  C  C2265  1  0.794000  0.781800  0.467500  1.0
  C  C2266  1  0.706000  0.281800  0.532500  1.0
  C  C2267  1  0.206000  0.218200  0.532500  1.0
  C  C2268  1  0.294000  0.718200  0.467500  1.0
  C  C2269  1  0.824500  0.807700  0.464600  1.0
  C  C2270  1  0.675500  0.307700  0.535400  1.0
  C  C2271  1  0.175500  0.192300  0.535400  1.0
  C  C2272  1  0.324500  0.692300  0.464600  1.0
  C  C2273  1  0.820600  0.814600  0.428100  1.0
  C  C2274  1  0.679400  0.314600  0.571900  1.0
  C  C2275  1  0.179400  0.185400  0.571900  1.0
  C  C2276  1  0.320600  0.685400  0.428100  1.0
  C  C2277  1  0.851200  0.796800  0.418200  1.0
  C  C2278  1  0.648800  0.296800  0.581800  1.0
  C  C2279  1  0.148800  0.203200  0.581800  1.0
  C  C2280  1  0.351200  0.703200  0.418200  1.0
  C  C2281  1  0.855800  0.756600  0.425600  1.0
  C  C2282  1  0.644200  0.256600  0.574400  1.0
  C  C2283  1  0.144200  0.243400  0.574400  1.0
  C  C2284  1  0.355800  0.743400  0.425600  1.0
  C  C2285  1  0.960700  0.754200  0.394100  1.0
  C  C2286  1  0.539300  0.254200  0.605900  1.0
  C  C2287  1  0.039300  0.245800  0.605900  1.0
  C  C2288  1  0.460700  0.745800  0.394100  1.0
  C  C2289  1  0.937400  0.775400  0.369900  1.0
  C  C2290  1  0.562600  0.275400  0.630100  1.0
  C  C2291  1  0.062600  0.224600  0.630100  1.0
  C  C2292  1  0.437400  0.724600  0.369900  1.0
  C  C2293  1  0.925900  0.808500  0.377900  1.0
  C  C2294  1  0.574100  0.308500  0.622100  1.0
  C  C2295  1  0.074100  0.191500  0.622100  1.0
  C  C2296  1  0.425900  0.691500  0.377900  1.0
  C  C2297  1  0.939700  0.817700  0.410300  1.0
  C  C2298  1  0.560300  0.317700  0.589700  1.0
  C  C2299  1  0.060300  0.182300  0.589700  1.0
  C  C2300  1  0.439700  0.682300  0.410300  1.0
  C  C2301  1  0.963700  0.798200  0.434800  1.0
  C  C2302  1  0.536300  0.298200  0.565200  1.0
  C  C2303  1  0.036300  0.201800  0.565200  1.0
  C  C2304  1  0.463700  0.701800  0.434800  1.0
  C  C2305  1  0.973900  0.764500  0.426500  1.0
  C  C2306  1  0.526100  0.264500  0.573500  1.0
  C  C2307  1  0.026100  0.235500  0.573500  1.0
  C  C2308  1  0.473900  0.735500  0.426500  1.0
  C  C2309  1  0.010200  0.716000  0.394600  1.0
  C  C2310  1  0.489800  0.216000  0.605400  1.0
  C  C2311  1  0.989800  0.284000  0.605400  1.0
  C  C2312  1  0.510200  0.784000  0.394600  1.0
  C  C2313  1  0.024500  0.682000  0.388600  1.0
  C  C2314  1  0.475500  0.182000  0.611400  1.0
  C  C2315  1  0.975500  0.318000  0.611400  1.0
  C  C2316  1  0.524500  0.818000  0.388600  1.0
  C  C2317  1  0.062800  0.673400  0.395800  1.0
  C  C2318  1  0.437200  0.173400  0.604200  1.0
  C  C2319  1  0.937200  0.326600  0.604200  1.0
  C  C2320  1  0.562800  0.826600  0.395800  1.0
  C  C2321  1  0.072100  0.640000  0.388900  1.0
  C  C2322  1  0.427900  0.140000  0.611100  1.0
  C  C2323  1  0.927900  0.360000  0.611100  1.0
  C  C2324  1  0.572100  0.860000  0.388900  1.0
  C  C2325  1  0.042400  0.615000  0.376500  1.0
  C  C2326  1  0.457600  0.115000  0.623500  1.0
  C  C2327  1  0.957600  0.385000  0.623500  1.0
  C  C2328  1  0.542400  0.885000  0.376500  1.0
  C  C2329  1  0.004300  0.626100  0.370100  1.0
  C  C2330  1  0.495700  0.126100  0.629900  1.0
  C  C2331  1  0.995700  0.373900  0.629900  1.0
  C  C2332  1  0.504300  0.873900  0.370100  1.0
  C  C2333  1  0.048300  0.578200  0.367200  1.0
  C  C2334  1  0.451700  0.078200  0.632800  1.0
  C  C2335  1  0.951700  0.421800  0.632800  1.0
  C  C2336  1  0.548300  0.921800  0.367200  1.0
  C  C2337  1  0.076700  0.555100  0.388100  1.0
  C  C2338  1  0.423300  0.055100  0.611900  1.0
  C  C2339  1  0.923300  0.444900  0.611900  1.0
  C  C2340  1  0.576700  0.944900  0.388100  1.0
  C  C2341  1  0.075000  0.521000  0.376800  1.0
  C  C2342  1  0.425000  0.021000  0.623200  1.0
  C  C2343  1  0.925000  0.479000  0.623200  1.0
  C  C2344  1  0.575000  0.979000  0.376800  1.0
  C  C2345  1  0.045700  0.513100  0.345800  1.0
  C  C2346  1  0.454300  0.013100  0.654200  1.0
  C  C2347  1  0.954300  0.486900  0.654200  1.0
  C  C2348  1  0.545700  0.986900  0.345800  1.0
  C  C2349  1  0.025600  0.451100  0.351200  1.0
  C  C2350  1  0.474400  0.951100  0.648800  1.0
  C  C2351  1  0.974400  0.548900  0.648800  1.0
  C  C2352  1  0.525600  0.048900  0.351200  1.0
  C  C2353  1  0.037000  0.476300  0.333100  1.0
  C  C2354  1  0.463000  0.976300  0.666900  1.0
  C  C2355  1  0.963000  0.523700  0.666900  1.0
  C  C2356  1  0.537000  0.023700  0.333100  1.0
  C  C2357  1  0.034800  0.467800  0.301800  1.0
  C  C2358  1  0.465200  0.967800  0.698200  1.0
  C  C2359  1  0.965200  0.532200  0.698200  1.0
  C  C2360  1  0.534800  0.032200  0.301800  1.0
  C  C2361  1  0.023700  0.434600  0.289300  1.0
  C  C2362  1  0.476300  0.934600  0.710700  1.0
  C  C2363  1  0.976300  0.565400  0.710700  1.0
  C  C2364  1  0.523700  0.065400  0.289300  1.0
  C  C2365  1  0.011800  0.411100  0.308300  1.0
  C  C2366  1  0.488200  0.911100  0.691700  1.0
  C  C2367  1  0.988200  0.588900  0.691700  1.0
  C  C2368  1  0.511800  0.088900  0.308300  1.0
  C  C2369  1  0.998200  0.375400  0.298100  1.0
  C  C2370  1  0.501800  0.875400  0.701900  1.0
  C  C2371  1  0.001800  0.624600  0.701900  1.0
  C  C2372  1  0.498200  0.124600  0.298100  1.0
  C  C2373  1  0.979100  0.319900  0.309300  1.0
  C  C2374  1  0.520900  0.819900  0.690700  1.0
  C  C2375  1  0.020900  0.680100  0.690700  1.0
  C  C2376  1  0.479100  0.180100  0.309300  1.0
  C  C2377  1  0.006500  0.299900  0.301900  1.0
  C  C2378  1  0.493500  0.799900  0.698100  1.0
  C  C2379  1  0.993500  0.700100  0.698100  1.0
  C  C2380  1  0.506500  0.200100  0.301900  1.0
  C  C2381  1  0.998400  0.264600  0.294000  1.0
  C  C2382  1  0.501600  0.764600  0.706000  1.0
  C  C2383  1  0.001600  0.735400  0.706000  1.0
  C  C2384  1  0.498400  0.235400  0.294000  1.0
  C  C2385  1  0.964100  0.250900  0.293700  1.0
  C  C2386  1  0.535900  0.750900  0.706300  1.0
  C  C2387  1  0.035900  0.749100  0.706300  1.0
  C  C2388  1  0.464100  0.249100  0.293700  1.0
  C  C2389  1  0.936500  0.269600  0.301400  1.0
  C  C2390  1  0.563500  0.769600  0.698600  1.0
  C  C2391  1  0.063500  0.730400  0.698600  1.0
  C  C2392  1  0.436500  0.230400  0.301400  1.0
  C  C2393  1  0.944500  0.305200  0.309200  1.0
  C  C2394  1  0.555500  0.805200  0.690800  1.0
  C  C2395  1  0.055500  0.694800  0.690800  1.0
  C  C2396  1  0.444500  0.194800  0.309200  1.0
  C  C2397  1  0.106500  0.565800  0.421700  1.0
  C  C2398  1  0.393500  0.065800  0.578300  1.0
  C  C2399  1  0.893500  0.434200  0.578300  1.0
  C  C2400  1  0.606500  0.934200  0.421700  1.0
  C  C2401  1  0.146600  0.577500  0.422000  1.0
  C  C2402  1  0.353400  0.077500  0.578000  1.0
  C  C2403  1  0.853400  0.422500  0.578000  1.0
  C  C2404  1  0.646600  0.922500  0.422000  1.0
  C  C2405  1  0.173500  0.547800  0.418300  1.0
  C  C2406  1  0.326500  0.047800  0.581700  1.0
  C  C2407  1  0.826500  0.452200  0.581700  1.0
  C  C2408  1  0.673500  0.952200  0.418300  1.0
  C  C2409  1  0.158700  0.531000  0.383100  1.0
  C  C2410  1  0.341300  0.031000  0.616900  1.0
  C  C2411  1  0.841300  0.469000  0.616900  1.0
  C  C2412  1  0.658700  0.969000  0.383100  1.0
  C  C2413  1  0.140400  0.494500  0.381000  1.0
  C  C2414  1  0.359600  0.994500  0.619000  1.0
  C  C2415  1  0.859600  0.505500  0.619000  1.0
  C  C2416  1  0.640400  0.005500  0.381000  1.0
  C  C2417  1  0.106300  0.493800  0.394300  1.0
  C  C2418  1  0.393700  0.993800  0.605700  1.0
  C  C2419  1  0.893700  0.506200  0.605700  1.0
  C  C2420  1  0.606300  0.006200  0.394300  1.0
  C  C2421  1  0.906200  0.598000  0.037500  1.0
  C  C2422  1  0.593800  0.098000  0.962500  1.0
  C  C2423  1  0.093800  0.402000  0.962500  1.0
  C  C2424  1  0.406200  0.902000  0.037500  1.0
  C  C2425  1  0.891100  0.594800  0.003200  1.0
  C  C2426  1  0.608900  0.094800  0.996800  1.0
  C  C2427  1  0.108900  0.405200  0.996800  1.0
  C  C2428  1  0.391100  0.905200  0.003200  1.0
  C  C2429  1  0.912900  0.576100  0.987700  1.0
  C  C2430  1  0.587100  0.076100  0.012300  1.0
  C  C2431  1  0.087100  0.423900  0.012300  1.0
  C  C2432  1  0.412900  0.923900  0.987700  1.0
  C  C2433  1  0.946000  0.559700  0.007600  1.0
  C  C2434  1  0.554000  0.059700  0.992400  1.0
  C  C2435  1  0.054000  0.440300  0.992400  1.0
  C  C2436  1  0.446000  0.940300  0.007600  1.0
  C  C2437  1  0.959800  0.559600  0.041000  1.0
  C  C2438  1  0.540200  0.059600  0.959000  1.0
  C  C2439  1  0.040200  0.440400  0.959000  1.0
  C  C2440  1  0.459800  0.940400  0.041000  1.0
  C  C2441  1  0.939100  0.580900  0.056600  1.0
  C  C2442  1  0.560900  0.080900  0.943400  1.0
  C  C2443  1  0.060900  0.419100  0.943400  1.0
  C  C2444  1  0.439100  0.919100  0.056600  1.0
  C  C2445  1  0.878000  0.650500  0.043800  1.0
  C  C2446  1  0.622000  0.150500  0.956200  1.0
  C  C2447  1  0.122000  0.349500  0.956200  1.0
  C  C2448  1  0.378000  0.849500  0.043800  1.0
  C  C2449  1  0.851000  0.670400  0.054500  1.0
  C  C2450  1  0.649000  0.170400  0.945500  1.0
  C  C2451  1  0.149000  0.329600  0.945500  1.0
  C  C2452  1  0.351000  0.829600  0.054500  1.0
  C  C2453  1  0.842400  0.705600  0.047700  1.0
  C  C2454  1  0.657600  0.205600  0.952300  1.0
  C  C2455  1  0.157600  0.294400  0.952300  1.0
  C  C2456  1  0.342400  0.794400  0.047700  1.0
  C  C2457  1  0.815600  0.721800  0.058800  1.0
  C  C2458  1  0.684400  0.221800  0.941200  1.0
  C  C2459  1  0.184400  0.278200  0.941200  1.0
  C  C2460  1  0.315600  0.778200  0.058800  1.0
  C  C2461  1  0.799200  0.702200  0.077600  1.0
  C  C2462  1  0.700800  0.202200  0.922400  1.0
  C  C2463  1  0.200800  0.297800  0.922400  1.0
  C  C2464  1  0.299200  0.797800  0.077600  1.0
  C  C2465  1  0.809100  0.666900  0.083300  1.0
  C  C2466  1  0.690900  0.166900  0.916700  1.0
  C  C2467  1  0.190900  0.333100  0.916700  1.0
  C  C2468  1  0.309100  0.833100  0.083300  1.0
  C  C2469  1  0.771500  0.717100  0.092600  1.0
  C  C2470  1  0.728500  0.217100  0.907400  1.0
  C  C2471  1  0.228500  0.282900  0.907400  1.0
  C  C2472  1  0.271500  0.782900  0.092600  1.0
  C  C2473  1  0.737800  0.736100  0.074500  1.0
  C  C2474  1  0.762200  0.236100  0.925500  1.0
  C  C2475  1  0.262200  0.263900  0.925500  1.0
  C  C2476  1  0.237800  0.763900  0.074500  1.0
  C  C2477  1  0.714700  0.746500  0.091600  1.0
  C  C2478  1  0.785300  0.246500  0.908400  1.0
  C  C2479  1  0.285300  0.253500  0.908400  1.0
  C  C2480  1  0.214700  0.753500  0.091600  1.0
  C  C2481  1  0.727100  0.734700  0.125400  1.0
  C  C2482  1  0.772900  0.234700  0.874600  1.0
  C  C2483  1  0.272900  0.265300  0.874600  1.0
  C  C2484  1  0.227100  0.765300  0.125400  1.0
  C  C2485  1  0.663500  0.722400  0.130700  1.0
  C  C2486  1  0.836500  0.222400  0.869300  1.0
  C  C2487  1  0.336500  0.277600  0.869300  1.0
  C  C2488  1  0.163500  0.777600  0.130700  1.0
  C  C2489  1  0.700400  0.737100  0.144900  1.0
  C  C2490  1  0.799600  0.237100  0.855100  1.0
  C  C2491  1  0.299600  0.262900  0.855100  1.0
  C  C2492  1  0.200400  0.762900  0.144900  1.0
  C  C2493  1  0.712400  0.749600  0.177000  1.0
  C  C2494  1  0.787600  0.249600  0.823000  1.0
  C  C2495  1  0.287600  0.250400  0.823000  1.0
  C  C2496  1  0.212400  0.750400  0.177000  1.0
  C  C2497  1  0.685600  0.750100  0.193200  1.0
  C  C2498  1  0.814400  0.250100  0.806800  1.0
  C  C2499  1  0.314400  0.249900  0.806800  1.0
  C  C2500  1  0.185600  0.749900  0.193200  1.0
  C  C2501  1  0.649800  0.735700  0.176900  1.0
  C  C2502  1  0.850200  0.235700  0.823100  1.0
  C  C2503  1  0.350200  0.264300  0.823100  1.0
  C  C2504  1  0.149800  0.764300  0.176900  1.0
  C  C2505  1  0.618000  0.735900  0.189400  1.0
  C  C2506  1  0.882000  0.235900  0.810600  1.0
  C  C2507  1  0.382000  0.264100  0.810600  1.0
  C  C2508  1  0.118000  0.764100  0.189400  1.0
  C  C2509  1  0.553500  0.724000  0.182300  1.0
  C  C2510  1  0.946500  0.224000  0.817700  1.0
  C  C2511  1  0.446500  0.276000  0.817700  1.0
  C  C2512  1  0.053500  0.776000  0.182300  1.0
  C  C2513  1  0.534400  0.694700  0.186300  1.0
  C  C2514  1  0.965600  0.194700  0.813700  1.0
  C  C2515  1  0.465600  0.305300  0.813700  1.0
  C  C2516  1  0.034400  0.805300  0.186300  1.0
  C  C2517  1  0.503200  0.696900  0.197000  1.0
  C  C2518  1  0.996800  0.196900  0.803000  1.0
  C  C2519  1  0.496800  0.303100  0.803000  1.0
  C  C2520  1  0.003200  0.803100  0.197000  1.0
  C  C2521  1  0.491600  0.730300  0.201800  1.0
  C  C2522  1  0.008400  0.230300  0.798200  1.0
  C  C2523  1  0.508400  0.269700  0.798200  1.0
  C  C2524  1  0.991600  0.769700  0.201800  1.0
  C  C2525  1  0.510200  0.759800  0.197800  1.0
  C  C2526  1  0.989800  0.259800  0.802200  1.0
  C  C2527  1  0.489800  0.240200  0.802200  1.0
  C  C2528  1  0.010200  0.740200  0.197800  1.0
  C  C2529  1  0.542300  0.757500  0.187900  1.0
  C  C2530  1  0.957700  0.257500  0.812100  1.0
  C  C2531  1  0.457700  0.242500  0.812100  1.0
  C  C2532  1  0.042300  0.742500  0.187900  1.0
  C  C2533  1  0.726900  0.744800  0.037500  1.0
  C  C2534  1  0.773100  0.244800  0.962500  1.0
  C  C2535  1  0.273100  0.255200  0.962500  1.0
  C  C2536  1  0.226900  0.755200  0.037500  1.0
  C  C2537  1  0.741400  0.780400  0.031000  1.0
  C  C2538  1  0.758600  0.280400  0.969000  1.0
  C  C2539  1  0.258600  0.219600  0.969000  1.0
  C  C2540  1  0.241400  0.719600  0.031000  1.0
  C  C2541  1  0.717300  0.812000  0.035600  1.0
  C  C2542  1  0.782700  0.312000  0.964400  1.0
  C  C2543  1  0.282700  0.188000  0.964400  1.0
  C  C2544  1  0.217300  0.688000  0.035600  1.0
  C  C2545  1  0.726100  0.819900  0.073200  1.0
  C  C2546  1  0.773900  0.319900  0.926800  1.0
  C  C2547  1  0.273900  0.180100  0.926800  1.0
  C  C2548  1  0.226100  0.680100  0.073200  1.0
  C  C2549  1  0.692300  0.810100  0.084200  1.0
  C  C2550  1  0.807700  0.310100  0.915800  1.0
  C  C2551  1  0.307700  0.189900  0.915800  1.0
  C  C2552  1  0.192300  0.689900  0.084200  1.0
  C  C2553  1  0.679600  0.771000  0.076800  1.0
  C  C2554  1  0.820400  0.271000  0.923200  1.0
  C  C2555  1  0.320400  0.229000  0.923200  1.0
  C  C2556  1  0.179600  0.729000  0.076800  1.0
  C  C2557  1  0.578300  0.777000  0.102200  1.0
  C  C2558  1  0.921700  0.277000  0.897800  1.0
  C  C2559  1  0.421700  0.223000  0.897800  1.0
  C  C2560  1  0.078300  0.723000  0.102200  1.0
  C  C2561  1  0.593100  0.798500  0.128500  1.0
  C  C2562  1  0.906900  0.298500  0.871500  1.0
  C  C2563  1  0.406900  0.201500  0.871500  1.0
  C  C2564  1  0.093100  0.701500  0.128500  1.0
  C  C2565  1  0.607200  0.831600  0.123700  1.0
  C  C2566  1  0.892800  0.331600  0.876300  1.0
  C  C2567  1  0.392800  0.168400  0.876300  1.0
  C  C2568  1  0.107200  0.668400  0.123700  1.0
  C  C2569  1  0.608600  0.839200  0.093500  1.0
  C  C2570  1  0.891400  0.339200  0.906500  1.0
  C  C2571  1  0.391400  0.160800  0.906500  1.0
  C  C2572  1  0.108600  0.660800  0.093500  1.0
  C  C2573  1  0.591800  0.819500  0.066000  1.0
  C  C2574  1  0.908200  0.319500  0.934000  1.0
  C  C2575  1  0.408200  0.180500  0.934000  1.0
  C  C2576  1  0.091800  0.680500  0.066000  1.0
  C  C2577  1  0.576500  0.786000  0.070700  1.0
  C  C2578  1  0.923500  0.286000  0.929300  1.0
  C  C2579  1  0.423500  0.214000  0.929300  1.0
  C  C2580  1  0.076500  0.714000  0.070700  1.0
  C  C2581  1  0.523500  0.743300  0.095400  1.0
  C  C2582  1  0.976500  0.243300  0.904600  1.0
  C  C2583  1  0.476500  0.256700  0.904600  1.0
  C  C2584  1  0.023500  0.756700  0.095400  1.0
  C  C2585  1  0.506000  0.710600  0.098400  1.0
  C  C2586  1  0.994000  0.210600  0.901600  1.0
  C  C2587  1  0.494000  0.289400  0.901600  1.0
  C  C2588  1  0.006000  0.789400  0.098400  1.0
  C  C2589  1  0.466800  0.704200  0.087500  1.0
  C  C2590  1  0.033200  0.204200  0.912500  1.0
  C  C2591  1  0.533200  0.295800  0.912500  1.0
  C  C2592  1  0.966800  0.795800  0.087500  1.0
  C  C2593  1  0.453200  0.671600  0.091400  1.0
  C  C2594  1  0.046800  0.171600  0.908600  1.0
  C  C2595  1  0.546800  0.328400  0.908600  1.0
  C  C2596  1  0.953200  0.828400  0.091400  1.0
  C  C2597  1  0.479600  0.645300  0.107300  1.0
  C  C2598  1  0.020400  0.145300  0.892700  1.0
  C  C2599  1  0.520400  0.354700  0.892700  1.0
  C  C2600  1  0.979600  0.854700  0.107300  1.0
  C  C2601  1  0.518300  0.654000  0.117800  1.0
  C  C2602  1  0.981700  0.154000  0.882200  1.0
  C  C2603  1  0.481700  0.346000  0.882200  1.0
  C  C2604  1  0.018300  0.846000  0.117800  1.0
  C  C2605  1  0.468200  0.609300  0.114300  1.0
  C  C2606  1  0.031800  0.109300  0.885700  1.0
  C  C2607  1  0.531800  0.390700  0.885700  1.0
  C  C2608  1  0.968200  0.890700  0.114300  1.0
  C  C2609  1  0.442700  0.587600  0.090300  1.0
  C  C2610  1  0.057300  0.087600  0.909700  1.0
  C  C2611  1  0.557300  0.412400  0.909700  1.0
  C  C2612  1  0.942700  0.912400  0.090300  1.0
  C  C2613  1  0.435200  0.555500  0.101300  1.0
  C  C2614  1  0.064800  0.055500  0.898700  1.0
  C  C2615  1  0.564800  0.444500  0.898700  1.0
  C  C2616  1  0.935200  0.944500  0.101300  1.0
  C  C2617  1  0.458000  0.545500  0.134400  1.0
  C  C2618  1  0.042000  0.045500  0.865600  1.0
  C  C2619  1  0.542000  0.454500  0.865600  1.0
  C  C2620  1  0.958000  0.954500  0.134400  1.0
  C  C2621  1  0.463100  0.479900  0.136200  1.0
  C  C2622  1  0.036900  0.979900  0.863800  1.0
  C  C2623  1  0.536900  0.520100  0.863800  1.0
  C  C2624  1  0.963100  0.020100  0.136200  1.0
  C  C2625  1  0.456400  0.511000  0.149900  1.0
  C  C2626  1  0.043600  0.011000  0.850100  1.0
  C  C2627  1  0.543600  0.489000  0.850100  1.0
  C  C2628  1  0.956400  0.989000  0.149900  1.0
  C  C2629  1  0.452200  0.509200  0.180500  1.0
  C  C2630  1  0.047800  0.009200  0.819500  1.0
  C  C2631  1  0.547800  0.490800  0.819500  1.0
  C  C2632  1  0.952200  0.990800  0.180500  1.0
  C  C2633  1  0.453900  0.475900  0.195300  1.0
  C  C2634  1  0.046100  0.975900  0.804700  1.0
  C  C2635  1  0.546100  0.524100  0.804700  1.0
  C  C2636  1  0.953900  0.024100  0.195300  1.0
  C  C2637  1  0.460600  0.446500  0.179400  1.0
  C  C2638  1  0.039400  0.946500  0.820600  1.0
  C  C2639  1  0.539400  0.553500  0.820600  1.0
  C  C2640  1  0.960600  0.053500  0.179400  1.0
  C  C2641  1  0.463900  0.410500  0.193000  1.0
  C  C2642  1  0.036100  0.910500  0.807000  1.0
  C  C2643  1  0.536100  0.589500  0.807000  1.0
  C  C2644  1  0.963900  0.089500  0.193000  1.0
  C  C2645  1  0.474900  0.350500  0.187400  1.0
  C  C2646  1  0.025100  0.850500  0.812600  1.0
  C  C2647  1  0.525100  0.649500  0.812600  1.0
  C  C2648  1  0.974900  0.149500  0.187400  1.0
  C  C2649  1  0.443100  0.336400  0.192500  1.0
  C  C2650  1  0.056900  0.836400  0.807500  1.0
  C  C2651  1  0.556900  0.663600  0.807500  1.0
  C  C2652  1  0.943100  0.163600  0.192500  1.0
  C  C2653  1  0.444400  0.302100  0.203100  1.0
  C  C2654  1  0.055600  0.802100  0.796900  1.0
  C  C2655  1  0.555600  0.697900  0.796900  1.0
  C  C2656  1  0.944400  0.197900  0.203100  1.0
  C  C2657  1  0.477500  0.283200  0.208200  1.0
  C  C2658  1  0.022500  0.783200  0.791800  1.0
  C  C2659  1  0.522500  0.716800  0.791800  1.0
  C  C2660  1  0.977500  0.216800  0.208200  1.0
  C  C2661  1  0.510200  0.296500  0.203600  1.0
  C  C2662  1  0.989800  0.796500  0.796400  1.0
  C  C2663  1  0.489800  0.703500  0.796400  1.0
  C  C2664  1  0.010200  0.203500  0.203600  1.0
  C  C2665  1  0.508600  0.331500  0.192900  1.0
  C  C2666  1  0.991400  0.831500  0.807100  1.0
  C  C2667  1  0.491400  0.668500  0.807100  1.0
  C  C2668  1  0.008600  0.168500  0.192900  1.0
  C  C2669  1  0.424400  0.599500  0.053700  1.0
  C  C2670  1  0.075600  0.099500  0.946300  1.0
  C  C2671  1  0.575600  0.400500  0.946300  1.0
  C  C2672  1  0.924400  0.900500  0.053700  1.0
  C  C2673  1  0.382600  0.613900  0.043300  1.0
  C  C2674  1  0.117400  0.113900  0.956700  1.0
  C  C2675  1  0.617400  0.386100  0.956700  1.0
  C  C2676  1  0.882600  0.886100  0.043300  1.0
  C  C2677  1  0.350700  0.586800  0.040600  1.0
  C  C2678  1  0.149300  0.086800  0.959400  1.0
  C  C2679  1  0.649300  0.413200  0.959400  1.0
  C  C2680  1  0.850700  0.913200  0.040600  1.0
  C  C2681  1  0.349500  0.574900  0.075500  1.0
  C  C2682  1  0.150500  0.074900  0.924500  1.0
  C  C2683  1  0.650500  0.425100  0.924500  1.0
  C  C2684  1  0.849500  0.925100  0.075500  1.0
  C  C2685  1  0.365100  0.537600  0.084400  1.0
  C  C2686  1  0.134900  0.037600  0.915600  1.0
  C  C2687  1  0.634900  0.462400  0.915600  1.0
  C  C2688  1  0.865100  0.962400  0.084400  1.0
  C  C2689  1  0.403900  0.530300  0.078600  1.0
  C  C2690  1  0.096100  0.030300  0.921400  1.0
  C  C2691  1  0.596100  0.469700  0.921400  1.0
  C  C2692  1  0.903900  0.969700  0.078600  1.0
  C  C2693  1  0.386900  0.410100  0.104100  1.0
  C  C2694  1  0.113100  0.910100  0.895900  1.0
  C  C2695  1  0.613100  0.589900  0.895900  1.0
  C  C2696  1  0.886900  0.089900  0.104100  1.0
  C  C2697  1  0.377300  0.427700  0.127000  1.0
  C  C2698  1  0.122700  0.927700  0.873000  1.0
  C  C2699  1  0.622700  0.572300  0.873000  1.0
  C  C2700  1  0.877300  0.072300  0.127000  1.0
  C  C2701  1  0.345100  0.450000  0.119100  1.0
  C  C2702  1  0.154900  0.950000  0.880900  1.0
  C  C2703  1  0.654900  0.550000  0.880900  1.0
  C  C2704  1  0.845100  0.050000  0.119100  1.0
  C  C2705  1  0.323700  0.454400  0.087500  1.0
  C  C2706  1  0.176300  0.954400  0.912500  1.0
  C  C2707  1  0.676300  0.545600  0.912500  1.0
  C  C2708  1  0.823700  0.045600  0.087500  1.0
  C  C2709  1  0.334800  0.441900  0.063100  1.0
  C  C2710  1  0.165200  0.941900  0.936900  1.0
  C  C2711  1  0.665200  0.558100  0.936900  1.0
  C  C2712  1  0.834800  0.058100  0.063100  1.0
  C  C2713  1  0.367400  0.418500  0.071500  1.0
  C  C2714  1  0.132600  0.918500  0.928500  1.0
  C  C2715  1  0.632600  0.581500  0.928500  1.0
  C  C2716  1  0.867400  0.081500  0.071500  1.0
  C  C2717  1  0.416100  0.356100  0.103800  1.0
  C  C2718  1  0.083900  0.856100  0.896200  1.0
  C  C2719  1  0.583900  0.643900  0.896200  1.0
  C  C2720  1  0.916100  0.143900  0.103800  1.0
  C  C2721  1  0.450200  0.335000  0.107600  1.0
  C  C2722  1  0.049800  0.835000  0.892400  1.0
  C  C2723  1  0.549800  0.665000  0.892400  1.0
  C  C2724  1  0.950200  0.165000  0.107600  1.0
  C  C2725  1  0.451000  0.300000  0.099700  1.0
  C  C2726  1  0.049000  0.800000  0.900300  1.0
  C  C2727  1  0.549000  0.700000  0.900300  1.0
  C  C2728  1  0.951000  0.200000  0.099700  1.0
  C  C2729  1  0.485800  0.282800  0.105400  1.0
  C  C2730  1  0.014200  0.782800  0.894600  1.0
  C  C2731  1  0.514200  0.717200  0.894600  1.0
  C  C2732  1  0.985800  0.217200  0.105400  1.0
  C  C2733  1  0.520400  0.302100  0.116600  1.0
  C  C2734  1  0.979600  0.802100  0.883400  1.0
  C  C2735  1  0.479600  0.697900  0.883400  1.0
  C  C2736  1  0.020400  0.197900  0.116600  1.0
  C  C2737  1  0.516800  0.337800  0.122900  1.0
  C  C2738  1  0.983200  0.837800  0.877100  1.0
  C  C2739  1  0.483200  0.662200  0.877100  1.0
  C  C2740  1  0.016800  0.162200  0.122900  1.0
  C  C2741  1  0.560600  0.288600  0.123300  1.0
  C  C2742  1  0.939400  0.788600  0.876700  1.0
  C  C2743  1  0.439400  0.711400  0.876700  1.0
  C  C2744  1  0.060600  0.211400  0.123300  1.0
  C  C2745  1  0.571500  0.266500  0.102000  1.0
  C  C2746  1  0.928500  0.766500  0.898000  1.0
  C  C2747  1  0.428500  0.733500  0.898000  1.0
  C  C2748  1  0.071500  0.233500  0.102000  1.0
  C  C2749  1  0.610600  0.258900  0.111000  1.0
  C  C2750  1  0.889400  0.758900  0.889000  1.0
  C  C2751  1  0.389400  0.741100  0.889000  1.0
  C  C2752  1  0.110600  0.241100  0.111000  1.0
  C  C2753  1  0.636700  0.276000  0.139200  1.0
  C  C2754  1  0.863300  0.776000  0.860800  1.0
  C  C2755  1  0.363300  0.724000  0.860800  1.0
  C  C2756  1  0.136700  0.224000  0.139200  1.0
  C  C2757  1  0.696300  0.290400  0.126500  1.0
  C  C2758  1  0.803700  0.790400  0.873500  1.0
  C  C2759  1  0.303700  0.709600  0.873500  1.0
  C  C2760  1  0.196300  0.209600  0.126500  1.0
  C  C2761  1  0.679600  0.275300  0.147700  1.0
  C  C2762  1  0.820400  0.775300  0.852300  1.0
  C  C2763  1  0.320400  0.724700  0.852300  1.0
  C  C2764  1  0.179600  0.224700  0.147700  1.0
  C  C2765  1  0.702900  0.261100  0.177800  1.0
  C  C2766  1  0.797100  0.761100  0.822200  1.0
  C  C2767  1  0.297100  0.738900  0.822200  1.0
  C  C2768  1  0.202900  0.238900  0.177800  1.0
  C  C2769  1  0.742800  0.260600  0.184100  1.0
  C  C2770  1  0.757200  0.760600  0.815900  1.0
  C  C2771  1  0.257200  0.739400  0.815900  1.0
  C  C2772  1  0.242800  0.239400  0.184100  1.0
  C  C2773  1  0.757500  0.275400  0.161500  1.0
  C  C2774  1  0.742500  0.775400  0.838500  1.0
  C  C2775  1  0.242500  0.724600  0.838500  1.0
  C  C2776  1  0.257500  0.224600  0.161500  1.0
  C  C2777  1  0.798900  0.276500  0.165200  1.0
  C  C2778  1  0.701100  0.776500  0.834800  1.0
  C  C2779  1  0.201100  0.723500  0.834800  1.0
  C  C2780  1  0.298900  0.223500  0.165200  1.0
  C  C2781  1  0.846100  0.290100  0.142800  1.0
  C  C2782  1  0.653900  0.790100  0.857200  1.0
  C  C2783  1  0.153900  0.709900  0.857200  1.0
  C  C2784  1  0.346100  0.209900  0.142800  1.0
  C  C2785  1  0.861000  0.257300  0.141500  1.0
  C  C2786  1  0.639000  0.757300  0.858500  1.0
  C  C2787  1  0.139000  0.742700  0.858500  1.0
  C  C2788  1  0.361000  0.242700  0.141500  1.0
  C  C2789  1  0.898800  0.255500  0.140900  1.0
  C  C2790  1  0.601200  0.755500  0.859100  1.0
  C  C2791  1  0.101200  0.744500  0.859100  1.0
  C  C2792  1  0.398800  0.244500  0.140900  1.0
  C  C2793  1  0.919400  0.285400  0.142000  1.0
  C  C2794  1  0.580600  0.785400  0.858000  1.0
  C  C2795  1  0.080600  0.714600  0.858000  1.0
  C  C2796  1  0.419400  0.214600  0.142000  1.0
  C  C2797  1  0.904500  0.318600  0.142400  1.0
  C  C2798  1  0.595500  0.818600  0.857600  1.0
  C  C2799  1  0.095500  0.681400  0.857600  1.0
  C  C2800  1  0.404500  0.181400  0.142400  1.0
  C  C2801  1  0.866900  0.320400  0.143500  1.0
  C  C2802  1  0.633100  0.820400  0.856500  1.0
  C  C2803  1  0.133100  0.679600  0.856500  1.0
  C  C2804  1  0.366900  0.179600  0.143500  1.0
  C  C2805  1  0.540900  0.250100  0.071200  1.0
  C  C2806  1  0.959100  0.750100  0.928800  1.0
  C  C2807  1  0.459100  0.749900  0.928800  1.0
  C  C2808  1  0.040900  0.249900  0.071200  1.0
  C  C2809  1  0.526700  0.212800  0.074900  1.0
  C  C2810  1  0.973300  0.712800  0.925100  1.0
  C  C2811  1  0.473300  0.787200  0.925100  1.0
  C  C2812  1  0.026700  0.287200  0.074900  1.0
  C  C2813  1  0.555200  0.182700  0.077700  1.0
  C  C2814  1  0.944800  0.682700  0.922300  1.0
  C  C2815  1  0.444800  0.817300  0.922300  1.0
  C  C2816  1  0.055200  0.317300  0.077700  1.0
  C  C2817  1  0.590600  0.182600  0.111000  1.0
  C  C2818  1  0.909400  0.682600  0.889000  1.0
  C  C2819  1  0.409400  0.817400  0.889000  1.0
  C  C2820  1  0.090600  0.317400  0.111000  1.0
  C  C2821  1  0.629000  0.195500  0.108400  1.0
  C  C2822  1  0.871000  0.695500  0.891600  1.0
  C  C2823  1  0.371000  0.804500  0.891600  1.0
  C  C2824  1  0.129000  0.304500  0.108400  1.0
  C  C2825  1  0.626400  0.232100  0.092200  1.0
  C  C2826  1  0.873600  0.732100  0.907800  1.0
  C  C2827  1  0.373600  0.767900  0.907800  1.0
  C  C2828  1  0.126400  0.267900  0.092200  1.0
  C  C2829  1  0.738500  0.236100  0.078200  1.0
  C  C2830  1  0.761500  0.736100  0.921800  1.0
  C  C2831  1  0.261500  0.763900  0.921800  1.0
  C  C2832  1  0.238500  0.263900  0.078200  1.0
  C  C2833  1  0.710600  0.226900  0.049100  1.0
  C  C2834  1  0.789400  0.726900  0.950900  1.0
  C  C2835  1  0.289400  0.773100  0.950900  1.0
  C  C2836  1  0.210600  0.273100  0.049100  1.0
  C  C2837  1  0.689000  0.196100  0.047000  1.0
  C  C2838  1  0.811000  0.696100  0.953000  1.0
  C  C2839  1  0.311000  0.803900  0.953000  1.0
  C  C2840  1  0.189000  0.303900  0.047000  1.0
  C  C2841  1  0.696800  0.175600  0.073800  1.0
  C  C2842  1  0.803200  0.675600  0.926200  1.0
  C  C2843  1  0.303200  0.824400  0.926200  1.0
  C  C2844  1  0.196800  0.324400  0.073800  1.0
  C  C2845  1  0.724700  0.182900  0.103400  1.0
  C  C2846  1  0.775300  0.682900  0.896600  1.0
  C  C2847  1  0.275300  0.817100  0.896600  1.0
  C  C2848  1  0.224700  0.317100  0.103400  1.0
  C  C2849  1  0.746000  0.214600  0.105900  1.0
  C  C2850  1  0.754000  0.714600  0.894100  1.0
  C  C2851  1  0.254000  0.785400  0.894100  1.0
  C  C2852  1  0.246000  0.285400  0.105900  1.0
  C  C2853  1  0.783600  0.268400  0.064200  1.0
  C  C2854  1  0.716400  0.768400  0.935800  1.0
  C  C2855  1  0.216400  0.731600  0.935800  1.0
  C  C2856  1  0.283600  0.231600  0.064200  1.0
  C  C2857  1  0.805100  0.299800  0.063900  1.0
  C  C2858  1  0.694900  0.799800  0.936100  1.0
  C  C2859  1  0.194900  0.700200  0.936100  1.0
  C  C2860  1  0.305100  0.200200  0.063900  1.0
  C  C2861  1  0.831600  0.304200  0.048900  1.0
  C  C2862  1  0.668400  0.804200  0.951100  1.0
  C  C2863  1  0.168400  0.695800  0.951100  1.0
  C  C2864  1  0.331600  0.195800  0.048900  1.0
  C  C2865  1  0.848200  0.336600  0.049600  1.0
  C  C2866  1  0.651800  0.836600  0.950400  1.0
  C  C2867  1  0.151800  0.663400  0.950400  1.0
  C  C2868  1  0.348200  0.163400  0.049600  1.0
  C  C2869  1  0.838400  0.364800  0.066200  1.0
  C  C2870  1  0.661600  0.864800  0.933800  1.0
  C  C2871  1  0.161600  0.635200  0.933800  1.0
  C  C2872  1  0.338400  0.135200  0.066200  1.0
  C  C2873  1  0.812500  0.357400  0.081700  1.0
  C  C2874  1  0.687500  0.857400  0.918300  1.0
  C  C2875  1  0.187500  0.642600  0.918300  1.0
  C  C2876  1  0.312500  0.142600  0.081700  1.0
  C  C2877  1  0.856900  0.400600  0.070400  1.0
  C  C2878  1  0.643100  0.900600  0.929600  1.0
  C  C2879  1  0.143100  0.599400  0.929600  1.0
  C  C2880  1  0.356900  0.099400  0.070400  1.0
  C  C2881  1  0.860100  0.421500  0.044300  1.0
  C  C2882  1  0.639900  0.921500  0.955700  1.0
  C  C2883  1  0.139900  0.578500  0.955700  1.0
  C  C2884  1  0.360100  0.078500  0.044300  1.0
  C  C2885  1  0.876000  0.454300  0.052900  1.0
  C  C2886  1  0.624000  0.954300  0.947100  1.0
  C  C2887  1  0.124000  0.545700  0.947100  1.0
  C  C2888  1  0.376000  0.045700  0.052900  1.0
  C  C2889  1  0.887800  0.463800  0.087000  1.0
  C  C2890  1  0.612200  0.963800  0.913000  1.0
  C  C2891  1  0.112200  0.536200  0.913000  1.0
  C  C2892  1  0.387800  0.036200  0.087000  1.0
  C  C2893  1  0.879200  0.529200  0.087100  1.0
  C  C2894  1  0.620800  0.029200  0.912900  1.0
  C  C2895  1  0.120800  0.470800  0.912900  1.0
  C  C2896  1  0.379200  0.970800  0.087100  1.0
  C  C2897  1  0.901700  0.499800  0.099700  1.0
  C  C2898  1  0.598300  0.999800  0.900300  1.0
  C  C2899  1  0.098300  0.500200  0.900300  1.0
  C  C2900  1  0.401700  0.000200  0.099700  1.0
  C  C2901  1  0.935900  0.503600  0.126800  1.0
  C  C2902  1  0.564100  0.003600  0.873200  1.0
  C  C2903  1  0.064100  0.496400  0.873200  1.0
  C  C2904  1  0.435900  0.996400  0.126800  1.0
  C  C2905  1  0.947300  0.537900  0.138900  1.0
  C  C2906  1  0.552700  0.037900  0.861100  1.0
  C  C2907  1  0.052700  0.462100  0.861100  1.0
  C  C2908  1  0.447300  0.962100  0.138900  1.0
  C  C2909  1  0.921600  0.564600  0.124200  1.0
  C  C2910  1  0.578400  0.064600  0.875800  1.0
  C  C2911  1  0.078400  0.435400  0.875800  1.0
  C  C2912  1  0.421600  0.935400  0.124200  1.0
  C  C2913  1  0.928700  0.601200  0.135100  1.0
  C  C2914  1  0.571300  0.101200  0.864900  1.0
  C  C2915  1  0.071300  0.398800  0.864900  1.0
  C  C2916  1  0.428700  0.898800  0.135100  1.0
  C  C2917  1  0.910600  0.659400  0.128000  1.0
  C  C2918  1  0.589400  0.159400  0.872000  1.0
  C  C2919  1  0.089400  0.340600  0.872000  1.0
  C  C2920  1  0.410600  0.840600  0.128000  1.0
  C  C2921  1  0.939600  0.675800  0.119500  1.0
  C  C2922  1  0.560400  0.175800  0.880500  1.0
  C  C2923  1  0.060400  0.324200  0.880500  1.0
  C  C2924  1  0.439600  0.824200  0.119500  1.0
  C  C2925  1  0.945500  0.712100  0.125000  1.0
  C  C2926  1  0.554500  0.212100  0.875000  1.0
  C  C2927  1  0.054500  0.287900  0.875000  1.0
  C  C2928  1  0.445500  0.787900  0.125000  1.0
  C  C2929  1  0.919800  0.731100  0.134300  1.0
  C  C2930  1  0.580200  0.231100  0.865700  1.0
  C  C2931  1  0.080200  0.268900  0.865700  1.0
  C  C2932  1  0.419800  0.768900  0.134300  1.0
  C  C2933  1  0.891500  0.716000  0.143700  1.0
  C  C2934  1  0.608500  0.216000  0.856300  1.0
  C  C2935  1  0.108500  0.284000  0.856300  1.0
  C  C2936  1  0.391500  0.784000  0.143700  1.0
  C  C2937  1  0.887300  0.678700  0.140200  1.0
  C  C2938  1  0.612700  0.178700  0.859800  1.0
  C  C2939  1  0.112700  0.321300  0.859800  1.0
  C  C2940  1  0.387300  0.821300  0.140200  1.0
  C  C2941  1  0.839700  0.410800  0.007500  1.0
  C  C2942  1  0.660300  0.910800  0.992500  1.0
  C  C2943  1  0.160300  0.589200  0.992500  1.0
  C  C2944  1  0.339700  0.089200  0.007500  1.0
  C  C2945  1  0.867200  0.395600  0.991300  1.0
  C  C2946  1  0.632800  0.895600  0.008700  1.0
  C  C2947  1  0.132800  0.604400  0.008700  1.0
  C  C2948  1  0.367200  0.104400  0.991300  1.0
  C  C2949  1  0.897100  0.419900  0.985000  1.0
  C  C2950  1  0.602900  0.919900  0.015000  1.0
  C  C2951  1  0.102900  0.580100  0.015000  1.0
  C  C2952  1  0.397100  0.080100  0.985000  1.0
  C  C2953  1  0.929700  0.434500  0.016900  1.0
  C  C2954  1  0.570300  0.934500  0.983100  1.0
  C  C2955  1  0.070300  0.565500  0.983100  1.0
  C  C2956  1  0.429700  0.065500  0.016900  1.0
  C  C2957  1  0.922400  0.472400  0.024400  1.0
  C  C2958  1  0.577600  0.972400  0.975600  1.0
  C  C2959  1  0.077600  0.527600  0.975600  1.0
  C  C2960  1  0.422400  0.027600  0.024400  1.0
  C  C2961  1  0.882700  0.480100  0.027900  1.0
  C  C2962  1  0.617300  0.980100  0.972100  1.0
  C  C2963  1  0.117300  0.519900  0.972100  1.0
  C  C2964  1  0.382700  0.019900  0.027900  1.0
  C  C2965  1  0.672700  0.593000  0.471600  1.0
  C  C2966  1  0.827300  0.093000  0.528400  1.0
  C  C2967  1  0.327300  0.407000  0.528400  1.0
  C  C2968  1  0.172700  0.907000  0.471600  1.0
  C  C2969  1  0.661400  0.562500  0.482600  1.0
  C  C2970  1  0.838600  0.062500  0.517400  1.0
  C  C2971  1  0.338600  0.437500  0.517400  1.0
  C  C2972  1  0.161400  0.937500  0.482600  1.0
  C  C2973  1  0.662300  0.559800  0.515100  1.0
  C  C2974  1  0.837700  0.059800  0.484900  1.0
  C  C2975  1  0.337700  0.440200  0.484900  1.0
  C  C2976  1  0.162300  0.940200  0.515100  1.0
  C  C2977  1  0.673900  0.588200  0.534700  1.0
  C  C2978  1  0.826100  0.088200  0.465300  1.0
  C  C2979  1  0.326100  0.411800  0.465300  1.0
  C  C2980  1  0.173900  0.911800  0.534700  1.0
  C  C2981  1  0.684600  0.618800  0.524800  1.0
  C  C2982  1  0.815400  0.118800  0.475200  1.0
  C  C2983  1  0.315400  0.381200  0.475200  1.0
  C  C2984  1  0.184600  0.881200  0.524800  1.0
  C  C2985  1  0.684800  0.621000  0.492400  1.0
  C  C2986  1  0.815200  0.121000  0.507600  1.0
  C  C2987  1  0.315200  0.379000  0.507600  1.0
  C  C2988  1  0.184800  0.879000  0.492400  1.0
  C  C2989  1  0.693400  0.574600  0.428600  1.0
  C  C2990  1  0.806600  0.074600  0.571400  1.0
  C  C2991  1  0.306600  0.425400  0.571400  1.0
  C  C2992  1  0.193400  0.925400  0.428600  1.0
  C  C2993  1  0.692000  0.577200  0.394720  1.0
  C  C2994  1  0.808000  0.077200  0.605280  1.0
  C  C2995  1  0.308000  0.422800  0.605280  1.0
  C  C2996  1  0.192000  0.922800  0.394720  1.0
  C  C2997  1  0.711500  0.555200  0.380900  1.0
  C  C2998  1  0.788500  0.055200  0.619100  1.0
  C  C2999  1  0.288500  0.444800  0.619100  1.0
  C  C3000  1  0.211500  0.944800  0.380900  1.0
  C  C3001  1  0.708600  0.560500  0.348400  1.0
  C  C3002  1  0.791400  0.060500  0.651600  1.0
  C  C3003  1  0.291400  0.439500  0.651600  1.0
  C  C3004  1  0.208600  0.939500  0.348400  1.0
  C  C3005  1  0.686800  0.589100  0.330600  1.0
  C  C3006  1  0.813200  0.089100  0.669400  1.0
  C  C3007  1  0.313200  0.410900  0.669400  1.0
  C  C3008  1  0.186800  0.910900  0.330600  1.0
  C  C3009  1  0.667300  0.609400  0.346400  1.0
  C  C3010  1  0.832700  0.109400  0.653600  1.0
  C  C3011  1  0.332700  0.390600  0.653600  1.0
  C  C3012  1  0.167300  0.890600  0.346400  1.0
  C  C3013  1  0.683400  0.598300  0.295800  1.0
  C  C3014  1  0.816600  0.098300  0.704200  1.0
  C  C3015  1  0.316600  0.401700  0.704200  1.0
  C  C3016  1  0.183400  0.901700  0.295800  1.0
  C  C3017  1  0.714400  0.599800  0.283500  1.0
  C  C3018  1  0.785600  0.099800  0.716500  1.0
  C  C3019  1  0.285600  0.400200  0.716500  1.0
  C  C3020  1  0.214400  0.900200  0.283500  1.0
  C  C3021  1  0.703900  0.605700  0.249600  1.0
  C  C3022  1  0.796100  0.105700  0.750400  1.0
  C  C3023  1  0.296100  0.394300  0.750400  1.0
  C  C3024  1  0.203900  0.894300  0.249600  1.0
  C  C3025  1  0.663300  0.610700  0.231100  1.0
  C  C3026  1  0.836700  0.110700  0.768900  1.0
  C  C3027  1  0.336700  0.389300  0.768900  1.0
  C  C3028  1  0.163300  0.889300  0.231100  1.0
  C  C3029  1  0.623900  0.646600  0.182300  1.0
  C  C3030  1  0.876100  0.146600  0.817700  1.0
  C  C3031  1  0.376100  0.353400  0.817700  1.0
  C  C3032  1  0.123900  0.853400  0.182300  1.0
  C  C3033  1  0.645900  0.616400  0.194400  1.0
  C  C3034  1  0.854100  0.116400  0.805600  1.0
  C  C3035  1  0.354100  0.383600  0.805600  1.0
  C  C3036  1  0.145900  0.883600  0.194400  1.0
  C  C3037  1  0.654500  0.594600  0.172500  1.0
  C  C3038  1  0.845500  0.094600  0.827500  1.0
  C  C3039  1  0.345500  0.405400  0.827500  1.0
  C  C3040  1  0.154500  0.905400  0.172500  1.0
  C  C3041  1  0.640600  0.604100  0.139300  1.0
  C  C3042  1  0.859400  0.104100  0.860700  1.0
  C  C3043  1  0.359400  0.395900  0.860700  1.0
  C  C3044  1  0.140600  0.895900  0.139300  1.0
  C  C3045  1  0.620800  0.635000  0.129500  1.0
  C  C3046  1  0.879200  0.135000  0.870500  1.0
  C  C3047  1  0.379200  0.365000  0.870500  1.0
  C  C3048  1  0.120800  0.865000  0.129500  1.0
  C  C3049  1  0.607800  0.648700  0.094900  1.0
  C  C3050  1  0.892200  0.148700  0.905100  1.0
  C  C3051  1  0.392200  0.351300  0.905100  1.0
  C  C3052  1  0.107800  0.851300  0.094900  1.0
  C  C3053  1  0.584600  0.694900  0.057100  1.0
  C  C3054  1  0.915400  0.194900  0.942900  1.0
  C  C3055  1  0.415400  0.305100  0.942900  1.0
  C  C3056  1  0.084600  0.805100  0.057100  1.0
  C  C3057  1  0.546900  0.703600  0.039100  1.0
  C  C3058  1  0.953100  0.203600  0.960900  1.0
  C  C3059  1  0.453100  0.296400  0.960900  1.0
  C  C3060  1  0.046900  0.796400  0.039100  1.0
  C  C3061  1  0.537400  0.716300  0.006700  1.0
  C  C3062  1  0.962600  0.216300  0.993300  1.0
  C  C3063  1  0.462600  0.283700  0.993300  1.0
  C  C3064  1  0.037400  0.783700  0.006700  1.0
  C  C3065  1  0.567000  0.726100  0.996200  1.0
  C  C3066  1  0.933000  0.226100  0.003800  1.0
  C  C3067  1  0.433000  0.273900  0.003800  1.0
  C  C3068  1  0.067000  0.773900  0.996200  1.0
  C  C3069  1  0.605300  0.717600  0.012800  1.0
  C  C3070  1  0.894700  0.217600  0.987200  1.0
  C  C3071  1  0.394700  0.282400  0.987200  1.0
  C  C3072  1  0.105300  0.782400  0.012800  1.0
  C  C3073  1  0.613400  0.700500  0.043700  1.0
  C  C3074  1  0.886600  0.200500  0.956300  1.0
  C  C3075  1  0.386600  0.299500  0.956300  1.0
  C  C3076  1  0.113400  0.799500  0.043700  1.0
  C  C3077  1  0.757800  0.596100  0.305700  1.0
  C  C3078  1  0.742200  0.096100  0.694300  1.0
  C  C3079  1  0.242200  0.403900  0.694300  1.0
  C  C3080  1  0.257800  0.903900  0.305700  1.0
  C  C3081  1  0.778300  0.631600  0.316700  1.0
  C  C3082  1  0.721700  0.131600  0.683300  1.0
  C  C3083  1  0.221700  0.368400  0.683300  1.0
  C  C3084  1  0.278300  0.868400  0.316700  1.0
  C  C3085  1  0.790600  0.648400  0.289900  1.0
  C  C3086  1  0.709400  0.148400  0.710100  1.0
  C  C3087  1  0.209400  0.351600  0.710100  1.0
  C  C3088  1  0.290600  0.851600  0.289900  1.0
  C  C3089  1  0.760900  0.669200  0.261600  1.0
  C  C3090  1  0.739100  0.169200  0.738400  1.0
  C  C3091  1  0.239100  0.330800  0.738400  1.0
  C  C3092  1  0.260900  0.830800  0.261600  1.0
  C  C3093  1  0.740100  0.651300  0.229100  1.0
  C  C3094  1  0.759900  0.151300  0.770900  1.0
  C  C3095  1  0.259900  0.348700  0.770900  1.0
  C  C3096  1  0.240100  0.848700  0.229100  1.0
  C  C3097  1  0.735600  0.611100  0.234300  1.0
  C  C3098  1  0.764400  0.111100  0.765700  1.0
  C  C3099  1  0.264400  0.388900  0.765700  1.0
  C  C3100  1  0.235600  0.888900  0.234300  1.0
  C  C3101  1  0.756500  0.347500  0.467100  1.0
  C  C3102  1  0.743500  0.847500  0.532900  1.0
  C  C3103  1  0.243500  0.652500  0.532900  1.0
  C  C3104  1  0.256500  0.152500  0.467100  1.0
  C  C3105  1  0.743900  0.359900  0.491100  1.0
  C  C3106  1  0.756100  0.859900  0.508900  1.0
  C  C3107  1  0.256100  0.640100  0.508900  1.0
  C  C3108  1  0.243900  0.140100  0.491100  1.0
  C  C3109  1  0.764500  0.351700  0.524500  1.0
  C  C3110  1  0.735500  0.851700  0.475500  1.0
  C  C3111  1  0.235500  0.648300  0.475500  1.0
  C  C3112  1  0.264500  0.148300  0.524500  1.0
  C  C3113  1  0.796900  0.332000  0.532100  1.0
  C  C3114  1  0.703100  0.832000  0.467900  1.0
  C  C3115  1  0.203100  0.668000  0.467900  1.0
  C  C3116  1  0.296900  0.168000  0.532100  1.0
  C  C3117  1  0.810400  0.318800  0.509400  1.0
  C  C3118  1  0.689600  0.818800  0.490600  1.0
  C  C3119  1  0.189600  0.681200  0.490600  1.0
  C  C3120  1  0.310400  0.181200  0.509400  1.0
  C  C3121  1  0.789100  0.327100  0.475700  1.0
  C  C3122  1  0.710900  0.827100  0.524300  1.0
  C  C3123  1  0.210900  0.672900  0.524300  1.0
  C  C3124  1  0.289100  0.172900  0.475700  1.0
  C  C3125  1  0.748400  0.386200  0.423900  1.0
  C  C3126  1  0.751600  0.886200  0.576100  1.0
  C  C3127  1  0.251600  0.613800  0.576100  1.0
  C  C3128  1  0.248400  0.113800  0.423900  1.0
  C  C3129  1  0.728500  0.398800  0.391100  1.0
  C  C3130  1  0.771500  0.898800  0.608900  1.0
  C  C3131  1  0.271500  0.601200  0.608900  1.0
  C  C3132  1  0.228500  0.101200  0.391100  1.0
  C  C3133  1  0.739100  0.427100  0.376500  1.0
  C  C3134  1  0.760900  0.927100  0.623500  1.0
  C  C3135  1  0.260900  0.572900  0.623500  1.0
  C  C3136  1  0.239100  0.072900  0.376500  1.0
  C  C3137  1  0.717800  0.436200  0.344600  1.0
  C  C3138  1  0.782200  0.936200  0.655400  1.0
  C  C3139  1  0.282200  0.563800  0.655400  1.0
  C  C3140  1  0.217800  0.063800  0.344600  1.0
  C  C3141  1  0.684600  0.416300  0.327760  1.0
  C  C3142  1  0.815400  0.916300  0.672240  1.0
  C  C3143  1  0.315400  0.583700  0.672240  1.0
  C  C3144  1  0.184600  0.083700  0.327760  1.0
  C  C3145  1  0.675400  0.388100  0.344000  1.0
  C  C3146  1  0.824600  0.888100  0.656000  1.0
  C  C3147  1  0.324600  0.611900  0.656000  1.0
  C  C3148  1  0.175400  0.111900  0.344000  1.0
  C  C3149  1  0.555900  0.416200  0.183200  1.0
  C  C3150  1  0.944100  0.916200  0.816800  1.0
  C  C3151  1  0.444100  0.583800  0.816800  1.0
  C  C3152  1  0.055900  0.083800  0.183200  1.0
  C  C3153  1  0.592900  0.430200  0.193300  1.0
  C  C3154  1  0.907100  0.930200  0.806700  1.0
  C  C3155  1  0.407100  0.569800  0.806700  1.0
  C  C3156  1  0.092900  0.069800  0.193300  1.0
  C  C3157  1  0.607300  0.444600  0.170500  1.0
  C  C3158  1  0.892700  0.944600  0.829500  1.0
  C  C3159  1  0.392700  0.555400  0.829500  1.0
  C  C3160  1  0.107300  0.055400  0.170500  1.0
  C  C3161  1  0.582800  0.444400  0.137800  1.0
  C  C3162  1  0.917200  0.944400  0.862200  1.0
  C  C3163  1  0.417200  0.555600  0.862200  1.0
  C  C3164  1  0.082800  0.055600  0.137800  1.0
  C  C3165  1  0.545700  0.431100  0.129300  1.0
  C  C3166  1  0.954300  0.931100  0.870700  1.0
  C  C3167  1  0.454300  0.568900  0.870700  1.0
  C  C3168  1  0.045700  0.068900  0.129300  1.0
  C  C3169  1  0.516700  0.430600  0.095200  1.0
  C  C3170  1  0.983300  0.930600  0.904800  1.0
  C  C3171  1  0.483300  0.569400  0.904800  1.0
  C  C3172  1  0.016700  0.069400  0.095200  1.0
  C  C3173  1  0.455300  0.419200  0.057500  1.0
  C  C3174  1  0.044700  0.919200  0.942500  1.0
  C  C3175  1  0.544700  0.580800  0.942500  1.0
  C  C3176  1  0.955300  0.080800  0.057500  1.0
  C  C3177  1  0.443600  0.450400  0.041100  1.0
  C  C3178  1  0.056400  0.950400  0.958900  1.0
  C  C3179  1  0.556400  0.549600  0.958900  1.0
  C  C3180  1  0.943600  0.049600  0.041100  1.0
  C  C3181  1  0.418400  0.449500  0.007700  1.0
  C  C3182  1  0.081600  0.949500  0.992300  1.0
  C  C3183  1  0.581600  0.550500  0.992300  1.0
  C  C3184  1  0.918400  0.050500  0.007700  1.0
  C  C3185  1  0.408200  0.417700  0.992900  1.0
  C  C3186  1  0.091800  0.917700  0.007100  1.0
  C  C3187  1  0.591800  0.582300  0.007100  1.0
  C  C3188  1  0.908200  0.082300  0.992900  1.0
  C  C3189  1  0.420900  0.386200  0.008400  1.0
  C  C3190  1  0.079100  0.886200  0.991600  1.0
  C  C3191  1  0.579100  0.613800  0.991600  1.0
  C  C3192  1  0.920900  0.113800  0.008400  1.0
  C  C3193  1  0.446000  0.387700  0.041300  1.0
  C  C3194  1  0.054000  0.887700  0.958700  1.0
  C  C3195  1  0.554000  0.612300  0.958700  1.0
  C  C3196  1  0.946000  0.112300  0.041300  1.0
  C  C3197  1  0.696400  0.322300  0.038100  1.0
  C  C3198  1  0.803600  0.822300  0.961900  1.0
  C  C3199  1  0.303600  0.677700  0.961900  1.0
  C  C3200  1  0.196400  0.177700  0.038100  1.0
  C  C3201  1  0.708900  0.333200  0.013600  1.0
  C  C3202  1  0.791100  0.833200  0.986400  1.0
  C  C3203  1  0.291100  0.666800  0.986400  1.0
  C  C3204  1  0.208900  0.166800  0.013600  1.0
  C  C3205  1  0.687700  0.323700  0.980500  1.0
  C  C3206  1  0.812300  0.823700  0.019500  1.0
  C  C3207  1  0.312300  0.676300  0.019500  1.0
  C  C3208  1  0.187700  0.176300  0.980500  1.0
  C  C3209  1  0.657200  0.302400  0.975700  1.0
  C  C3210  1  0.842800  0.802400  0.024300  1.0
  C  C3211  1  0.342800  0.697600  0.024300  1.0
  C  C3212  1  0.157200  0.197600  0.975700  1.0
  C  C3213  1  0.642100  0.292000  0.998100  1.0
  C  C3214  1  0.857900  0.792000  0.001900  1.0
  C  C3215  1  0.357900  0.708000  0.001900  1.0
  C  C3216  1  0.142100  0.208000  0.998100  1.0
  C  C3217  1  0.664200  0.302500  0.031600  1.0
  C  C3218  1  0.835800  0.802500  0.968400  1.0
  C  C3219  1  0.335800  0.697500  0.968400  1.0
  C  C3220  1  0.164200  0.197500  0.031600  1.0
  C  C3221  1  0.709100  0.365300  0.079200  1.0
  C  C3222  1  0.790900  0.865300  0.920800  1.0
  C  C3223  1  0.290900  0.634700  0.920800  1.0
  C  C3224  1  0.209100  0.134700  0.079200  1.0
  C  C3225  1  0.731900  0.378200  0.111800  1.0
  C  C3226  1  0.768100  0.878200  0.888200  1.0
  C  C3227  1  0.268100  0.621800  0.888200  1.0
  C  C3228  1  0.231900  0.121800  0.111800  1.0
  C  C3229  1  0.723000  0.407700  0.125800  1.0
  C  C3230  1  0.777000  0.907700  0.874200  1.0
  C  C3231  1  0.277000  0.592300  0.874200  1.0
  C  C3232  1  0.223000  0.092300  0.125800  1.0
  C  C3233  1  0.745000  0.416600  0.157800  1.0
  C  C3234  1  0.755000  0.916600  0.842200  1.0
  C  C3235  1  0.255000  0.583400  0.842200  1.0
  C  C3236  1  0.245000  0.083400  0.157800  1.0
  C  C3237  1  0.775300  0.394500  0.175600  1.0
  C  C3238  1  0.724700  0.894500  0.824400  1.0
  C  C3239  1  0.224700  0.605500  0.824400  1.0
  C  C3240  1  0.275300  0.105500  0.175600  1.0
  C  C3241  1  0.783000  0.365300  0.160000  1.0
  C  C3242  1  0.717000  0.865300  0.840000  1.0
  C  C3243  1  0.217000  0.634700  0.840000  1.0
  C  C3244  1  0.283000  0.134700  0.160000  1.0
  C  C3245  1  0.796700  0.398200  0.212300  1.0
  C  C3246  1  0.703300  0.898200  0.787700  1.0
  C  C3247  1  0.203300  0.601800  0.787700  1.0
  C  C3248  1  0.296700  0.101800  0.212300  1.0
  C  C3249  1  0.780000  0.401500  0.236900  1.0
  C  C3250  1  0.720000  0.901500  0.763100  1.0
  C  C3251  1  0.220000  0.598500  0.763100  1.0
  C  C3252  1  0.280000  0.098500  0.236900  1.0
  C  C3253  1  0.805200  0.405500  0.268800  1.0
  C  C3254  1  0.694800  0.905500  0.731200  1.0
  C  C3255  1  0.194800  0.594500  0.731200  1.0
  C  C3256  1  0.305200  0.094500  0.268800  1.0
  C  C3257  1  0.845700  0.410200  0.273400  1.0
  C  C3258  1  0.654300  0.910200  0.726600  1.0
  C  C3259  1  0.154300  0.589800  0.726600  1.0
  C  C3260  1  0.345700  0.089800  0.273400  1.0
  C  C3261  1  0.912400  0.399000  0.315100  1.0
  C  C3262  1  0.587600  0.899000  0.684900  1.0
  C  C3263  1  0.087600  0.601000  0.684900  1.0
  C  C3264  1  0.412400  0.101000  0.315100  1.0
  C  C3265  1  0.878000  0.418200  0.305500  1.0
  C  C3266  1  0.622000  0.918200  0.694500  1.0
  C  C3267  1  0.122000  0.581800  0.694500  1.0
  C  C3268  1  0.378000  0.081800  0.305500  1.0
  C  C3269  1  0.874800  0.444900  0.326000  1.0
  C  C3270  1  0.625200  0.944900  0.674000  1.0
  C  C3271  1  0.125200  0.555100  0.674000  1.0
  C  C3272  1  0.374800  0.055100  0.326000  1.0
  C  C3273  1  0.904900  0.449400  0.356600  1.0
  C  C3274  1  0.595100  0.949400  0.643400  1.0
  C  C3275  1  0.095100  0.550600  0.643400  1.0
  C  C3276  1  0.404900  0.050600  0.356600  1.0
  C  C3277  1  0.936800  0.427600  0.364900  1.0
  C  C3278  1  0.563200  0.927600  0.635100  1.0
  C  C3279  1  0.063200  0.572400  0.635100  1.0
  C  C3280  1  0.436800  0.072400  0.364900  1.0
  C  C3281  1  0.968900  0.428400  0.396800  1.0
  C  C3282  1  0.531100  0.928400  0.603200  1.0
  C  C3283  1  0.031100  0.571600  0.603200  1.0
  C  C3284  1  0.468900  0.071600  0.396800  1.0
  C  C3285  1  0.029400  0.409900  0.432100  1.0
  C  C3286  1  0.470600  0.909900  0.567900  1.0
  C  C3287  1  0.970600  0.590100  0.567900  1.0
  C  C3288  1  0.529400  0.090100  0.432100  1.0
  C  C3289  1  0.045400  0.442000  0.444300  1.0
  C  C3290  1  0.454600  0.942000  0.555700  1.0
  C  C3291  1  0.954600  0.558000  0.555700  1.0
  C  C3292  1  0.545400  0.058000  0.444300  1.0
  C  C3293  1  0.074700  0.444000  0.475700  1.0
  C  C3294  1  0.425300  0.944000  0.524300  1.0
  C  C3295  1  0.925300  0.556000  0.524300  1.0
  C  C3296  1  0.574700  0.056000  0.475700  1.0
  C  C3297  1  0.088000  0.413800  0.492200  1.0
  C  C3298  1  0.412000  0.913800  0.507800  1.0
  C  C3299  1  0.912000  0.586200  0.507800  1.0
  C  C3300  1  0.588000  0.086200  0.492200  1.0
  C  C3301  1  0.072400  0.381200  0.481100  1.0
  C  C3302  1  0.427600  0.881200  0.518900  1.0
  C  C3303  1  0.927600  0.618800  0.518900  1.0
  C  C3304  1  0.572400  0.118800  0.481100  1.0
  C  C3305  1  0.042300  0.379600  0.450100  1.0
  C  C3306  1  0.457700  0.879600  0.549900  1.0
  C  C3307  1  0.957700  0.620400  0.549900  1.0
  C  C3308  1  0.542300  0.120400  0.450100  1.0
  C  C3309  1  0.734900  0.397500  0.229300  1.0
  C  C3310  1  0.765100  0.897500  0.770700  1.0
  C  C3311  1  0.265100  0.602500  0.770700  1.0
  C  C3312  1  0.234900  0.102500  0.229300  1.0
  C  C3313  1  0.724800  0.358800  0.225800  1.0
  C  C3314  1  0.775200  0.858800  0.774200  1.0
  C  C3315  1  0.275200  0.641200  0.774200  1.0
  C  C3316  1  0.224800  0.141200  0.225800  1.0
  C  C3317  1  0.745100  0.337400  0.257900  1.0
  C  C3318  1  0.754900  0.837400  0.742100  1.0
  C  C3319  1  0.254900  0.662600  0.742100  1.0
  C  C3320  1  0.245100  0.162600  0.257900  1.0
  C  C3321  1  0.743800  0.357400  0.289600  1.0
  C  C3322  1  0.756200  0.857400  0.710400  1.0
  C  C3323  1  0.256200  0.642600  0.710400  1.0
  C  C3324  1  0.243800  0.142600  0.289600  1.0
  C  C3325  1  0.783000  0.373600  0.311300  1.0
  C  C3326  1  0.717000  0.873600  0.688700  1.0
  C  C3327  1  0.217000  0.626400  0.688700  1.0
  C  C3328  1  0.283000  0.126400  0.311300  1.0
  C  C3329  1  0.790600  0.409300  0.298400  1.0
  C  C3330  1  0.709400  0.909300  0.701600  1.0
  C  C3331  1  0.209400  0.590700  0.701600  1.0
  C  C3332  1  0.290600  0.090700  0.298400  1.0
  C  C3333  1  0.920000  0.627700  0.400900  1.0
  C  C3334  1  0.580000  0.127700  0.599100  1.0
  C  C3335  1  0.080000  0.372300  0.599100  1.0
  C  C3336  1  0.420000  0.872300  0.400900  1.0
  C  C3337  1  0.903900  0.614100  0.367500  1.0
  C  C3338  1  0.596100  0.114100  0.632500  1.0
  C  C3339  1  0.096100  0.385900  0.632500  1.0
  C  C3340  1  0.403900  0.885900  0.367500  1.0
  C  C3341  1  0.881000  0.584900  0.358500  1.0
  C  C3342  1  0.619000  0.084900  0.641500  1.0
  C  C3343  1  0.119000  0.415100  0.641500  1.0
  C  C3344  1  0.381000  0.915100  0.358500  1.0
  C  C3345  1  0.866600  0.575000  0.325800  1.0
  C  C3346  1  0.633400  0.075000  0.674200  1.0
  C  C3347  1  0.133400  0.425000  0.674200  1.0
  C  C3348  1  0.366600  0.925000  0.325800  1.0
  C  C3349  1  0.876900  0.594100  0.302910  1.0
  C  C3350  1  0.623100  0.094100  0.697090  1.0
  C  C3351  1  0.123100  0.405900  0.697090  1.0
  C  C3352  1  0.376900  0.905900  0.302910  1.0
  C  C3353  1  0.899100  0.624200  0.313800  1.0
  C  C3354  1  0.600900  0.124200  0.686200  1.0
  C  C3355  1  0.100900  0.375800  0.686200  1.0
  C  C3356  1  0.399100  0.875800  0.313800  1.0
  C  C3357  1  0.866000  0.585400  0.266700  1.0
  C  C3358  1  0.634000  0.085400  0.733300  1.0
  C  C3359  1  0.134000  0.414600  0.733300  1.0
  C  C3360  1  0.366000  0.914600  0.266700  1.0
  C  C3361  1  0.887000  0.562800  0.253700  1.0
  C  C3362  1  0.613000  0.062800  0.746300  1.0
  C  C3363  1  0.113000  0.437200  0.746300  1.0
  C  C3364  1  0.387000  0.937200  0.253700  1.0
  C  C3365  1  0.873200  0.557400  0.220500  1.0
  C  C3366  1  0.626800  0.057400  0.779500  1.0
  C  C3367  1  0.126800  0.442600  0.779500  1.0
  C  C3368  1  0.373200  0.942600  0.220500  1.0
  C  C3369  1  0.839600  0.576300  0.201800  1.0
  C  C3370  1  0.660400  0.076300  0.798200  1.0
  C  C3371  1  0.160400  0.423700  0.798200  1.0
  C  C3372  1  0.339600  0.923700  0.201800  1.0
  C  C3373  1  0.842200  0.590200  0.147000  1.0
  C  C3374  1  0.657800  0.090200  0.853000  1.0
  C  C3375  1  0.157800  0.409800  0.853000  1.0
  C  C3376  1  0.342200  0.909800  0.147000  1.0
  C  C3377  1  0.821800  0.574500  0.165000  1.0
  C  C3378  1  0.678200  0.074500  0.835000  1.0
  C  C3379  1  0.178200  0.425500  0.835000  1.0
  C  C3380  1  0.321800  0.925500  0.165000  1.0
  C  C3381  1  0.786700  0.557500  0.148800  1.0
  C  C3382  1  0.713300  0.057500  0.851200  1.0
  C  C3383  1  0.213300  0.442500  0.851200  1.0
  C  C3384  1  0.286700  0.942500  0.148800  1.0
  C  C3385  1  0.776200  0.553500  0.114500  1.0
  C  C3386  1  0.723800  0.053500  0.885500  1.0
  C  C3387  1  0.223800  0.446500  0.885500  1.0
  C  C3388  1  0.276200  0.946500  0.114500  1.0
  C  C3389  1  0.797600  0.570000  0.098400  1.0
  C  C3390  1  0.702400  0.070000  0.901600  1.0
  C  C3391  1  0.202400  0.430000  0.901600  1.0
  C  C3392  1  0.297600  0.930000  0.098400  1.0
  C  C3393  1  0.788700  0.567300  0.062400  1.0
  C  C3394  1  0.711300  0.067300  0.937600  1.0
  C  C3395  1  0.211300  0.432700  0.937600  1.0
  C  C3396  1  0.288700  0.932700  0.062400  1.0
  C  C3397  1  0.799200  0.584200  0.015000  1.0
  C  C3398  1  0.700800  0.084200  0.985000  1.0
  C  C3399  1  0.200800  0.415800  0.985000  1.0
  C  C3400  1  0.299200  0.915800  0.015000  1.0
  C  C3401  1  0.776100  0.612200  0.998600  1.0
  C  C3402  1  0.723900  0.112200  0.001400  1.0
  C  C3403  1  0.223900  0.387800  0.001400  1.0
  C  C3404  1  0.276100  0.887800  0.998600  1.0
  C  C3405  1  0.763300  0.613500  0.963800  1.0
  C  C3406  1  0.736700  0.113500  0.036200  1.0
  C  C3407  1  0.236700  0.386500  0.036200  1.0
  C  C3408  1  0.263300  0.886500  0.963800  1.0
  C  C3409  1  0.773900  0.586600  0.947800  1.0
  C  C3410  1  0.726100  0.086600  0.052200  1.0
  C  C3411  1  0.226100  0.413400  0.052200  1.0
  C  C3412  1  0.273900  0.913400  0.947800  1.0
  C  C3413  1  0.798500  0.559400  0.963500  1.0
  C  C3414  1  0.701500  0.059400  0.036500  1.0
  C  C3415  1  0.201500  0.440600  0.036500  1.0
  C  C3416  1  0.298500  0.940600  0.963500  1.0
  C  C3417  1  0.809600  0.557600  0.998300  1.0
  C  C3418  1  0.690400  0.057600  0.001700  1.0
  C  C3419  1  0.190400  0.442400  0.001700  1.0
  C  C3420  1  0.309600  0.942400  0.998300  1.0
  C  C3421  1  0.927300  0.547700  0.277300  1.0
  C  C3422  1  0.572700  0.047700  0.722700  1.0
  C  C3423  1  0.072700  0.452300  0.722700  1.0
  C  C3424  1  0.427300  0.952300  0.277300  1.0
  C  C3425  1  0.919700  0.509100  0.284300  1.0
  C  C3426  1  0.580300  0.009100  0.715700  1.0
  C  C3427  1  0.080300  0.490900  0.715700  1.0
  C  C3428  1  0.419700  0.990900  0.284300  1.0
  C  C3429  1  0.915000  0.484400  0.255200  1.0
  C  C3430  1  0.585000  0.984400  0.744800  1.0
  C  C3431  1  0.085000  0.515600  0.744800  1.0
  C  C3432  1  0.415000  0.015600  0.255200  1.0
  C  C3433  1  0.873800  0.487600  0.225500  1.0
  C  C3434  1  0.626200  0.987600  0.774500  1.0
  C  C3435  1  0.126200  0.512400  0.774500  1.0
  C  C3436  1  0.373800  0.012400  0.225500  1.0
  C  C3437  1  0.884100  0.499800  0.195800  1.0
  C  C3438  1  0.615900  0.999800  0.804200  1.0
  C  C3439  1  0.115900  0.500200  0.804200  1.0
  C  C3440  1  0.384100  0.000200  0.195800  1.0
  C  C3441  1  0.897500  0.538700  0.201800  1.0
  C  C3442  1  0.602500  0.038700  0.798200  1.0
  C  C3443  1  0.102500  0.461300  0.798200  1.0
  C  C3444  1  0.397500  0.961300  0.201800  1.0
  C  C3445  1  0.126500  0.738000  0.269700  1.0
  C  C3446  1  0.373500  0.238000  0.730300  1.0
  C  C3447  1  0.873500  0.262000  0.730300  1.0
  C  C3448  1  0.626500  0.762000  0.269700  1.0
  C  C3449  1  0.105800  0.769300  0.265700  1.0
  C  C3450  1  0.394200  0.269300  0.734300  1.0
  C  C3451  1  0.894200  0.230700  0.734300  1.0
  C  C3452  1  0.605800  0.730700  0.265700  1.0
  C  C3453  1  0.125400  0.801300  0.269600  1.0
  C  C3454  1  0.374600  0.301300  0.730400  1.0
  C  C3455  1  0.874600  0.198700  0.730400  1.0
  C  C3456  1  0.625400  0.698700  0.269600  1.0
  C  C3457  1  0.165700  0.801900  0.277600  1.0
  C  C3458  1  0.334300  0.301900  0.722400  1.0
  C  C3459  1  0.834300  0.198100  0.722400  1.0
  C  C3460  1  0.665700  0.698100  0.277600  1.0
  C  C3461  1  0.186400  0.770500  0.281600  1.0
  C  C3462  1  0.313600  0.270500  0.718400  1.0
  C  C3463  1  0.813600  0.229500  0.718400  1.0
  C  C3464  1  0.686400  0.729500  0.281600  1.0
  C  C3465  1  0.166800  0.738500  0.277700  1.0
  C  C3466  1  0.333200  0.238500  0.722300  1.0
  C  C3467  1  0.833200  0.261500  0.722300  1.0
  C  C3468  1  0.666800  0.761500  0.277700  1.0
  C  C3469  1  0.031500  0.542500  0.117400  0.25
  C  C3470  1  0.468500  0.042500  0.882600  0.25
  C  C3471  1  0.968500  0.457500  0.882600  0.25
  C  C3472  1  0.531500  0.957500  0.117400  0.25
  C  C3473  1  0.026600  0.508700  0.104300  0.25
  C  C3474  1  0.473400  0.008700  0.895700  0.25
  C  C3475  1  0.973400  0.491300  0.895700  0.25
  C  C3476  1  0.526600  0.991300  0.104300  0.25
  C  C3477  1  0.036500  0.501400  0.076700  0.25
  C  C3478  1  0.463500  0.001400  0.923300  0.25
  C  C3479  1  0.963500  0.498600  0.923300  0.25
  C  C3480  1  0.536500  0.998600  0.076700  0.25
  C  C3481  1  0.051200  0.527900  0.062100  0.25
  C  C3482  1  0.448800  0.027900  0.937900  0.25
  C  C3483  1  0.948800  0.472100  0.937900  0.25
  C  C3484  1  0.551200  0.972100  0.062100  0.25
  C  C3485  1  0.056100  0.561700  0.075300  0.25
  C  C3486  1  0.443900  0.061700  0.924700  0.25
  C  C3487  1  0.943900  0.438300  0.924700  0.25
  C  C3488  1  0.556100  0.938300  0.075300  0.25
  C  C3489  1  0.046200  0.569000  0.102900  0.25
  C  C3490  1  0.453800  0.069000  0.897100  0.25
  C  C3491  1  0.953800  0.431000  0.897100  0.25
  C  C3492  1  0.546200  0.931000  0.102900  0.25
  C  C3493  1  0.514900  0.405400  0.276000  0.4
  C  C3494  1  0.985100  0.905400  0.724000  0.4
  C  C3495  1  0.485100  0.594600  0.724000  0.4
  C  C3496  1  0.014900  0.094600  0.276000  0.4
  C  C3497  1  0.493200  0.435200  0.276400  0.4
  C  C3498  1  0.006800  0.935200  0.723600  0.4
  C  C3499  1  0.506800  0.564800  0.723600  0.4
  C  C3500  1  0.993200  0.064800  0.276400  0.4
  C  C3501  1  0.453600  0.432300  0.271400  0.4
  C  C3502  1  0.046400  0.932300  0.728600  0.4
  C  C3503  1  0.546400  0.567700  0.728600  0.4
  C  C3504  1  0.953600  0.067700  0.271400  0.4
  C  C3505  1  0.435700  0.399400  0.265900  0.4
  C  C3506  1  0.064300  0.899400  0.734100  0.4
  C  C3507  1  0.564300  0.600600  0.734100  0.4
  C  C3508  1  0.935700  0.100600  0.265900  0.4
  C  C3509  1  0.457500  0.369500  0.265400  0.4
  C  C3510  1  0.042500  0.869500  0.734600  0.4
  C  C3511  1  0.542500  0.630500  0.734600  0.4
  C  C3512  1  0.957500  0.130500  0.265400  0.4
  C  C3513  1  0.497100  0.372500  0.270500  0.4
  C  C3514  1  0.002900  0.872500  0.729500  0.4
  C  C3515  1  0.502900  0.627500  0.729500  0.4
  C  C3516  1  0.997100  0.127500  0.270500  0.4
  C  C3517  1  0.962200  0.662200  0.439700  0.418
  C  C3518  1  0.537800  0.162200  0.560300  0.418
  C  C3519  1  0.037800  0.337800  0.560300  0.418
  C  C3520  1  0.462200  0.837800  0.439700  0.418
  C  C3521  1  0.993600  0.642000  0.459400  0.418
  C  C3522  1  0.506400  0.142000  0.540600  0.418
  C  C3523  1  0.006400  0.358000  0.540600  0.418
  C  C3524  1  0.493600  0.858000  0.459400  0.418
  C  C3525  1  0.012500  0.650700  0.492600  0.418
  C  C3526  1  0.487500  0.150700  0.507400  0.418
  C  C3527  1  0.987500  0.349300  0.507400  0.418
  C  C3528  1  0.512500  0.849300  0.492600  0.418
  C  C3529  1  1.000000  0.679400  0.506100  0.418
  C  C3530  1  0.500000  0.179400  0.493900  0.418
  C  C3531  1  0.000000  0.320600  0.493900  0.418
  C  C3532  1  0.500000  0.820600  0.506100  0.418
  C  C3533  1  0.968600  0.699600  0.486500  0.418
  C  C3534  1  0.531400  0.199600  0.513500  0.418
  C  C3535  1  0.031400  0.300400  0.513500  0.418
  C  C3536  1  0.468600  0.800400  0.486500  0.418
  C  C3537  1  0.949700  0.690900  0.453300  0.418
  C  C3538  1  0.550300  0.190900  0.546700  0.418
  C  C3539  1  0.050300  0.309100  0.546700  0.418
  C  C3540  1  0.449700  0.809100  0.453300  0.418
  C  C3541  1  0.656100  0.428300  0.293700  0.426
  C  C3542  1  0.843900  0.928300  0.706300  0.426
  C  C3543  1  0.343900  0.571700  0.706300  0.426
  C  C3544  1  0.156100  0.071700  0.293700  0.426
  C  C3545  1  0.645500  0.462700  0.282100  0.426
  C  C3546  1  0.854500  0.962700  0.717900  0.426
  C  C3547  1  0.354500  0.537300  0.717900  0.426
  C  C3548  1  0.145500  0.037300  0.282100  0.426
  C  C3549  1  0.626900  0.464100  0.248300  0.426
  C  C3550  1  0.873100  0.964100  0.751700  0.426
  C  C3551  1  0.373100  0.535900  0.751700  0.426
  C  C3552  1  0.126900  0.035900  0.248300  0.426
  C  C3553  1  0.613500  0.431600  0.232300  0.426
  C  C3554  1  0.886500  0.931600  0.767700  0.426
  C  C3555  1  0.386500  0.568400  0.767700  0.426
  C  C3556  1  0.113500  0.068400  0.232300  0.426
  C  C3557  1  0.647700  0.495800  0.303300  0.426
  C  C3558  1  0.852300  0.995800  0.696700  0.426
  C  C3559  1  0.352300  0.504200  0.696700  0.426
  C  C3560  1  0.147700  0.004200  0.303300  0.426
  C  C3561  1  0.610600  0.505600  0.310000  0.426
  C  C3562  1  0.889400  0.005600  0.690000  0.426
  C  C3563  1  0.389400  0.494400  0.690000  0.426
  C  C3564  1  0.110600  0.994400  0.310000  0.426
  C  C3565  1  0.580100  0.527100  0.283200  0.426
  C  C3566  1  0.919900  0.027100  0.716800  0.426
  C  C3567  1  0.419900  0.472900  0.716800  0.426
  C  C3568  1  0.080100  0.972900  0.283200  0.426
  C  C3569  1  0.556900  0.509100  0.250100  0.426
  C  C3570  1  0.943100  0.009100  0.749900  0.426
  C  C3571  1  0.443100  0.490900  0.749900  0.426
  C  C3572  1  0.056900  0.990900  0.250100  0.426
  C  C3573  1  0.574200  0.511200  0.223200  0.426
  C  C3574  1  0.925800  0.011200  0.776800  0.426
  C  C3575  1  0.425800  0.488800  0.776800  0.426
  C  C3576  1  0.074200  0.988800  0.223200  0.426
  C  C3577  1  0.616500  0.499800  0.230500  0.426
  C  C3578  1  0.883500  0.999800  0.769500  0.426
  C  C3579  1  0.383500  0.500200  0.769500  0.426
  C  C3580  1  0.116500  0.000200  0.230500  0.426
  C  C3581  1  0.824600  0.627200  0.413600  0.5
  C  C3582  1  0.675400  0.127200  0.586400  0.5
  C  C3583  1  0.175400  0.372800  0.586400  0.5
  C  C3584  1  0.324600  0.872800  0.413600  0.5
  C  C3585  1  0.806200  0.592900  0.411300  0.5
  C  C3586  1  0.693800  0.092900  0.588700  0.5
  C  C3587  1  0.193800  0.407100  0.588700  0.5
  C  C3588  1  0.306200  0.907100  0.411300  0.5
  C  C3589  1  0.789300  0.643900  0.489100  0.5
  C  C3590  1  0.710700  0.143900  0.510900  0.5
  C  C3591  1  0.210700  0.356100  0.510900  0.5
  C  C3592  1  0.289300  0.856100  0.489100  0.5
  C  C3593  1  0.824300  0.640200  0.519000  0.5
  C  C3594  1  0.675700  0.140200  0.481000  0.5
  C  C3595  1  0.175700  0.359800  0.481000  0.5
  C  C3596  1  0.324300  0.859800  0.519000  0.5
  C  C3597  1  0.394100  0.311200  0.331900  0.5
  C  C3598  1  0.105900  0.811200  0.668100  0.5
  C  C3599  1  0.605900  0.688800  0.668100  0.5
  C  C3600  1  0.894100  0.188800  0.331900  0.5
  C  C3601  1  0.392100  0.335900  0.304600  0.5
  C  C3602  1  0.107900  0.835900  0.695400  0.5
  C  C3603  1  0.607900  0.664100  0.695400  0.5
  C  C3604  1  0.892100  0.164100  0.304600  0.5
  C  C3605  1  0.728100  0.503600  0.259300  0.5
  C  C3606  1  0.771900  0.003600  0.740700  0.5
  C  C3607  1  0.271900  0.496400  0.740700  0.5
  C  C3608  1  0.228100  0.996400  0.259300  0.5
  C  C3609  1  0.766800  0.503800  0.257300  0.5
  C  C3610  1  0.733200  0.003800  0.742700  0.5
  C  C3611  1  0.233200  0.496200  0.742700  0.5
  C  C3612  1  0.266800  0.996200  0.257300  0.5
  C  C3613  1  0.620200  0.328100  0.261000  0.5
  C  C3614  1  0.879800  0.828100  0.739000  0.5
  C  C3615  1  0.379800  0.671900  0.739000  0.5
  C  C3616  1  0.120200  0.171900  0.261000  0.5
  C  C3617  1  0.633800  0.307400  0.239700  0.5
  C  C3618  1  0.866200  0.807400  0.760300  0.5
  C  C3619  1  0.366200  0.692600  0.760300  0.5
  C  C3620  1  0.133800  0.192600  0.239700  0.5
  C  C3621  1  0.831500  0.292400  0.254900  0.5
  C  C3622  1  0.668500  0.792400  0.745100  0.5
  C  C3623  1  0.168500  0.707600  0.745100  0.5
  C  C3624  1  0.331500  0.207600  0.254900  0.5
  C  C3625  1  0.821000  0.267700  0.276400  0.5
  C  C3626  1  0.679000  0.767700  0.723600  0.5
  C  C3627  1  0.179000  0.732300  0.723600  0.5
  C  C3628  1  0.321000  0.232300  0.276400  0.5
  C  C3629  1  0.537300  0.602400  0.228900  0.5
  C  C3630  1  0.962700  0.102400  0.771100  0.5
  C  C3631  1  0.462700  0.397600  0.771100  0.5
  C  C3632  1  0.037300  0.897600  0.228900  0.5
  C  C3633  1  0.539700  0.628500  0.253800  0.5
  C  C3634  1  0.960300  0.128500  0.746200  0.5
  C  C3635  1  0.460300  0.371500  0.746200  0.5
  C  C3636  1  0.039700  0.871500  0.253800  0.5
  C  C3637  1  0.842400  0.378400  0.410500  0.5
  C  C3638  1  0.657600  0.878400  0.589500  0.5
  C  C3639  1  0.157600  0.621600  0.589500  0.5
  C  C3640  1  0.342400  0.121600  0.410500  0.5
  C  C3641  1  0.859100  0.410200  0.403900  0.5
  C  C3642  1  0.640900  0.910200  0.596100  0.5
  C  C3643  1  0.140900  0.589800  0.596100  0.5
  C  C3644  1  0.359100  0.089800  0.403900  0.5
  C  C3645  1  0.532000  0.322600  0.476600  0.5
  C  C3646  1  0.968000  0.822600  0.523400  0.5
  C  C3647  1  0.468000  0.677400  0.523400  0.5
  C  C3648  1  0.032000  0.177400  0.476600  0.5
  C  C3649  1  0.512700  0.351900  0.482500  0.5
  C  C3650  1  0.987300  0.851900  0.517500  0.5
  C  C3651  1  0.487300  0.648100  0.517500  0.5
  C  C3652  1  0.012700  0.148100  0.482500  0.5
  C  C3653  1  0.485400  0.369500  0.456200  0.5
  C  C3654  1  0.014600  0.869500  0.543800  0.5
  C  C3655  1  0.514600  0.630500  0.543800  0.5
  C  C3656  1  0.985400  0.130500  0.456200  0.5
  C  C3657  1  0.477300  0.357800  0.423900  0.5
  C  C3658  1  0.022700  0.857800  0.576100  0.5
  C  C3659  1  0.522700  0.642200  0.576100  0.5
  C  C3660  1  0.977300  0.142200  0.423900  0.5
  C  C3661  1  0.496700  0.328500  0.418000  0.5
  C  C3662  1  0.003300  0.828500  0.582000  0.5
  C  C3663  1  0.503300  0.671500  0.582000  0.5
  C  C3664  1  0.996700  0.171500  0.418000  0.5
  C  C3665  1  0.524000  0.310900  0.444300  0.5
  C  C3666  1  0.976000  0.810900  0.555700  0.5
  C  C3667  1  0.476000  0.689100  0.555700  0.5
  C  C3668  1  0.024000  0.189100  0.444300  0.5
  C  C3669  1  0.530100  0.348900  0.489500  0.5
  C  C3670  1  0.969900  0.848900  0.510500  0.5
  C  C3671  1  0.469900  0.651100  0.510500  0.5
  C  C3672  1  0.030100  0.151100  0.489500  0.5
  C  C3673  1  0.503400  0.365800  0.462200  0.5
  C  C3674  1  0.996600  0.865800  0.537800  0.5
  C  C3675  1  0.496600  0.634200  0.537800  0.5
  C  C3676  1  0.003400  0.134200  0.462200  0.5
  C  C3677  1  0.490900  0.349600  0.431300  0.5
  C  C3678  1  0.009100  0.849600  0.568700  0.5
  C  C3679  1  0.509100  0.650400  0.568700  0.5
  C  C3680  1  0.990900  0.150400  0.431300  0.5
  C  C3681  1  0.505100  0.316500  0.427700  0.5
  C  C3682  1  0.994900  0.816500  0.572300  0.5
  C  C3683  1  0.494900  0.683500  0.572300  0.5
  C  C3684  1  0.005100  0.183500  0.427700  0.5
  C  C3685  1  0.531900  0.299700  0.454900  0.5
  C  C3686  1  0.968100  0.799700  0.545100  0.5
  C  C3687  1  0.468100  0.700300  0.545100  0.5
  C  C3688  1  0.031900  0.200300  0.454900  0.5
  C  C3689  1  0.544400  0.315900  0.485800  0.5
  C  C3690  1  0.955600  0.815900  0.514200  0.5
  C  C3691  1  0.455600  0.684100  0.514200  0.5
  C  C3692  1  0.044400  0.184100  0.485800  0.5
  C  C3693  1  0.778500  0.356200  0.617500  0.5
  C  C3694  1  0.721500  0.856200  0.382500  0.5
  C  C3695  1  0.221500  0.643800  0.382500  0.5
  C  C3696  1  0.278500  0.143800  0.617500  0.5
  C  C3697  1  0.785900  0.321700  0.628600  0.5
  C  C3698  1  0.714100  0.821700  0.371400  0.5
  C  C3699  1  0.214100  0.678300  0.371400  0.5
  C  C3700  1  0.285900  0.178300  0.628600  0.5
  C  C3701  1  0.768500  0.308100  0.649900  0.5
  C  C3702  1  0.731500  0.808100  0.350100  0.5
  C  C3703  1  0.231500  0.691900  0.350100  0.5
  C  C3704  1  0.268500  0.191900  0.649900  0.5
  C  C3705  1  0.743700  0.329000  0.660300  0.5
  C  C3706  1  0.756300  0.829000  0.339700  0.5
  C  C3707  1  0.256300  0.671000  0.339700  0.5
  C  C3708  1  0.243700  0.171000  0.660300  0.5
  C  C3709  1  0.736400  0.363600  0.649200  0.5
  C  C3710  1  0.763600  0.863600  0.350800  0.5
  C  C3711  1  0.263600  0.636400  0.350800  0.5
  C  C3712  1  0.236400  0.136400  0.649200  0.5
  C  C3713  1  0.753800  0.377200  0.627900  0.5
  C  C3714  1  0.746200  0.877200  0.372100  0.5
  C  C3715  1  0.246200  0.622800  0.372100  0.5
  C  C3716  1  0.253800  0.122800  0.627900  0.5
  C  C3717  1  0.389800  0.756700  0.223000  0.5
  C  C3718  1  0.110200  0.256700  0.777000  0.5
  C  C3719  1  0.610200  0.243300  0.777000  0.5
  C  C3720  1  0.889800  0.743300  0.223000  0.5
  C  C3721  1  0.404000  0.790800  0.224100  0.5
  C  C3722  1  0.096000  0.290800  0.775900  0.5
  C  C3723  1  0.596000  0.209200  0.775900  0.5
  C  C3724  1  0.904000  0.709200  0.224100  0.5
  C  C3725  1  0.379700  0.819300  0.223000  0.5
  C  C3726  1  0.120300  0.319300  0.777000  0.5
  C  C3727  1  0.620300  0.180700  0.777000  0.5
  C  C3728  1  0.879700  0.680700  0.223000  0.5
  C  C3729  1  0.341300  0.813700  0.220800  0.5
  C  C3730  1  0.158700  0.313700  0.779200  0.5
  C  C3731  1  0.658700  0.186300  0.779200  0.5
  C  C3732  1  0.841300  0.686300  0.220800  0.5
  C  C3733  1  0.327100  0.779600  0.219600  0.5
  C  C3734  1  0.172900  0.279600  0.780400  0.5
  C  C3735  1  0.672900  0.220400  0.780400  0.5
  C  C3736  1  0.827100  0.720400  0.219600  0.5
  C  C3737  1  0.351300  0.751100  0.220700  0.5
  C  C3738  1  0.148700  0.251100  0.779300  0.5
  C  C3739  1  0.648700  0.248900  0.779300  0.5
  C  C3740  1  0.851300  0.748900  0.220700  0.5
  C  C3741  1  0.794200  0.850000  0.151900  0.5
  C  C3742  1  0.705800  0.350000  0.848100  0.5
  C  C3743  1  0.205800  0.150000  0.848100  0.5
  C  C3744  1  0.294200  0.650000  0.151900  0.5
  C  C3745  1  0.795700  0.814600  0.160300  0.5
  C  C3746  1  0.704300  0.314600  0.839700  0.5
  C  C3747  1  0.204300  0.185400  0.839700  0.5
  C  C3748  1  0.295700  0.685400  0.160300  0.5
  C  C3749  1  0.815400  0.790900  0.147300  0.5
  C  C3750  1  0.684600  0.290900  0.852700  0.5
  C  C3751  1  0.184600  0.209100  0.852700  0.5
  C  C3752  1  0.315400  0.709100  0.147300  0.5
  C  C3753  1  0.833600  0.802600  0.125800  0.5
  C  C3754  1  0.666400  0.302600  0.874200  0.5
  C  C3755  1  0.166400  0.197400  0.874200  0.5
  C  C3756  1  0.333600  0.697400  0.125800  0.5
  C  C3757  1  0.832100  0.838000  0.117400  0.5
  C  C3758  1  0.667900  0.338000  0.882600  0.5
  C  C3759  1  0.167900  0.162000  0.882600  0.5
  C  C3760  1  0.332100  0.662000  0.117400  0.5
  C  C3761  1  0.812400  0.861700  0.130400  0.5
  C  C3762  1  0.687600  0.361700  0.869600  0.5
  C  C3763  1  0.187600  0.138300  0.869600  0.5
  C  C3764  1  0.312400  0.638300  0.130400  0.5
  C  C3765  1  0.479100  0.164100  0.218700  0.5
  C  C3766  1  0.020900  0.664100  0.781300  0.5
  C  C3767  1  0.520900  0.835900  0.781300  0.5
  C  C3768  1  0.979100  0.335900  0.218700  0.5
  C  C3769  1  0.445600  0.171400  0.225800  0.5
  C  C3770  1  0.054400  0.671400  0.774200  0.5
  C  C3771  1  0.554400  0.828600  0.774200  0.5
  C  C3772  1  0.945600  0.328600  0.225800  0.5
  C  C3773  1  0.418300  0.145000  0.223100  0.5
  C  C3774  1  0.081700  0.645000  0.776900  0.5
  C  C3775  1  0.581700  0.855000  0.776900  0.5
  C  C3776  1  0.918300  0.355000  0.223100  0.5
  C  C3777  1  0.424600  0.111300  0.213400  0.5
  C  C3778  1  0.075400  0.611300  0.786600  0.5
  C  C3779  1  0.575400  0.888700  0.786600  0.5
  C  C3780  1  0.924600  0.388700  0.213400  0.5
  C  C3781  1  0.458000  0.104000  0.206300  0.5
  C  C3782  1  0.042000  0.604000  0.793700  0.5
  C  C3783  1  0.542000  0.896000  0.793700  0.5
  C  C3784  1  0.958000  0.396000  0.206300  0.5
  C  C3785  1  0.485300  0.130400  0.209000  0.5
  C  C3786  1  0.014700  0.630400  0.791000  0.5
  C  C3787  1  0.514700  0.869600  0.791000  0.5
  C  C3788  1  0.985300  0.369600  0.209000  0.5
  C  C3789  1  0.844100  0.242500  0.248600  0.5
  C  C3790  1  0.655900  0.742500  0.751400  0.5
  C  C3791  1  0.155900  0.757500  0.751400  0.5
  C  C3792  1  0.344100  0.257500  0.248600  0.5
  C  C3793  1  0.869300  0.245600  0.231000  0.5
  C  C3794  1  0.630700  0.745600  0.769000  0.5
  C  C3795  1  0.130700  0.754400  0.769000  0.5
  C  C3796  1  0.369300  0.254400  0.231000  0.5
  C  C3797  1  0.881400  0.278600  0.224700  0.5
  C  C3798  1  0.618600  0.778600  0.775300  0.5
  C  C3799  1  0.118600  0.721400  0.775300  0.5
  C  C3800  1  0.381400  0.221400  0.224700  0.5
  C  C3801  1  0.868300  0.308600  0.236100  0.5
  C  C3802  1  0.631700  0.808600  0.763900  0.5
  C  C3803  1  0.131700  0.691400  0.763900  0.5
  C  C3804  1  0.368300  0.191400  0.236100  0.5
  C  C3805  1  0.843100  0.305600  0.253700  0.5
  C  C3806  1  0.656900  0.805600  0.746300  0.5
  C  C3807  1  0.156900  0.694400  0.746300  0.5
  C  C3808  1  0.343100  0.194400  0.253700  0.5
  C  C3809  1  0.831000  0.272500  0.260000  0.5
  C  C3810  1  0.669000  0.772500  0.740000  0.5
  C  C3811  1  0.169000  0.727500  0.740000  0.5
  C  C3812  1  0.331000  0.227500  0.260000  0.5
  C  C3813  1  0.658900  0.423000  0.292200  0.574
  C  C3814  1  0.841100  0.923000  0.707800  0.574
  C  C3815  1  0.341100  0.577000  0.707800  0.574
  C  C3816  1  0.158900  0.077000  0.292200  0.574
  C  C3817  1  0.624200  0.443000  0.284700  0.574
  C  C3818  1  0.875800  0.943000  0.715300  0.574
  C  C3819  1  0.375800  0.557000  0.715300  0.574
  C  C3820  1  0.124200  0.057000  0.284700  0.574
  C  C3821  1  0.601300  0.446200  0.251900  0.574
  C  C3822  1  0.898700  0.946200  0.748100  0.574
  C  C3823  1  0.398700  0.553800  0.748100  0.574
  C  C3824  1  0.101300  0.053800  0.251900  0.574
  C  C3825  1  0.616500  0.430100  0.229500  0.574
  C  C3826  1  0.883500  0.930100  0.770500  0.574
  C  C3827  1  0.383500  0.569900  0.770500  0.574
  C  C3828  1  0.116500  0.069900  0.229500  0.574
  C  C3829  1  0.611300  0.461300  0.311500  0.574
  C  C3830  1  0.888700  0.961300  0.688500  0.574
  C  C3831  1  0.388700  0.538700  0.688500  0.574
  C  C3832  1  0.111300  0.038700  0.311500  0.574
  C  C3833  1  0.625200  0.499100  0.320700  0.574
  C  C3834  1  0.874800  0.999100  0.679300  0.574
  C  C3835  1  0.374800  0.500900  0.679300  0.574
  C  C3836  1  0.125200  0.000900  0.320700  0.574
  C  C3837  1  0.603000  0.526100  0.294500  0.574
  C  C3838  1  0.897000  0.026100  0.705500  0.574
  C  C3839  1  0.397000  0.473900  0.705500  0.574
  C  C3840  1  0.103000  0.973900  0.294500  0.574
  C  C3841  1  0.609800  0.523400  0.260900  0.574
  C  C3842  1  0.890200  0.023400  0.739100  0.574
  C  C3843  1  0.390200  0.476600  0.739100  0.574
  C  C3844  1  0.109800  0.976600  0.260900  0.574
  C  C3845  1  0.573400  0.508000  0.234200  0.574
  C  C3846  1  0.926600  0.008000  0.765800  0.574
  C  C3847  1  0.426600  0.492000  0.765800  0.574
  C  C3848  1  0.073400  0.992000  0.234200  0.574
  C  C3849  1  0.564500  0.469600  0.240800  0.574
  C  C3850  1  0.935500  0.969600  0.759200  0.574
  C  C3851  1  0.435500  0.530400  0.759200  0.574
  C  C3852  1  0.064500  0.030400  0.240800  0.574
  C  C3853  1  0.952400  0.674400  0.436500  0.582
  C  C3854  1  0.547600  0.174400  0.563500  0.582
  C  C3855  1  0.047600  0.325600  0.563500  0.582
  C  C3856  1  0.452400  0.825600  0.436500  0.582
  C  C3857  1  0.991700  0.676500  0.452400  0.582
  C  C3858  1  0.508300  0.176500  0.547600  0.582
  C  C3859  1  0.008300  0.323500  0.547600  0.582
  C  C3860  1  0.491700  0.823500  0.452400  0.582
  C  C3861  1  0.007100  0.691900  0.484300  0.582
  C  C3862  1  0.492900  0.191900  0.515700  0.582
  C  C3863  1  0.992900  0.308100  0.515700  0.582
  C  C3864  1  0.507100  0.808100  0.484300  0.582
  C  C3865  1  0.980700  0.701100  0.497700  0.582
  C  C3866  1  0.519300  0.201100  0.502300  0.582
  C  C3867  1  0.019300  0.298900  0.502300  0.582
  C  C3868  1  0.480700  0.798900  0.497700  0.582
  C  C3869  1  0.941600  0.700300  0.483200  0.582
  C  C3870  1  0.558400  0.200300  0.516800  0.582
  C  C3871  1  0.058400  0.299700  0.516800  0.582
  C  C3872  1  0.441600  0.799700  0.483200  0.582
  C  C3873  1  0.926500  0.685500  0.450900  0.582
  C  C3874  1  0.573500  0.185500  0.549100  0.582
  C  C3875  1  0.073500  0.314500  0.549100  0.582
  C  C3876  1  0.426500  0.814500  0.450900  0.582
  C  C3877  1  0.545300  0.411800  0.279700  0.6
  C  C3878  1  0.954700  0.911800  0.720300  0.6
  C  C3879  1  0.454700  0.588200  0.720300  0.6
  C  C3880  1  0.045300  0.088200  0.279700  0.6
  C  C3881  1  0.545100  0.376700  0.270600  0.6
  C  C3882  1  0.954900  0.876700  0.729400  0.6
  C  C3883  1  0.454900  0.623300  0.729400  0.6
  C  C3884  1  0.045100  0.123300  0.270600  0.6
  C  C3885  1  0.513600  0.355300  0.268800  0.6
  C  C3886  1  0.986400  0.855300  0.731200  0.6
  C  C3887  1  0.486400  0.644700  0.731200  0.6
  C  C3888  1  0.013600  0.144700  0.268800  0.6
  C  C3889  1  0.482200  0.369000  0.276000  0.6
  C  C3890  1  0.017800  0.869000  0.724000  0.6
  C  C3891  1  0.517800  0.631000  0.724000  0.6
  C  C3892  1  0.982200  0.131000  0.276000  0.6
  C  C3893  1  0.482500  0.404100  0.285200  0.6
  C  C3894  1  0.017500  0.904100  0.714800  0.6
  C  C3895  1  0.517500  0.595900  0.714800  0.6
  C  C3896  1  0.982500  0.095900  0.285200  0.6
  C  C3897  1  0.514000  0.425500  0.287000  0.6
  C  C3898  1  0.986000  0.925500  0.713000  0.6
  C  C3899  1  0.486000  0.574500  0.713000  0.6
  C  C3900  1  0.014000  0.074500  0.287000  0.6
  N  N3901  1  0.045000  0.355900  0.378300  1.0
  N  N3902  1  0.455000  0.855900  0.621700  1.0
  N  N3903  1  0.955000  0.644100  0.621700  1.0
  N  N3904  1  0.545000  0.144100  0.378300  1.0
  N  N3905  1  0.977490  0.336940  0.378400  1.0
  N  N3906  1  0.522510  0.836940  0.621600  1.0
  N  N3907  1  0.022510  0.663060  0.621600  1.0
  N  N3908  1  0.477490  0.163060  0.378400  1.0
  N  N3909  1  0.717510  0.309630  0.375300  1.0
  N  N3910  1  0.782490  0.809630  0.624700  1.0
  N  N3911  1  0.282490  0.690370  0.624700  1.0
  N  N3912  1  0.217510  0.190370  0.375300  1.0
  N  N3913  1  0.644120  0.318300  0.362490  1.0
  N  N3914  1  0.855880  0.818300  0.637510  1.0
  N  N3915  1  0.355880  0.681700  0.637510  1.0
  N  N3916  1  0.144120  0.181700  0.362490  1.0
  N  N3917  1  0.866600  0.302900  0.357420  1.0
  N  N3918  1  0.633400  0.802900  0.642580  1.0
  N  N3919  1  0.133400  0.697100  0.642580  1.0
  N  N3920  1  0.366600  0.197100  0.357420  1.0
  N  N3921  1  0.827700  0.300300  0.351450  1.0
  N  N3922  1  0.672300  0.800300  0.648550  1.0
  N  N3923  1  0.172300  0.699700  0.648550  1.0
  N  N3924  1  0.327700  0.199700  0.351450  1.0
  N  N3925  1  0.685000  0.295650  0.426810  1.0
  N  N3926  1  0.815000  0.795650  0.573190  1.0
  N  N3927  1  0.315000  0.704350  0.573190  1.0
  N  N3928  1  0.185000  0.204350  0.426810  1.0
  N  N3929  1  0.656170  0.358420  0.421380  1.0
  N  N3930  1  0.843830  0.858420  0.578620  1.0
  N  N3931  1  0.343830  0.641580  0.578620  1.0
  N  N3932  1  0.156170  0.141580  0.421380  1.0
  N  N3933  1  0.598300  0.591330  0.382410  1.0
  N  N3934  1  0.901700  0.091330  0.617590  1.0
  N  N3935  1  0.401700  0.408670  0.617590  1.0
  N  N3936  1  0.098300  0.908670  0.382410  1.0
  N  N3937  1  0.604800  0.653300  0.362840  1.0
  N  N3938  1  0.895200  0.153300  0.637160  1.0
  N  N3939  1  0.395200  0.346700  0.637160  1.0
  N  N3940  1  0.104800  0.846700  0.362840  1.0
  N  N3941  1  0.584800  0.441820  0.386500  1.0
  N  N3942  1  0.915200  0.941820  0.613500  1.0
  N  N3943  1  0.415200  0.558180  0.613500  1.0
  N  N3944  1  0.084800  0.058180  0.386500  1.0
  N  N3945  1  0.573800  0.474300  0.373590  1.0
  N  N3946  1  0.926200  0.974300  0.626410  1.0
  N  N3947  1  0.426200  0.525700  0.626410  1.0
  N  N3948  1  0.073800  0.025700  0.373590  1.0
  N  N3949  1  0.611200  0.649470  0.428720  1.0
  N  N3950  1  0.888800  0.149470  0.571280  1.0
  N  N3951  1  0.388800  0.350530  0.571280  1.0
  N  N3952  1  0.111200  0.850530  0.428720  1.0
  N  N3953  1  0.673400  0.667930  0.418550  1.0
  N  N3954  1  0.826600  0.167930  0.581450  1.0
  N  N3955  1  0.326600  0.332070  0.581450  1.0
  N  N3956  1  0.173400  0.832070  0.418550  1.0
  N  N3957  1  0.892100  0.702330  0.351140  1.0
  N  N3958  1  0.607900  0.202330  0.648860  1.0
  N  N3959  1  0.107900  0.297670  0.648860  1.0
  N  N3960  1  0.392100  0.797670  0.351140  1.0
  N  N3961  1  0.939500  0.697400  0.320900  1.0
  N  N3962  1  0.560500  0.197400  0.679100  1.0
  N  N3963  1  0.060500  0.302600  0.679100  1.0
  N  N3964  1  0.439500  0.802600  0.320900  1.0
  N  N3965  1  0.745900  0.705900  0.375800  1.0
  N  N3966  1  0.754100  0.205900  0.624200  1.0
  N  N3967  1  0.254100  0.294100  0.624200  1.0
  N  N3968  1  0.245900  0.794100  0.375800  1.0
  N  N3969  1  0.771900  0.709900  0.359900  1.0
  N  N3970  1  0.728100  0.209900  0.640100  1.0
  N  N3971  1  0.228100  0.290100  0.640100  1.0
  N  N3972  1  0.271900  0.790100  0.359900  1.0
  N  N3973  1  0.973700  0.720740  0.386100  1.0
  N  N3974  1  0.526300  0.220740  0.613900  1.0
  N  N3975  1  0.026300  0.279260  0.613900  1.0
  N  N3976  1  0.473700  0.779260  0.386100  1.0
  N  N3977  1  0.993900  0.658430  0.374980  1.0
  N  N3978  1  0.506100  0.158430  0.625020  1.0
  N  N3979  1  0.006100  0.341570  0.625020  1.0
  N  N3980  1  0.493900  0.841570  0.374980  1.0
  N  N3981  1  0.012400  0.418900  0.339100  1.0
  N  N3982  1  0.487600  0.918900  0.660900  1.0
  N  N3983  1  0.987600  0.581100  0.660900  1.0
  N  N3984  1  0.512400  0.081100  0.339100  1.0
  N  N3985  1  0.987900  0.356760  0.317860  1.0
  N  N3986  1  0.512100  0.856760  0.682140  1.0
  N  N3987  1  0.012100  0.643240  0.682140  1.0
  N  N3988  1  0.487900  0.143240  0.317860  1.0
  N  N3989  1  0.024000  0.570000  0.337500  1.0
  N  N3990  1  0.476000  0.070000  0.662500  1.0
  N  N3991  1  0.976000  0.430000  0.662500  1.0
  N  N3992  1  0.524000  0.930000  0.337500  1.0
  N  N3993  1  0.022600  0.536600  0.326800  1.0
  N  N3994  1  0.477400  0.036600  0.673200  1.0
  N  N3995  1  0.977400  0.463400  0.673200  1.0
  N  N3996  1  0.522600  0.963400  0.326800  1.0
  N  N3997  1  0.883600  0.618300  0.051900  1.0
  N  N3998  1  0.616400  0.118300  0.948100  1.0
  N  N3999  1  0.116400  0.381700  0.948100  1.0
  N  N4000  1  0.383600  0.881700  0.051900  1.0
  N  N4001  1  0.833800  0.650200  0.072500  1.0
  N  N4002  1  0.666200  0.150200  0.927500  1.0
  N  N4003  1  0.166200  0.349800  0.927500  1.0
  N  N4004  1  0.333800  0.849800  0.072500  1.0
  N  N4005  1  0.638100  0.721100  0.146200  1.0
  N  N4006  1  0.861900  0.221100  0.853800  1.0
  N  N4007  1  0.361900  0.278900  0.853800  1.0
  N  N4008  1  0.138100  0.778900  0.146200  1.0
  N  N4009  1  0.586600  0.721300  0.171700  1.0
  N  N4010  1  0.913400  0.221300  0.828300  1.0
  N  N4011  1  0.413400  0.278700  0.828300  1.0
  N  N4012  1  0.086600  0.778700  0.171700  1.0
  N  N4013  1  0.782500  0.708700  0.123800  1.0
  N  N4014  1  0.717500  0.208700  0.876200  1.0
  N  N4015  1  0.217500  0.291300  0.876200  1.0
  N  N4016  1  0.282500  0.791300  0.123800  1.0
  N  N4017  1  0.756500  0.714600  0.139400  1.0
  N  N4018  1  0.743500  0.214600  0.860600  1.0
  N  N4019  1  0.243500  0.285400  0.860600  1.0
  N  N4020  1  0.256500  0.785400  0.139400  1.0
  N  N4021  1  0.560600  0.744900  0.106700  1.0
  N  N4022  1  0.939400  0.244900  0.893300  1.0
  N  N4023  1  0.439400  0.255100  0.893300  1.0
  N  N4024  1  0.060600  0.755100  0.106700  1.0
  N  N4025  1  0.533400  0.685500  0.114800  1.0
  N  N4026  1  0.966600  0.185500  0.885200  1.0
  N  N4027  1  0.466600  0.314500  0.885200  1.0
  N  N4028  1  0.033400  0.814500  0.114800  1.0
  N  N4029  1  0.464900  0.447900  0.149300  1.0
  N  N4030  1  0.035100  0.947900  0.850700  1.0
  N  N4031  1  0.535100  0.552100  0.850700  1.0
  N  N4032  1  0.964900  0.052100  0.149300  1.0
  N  N4033  1  0.472600  0.386800  0.175900  1.0
  N  N4034  1  0.027400  0.886800  0.824100  1.0
  N  N4035  1  0.527400  0.613200  0.824100  1.0
  N  N4036  1  0.972600  0.113200  0.175900  1.0
  N  N4037  1  0.487600  0.600000  0.144900  1.0
  N  N4038  1  0.012400  0.100000  0.855100  1.0
  N  N4039  1  0.512400  0.400000  0.855100  1.0
  N  N4040  1  0.987600  0.900000  0.144900  1.0
  N  N4041  1  0.482100  0.567200  0.154700  1.0
  N  N4042  1  0.017900  0.067200  0.845300  1.0
  N  N4043  1  0.517900  0.432800  0.845300  1.0
  N  N4044  1  0.982100  0.932800  0.154700  1.0
  N  N4045  1  0.420700  0.388600  0.111600  1.0
  N  N4046  1  0.079300  0.888600  0.888400  1.0
  N  N4047  1  0.579300  0.611400  0.888400  1.0
  N  N4048  1  0.920700  0.111400  0.111600  1.0
  N  N4049  1  0.483900  0.354000  0.119600  1.0
  N  N4050  1  0.016100  0.854000  0.880400  1.0
  N  N4051  1  0.516100  0.646000  0.880400  1.0
  N  N4052  1  0.983900  0.146000  0.119600  1.0
  N  N4053  1  0.734700  0.290400  0.132300  1.0
  N  N4054  1  0.765300  0.790400  0.867700  1.0
  N  N4055  1  0.265300  0.709600  0.867700  1.0
  N  N4056  1  0.234700  0.209600  0.132300  1.0
  N  N4057  1  0.806800  0.291500  0.142400  1.0
  N  N4058  1  0.693200  0.791500  0.857600  1.0
  N  N4059  1  0.193200  0.708500  0.857600  1.0
  N  N4060  1  0.306800  0.208500  0.142400  1.0
  N  N4061  1  0.586500  0.302700  0.150200  1.0
  N  N4062  1  0.913500  0.802700  0.849800  1.0
  N  N4063  1  0.413500  0.697300  0.849800  1.0
  N  N4064  1  0.086500  0.197300  0.150200  1.0
  N  N4065  1  0.625800  0.296700  0.158200  1.0
  N  N4066  1  0.874200  0.796700  0.841800  1.0
  N  N4067  1  0.374200  0.703300  0.841800  1.0
  N  N4068  1  0.125800  0.203300  0.158200  1.0
  N  N4069  1  0.761200  0.267400  0.080500  1.0
  N  N4070  1  0.738800  0.767400  0.919500  1.0
  N  N4071  1  0.238800  0.732600  0.919500  1.0
  N  N4072  1  0.261200  0.232600  0.080500  1.0
  N  N4073  1  0.795500  0.326500  0.081000  1.0
  N  N4074  1  0.704500  0.826500  0.919000  1.0
  N  N4075  1  0.204500  0.673500  0.919000  1.0
  N  N4076  1  0.295500  0.173500  0.081000  1.0
  N  N4077  1  0.887700  0.563300  0.097400  1.0
  N  N4078  1  0.612300  0.063300  0.902600  1.0
  N  N4079  1  0.112300  0.436700  0.902600  1.0
  N  N4080  1  0.387700  0.936700  0.097400  1.0
  N  N4081  1  0.902300  0.621800  0.119500  1.0
  N  N4082  1  0.597700  0.121800  0.880500  1.0
  N  N4083  1  0.097700  0.378200  0.880500  1.0
  N  N4084  1  0.402300  0.878200  0.119500  1.0
  N  N4085  1  0.870300  0.410700  0.101300  1.0
  N  N4086  1  0.629700  0.910700  0.898700  1.0
  N  N4087  1  0.129700  0.589300  0.898700  1.0
  N  N4088  1  0.370300  0.089300  0.101300  1.0
  N  N4089  1  0.887100  0.442800  0.109900  1.0
  N  N4090  1  0.612900  0.942800  0.890100  1.0
  N  N4091  1  0.112900  0.557200  0.890100  1.0
  N  N4092  1  0.387100  0.057200  0.109900  1.0
  N  N4093  1  0.672100  0.595650  0.437920  1.0
  N  N4094  1  0.827900  0.095650  0.562080  1.0
  N  N4095  1  0.327900  0.404350  0.562080  1.0
  N  N4096  1  0.172100  0.904350  0.437920  1.0
  N  N4097  1  0.669500  0.604250  0.377630  1.0
  N  N4098  1  0.830500  0.104250  0.622370  1.0
  N  N4099  1  0.330500  0.395750  0.622370  1.0
  N  N4100  1  0.169500  0.895750  0.377630  1.0
  N  N4101  1  0.611600  0.656400  0.150340  1.0
  N  N4102  1  0.888400  0.156400  0.849660  1.0
  N  N4103  1  0.388400  0.343600  0.849660  1.0
  N  N4104  1  0.111600  0.843600  0.150340  1.0
  N  N4105  1  0.593300  0.679400  0.090300  1.0
  N  N4106  1  0.906700  0.179400  0.909700  1.0
  N  N4107  1  0.406700  0.320600  0.909700  1.0
  N  N4108  1  0.093300  0.820600  0.090300  1.0
  N  N4109  1  0.648600  0.605600  0.278400  1.0
  N  N4110  1  0.851400  0.105600  0.721600  1.0
  N  N4111  1  0.351400  0.394400  0.721600  1.0
  N  N4112  1  0.148600  0.894400  0.278400  1.0
  N  N4113  1  0.638200  0.611400  0.245100  1.0
  N  N4114  1  0.861800  0.111400  0.754900  1.0
  N  N4115  1  0.361800  0.388600  0.754900  1.0
  N  N4116  1  0.138200  0.888600  0.245100  1.0
  N  N4117  1  0.736900  0.357580  0.433260  1.0
  N  N4118  1  0.763100  0.857580  0.566740  1.0
  N  N4119  1  0.263100  0.642420  0.566740  1.0
  N  N4120  1  0.236900  0.142420  0.433260  1.0
  N  N4121  1  0.696150  0.378730  0.374640  1.0
  N  N4122  1  0.803850  0.878730  0.625360  1.0
  N  N4123  1  0.303850  0.621270  0.625360  1.0
  N  N4124  1  0.196150  0.121270  0.374640  1.0
  N  N4125  1  0.531500  0.416200  0.151100  1.0
  N  N4126  1  0.968500  0.916200  0.848900  1.0
  N  N4127  1  0.468500  0.583800  0.848900  1.0
  N  N4128  1  0.031500  0.083800  0.151100  1.0
  N  N4129  1  0.482500  0.420000  0.091610  1.0
  N  N4130  1  0.017500  0.920000  0.908390  1.0
  N  N4131  1  0.517500  0.580000  0.908390  1.0
  N  N4132  1  0.982500  0.080000  0.091610  1.0
  N  N4133  1  0.717400  0.334200  0.071600  1.0
  N  N4134  1  0.782600  0.834200  0.928400  1.0
  N  N4135  1  0.282600  0.665800  0.928400  1.0
  N  N4136  1  0.217400  0.165800  0.071600  1.0
  N  N4137  1  0.762600  0.356500  0.128550  1.0
  N  N4138  1  0.737400  0.856500  0.871450  1.0
  N  N4139  1  0.237400  0.643500  0.871450  1.0
  N  N4140  1  0.262600  0.143500  0.128550  1.0
  N  N4141  1  0.941800  0.402720  0.344470  1.0
  N  N4142  1  0.558200  0.902720  0.655530  1.0
  N  N4143  1  0.058200  0.597280  0.655530  1.0
  N  N4144  1  0.441800  0.097280  0.344470  1.0
  N  N4145  1  0.997600  0.408380  0.400400  1.0
  N  N4146  1  0.502400  0.908380  0.599600  1.0
  N  N4147  1  0.002400  0.591620  0.599600  1.0
  N  N4148  1  0.497600  0.091620  0.400400  1.0
  N  N4149  1  0.832900  0.401600  0.218100  1.0
  N  N4150  1  0.667100  0.901600  0.781900  1.0
  N  N4151  1  0.167100  0.598400  0.781900  1.0
  N  N4152  1  0.332900  0.098400  0.218100  1.0
  N  N4153  1  0.857900  0.407200  0.250400  1.0
  N  N4154  1  0.642100  0.907200  0.749600  1.0
  N  N4155  1  0.142100  0.592800  0.749600  1.0
  N  N4156  1  0.357900  0.092800  0.250400  1.0
  N  N4157  1  0.938800  0.656900  0.405050  1.0
  N  N4158  1  0.561200  0.156900  0.594950  1.0
  N  N4159  1  0.061200  0.343100  0.594950  1.0
  N  N4160  1  0.438800  0.843100  0.405050  1.0
  N  N4161  1  0.913000  0.634510  0.345170  1.0
  N  N4162  1  0.587000  0.134510  0.654830  1.0
  N  N4163  1  0.087000  0.365490  0.654830  1.0
  N  N4164  1  0.413000  0.865490  0.345170  1.0
  N  N4165  1  0.831000  0.587800  0.113530  1.0
  N  N4166  1  0.669000  0.087800  0.886470  1.0
  N  N4167  1  0.169000  0.412200  0.886470  1.0
  N  N4168  1  0.331000  0.912200  0.113530  1.0
  N  N4169  1  0.812100  0.582800  0.051300  1.0
  N  N4170  1  0.687900  0.082800  0.948700  1.0
  N  N4171  1  0.187900  0.417200  0.948700  1.0
  N  N4172  1  0.312100  0.917200  0.051300  1.0
  N  N4173  1  0.836600  0.601800  0.247500  1.0
  N  N4174  1  0.663400  0.101800  0.752500  1.0
  N  N4175  1  0.163400  0.398200  0.752500  1.0
  N  N4176  1  0.336600  0.898200  0.247500  1.0
  N  N4177  1  0.822900  0.597600  0.213800  1.0
  N  N4178  1  0.677100  0.097600  0.786200  1.0
  N  N4179  1  0.177100  0.402400  0.786200  1.0
  N  N4180  1  0.322900  0.902400  0.213800  1.0
  N  N4181  1  0.648200  0.399500  0.276700  0.426
  N  N4182  1  0.851800  0.899500  0.723300  0.426
  N  N4183  1  0.351800  0.600500  0.723300  0.426
  N  N4184  1  0.148200  0.100500  0.276700  0.426
  N  N4185  1  0.625100  0.400900  0.243800  0.426
  N  N4186  1  0.874900  0.900900  0.756200  0.426
  N  N4187  1  0.374900  0.599100  0.756200  0.426
  N  N4188  1  0.125100  0.099100  0.243800  0.426
  N  N4189  1  0.842700  0.651000  0.417100  0.5
  N  N4190  1  0.657300  0.151000  0.582900  0.5
  N  N4191  1  0.157300  0.349000  0.582900  0.5
  N  N4192  1  0.342700  0.849000  0.417100  0.5
  N  N4193  1  0.766000  0.630600  0.465600  0.5
  N  N4194  1  0.734000  0.130600  0.534400  0.5
  N  N4195  1  0.234000  0.369400  0.534400  0.5
  N  N4196  1  0.266000  0.869400  0.465600  0.5
  N  N4197  1  0.392300  0.286400  0.345400  0.5
  N  N4198  1  0.107700  0.786400  0.654600  0.5
  N  N4199  1  0.607700  0.713600  0.654600  0.5
  N  N4200  1  0.892300  0.213600  0.345400  0.5
  N  N4201  1  0.800500  0.505600  0.266100  0.5
  N  N4202  1  0.699500  0.005600  0.733900  0.5
  N  N4203  1  0.199500  0.494400  0.733900  0.5
  N  N4204  1  0.300500  0.994400  0.266100  0.5
  N  N4205  1  0.602900  0.346700  0.272300  0.5
  N  N4206  1  0.897100  0.846700  0.727700  0.5
  N  N4207  1  0.397100  0.653300  0.727700  0.5
  N  N4208  1  0.102900  0.153300  0.272300  0.5
  N  N4209  1  0.838800  0.312600  0.237300  0.5
  N  N4210  1  0.661200  0.812600  0.762700  0.5
  N  N4211  1  0.161200  0.687400  0.762700  0.5
  N  N4212  1  0.338800  0.187400  0.237300  0.5
  N  N4213  1  0.530300  0.655800  0.263100  0.5
  N  N4214  1  0.969700  0.155800  0.736900  0.5
  N  N4215  1  0.469700  0.344200  0.736900  0.5
  N  N4216  1  0.030300  0.844200  0.263100  0.5
  N  N4217  1  0.831300  0.354600  0.421400  0.5
  N  N4218  1  0.668700  0.854600  0.578600  0.5
  N  N4219  1  0.168700  0.645400  0.578600  0.5
  N  N4220  1  0.331300  0.145400  0.421400  0.5
  N  N4221  1  0.671400  0.409900  0.270100  0.574
  N  N4222  1  0.828600  0.909900  0.729900  0.574
  N  N4223  1  0.328600  0.590100  0.729900  0.574
  N  N4224  1  0.171400  0.090100  0.270100  0.574
  N  N4225  1  0.647900  0.413300  0.237000  0.574
  N  N4226  1  0.852100  0.913300  0.763000  0.574
  N  N4227  1  0.352100  0.586700  0.763000  0.574
  N  N4228  1  0.147900  0.086700  0.237000  0.574
  F  F4229  1  0.809800  0.535500  0.366800  0.564
  F  F4230  1  0.690200  0.035500  0.633200  0.564
  F  F4231  1  0.190200  0.464500  0.633200  0.564
  F  F4232  1  0.309800  0.964500  0.366800  0.564
  F  F4233  1  0.813500  0.473500  0.364800  0.564
  F  F4234  1  0.686500  0.973500  0.635200  0.564
  F  F4235  1  0.186500  0.526500  0.635200  0.564
  F  F4236  1  0.313500  0.026500  0.364800  0.564
  F  F4237  1  0.816800  0.507200  0.324500  0.564
  F  F4238  1  0.683200  0.007200  0.675500  0.564
  F  F4239  1  0.183200  0.492800  0.675500  0.564
  F  F4240  1  0.316800  0.992800  0.324500  0.564
  F  F4241  1  0.761000  0.502300  0.330200  0.564
  F  F4242  1  0.739000  0.002300  0.669800  0.564
  F  F4243  1  0.239000  0.497700  0.669800  0.564
  F  F4244  1  0.261000  0.997700  0.330200  0.564
  F  F4245  1  0.188200  0.403500  0.379400  1.0
  F  F4246  1  0.311800  0.903500  0.620600  1.0
  F  F4247  1  0.811800  0.596500  0.620600  1.0
  F  F4248  1  0.688200  0.096500  0.379400  1.0
  F  F4249  1  0.488250  0.332000  0.348980  1.0
  F  F4250  1  0.011750  0.832000  0.651020  1.0
  F  F4251  1  0.511750  0.668000  0.651020  1.0
  F  F4252  1  0.988250  0.168000  0.348980  1.0
  F  F4253  1  0.740700  0.159500  0.435600  1.0
  F  F4254  1  0.759300  0.659500  0.564400  1.0
  F  F4255  1  0.259300  0.840500  0.564400  1.0
  F  F4256  1  0.240700  0.340500  0.435600  1.0
  F  F4257  1  0.616300  0.797640  0.347300  1.0
  F  F4258  1  0.883700  0.297640  0.652700  1.0
  F  F4259  1  0.383700  0.202360  0.652700  1.0
  F  F4260  1  0.116300  0.702360  0.347300  1.0
  F  F4261  1  0.483700  0.596820  0.454400  1.0
  F  F4262  1  0.016300  0.096820  0.545600  1.0
  F  F4263  1  0.516300  0.403180  0.545600  1.0
  F  F4264  1  0.983700  0.903180  0.454400  1.0
  F  F4265  1  0.055300  0.697300  0.267300  1.0
  F  F4266  1  0.444700  0.197300  0.732700  1.0
  F  F4267  1  0.944700  0.302700  0.732700  1.0
  F  F4268  1  0.555300  0.802700  0.267300  1.0
  F  F4269  1  0.927800  0.849600  0.418200  1.0
  F  F4270  1  0.572200  0.349600  0.581800  1.0
  F  F4271  1  0.072200  0.150400  0.581800  1.0
  F  F4272  1  0.427800  0.650400  0.418200  1.0
  F  F4273  1  0.957000  0.216400  0.285950  1.0
  F  F4274  1  0.543000  0.716400  0.714050  1.0
  F  F4275  1  0.043000  0.783600  0.714050  1.0
  F  F4276  1  0.457000  0.283600  0.285950  1.0
  F  F4277  1  0.966800  0.543100  0.990300  1.0
  F  F4278  1  0.533200  0.043100  0.009700  1.0
  F  F4279  1  0.033200  0.456900  0.009700  1.0
  F  F4280  1  0.466800  0.956900  0.990300  1.0
  F  F4281  1  0.460800  0.734400  0.212100  1.0
  F  F4282  1  0.039200  0.234400  0.787900  1.0
  F  F4283  1  0.539200  0.265600  0.787900  1.0
  F  F4284  1  0.960800  0.765600  0.212100  1.0
  F  F4285  1  0.622700  0.872300  0.089500  1.0
  F  F4286  1  0.877300  0.372300  0.910500  1.0
  F  F4287  1  0.377300  0.127700  0.910500  1.0
  F  F4288  1  0.122700  0.627700  0.089500  1.0
  F  F4289  1  0.479600  0.249300  0.219000  1.0
  F  F4290  1  0.020400  0.749300  0.781000  1.0
  F  F4291  1  0.520400  0.750700  0.781000  1.0
  F  F4292  1  0.979600  0.250700  0.219000  1.0
  F  F4293  1  0.290400  0.475200  0.079600  1.0
  F  F4294  1  0.209600  0.975200  0.920400  1.0
  F  F4295  1  0.709600  0.524800  0.920400  1.0
  F  F4296  1  0.790400  0.024800  0.079600  1.0
  F  F4297  1  0.956200  0.282800  0.141100  1.0
  F  F4298  1  0.543800  0.782800  0.858900  1.0
  F  F4299  1  0.043800  0.717200  0.858900  1.0
  F  F4300  1  0.456200  0.217200  0.141100  1.0
  F  F4301  1  0.676100  0.144400  0.071600  1.0
  F  F4302  1  0.823900  0.644400  0.928400  1.0
  F  F4303  1  0.323900  0.855600  0.928400  1.0
  F  F4304  1  0.176100  0.355600  0.071600  1.0
  F  F4305  1  0.923500  0.767100  0.137200  1.0
  F  F4306  1  0.576500  0.267100  0.862800  1.0
  F  F4307  1  0.076500  0.232900  0.862800  1.0
  F  F4308  1  0.423500  0.732900  0.137200  1.0
  F  F4309  1  0.673900  0.587300  0.566800  1.0
  F  F4310  1  0.826100  0.087300  0.433200  1.0
  F  F4311  1  0.326100  0.412700  0.433200  1.0
  F  F4312  1  0.173900  0.912700  0.566800  1.0
  F  F4313  1  0.559100  0.741400  0.966100  1.0
  F  F4314  1  0.940900  0.241400  0.033900  1.0
  F  F4315  1  0.440900  0.258600  0.033900  1.0
  F  F4316  1  0.059100  0.758600  0.966100  1.0
  F  F4317  1  0.817500  0.323800  0.564450  1.0
  F  F4318  1  0.682500  0.823800  0.435550  1.0
  F  F4319  1  0.182500  0.676200  0.435550  1.0
  F  F4320  1  0.317500  0.176200  0.564450  1.0
  F  F4321  1  0.383000  0.415900  0.961110  1.0
  F  F4322  1  0.117000  0.915900  0.038890  1.0
  F  F4323  1  0.617000  0.584100  0.038890  1.0
  F  F4324  1  0.883000  0.084100  0.961110  1.0
  F  F4325  1  0.635100  0.293600  0.942950  1.0
  F  F4326  1  0.864900  0.793600  0.057050  1.0
  F  F4327  1  0.364900  0.706400  0.057050  1.0
  F  F4328  1  0.135100  0.206400  0.942950  1.0
  F  F4329  1  0.117800  0.414900  0.522100  1.0
  F  F4330  1  0.382200  0.914900  0.477900  1.0
  F  F4331  1  0.882200  0.585100  0.477900  1.0
  F  F4332  1  0.617800  0.085100  0.522100  1.0
  F  F4333  1  0.761100  0.588500  0.913680  1.0
  F  F4334  1  0.738900  0.088500  0.086320  1.0
  F  F4335  1  0.238900  0.411500  0.086320  1.0
  F  F4336  1  0.261100  0.911500  0.913680  1.0
  F  F4337  1  0.666900  0.498000  0.433900  1.0
  F  F4338  1  0.833100  0.998000  0.566100  1.0
  F  F4339  1  0.333100  0.502000  0.566100  1.0
  F  F4340  1  0.166900  0.002000  0.433900  1.0
  F  F4341  1  0.698700  0.445800  0.448600  1.0
  F  F4342  1  0.801300  0.945800  0.551400  1.0
  F  F4343  1  0.301300  0.554200  0.551400  1.0
  F  F4344  1  0.198700  0.054200  0.448600  1.0
  F  F4345  1  0.676900  0.463400  0.397300  1.0
  F  F4346  1  0.823100  0.963400  0.602700  1.0
  F  F4347  1  0.323100  0.536600  0.602700  1.0
  F  F4348  1  0.176900  0.036600  0.397300  1.0
  F  F4349  1  0.727400  0.492000  0.434900  1.0
  F  F4350  1  0.772600  0.992000  0.565100  1.0
  F  F4351  1  0.272600  0.508000  0.565100  1.0
  F  F4352  1  0.227400  0.008000  0.434900  1.0
  F  F4353  1  0.105500  0.247300  0.479970  1.0
  F  F4354  1  0.394500  0.747300  0.520030  1.0
  F  F4355  1  0.894500  0.752700  0.520030  1.0
  F  F4356  1  0.605500  0.252700  0.479970  1.0
  F  F4357  1  0.091610  0.256290  0.425050  1.0
  F  F4358  1  0.408390  0.756290  0.574950  1.0
  F  F4359  1  0.908390  0.743710  0.574950  1.0
  F  F4360  1  0.591610  0.243710  0.425050  1.0
  F  F4361  1  0.145200  0.279000  0.464120  1.0
  F  F4362  1  0.354800  0.779000  0.535880  1.0
  F  F4363  1  0.854800  0.721000  0.535880  1.0
  F  F4364  1  0.645200  0.221000  0.464120  1.0
  F  F4365  1  0.085100  0.301230  0.457050  1.0
  F  F4366  1  0.414900  0.801230  0.542950  1.0
  F  F4367  1  0.914900  0.698770  0.542950  1.0
  F  F4368  1  0.585100  0.198770  0.457050  1.0
  F  F4369  1  0.821900  0.436700  0.094400  0.2
  F  F4370  1  0.678100  0.936700  0.905600  0.2
  F  F4371  1  0.178100  0.563300  0.905600  0.2
  F  F4372  1  0.321900  0.063300  0.094400  0.2
  F  F4373  1  0.756800  0.437200  0.069800  0.2
  F  F4374  1  0.743200  0.937200  0.930200  0.2
  F  F4375  1  0.243200  0.562800  0.930200  0.2
  F  F4376  1  0.256800  0.062800  0.069800  0.2
  F  F4377  1  0.785500  0.461700  0.120400  0.2
  F  F4378  1  0.714500  0.961700  0.879600  0.2
  F  F4379  1  0.214500  0.538300  0.879600  0.2
  F  F4380  1  0.285500  0.038300  0.120400  0.2
  F  F4381  1  0.791300  0.488200  0.076500  0.2
  F  F4382  1  0.708700  0.988200  0.923500  0.2
  F  F4383  1  0.208700  0.511800  0.923500  0.2
  F  F4384  1  0.291300  0.011800  0.076500  0.2
  F  F4385  1  0.513000  0.515500  0.091500  0.2
  F  F4386  1  0.987000  0.015500  0.908500  0.2
  F  F4387  1  0.487000  0.484500  0.908500  0.2
  F  F4388  1  0.013000  0.984500  0.091500  0.2
  F  F4389  1  0.528500  0.572300  0.087000  0.2
  F  F4390  1  0.971500  0.072300  0.913000  0.2
  F  F4391  1  0.471500  0.427700  0.913000  0.2
  F  F4392  1  0.028500  0.927700  0.087000  0.2
  F  F4393  1  0.560600  0.541800  0.133500  0.2
  F  F4394  1  0.939400  0.041800  0.866500  0.2
  F  F4395  1  0.439400  0.458200  0.866500  0.2
  F  F4396  1  0.060600  0.958200  0.133500  0.2
  F  F4397  1  0.570100  0.529800  0.086300  0.2
  F  F4398  1  0.929900  0.029800  0.913700  0.2
  F  F4399  1  0.429900  0.470200  0.913700  0.2
  F  F4400  1  0.070100  0.970200  0.086300  0.2
  F  F4401  1  0.609500  0.411500  0.037000  0.2
  F  F4402  1  0.890500  0.911500  0.963000  0.2
  F  F4403  1  0.390500  0.588500  0.963000  0.2
  F  F4404  1  0.109500  0.088500  0.037000  0.2
  F  F4405  1  0.636100  0.460500  0.064500  0.2
  F  F4406  1  0.863900  0.960500  0.935500  0.2
  F  F4407  1  0.363900  0.539500  0.935500  0.2
  F  F4408  1  0.136100  0.039500  0.064500  0.2
  F  F4409  1  0.571700  0.451200  0.051800  0.2
  F  F4410  1  0.928300  0.951200  0.948200  0.2
  F  F4411  1  0.428300  0.548800  0.948200  0.2
  F  F4412  1  0.071700  0.048800  0.051800  0.2
  F  F4413  1  0.594600  0.463000  0.011800  0.2
  F  F4414  1  0.905400  0.963000  0.988200  0.2
  F  F4415  1  0.405400  0.537000  0.988200  0.2
  F  F4416  1  0.094600  0.037000  0.011800  0.2
  F  F4417  1  0.968800  0.560400  0.396000  0.25
  F  F4418  1  0.531200  0.060400  0.604000  0.25
  F  F4419  1  0.031200  0.439600  0.604000  0.25
  F  F4420  1  0.468800  0.939600  0.396000  0.25
  F  F4421  1  0.017000  0.530300  0.433000  0.25
  F  F4422  1  0.483000  0.030300  0.567000  0.25
  F  F4423  1  0.983000  0.469700  0.567000  0.25
  F  F4424  1  0.517000  0.969700  0.433000  0.25
  F  F4425  1  0.954100  0.515400  0.423600  0.25
  F  F4426  1  0.545900  0.015400  0.576400  0.25
  F  F4427  1  0.045900  0.484600  0.576400  0.25
  F  F4428  1  0.454100  0.984600  0.423600  0.25
  F  F4429  1  0.981600  0.503300  0.386600  0.25
  F  F4430  1  0.518400  0.003300  0.613400  0.25
  F  F4431  1  0.018400  0.496700  0.613400  0.25
  F  F4432  1  0.481600  0.996700  0.386600  0.25
  F  F4433  1  0.006100  0.523100  0.449800  0.25
  F  F4434  1  0.493900  0.023100  0.550200  0.25
  F  F4435  1  0.993900  0.476900  0.550200  0.25
  F  F4436  1  0.506100  0.976900  0.449800  0.25
  F  F4437  1  0.066700  0.535900  0.486400  0.25
  F  F4438  1  0.433300  0.035900  0.513600  0.25
  F  F4439  1  0.933300  0.464100  0.513600  0.25
  F  F4440  1  0.566700  0.964100  0.486400  0.25
  F  F4441  1  0.013000  0.555600  0.494600  0.25
  F  F4442  1  0.487000  0.055600  0.505400  0.25
  F  F4443  1  0.987000  0.444400  0.505400  0.25
  F  F4444  1  0.513000  0.944400  0.494600  0.25
  F  F4445  1  0.030800  0.577700  0.453500  0.25
  F  F4446  1  0.469200  0.077700  0.546500  0.25
  F  F4447  1  0.969200  0.422300  0.546500  0.25
  F  F4448  1  0.530800  0.922300  0.453500  0.25
  F  F4449  1  0.720800  0.643200  0.061500  0.25
  F  F4450  1  0.779200  0.143200  0.938500  0.25
  F  F4451  1  0.279200  0.356800  0.938500  0.25
  F  F4452  1  0.220800  0.856800  0.061500  0.25
  F  F4453  1  0.692600  0.665400  0.096000  0.25
  F  F4454  1  0.807400  0.165400  0.904000  0.25
  F  F4455  1  0.307400  0.334600  0.904000  0.25
  F  F4456  1  0.192600  0.834600  0.096000  0.25
  F  F4457  1  0.692200  0.607400  0.088000  0.25
  F  F4458  1  0.807800  0.107400  0.912000  0.25
  F  F4459  1  0.307800  0.392600  0.912000  0.25
  F  F4460  1  0.192200  0.892600  0.088000  0.25
  F  F4461  1  0.748000  0.635200  0.116800  0.25
  F  F4462  1  0.752000  0.135200  0.883200  0.25
  F  F4463  1  0.252000  0.364800  0.883200  0.25
  F  F4464  1  0.248000  0.864800  0.116800  0.25
  F  F4465  1  0.624500  0.342700  0.085700  0.3
  F  F4466  1  0.875500  0.842700  0.914300  0.3
  F  F4467  1  0.375500  0.657300  0.914300  0.3
  F  F4468  1  0.124500  0.157300  0.085700  0.3
  F  F4469  1  0.567700  0.369900  0.080500  0.3
  F  F4470  1  0.932300  0.869900  0.919500  0.3
  F  F4471  1  0.432300  0.630100  0.919500  0.3
  F  F4472  1  0.067700  0.130100  0.080500  0.3
  F  F4473  1  0.623400  0.400400  0.093000  0.3
  F  F4474  1  0.876600  0.900400  0.907000  0.3
  F  F4475  1  0.376600  0.599600  0.907000  0.3
  F  F4476  1  0.123400  0.099600  0.093000  0.3
  F  F4477  1  0.596100  0.376700  0.042200  0.3
  F  F4478  1  0.903900  0.876700  0.957800  0.3
  F  F4479  1  0.403900  0.623300  0.957800  0.3
  F  F4480  1  0.096100  0.123300  0.042200  0.3
  F  F4481  1  0.079900  0.770600  0.475200  0.332
  F  F4482  1  0.420100  0.270600  0.524800  0.332
  F  F4483  1  0.920100  0.229400  0.524800  0.332
  F  F4484  1  0.579900  0.729400  0.475200  0.332
  F  F4485  1  0.102200  0.736000  0.440800  0.332
  F  F4486  1  0.397800  0.236000  0.559200  0.332
  F  F4487  1  0.897800  0.264000  0.559200  0.332
  F  F4488  1  0.602200  0.764000  0.440800  0.332
  F  F4489  1  0.131300  0.733700  0.493600  0.332
  F  F4490  1  0.368700  0.233700  0.506400  0.332
  F  F4491  1  0.868700  0.266300  0.506400  0.332
  F  F4492  1  0.631300  0.766300  0.493600  0.332
  F  F4493  1  0.070000  0.712800  0.472500  0.332
  F  F4494  1  0.430000  0.212800  0.527500  0.332
  F  F4495  1  0.930000  0.287200  0.527500  0.332
  F  F4496  1  0.570000  0.787200  0.472500  0.332
  F  F4497  1  0.799800  0.481100  0.055900  0.4
  F  F4498  1  0.700200  0.981100  0.944100  0.4
  F  F4499  1  0.200200  0.518900  0.944100  0.4
  F  F4500  1  0.299800  0.018900  0.055900  0.4
  F  F4501  1  0.800000  0.451200  0.101000  0.4
  F  F4502  1  0.700000  0.951200  0.899000  0.4
  F  F4503  1  0.200000  0.548800  0.899000  0.4
  F  F4504  1  0.300000  0.048800  0.101000  0.4
  F  F4505  1  0.744700  0.475600  0.067300  0.4
  F  F4506  1  0.755300  0.975600  0.932700  0.4
  F  F4507  1  0.255300  0.524400  0.932700  0.4
  F  F4508  1  0.244700  0.024400  0.067300  0.4
  F  F4509  1  0.768500  0.428100  0.049900  0.4
  F  F4510  1  0.731500  0.928100  0.950100  0.4
  F  F4511  1  0.231500  0.571900  0.950100  0.4
  F  F4512  1  0.268500  0.071900  0.049900  0.4
  F  F4513  1  0.674600  0.509900  0.179200  0.413
  F  F4514  1  0.825400  0.009900  0.820800  0.413
  F  F4515  1  0.325400  0.490100  0.820800  0.413
  F  F4516  1  0.174600  0.990100  0.179200  0.413
  F  F4517  1  0.733100  0.499100  0.173800  0.413
  F  F4518  1  0.766900  0.999100  0.826200  0.413
  F  F4519  1  0.266900  0.500900  0.826200  0.413
  F  F4520  1  0.233100  0.000900  0.173800  0.413
  F  F4521  1  0.675800  0.474600  0.139900  0.413
  F  F4522  1  0.824200  0.974600  0.860100  0.413
  F  F4523  1  0.324200  0.525400  0.860100  0.413
  F  F4524  1  0.175800  0.025400  0.139900  0.413
  F  F4525  1  0.687000  0.532700  0.136300  0.413
  F  F4526  1  0.813000  0.032700  0.863700  0.413
  F  F4527  1  0.313000  0.467300  0.863700  0.413
  F  F4528  1  0.187000  0.967300  0.136300  0.413
  F  F4529  1  0.018400  0.687000  0.539000  0.418
  F  F4530  1  0.481600  0.187000  0.461000  0.418
  F  F4531  1  0.981600  0.313000  0.461000  0.418
  F  F4532  1  0.518400  0.813000  0.539000  0.418
  F  F4533  1  0.781500  0.503900  0.372600  0.436
  F  F4534  1  0.718500  0.003900  0.627400  0.436
  F  F4535  1  0.218500  0.496100  0.627400  0.436
  F  F4536  1  0.281500  0.996100  0.372600  0.436
  F  F4537  1  0.839100  0.507600  0.362500  0.436
  F  F4538  1  0.660900  0.007600  0.637500  0.436
  F  F4539  1  0.160900  0.492400  0.637500  0.436
  F  F4540  1  0.339100  0.992400  0.362500  0.436
  F  F4541  1  0.786400  0.534500  0.330200  0.436
  F  F4542  1  0.713600  0.034500  0.669800  0.436
  F  F4543  1  0.213600  0.465500  0.669800  0.436
  F  F4544  1  0.286400  0.965500  0.330200  0.436
  F  F4545  1  0.789700  0.473700  0.332100  0.436
  F  F4546  1  0.710300  0.973700  0.667900  0.436
  F  F4547  1  0.210300  0.526300  0.667900  0.436
  F  F4548  1  0.289700  0.026300  0.332100  0.436
  F  F4549  1  0.906300  0.706600  0.998900  0.437
  F  F4550  1  0.593700  0.206600  0.001100  0.437
  F  F4551  1  0.093700  0.293400  0.001100  0.437
  F  F4552  1  0.406300  0.793400  0.998900  0.437
  F  F4553  1  0.942900  0.712100  0.053000  0.437
  F  F4554  1  0.557100  0.212100  0.947000  0.437
  F  F4555  1  0.057100  0.287900  0.947000  0.437
  F  F4556  1  0.442900  0.787900  0.053000  0.437
  F  F4557  1  0.973500  0.705000  0.015500  0.437
  F  F4558  1  0.526500  0.205000  0.984500  0.437
  F  F4559  1  0.026500  0.295000  0.984500  0.437
  F  F4560  1  0.473500  0.795000  0.015500  0.437
  F  F4561  1  0.942300  0.753700  0.016400  0.437
  F  F4562  1  0.557700  0.253700  0.983600  0.437
  F  F4563  1  0.057700  0.246300  0.983600  0.437
  F  F4564  1  0.442300  0.746300  0.016400  0.437
  F  F4565  1  0.647400  0.204300  0.310300  0.451
  F  F4566  1  0.852600  0.704300  0.689700  0.451
  F  F4567  1  0.352600  0.795700  0.689700  0.451
  F  F4568  1  0.147400  0.295700  0.310300  0.451
  F  F4569  1  0.601300  0.224000  0.325700  0.451
  F  F4570  1  0.898700  0.724000  0.674300  0.451
  F  F4571  1  0.398700  0.776000  0.674300  0.451
  F  F4572  1  0.101300  0.276000  0.325700  0.451
  F  F4573  1  0.582800  0.193300  0.277900  0.451
  F  F4574  1  0.917200  0.693300  0.722100  0.451
  F  F4575  1  0.417200  0.806700  0.722100  0.451
  F  F4576  1  0.082800  0.306700  0.277900  0.451
  F  F4577  1  0.610800  0.245800  0.278600  0.451
  F  F4578  1  0.889200  0.745800  0.721400  0.451
  F  F4579  1  0.389200  0.754200  0.721400  0.451
  F  F4580  1  0.110800  0.254200  0.278600  0.451
  F  F4581  1  0.989900  0.564000  0.412700  0.5
  F  F4582  1  0.510100  0.064000  0.587300  0.5
  F  F4583  1  0.010100  0.436000  0.587300  0.5
  F  F4584  1  0.489900  0.936000  0.412700  0.5
  F  F4585  1  0.002800  0.509400  0.396900  0.5
  F  F4586  1  0.497200  0.009400  0.603100  0.5
  F  F4587  1  0.997200  0.490600  0.603100  0.5
  F  F4588  1  0.502800  0.990600  0.396900  0.5
  F  F4589  1  0.946800  0.520700  0.405600  0.5
  F  F4590  1  0.553200  0.020700  0.594400  0.5
  F  F4591  1  0.053200  0.479300  0.594400  0.5
  F  F4592  1  0.446800  0.979300  0.405600  0.5
  F  F4593  1  0.958200  0.544600  0.362500  0.5
  F  F4594  1  0.541800  0.044600  0.637500  0.5
  F  F4595  1  0.041800  0.455400  0.637500  0.5
  F  F4596  1  0.458200  0.955400  0.362500  0.5
  F  F4597  1  0.856300  0.220100  0.223400  0.5
  F  F4598  1  0.643700  0.720100  0.776600  0.5
  F  F4599  1  0.143700  0.779900  0.776600  0.5
  F  F4600  1  0.356300  0.279900  0.223400  0.5
  F  F4601  1  0.858000  0.162300  0.217100  0.5
  F  F4602  1  0.642000  0.662300  0.782900  0.5
  F  F4603  1  0.142000  0.837700  0.782900  0.5
  F  F4604  1  0.358000  0.337700  0.217100  0.5
  F  F4605  1  0.813000  0.186700  0.235000  0.5
  F  F4606  1  0.687000  0.686700  0.765000  0.5
  F  F4607  1  0.187000  0.813300  0.765000  0.5
  F  F4608  1  0.313000  0.313300  0.235000  0.5
  F  F4609  1  0.807600  0.193900  0.182100  0.5
  F  F4610  1  0.692400  0.693900  0.817900  0.5
  F  F4611  1  0.192400  0.806100  0.817900  0.5
  F  F4612  1  0.307600  0.306100  0.182100  0.5
  F  F4613  1  0.439900  0.689200  0.293800  0.5
  F  F4614  1  0.060100  0.189200  0.706200  0.5
  F  F4615  1  0.560100  0.310800  0.706200  0.5
  F  F4616  1  0.939900  0.810800  0.293800  0.5
  F  F4617  1  0.498900  0.681300  0.287600  0.5
  F  F4618  1  0.001100  0.181300  0.712400  0.5
  F  F4619  1  0.501100  0.318700  0.712400  0.5
  F  F4620  1  0.998900  0.818700  0.287600  0.5
  F  F4621  1  0.459500  0.636500  0.283800  0.5
  F  F4622  1  0.040500  0.136500  0.716200  0.5
  F  F4623  1  0.540500  0.363500  0.716200  0.5
  F  F4624  1  0.959500  0.863500  0.283800  0.5
  F  F4625  1  0.489600  0.663000  0.333200  0.5
  F  F4626  1  0.010400  0.163000  0.666800  0.5
  F  F4627  1  0.510400  0.337000  0.666800  0.5
  F  F4628  1  0.989600  0.837000  0.333200  0.5
  F  F4629  1  0.635400  0.222000  0.281200  0.549
  F  F4630  1  0.864600  0.722000  0.718800  0.549
  F  F4631  1  0.364600  0.778000  0.718800  0.549
  F  F4632  1  0.135400  0.278000  0.281200  0.549
  F  F4633  1  0.590500  0.184700  0.288400  0.549
  F  F4634  1  0.909500  0.684700  0.711600  0.549
  F  F4635  1  0.409500  0.815300  0.711600  0.549
  F  F4636  1  0.090500  0.315300  0.288400  0.549
  F  F4637  1  0.583100  0.244900  0.285200  0.549
  F  F4638  1  0.916900  0.744900  0.714800  0.549
  F  F4639  1  0.416900  0.755100  0.714800  0.549
  F  F4640  1  0.083100  0.255100  0.285200  0.549
  F  F4641  1  0.625600  0.218100  0.330500  0.549
  F  F4642  1  0.874400  0.718100  0.669500  0.549
  F  F4643  1  0.374400  0.781900  0.669500  0.549
  F  F4644  1  0.125600  0.281900  0.330500  0.549
  F  F4645  1  0.919000  0.732900  0.037000  0.563
  F  F4646  1  0.581000  0.232900  0.963000  0.563
  F  F4647  1  0.081000  0.267100  0.963000  0.563
  F  F4648  1  0.419000  0.767100  0.037000  0.563
  F  F4649  1  0.965600  0.695400  0.047200  0.563
  F  F4650  1  0.534400  0.195400  0.952800  0.563
  F  F4651  1  0.034400  0.304600  0.952800  0.563
  F  F4652  1  0.465600  0.804600  0.047200  0.563
  F  F4653  1  0.965900  0.738200  0.012800  0.563
  F  F4654  1  0.534100  0.238200  0.987200  0.563
  F  F4655  1  0.034100  0.261800  0.987200  0.563
  F  F4656  1  0.465900  0.761800  0.012800  0.563
  F  F4657  1  0.920600  0.693800  0.997600  0.563
  F  F4658  1  0.579400  0.193800  0.002400  0.563
  F  F4659  1  0.079400  0.306200  0.002400  0.563
  F  F4660  1  0.420600  0.806200  0.997600  0.563
  F  F4661  1  0.695100  0.475800  0.177000  0.587
  F  F4662  1  0.804900  0.975800  0.823000  0.587
  F  F4663  1  0.304900  0.524200  0.823000  0.587
  F  F4664  1  0.195100  0.024200  0.177000  0.587
  F  F4665  1  0.715600  0.532100  0.176300  0.587
  F  F4666  1  0.784400  0.032100  0.823700  0.587
  F  F4667  1  0.284400  0.467900  0.823700  0.587
  F  F4668  1  0.215600  0.967900  0.176300  0.587
  F  F4669  1  0.656300  0.514300  0.141400  0.587
  F  F4670  1  0.843700  0.014300  0.858600  0.587
  F  F4671  1  0.343700  0.485700  0.858600  0.587
  F  F4672  1  0.156300  0.985700  0.141400  0.587
  F  F4673  1  0.714900  0.496800  0.136600  0.587
  F  F4674  1  0.785100  0.996800  0.863400  0.587
  F  F4675  1  0.285100  0.503200  0.863400  0.587
  F  F4676  1  0.214900  0.003200  0.136600  0.587
  F  F4677  1  0.359200  0.328600  0.038600  0.6
  F  F4678  1  0.140800  0.828600  0.961400  0.6
  F  F4679  1  0.640800  0.671400  0.961400  0.6
  F  F4680  1  0.859200  0.171400  0.038600  0.6
  F  F4681  1  0.346200  0.297700  0.077600  0.6
  F  F4682  1  0.153800  0.797700  0.922400  0.6
  F  F4683  1  0.653800  0.702300  0.922400  0.6
  F  F4684  1  0.846200  0.202300  0.077600  0.6
  F  F4685  1  0.341700  0.273200  0.030000  0.6
  F  F4686  1  0.158300  0.773200  0.970000  0.6
  F  F4687  1  0.658300  0.726800  0.970000  0.6
  F  F4688  1  0.841700  0.226800  0.030000  0.6
  F  F4689  1  0.296300  0.311100  0.030600  0.6
  F  F4690  1  0.203700  0.811100  0.969400  0.6
  F  F4691  1  0.703700  0.688900  0.969400  0.6
  F  F4692  1  0.796300  0.188900  0.030600  0.6
  F  F4693  1  0.064200  0.758000  0.474400  0.668
  F  F4694  1  0.435800  0.258000  0.525600  0.668
  F  F4695  1  0.935800  0.242000  0.525600  0.668
  F  F4696  1  0.564200  0.742000  0.474400  0.668
  F  F4697  1  0.090400  0.746200  0.437190  0.668
  F  F4698  1  0.409600  0.246200  0.562810  0.668
  F  F4699  1  0.909600  0.253800  0.562810  0.668
  F  F4700  1  0.590400  0.753800  0.437190  0.668
  F  F4701  1  0.129000  0.753300  0.490900  0.668
  F  F4702  1  0.371000  0.253300  0.509100  0.668
  F  F4703  1  0.871000  0.246700  0.509100  0.668
  F  F4704  1  0.629000  0.746700  0.490900  0.668
  F  F4705  1  0.090000  0.704200  0.474600  0.668
  F  F4706  1  0.410000  0.204200  0.525400  0.668
  F  F4707  1  0.910000  0.295800  0.525400  0.668
  F  F4708  1  0.590000  0.795800  0.474600  0.668
  F  F4709  1  0.995400  0.717500  0.528800  0.582
  F  F4710  1  0.504600  0.217500  0.471200  0.582
  F  F4711  1  0.004600  0.282500  0.471200  0.582
  F  F4712  1  0.495400  0.782500  0.528800  0.582
