
#######################################################################
#
#                 Cambridge Crystallographic Data Centre
#                                CCDC 
#
#######################################################################
#
# If this CIF has been generated from an entry in the Cambridge 
# Structural Database, then it will include bibliographic, chemical, 
# crystal, experimental, refinement or atomic coordinate data resulting 
# from the CCDC's data processing and validation procedures.
#
#######################################################################

data_BICWOA
_chemical_formula_moiety         
'C84 H48 F16 N4 Pd1 2+,2(N1 O3 1-),4(C4 H10 O1)'
_chemical_name_systematic        
"bis(3,3''-bis(4-(4-Pyridylmethyl)-2,3,5,6-tetrafluorophenyl)terphenyl)-palladium(ii) dinitrate diethyl ether solvate"
_symmetry_cell_setting           monoclinic
_symmetry_space_group_name_H-M   'P 21/n'
_symmetry_Int_Tables_number      14
_space_group_name_Hall           '-P 2yn'
loop_
_symmetry_equiv_pos_site_id
_symmetry_equiv_pos_as_xyz
1 x,y,z
2 1/2-x,1/2+y,1/2-z
3 -x,-y,-z
4 1/2+x,1/2-y,1/2+z
_cell_length_a                   15.485(3)
_cell_length_b                   9.562(2)
_cell_length_c                   30.234(6)
_cell_angle_alpha                90
_cell_angle_beta                 104.052(4)
_cell_angle_gamma                90
_cell_volume                     4342.71
_exptl_crystal_colour            colorless
_chemical_melting_point          '473 K'
_cell_formula_units_Z            2
_exptl_crystal_recrystallization_method 
'dimethylformamide/methanol/diethyl ether'
loop_
_atom_site_label
_atom_site_type_symbol
_atom_site_fract_x
_atom_site_fract_y
_atom_site_fract_z
Pd1 Pd 1.0000 0.5000 0.5000
F1 F 1.2921(3) 0.3205(7) 0.35619(14)
F2 F 1.2780(4) 0.3965(6) 0.27049(16)
F3 F 1.0563(3) 0.0597(4) 0.22142(13)
F4 F 1.0669(3) -0.0109(5) 0.30739(14)
F5 F 0.7349(3) 0.3166(5) 0.21951(13)
F6 F 0.7228(3) 0.3245(5) 0.30569(13)
F7 F 0.5808(3) 0.7593(4) 0.27858(12)
F8 F 0.5883(3) 0.7483(4) 0.19210(13)
N1 N 1.0581(3) 0.3777(5) 0.46151(15)
C1 C 1.0829(4) 0.2467(7) 0.4740(2)
H1 H 1.0715 0.2114 0.5014
C2 C 1.1233(4) 0.1624(7) 0.4494(2)
H2 H 1.1408 0.0708 0.4601
C3 C 1.1395(4) 0.2068(7) 0.40923(19)
C4 C 1.1126(4) 0.3419(8) 0.3955(2)
H3 H 1.1223 0.3779 0.3678
C5 C 1.0725(4) 0.4223(8) 0.4218(2)
H4 H 1.0538 0.5139 0.4116
C6 C 1.1878(5) 0.1113(9) 0.3839(2)
H5 H 1.1642 0.0153 0.3847
H6 H 1.2516 0.1095 0.4001
C7 C 1.1802(4) 0.1521(8) 0.3345(2)
C8 C 1.2333(5) 0.2536(9) 0.3231(2)
C9 C 1.2264(5) 0.2940(9) 0.2790(2)
C10 C 1.1666(4) 0.2312(7) 0.24257(19)
C11 C 1.1147(4) 0.1272(7) 0.2545(2)
C12 C 1.1203(4) 0.0886(7) 0.2991(2)
C13 C 1.1610(4) 0.2709(7) 0.19498(19)
C14 C 1.0894(4) 0.3501(7) 0.1715(2)
H7 H 1.0450 0.3785 0.1865
C15 C 1.0818(4) 0.3886(7) 0.1264(2)
C16 C 1.1479(4) 0.3483(8) 0.1058(2)
H8 H 1.1440 0.3740 0.0751
C17 C 1.2196(5) 0.2715(8) 0.1292(2)
H9 H 1.2651 0.2460 0.1146
C18 C 1.2259(4) 0.2309(8) 0.1739(2)
H10 H 1.2748 0.1759 0.1898
C19 C 1.0051(4) 0.4734(7) 0.10130(19)
C20 C 0.9220(4) 0.4664(7) 0.1123(2)
H11 H 0.9157 0.4095 0.1371
C21 C 0.8495(4) 0.5401(7) 0.0881(2)
C22 C 0.8586(5) 0.6214(7) 0.0508(2)
H12 H 0.8083 0.6682 0.0326
C23 C 0.9392(5) 0.6333(8) 0.0406(2)
H13 H 0.9454 0.6923 0.0162
C24 C 1.0122(5) 0.5605(8) 0.0653(2)
H14 H 1.0680 0.5699 0.0577
C25 C 0.7614(4) 0.5310(7) 0.0996(2)
C26 C 0.7544(4) 0.5302(7) 0.14497(19)
H15 H 0.8068 0.5320 0.1691
C27 C 0.6719(4) 0.5269(6) 0.15485(19)
C28 C 0.6021(4) 0.5199(8) 0.0753(2)
H16 H 0.5498 0.5147 0.0512
C29 C 0.5954(4) 0.5212(7) 0.1201(2)
H17 H 0.5386 0.5182 0.1269
C30 C 0.6835(5) 0.5259(8) 0.0656(2)
H18 H 0.6869 0.5267 0.0346
C31 C 0.6640(4) 0.5329(6) 0.20331(19)
C32 C 0.6973(4) 0.4287(7) 0.2337(2)
C33 C 0.6913(4) 0.4338(7) 0.2788(2)
C34 C 0.6537(4) 0.5430(7) 0.2952(2)
C35 C 0.6188(4) 0.6471(7) 0.26505(19)
C36 C 0.6233(4) 0.6405(7) 0.2197(2)
N2 N 0.8890(3) 0.5130(5) 0.44769(15)
C37 C 0.8768(4) 0.6218(7) 0.41805(18)
H19 H 0.9220 0.6906 0.4206
C38 C 0.7991(4) 0.6332(8) 0.3842(2)
H20 H 0.7911 0.7105 0.3638
C39 C 0.7328(4) 0.5331(7) 0.37950(19)
C40 C 0.7480(4) 0.4230(8) 0.4096(2)
H21 H 0.7045 0.3516 0.4072
C41 C 0.8264(4) 0.4155(7) 0.4434(2)
H22 H 0.8356 0.3387 0.4639
C42 C 0.6461(4) 0.5470(8) 0.3446(2)
H23 H 0.6179 0.6364 0.3498
H24 H 0.6062 0.4704 0.3492
N1B N 0.9419(3) 0.6223(5) 0.53849(15)
C1B C 0.9171(4) 0.7533(7) 0.5260(2)
H1B H 0.9285 0.7886 0.4986
C2B C 0.8767(4) 0.8376(7) 0.5506(2)
H2B H 0.8592 0.9292 0.5399
C3B C 0.8605(4) 0.7932(7) 0.59077(19)
C4B C 0.8874(4) 0.6581(8) 0.6045(2)
H3B H 0.8777 0.6221 0.6322
C5B C 0.9275(4) 0.5777(8) 0.5782(2)
H4B H 0.9462 0.4861 0.5884
C6B C 0.8122(5) 0.8887(9) 0.6161(2)
H5B H 0.8358 0.9847 0.6153
H6B H 0.7484 0.8905 0.5999
C7B C 0.8198(4) 0.8479(8) 0.6655(2)
C8B C 0.7667(5) 0.7464(9) 0.6769(2)
F1B F 0.7079(3) 0.6795(7) 0.64381(14)
C9B C 0.7736(5) 0.7060(9) 0.7210(2)
F2B F 0.7220(4) 0.6035(6) 0.72951(16)
C10B C 0.8334(4) 0.7688(7) 0.75743(19)
C11B C 0.8853(4) 0.8728(7) 0.7455(2)
F3B F 0.9437(3) 0.9403(4) 0.77858(13)
C12B C 0.8797(4) 0.9114(7) 0.7009(2)
F4B F 0.9331(3) 1.0109(5) 0.69261(14)
C13B C 0.8390(4) 0.7291(7) 0.80502(19)
C14B C 0.9106(4) 0.6499(7) 0.8285(2)
H7B H 0.9550 0.6215 0.8135
C15B C 0.9182(4) 0.6114(7) 0.8736(2)
C16B C 0.8521(4) 0.6517(8) 0.8942(2)
H8B H 0.8560 0.6260 0.9249
C17B C 0.7804(5) 0.7285(8) 0.8708(2)
H9B H 0.7349 0.7540 0.8854
C18B C 0.7741(4) 0.7691(8) 0.8261(2)
H10B H 0.7252 0.8241 0.8102
C19B C 0.9949(4) 0.5266(7) 0.89870(19)
C20B C 1.0780(4) 0.5336(7) 0.8877(2)
H11B H 1.0843 0.5905 0.8629
C21B C 1.1505(4) 0.4599(7) 0.9119(2)
C22B C 1.1414(5) 0.3786(7) 0.9492(2)
H12B H 1.1917 0.3318 0.9674
C23B C 1.0608(5) 0.3667(8) 0.9594(2)
H13B H 1.0546 0.3077 0.9838
C24B C 0.9878(5) 0.4395(8) 0.9347(2)
H14B H 0.9320 0.4301 0.9423
C25B C 1.2386(4) 0.4690(7) 0.9004(2)
C26B C 1.2456(4) 0.4698(7) 0.85503(19)
H15B H 1.1932 0.4680 0.8309
C27B C 1.3281(4) 0.4731(6) 0.84515(19)
C29B C 1.4046(4) 0.4788(7) 0.8799(2)
C28B C 1.3979(4) 0.4801(8) 0.9247(2)
H16B H 1.4502 0.4853 0.9488
C30B C 1.3165(5) 0.4741(8) 0.9344(2)
H18B H 1.3131 0.4733 0.9654
H17B H 1.4614 0.4818 0.8731
C31B C 1.3360(4) 0.4671(6) 0.79669(19)
C32B C 1.3027(4) 0.5713(7) 0.7663(2)
F5B F 1.2651(3) 0.6834(5) 0.78049(13)
C33B C 1.3087(4) 0.5662(7) 0.7212(2)
F6B F 1.2772(3) 0.6755(5) 0.69431(13)
C34B C 1.3463(4) 0.4570(7) 0.7048(2)
C35B C 1.3812(4) 0.3529(7) 0.73495(19)
F7B F 1.4192(3) 0.2407(4) 0.72142(12)
C36B C 1.3767(4) 0.3595(7) 0.7803(2)
F8B F 1.4117(3) 0.2517(4) 0.80790(13)
C42B C 1.3539(4) 0.4530(8) 0.6554(2)
C39B C 1.2672(4) 0.4669(7) 0.62050(19)
C38B C 1.2009(4) 0.3668(8) 0.6158(2)
C37B C 1.1232(4) 0.3782(7) 0.58195(18)
N2B N 1.1110(3) 0.4870(5) 0.55231(15)
C41B C 1.1736(4) 0.5845(7) 0.5566(2)
C40B C 1.2520(4) 0.5770(8) 0.5904(2)
H21B H 1.2955 0.6484 0.5928
H22B H 1.1644 0.6613 0.5361
H19B H 1.0780 0.3094 0.5794
H20B H 1.2089 0.2895 0.6362
H23B H 1.3821 0.3636 0.6502
H24B H 1.3938 0.5296 0.6508
N3 N 0.6092(4) -0.2871(6) -0.05513(17)
O1 O 0.6886(3) -0.3187(8) -0.04144(18)
O2 O 0.5760(3) -0.2697(7) -0.09623(15)
O3 O 0.5627(3) -0.2771(6) -0.02733(15)
O4 O 0.1024(4) 0.8842(7) 0.0321(2)
C43 C 0.1010(7) 1.0038(10) 0.0585(3)
H25 H 0.0851 1.0861 0.0383
H26 H 0.1610 1.0199 0.0785
C44 C 0.0349(7) 0.9884(11) 0.0872(3)
H27 H 0.0346 1.0738 0.1051
H28 H 0.0517 0.9086 0.1079
H29 H -0.0245 0.9727 0.0675
C45 C 0.1671(6) 0.8910(10) 0.0067(3)
H30 H 0.2272 0.8965 0.0276
H31 H 0.1578 0.9759 -0.0126
C46 C 0.1610(7) 0.7667(12) -0.0220(3)
H32 H 0.2059 0.7719 -0.0399
H33 H 0.1016 0.7618 -0.0427
H34 H 0.1714 0.6830 -0.0028
O5 O 1.0014(5) 0.5672(8) 0.2505(4)
C47 C 1.0403(15) 0.5220(17) 0.2870(7)
H35 H 1.0984 0.5668 0.3004
H36 H 1.0437 0.4187 0.2890
C48 C 0.9488(7) 0.5967(10) 0.3035(3)
H37 H 0.9578 0.5888 0.3366
H38 H 0.8942 0.5473 0.2884
H39 H 0.9435 0.6956 0.2947
C49 C 1.0233(7) 0.6995(10) 0.2353(3)
H40 H 1.0816 0.7237 0.2557
H41 H 0.9798 0.7653 0.2430
C50 C 1.0309(11) 0.7454(17) 0.1843(5)
H42 H 1.0421 0.8462 0.1837
H43 H 0.9752 0.7230 0.1621
H44 H 1.0801 0.6946 0.1764
loop_
_geom_bond_atom_site_label_1
_geom_bond_atom_site_label_2
_geom_bond_site_symmetry_1
_geom_bond_site_symmetry_2
Pd1 N1 1_555 1_555
F1 C8 1_555 1_555
F2 C9 1_555 1_555
F3 C11 1_555 1_555
F4 C12 1_555 1_555
F5 C32 1_555 1_555
F6 C33 1_555 1_555
F7 C35 1_555 1_555
F8 C36 1_555 1_555
N1 C1 1_555 1_555
C1 H1 1_555 1_555
C2 C1 1_555 1_555
H2 C2 1_555 1_555
C3 C2 1_555 1_555
C4 C3 1_555 1_555
H3 C4 1_555 1_555
C5 N1 1_555 1_555
H4 C5 1_555 1_555
C6 C3 1_555 1_555
H5 C6 1_555 1_555
H6 C6 1_555 1_555
C7 C6 1_555 1_555
C8 C7 1_555 1_555
C9 C8 1_555 1_555
C10 C9 1_555 1_555
C11 C10 1_555 1_555
C12 C7 1_555 1_555
C13 C10 1_555 1_555
C14 C13 1_555 1_555
H7 C14 1_555 1_555
C15 C14 1_555 1_555
C16 C15 1_555 1_555
H8 C16 1_555 1_555
C17 C16 1_555 1_555
H9 C17 1_555 1_555
C18 C13 1_555 1_555
H10 C18 1_555 1_555
C19 C15 1_555 1_555
C20 C19 1_555 1_555
H11 C20 1_555 1_555
C21 C20 1_555 1_555
C22 C21 1_555 1_555
H12 C22 1_555 1_555
C23 C22 1_555 1_555
H13 C23 1_555 1_555
C24 C19 1_555 1_555
H14 C24 1_555 1_555
C25 C21 1_555 1_555
C26 C25 1_555 1_555
H15 C26 1_555 1_555
C27 C26 1_555 1_555
C28 H16 1_555 1_555
C29 C27 1_555 1_555
H17 C29 1_555 1_555
C30 C25 1_555 1_555
H18 C30 1_555 1_555
C31 C27 1_555 1_555
C32 C31 1_555 1_555
C33 C32 1_555 1_555
C34 C33 1_555 1_555
C35 C34 1_555 1_555
C36 C31 1_555 1_555
N2 Pd1 1_555 1_555
C37 N2 1_555 1_555
H19 C37 1_555 1_555
C38 C37 1_555 1_555
H20 C38 1_555 1_555
C39 C38 1_555 1_555
C40 C39 1_555 1_555
H21 C40 1_555 1_555
C41 N2 1_555 1_555
H22 C41 1_555 1_555
C42 C34 1_555 1_555
H23 C42 1_555 1_555
H24 C42 1_555 1_555
N3 O1 1_555 1_555
O2 N3 1_555 1_555
O3 N3 1_555 1_555
O4 C43 1_555 1_555
C43 H25 1_555 1_555
H26 C43 1_555 1_555
C44 C43 1_555 1_555
H27 C44 1_555 1_555
H28 C44 1_555 1_555
H29 C44 1_555 1_555
C45 O4 1_555 1_555
H30 C45 1_555 1_555
H31 C45 1_555 1_555
C46 C45 1_555 1_555
H32 C46 1_555 1_555
H33 C46 1_555 1_555
H34 C46 1_555 1_555
O5 C47 1_555 1_555
C47 H35 1_555 1_555
H36 C47 1_555 1_555
C48 C47 1_555 1_555
H37 C48 1_555 1_555
H38 C48 1_555 1_555
H39 C48 1_555 1_555
C49 O5 1_555 1_555
H40 C49 1_555 1_555
H41 C49 1_555 1_555
C50 C49 1_555 1_555
H42 C50 1_555 1_555
H43 C50 1_555 1_555
H44 C50 1_555 1_555
N1B Pd1 1_555 1_555
C1B N1B 1_555 1_555
H1B C1B 1_555 1_555
C2B C1B 1_555 1_555
H2B C2B 1_555 1_555
C3B C2B 1_555 1_555
C4B C3B 1_555 1_555
H3B C4B 1_555 1_555
C5B N1B 1_555 1_555
H4B C5B 1_555 1_555
C6B C3B 1_555 1_555
H5B C6B 1_555 1_555
H6B C6B 1_555 1_555
C7B C6B 1_555 1_555
C8B C7B 1_555 1_555
F1B C8B 1_555 1_555
C9B C8B 1_555 1_555
F2B C9B 1_555 1_555
C10B C9B 1_555 1_555
C11B C10B 1_555 1_555
F3B C11B 1_555 1_555
C12B C7B 1_555 1_555
F4B C12B 1_555 1_555
C13B C10B 1_555 1_555
C14B C13B 1_555 1_555
H7B C14B 1_555 1_555
C15B C14B 1_555 1_555
C16B C15B 1_555 1_555
H8B C16B 1_555 1_555
C17B C16B 1_555 1_555
H9B C17B 1_555 1_555
C18B C13B 1_555 1_555
H10B C18B 1_555 1_555
C19B C15B 1_555 1_555
C20B C19B 1_555 1_555
H11B C20B 1_555 1_555
C21B C20B 1_555 1_555
C22B C21B 1_555 1_555
H12B C22B 1_555 1_555
C23B C22B 1_555 1_555
H13B C23B 1_555 1_555
C24B C19B 1_555 1_555
H14B C24B 1_555 1_555
C25B C21B 1_555 1_555
C26B C25B 1_555 1_555
H15B C26B 1_555 1_555
C27B C26B 1_555 1_555
C29B C27B 1_555 1_555
C28B C29B 1_555 1_555
H16B C28B 1_555 1_555
C30B C25B 1_555 1_555
H18B C30B 1_555 1_555
H17B C29B 1_555 1_555
C31B C27B 1_555 1_555
C32B C31B 1_555 1_555
F5B C32B 1_555 1_555
C33B C32B 1_555 1_555
F6B C33B 1_555 1_555
C34B C33B 1_555 1_555
C35B C34B 1_555 1_555
F7B C35B 1_555 1_555
C36B C31B 1_555 1_555
F8B C36B 1_555 1_555
C42B C34B 1_555 1_555
C39B C42B 1_555 1_555
C38B C39B 1_555 1_555
C37B C38B 1_555 1_555
N2B Pd1 1_555 1_555
C41B N2B 1_555 1_555
C40B C39B 1_555 1_555
H21B C40B 1_555 1_555
H22B C41B 1_555 1_555
H19B C37B 1_555 1_555
H20B C38B 1_555 1_555
H23B C42B 1_555 1_555
H24B C42B 1_555 1_555
C4 C5 1_555 1_555
C11 C12 1_555 1_555
C17 C18 1_555 1_555
C23 C24 1_555 1_555
C28 C29 1_555 1_555
C28 C30 1_555 1_555
C35 C36 1_555 1_555
C39 C42 1_555 1_555
C40 C41 1_555 1_555
C4B C5B 1_555 1_555
C11B C12B 1_555 1_555
C17B C18B 1_555 1_555
C23B C24B 1_555 1_555
C28B C30B 1_555 1_555
C35B C36B 1_555 1_555
C37B N2B 1_555 1_555
C41B C40B 1_555 1_555

#END
