# generated using pymatgen
data_H40Pd2C60N11(Cl3O8)4
_symmetry_space_group_name_H-M   'P 1'
_cell_length_a   33.72121529
_cell_length_b   33.72121529
_cell_length_c   33.72121529
_cell_angle_alpha   60.00000000
_cell_angle_beta   60.00000000
_cell_angle_gamma   60.00000000
_symmetry_Int_Tables_number   1
_chemical_formula_structural   H40Pd2C60N11(Cl3O8)4
_chemical_formula_sum   'H240 Pd12 C360 N66 Cl72 O192'
_cell_volume   27114.06643594
_cell_formula_units_Z   6
loop_
 _symmetry_equiv_pos_site_id
 _symmetry_equiv_pos_as_xyz
  1  'x, y, z'
loop_
 _atom_site_type_symbol
 _atom_site_label
 _atom_site_symmetry_multiplicity
 _atom_site_fract_x
 _atom_site_fract_y
 _atom_site_fract_z
 _atom_site_occupancy
  C  C1  1  0.899000  0.683400  0.899000  1
  C  C2  1  0.101000  0.101000  0.481400  1
  C  C3  1  0.481400  0.316600  0.101000  1
  C  C4  1  0.316600  0.481400  0.101000  1
  C  C5  1  0.899000  0.899000  0.683400  1
  C  C6  1  0.316600  0.101000  0.481400  1
  C  C7  1  0.101000  0.481400  0.101000  1
  C  C8  1  0.481400  0.101000  0.316600  1
  C  C9  1  0.683400  0.899000  0.899000  1
  C  C10  1  0.101000  0.316600  0.481400  1
  C  C11  1  0.101000  0.481400  0.316600  1
  C  C12  1  0.481400  0.101000  0.101000  1
  C  C13  1  0.101000  0.316600  0.101000  1
  C  C14  1  0.899000  0.899000  0.518600  1
  C  C15  1  0.518600  0.683400  0.899000  1
  C  C16  1  0.683400  0.518600  0.899000  1
  C  C17  1  0.101000  0.101000  0.316600  1
  C  C18  1  0.683400  0.899000  0.518600  1
  C  C19  1  0.899000  0.518600  0.899000  1
  C  C20  1  0.518600  0.899000  0.683400  1
  C  C21  1  0.316600  0.101000  0.101000  1
  C  C22  1  0.899000  0.683400  0.518600  1
  C  C23  1  0.899000  0.518600  0.683400  1
  C  C24  1  0.518600  0.899000  0.899000  1
  C  C25  1  0.009900  0.689300  0.907500  1.0
  C  C26  1  0.092500  0.990100  0.606700  1.0
  C  C27  1  0.606700  0.310700  0.092500  1.0
  C  C28  1  0.310700  0.606700  0.990100  1.0
  C  C29  1  0.907500  0.009900  0.689300  1.0
  C  C30  1  0.310700  0.092500  0.606700  1.0
  C  C31  1  0.990100  0.606700  0.092500  1.0
  C  C32  1  0.606700  0.990100  0.310700  1.0
  C  C33  1  0.689300  0.907500  0.009900  1.0
  C  C34  1  0.990100  0.310700  0.606700  1.0
  C  C35  1  0.092500  0.606700  0.310700  1.0
  C  C36  1  0.606700  0.092500  0.990100  1.0
  C  C37  1  0.310700  0.990100  0.606700  1.0
  C  C38  1  0.606700  0.092500  0.310700  1.0
  C  C39  1  0.092500  0.606700  0.990100  1.0
  C  C40  1  0.009900  0.907500  0.689300  1.0
  C  C41  1  0.606700  0.310700  0.990100  1.0
  C  C42  1  0.990100  0.092500  0.606700  1.0
  C  C43  1  0.310700  0.606700  0.092500  1.0
  C  C44  1  0.907500  0.689300  0.009900  1.0
  C  C45  1  0.990100  0.606700  0.310700  1.0
  C  C46  1  0.606700  0.990100  0.092500  1.0
  C  C47  1  0.092500  0.310700  0.606700  1.0
  C  C48  1  0.689300  0.009900  0.907500  1.0
  C  C49  1  0.990100  0.310700  0.092500  1.0
  C  C50  1  0.907500  0.009900  0.393300  1.0
  C  C51  1  0.393300  0.689300  0.907500  1.0
  C  C52  1  0.689300  0.393300  0.009900  1.0
  C  C53  1  0.092500  0.990100  0.310700  1.0
  C  C54  1  0.689300  0.907500  0.393300  1.0
  C  C55  1  0.009900  0.393300  0.907500  1.0
  C  C56  1  0.393300  0.009900  0.689300  1.0
  C  C57  1  0.310700  0.092500  0.990100  1.0
  C  C58  1  0.009900  0.689300  0.393300  1.0
  C  C59  1  0.907500  0.393300  0.689300  1.0
  C  C60  1  0.393300  0.907500  0.009900  1.0
  C  C61  1  0.689300  0.009900  0.393300  1.0
  C  C62  1  0.393300  0.907500  0.689300  1.0
  C  C63  1  0.907500  0.393300  0.009900  1.0
  C  C64  1  0.990100  0.092500  0.310700  1.0
  C  C65  1  0.393300  0.689300  0.009900  1.0
  C  C66  1  0.009900  0.907500  0.393300  1.0
  C  C67  1  0.689300  0.393300  0.907500  1.0
  C  C68  1  0.092500  0.310700  0.990100  1.0
  C  C69  1  0.009900  0.393300  0.689300  1.0
  C  C70  1  0.393300  0.009900  0.907500  1.0
  C  C71  1  0.907500  0.689300  0.393300  1.0
  C  C72  1  0.310700  0.990100  0.092500  1.0
  C  C73  1  0.017200  0.714400  0.858200  1.0
  C  C74  1  0.141800  0.982800  0.589800  1.0
  C  C75  1  0.589800  0.285600  0.141800  1.0
  C  C76  1  0.285600  0.589800  0.982800  1.0
  C  C77  1  0.858200  0.017200  0.714400  1.0
  C  C78  1  0.285600  0.141800  0.589800  1.0
  C  C79  1  0.982800  0.589800  0.141800  1.0
  C  C80  1  0.589800  0.982800  0.285600  1.0
  C  C81  1  0.714400  0.858200  0.017200  1.0
  C  C82  1  0.982800  0.285600  0.589800  1.0
  C  C83  1  0.141800  0.589800  0.285600  1.0
  C  C84  1  0.589800  0.141800  0.982800  1.0
  C  C85  1  0.285600  0.982800  0.589800  1.0
  C  C86  1  0.589800  0.141800  0.285600  1.0
  C  C87  1  0.141800  0.589800  0.982800  1.0
  C  C88  1  0.017200  0.858200  0.714400  1.0
  C  C89  1  0.589800  0.285600  0.982800  1.0
  C  C90  1  0.982800  0.141800  0.589800  1.0
  C  C91  1  0.285600  0.589800  0.141800  1.0
  C  C92  1  0.858200  0.714400  0.017200  1.0
  C  C93  1  0.982800  0.589800  0.285600  1.0
  C  C94  1  0.589800  0.982800  0.141800  1.0
  C  C95  1  0.141800  0.285600  0.589800  1.0
  C  C96  1  0.714400  0.017200  0.858200  1.0
  C  C97  1  0.982800  0.285600  0.141800  1.0
  C  C98  1  0.858200  0.017200  0.410200  1.0
  C  C99  1  0.410200  0.714400  0.858200  1.0
  C  C100  1  0.714400  0.410200  0.017200  1.0
  C  C101  1  0.141800  0.982800  0.285600  1.0
  C  C102  1  0.714400  0.858200  0.410200  1.0
  C  C103  1  0.017200  0.410200  0.858200  1.0
  C  C104  1  0.410200  0.017200  0.714400  1.0
  C  C105  1  0.285600  0.141800  0.982800  1.0
  C  C106  1  0.017200  0.714400  0.410200  1.0
  C  C107  1  0.858200  0.410200  0.714400  1.0
  C  C108  1  0.410200  0.858200  0.017200  1.0
  C  C109  1  0.714400  0.017200  0.410200  1.0
  C  C110  1  0.410200  0.858200  0.714400  1.0
  C  C111  1  0.858200  0.410200  0.017200  1.0
  C  C112  1  0.982800  0.141800  0.285600  1.0
  C  C113  1  0.410200  0.714400  0.017200  1.0
  C  C114  1  0.017200  0.858200  0.410200  1.0
  C  C115  1  0.714400  0.410200  0.858200  1.0
  C  C116  1  0.141800  0.285600  0.982800  1.0
  C  C117  1  0.017200  0.410200  0.714400  1.0
  C  C118  1  0.410200  0.017200  0.858200  1.0
  C  C119  1  0.858200  0.714400  0.410200  1.0
  C  C120  1  0.285600  0.982800  0.141800  1.0
  C  C121  1  0.025900  0.687300  0.830500  1.0
  C  C122  1  0.169500  0.974100  0.543700  1.0
  C  C123  1  0.543700  0.312700  0.169500  1.0
  C  C124  1  0.312700  0.543700  0.974100  1.0
  C  C125  1  0.830500  0.025900  0.687300  1.0
  C  C126  1  0.312700  0.169500  0.543700  1.0
  C  C127  1  0.974100  0.543700  0.169500  1.0
  C  C128  1  0.543700  0.974100  0.312700  1.0
  C  C129  1  0.687300  0.830500  0.025900  1.0
  C  C130  1  0.974100  0.312700  0.543700  1.0
  C  C131  1  0.169500  0.543700  0.312700  1.0
  C  C132  1  0.543700  0.169500  0.974100  1.0
  C  C133  1  0.312700  0.974100  0.543700  1.0
  C  C134  1  0.543700  0.169500  0.312700  1.0
  C  C135  1  0.169500  0.543700  0.974100  1.0
  C  C136  1  0.025900  0.830500  0.687300  1.0
  C  C137  1  0.543700  0.312700  0.974100  1.0
  C  C138  1  0.974100  0.169500  0.543700  1.0
  C  C139  1  0.312700  0.543700  0.169500  1.0
  C  C140  1  0.830500  0.687300  0.025900  1.0
  C  C141  1  0.974100  0.543700  0.312700  1.0
  C  C142  1  0.543700  0.974100  0.169500  1.0
  C  C143  1  0.169500  0.312700  0.543700  1.0
  C  C144  1  0.687300  0.025900  0.830500  1.0
  C  C145  1  0.974100  0.312700  0.169500  1.0
  C  C146  1  0.830500  0.025900  0.456300  1.0
  C  C147  1  0.456300  0.687300  0.830500  1.0
  C  C148  1  0.687300  0.456300  0.025900  1.0
  C  C149  1  0.169500  0.974100  0.312700  1.0
  C  C150  1  0.687300  0.830500  0.456300  1.0
  C  C151  1  0.025900  0.456300  0.830500  1.0
  C  C152  1  0.456300  0.025900  0.687300  1.0
  C  C153  1  0.312700  0.169500  0.974100  1.0
  C  C154  1  0.025900  0.687300  0.456300  1.0
  C  C155  1  0.830500  0.456300  0.687300  1.0
  C  C156  1  0.456300  0.830500  0.025900  1.0
  C  C157  1  0.687300  0.025900  0.456300  1.0
  C  C158  1  0.456300  0.830500  0.687300  1.0
  C  C159  1  0.830500  0.456300  0.025900  1.0
  C  C160  1  0.974100  0.169500  0.312700  1.0
  C  C161  1  0.456300  0.687300  0.025900  1.0
  C  C162  1  0.025900  0.830500  0.456300  1.0
  C  C163  1  0.687300  0.456300  0.830500  1.0
  C  C164  1  0.169500  0.312700  0.974100  1.0
  C  C165  1  0.025900  0.456300  0.687300  1.0
  C  C166  1  0.456300  0.025900  0.830500  1.0
  C  C167  1  0.830500  0.687300  0.456300  1.0
  C  C168  1  0.312700  0.974100  0.169500  1.0
  C  C169  1  0.031100  0.639900  0.850300  1.0
  C  C170  1  0.149700  0.968900  0.521300  1.0
  C  C171  1  0.521300  0.360100  0.149700  1.0
  C  C172  1  0.360100  0.521300  0.968900  1.0
  C  C173  1  0.850300  0.031100  0.639900  1.0
  C  C174  1  0.360100  0.149700  0.521300  1.0
  C  C175  1  0.968900  0.521300  0.149700  1.0
  C  C176  1  0.521300  0.968900  0.360100  1.0
  C  C177  1  0.639900  0.850300  0.031100  1.0
  C  C178  1  0.968900  0.360100  0.521300  1.0
  C  C179  1  0.149700  0.521300  0.360100  1.0
  C  C180  1  0.521300  0.149700  0.968900  1.0
  C  C181  1  0.360100  0.968900  0.521300  1.0
  C  C182  1  0.521300  0.149700  0.360100  1.0
  C  C183  1  0.149700  0.521300  0.968900  1.0
  C  C184  1  0.031100  0.850300  0.639900  1.0
  C  C185  1  0.521300  0.360100  0.968900  1.0
  C  C186  1  0.968900  0.149700  0.521300  1.0
  C  C187  1  0.360100  0.521300  0.149700  1.0
  C  C188  1  0.850300  0.639900  0.031100  1.0
  C  C189  1  0.968900  0.521300  0.360100  1.0
  C  C190  1  0.521300  0.968900  0.149700  1.0
  C  C191  1  0.149700  0.360100  0.521300  1.0
  C  C192  1  0.639900  0.031100  0.850300  1.0
  C  C193  1  0.968900  0.360100  0.149700  1.0
  C  C194  1  0.850300  0.031100  0.478700  1.0
  C  C195  1  0.478700  0.639900  0.850300  1.0
  C  C196  1  0.639900  0.478700  0.031100  1.0
  C  C197  1  0.149700  0.968900  0.360100  1.0
  C  C198  1  0.639900  0.850300  0.478700  1.0
  C  C199  1  0.031100  0.478700  0.850300  1.0
  C  C200  1  0.478700  0.031100  0.639900  1.0
  C  C201  1  0.360100  0.149700  0.968900  1.0
  C  C202  1  0.031100  0.639900  0.478700  1.0
  C  C203  1  0.850300  0.478700  0.639900  1.0
  C  C204  1  0.478700  0.850300  0.031100  1.0
  C  C205  1  0.639900  0.031100  0.478700  1.0
  C  C206  1  0.478700  0.850300  0.639900  1.0
  C  C207  1  0.850300  0.478700  0.031100  1.0
  C  C208  1  0.968900  0.149700  0.360100  1.0
  C  C209  1  0.478700  0.639900  0.031100  1.0
  C  C210  1  0.031100  0.850300  0.478700  1.0
  C  C211  1  0.639900  0.478700  0.850300  1.0
  C  C212  1  0.149700  0.360100  0.968900  1.0
  C  C213  1  0.031100  0.478700  0.639900  1.0
  C  C214  1  0.478700  0.031100  0.850300  1.0
  C  C215  1  0.850300  0.639900  0.478700  1.0
  C  C216  1  0.360100  0.968900  0.149700  1.0
  C  C217  1  0.021100  0.618900  0.901500  1.0
  C  C218  1  0.098500  0.978900  0.541500  1.0
  C  C219  1  0.541500  0.381100  0.098500  1.0
  C  C220  1  0.381100  0.541500  0.978900  1.0
  C  C221  1  0.901500  0.021100  0.618900  1.0
  C  C222  1  0.381100  0.098500  0.541500  1.0
  C  C223  1  0.978900  0.541500  0.098500  1.0
  C  C224  1  0.541500  0.978900  0.381100  1.0
  C  C225  1  0.618900  0.901500  0.021100  1.0
  C  C226  1  0.978900  0.381100  0.541500  1.0
  C  C227  1  0.098500  0.541500  0.381100  1.0
  C  C228  1  0.541500  0.098500  0.978900  1.0
  C  C229  1  0.381100  0.978900  0.541500  1.0
  C  C230  1  0.541500  0.098500  0.381100  1.0
  C  C231  1  0.098500  0.541500  0.978900  1.0
  C  C232  1  0.021100  0.901500  0.618900  1.0
  C  C233  1  0.541500  0.381100  0.978900  1.0
  C  C234  1  0.978900  0.098500  0.541500  1.0
  C  C235  1  0.381100  0.541500  0.098500  1.0
  C  C236  1  0.901500  0.618900  0.021100  1.0
  C  C237  1  0.978900  0.541500  0.381100  1.0
  C  C238  1  0.541500  0.978900  0.098500  1.0
  C  C239  1  0.098500  0.381100  0.541500  1.0
  C  C240  1  0.618900  0.021100  0.901500  1.0
  C  C241  1  0.978900  0.381100  0.098500  1.0
  C  C242  1  0.901500  0.021100  0.458500  1.0
  C  C243  1  0.458500  0.618900  0.901500  1.0
  C  C244  1  0.618900  0.458500  0.021100  1.0
  C  C245  1  0.098500  0.978900  0.381100  1.0
  C  C246  1  0.618900  0.901500  0.458500  1.0
  C  C247  1  0.021100  0.458500  0.901500  1.0
  C  C248  1  0.458500  0.021100  0.618900  1.0
  C  C249  1  0.381100  0.098500  0.978900  1.0
  C  C250  1  0.021100  0.618900  0.458500  1.0
  C  C251  1  0.901500  0.458500  0.618900  1.0
  C  C252  1  0.458500  0.901500  0.021100  1.0
  C  C253  1  0.618900  0.021100  0.458500  1.0
  C  C254  1  0.458500  0.901500  0.618900  1.0
  C  C255  1  0.901500  0.458500  0.021100  1.0
  C  C256  1  0.978900  0.098500  0.381100  1.0
  C  C257  1  0.458500  0.618900  0.021100  1.0
  C  C258  1  0.021100  0.901500  0.458500  1.0
  C  C259  1  0.618900  0.458500  0.901500  1.0
  C  C260  1  0.098500  0.381100  0.978900  1.0
  C  C261  1  0.021100  0.458500  0.618900  1.0
  C  C262  1  0.458500  0.021100  0.901500  1.0
  C  C263  1  0.901500  0.618900  0.458500  1.0
  C  C264  1  0.381100  0.978900  0.098500  1.0
  C  C265  1  0.034400  0.713000  0.778000  1.0
  C  C266  1  0.222000  0.965600  0.525400  1.0
  C  C267  1  0.525400  0.287000  0.222000  1.0
  C  C268  1  0.287000  0.525400  0.965600  1.0
  C  C269  1  0.778000  0.034400  0.713000  1.0
  C  C270  1  0.287000  0.222000  0.525400  1.0
  C  C271  1  0.965600  0.525400  0.222000  1.0
  C  C272  1  0.525400  0.965600  0.287000  1.0
  C  C273  1  0.713000  0.778000  0.034400  1.0
  C  C274  1  0.965600  0.287000  0.525400  1.0
  C  C275  1  0.222000  0.525400  0.287000  1.0
  C  C276  1  0.525400  0.222000  0.965600  1.0
  C  C277  1  0.287000  0.965600  0.525400  1.0
  C  C278  1  0.525400  0.222000  0.287000  1.0
  C  C279  1  0.222000  0.525400  0.965600  1.0
  C  C280  1  0.034400  0.778000  0.713000  1.0
  C  C281  1  0.525400  0.287000  0.965600  1.0
  C  C282  1  0.965600  0.222000  0.525400  1.0
  C  C283  1  0.287000  0.525400  0.222000  1.0
  C  C284  1  0.778000  0.713000  0.034400  1.0
  C  C285  1  0.965600  0.525400  0.287000  1.0
  C  C286  1  0.525400  0.965600  0.222000  1.0
  C  C287  1  0.222000  0.287000  0.525400  1.0
  C  C288  1  0.713000  0.034400  0.778000  1.0
  C  C289  1  0.965600  0.287000  0.222000  1.0
  C  C290  1  0.778000  0.034400  0.474600  1.0
  C  C291  1  0.474600  0.713000  0.778000  1.0
  C  C292  1  0.713000  0.474600  0.034400  1.0
  C  C293  1  0.222000  0.965600  0.287000  1.0
  C  C294  1  0.713000  0.778000  0.474600  1.0
  C  C295  1  0.034400  0.474600  0.778000  1.0
  C  C296  1  0.474600  0.034400  0.713000  1.0
  C  C297  1  0.287000  0.222000  0.965600  1.0
  C  C298  1  0.034400  0.713000  0.474600  1.0
  C  C299  1  0.778000  0.474600  0.713000  1.0
  C  C300  1  0.474600  0.778000  0.034400  1.0
  C  C301  1  0.713000  0.034400  0.474600  1.0
  C  C302  1  0.474600  0.778000  0.713000  1.0
  C  C303  1  0.778000  0.474600  0.034400  1.0
  C  C304  1  0.965600  0.222000  0.287000  1.0
  C  C305  1  0.474600  0.713000  0.034400  1.0
  C  C306  1  0.034400  0.778000  0.474600  1.0
  C  C307  1  0.713000  0.474600  0.778000  1.0
  C  C308  1  0.222000  0.287000  0.965600  1.0
  C  C309  1  0.034400  0.474600  0.713000  1.0
  C  C310  1  0.474600  0.034400  0.778000  1.0
  C  C311  1  0.778000  0.713000  0.474600  1.0
  C  C312  1  0.287000  0.965600  0.222000  1.0
  C  C313  1  0.040400  0.701600  0.741400  1.0
  C  C314  1  0.258600  0.959600  0.483400  1.0
  C  C315  1  0.483400  0.298400  0.258600  1.0
  C  C316  1  0.298400  0.483400  0.959600  1.0
  C  C317  1  0.741400  0.040400  0.701600  1.0
  C  C318  1  0.298400  0.258600  0.483400  1.0
  C  C319  1  0.959600  0.483400  0.258600  1.0
  C  C320  1  0.483400  0.959600  0.298400  1.0
  C  C321  1  0.701600  0.741400  0.040400  1.0
  C  C322  1  0.959600  0.298400  0.483400  1.0
  C  C323  1  0.258600  0.483400  0.298400  1.0
  C  C324  1  0.483400  0.258600  0.959600  1.0
  C  C325  1  0.298400  0.959600  0.483400  1.0
  C  C326  1  0.483400  0.258600  0.298400  1.0
  C  C327  1  0.258600  0.483400  0.959600  1.0
  C  C328  1  0.040400  0.741400  0.701600  1.0
  C  C329  1  0.483400  0.298400  0.959600  1.0
  C  C330  1  0.959600  0.258600  0.483400  1.0
  C  C331  1  0.298400  0.483400  0.258600  1.0
  C  C332  1  0.741400  0.701600  0.040400  1.0
  C  C333  1  0.959600  0.483400  0.298400  1.0
  C  C334  1  0.483400  0.959600  0.258600  1.0
  C  C335  1  0.258600  0.298400  0.483400  1.0
  C  C336  1  0.701600  0.040400  0.741400  1.0
  C  C337  1  0.959600  0.298400  0.258600  1.0
  C  C338  1  0.741400  0.040400  0.516600  1.0
  C  C339  1  0.516600  0.701600  0.741400  1.0
  C  C340  1  0.701600  0.516600  0.040400  1.0
  C  C341  1  0.258600  0.959600  0.298400  1.0
  C  C342  1  0.701600  0.741400  0.516600  1.0
  C  C343  1  0.040400  0.516600  0.741400  1.0
  C  C344  1  0.516600  0.040400  0.701600  1.0
  C  C345  1  0.298400  0.258600  0.959600  1.0
  C  C346  1  0.040400  0.701600  0.516600  1.0
  C  C347  1  0.741400  0.516600  0.701600  1.0
  C  C348  1  0.516600  0.741400  0.040400  1.0
  C  C349  1  0.701600  0.040400  0.516600  1.0
  C  C350  1  0.516600  0.741400  0.701600  1.0
  C  C351  1  0.741400  0.516600  0.040400  1.0
  C  C352  1  0.959600  0.258600  0.298400  1.0
  C  C353  1  0.516600  0.701600  0.040400  1.0
  C  C354  1  0.040400  0.741400  0.516600  1.0
  C  C355  1  0.701600  0.516600  0.741400  1.0
  C  C356  1  0.258600  0.298400  0.959600  1.0
  C  C357  1  0.040400  0.516600  0.701600  1.0
  C  C358  1  0.516600  0.040400  0.741400  1.0
  C  C359  1  0.741400  0.701600  0.516600  1.0
  C  C360  1  0.298400  0.959600  0.258600  1.0
  Cl  Cl361  1  0.880400  0.500000  0.119600  1
  Cl  Cl362  1  0.880400  0.119600  0.500000  1
  Cl  Cl363  1  0.500000  0.500000  0.880400  1
  Cl  Cl364  1  0.500000  0.500000  0.119600  1
  Cl  Cl365  1  0.119600  0.880400  0.500000  1
  Cl  Cl366  1  0.500000  0.880400  0.500000  1
  Cl  Cl367  1  0.119600  0.500000  0.880400  1
  Cl  Cl368  1  0.500000  0.119600  0.500000  1
  Cl  Cl369  1  0.500000  0.119600  0.880400  1
  Cl  Cl370  1  0.119600  0.500000  0.500000  1
  Cl  Cl371  1  0.880400  0.500000  0.500000  1
  Cl  Cl372  1  0.500000  0.880400  0.119600  1
  Cl  Cl373  1  0.928700  0.571300  0.928700  1
  Cl  Cl374  1  0.071300  0.071300  0.428700  1
  Cl  Cl375  1  0.428700  0.428700  0.071300  1
  Cl  Cl376  1  0.928700  0.928700  0.571300  1
  Cl  Cl377  1  0.428700  0.071300  0.428700  1
  Cl  Cl378  1  0.071300  0.428700  0.071300  1
  Cl  Cl379  1  0.571300  0.928700  0.928700  1
  Cl  Cl380  1  0.071300  0.428700  0.428700  1
  Cl  Cl381  1  0.428700  0.071300  0.071300  1
  Cl  Cl382  1  0.571300  0.571300  0.928700  1
  Cl  Cl383  1  0.571300  0.928700  0.571300  1
  Cl  Cl384  1  0.928700  0.571300  0.571300  1
  Cl  Cl385  1  0.971900  0.616500  0.795100  1
  Cl  Cl386  1  0.204900  0.028100  0.383500  1
  Cl  Cl387  1  0.383500  0.383500  0.204900  1
  Cl  Cl388  1  0.383500  0.383500  0.028100  1
  Cl  Cl389  1  0.795100  0.971900  0.616500  1
  Cl  Cl390  1  0.383500  0.204900  0.383500  1
  Cl  Cl391  1  0.028100  0.383500  0.204900  1
  Cl  Cl392  1  0.383500  0.028100  0.383500  1
  Cl  Cl393  1  0.616500  0.795100  0.971900  1
  Cl  Cl394  1  0.028100  0.383500  0.383500  1
  Cl  Cl395  1  0.204900  0.383500  0.383500  1
  Cl  Cl396  1  0.383500  0.204900  0.028100  1
  Cl  Cl397  1  0.204900  0.383500  0.028100  1
  Cl  Cl398  1  0.971900  0.795100  0.616500  1
  Cl  Cl399  1  0.028100  0.204900  0.383500  1
  Cl  Cl400  1  0.795100  0.616500  0.971900  1
  Cl  Cl401  1  0.383500  0.028100  0.204900  1
  Cl  Cl402  1  0.616500  0.971900  0.795100  1
  Cl  Cl403  1  0.616500  0.616500  0.795100  1
  Cl  Cl404  1  0.616500  0.616500  0.971900  1
  Cl  Cl405  1  0.616500  0.795100  0.616500  1
  Cl  Cl406  1  0.616500  0.971900  0.616500  1
  Cl  Cl407  1  0.971900  0.616500  0.616500  1
  Cl  Cl408  1  0.795100  0.616500  0.616500  1
  Cl  Cl409  1  0.896500  0.714500  0.896500  1
  Cl  Cl410  1  0.103500  0.103500  0.507500  1
  Cl  Cl411  1  0.507500  0.285500  0.103500  1
  Cl  Cl412  1  0.285500  0.507500  0.103500  1
  Cl  Cl413  1  0.896500  0.896500  0.714500  1
  Cl  Cl414  1  0.285500  0.103500  0.507500  1
  Cl  Cl415  1  0.103500  0.507500  0.103500  1
  Cl  Cl416  1  0.507500  0.103500  0.285500  1
  Cl  Cl417  1  0.714500  0.896500  0.896500  1
  Cl  Cl418  1  0.103500  0.285500  0.507500  1
  Cl  Cl419  1  0.103500  0.507500  0.285500  1
  Cl  Cl420  1  0.507500  0.103500  0.103500  1
  Cl  Cl421  1  0.103500  0.285500  0.103500  1
  Cl  Cl422  1  0.896500  0.896500  0.492500  1
  Cl  Cl423  1  0.492500  0.714500  0.896500  1
  Cl  Cl424  1  0.714500  0.492500  0.896500  1
  Cl  Cl425  1  0.103500  0.103500  0.285500  1
  Cl  Cl426  1  0.714500  0.896500  0.492500  1
  Cl  Cl427  1  0.896500  0.492500  0.896500  1
  Cl  Cl428  1  0.492500  0.896500  0.714500  1
  Cl  Cl429  1  0.285500  0.103500  0.103500  1
  Cl  Cl430  1  0.896500  0.714500  0.492500  1
  Cl  Cl431  1  0.896500  0.492500  0.714500  1
  Cl  Cl432  1  0.492500  0.896500  0.896500  1
  H  H433  1  0.002500  0.705900  0.927500  1.0
  H  H434  1  0.072500  0.997500  0.635900  1.0
  H  H435  1  0.635900  0.294100  0.072500  1.0
  H  H436  1  0.294100  0.635900  0.997500  1.0
  H  H437  1  0.927500  0.002500  0.705900  1.0
  H  H438  1  0.294100  0.072500  0.635900  1.0
  H  H439  1  0.997500  0.635900  0.072500  1.0
  H  H440  1  0.635900  0.997500  0.294100  1.0
  H  H441  1  0.705900  0.927500  0.002500  1.0
  H  H442  1  0.997500  0.294100  0.635900  1.0
  H  H443  1  0.072500  0.635900  0.294100  1.0
  H  H444  1  0.635900  0.072500  0.997500  1.0
  H  H445  1  0.294100  0.997500  0.635900  1.0
  H  H446  1  0.635900  0.072500  0.294100  1.0
  H  H447  1  0.072500  0.635900  0.997500  1.0
  H  H448  1  0.002500  0.927500  0.705900  1.0
  H  H449  1  0.635900  0.294100  0.997500  1.0
  H  H450  1  0.997500  0.072500  0.635900  1.0
  H  H451  1  0.294100  0.635900  0.072500  1.0
  H  H452  1  0.927500  0.705900  0.002500  1.0
  H  H453  1  0.997500  0.635900  0.294100  1.0
  H  H454  1  0.635900  0.997500  0.072500  1.0
  H  H455  1  0.072500  0.294100  0.635900  1.0
  H  H456  1  0.705900  0.002500  0.927500  1.0
  H  H457  1  0.997500  0.294100  0.072500  1.0
  H  H458  1  0.927500  0.002500  0.364100  1.0
  H  H459  1  0.364100  0.705900  0.927500  1.0
  H  H460  1  0.705900  0.364100  0.002500  1.0
  H  H461  1  0.072500  0.997500  0.294100  1.0
  H  H462  1  0.705900  0.927500  0.364100  1.0
  H  H463  1  0.002500  0.364100  0.927500  1.0
  H  H464  1  0.364100  0.002500  0.705900  1.0
  H  H465  1  0.294100  0.072500  0.997500  1.0
  H  H466  1  0.002500  0.705900  0.364100  1.0
  H  H467  1  0.927500  0.364100  0.705900  1.0
  H  H468  1  0.364100  0.927500  0.002500  1.0
  H  H469  1  0.705900  0.002500  0.364100  1.0
  H  H470  1  0.364100  0.927500  0.705900  1.0
  H  H471  1  0.927500  0.364100  0.002500  1.0
  H  H472  1  0.997500  0.072500  0.294100  1.0
  H  H473  1  0.364100  0.705900  0.002500  1.0
  H  H474  1  0.002500  0.927500  0.364100  1.0
  H  H475  1  0.705900  0.364100  0.927500  1.0
  H  H476  1  0.072500  0.294100  0.997500  1.0
  H  H477  1  0.002500  0.364100  0.705900  1.0
  H  H478  1  0.364100  0.002500  0.927500  1.0
  H  H479  1  0.927500  0.705900  0.364100  1.0
  H  H480  1  0.294100  0.997500  0.072500  1.0
  H  H481  1  0.016500  0.747100  0.843700  1.0
  H  H482  1  0.156300  0.983500  0.607300  1.0
  H  H483  1  0.607300  0.252900  0.156300  1.0
  H  H484  1  0.252900  0.607300  0.983500  1.0
  H  H485  1  0.843700  0.016500  0.747100  1.0
  H  H486  1  0.252900  0.156300  0.607300  1.0
  H  H487  1  0.983500  0.607300  0.156300  1.0
  H  H488  1  0.607300  0.983500  0.252900  1.0
  H  H489  1  0.747100  0.843700  0.016500  1.0
  H  H490  1  0.983500  0.252900  0.607300  1.0
  H  H491  1  0.156300  0.607300  0.252900  1.0
  H  H492  1  0.607300  0.156300  0.983500  1.0
  H  H493  1  0.252900  0.983500  0.607300  1.0
  H  H494  1  0.607300  0.156300  0.252900  1.0
  H  H495  1  0.156300  0.607300  0.983500  1.0
  H  H496  1  0.016500  0.843700  0.747100  1.0
  H  H497  1  0.607300  0.252900  0.983500  1.0
  H  H498  1  0.983500  0.156300  0.607300  1.0
  H  H499  1  0.252900  0.607300  0.156300  1.0
  H  H500  1  0.843700  0.747100  0.016500  1.0
  H  H501  1  0.983500  0.607300  0.252900  1.0
  H  H502  1  0.607300  0.983500  0.156300  1.0
  H  H503  1  0.156300  0.252900  0.607300  1.0
  H  H504  1  0.747100  0.016500  0.843700  1.0
  H  H505  1  0.983500  0.252900  0.156300  1.0
  H  H506  1  0.843700  0.016500  0.392700  1.0
  H  H507  1  0.392700  0.747100  0.843700  1.0
  H  H508  1  0.747100  0.392700  0.016500  1.0
  H  H509  1  0.156300  0.983500  0.252900  1.0
  H  H510  1  0.747100  0.843700  0.392700  1.0
  H  H511  1  0.016500  0.392700  0.843700  1.0
  H  H512  1  0.392700  0.016500  0.747100  1.0
  H  H513  1  0.252900  0.156300  0.983500  1.0
  H  H514  1  0.016500  0.747100  0.392700  1.0
  H  H515  1  0.843700  0.392700  0.747100  1.0
  H  H516  1  0.392700  0.843700  0.016500  1.0
  H  H517  1  0.747100  0.016500  0.392700  1.0
  H  H518  1  0.392700  0.843700  0.747100  1.0
  H  H519  1  0.843700  0.392700  0.016500  1.0
  H  H520  1  0.983500  0.156300  0.252900  1.0
  H  H521  1  0.392700  0.747100  0.016500  1.0
  H  H522  1  0.016500  0.843700  0.392700  1.0
  H  H523  1  0.747100  0.392700  0.843700  1.0
  H  H524  1  0.156300  0.252900  0.983500  1.0
  H  H525  1  0.016500  0.392700  0.747100  1.0
  H  H526  1  0.392700  0.016500  0.843700  1.0
  H  H527  1  0.843700  0.747100  0.392700  1.0
  H  H528  1  0.252900  0.983500  0.156300  1.0
  H  H529  1  0.040900  0.621300  0.831100  1.0
  H  H530  1  0.168900  0.959100  0.493300  1.0
  H  H531  1  0.493300  0.378700  0.168900  1.0
  H  H532  1  0.378700  0.493300  0.959100  1.0
  H  H533  1  0.831100  0.040900  0.621300  1.0
  H  H534  1  0.378700  0.168900  0.493300  1.0
  H  H535  1  0.959100  0.493300  0.168900  1.0
  H  H536  1  0.493300  0.959100  0.378700  1.0
  H  H537  1  0.621300  0.831100  0.040900  1.0
  H  H538  1  0.959100  0.378700  0.493300  1.0
  H  H539  1  0.168900  0.493300  0.378700  1.0
  H  H540  1  0.493300  0.168900  0.959100  1.0
  H  H541  1  0.378700  0.959100  0.493300  1.0
  H  H542  1  0.493300  0.168900  0.378700  1.0
  H  H543  1  0.168900  0.493300  0.959100  1.0
  H  H544  1  0.040900  0.831100  0.621300  1.0
  H  H545  1  0.493300  0.378700  0.959100  1.0
  H  H546  1  0.959100  0.168900  0.493300  1.0
  H  H547  1  0.378700  0.493300  0.168900  1.0
  H  H548  1  0.831100  0.621300  0.040900  1.0
  H  H549  1  0.959100  0.493300  0.378700  1.0
  H  H550  1  0.493300  0.959100  0.168900  1.0
  H  H551  1  0.168900  0.378700  0.493300  1.0
  H  H552  1  0.621300  0.040900  0.831100  1.0
  H  H553  1  0.959100  0.378700  0.168900  1.0
  H  H554  1  0.831100  0.040900  0.506700  1.0
  H  H555  1  0.506700  0.621300  0.831100  1.0
  H  H556  1  0.621300  0.506700  0.040900  1.0
  H  H557  1  0.168900  0.959100  0.378700  1.0
  H  H558  1  0.621300  0.831100  0.506700  1.0
  H  H559  1  0.040900  0.506700  0.831100  1.0
  H  H560  1  0.506700  0.040900  0.621300  1.0
  H  H561  1  0.378700  0.168900  0.959100  1.0
  H  H562  1  0.040900  0.621300  0.506700  1.0
  H  H563  1  0.831100  0.506700  0.621300  1.0
  H  H564  1  0.506700  0.831100  0.040900  1.0
  H  H565  1  0.621300  0.040900  0.506700  1.0
  H  H566  1  0.506700  0.831100  0.621300  1.0
  H  H567  1  0.831100  0.506700  0.040900  1.0
  H  H568  1  0.959100  0.168900  0.378700  1.0
  H  H569  1  0.506700  0.621300  0.040900  1.0
  H  H570  1  0.040900  0.831100  0.506700  1.0
  H  H571  1  0.621300  0.506700  0.831100  1.0
  H  H572  1  0.168900  0.378700  0.959100  1.0
  H  H573  1  0.040900  0.506700  0.621300  1.0
  H  H574  1  0.506700  0.040900  0.831100  1.0
  H  H575  1  0.831100  0.621300  0.506700  1.0
  H  H576  1  0.378700  0.959100  0.168900  1.0
  H  H577  1  0.020200  0.586800  0.917000  1.0
  H  H578  1  0.083000  0.979800  0.524000  1.0
  H  H579  1  0.524000  0.413200  0.083000  1.0
  H  H580  1  0.413200  0.524000  0.979800  1.0
  H  H581  1  0.917000  0.020200  0.586800  1.0
  H  H582  1  0.413200  0.083000  0.524000  1.0
  H  H583  1  0.979800  0.524000  0.083000  1.0
  H  H584  1  0.524000  0.979800  0.413200  1.0
  H  H585  1  0.586800  0.917000  0.020200  1.0
  H  H586  1  0.979800  0.413200  0.524000  1.0
  H  H587  1  0.083000  0.524000  0.413200  1.0
  H  H588  1  0.524000  0.083000  0.979800  1.0
  H  H589  1  0.413200  0.979800  0.524000  1.0
  H  H590  1  0.524000  0.083000  0.413200  1.0
  H  H591  1  0.083000  0.524000  0.979800  1.0
  H  H592  1  0.020200  0.917000  0.586800  1.0
  H  H593  1  0.524000  0.413200  0.979800  1.0
  H  H594  1  0.979800  0.083000  0.524000  1.0
  H  H595  1  0.413200  0.524000  0.083000  1.0
  H  H596  1  0.917000  0.586800  0.020200  1.0
  H  H597  1  0.979800  0.524000  0.413200  1.0
  H  H598  1  0.524000  0.979800  0.083000  1.0
  H  H599  1  0.083000  0.413200  0.524000  1.0
  H  H600  1  0.586800  0.020200  0.917000  1.0
  H  H601  1  0.979800  0.413200  0.083000  1.0
  H  H602  1  0.917000  0.020200  0.476000  1.0
  H  H603  1  0.476000  0.586800  0.917000  1.0
  H  H604  1  0.586800  0.476000  0.020200  1.0
  H  H605  1  0.083000  0.979800  0.413200  1.0
  H  H606  1  0.586800  0.917000  0.476000  1.0
  H  H607  1  0.020200  0.476000  0.917000  1.0
  H  H608  1  0.476000  0.020200  0.586800  1.0
  H  H609  1  0.413200  0.083000  0.979800  1.0
  H  H610  1  0.020200  0.586800  0.476000  1.0
  H  H611  1  0.917000  0.476000  0.586800  1.0
  H  H612  1  0.476000  0.917000  0.020200  1.0
  H  H613  1  0.586800  0.020200  0.476000  1.0
  H  H614  1  0.476000  0.917000  0.586800  1.0
  H  H615  1  0.917000  0.476000  0.020200  1.0
  H  H616  1  0.979800  0.083000  0.413200  1.0
  H  H617  1  0.476000  0.586800  0.020200  1.0
  H  H618  1  0.020200  0.917000  0.476000  1.0
  H  H619  1  0.586800  0.476000  0.917000  1.0
  H  H620  1  0.083000  0.413200  0.979800  1.0
  H  H621  1  0.020200  0.476000  0.586800  1.0
  H  H622  1  0.476000  0.020200  0.917000  1.0
  H  H623  1  0.917000  0.586800  0.476000  1.0
  H  H624  1  0.413200  0.979800  0.083000  1.0
  H  H625  1  0.044000  0.670800  0.743800  1.0
  H  H626  1  0.256200  0.956000  0.458600  1.0
  H  H627  1  0.458600  0.329200  0.256200  1.0
  H  H628  1  0.329200  0.458600  0.956000  1.0
  H  H629  1  0.743800  0.044000  0.670800  1.0
  H  H630  1  0.329200  0.256200  0.458600  1.0
  H  H631  1  0.956000  0.458600  0.256200  1.0
  H  H632  1  0.458600  0.956000  0.329200  1.0
  H  H633  1  0.670800  0.743800  0.044000  1.0
  H  H634  1  0.956000  0.329200  0.458600  1.0
  H  H635  1  0.256200  0.458600  0.329200  1.0
  H  H636  1  0.458600  0.256200  0.956000  1.0
  H  H637  1  0.329200  0.956000  0.458600  1.0
  H  H638  1  0.458600  0.256200  0.329200  1.0
  H  H639  1  0.256200  0.458600  0.956000  1.0
  H  H640  1  0.044000  0.743800  0.670800  1.0
  H  H641  1  0.458600  0.329200  0.956000  1.0
  H  H642  1  0.956000  0.256200  0.458600  1.0
  H  H643  1  0.329200  0.458600  0.256200  1.0
  H  H644  1  0.743800  0.670800  0.044000  1.0
  H  H645  1  0.956000  0.458600  0.329200  1.0
  H  H646  1  0.458600  0.956000  0.256200  1.0
  H  H647  1  0.256200  0.329200  0.458600  1.0
  H  H648  1  0.670800  0.044000  0.743800  1.0
  H  H649  1  0.956000  0.329200  0.256200  1.0
  H  H650  1  0.743800  0.044000  0.541400  1.0
  H  H651  1  0.541400  0.670800  0.743800  1.0
  H  H652  1  0.670800  0.541400  0.044000  1.0
  H  H653  1  0.256200  0.956000  0.329200  1.0
  H  H654  1  0.670800  0.743800  0.541400  1.0
  H  H655  1  0.044000  0.541400  0.743800  1.0
  H  H656  1  0.541400  0.044000  0.670800  1.0
  H  H657  1  0.329200  0.256200  0.956000  1.0
  H  H658  1  0.044000  0.670800  0.541400  1.0
  H  H659  1  0.743800  0.541400  0.670800  1.0
  H  H660  1  0.541400  0.743800  0.044000  1.0
  H  H661  1  0.670800  0.044000  0.541400  1.0
  H  H662  1  0.541400  0.743800  0.670800  1.0
  H  H663  1  0.743800  0.541400  0.044000  1.0
  H  H664  1  0.956000  0.256200  0.329200  1.0
  H  H665  1  0.541400  0.670800  0.044000  1.0
  H  H666  1  0.044000  0.743800  0.541400  1.0
  H  H667  1  0.670800  0.541400  0.743800  1.0
  H  H668  1  0.256200  0.329200  0.956000  1.0
  H  H669  1  0.044000  0.541400  0.670800  1.0
  H  H670  1  0.541400  0.044000  0.743800  1.0
  H  H671  1  0.743800  0.670800  0.541400  1.0
  H  H672  1  0.329200  0.956000  0.256200  1.0
  N  N673  1  0.000000  0.500000  1.000000  1
  N  N674  1  0.000000  1.000000  0.500000  1
  N  N675  1  0.500000  0.500000  0.000000  1
  N  N676  1  0.500000  0.000000  0.500000  1
  N  N677  1  0.500000  0.000000  0.000000  1
  N  N678  1  0.000000  0.500000  0.500000  1
  N  N679  1  0.000000  0.743800  0.000000  1
  N  N680  1  0.000000  0.000000  0.743800  1
  N  N681  1  0.743800  0.256200  0.000000  1
  N  N682  1  0.256200  0.743800  1.000000  1
  N  N683  1  0.256200  0.000000  0.743800  1
  N  N684  1  0.743800  0.000000  0.256200  1
  N  N685  1  0.743800  0.000000  0.000000  1
  N  N686  1  0.000000  0.256200  0.743800  1
  N  N687  1  0.000000  0.743800  0.256200  1
  N  N688  1  0.000000  0.256200  1.000000  1
  N  N689  1  0.000000  0.000000  0.256200  1
  N  N690  1  0.256200  0.000000  0.000000  1
  N  N691  1  0.012920  0.641480  0.928520  1.0
  N  N692  1  0.071480  0.987080  0.582920  1.0
  N  N693  1  0.582920  0.358520  0.071480  1.0
  N  N694  1  0.358520  0.582920  0.987080  1.0
  N  N695  1  0.928520  0.012920  0.641480  1.0
  N  N696  1  0.358520  0.071480  0.582920  1.0
  N  N697  1  0.987080  0.582920  0.071480  1.0
  N  N698  1  0.582920  0.987080  0.358520  1.0
  N  N699  1  0.641480  0.928520  0.012920  1.0
  N  N700  1  0.987080  0.358520  0.582920  1.0
  N  N701  1  0.071480  0.582920  0.358520  1.0
  N  N702  1  0.582920  0.071480  0.987080  1.0
  N  N703  1  0.358520  0.987080  0.582920  1.0
  N  N704  1  0.582920  0.071480  0.358520  1.0
  N  N705  1  0.071480  0.582920  0.987080  1.0
  N  N706  1  0.012920  0.928520  0.641480  1.0
  N  N707  1  0.582920  0.358520  0.987080  1.0
  N  N708  1  0.987080  0.071480  0.582920  1.0
  N  N709  1  0.358520  0.582920  0.071480  1.0
  N  N710  1  0.928520  0.641480  0.012920  1.0
  N  N711  1  0.987080  0.582920  0.358520  1.0
  N  N712  1  0.582920  0.987080  0.071480  1.0
  N  N713  1  0.071480  0.358520  0.582920  1.0
  N  N714  1  0.641480  0.012920  0.928520  1.0
  N  N715  1  0.987080  0.358520  0.071480  1.0
  N  N716  1  0.928520  0.012920  0.417080  1.0
  N  N717  1  0.417080  0.641480  0.928520  1.0
  N  N718  1  0.641480  0.417080  0.012920  1.0
  N  N719  1  0.071480  0.987080  0.358520  1.0
  N  N720  1  0.641480  0.928520  0.417080  1.0
  N  N721  1  0.012920  0.417080  0.928520  1.0
  N  N722  1  0.417080  0.012920  0.641480  1.0
  N  N723  1  0.358520  0.071480  0.987080  1.0
  N  N724  1  0.012920  0.641480  0.417080  1.0
  N  N725  1  0.928520  0.417080  0.641480  1.0
  N  N726  1  0.417080  0.928520  0.012920  1.0
  N  N727  1  0.641480  0.012920  0.417080  1.0
  N  N728  1  0.417080  0.928520  0.641480  1.0
  N  N729  1  0.928520  0.417080  0.012920  1.0
  N  N730  1  0.987080  0.071480  0.358520  1.0
  N  N731  1  0.417080  0.641480  0.012920  1.0
  N  N732  1  0.012920  0.928520  0.417080  1.0
  N  N733  1  0.641480  0.417080  0.928520  1.0
  N  N734  1  0.071480  0.358520  0.987080  1.0
  N  N735  1  0.012920  0.417080  0.641480  1.0
  N  N736  1  0.417080  0.012920  0.928520  1.0
  N  N737  1  0.928520  0.641480  0.417080  1.0
  N  N738  1  0.358520  0.987080  0.071480  1.0
  O  O739  1  0.143800  0.641200  0.856200  1
  O  O740  1  0.143800  0.856200  0.641200  1
  O  O741  1  0.641200  0.358800  0.143800  1
  O  O742  1  0.358800  0.641200  0.856200  1
  O  O743  1  0.856200  0.143800  0.641200  1
  O  O744  1  0.358800  0.143800  0.641200  1
  O  O745  1  0.856200  0.641200  0.143800  1
  O  O746  1  0.641200  0.856200  0.358800  1
  O  O747  1  0.641200  0.856200  0.143800  1
  O  O748  1  0.856200  0.358800  0.641200  1
  O  O749  1  0.143800  0.641200  0.358800  1
  O  O750  1  0.641200  0.143800  0.856200  1
  O  O751  1  0.358800  0.856200  0.641200  1
  O  O752  1  0.641200  0.143800  0.358800  1
  O  O753  1  0.641200  0.358800  0.856200  1
  O  O754  1  0.358800  0.641200  0.143800  1
  O  O755  1  0.856200  0.641200  0.358800  1
  O  O756  1  0.143800  0.358800  0.641200  1
  O  O757  1  0.856200  0.358800  0.143800  1
  O  O758  1  0.856200  0.143800  0.358800  1
  O  O759  1  0.143800  0.856200  0.358800  1
  O  O760  1  0.143800  0.358800  0.856200  1
  O  O761  1  0.358800  0.143800  0.856200  1
  O  O762  1  0.358800  0.856200  0.143800  1
  O  O763  1  0.116300  0.554900  0.773900  1
  O  O764  1  0.226100  0.883700  0.445100  1
  O  O765  1  0.445100  0.445100  0.226100  1
  O  O766  1  0.445100  0.445100  0.883700  1
  O  O767  1  0.773900  0.116300  0.554900  1
  O  O768  1  0.445100  0.226100  0.445100  1
  O  O769  1  0.883700  0.445100  0.226100  1
  O  O770  1  0.445100  0.883700  0.445100  1
  O  O771  1  0.554900  0.773900  0.116300  1
  O  O772  1  0.883700  0.445100  0.445100  1
  O  O773  1  0.226100  0.445100  0.445100  1
  O  O774  1  0.445100  0.226100  0.883700  1
  O  O775  1  0.226100  0.445100  0.883700  1
  O  O776  1  0.116300  0.773900  0.554900  1
  O  O777  1  0.883700  0.226100  0.445100  1
  O  O778  1  0.773900  0.554900  0.116300  1
  O  O779  1  0.445100  0.883700  0.226100  1
  O  O780  1  0.554900  0.116300  0.773900  1
  O  O781  1  0.554900  0.554900  0.773900  1
  O  O782  1  0.554900  0.554900  0.116300  1
  O  O783  1  0.554900  0.773900  0.554900  1
  O  O784  1  0.554900  0.116300  0.554900  1
  O  O785  1  0.116300  0.554900  0.554900  1
  O  O786  1  0.773900  0.554900  0.554900  1
  O  O787  1  0.041100  0.592900  0.773100  1
  O  O788  1  0.226900  0.958900  0.407100  1
  O  O789  1  0.407100  0.407100  0.226900  1
  O  O790  1  0.407100  0.407100  0.958900  1
  O  O791  1  0.773100  0.041100  0.592900  1
  O  O792  1  0.407100  0.226900  0.407100  1
  O  O793  1  0.958900  0.407100  0.226900  1
  O  O794  1  0.407100  0.958900  0.407100  1
  O  O795  1  0.592900  0.773100  0.041100  1
  O  O796  1  0.958900  0.407100  0.407100  1
  O  O797  1  0.226900  0.407100  0.407100  1
  O  O798  1  0.407100  0.226900  0.958900  1
  O  O799  1  0.226900  0.407100  0.958900  1
  O  O800  1  0.041100  0.773100  0.592900  1
  O  O801  1  0.958900  0.226900  0.407100  1
  O  O802  1  0.773100  0.592900  0.041100  1
  O  O803  1  0.407100  0.958900  0.226900  1
  O  O804  1  0.592900  0.041100  0.773100  1
  O  O805  1  0.592900  0.592900  0.773100  1
  O  O806  1  0.592900  0.592900  0.041100  1
  O  O807  1  0.592900  0.773100  0.592900  1
  O  O808  1  0.592900  0.041100  0.592900  1
  O  O809  1  0.041100  0.592900  0.592900  1
  O  O810  1  0.773100  0.592900  0.592900  1
  O  O811  1  0.013200  0.838400  0.838400  1
  O  O812  1  0.161600  0.986800  0.690000  1
  O  O813  1  0.690000  0.161600  0.161600  1
  O  O814  1  0.161600  0.690000  0.986800  1
  O  O815  1  0.838400  0.013200  0.838400  1
  O  O816  1  0.161600  0.161600  0.690000  1
  O  O817  1  0.986800  0.690000  0.161600  1
  O  O818  1  0.690000  0.986800  0.161600  1
  O  O819  1  0.838400  0.838400  0.013200  1
  O  O820  1  0.986800  0.161600  0.690000  1
  O  O821  1  0.161600  0.690000  0.161600  1
  O  O822  1  0.690000  0.161600  0.986800  1
  O  O823  1  0.986800  0.161600  0.161600  1
  O  O824  1  0.838400  0.013200  0.310000  1
  O  O825  1  0.310000  0.838400  0.838400  1
  O  O826  1  0.838400  0.310000  0.013200  1
  O  O827  1  0.161600  0.986800  0.161600  1
  O  O828  1  0.838400  0.838400  0.310000  1
  O  O829  1  0.013200  0.310000  0.838400  1
  O  O830  1  0.310000  0.013200  0.838400  1
  O  O831  1  0.161600  0.161600  0.986800  1
  O  O832  1  0.013200  0.838400  0.310000  1
  O  O833  1  0.838400  0.310000  0.838400  1
  O  O834  1  0.310000  0.838400  0.013200  1
  O  O835  1  0.000000  0.706800  0.000000  1
  O  O836  1  0.000000  0.000000  0.706800  1
  O  O837  1  0.706800  0.293200  0.000000  1
  O  O838  1  0.293200  0.706800  0.000000  1
  O  O839  1  0.293200  0.000000  0.706800  1
  O  O840  1  0.706800  0.000000  0.293200  1
  O  O841  1  0.706800  1.000000  0.000000  1
  O  O842  1  0.000000  0.293200  0.706800  1
  O  O843  1  0.000000  0.706800  0.293200  1
  O  O844  1  0.000000  0.293200  1.000000  1
  O  O845  1  0.000000  1.000000  0.293200  1
  O  O846  1  0.293200  0.000000  0.000000  1
  O  O847  1  0.968800  0.531200  0.968800  1
  O  O848  1  0.031200  0.031200  0.468800  1
  O  O849  1  0.468800  0.468800  0.031200  1
  O  O850  1  0.968800  0.968800  0.531200  1
  O  O851  1  0.468800  0.031200  0.468800  1
  O  O852  1  0.031200  0.468800  0.031200  1
  O  O853  1  0.531200  0.968800  0.968800  1
  O  O854  1  0.031200  0.468800  0.468800  1
  O  O855  1  0.468800  0.031200  0.031200  1
  O  O856  1  0.531200  0.531200  0.968800  1
  O  O857  1  0.531200  0.968800  0.531200  1
  O  O858  1  0.968800  0.531200  0.531200  1
  O  O859  1  0.082200  0.573000  0.771800  1
  O  O860  1  0.228200  0.917800  0.427000  1
  O  O861  1  0.427000  0.427000  0.228200  1
  O  O862  1  0.427000  0.427000  0.917800  1
  O  O863  1  0.771800  0.082200  0.573000  1
  O  O864  1  0.427000  0.228200  0.427000  1
  O  O865  1  0.917800  0.427000  0.228200  1
  O  O866  1  0.427000  0.917800  0.427000  1
  O  O867  1  0.573000  0.771800  0.082200  1
  O  O868  1  0.917800  0.427000  0.427000  1
  O  O869  1  0.228200  0.427000  0.427000  1
  O  O870  1  0.427000  0.228200  0.917800  1
  O  O871  1  0.228200  0.427000  0.917800  1
  O  O872  1  0.082200  0.771800  0.573000  1
  O  O873  1  0.917800  0.228200  0.427000  1
  O  O874  1  0.771800  0.573000  0.082200  1
  O  O875  1  0.427000  0.917800  0.228200  1
  O  O876  1  0.573000  0.082200  0.771800  1
  O  O877  1  0.573000  0.573000  0.771800  1
  O  O878  1  0.573000  0.573000  0.082200  1
  O  O879  1  0.573000  0.771800  0.573000  1
  O  O880  1  0.573000  0.082200  0.573000  1
  O  O881  1  0.082200  0.573000  0.573000  1
  O  O882  1  0.771800  0.573000  0.573000  1
  O  O883  1  0.000000  0.531000  1.000000  1.0
  O  O884  1  0.000000  0.000000  0.531000  1.0
  O  O885  1  0.531000  0.469000  0.000000  1.0
  O  O886  1  0.469000  0.531000  1.000000  1.0
  O  O887  1  0.469000  0.000000  0.531000  1.0
  O  O888  1  0.531000  1.000000  0.469000  1.0
  O  O889  1  0.531000  0.000000  0.000000  1.0
  O  O890  1  0.000000  0.469000  0.531000  1.0
  O  O891  1  0.000000  0.531000  0.469000  1.0
  O  O892  1  1.000000  0.469000  1.000000  1.0
  O  O893  1  0.000000  0.000000  0.469000  1.0
  O  O894  1  0.469000  0.000000  0.000000  1.0
  O  O895  1  0.964800  0.500000  0.035200  1.0
  O  O896  1  0.964800  0.035200  0.500000  1.0
  O  O897  1  0.500000  0.500000  0.964800  1.0
  O  O898  1  0.500000  0.500000  0.035200  1.0
  O  O899  1  0.035200  0.964800  0.500000  1.0
  O  O900  1  0.500000  0.964800  0.500000  1.0
  O  O901  1  0.035200  0.500000  0.964800  1.0
  O  O902  1  0.500000  0.035200  0.500000  1.0
  O  O903  1  0.500000  0.035200  0.964800  1.0
  O  O904  1  0.035200  0.500000  0.500000  1.0
  O  O905  1  0.964800  0.500000  0.500000  1.0
  O  O906  1  0.500000  0.964800  0.035200  1.0
  O  O907  1  0.026600  0.761300  0.761300  1.0
  O  O908  1  0.238700  0.973400  0.549200  1.0
  O  O909  1  0.549200  0.238700  0.238700  1.0
  O  O910  1  0.238700  0.549200  0.973400  1.0
  O  O911  1  0.761300  0.026600  0.761300  1.0
  O  O912  1  0.238700  0.238700  0.549200  1.0
  O  O913  1  0.973400  0.549200  0.238700  1.0
  O  O914  1  0.549200  0.973400  0.238700  1.0
  O  O915  1  0.761300  0.761300  0.026600  1.0
  O  O916  1  0.973400  0.238700  0.549200  1.0
  O  O917  1  0.238700  0.549200  0.238700  1.0
  O  O918  1  0.549200  0.238700  0.973400  1.0
  O  O919  1  0.973400  0.238700  0.238700  1.0
  O  O920  1  0.761300  0.026600  0.450800  1.0
  O  O921  1  0.450800  0.761300  0.761300  1.0
  O  O922  1  0.761300  0.450800  0.026600  1.0
  O  O923  1  0.238700  0.973400  0.238700  1.0
  O  O924  1  0.761300  0.761300  0.450800  1.0
  O  O925  1  0.026600  0.450800  0.761300  1.0
  O  O926  1  0.450800  0.026600  0.761300  1.0
  O  O927  1  0.238700  0.238700  0.973400  1.0
  O  O928  1  0.026600  0.761300  0.450800  1.0
  O  O929  1  0.761300  0.450800  0.761300  1.0
  O  O930  1  0.450800  0.761300  0.026600  1.0
  Pd  Pd931  1  0.000000  0.611140  1.000000  1.0
  Pd  Pd932  1  0.000000  0.000000  0.611140  1.0
  Pd  Pd933  1  0.611140  0.388860  0.000000  1.0
  Pd  Pd934  1  0.388860  0.611140  0.000000  1.0
  Pd  Pd935  1  0.388860  0.000000  0.611140  1.0
  Pd  Pd936  1  0.611140  1.000000  0.388860  1.0
  Pd  Pd937  1  0.611140  0.000000  1.000000  1.0
  Pd  Pd938  1  0.000000  0.388860  0.611140  1.0
  Pd  Pd939  1  0.000000  0.611140  0.388860  1.0
  Pd  Pd940  1  0.000000  0.388860  0.000000  1.0
  Pd  Pd941  1  0.000000  1.000000  0.388860  1.0
  Pd  Pd942  1  0.388860  0.000000  1.000000  1.0
