
#######################################################################
#
#                 Cambridge Crystallographic Data Centre
#                                CCDC 
#
#######################################################################
#
# If this CIF has been generated from an entry in the Cambridge 
# Structural Database, then it will include bibliographic, chemical, 
# crystal, experimental, refinement or atomic coordinate data resulting 
# from the CCDC's data processing and validation procedures.
#
#######################################################################

data_BIMXIF
_chemical_formula_moiety         
'12(Pd1 2+),24(C14 H10 N2 O1),24(N1 O3 1-),x(C2 H3 Cl3),y(H2 O1)'
_chemical_name_systematic        
"tetracosakis(\m~2~-2,5-bis(2-Pyridyl)furan-N,N')-dodeca-palladium(ii) tetracosakis(nitrate) 1,1,2-trichloroethane solvate hydrate"
_symmetry_cell_setting           cubic
_symmetry_space_group_name_H-M   'F m -3 m'
_symmetry_Int_Tables_number      225
_space_group_name_Hall           '-F 4 2 3'
loop_
_symmetry_equiv_pos_site_id
_symmetry_equiv_pos_as_xyz
1 x,y,z
2 -y,x,z
3 y,x,-z
4 y,-x,z
5 y,z,x
6 -z,y,x
7 z,-y,x
8 z,y,-x
9 z,x,y
10 -x,z,y
11 x,-z,y
12 x,z,-y
13 x,1/2+y,1/2+z
14 -y,1/2+x,1/2+z
15 y,1/2+x,1/2-z
16 y,1/2-x,1/2+z
17 y,1/2+z,1/2+x
18 -z,1/2+y,1/2+x
19 z,1/2-y,1/2+x
20 z,1/2+y,1/2-x
21 z,1/2+x,1/2+y
22 -x,1/2+z,1/2+y
23 x,1/2-z,1/2+y
24 x,1/2+z,1/2-y
25 1/2+x,y,1/2+z
26 1/2-y,x,1/2+z
27 1/2+y,x,1/2-z
28 1/2+y,-x,1/2+z
29 1/2+y,z,1/2+x
30 1/2-z,y,1/2+x
31 1/2+z,-y,1/2+x
32 1/2+z,y,1/2-x
33 1/2+z,x,1/2+y
34 1/2-x,z,1/2+y
35 1/2+x,-z,1/2+y
36 1/2+x,z,1/2-y
37 1/2+x,1/2+y,z
38 1/2-y,1/2+x,z
39 1/2+y,1/2+x,-z
40 1/2+y,1/2-x,z
41 1/2+y,1/2+z,x
42 1/2-z,1/2+y,x
43 1/2+z,1/2-y,x
44 1/2+z,1/2+y,-x
45 1/2+z,1/2+x,y
46 1/2-x,1/2+z,y
47 1/2+x,1/2-z,y
48 1/2+x,1/2+z,-y
49 -x,y,z
50 x,y,-z
51 x,-y,z
52 y,x,z
53 y,z,-x
54 -y,z,x
55 y,-z,x
56 z,y,x
57 z,-x,y
58 z,x,-y
59 -z,x,y
60 x,z,y
61 -x,1/2+y,1/2+z
62 x,1/2+y,1/2-z
63 x,1/2-y,1/2+z
64 y,1/2+x,1/2+z
65 y,1/2+z,1/2-x
66 -y,1/2+z,1/2+x
67 y,1/2-z,1/2+x
68 z,1/2+y,1/2+x
69 z,1/2-x,1/2+y
70 z,1/2+x,1/2-y
71 -z,1/2+x,1/2+y
72 x,1/2+z,1/2+y
73 1/2-x,y,1/2+z
74 1/2+x,y,1/2-z
75 1/2+x,-y,1/2+z
76 1/2+y,x,1/2+z
77 1/2+y,z,1/2-x
78 1/2-y,z,1/2+x
79 1/2+y,-z,1/2+x
80 1/2+z,y,1/2+x
81 1/2+z,-x,1/2+y
82 1/2+z,x,1/2-y
83 1/2-z,x,1/2+y
84 1/2+x,z,1/2+y
85 1/2-x,1/2+y,z
86 1/2+x,1/2+y,-z
87 1/2+x,1/2-y,z
88 1/2+y,1/2+x,z
89 1/2+y,1/2+z,-x
90 1/2-y,1/2+z,x
91 1/2+y,1/2-z,x
92 1/2+z,1/2+y,x
93 1/2+z,1/2-x,y
94 1/2+z,1/2+x,-y
95 1/2-z,1/2+x,y
96 1/2+x,1/2+z,y
97 -x,-y,-z
98 y,-x,-z
99 -y,-x,z
100 -y,x,-z
101 -y,-z,-x
102 z,-y,-x
103 -z,y,-x
104 -z,-y,x
105 -z,-x,-y
106 x,-z,-y
107 -x,z,-y
108 -x,-z,y
109 -x,1/2-y,1/2-z
110 y,1/2-x,1/2-z
111 -y,1/2-x,1/2+z
112 -y,1/2+x,1/2-z
113 -y,1/2-z,1/2-x
114 z,1/2-y,1/2-x
115 -z,1/2+y,1/2-x
116 -z,1/2-y,1/2+x
117 -z,1/2-x,1/2-y
118 x,1/2-z,1/2-y
119 -x,1/2+z,1/2-y
120 -x,1/2-z,1/2+y
121 1/2-x,-y,1/2-z
122 1/2+y,-x,1/2-z
123 1/2-y,-x,1/2+z
124 1/2-y,x,1/2-z
125 1/2-y,-z,1/2-x
126 1/2+z,-y,1/2-x
127 1/2-z,y,1/2-x
128 1/2-z,-y,1/2+x
129 1/2-z,-x,1/2-y
130 1/2+x,-z,1/2-y
131 1/2-x,z,1/2-y
132 1/2-x,-z,1/2+y
133 1/2-x,1/2-y,-z
134 1/2+y,1/2-x,-z
135 1/2-y,1/2-x,z
136 1/2-y,1/2+x,-z
137 1/2-y,1/2-z,-x
138 1/2+z,1/2-y,-x
139 1/2-z,1/2+y,-x
140 1/2-z,1/2-y,x
141 1/2-z,1/2-x,-y
142 1/2+x,1/2-z,-y
143 1/2-x,1/2+z,-y
144 1/2-x,1/2-z,y
145 x,-y,-z
146 -x,-y,z
147 -x,y,-z
148 -y,-x,-z
149 -y,-z,x
150 y,-z,-x
151 -y,z,-x
152 -z,-y,-x
153 -z,x,-y
154 -z,-x,y
155 z,-x,-y
156 -x,-z,-y
157 x,1/2-y,1/2-z
158 -x,1/2-y,1/2+z
159 -x,1/2+y,1/2-z
160 -y,1/2-x,1/2-z
161 -y,1/2-z,1/2+x
162 y,1/2-z,1/2-x
163 -y,1/2+z,1/2-x
164 -z,1/2-y,1/2-x
165 -z,1/2+x,1/2-y
166 -z,1/2-x,1/2+y
167 z,1/2-x,1/2-y
168 -x,1/2-z,1/2-y
169 1/2+x,-y,1/2-z
170 1/2-x,-y,1/2+z
171 1/2-x,y,1/2-z
172 1/2-y,-x,1/2-z
173 1/2-y,-z,1/2+x
174 1/2+y,-z,1/2-x
175 1/2-y,z,1/2-x
176 1/2-z,-y,1/2-x
177 1/2-z,x,1/2-y
178 1/2-z,-x,1/2+y
179 1/2+z,-x,1/2-y
180 1/2-x,-z,1/2-y
181 1/2+x,1/2-y,-z
182 1/2-x,1/2-y,z
183 1/2-x,1/2+y,-z
184 1/2-y,1/2-x,-z
185 1/2-y,1/2-z,x
186 1/2+y,1/2-z,-x
187 1/2-y,1/2+z,-x
188 1/2-z,1/2-y,-x
189 1/2-z,1/2+x,-y
190 1/2-z,1/2-x,y
191 1/2+z,1/2-x,-y
192 1/2-x,1/2-z,-y
_cell_length_a                   47.689(4)
_cell_length_b                   47.689(4)
_cell_length_c                   47.689(4)
_cell_angle_alpha                90
_cell_angle_beta                 90
_cell_angle_gamma                90
_cell_volume                     108456
_exptl_crystal_colour            yellow
_exptl_crystal_description       block
_chemical_melting_point          'above 279deg.C(dec.)'
_cell_formula_units_Z            4
_exptl_crystal_recrystallization_method 
'1,1,2-trichloroethane/dimethyl sulfoxide'
loop_
_atom_site_label
_atom_site_type_symbol
_atom_site_fract_x
_atom_site_fract_y
_atom_site_fract_z
N3 N 0.2500 0.0000 0.2500
O4 O 0.2345(4) 0.0000 0.2345(4)
O5 O 0.2676(3) 0.0000 0.2324(3)
O4PD O 0.2655(4) 0.0000 0.2655(4)
O5PD O 0.2324(3) 0.0000 0.2676(3)
O6 O 0.1075(5) 0.0000 0.2513(5)
O7 O 0.1644(5) 0.0549(8) 0.3356(5)
O8 O 0.1830(8) 0.0929(12) 0.3170(8)
O10 O 0.0742(7) 0.0742(7) 0.1616(9)
Pd1 Pd 0.19443(3) 0.0000 0.19443(3)
N1 N 0.1728(2) 0.02928(17) 0.2150(2)
C1 C 0.1504(3) 0.0413(3) 0.2016(3)
H1 H 0.1458 0.0350 0.1833
C2 C 0.1342(3) 0.0623(2) 0.2137(3)
H2 H 0.1182 0.0699 0.2046
C3 C 0.1434(3) 0.0718(3) 0.2411(3)
C4 C 0.1645(3) 0.0593(3) 0.2549(3)
H3 H 0.1689 0.0640 0.2738
C5 C 0.1800(3) 0.0387(3) 0.2398(3)
H4 H 0.1965 0.0314 0.2481
C6 C 0.1263(3) 0.0938(3) 0.2545(3)
C7 C 0.1290(4) 0.1091(4) 0.2785(4)
H5 H 0.1426 0.1061 0.2927
O1 O 0.10605(18) 0.10605(18) 0.2387(2)
C7YA C 0.1091(4) 0.1290(4) 0.2785(4)
C6YA C 0.0938(3) 0.1263(3) 0.2545(3)
C3YA C 0.0718(3) 0.1434(3) 0.2411(3)
C2YA C 0.0623(2) 0.1342(3) 0.2137(3)
C1YA C 0.0413(3) 0.1504(3) 0.2016(3)
N1YA N 0.02928(17) 0.1728(2) 0.2150(2)
Pd1YA Pd 0.0000 0.19443(3) 0.19443(3)
N1AB N -0.02928(17) 0.2150(2) 0.1728(2)
C1AB C -0.0413(3) 0.2016(3) 0.1504(3)
H1AB H -0.0350 0.1833 0.1458
C2AB C -0.0623(2) 0.2137(3) 0.1342(3)
H2AB H -0.0699 0.2046 0.1182
C3AB C -0.0718(3) 0.2411(3) 0.1434(3)
C4AB C -0.0593(3) 0.2549(3) 0.1645(3)
H3AB H -0.0640 0.2738 0.1689
C5AB C -0.0387(3) 0.2398(3) 0.1800(3)
H4AB H -0.0314 0.2481 0.1965
C6AB C -0.0938(3) 0.2545(3) 0.1263(3)
C7AB C -0.1091(4) 0.2785(4) 0.1290(4)
C7I C -0.1290(4) 0.2785(4) 0.1091(4)
C6I C -0.1263(3) 0.2545(3) 0.0938(3)
C3I C -0.1434(3) 0.2411(3) 0.0718(3)
C2I C -0.1342(3) 0.2137(3) 0.0623(2)
C1I C -0.1504(3) 0.2016(3) 0.0413(3)
N1I N -0.1728(2) 0.2150(2) 0.02928(17)
Pd1I Pd -0.19443(3) 0.19443(3) 0.0000
N1VE N -0.2150(2) 0.1728(2) -0.02928(17)
C1VE C -0.2016(3) 0.1504(3) -0.0413(3)
H1VE H -0.1833 0.1458 -0.0350
C2VE C -0.2137(3) 0.1342(3) -0.0623(2)
H2VE H -0.2046 0.1182 -0.0699
C3VE C -0.2411(3) 0.1434(3) -0.0718(3)
C4VE C -0.2549(3) 0.1645(3) -0.0593(3)
H3VE H -0.2738 0.1689 -0.0640
C5VE C -0.2398(3) 0.1800(3) -0.0387(3)
H4VE H -0.2481 0.1965 -0.0314
C6VE C -0.2545(3) 0.1263(3) -0.0938(3)
C7VE C -0.2785(4) 0.1290(4) -0.1091(4)
C7XC C -0.2785(4) 0.1091(4) -0.1290(4)
C6XC C -0.2545(3) 0.0938(3) -0.1263(3)
C3XC C -0.2411(3) 0.0718(3) -0.1434(3)
C2XC C -0.2137(3) 0.0623(2) -0.1342(3)
C1XC C -0.2016(3) 0.0413(3) -0.1504(3)
N1XC N -0.2150(2) 0.02928(17) -0.1728(2)
Pd1XC Pd -0.19443(3) 0.0000 -0.19443(3)
N1RC N -0.1728(2) -0.02928(17) -0.2150(2)
C1RC C -0.1504(3) -0.0413(3) -0.2016(3)
H1RC H -0.1458 -0.0350 -0.1833
C2RC C -0.1342(3) -0.0623(2) -0.2137(3)
H2RC H -0.1182 -0.0699 -0.2046
C3RC C -0.1434(3) -0.0718(3) -0.2411(3)
C4RC C -0.1645(3) -0.0593(3) -0.2549(3)
H3RC H -0.1689 -0.0640 -0.2738
C5RC C -0.1800(3) -0.0387(3) -0.2398(3)
H4RC H -0.1965 -0.0314 -0.2481
C6RC C -0.1263(3) -0.0938(3) -0.2545(3)
C7RC C -0.1290(4) -0.1091(4) -0.2785(4)
C7QE C -0.1091(4) -0.1290(4) -0.2785(4)
C6QE C -0.0938(3) -0.1263(3) -0.2545(3)
C3QE C -0.0718(3) -0.1434(3) -0.2411(3)
C2QE C -0.0623(2) -0.1342(3) -0.2137(3)
C1QE C -0.0413(3) -0.1504(3) -0.2016(3)
N1QE N -0.02928(17) -0.1728(2) -0.2150(2)
Pd1QE Pd 0.0000 -0.19443(3) -0.19443(3)
N1SE N 0.02928(17) -0.2150(2) -0.1728(2)
C1SE C 0.0413(3) -0.2016(3) -0.1504(3)
H1SE H 0.0350 -0.1833 -0.1458
C2SE C 0.0623(2) -0.2137(3) -0.1342(3)
H2SE H 0.0699 -0.2046 -0.1182
C3SE C 0.0718(3) -0.2411(3) -0.1434(3)
C4SE C 0.0593(3) -0.2549(3) -0.1645(3)
H3SE H 0.0640 -0.2738 -0.1689
C5SE C 0.0387(3) -0.2398(3) -0.1800(3)
H4SE H 0.0314 -0.2481 -0.1965
C6SE C 0.0938(3) -0.2545(3) -0.1263(3)
C7SE C 0.1091(4) -0.2785(4) -0.1290(4)
C7AD C 0.1290(4) -0.2785(4) -0.1091(4)
C6AD C 0.1263(3) -0.2545(3) -0.0938(3)
C3AD C 0.1434(3) -0.2411(3) -0.0718(3)
C2AD C 0.1342(3) -0.2137(3) -0.0623(2)
C1AD C 0.1504(3) -0.2016(3) -0.0413(3)
N1AD N 0.1728(2) -0.2150(2) -0.02928(17)
Pd1AD Pd 0.19443(3) -0.19443(3) 0.0000
N1DB N 0.2150(2) -0.1728(2) 0.02928(17)
C1DB C 0.2016(3) -0.1504(3) 0.0413(3)
H1DB H 0.1833 -0.1458 0.0350
C2DB C 0.2137(3) -0.1342(3) 0.0623(2)
H2DB H 0.2046 -0.1182 0.0699
C3DB C 0.2411(3) -0.1434(3) 0.0718(3)
C4DB C 0.2549(3) -0.1645(3) 0.0593(3)
H3DB H 0.2738 -0.1689 0.0640
C5DB C 0.2398(3) -0.1800(3) 0.0387(3)
H4DB H 0.2481 -0.1965 0.0314
C6DB C 0.2545(3) -0.1263(3) 0.0938(3)
C7DB C 0.2785(4) -0.1290(4) 0.1091(4)
C7F C 0.2785(4) -0.1091(4) 0.1290(4)
C6F C 0.2545(3) -0.0938(3) 0.1263(3)
C3F C 0.2411(3) -0.0718(3) 0.1434(3)
C2F C 0.2137(3) -0.0623(2) 0.1342(3)
C1F C 0.2016(3) -0.0413(3) 0.1504(3)
N1F N 0.2150(2) -0.02928(17) 0.1728(2)
N1XA N 0.1728(2) -0.02928(17) 0.2150(2)
C1XA C 0.1504(3) -0.0413(3) 0.2016(3)
H1XA H 0.1458 -0.0350 0.1833
C2XA C 0.1342(3) -0.0623(2) 0.2137(3)
H2XA H 0.1182 -0.0699 0.2046
C3XA C 0.1434(3) -0.0718(3) 0.2411(3)
C4XA C 0.1645(3) -0.0593(3) 0.2549(3)
H3XA H 0.1689 -0.0640 0.2738
C5XA C 0.1800(3) -0.0387(3) 0.2398(3)
H4XA H 0.1965 -0.0314 0.2481
C6XA C 0.1263(3) -0.0938(3) 0.2545(3)
C7XA C 0.1290(4) -0.1091(4) 0.2785(4)
C7C C 0.1091(4) -0.1290(4) 0.2785(4)
C6C C 0.0938(3) -0.1263(3) 0.2545(3)
C3C C 0.0718(3) -0.1434(3) 0.2411(3)
C2C C 0.0623(2) -0.1342(3) 0.2137(3)
C1C C 0.0413(3) -0.1504(3) 0.2016(3)
N1C N 0.02928(17) -0.1728(2) 0.2150(2)
Pd1C Pd 0.0000 -0.19443(3) 0.19443(3)
N1RE N -0.02928(17) -0.2150(2) 0.1728(2)
C1RE C -0.0413(3) -0.2016(3) 0.1504(3)
H1RE H -0.0350 -0.1833 0.1458
C2RE C -0.0623(2) -0.2137(3) 0.1342(3)
H2RE H -0.0699 -0.2046 0.1182
C3RE C -0.0718(3) -0.2411(3) 0.1434(3)
C4RE C -0.0593(3) -0.2549(3) 0.1645(3)
H3RE H -0.0640 -0.2738 0.1689
C5RE C -0.0387(3) -0.2398(3) 0.1800(3)
H4RE H -0.0314 -0.2481 0.1965
C6RE C -0.0938(3) -0.2545(3) 0.1263(3)
C7RE C -0.1091(4) -0.2785(4) 0.1290(4)
C7CD C -0.1290(4) -0.2785(4) 0.1091(4)
H5RE H -0.1061 -0.2927 0.1426
O1RE O -0.10605(18) -0.2387(2) 0.10605(18)
C6CD C -0.1263(3) -0.2545(3) 0.0938(3)
C3CD C -0.1434(3) -0.2411(3) 0.0718(3)
C2CD C -0.1342(3) -0.2137(3) 0.0623(2)
C1CD C -0.1504(3) -0.2016(3) 0.0413(3)
N1CD N -0.1728(2) -0.2150(2) 0.02928(17)
Pd1CD Pd -0.19443(3) -0.19443(3) 0.0000
N1ZC N -0.2150(2) -0.1728(2) -0.02928(17)
C1ZC C -0.2016(3) -0.1504(3) -0.0413(3)
H1ZC H -0.1833 -0.1458 -0.0350
C2ZC C -0.2137(3) -0.1342(3) -0.0623(2)
H2ZC H -0.2046 -0.1182 -0.0699
C3ZC C -0.2411(3) -0.1434(3) -0.0718(3)
C4ZC C -0.2549(3) -0.1645(3) -0.0593(3)
H3ZC H -0.2738 -0.1689 -0.0640
C5ZC C -0.2398(3) -0.1800(3) -0.0387(3)
H4ZC H -0.2481 -0.1965 -0.0314
C6ZC C -0.2545(3) -0.1263(3) -0.0938(3)
C7ZC C -0.2785(4) -0.1290(4) -0.1091(4)
C7UE C -0.2785(4) -0.1091(4) -0.1290(4)
C6UE C -0.2545(3) -0.0938(3) -0.1263(3)
C3UE C -0.2411(3) -0.0718(3) -0.1434(3)
C2UE C -0.2137(3) -0.0623(2) -0.1342(3)
C1UE C -0.2016(3) -0.0413(3) -0.1504(3)
N1UE N -0.2150(2) -0.02928(17) -0.1728(2)
N1PE N -0.1728(2) 0.02928(17) -0.2150(2)
C1PE C -0.1504(3) 0.0413(3) -0.2016(3)
H1PE H -0.1458 0.0350 -0.1833
C2PE C -0.1342(3) 0.0623(2) -0.2137(3)
H2PE H -0.1182 0.0699 -0.2046
C3PE C -0.1434(3) 0.0718(3) -0.2411(3)
C4PE C -0.1645(3) 0.0593(3) -0.2549(3)
H3PE H -0.1689 0.0640 -0.2738
C5PE C -0.1800(3) 0.0387(3) -0.2398(3)
H4PE H -0.1965 0.0314 -0.2481
C6PE C -0.1263(3) 0.0938(3) -0.2545(3)
C7PE C -0.1290(4) 0.1091(4) -0.2785(4)
C7UC C -0.1091(4) 0.1290(4) -0.2785(4)
C6UC C -0.0938(3) 0.1263(3) -0.2545(3)
C3UC C -0.0718(3) 0.1434(3) -0.2411(3)
C2UC C -0.0623(2) 0.1342(3) -0.2137(3)
C1UC C -0.0413(3) 0.1504(3) -0.2016(3)
N1UC N -0.02928(17) 0.1728(2) -0.2150(2)
Pd1UC Pd 0.0000 0.19443(3) -0.19443(3)
N1ZA N 0.02928(17) 0.2150(2) -0.1728(2)
C1ZA C 0.0413(3) 0.2016(3) -0.1504(3)
H1ZA H 0.0350 0.1833 -0.1458
C2ZA C 0.0623(2) 0.2137(3) -0.1342(3)
H2ZA H 0.0699 0.2046 -0.1182
C3ZA C 0.0718(3) 0.2411(3) -0.1434(3)
C4ZA C 0.0593(3) 0.2549(3) -0.1645(3)
H3ZA H 0.0640 0.2738 -0.1689
C5ZA C 0.0387(3) 0.2398(3) -0.1800(3)
H4ZA H 0.0314 0.2481 -0.1965
C6ZA C 0.0938(3) 0.2545(3) -0.1263(3)
C7ZA C 0.1091(4) 0.2785(4) -0.1290(4)
C7K C 0.1290(4) 0.2785(4) -0.1091(4)
H5ZA H 0.1061 0.2927 -0.1426
O1ZA O 0.10605(18) 0.2387(2) -0.10605(18)
C6K C 0.1263(3) 0.2545(3) -0.0938(3)
C3K C 0.1434(3) 0.2411(3) -0.0718(3)
C2K C 0.1342(3) 0.2137(3) -0.0623(2)
C1K C 0.1504(3) 0.2016(3) -0.0413(3)
N1K N 0.1728(2) 0.2150(2) -0.02928(17)
Pd1K Pd 0.19443(3) 0.19443(3) 0.0000
N1H N 0.2150(2) 0.1728(2) 0.02928(17)
C1H C 0.2016(3) 0.1504(3) 0.0413(3)
H1H H 0.1833 0.1458 0.0350
C2H C 0.2137(3) 0.1342(3) 0.0623(2)
H2H H 0.2046 0.1182 0.0699
C3H C 0.2411(3) 0.1434(3) 0.0718(3)
C4H C 0.2549(3) 0.1645(3) 0.0593(3)
H3H H 0.2738 0.1689 0.0640
C5H C 0.2398(3) 0.1800(3) 0.0387(3)
H4H H 0.2481 0.1965 0.0314
C6H C 0.2545(3) 0.1263(3) 0.0938(3)
C7H C 0.2785(4) 0.1290(4) 0.1091(4)
C7CB C 0.2785(4) 0.1091(4) 0.1290(4)
C6CB C 0.2545(3) 0.0938(3) 0.1263(3)
C3CB C 0.2411(3) 0.0718(3) 0.1434(3)
C2CB C 0.2137(3) 0.0623(2) 0.1342(3)
C1CB C 0.2016(3) 0.0413(3) 0.1504(3)
N1CB N 0.2150(2) 0.02928(17) 0.1728(2)
C5CB C 0.2398(3) 0.0387(3) 0.1800(3)
C4CB C 0.2549(3) 0.0593(3) 0.1645(3)
H3CB H 0.2738 0.0640 0.1689
H4CB H 0.2481 0.0314 0.1965
H1CB H 0.1833 0.0350 0.1458
H2CB H 0.2046 0.0699 0.1182
O1CB O 0.2387(2) 0.10605(18) 0.10605(18)
H5CB H 0.2927 0.1061 0.1426
H5H H 0.2927 0.1426 0.1061
N1GB N 0.1728(2) 0.2150(2) 0.02928(17)
C1GB C 0.1504(3) 0.2016(3) 0.0413(3)
H1GB H 0.1458 0.1833 0.0350
C2GB C 0.1342(3) 0.2137(3) 0.0623(2)
H2GB H 0.1182 0.2046 0.0699
C3GB C 0.1434(3) 0.2411(3) 0.0718(3)
C4GB C 0.1645(3) 0.2549(3) 0.0593(3)
H3GB H 0.1689 0.2738 0.0640
C5GB C 0.1800(3) 0.2398(3) 0.0387(3)
H4GB H 0.1965 0.2481 0.0314
C6GB C 0.1263(3) 0.2545(3) 0.0938(3)
C7GB C 0.1290(4) 0.2785(4) 0.1091(4)
C7D C 0.1091(4) 0.2785(4) 0.1290(4)
C6D C 0.0938(3) 0.2545(3) 0.1263(3)
C3D C 0.0718(3) 0.2411(3) 0.1434(3)
C2D C 0.0623(2) 0.2137(3) 0.1342(3)
C1D C 0.0413(3) 0.2016(3) 0.1504(3)
N1D N 0.02928(17) 0.2150(2) 0.1728(2)
N1A N -0.02928(17) 0.1728(2) 0.2150(2)
C1A C -0.0413(3) 0.1504(3) 0.2016(3)
H1A H -0.0350 0.1458 0.1833
C2A C -0.0623(2) 0.1342(3) 0.2137(3)
H2A H -0.0699 0.1182 0.2046
C3A C -0.0718(3) 0.1434(3) 0.2411(3)
C4A C -0.0593(3) 0.1645(3) 0.2549(3)
H3A H -0.0640 0.1689 0.2738
C5A C -0.0387(3) 0.1800(3) 0.2398(3)
H4A H -0.0314 0.1965 0.2481
C6A C -0.0938(3) 0.1263(3) 0.2545(3)
C7A C -0.1091(4) 0.1290(4) 0.2785(4)
C7VA C -0.1290(4) 0.1091(4) 0.2785(4)
H5A H -0.1061 0.1426 0.2927
O1A O -0.10605(18) 0.10605(18) 0.2387(2)
C6VA C -0.1263(3) 0.0938(3) 0.2545(3)
C3VA C -0.1434(3) 0.0718(3) 0.2411(3)
C2VA C -0.1342(3) 0.0623(2) 0.2137(3)
C1VA C -0.1504(3) 0.0413(3) 0.2016(3)
N1VA N -0.1728(2) 0.02928(17) 0.2150(2)
Pd1VA Pd -0.19443(3) 0.0000 0.19443(3)
N1YC N -0.2150(2) -0.02928(17) 0.1728(2)
C1YC C -0.2016(3) -0.0413(3) 0.1504(3)
H1YC H -0.1833 -0.0350 0.1458
C2YC C -0.2137(3) -0.0623(2) 0.1342(3)
H2YC H -0.2046 -0.0699 0.1182
C3YC C -0.2411(3) -0.0718(3) 0.1434(3)
C4YC C -0.2549(3) -0.0593(3) 0.1645(3)
H3YC H -0.2738 -0.0640 0.1689
C5YC C -0.2398(3) -0.0387(3) 0.1800(3)
H4YC H -0.2481 -0.0314 0.1965
C6YC C -0.2545(3) -0.0938(3) 0.1263(3)
C7YC C -0.2785(4) -0.1091(4) 0.1290(4)
C7WE C -0.2785(4) -0.1290(4) 0.1091(4)
H5YC H -0.2927 -0.1061 0.1426
O1YC O -0.2387(2) -0.10605(18) 0.10605(18)
C6WE C -0.2545(3) -0.1263(3) 0.0938(3)
C3WE C -0.2411(3) -0.1434(3) 0.0718(3)
C2WE C -0.2137(3) -0.1342(3) 0.0623(2)
C1WE C -0.2016(3) -0.1504(3) 0.0413(3)
N1WE N -0.2150(2) -0.1728(2) 0.02928(17)
N1YE N -0.1728(2) -0.2150(2) -0.02928(17)
C1YE C -0.1504(3) -0.2016(3) -0.0413(3)
H1YE H -0.1458 -0.1833 -0.0350
C2YE C -0.1342(3) -0.2137(3) -0.0623(2)
H2YE H -0.1182 -0.2046 -0.0699
C3YE C -0.1434(3) -0.2411(3) -0.0718(3)
C4YE C -0.1645(3) -0.2549(3) -0.0593(3)
H3YE H -0.1689 -0.2738 -0.0640
C5YE C -0.1800(3) -0.2398(3) -0.0387(3)
H4YE H -0.1965 -0.2481 -0.0314
C6YE C -0.1263(3) -0.2545(3) -0.0938(3)
C7YE C -0.1290(4) -0.2785(4) -0.1091(4)
C7VC C -0.1091(4) -0.2785(4) -0.1290(4)
C6VC C -0.0938(3) -0.2545(3) -0.1263(3)
C3VC C -0.0718(3) -0.2411(3) -0.1434(3)
C2VC C -0.0623(2) -0.2137(3) -0.1342(3)
C1VC C -0.0413(3) -0.2016(3) -0.1504(3)
N1VC N -0.02928(17) -0.2150(2) -0.1728(2)
N1SC N 0.02928(17) -0.1728(2) -0.2150(2)
C1SC C 0.0413(3) -0.1504(3) -0.2016(3)
H1SC H 0.0350 -0.1458 -0.1833
C2SC C 0.0623(2) -0.1342(3) -0.2137(3)
H2SC H 0.0699 -0.1182 -0.2046
C3SC C 0.0718(3) -0.1434(3) -0.2411(3)
C4SC C 0.0593(3) -0.1645(3) -0.2549(3)
H3SC H 0.0640 -0.1689 -0.2738
C5SC C 0.0387(3) -0.1800(3) -0.2398(3)
H4SC H 0.0314 -0.1965 -0.2481
C6SC C 0.0938(3) -0.1263(3) -0.2545(3)
C7SC C 0.1091(4) -0.1290(4) -0.2785(4)
C7NE C 0.1290(4) -0.1091(4) -0.2785(4)
H5SC H 0.1061 -0.1426 -0.2927
O1SC O 0.10605(18) -0.10605(18) -0.2387(2)
C6NE C 0.1263(3) -0.0938(3) -0.2545(3)
C3NE C 0.1434(3) -0.0718(3) -0.2411(3)
C2NE C 0.1342(3) -0.0623(2) -0.2137(3)
C1NE C 0.1504(3) -0.0413(3) -0.2016(3)
N1NE N 0.1728(2) -0.02928(17) -0.2150(2)
Pd1NE Pd 0.19443(3) 0.0000 -0.19443(3)
N1G N 0.2150(2) 0.02928(17) -0.1728(2)
C1G C 0.2016(3) 0.0413(3) -0.1504(3)
H1G H 0.1833 0.0350 -0.1458
C2G C 0.2137(3) 0.0623(2) -0.1342(3)
H2G H 0.2046 0.0699 -0.1182
C3G C 0.2411(3) 0.0718(3) -0.1434(3)
C4G C 0.2549(3) 0.0593(3) -0.1645(3)
H3G H 0.2738 0.0640 -0.1689
C5G C 0.2398(3) 0.0387(3) -0.1800(3)
H4G H 0.2481 0.0314 -0.1965
C6G C 0.2545(3) 0.0938(3) -0.1263(3)
C7G C 0.2785(4) 0.1091(4) -0.1290(4)
C7EB C 0.2785(4) 0.1290(4) -0.1091(4)
H5G H 0.2927 0.1061 -0.1426
O1G O 0.2387(2) 0.10605(18) -0.10605(18)
C6EB C 0.2545(3) 0.1263(3) -0.0938(3)
C3EB C 0.2411(3) 0.1434(3) -0.0718(3)
C2EB C 0.2137(3) 0.1342(3) -0.0623(2)
C1EB C 0.2016(3) 0.1504(3) -0.0413(3)
N1EB N 0.2150(2) 0.1728(2) -0.02928(17)
C5EB C 0.2398(3) 0.1800(3) -0.0387(3)
C4EB C 0.2549(3) 0.1645(3) -0.0593(3)
H3EB H 0.2738 0.1689 -0.0640
H4EB H 0.2481 0.1965 -0.0314
H1EB H 0.1833 0.1458 -0.0350
H2EB H 0.2046 0.1182 -0.0699
H5EB H 0.2927 0.1426 -0.1061
N1WA N 0.1728(2) 0.02928(17) -0.2150(2)
C1WA C 0.1504(3) 0.0413(3) -0.2016(3)
H1WA H 0.1458 0.0350 -0.1833
C2WA C 0.1342(3) 0.0623(2) -0.2137(3)
H2WA H 0.1182 0.0699 -0.2046
C3WA C 0.1434(3) 0.0718(3) -0.2411(3)
C4WA C 0.1645(3) 0.0593(3) -0.2549(3)
H3WA H 0.1689 0.0640 -0.2738
C5WA C 0.1800(3) 0.0387(3) -0.2398(3)
H4WA H 0.1965 0.0314 -0.2481
C6WA C 0.1263(3) 0.0938(3) -0.2545(3)
C7WA C 0.1290(4) 0.1091(4) -0.2785(4)
C7B C 0.1091(4) 0.1290(4) -0.2785(4)
H5WA H 0.1426 0.1061 -0.2927
O1WA O 0.10605(18) 0.10605(18) -0.2387(2)
C6B C 0.0938(3) 0.1263(3) -0.2545(3)
C3B C 0.0718(3) 0.1434(3) -0.2411(3)
C2B C 0.0623(2) 0.1342(3) -0.2137(3)
C1B C 0.0413(3) 0.1504(3) -0.2016(3)
N1B N 0.02928(17) 0.1728(2) -0.2150(2)
N1TE N -0.02928(17) 0.2150(2) -0.1728(2)
C1TE C -0.0413(3) 0.2016(3) -0.1504(3)
H1TE H -0.0350 0.1833 -0.1458
C2TE C -0.0623(2) 0.2137(3) -0.1342(3)
H2TE H -0.0699 0.2046 -0.1182
C3TE C -0.0718(3) 0.2411(3) -0.1434(3)
C4TE C -0.0593(3) 0.2549(3) -0.1645(3)
H3TE H -0.0640 0.2738 -0.1689
C5TE C -0.0387(3) 0.2398(3) -0.1800(3)
H4TE H -0.0314 0.2481 -0.1965
C6TE C -0.0938(3) 0.2545(3) -0.1263(3)
C7TE C -0.1091(4) 0.2785(4) -0.1290(4)
C7BD C -0.1290(4) 0.2785(4) -0.1091(4)
H5TE H -0.1061 0.2927 -0.1426
O1TE O -0.10605(18) 0.2387(2) -0.10605(18)
C6BD C -0.1263(3) 0.2545(3) -0.0938(3)
C3BD C -0.1434(3) 0.2411(3) -0.0718(3)
C2BD C -0.1342(3) 0.2137(3) -0.0623(2)
C1BD C -0.1504(3) 0.2016(3) -0.0413(3)
N1BD N -0.1728(2) 0.2150(2) -0.02928(17)
N1FB N -0.2150(2) 0.1728(2) 0.02928(17)
C1FB C -0.2016(3) 0.1504(3) 0.0413(3)
H1FB H -0.1833 0.1458 0.0350
C2FB C -0.2137(3) 0.1342(3) 0.0623(2)
H2FB H -0.2046 0.1182 0.0699
C3FB C -0.2411(3) 0.1434(3) 0.0718(3)
C4FB C -0.2549(3) 0.1645(3) 0.0593(3)
H3FB H -0.2738 0.1689 0.0640
C5FB C -0.2398(3) 0.1800(3) 0.0387(3)
H4FB H -0.2481 0.1965 0.0314
C6FB C -0.2545(3) 0.1263(3) 0.0938(3)
C7FB C -0.2785(4) 0.1290(4) 0.1091(4)
C7E C -0.2785(4) 0.1091(4) 0.1290(4)
H5FB H -0.2927 0.1426 0.1061
O1FB O -0.2387(2) 0.10605(18) 0.10605(18)
C6E C -0.2545(3) 0.0938(3) 0.1263(3)
C3E C -0.2411(3) 0.0718(3) 0.1434(3)
C2E C -0.2137(3) 0.0623(2) 0.1342(3)
C1E C -0.2016(3) 0.0413(3) 0.1504(3)
N1E N -0.2150(2) 0.02928(17) 0.1728(2)
N1OE N -0.1728(2) -0.02928(17) 0.2150(2)
C1OE C -0.1504(3) -0.0413(3) 0.2016(3)
H1OE H -0.1458 -0.0350 0.1833
C2OE C -0.1342(3) -0.0623(2) 0.2137(3)
H2OE H -0.1182 -0.0699 0.2046
C3OE C -0.1434(3) -0.0718(3) 0.2411(3)
C4OE C -0.1645(3) -0.0593(3) 0.2549(3)
H3OE H -0.1689 -0.0640 0.2738
C5OE C -0.1800(3) -0.0387(3) 0.2398(3)
H4OE H -0.1965 -0.0314 0.2481
C6OE C -0.1263(3) -0.0938(3) 0.2545(3)
C7OE C -0.1290(4) -0.1091(4) 0.2785(4)
C7TC C -0.1091(4) -0.1290(4) 0.2785(4)
H5OE H -0.1426 -0.1061 0.2927
O1OE O -0.10605(18) -0.10605(18) 0.2387(2)
C6TC C -0.0938(3) -0.1263(3) 0.2545(3)
C3TC C -0.0718(3) -0.1434(3) 0.2411(3)
C2TC C -0.0623(2) -0.1342(3) 0.2137(3)
C1TC C -0.0413(3) -0.1504(3) 0.2016(3)
N1TC N -0.02928(17) -0.1728(2) 0.2150(2)
N1BB N 0.02928(17) -0.2150(2) 0.1728(2)
C1BB C 0.0413(3) -0.2016(3) 0.1504(3)
H1BB H 0.0350 -0.1833 0.1458
C2BB C 0.0623(2) -0.2137(3) 0.1342(3)
H2BB H 0.0699 -0.2046 0.1182
C3BB C 0.0718(3) -0.2411(3) 0.1434(3)
C4BB C 0.0593(3) -0.2549(3) 0.1645(3)
H3BB H 0.0640 -0.2738 0.1689
C5BB C 0.0387(3) -0.2398(3) 0.1800(3)
H4BB H 0.0314 -0.2481 0.1965
C6BB C 0.0938(3) -0.2545(3) 0.1263(3)
C7BB C 0.1091(4) -0.2785(4) 0.1290(4)
C7J C 0.1290(4) -0.2785(4) 0.1091(4)
H5BB H 0.1061 -0.2927 0.1426
O1BB O 0.10605(18) -0.2387(2) 0.10605(18)
C6J C 0.1263(3) -0.2545(3) 0.0938(3)
C3J C 0.1434(3) -0.2411(3) 0.0718(3)
C2J C 0.1342(3) -0.2137(3) 0.0623(2)
C1J C 0.1504(3) -0.2016(3) 0.0413(3)
N1J N 0.1728(2) -0.2150(2) 0.02928(17)
N1XE N 0.2150(2) -0.1728(2) -0.02928(17)
C1XE C 0.2016(3) -0.1504(3) -0.0413(3)
H1XE H 0.1833 -0.1458 -0.0350
C2XE C 0.2137(3) -0.1342(3) -0.0623(2)
H2XE H 0.2046 -0.1182 -0.0699
C3XE C 0.2411(3) -0.1434(3) -0.0718(3)
C4XE C 0.2549(3) -0.1645(3) -0.0593(3)
H3XE H 0.2738 -0.1689 -0.0640
C5XE C 0.2398(3) -0.1800(3) -0.0387(3)
H4XE H 0.2481 -0.1965 -0.0314
C6XE C 0.2545(3) -0.1263(3) -0.0938(3)
C7XE C 0.2785(4) -0.1290(4) -0.1091(4)
C7WC C 0.2785(4) -0.1091(4) -0.1290(4)
H5XE H 0.2927 -0.1426 -0.1061
O1XE O 0.2387(2) -0.10605(18) -0.10605(18)
C6WC C 0.2545(3) -0.0938(3) -0.1263(3)
C3WC C 0.2411(3) -0.0718(3) -0.1434(3)
C2WC C 0.2137(3) -0.0623(2) -0.1342(3)
C1WC C 0.2016(3) -0.0413(3) -0.1504(3)
N1WC N 0.2150(2) -0.02928(17) -0.1728(2)
C5WC C 0.2398(3) -0.0387(3) -0.1800(3)
C4WC C 0.2549(3) -0.0593(3) -0.1645(3)
H3WC H 0.2738 -0.0640 -0.1689
H4WC H 0.2481 -0.0314 -0.1965
H1WC H 0.1833 -0.0350 -0.1458
H2WC H 0.2046 -0.0699 -0.1182
H5WC H 0.2927 -0.1061 -0.1426
C5J C 0.1800(3) -0.2398(3) 0.0387(3)
C4J C 0.1645(3) -0.2549(3) 0.0593(3)
H3J H 0.1689 -0.2738 0.0640
H4J H 0.1965 -0.2481 0.0314
H1J H 0.1458 -0.1833 0.0350
H2J H 0.1182 -0.2046 0.0699
H5J H 0.1426 -0.2927 0.1061
C5TC C -0.0387(3) -0.1800(3) 0.2398(3)
C4TC C -0.0593(3) -0.1645(3) 0.2549(3)
H3TC H -0.0640 -0.1689 0.2738
H4TC H -0.0314 -0.1965 0.2481
H1TC H -0.0350 -0.1458 0.1833
H2TC H -0.0699 -0.1182 0.2046
H5TC H -0.1061 -0.1426 0.2927
C5E C -0.2398(3) 0.0387(3) 0.1800(3)
C4E C -0.2549(3) 0.0593(3) 0.1645(3)
H3E H -0.2738 0.0640 0.1689
H4E H -0.2481 0.0314 0.1965
H1E H -0.1833 0.0350 0.1458
H2E H -0.2046 0.0699 0.1182
H5E H -0.2927 0.1061 0.1426
C5BD C -0.1800(3) 0.2398(3) -0.0387(3)
C4BD C -0.1645(3) 0.2549(3) -0.0593(3)
H3BD H -0.1689 0.2738 -0.0640
H4BD H -0.1965 0.2481 -0.0314
H1BD H -0.1458 0.1833 -0.0350
H2BD H -0.1182 0.2046 -0.0699
H5BD H -0.1426 0.2927 -0.1061
C5B C 0.0387(3) 0.1800(3) -0.2398(3)
C4B C 0.0593(3) 0.1645(3) -0.2549(3)
H3B H 0.0640 0.1689 -0.2738
H4B H 0.0314 0.1965 -0.2481
H1B H 0.0350 0.1458 -0.1833
H2B H 0.0699 0.1182 -0.2046
H5B H 0.1061 0.1426 -0.2927
C5NE C 0.1800(3) -0.0387(3) -0.2398(3)
C4NE C 0.1645(3) -0.0593(3) -0.2549(3)
H3NE H 0.1689 -0.0640 -0.2738
H4NE H 0.1965 -0.0314 -0.2481
H1NE H 0.1458 -0.0350 -0.1833
H2NE H 0.1182 -0.0699 -0.2046
H5NE H 0.1426 -0.1061 -0.2927
C5VC C -0.0387(3) -0.2398(3) -0.1800(3)
C4VC C -0.0593(3) -0.2549(3) -0.1645(3)
H3VC H -0.0640 -0.2738 -0.1689
H4VC H -0.0314 -0.2481 -0.1965
H1VC H -0.0350 -0.1833 -0.1458
H2VC H -0.0699 -0.2046 -0.1182
O1VC O -0.10605(18) -0.2387(2) -0.10605(18)
H5VC H -0.1061 -0.2927 -0.1426
H5YE H -0.1426 -0.2927 -0.1061
C5WE C -0.2398(3) -0.1800(3) 0.0387(3)
C4WE C -0.2549(3) -0.1645(3) 0.0593(3)
H3WE H -0.2738 -0.1689 0.0640
H4WE H -0.2481 -0.1965 0.0314
H1WE H -0.1833 -0.1458 0.0350
H2WE H -0.2046 -0.1182 0.0699
H5WE H -0.2927 -0.1426 0.1061
C5VA C -0.1800(3) 0.0387(3) 0.2398(3)
C4VA C -0.1645(3) 0.0593(3) 0.2549(3)
H3VA H -0.1689 0.0640 0.2738
H4VA H -0.1965 0.0314 0.2481
H1VA H -0.1458 0.0350 0.1833
H2VA H -0.1182 0.0699 0.2046
H5VA H -0.1426 0.1061 0.2927
C5D C 0.0387(3) 0.2398(3) 0.1800(3)
C4D C 0.0593(3) 0.2549(3) 0.1645(3)
H3D H 0.0640 0.2738 0.1689
H4D H 0.0314 0.2481 0.1965
H1D H 0.0350 0.1833 0.1458
H2D H 0.0699 0.2046 0.1182
O1D O 0.10605(18) 0.2387(2) 0.10605(18)
H5D H 0.1061 0.2927 0.1426
H5GB H 0.1426 0.2927 0.1061
C5K C 0.1800(3) 0.2398(3) -0.0387(3)
C4K C 0.1645(3) 0.2549(3) -0.0593(3)
H3K H 0.1689 0.2738 -0.0640
H4K H 0.1965 0.2481 -0.0314
H1K H 0.1458 0.1833 -0.0350
H2K H 0.1182 0.2046 -0.0699
H5K H 0.1426 0.2927 -0.1061
C5UC C -0.0387(3) 0.1800(3) -0.2398(3)
C4UC C -0.0593(3) 0.1645(3) -0.2549(3)
H3UC H -0.0640 0.1689 -0.2738
H4UC H -0.0314 0.1965 -0.2481
H1UC H -0.0350 0.1458 -0.1833
H2UC H -0.0699 0.1182 -0.2046
O1UC O -0.10605(18) 0.10605(18) -0.2387(2)
H5UC H -0.1061 0.1426 -0.2927
H5PE H -0.1426 0.1061 -0.2927
C5UE C -0.2398(3) -0.0387(3) -0.1800(3)
C4UE C -0.2549(3) -0.0593(3) -0.1645(3)
H3UE H -0.2738 -0.0640 -0.1689
H4UE H -0.2481 -0.0314 -0.1965
H1UE H -0.1833 -0.0350 -0.1458
H2UE H -0.2046 -0.0699 -0.1182
O1UE O -0.2387(2) -0.10605(18) -0.10605(18)
H5UE H -0.2927 -0.1061 -0.1426
H5ZC H -0.2927 -0.1426 -0.1061
C5CD C -0.1800(3) -0.2398(3) 0.0387(3)
C4CD C -0.1645(3) -0.2549(3) 0.0593(3)
H3CD H -0.1689 -0.2738 0.0640
H4CD H -0.1965 -0.2481 0.0314
H1CD H -0.1458 -0.1833 0.0350
H2CD H -0.1182 -0.2046 0.0699
H5CD H -0.1426 -0.2927 0.1061
C5C C 0.0387(3) -0.1800(3) 0.2398(3)
C4C C 0.0593(3) -0.1645(3) 0.2549(3)
H3C H 0.0640 -0.1689 0.2738
H4C H 0.0314 -0.1965 0.2481
H1C H 0.0350 -0.1458 0.1833
H2C H 0.0699 -0.1182 0.2046
O1C O 0.10605(18) -0.10605(18) 0.2387(2)
H5C H 0.1061 -0.1426 0.2927
H5XA H 0.1426 -0.1061 0.2927
C5F C 0.2398(3) -0.0387(3) 0.1800(3)
C4F C 0.2549(3) -0.0593(3) 0.1645(3)
H3F H 0.2738 -0.0640 0.1689
H4F H 0.2481 -0.0314 0.1965
H1F H 0.1833 -0.0350 0.1458
H2F H 0.2046 -0.0699 0.1182
O1F O 0.2387(2) -0.10605(18) 0.10605(18)
H5F H 0.2927 -0.1061 0.1426
H5DB H 0.2927 -0.1426 0.1061
C5AD C 0.1800(3) -0.2398(3) -0.0387(3)
C4AD C 0.1645(3) -0.2549(3) -0.0593(3)
H3AD H 0.1689 -0.2738 -0.0640
H4AD H 0.1965 -0.2481 -0.0314
H1AD H 0.1458 -0.1833 -0.0350
H2AD H 0.1182 -0.2046 -0.0699
O1AD O 0.10605(18) -0.2387(2) -0.10605(18)
H5AD H 0.1426 -0.2927 -0.1061
H5SE H 0.1061 -0.2927 -0.1426
C5QE C -0.0387(3) -0.1800(3) -0.2398(3)
C4QE C -0.0593(3) -0.1645(3) -0.2549(3)
H3QE H -0.0640 -0.1689 -0.2738
H4QE H -0.0314 -0.1965 -0.2481
H1QE H -0.0350 -0.1458 -0.1833
H2QE H -0.0699 -0.1182 -0.2046
O1QE O -0.10605(18) -0.10605(18) -0.2387(2)
H5QE H -0.1061 -0.1426 -0.2927
H5RC H -0.1426 -0.1061 -0.2927
C5XC C -0.2398(3) 0.0387(3) -0.1800(3)
C4XC C -0.2549(3) 0.0593(3) -0.1645(3)
H3XC H -0.2738 0.0640 -0.1689
H4XC H -0.2481 0.0314 -0.1965
H1XC H -0.1833 0.0350 -0.1458
H2XC H -0.2046 0.0699 -0.1182
O1XC O -0.2387(2) 0.10605(18) -0.10605(18)
H5XC H -0.2927 0.1061 -0.1426
H5VE H -0.2927 0.1426 -0.1061
C5I C -0.1800(3) 0.2398(3) 0.0387(3)
C4I C -0.1645(3) 0.2549(3) 0.0593(3)
H3I H -0.1689 0.2738 0.0640
H4I H -0.1965 0.2481 0.0314
H1I H -0.1458 0.1833 0.0350
H2I H -0.1182 0.2046 0.0699
O1I O -0.10605(18) 0.2387(2) 0.10605(18)
H5I H -0.1426 0.2927 0.1061
H5AB H -0.1061 0.2927 0.1426
C5YA C 0.0387(3) 0.1800(3) 0.2398(3)
C4YA C 0.0593(3) 0.1645(3) 0.2549(3)
H3YA H 0.0640 0.1689 0.2738
H4YA H 0.0314 0.1965 0.2481
H1YA H 0.0350 0.1458 0.1833
H2YA H 0.0699 0.1182 0.2046
H5YA H 0.1061 0.1426 0.2927
loop_
_geom_bond_atom_site_label_1
_geom_bond_atom_site_label_2
_geom_bond_site_symmetry_1
_geom_bond_site_symmetry_2
Pd1 N1 1_555 1_555
N1 C1 1_555 1_555
C1 H1 1_555 1_555
C2 C1 1_555 1_555
H2 C2 1_555 1_555
C3 C2 1_555 1_555
C4 C3 1_555 1_555
H3 C4 1_555 1_555
C5 N1 1_555 1_555
H4 C5 1_555 1_555
C6 C3 1_555 1_555
C7 C6 1_555 1_555
H5 C7 1_555 1_555
O1 C6 1_555 1_555
N3 O4 1_555 1_555
O4 O5 1_555 1_555
O5 N3 1_555 1_555
C7YA C7 1_555 1_555
C6YA O1 1_555 1_555
C3YA C6YA 1_555 1_555
C2YA C3YA 1_555 1_555
C1YA C2YA 1_555 1_555
N1YA C1YA 1_555 1_555
Pd1YA N1YA 1_555 1_555
N1AB Pd1YA 1_555 1_555
C1AB N1AB 1_555 1_555
H1AB C1AB 1_555 1_555
C2AB C1AB 1_555 1_555
H2AB C2AB 1_555 1_555
C3AB C2AB 1_555 1_555
C4AB C3AB 1_555 1_555
H3AB C4AB 1_555 1_555
C5AB N1AB 1_555 1_555
H4AB C5AB 1_555 1_555
C6AB C3AB 1_555 1_555
C7AB C6AB 1_555 1_555
C7I C7AB 1_555 1_555
C6I C7I 1_555 1_555
C3I C6I 1_555 1_555
C2I C3I 1_555 1_555
C1I C2I 1_555 1_555
N1I C1I 1_555 1_555
Pd1I N1I 1_555 1_555
N1VE Pd1I 1_555 1_555
C1VE N1VE 1_555 1_555
H1VE C1VE 1_555 1_555
C2VE C1VE 1_555 1_555
H2VE C2VE 1_555 1_555
C3VE C2VE 1_555 1_555
C4VE C3VE 1_555 1_555
H3VE C4VE 1_555 1_555
C5VE N1VE 1_555 1_555
H4VE C5VE 1_555 1_555
C6VE C3VE 1_555 1_555
C7VE C6VE 1_555 1_555
C7XC C7VE 1_555 1_555
C6XC C7XC 1_555 1_555
C3XC C6XC 1_555 1_555
C2XC C3XC 1_555 1_555
C1XC C2XC 1_555 1_555
N1XC C1XC 1_555 1_555
Pd1XC N1XC 1_555 1_555
N1RC Pd1XC 1_555 1_555
C1RC N1RC 1_555 1_555
H1RC C1RC 1_555 1_555
C2RC C1RC 1_555 1_555
H2RC C2RC 1_555 1_555
C3RC C2RC 1_555 1_555
C4RC C3RC 1_555 1_555
H3RC C4RC 1_555 1_555
C5RC N1RC 1_555 1_555
H4RC C5RC 1_555 1_555
C6RC C3RC 1_555 1_555
C7RC C6RC 1_555 1_555
C7QE C7RC 1_555 1_555
C6QE C7QE 1_555 1_555
C3QE C6QE 1_555 1_555
C2QE C3QE 1_555 1_555
C1QE C2QE 1_555 1_555
N1QE C1QE 1_555 1_555
Pd1QE N1QE 1_555 1_555
N1SE Pd1QE 1_555 1_555
C1SE N1SE 1_555 1_555
H1SE C1SE 1_555 1_555
C2SE C1SE 1_555 1_555
H2SE C2SE 1_555 1_555
C3SE C2SE 1_555 1_555
C4SE C3SE 1_555 1_555
H3SE C4SE 1_555 1_555
C5SE N1SE 1_555 1_555
H4SE C5SE 1_555 1_555
C6SE C3SE 1_555 1_555
C7SE C6SE 1_555 1_555
C7AD C7SE 1_555 1_555
C6AD C7AD 1_555 1_555
C3AD C6AD 1_555 1_555
C2AD C3AD 1_555 1_555
C1AD C2AD 1_555 1_555
N1AD C1AD 1_555 1_555
Pd1AD N1AD 1_555 1_555
N1DB Pd1AD 1_555 1_555
C1DB N1DB 1_555 1_555
H1DB C1DB 1_555 1_555
C2DB C1DB 1_555 1_555
H2DB C2DB 1_555 1_555
C3DB C2DB 1_555 1_555
C4DB C3DB 1_555 1_555
H3DB C4DB 1_555 1_555
C5DB N1DB 1_555 1_555
H4DB C5DB 1_555 1_555
C6DB C3DB 1_555 1_555
C7DB C6DB 1_555 1_555
C7F C7DB 1_555 1_555
C6F C7F 1_555 1_555
C3F C6F 1_555 1_555
C2F C3F 1_555 1_555
C1F C2F 1_555 1_555
N1F Pd1 1_555 1_555
N1XA Pd1 1_555 1_555
C1XA N1XA 1_555 1_555
H1XA C1XA 1_555 1_555
C2XA C1XA 1_555 1_555
H2XA C2XA 1_555 1_555
C3XA C2XA 1_555 1_555
C4XA C3XA 1_555 1_555
H3XA C4XA 1_555 1_555
C5XA N1XA 1_555 1_555
H4XA C5XA 1_555 1_555
C6XA C3XA 1_555 1_555
C7XA C6XA 1_555 1_555
C7C C7XA 1_555 1_555
C6C C7C 1_555 1_555
C3C C6C 1_555 1_555
C2C C3C 1_555 1_555
C1C C2C 1_555 1_555
N1C C1C 1_555 1_555
Pd1C N1C 1_555 1_555
N1RE Pd1C 1_555 1_555
C1RE N1RE 1_555 1_555
H1RE C1RE 1_555 1_555
C2RE C1RE 1_555 1_555
H2RE C2RE 1_555 1_555
C3RE C2RE 1_555 1_555
C4RE C3RE 1_555 1_555
H3RE C4RE 1_555 1_555
C5RE N1RE 1_555 1_555
H4RE C5RE 1_555 1_555
C6RE C3RE 1_555 1_555
C7RE C6RE 1_555 1_555
C7CD C7RE 1_555 1_555
H5RE C7RE 1_555 1_555
O1RE C6RE 1_555 1_555
C6CD C7CD 1_555 1_555
C3CD C6CD 1_555 1_555
C2CD C3CD 1_555 1_555
C1CD C2CD 1_555 1_555
N1CD C1CD 1_555 1_555
Pd1CD N1CD 1_555 1_555
N1ZC Pd1CD 1_555 1_555
C1ZC N1ZC 1_555 1_555
H1ZC C1ZC 1_555 1_555
C2ZC C1ZC 1_555 1_555
H2ZC C2ZC 1_555 1_555
C3ZC C2ZC 1_555 1_555
C4ZC C3ZC 1_555 1_555
H3ZC C4ZC 1_555 1_555
C5ZC N1ZC 1_555 1_555
H4ZC C5ZC 1_555 1_555
C6ZC C3ZC 1_555 1_555
C7ZC C6ZC 1_555 1_555
C7UE C7ZC 1_555 1_555
C6UE C7UE 1_555 1_555
C3UE C6UE 1_555 1_555
C2UE C3UE 1_555 1_555
C1UE C2UE 1_555 1_555
N1UE Pd1XC 1_555 1_555
N1PE Pd1XC 1_555 1_555
C1PE N1PE 1_555 1_555
H1PE C1PE 1_555 1_555
C2PE C1PE 1_555 1_555
H2PE C2PE 1_555 1_555
C3PE C2PE 1_555 1_555
C4PE C3PE 1_555 1_555
H3PE C4PE 1_555 1_555
C5PE N1PE 1_555 1_555
H4PE C5PE 1_555 1_555
C6PE C3PE 1_555 1_555
C7PE C6PE 1_555 1_555
C7UC C7PE 1_555 1_555
C6UC C7UC 1_555 1_555
C3UC C6UC 1_555 1_555
C2UC C3UC 1_555 1_555
C1UC C2UC 1_555 1_555
N1UC C1UC 1_555 1_555
Pd1UC N1UC 1_555 1_555
N1ZA Pd1UC 1_555 1_555
C1ZA N1ZA 1_555 1_555
H1ZA C1ZA 1_555 1_555
C2ZA C1ZA 1_555 1_555
H2ZA C2ZA 1_555 1_555
C3ZA C2ZA 1_555 1_555
C4ZA C3ZA 1_555 1_555
H3ZA C4ZA 1_555 1_555
C5ZA N1ZA 1_555 1_555
H4ZA C5ZA 1_555 1_555
C6ZA C3ZA 1_555 1_555
C7ZA C6ZA 1_555 1_555
C7K C7ZA 1_555 1_555
H5ZA C7ZA 1_555 1_555
O1ZA C6ZA 1_555 1_555
C6K C7K 1_555 1_555
C3K C6K 1_555 1_555
C2K C3K 1_555 1_555
C1K C2K 1_555 1_555
N1K C1K 1_555 1_555
Pd1K N1K 1_555 1_555
N1H Pd1K 1_555 1_555
C1H N1H 1_555 1_555
H1H C1H 1_555 1_555
C2H C1H 1_555 1_555
H2H C2H 1_555 1_555
C3H C2H 1_555 1_555
C4H C3H 1_555 1_555
H3H C4H 1_555 1_555
C5H N1H 1_555 1_555
H4H C5H 1_555 1_555
C6H C3H 1_555 1_555
C7H C6H 1_555 1_555
C7CB C7H 1_555 1_555
C6CB C7CB 1_555 1_555
C3CB C6CB 1_555 1_555
C2CB C3CB 1_555 1_555
C1CB C2CB 1_555 1_555
N1CB Pd1 1_555 1_555
C5CB N1CB 1_555 1_555
C4CB C3CB 1_555 1_555
H3CB C4CB 1_555 1_555
H4CB C5CB 1_555 1_555
H1CB C1CB 1_555 1_555
H2CB C2CB 1_555 1_555
O1CB C6H 1_555 1_555
H5CB C7CB 1_555 1_555
H5H C7H 1_555 1_555
N1GB Pd1K 1_555 1_555
C1GB N1GB 1_555 1_555
H1GB C1GB 1_555 1_555
C2GB C1GB 1_555 1_555
H2GB C2GB 1_555 1_555
C3GB C2GB 1_555 1_555
C4GB C3GB 1_555 1_555
H3GB C4GB 1_555 1_555
C5GB N1GB 1_555 1_555
H4GB C5GB 1_555 1_555
C6GB C3GB 1_555 1_555
C7GB C6GB 1_555 1_555
C7D C7GB 1_555 1_555
C6D C7D 1_555 1_555
C3D C6D 1_555 1_555
C2D C3D 1_555 1_555
C1D C2D 1_555 1_555
N1D Pd1YA 1_555 1_555
N1A Pd1YA 1_555 1_555
C1A N1A 1_555 1_555
H1A C1A 1_555 1_555
C2A C1A 1_555 1_555
H2A C2A 1_555 1_555
C3A C2A 1_555 1_555
C4A C3A 1_555 1_555
H3A C4A 1_555 1_555
C5A N1A 1_555 1_555
H4A C5A 1_555 1_555
C6A C3A 1_555 1_555
C7A C6A 1_555 1_555
C7VA C7A 1_555 1_555
H5A C7A 1_555 1_555
O1A C6A 1_555 1_555
C6VA C7VA 1_555 1_555
C3VA C6VA 1_555 1_555
C2VA C3VA 1_555 1_555
C1VA C2VA 1_555 1_555
N1VA C1VA 1_555 1_555
Pd1VA N1VA 1_555 1_555
N1YC Pd1VA 1_555 1_555
C1YC N1YC 1_555 1_555
H1YC C1YC 1_555 1_555
C2YC C1YC 1_555 1_555
H2YC C2YC 1_555 1_555
C3YC C2YC 1_555 1_555
C4YC C3YC 1_555 1_555
H3YC C4YC 1_555 1_555
C5YC N1YC 1_555 1_555
H4YC C5YC 1_555 1_555
C6YC C3YC 1_555 1_555
C7YC C6YC 1_555 1_555
C7WE C7YC 1_555 1_555
H5YC C7YC 1_555 1_555
O1YC C6YC 1_555 1_555
C6WE C7WE 1_555 1_555
C3WE C6WE 1_555 1_555
C2WE C3WE 1_555 1_555
C1WE C2WE 1_555 1_555
N1WE Pd1CD 1_555 1_555
N1YE Pd1CD 1_555 1_555
C1YE N1YE 1_555 1_555
H1YE C1YE 1_555 1_555
C2YE C1YE 1_555 1_555
H2YE C2YE 1_555 1_555
C3YE C2YE 1_555 1_555
C4YE C3YE 1_555 1_555
H3YE C4YE 1_555 1_555
C5YE N1YE 1_555 1_555
H4YE C5YE 1_555 1_555
C6YE C3YE 1_555 1_555
C7YE C6YE 1_555 1_555
C7VC C7YE 1_555 1_555
C6VC C7VC 1_555 1_555
C3VC C6VC 1_555 1_555
C2VC C3VC 1_555 1_555
C1VC C2VC 1_555 1_555
N1VC Pd1QE 1_555 1_555
N1SC Pd1QE 1_555 1_555
C1SC N1SC 1_555 1_555
H1SC C1SC 1_555 1_555
C2SC C1SC 1_555 1_555
H2SC C2SC 1_555 1_555
C3SC C2SC 1_555 1_555
C4SC C3SC 1_555 1_555
H3SC C4SC 1_555 1_555
C5SC N1SC 1_555 1_555
H4SC C5SC 1_555 1_555
C6SC C3SC 1_555 1_555
C7SC C6SC 1_555 1_555
C7NE C7SC 1_555 1_555
H5SC C7SC 1_555 1_555
O1SC C6SC 1_555 1_555
C6NE C7NE 1_555 1_555
C3NE C6NE 1_555 1_555
C2NE C3NE 1_555 1_555
C1NE C2NE 1_555 1_555
N1NE C1NE 1_555 1_555
Pd1NE N1NE 1_555 1_555
N1G Pd1NE 1_555 1_555
C1G N1G 1_555 1_555
H1G C1G 1_555 1_555
C2G C1G 1_555 1_555
H2G C2G 1_555 1_555
C3G C2G 1_555 1_555
C4G C3G 1_555 1_555
H3G C4G 1_555 1_555
C5G N1G 1_555 1_555
H4G C5G 1_555 1_555
C6G C3G 1_555 1_555
C7G C6G 1_555 1_555
C7EB C7G 1_555 1_555
H5G C7G 1_555 1_555
O1G C6G 1_555 1_555
C6EB C7EB 1_555 1_555
C3EB C6EB 1_555 1_555
C2EB C3EB 1_555 1_555
C1EB C2EB 1_555 1_555
N1EB Pd1K 1_555 1_555
C5EB N1EB 1_555 1_555
C4EB C3EB 1_555 1_555
H3EB C4EB 1_555 1_555
H4EB C5EB 1_555 1_555
H1EB C1EB 1_555 1_555
H2EB C2EB 1_555 1_555
H5EB C7EB 1_555 1_555
N1WA Pd1NE 1_555 1_555
C1WA N1WA 1_555 1_555
H1WA C1WA 1_555 1_555
C2WA C1WA 1_555 1_555
H2WA C2WA 1_555 1_555
C3WA C2WA 1_555 1_555
C4WA C3WA 1_555 1_555
H3WA C4WA 1_555 1_555
C5WA N1WA 1_555 1_555
H4WA C5WA 1_555 1_555
C6WA C3WA 1_555 1_555
C7WA C6WA 1_555 1_555
C7B C7WA 1_555 1_555
H5WA C7WA 1_555 1_555
O1WA C6WA 1_555 1_555
C6B C7B 1_555 1_555
C3B C6B 1_555 1_555
C2B C3B 1_555 1_555
C1B C2B 1_555 1_555
N1B Pd1UC 1_555 1_555
N1TE Pd1UC 1_555 1_555
C1TE N1TE 1_555 1_555
H1TE C1TE 1_555 1_555
C2TE C1TE 1_555 1_555
H2TE C2TE 1_555 1_555
C3TE C2TE 1_555 1_555
C4TE C3TE 1_555 1_555
H3TE C4TE 1_555 1_555
C5TE N1TE 1_555 1_555
H4TE C5TE 1_555 1_555
C6TE C3TE 1_555 1_555
C7TE C6TE 1_555 1_555
C7BD C7TE 1_555 1_555
H5TE C7TE 1_555 1_555
O1TE C6TE 1_555 1_555
C6BD C7BD 1_555 1_555
C3BD C6BD 1_555 1_555
C2BD C3BD 1_555 1_555
C1BD C2BD 1_555 1_555
N1BD Pd1I 1_555 1_555
N1FB Pd1I 1_555 1_555
C1FB N1FB 1_555 1_555
H1FB C1FB 1_555 1_555
C2FB C1FB 1_555 1_555
H2FB C2FB 1_555 1_555
C3FB C2FB 1_555 1_555
C4FB C3FB 1_555 1_555
H3FB C4FB 1_555 1_555
C5FB N1FB 1_555 1_555
H4FB C5FB 1_555 1_555
C6FB C3FB 1_555 1_555
C7FB C6FB 1_555 1_555
C7E C7FB 1_555 1_555
H5FB C7FB 1_555 1_555
O1FB C6FB 1_555 1_555
C6E C7E 1_555 1_555
C3E C6E 1_555 1_555
C2E C3E 1_555 1_555
C1E C2E 1_555 1_555
N1E Pd1VA 1_555 1_555
N1OE Pd1VA 1_555 1_555
C1OE N1OE 1_555 1_555
H1OE C1OE 1_555 1_555
C2OE C1OE 1_555 1_555
H2OE C2OE 1_555 1_555
C3OE C2OE 1_555 1_555
C4OE C3OE 1_555 1_555
H3OE C4OE 1_555 1_555
C5OE N1OE 1_555 1_555
H4OE C5OE 1_555 1_555
C6OE C3OE 1_555 1_555
C7OE C6OE 1_555 1_555
C7TC C7OE 1_555 1_555
H5OE C7OE 1_555 1_555
O1OE C6OE 1_555 1_555
C6TC C7TC 1_555 1_555
C3TC C6TC 1_555 1_555
C2TC C3TC 1_555 1_555
C1TC C2TC 1_555 1_555
N1TC Pd1C 1_555 1_555
N1BB Pd1C 1_555 1_555
C1BB N1BB 1_555 1_555
H1BB C1BB 1_555 1_555
C2BB C1BB 1_555 1_555
H2BB C2BB 1_555 1_555
C3BB C2BB 1_555 1_555
C4BB C3BB 1_555 1_555
H3BB C4BB 1_555 1_555
C5BB N1BB 1_555 1_555
H4BB C5BB 1_555 1_555
C6BB C3BB 1_555 1_555
C7BB C6BB 1_555 1_555
C7J C7BB 1_555 1_555
H5BB C7BB 1_555 1_555
O1BB C6BB 1_555 1_555
C6J C7J 1_555 1_555
C3J C6J 1_555 1_555
C2J C3J 1_555 1_555
C1J C2J 1_555 1_555
N1J Pd1AD 1_555 1_555
N1XE Pd1AD 1_555 1_555
C1XE N1XE 1_555 1_555
H1XE C1XE 1_555 1_555
C2XE C1XE 1_555 1_555
H2XE C2XE 1_555 1_555
C3XE C2XE 1_555 1_555
C4XE C3XE 1_555 1_555
H3XE C4XE 1_555 1_555
C5XE N1XE 1_555 1_555
H4XE C5XE 1_555 1_555
C6XE C3XE 1_555 1_555
C7XE C6XE 1_555 1_555
C7WC C7XE 1_555 1_555
H5XE C7XE 1_555 1_555
O1XE C6XE 1_555 1_555
C6WC C7WC 1_555 1_555
C3WC C6WC 1_555 1_555
C2WC C3WC 1_555 1_555
C1WC C2WC 1_555 1_555
N1WC Pd1NE 1_555 1_555
C5WC N1WC 1_555 1_555
C4WC C3WC 1_555 1_555
H3WC C4WC 1_555 1_555
H4WC C5WC 1_555 1_555
H1WC C1WC 1_555 1_555
H2WC C2WC 1_555 1_555
H5WC C7WC 1_555 1_555
C5J N1J 1_555 1_555
C4J C3J 1_555 1_555
H3J C4J 1_555 1_555
H4J C5J 1_555 1_555
H1J C1J 1_555 1_555
H2J C2J 1_555 1_555
H5J C7J 1_555 1_555
C5TC N1TC 1_555 1_555
C4TC C3TC 1_555 1_555
H3TC C4TC 1_555 1_555
H4TC C5TC 1_555 1_555
H1TC C1TC 1_555 1_555
H2TC C2TC 1_555 1_555
H5TC C7TC 1_555 1_555
C5E N1E 1_555 1_555
C4E C3E 1_555 1_555
H3E C4E 1_555 1_555
H4E C5E 1_555 1_555
H1E C1E 1_555 1_555
H2E C2E 1_555 1_555
H5E C7E 1_555 1_555
C5BD N1BD 1_555 1_555
C4BD C3BD 1_555 1_555
H3BD C4BD 1_555 1_555
H4BD C5BD 1_555 1_555
H1BD C1BD 1_555 1_555
H2BD C2BD 1_555 1_555
H5BD C7BD 1_555 1_555
C5B N1B 1_555 1_555
C4B C3B 1_555 1_555
H3B C4B 1_555 1_555
H4B C5B 1_555 1_555
H1B C1B 1_555 1_555
H2B C2B 1_555 1_555
H5B C7B 1_555 1_555
C5NE N1NE 1_555 1_555
C4NE C3NE 1_555 1_555
H3NE C4NE 1_555 1_555
H4NE C5NE 1_555 1_555
H1NE C1NE 1_555 1_555
H2NE C2NE 1_555 1_555
H5NE C7NE 1_555 1_555
C5VC N1VC 1_555 1_555
C4VC C3VC 1_555 1_555
H3VC C4VC 1_555 1_555
H4VC C5VC 1_555 1_555
H1VC C1VC 1_555 1_555
H2VC C2VC 1_555 1_555
O1VC C6YE 1_555 1_555
H5VC C7VC 1_555 1_555
H5YE C7YE 1_555 1_555
C5WE N1WE 1_555 1_555
C4WE C3WE 1_555 1_555
H3WE C4WE 1_555 1_555
H4WE C5WE 1_555 1_555
H1WE C1WE 1_555 1_555
H2WE C2WE 1_555 1_555
H5WE C7WE 1_555 1_555
C5VA N1VA 1_555 1_555
C4VA C3VA 1_555 1_555
H3VA C4VA 1_555 1_555
H4VA C5VA 1_555 1_555
H1VA C1VA 1_555 1_555
H2VA C2VA 1_555 1_555
H5VA C7VA 1_555 1_555
C5D N1D 1_555 1_555
C4D C3D 1_555 1_555
H3D C4D 1_555 1_555
H4D C5D 1_555 1_555
H1D C1D 1_555 1_555
H2D C2D 1_555 1_555
O1D C6GB 1_555 1_555
H5D C7D 1_555 1_555
H5GB C7GB 1_555 1_555
C5K N1K 1_555 1_555
C4K C3K 1_555 1_555
H3K C4K 1_555 1_555
H4K C5K 1_555 1_555
H1K C1K 1_555 1_555
H2K C2K 1_555 1_555
H5K C7K 1_555 1_555
C5UC N1UC 1_555 1_555
C4UC C3UC 1_555 1_555
H3UC C4UC 1_555 1_555
H4UC C5UC 1_555 1_555
H1UC C1UC 1_555 1_555
H2UC C2UC 1_555 1_555
O1UC C6PE 1_555 1_555
H5UC C7UC 1_555 1_555
H5PE C7PE 1_555 1_555
C5UE N1UE 1_555 1_555
C4UE C3UE 1_555 1_555
H3UE C4UE 1_555 1_555
H4UE C5UE 1_555 1_555
H1UE C1UE 1_555 1_555
H2UE C2UE 1_555 1_555
O1UE C6ZC 1_555 1_555
H5UE C7UE 1_555 1_555
H5ZC C7ZC 1_555 1_555
C5CD N1CD 1_555 1_555
C4CD C3CD 1_555 1_555
H3CD C4CD 1_555 1_555
H4CD C5CD 1_555 1_555
H1CD C1CD 1_555 1_555
H2CD C2CD 1_555 1_555
H5CD C7CD 1_555 1_555
C5C N1C 1_555 1_555
C4C C3C 1_555 1_555
H3C C4C 1_555 1_555
H4C C5C 1_555 1_555
H1C C1C 1_555 1_555
H2C C2C 1_555 1_555
O1C C6XA 1_555 1_555
H5C C7C 1_555 1_555
H5XA C7XA 1_555 1_555
C5F N1F 1_555 1_555
C4F C3F 1_555 1_555
H3F C4F 1_555 1_555
H4F C5F 1_555 1_555
H1F C1F 1_555 1_555
H2F C2F 1_555 1_555
O1F C6DB 1_555 1_555
H5F C7F 1_555 1_555
H5DB C7DB 1_555 1_555
C5AD N1AD 1_555 1_555
C4AD C3AD 1_555 1_555
H3AD C4AD 1_555 1_555
H4AD C5AD 1_555 1_555
H1AD C1AD 1_555 1_555
H2AD C2AD 1_555 1_555
O1AD C6SE 1_555 1_555
H5AD C7AD 1_555 1_555
H5SE C7SE 1_555 1_555
C5QE N1QE 1_555 1_555
C4QE C3QE 1_555 1_555
H3QE C4QE 1_555 1_555
H4QE C5QE 1_555 1_555
H1QE C1QE 1_555 1_555
H2QE C2QE 1_555 1_555
O1QE C6RC 1_555 1_555
H5QE C7QE 1_555 1_555
H5RC C7RC 1_555 1_555
C5XC N1XC 1_555 1_555
C4XC C3XC 1_555 1_555
H3XC C4XC 1_555 1_555
H4XC C5XC 1_555 1_555
H1XC C1XC 1_555 1_555
H2XC C2XC 1_555 1_555
O1XC C6VE 1_555 1_555
H5XC C7XC 1_555 1_555
H5VE C7VE 1_555 1_555
C5I N1I 1_555 1_555
C4I C3I 1_555 1_555
H3I C4I 1_555 1_555
H4I C5I 1_555 1_555
H1I C1I 1_555 1_555
H2I C2I 1_555 1_555
O1I C6AB 1_555 1_555
H5I C7I 1_555 1_555
H5AB C7AB 1_555 1_555
C5YA N1YA 1_555 1_555
C4YA C3YA 1_555 1_555
H3YA C4YA 1_555 1_555
H4YA C5YA 1_555 1_555
H1YA C1YA 1_555 1_555
H2YA C2YA 1_555 1_555
H5YA C7YA 1_555 1_555
O4PD N3 1_555 1_555
O5PD N3 1_555 1_555
C4 C5 1_555 1_555
O4 O5PD 1_555 1_555
O5 O4PD 1_555 1_555
C7YA C6YA 1_555 1_555
C4AB C5AB 1_555 1_555
C6I O1I 1_555 1_555
C4VE C5VE 1_555 1_555
C6XC O1XC 1_555 1_555
C4RC C5RC 1_555 1_555
C6QE O1QE 1_555 1_555
C4SE C5SE 1_555 1_555
C6AD O1AD 1_555 1_555
C4DB C5DB 1_555 1_555
C6F O1F 1_555 1_555
C1F N1F 1_555 1_555
C4XA C5XA 1_555 1_555
C6C O1C 1_555 1_555
C4RE C5RE 1_555 1_555
O1RE C6CD 1_555 1_555
C4ZC C5ZC 1_555 1_555
C6UE O1UE 1_555 1_555
C1UE N1UE 1_555 1_555
C4PE C5PE 1_555 1_555
C6UC O1UC 1_555 1_555
C4ZA C5ZA 1_555 1_555
O1ZA C6K 1_555 1_555
C4H C5H 1_555 1_555
C6CB O1CB 1_555 1_555
C1CB N1CB 1_555 1_555
C5CB C4CB 1_555 1_555
C4GB C5GB 1_555 1_555
C6D O1D 1_555 1_555
C1D N1D 1_555 1_555
C4A C5A 1_555 1_555
O1A C6VA 1_555 1_555
C4YC C5YC 1_555 1_555
O1YC C6WE 1_555 1_555
C1WE N1WE 1_555 1_555
C4YE C5YE 1_555 1_555
C6VC O1VC 1_555 1_555
C1VC N1VC 1_555 1_555
C4SC C5SC 1_555 1_555
O1SC C6NE 1_555 1_555
C4G C5G 1_555 1_555
O1G C6EB 1_555 1_555
C1EB N1EB 1_555 1_555
C5EB C4EB 1_555 1_555
C4WA C5WA 1_555 1_555
O1WA C6B 1_555 1_555
C1B N1B 1_555 1_555
C4TE C5TE 1_555 1_555
O1TE C6BD 1_555 1_555
C1BD N1BD 1_555 1_555
C4FB C5FB 1_555 1_555
O1FB C6E 1_555 1_555
C1E N1E 1_555 1_555
C4OE C5OE 1_555 1_555
O1OE C6TC 1_555 1_555
C1TC N1TC 1_555 1_555
C4BB C5BB 1_555 1_555
O1BB C6J 1_555 1_555
C1J N1J 1_555 1_555
C4XE C5XE 1_555 1_555
O1XE C6WC 1_555 1_555
C1WC N1WC 1_555 1_555
C5WC C4WC 1_555 1_555
C5J C4J 1_555 1_555
C5TC C4TC 1_555 1_555
C5E C4E 1_555 1_555
C5BD C4BD 1_555 1_555
C5B C4B 1_555 1_555
C5NE C4NE 1_555 1_555
C5VC C4VC 1_555 1_555
C5WE C4WE 1_555 1_555
C5VA C4VA 1_555 1_555
C5D C4D 1_555 1_555
C5K C4K 1_555 1_555
C5UC C4UC 1_555 1_555
C5UE C4UE 1_555 1_555
C5CD C4CD 1_555 1_555
C5C C4C 1_555 1_555
C5F C4F 1_555 1_555
C5AD C4AD 1_555 1_555
C5QE C4QE 1_555 1_555
C5XC C4XC 1_555 1_555
C5I C4I 1_555 1_555
C5YA C4YA 1_555 1_555
O4PD O5PD 1_555 1_555

#END
