
#######################################################################
#
#                 Cambridge Crystallographic Data Centre
#                                CCDC 
#
#######################################################################
#
# If this CIF has been generated from an entry in the Cambridge 
# Structural Database, then it will include bibliographic, chemical, 
# crystal, experimental, refinement or atomic coordinate data resulting 
# from the CCDC's data processing and validation procedures.
#
#######################################################################

data_BIXFEU
_chemical_formula_moiety         'C40 H48 Cl4 N4 Pd2 Si4,2(C2 H6 O1)'
_chemical_name_systematic        
"bis(\m~2~-1,4-bis(Dimethyl(4-pyridyl)silyl)benzene-N,N')-tetrachloro-di-palladium(ii) ethanol solvate"
_symmetry_cell_setting           triclinic
_symmetry_space_group_name_H-M   'P -1'
_symmetry_Int_Tables_number      2
_space_group_name_Hall           '-P 1'
loop_
_symmetry_equiv_pos_site_id
_symmetry_equiv_pos_as_xyz
1 x,y,z
2 -x,-y,-z
_cell_length_a                   8.4631(5)
_cell_length_b                   12.2210(8)
_cell_length_c                   13.8289(9)
_cell_angle_alpha                83.1640(10)
_cell_angle_beta                 72.7310(10)
_cell_angle_gamma                82.3300(10)
_cell_volume                     1348.82
_exptl_crystal_colour            'pale yellow'
_exptl_crystal_description       plate
_cell_formula_units_Z            1
loop_
_atom_site_label
_atom_site_type_symbol
_atom_site_fract_x
_atom_site_fract_y
_atom_site_fract_z
Pd1 Pd 0.00127(5) 0.15280(3) 0.49066(3)
Cl1 Cl 0.23539(16) 0.06130(11) 0.38750(10)
Cl2 Cl -0.22515(17) 0.25607(12) 0.58832(11)
Si1 Si 0.32604(18) 0.14977(11) 0.87748(11)
Si2 Si 0.38258(19) 0.68380(12) 0.86867(12)
N1 N 0.1078(5) 0.1352(4) 0.6057(3)
N2 N -0.1065(5) 0.1808(3) 0.3772(3)
C1 C 0.2599(7) 0.1656(5) 0.5898(4)
H1 H 0.3230 0.1867 0.5225
C2 C 0.3287(7) 0.1670(5) 0.6703(4)
H2 H 0.4371 0.1892 0.6566
C3 C 0.2406(7) 0.1365(4) 0.7691(4)
C4 C 0.0862(7) 0.1004(4) 0.7808(4)
H3 H 0.0215 0.0758 0.8466
C5 C 0.0249(7) 0.0997(4) 0.6987(4)
H4 H -0.0798 0.0728 0.7095
C6 C 0.3409(6) 0.3004(4) 0.8812(4)
C7 C 0.4716(8) 0.3502(5) 0.8113(5)
H5 H 0.5529 0.3071 0.7636
C8 C 0.4844(8) 0.4650(5) 0.8108(5)
H6 H 0.5750 0.4974 0.7626
C9 C 0.3684(6) 0.5311(4) 0.8787(4)
C10 C 0.2413(7) 0.4800(4) 0.9489(4)
H7 H 0.1614 0.5222 0.9980
C11 C 0.2280(7) 0.3648(4) 0.9489(4)
H8 H 0.1380 0.3323 0.9975
C12 C 0.2711(6) 0.7452(4) 0.7710(4)
C13 C 0.1180(7) 0.7142(5) 0.7768(4)
H9 H 0.0659 0.6650 0.8322
C14 C -0.0387(7) 0.2467(5) 0.2964(4)
H10 H 0.0687 0.2679 0.2885
C15 C -0.2548(7) 0.1473(4) 0.3852(4)
H11 H -0.3043 0.0991 0.4422
C16 C 0.3376(7) 0.8186(4) 0.6879(4)
H12 H 0.4408 0.8456 0.6812
C17 C 0.5354(7) 0.0719(5) 0.8523(5)
H13 H 0.5821 0.0779 0.9082
H14 H 0.6080 0.1029 0.7885
H15 H 0.5268 -0.0062 0.8470
C18 C 0.1799(7) 0.0964(4) 0.9979(4)
H16 H 0.2234 0.1031 1.0550
H17 H 0.1684 0.0184 0.9942
H18 H 0.0710 0.1397 1.0080
C19 C 0.6017(7) 0.7140(5) 0.8230(5)
H19 H 0.6596 0.6820 0.8732
H20 H 0.6063 0.7944 0.8132
H21 H 0.6557 0.6815 0.7582
C20 C 0.2727(8) 0.7397(4) 0.9933(4)
H22 H 0.3302 0.7078 1.0437
H23 H 0.1580 0.7203 1.0156
H24 H 0.2721 0.8205 0.9863
Pd1A Pd -0.00127(5) 0.84720(3) 0.50934(3)
Cl1A Cl -0.23539(16) 0.93870(11) 0.61250(10)
Cl2A Cl 0.22515(17) 0.74393(12) 0.41168(11)
Si1A Si -0.32604(18) 0.85023(11) 0.12252(11)
Si2A Si -0.38258(19) 0.31620(12) 0.13133(12)
N1A N -0.1078(5) 0.8648(4) 0.3943(3)
N2A N 0.1065(5) 0.8192(3) 0.6228(3)
C1A C -0.2599(7) 0.8344(5) 0.4102(4)
H1A H -0.3230 0.8133 0.4775
C2A C -0.3287(7) 0.8330(5) 0.3297(4)
H2A H -0.4371 0.8108 0.3434
C3A C -0.2406(7) 0.8635(4) 0.2309(4)
C4A C -0.0862(7) 0.8996(4) 0.2192(4)
H3A H -0.0215 0.9242 0.1534
C5A C -0.0249(7) 0.9003(4) 0.3013(4)
H4A H 0.0798 0.9272 0.2905
C6A C -0.3409(6) 0.6996(4) 0.1188(4)
C7A C -0.4716(8) 0.6498(5) 0.1887(5)
H5A H -0.5529 0.6929 0.2364
C8A C -0.4844(8) 0.5350(5) 0.1892(5)
H6A H -0.5750 0.5026 0.2374
C9A C -0.3684(6) 0.4689(4) 0.1213(4)
C10A C -0.2413(7) 0.5200(4) 0.0511(4)
H7A H -0.1614 0.4778 0.0020
C11A C -0.2280(7) 0.6352(4) 0.0511(4)
H8A H -0.1380 0.6677 0.0025
C12A C -0.2711(6) 0.2548(4) 0.2290(4)
C13A C -0.1180(7) 0.2858(5) 0.2232(4)
H9A H -0.0659 0.3350 0.1678
C14A C 0.0387(7) 0.7533(5) 0.7036(4)
H10A H -0.0687 0.7321 0.7115
C15A C 0.2548(7) 0.8527(4) 0.6148(4)
H11A H 0.3043 0.9009 0.5578
C16A C -0.3376(7) 0.1814(4) 0.3121(4)
H12A H -0.4408 0.1544 0.3188
C17A C -0.5354(7) 0.9281(5) 0.1477(5)
H13A H -0.5821 0.9221 0.0918
H14A H -0.6080 0.8971 0.2115
H15A H -0.5268 1.0062 0.1530
C18A C -0.1799(7) 0.9036(4) 0.0021(4)
H16A H -0.2234 0.8969 -0.0550
H17A H -0.1684 0.9816 0.0058
H18A H -0.0710 0.8603 -0.0080
C19A C -0.6017(7) 0.2860(5) 0.1770(5)
H19A H -0.6596 0.3180 0.1268
H20A H -0.6063 0.2056 0.1868
H21A H -0.6557 0.3185 0.2418
C20A C -0.2727(8) 0.2603(4) 0.0067(4)
H22A H -0.3302 0.2922 -0.0437
H23A H -0.1580 0.2797 -0.0156
H24A H -0.2721 0.1795 0.0137
O2 O 0.024(4) 0.539(3) 0.303(2)
C23 C -0.105(4) 0.537(3) 0.407(2)
C24 C -0.102(10) 0.538(8) 0.512(3)
loop_
_geom_bond_atom_site_label_1
_geom_bond_atom_site_label_2
_geom_bond_site_symmetry_1
_geom_bond_site_symmetry_2
Pd1 Cl1 1_555 1_555
Cl2 Pd1 1_555 1_555
Si1 C3 1_555 1_555
Si2 C9 1_555 1_555
N1 Pd1 1_555 1_555
N2 Pd1 1_555 1_555
C1 N1 1_555 1_555
H1 C1 1_555 1_555
C2 C1 1_555 1_555
H2 C2 1_555 1_555
C3 C2 1_555 1_555
C4 C3 1_555 1_555
H3 C4 1_555 1_555
C5 N1 1_555 1_555
H4 C5 1_555 1_555
C6 Si1 1_555 1_555
C7 C6 1_555 1_555
H5 C7 1_555 1_555
C8 C7 1_555 1_555
H6 C8 1_555 1_555
C9 C8 1_555 1_555
C10 C9 1_555 1_555
H7 C10 1_555 1_555
C11 C6 1_555 1_555
H8 C11 1_555 1_555
C12 Si2 1_555 1_555
C13 C12 1_555 1_555
H9 C13 1_555 1_555
C14 N2 1_555 1_555
H10 C14 1_555 1_555
C15 N2 1_555 1_555
H11 C15 1_555 1_555
C16 C12 1_555 1_555
H12 C16 1_555 1_555
C17 Si1 1_555 1_555
H13 C17 1_555 1_555
H14 C17 1_555 1_555
H15 C17 1_555 1_555
C18 Si1 1_555 1_555
H16 C18 1_555 1_555
H17 C18 1_555 1_555
H18 C18 1_555 1_555
C19 Si2 1_555 1_555
H19 C19 1_555 1_555
H20 C19 1_555 1_555
H21 C19 1_555 1_555
C20 Si2 1_555 1_555
H22 C20 1_555 1_555
H23 C20 1_555 1_555
H24 C20 1_555 1_555
O2 C23 1_555 1_555
C23 C24 1_555 1_555
Pd1A Cl1A 1_555 1_555
Cl2A Pd1A 1_555 1_555
Si1A C3A 1_555 1_555
Si2A C9A 1_555 1_555
N1A Pd1A 1_555 1_555
N2A Pd1A 1_555 1_555
C1A N1A 1_555 1_555
H1A C1A 1_555 1_555
C2A C1A 1_555 1_555
H2A C2A 1_555 1_555
C3A C2A 1_555 1_555
C4A C3A 1_555 1_555
H3A C4A 1_555 1_555
C5A N1A 1_555 1_555
H4A C5A 1_555 1_555
C6A Si1A 1_555 1_555
C7A C6A 1_555 1_555
H5A C7A 1_555 1_555
C8A C7A 1_555 1_555
H6A C8A 1_555 1_555
C9A C8A 1_555 1_555
C10A C9A 1_555 1_555
H7A C10A 1_555 1_555
C11A C6A 1_555 1_555
H8A C11A 1_555 1_555
C12A Si2A 1_555 1_555
C13A C14 1_555 1_555
H9A C13A 1_555 1_555
C14A C13 1_555 1_555
H10A C14A 1_555 1_555
C15A C16 1_555 1_555
H11A C15A 1_555 1_555
C16A C15 1_555 1_555
H12A C16A 1_555 1_555
C17A Si1A 1_555 1_555
H13A C17A 1_555 1_555
H14A C17A 1_555 1_555
H15A C17A 1_555 1_555
C18A Si1A 1_555 1_555
H16A C18A 1_555 1_555
H17A C18A 1_555 1_555
H18A C18A 1_555 1_555
C19A Si2A 1_555 1_555
H19A C19A 1_555 1_555
H20A C19A 1_555 1_555
H21A C19A 1_555 1_555
C20A Si2A 1_555 1_555
H22A C20A 1_555 1_555
H23A C20A 1_555 1_555
H24A C20A 1_555 1_555
C4 C5 1_555 1_555
C10 C11 1_555 1_555
N2A C14A 1_555 1_555
N2A C15A 1_555 1_555
C4A C5A 1_555 1_555
C10A C11A 1_555 1_555
C12A C13A 1_555 1_555
C12A C16A 1_555 1_555

#END
