
#######################################################################
#
#                 Cambridge Crystallographic Data Centre
#                                CCDC 
#
#######################################################################
#
# If this CIF has been generated from an entry in the Cambridge 
# Structural Database, then it will include bibliographic, chemical, 
# crystal, experimental, refinement or atomic coordinate data resulting 
# from the CCDC's data processing and validation procedures.
#
#######################################################################

data_BIXFIY
_chemical_formula_moiety         'C40 H48 Cl4 N4 Pd2 Si4'
_chemical_name_systematic        
bis(\m~2~-1,4-bis(Dimethyl(3-pyridyl)silyl)benzene-N,N')-tetrachloro-di-palladium(ii)
_symmetry_cell_setting           triclinic
_symmetry_space_group_name_H-M   'P -1'
_symmetry_Int_Tables_number      2
_space_group_name_Hall           '-P 1'
loop_
_symmetry_equiv_pos_site_id
_symmetry_equiv_pos_as_xyz
1 x,y,z
2 -x,-y,-z
_cell_length_a                   8.5122(6)
_cell_length_b                   10.8590(7)
_cell_length_c                   13.3190(9)
_cell_angle_alpha                78.3530(10)
_cell_angle_beta                 81.9930(10)
_cell_angle_gamma                78.2840(10)
_cell_volume                     1174.44
_exptl_crystal_colour            yellow
_exptl_crystal_description       block
_cell_formula_units_Z            1
loop_
_atom_site_label
_atom_site_type_symbol
_atom_site_fract_x
_atom_site_fract_y
_atom_site_fract_z
Pd1 Pd 1.36868(3) 0.18970(3) 0.43136(2)
Cl1 Cl 1.58284(11) 0.07091(9) 0.34716(8)
Cl2 Cl 1.15060(12) 0.31140(10) 0.50939(11)
Si1 Si 0.94362(13) 0.18892(10) 0.12787(8)
Si2 Si 0.40224(14) 0.69387(10) 0.21750(9)
N1 N 1.2178(3) 0.1067(3) 0.3750(3)
N2 N 1.5179(3) 0.2722(3) 0.4905(2)
C1 C 1.1879(4) -0.0068(3) 0.4247(3)
H1 H 1.2416 -0.0473 0.4839
C2 C 1.0804(4) -0.0675(3) 0.3924(3)
H2 H 1.0608 -0.1485 0.4287
C3 C 1.0026(4) -0.0080(3) 0.3065(3)
H3 H 0.9268 -0.0475 0.2845
C4 C 1.0343(4) 0.1099(3) 0.2517(3)
C5 C 1.1439(4) 0.1629(3) 0.2908(3)
H4 H 1.1674 0.2434 0.2557
C6 C 0.7920(5) 0.3362(3) 0.1457(3)
C7 C 0.8339(5) 0.4404(4) 0.1759(3)
H5 H 0.9434 0.4378 0.1848
C8 C 0.7202(5) 0.5474(4) 0.1934(3)
H6 H 0.7538 0.6160 0.2140
C9 C 0.5565(5) 0.5565(4) 0.1812(3)
C10 C 0.5160(5) 0.4541(4) 0.1492(3)
H7 H 0.4070 0.4575 0.1385
C11 C 0.6295(5) 0.3468(4) 0.1321(3)
H8 H 0.5958 0.2789 0.1107
C12 C 0.3922(4) 0.6782(3) 0.3615(3)
C13 C 0.2893(4) 0.6065(3) 0.4283(3)
H9 H 0.2238 0.5627 0.4009
C14 C 0.2811(4) 0.5982(3) 0.5342(3)
H10 H 0.2099 0.5502 0.5796
C15 C 1.6216(4) 0.3390(3) 0.4283(3)
H11 H 1.6277 0.3429 0.3560
C16 C 1.5130(4) 0.2633(3) 0.5929(3)
H12 H 1.4408 0.2144 0.6363
C17 C 0.8426(5) 0.0718(4) 0.0891(3)
H13 H 0.7944 0.1102 0.0248
H14 H 0.7581 0.0483 0.1433
H15 H 0.9222 -0.0048 0.0787
C18 C 1.1120(5) 0.2351(4) 0.0320(3)
H16 H 1.0698 0.2764 -0.0337
H17 H 1.1918 0.1585 0.0221
H18 H 1.1630 0.2946 0.0572
C19 C 0.2014(5) 0.6810(4) 0.1837(4)
H19 H 0.1743 0.5981 0.2178
H20 H 0.2052 0.6884 0.1089
H21 H 0.1192 0.7497 0.2067
C20 C 0.4631(6) 0.8496(4) 0.1547(3)
H22 H 0.5690 0.8524 0.1742
H23 H 0.3833 0.9199 0.1773
H24 H 0.4689 0.8581 0.0797
Pd1A Pd 0.63132(3) 0.81030(3) 0.56864(2)
Cl1A Cl 0.41716(11) 0.92909(9) 0.65284(8)
Cl2A Cl 0.84940(12) 0.68860(10) 0.49061(11)
Si1A Si 1.05638(13) 0.81108(10) 0.87213(8)
Si2A Si 1.59776(14) 0.30613(10) 0.78250(9)
N1A N 0.7822(3) 0.8933(3) 0.6250(3)
N2A N 0.4821(3) 0.7278(3) 0.5095(2)
C1A C 0.8121(4) 1.0068(3) 0.5753(3)
H1A H 0.7584 1.0473 0.5161
C2A C 0.9196(4) 1.0675(3) 0.6076(3)
H2A H 0.9392 1.1485 0.5713
C3A C 0.9974(4) 1.0080(3) 0.6935(3)
H3A H 1.0732 1.0475 0.7155
C4A C 0.9657(4) 0.8901(3) 0.7483(3)
C5A C 0.8561(4) 0.8371(3) 0.7092(3)
H4A H 0.8326 0.7566 0.7443
C6A C 1.2080(5) 0.6638(3) 0.8543(3)
C7A C 1.1661(5) 0.5596(4) 0.8241(3)
H5A H 1.0566 0.5622 0.8152
C8A C 1.2798(5) 0.4526(4) 0.8066(3)
H6A H 1.2462 0.3840 0.7860
C9A C 1.4435(5) 0.4435(4) 0.8188(3)
C10A C 1.4840(5) 0.5459(4) 0.8508(3)
H7A H 1.5930 0.5425 0.8615
C11A C 1.3705(5) 0.6532(4) 0.8679(3)
H8A H 1.4042 0.7211 0.8893
C12A C 1.6078(4) 0.3218(3) 0.6385(3)
C13A C 1.7107(4) 0.3935(3) 0.5717(3)
H9A H 1.7762 0.4373 0.5991
C14A C 1.7189(4) 0.4018(3) 0.4658(3)
H10A H 1.7901 0.4498 0.4204
C15A C 0.3784(4) 0.6610(3) 0.5717(3)
H11A H 0.3723 0.6571 0.6440
C16A C 0.4870(4) 0.7367(3) 0.4071(3)
H12A H 0.5592 0.7856 0.3637
C17A C 1.1574(5) 0.9282(4) 0.9109(3)
H13A H 1.2056 0.8898 0.9752
H14A H 1.2419 0.9517 0.8567
H15A H 1.0778 1.0048 0.9213
C18A C 0.8880(5) 0.7649(4) 0.9680(3)
H16A H 0.9302 0.7236 1.0337
H17A H 0.8082 0.8415 0.9779
H18A H 0.8370 0.7054 0.9428
C19A C 1.7986(5) 0.3190(4) 0.8163(4)
H19A H 1.8257 0.4019 0.7822
H20A H 1.7948 0.3116 0.8911
H21A H 1.8808 0.2503 0.7933
C20A C 1.5369(6) 0.1504(4) 0.8453(3)
H22A H 1.4310 0.1476 0.8258
H23A H 1.6167 0.0801 0.8227
H24A H 1.5311 0.1419 0.9203
loop_
_geom_bond_atom_site_label_1
_geom_bond_atom_site_label_2
_geom_bond_site_symmetry_1
_geom_bond_site_symmetry_2
Pd1 Cl1 1_555 1_555
Cl2 Pd1 1_555 1_555
Si1 C4 1_555 1_555
Si2 C9 1_555 1_555
N1 Pd1 1_555 1_555
N2 Pd1 1_555 1_555
C1 N1 1_555 1_555
H1 C1 1_555 1_555
C2 C1 1_555 1_555
H2 C2 1_555 1_555
C3 C2 1_555 1_555
H3 C3 1_555 1_555
C4 C3 1_555 1_555
C5 N1 1_555 1_555
H4 C5 1_555 1_555
C6 Si1 1_555 1_555
C7 C6 1_555 1_555
H5 C7 1_555 1_555
C8 C7 1_555 1_555
H6 C8 1_555 1_555
C9 C8 1_555 1_555
C10 C9 1_555 1_555
H7 C10 1_555 1_555
C11 C6 1_555 1_555
H8 C11 1_555 1_555
C12 Si2 1_555 1_555
C13 C12 1_555 1_555
H9 C13 1_555 1_555
C14 C13 1_555 1_555
H10 C14 1_555 1_555
C15 N2 1_555 1_555
H11 C15 1_555 1_555
C16 N2 1_555 1_555
H12 C16 1_555 1_555
C17 Si1 1_555 1_555
H13 C17 1_555 1_555
H14 C17 1_555 1_555
H15 C17 1_555 1_555
C18 Si1 1_555 1_555
H16 C18 1_555 1_555
H17 C18 1_555 1_555
H18 C18 1_555 1_555
C19 Si2 1_555 1_555
H19 C19 1_555 1_555
H20 C19 1_555 1_555
H21 C19 1_555 1_555
C20 Si2 1_555 1_555
H22 C20 1_555 1_555
H23 C20 1_555 1_555
H24 C20 1_555 1_555
Pd1A Cl1A 1_555 1_555
Cl2A Pd1A 1_555 1_555
Si1A C4A 1_555 1_555
Si2A C9A 1_555 1_555
N1A Pd1A 1_555 1_555
N2A Pd1A 1_555 1_555
C1A N1A 1_555 1_555
H1A C1A 1_555 1_555
C2A C1A 1_555 1_555
H2A C2A 1_555 1_555
C3A C2A 1_555 1_555
H3A C3A 1_555 1_555
C4A C3A 1_555 1_555
C5A N1A 1_555 1_555
H4A C5A 1_555 1_555
C6A Si1A 1_555 1_555
C7A C6A 1_555 1_555
H5A C7A 1_555 1_555
C8A C7A 1_555 1_555
H6A C8A 1_555 1_555
C9A C8A 1_555 1_555
C10A C9A 1_555 1_555
H7A C10A 1_555 1_555
C11A C6A 1_555 1_555
H8A C11A 1_555 1_555
C12A C16 1_555 1_555
C13A C12A 1_555 1_555
H9A C13A 1_555 1_555
C14A C15 1_555 1_555
H10A C14A 1_555 1_555
C15A C14 1_555 1_555
H11A C15A 1_555 1_555
C16A C12 1_555 1_555
H12A C16A 1_555 1_555
C17A Si1A 1_555 1_555
H13A C17A 1_555 1_555
H14A C17A 1_555 1_555
H15A C17A 1_555 1_555
C18A Si1A 1_555 1_555
H16A C18A 1_555 1_555
H17A C18A 1_555 1_555
H18A C18A 1_555 1_555
C19A Si2A 1_555 1_555
H19A C19A 1_555 1_555
H20A C19A 1_555 1_555
H21A C19A 1_555 1_555
C20A Si2A 1_555 1_555
H22A C20A 1_555 1_555
H23A C20A 1_555 1_555
H24A C20A 1_555 1_555
C4 C5 1_555 1_555
C10 C11 1_555 1_555
Si2A C12A 1_555 1_555
N2A C15A 1_555 1_555
N2A C16A 1_555 1_555
C4A C5A 1_555 1_555
C10A C11A 1_555 1_555
C13A C14A 1_555 1_555

#END
