
#######################################################################
#
#                 Cambridge Crystallographic Data Centre
#                                CCDC 
#
#######################################################################
#
# If this CIF has been generated from an entry in the Cambridge 
# Structural Database, then it will include bibliographic, chemical, 
# crystal, experimental, refinement or atomic coordinate data resulting 
# from the CCDC's data processing and validation procedures.
#
#######################################################################

data_BIZFEX
_chemical_formula_moiety         
'C336 H264 Cd4 N72 Ru4 16+,0.5(H12 Cd1 O6 2+),11(C1 H3 N1 O2),3(H2 O1),17(Cl1 O4 1-)'
_chemical_name_systematic        
"dodecakis(\m-2,2'-(naphthalene-1,5-diylbis(methylene-1H-pyrazole-1,3-diyl))dipyridine)-tetra-cadmium-tetra-ruthenium hemikis(hexa-aqua-cadmium) heptadecakis(perchlorate) nitromethane solvate trihydrate unknown solvate"
_symmetry_cell_setting           monoclinic
_symmetry_space_group_name_H-M   'P 21/c'
_symmetry_Int_Tables_number      14
_space_group_name_Hall           '-P 2ybc'
loop_
_symmetry_equiv_pos_site_id
_symmetry_equiv_pos_as_xyz
1 x,y,z
2 -x,1/2+y,1/2-z
3 -x,-y,-z
4 x,1/2-y,1/2+z
_cell_length_a                   23.0027(14)
_cell_length_b                   40.888(2)
_cell_length_c                   50.529(3)
_cell_angle_alpha                90
_cell_angle_beta                 100.989(3)
_cell_angle_gamma                90
_cell_volume                     46652.8
_exptl_crystal_colour            yellow
_exptl_crystal_description       block
_cell_formula_units_Z            4
loop_
_atom_site_label
_atom_site_type_symbol
_atom_site_fract_x
_atom_site_fract_y
_atom_site_fract_z
Cd1 Cd 1.00694(5) 0.48131(3) 0.36669(2)
Cd2 Cd 0.43253(5) 0.27412(3) 0.26924(2)
Cd3 Cd 1.03721(5) 0.13013(3) 0.22922(2)
Cd4 Cd 0.87658(6) 0.14446(3) 0.52440(2)
Ru1 Ru 0.64367(5) 0.39185(3) 0.46771(2)
Ru2 Ru 0.78686(5) 0.36296(3) 0.16801(2)
Ru3 Ru 1.23953(5) 0.24201(3) 0.42843(2)
Ru4 Ru 0.65019(5) 0.03746(3) 0.32879(2)
N1 N 1.0699(4) 0.52442(19) 0.37302(18)
C1 C 1.0469(3) 0.5528(2) 0.38220(19)
C2 C 1.0811(4) 0.58098(19) 0.38627(19)
H1 H 1.0654 0.6004 0.3925
C3 C 1.1384(4) 0.58083(19) 0.38117(19)
H2 H 1.1618 0.6001 0.3839
C4 C 1.1614(3) 0.5525(2) 0.3720(2)
H3 H 1.2006 0.5524 0.3685
C5 C 1.1271(4) 0.52427(19) 0.36792(18)
H4 H 1.1429 0.5049 0.3617
N2 N 0.9021(3) 0.5258(2) 0.38847(19)
N3 N 0.9586(4) 0.5216(2) 0.38154(18)
C6 C 0.9918(3) 0.5506(2) 0.3888(2)
C7 C 0.9558(4) 0.57269(19) 0.4002(2)
H5 H 0.9669 0.5940 0.4069
C8 C 0.9004(4) 0.5574(2) 0.4000(2)
H6 H 0.8678 0.5666 0.4065
C9 C 0.8591(7) 0.4999(4) 0.3855(3)
H7 H 0.8624 0.4868 0.3694
H8 H 0.8189 0.5097 0.3824
N4 N 0.5921(4) 0.3483(2) 0.46134(19)
C10 C 0.6135(3) 0.3233(2) 0.4472(2)
C11 C 0.5802(4) 0.2951(2) 0.4406(2)
H9 H 0.5948 0.2780 0.4309
C12 C 0.5254(4) 0.2919(2) 0.4482(2)
H10 H 0.5027 0.2726 0.4437
C13 C 0.5040(3) 0.3168(2) 0.4623(2)
H11 H 0.4666 0.3146 0.4675
C14 C 0.5373(4) 0.3451(2) 0.46889(19)
H12 H 0.5227 0.3621 0.4786
N5 N 0.7591(4) 0.3532(2) 0.44761(19)
N6 N 0.7000(4) 0.3563(2) 0.45176(19)
C15 C 0.6696(3) 0.3267(3) 0.4432(2)
C16 C 0.7100(5) 0.3054(2) 0.4338(2)
H13 H 0.7015 0.2839 0.4269
C17 C 0.7653(4) 0.3217(2) 0.4365(2)
H14 H 0.8002 0.3131 0.4318
C18 C 0.7997(7) 0.3787(4) 0.4512(3)
H15 H 0.8400 0.3691 0.4547
H16 H 0.7950 0.3909 0.4675
C19 C 0.8661(3) 0.47772(16) 0.40952(14)
C20 C 0.9108(3) 0.48213(18) 0.43201(16)
H17 H 0.9369 0.5002 0.4328
C21 C 0.9171(3) 0.4600(2) 0.45328(13)
H18 H 0.9476 0.4631 0.4686
C22 C 0.8788(3) 0.43354(19) 0.45206(11)
H19 H 0.8832 0.4184 0.4666
C23 C 0.8342(2) 0.42913(14) 0.42957(10)
C24 C 0.8279(2) 0.45121(14) 0.40830(10)
C25 C 0.7833(3) 0.44680(19) 0.38581(11)
H20 H 0.7789 0.4619 0.3713
C26 C 0.7450(3) 0.4203(2) 0.38459(13)
H21 H 0.7145 0.4173 0.3692
C27 C 0.7513(3) 0.39821(18) 0.40586(16)
H22 H 0.7252 0.3801 0.4050
C28 C 0.7959(3) 0.40263(16) 0.42835(14)
N7 N 0.9760(4) 0.4931(2) 0.32330(13)
C29 C 1.0091(3) 0.4796(2) 0.30570(18)
C30 C 0.9907(4) 0.4834(2) 0.27804(16)
H23 H 1.0133 0.4742 0.2660
C31 C 0.9393(4) 0.5008(2) 0.26798(13)
H24 H 0.9267 0.5034 0.2491
C32 C 0.9062(3) 0.5143(2) 0.28558(17)
H25 H 0.8710 0.5261 0.2787
C33 C 0.9245(4) 0.5104(2) 0.31324(16)
H26 H 0.9019 0.5196 0.3253
N8 N 1.1258(4) 0.4416(2) 0.35190(15)
N9 N 1.0691(4) 0.4564(2) 0.34491(17)
C34 C 1.0578(4) 0.4625(3) 0.31674(17)
C35 C 1.1075(5) 0.4516(3) 0.30631(14)
H27 H 1.1118 0.4527 0.2880
C36 C 1.1496(3) 0.4386(3) 0.32805(19)
H28 H 1.1870 0.4296 0.3268
C37 C 1.1474(7) 0.4273(4) 0.3776(3)
H29 H 1.1367 0.4415 0.3918
H30 H 1.1912 0.4261 0.3805
N10 N 1.2666(4) 0.2120(2) 0.46375(16)
C38 C 1.2365(4) 0.2170(2) 0.4848(2)
C39 C 1.2510(4) 0.1986(3) 0.50827(17)
H31 H 1.2304 0.2020 0.5226
C40 C 1.2957(5) 0.1753(2) 0.51073(16)
H32 H 1.3056 0.1627 0.5268
C41 C 1.3258(4) 0.1703(2) 0.4897(2)
H33 H 1.3563 0.1543 0.4914
C42 C 1.3113(4) 0.1886(2) 0.46621(17)
H34 H 1.3319 0.1852 0.4518
N11 N 1.1290(4) 0.2749(2) 0.45468(17)
N12 N 1.1777(4) 0.2534(2) 0.45494(17)
C43 C 1.1922(4) 0.2391(2) 0.4810(2)
C44 C 1.1525(5) 0.2517(3) 0.49678(15)
H35 H 1.1521 0.2463 0.5150
C45 C 1.1135(4) 0.2738(3) 0.4805(2)
H36 H 1.0824 0.2858 0.4860
C46 C 1.1057(7) 0.2922(4) 0.4311(3)
H37 H 1.0621 0.2935 0.4293
H38 H 1.1140 0.2798 0.4154
C47 C 1.1230(4) 0.39302(16) 0.38033(14)
C48 C 1.0811(4) 0.3804(2) 0.35934(13)
H39 H 1.0697 0.3925 0.3431
C49 C 1.0558(3) 0.3500(2) 0.36205(13)
H40 H 1.0272 0.3413 0.3477
C50 C 1.0724(3) 0.33223(17) 0.38575(15)
H41 H 1.0551 0.3115 0.3876
C51 C 1.1143(3) 0.34489(13) 0.40675(12)
C52 C 1.1396(3) 0.37529(14) 0.40404(12)
C53 C 1.1815(3) 0.38795(17) 0.42503(15)
H42 H 1.1988 0.4087 0.4232
C54 C 1.1981(3) 0.3702(2) 0.44873(13)
H43 H 1.2267 0.3789 0.4631
C55 C 1.1728(4) 0.3398(2) 0.45145(13)
H44 H 1.1842 0.3277 0.4676
C56 C 1.1309(4) 0.32715(16) 0.43045(14)
N13 N 1.0380(4) 0.4613(2) 0.40733(14)
C57 C 1.0140(4) 0.4313(2) 0.41236(16)
C58 C 1.0347(4) 0.4151(2) 0.43652(19)
H45 H 1.0183 0.3945 0.4400
C59 C 1.0793(4) 0.4290(2) 0.45565(15)
H46 H 1.0934 0.4179 0.4722
C60 C 1.1033(4) 0.4590(2) 0.45063(16)
H47 H 1.1338 0.4685 0.4637
C61 C 1.0826(4) 0.47520(19) 0.42647(19)
H48 H 1.0990 0.4957 0.4230
N14 N 0.8990(4) 0.4221(2) 0.35454(14)
N15 N 0.9497(4) 0.4379(2) 0.36963(18)
C62 C 0.9686(4) 0.4197(3) 0.39368(16)
C63 C 0.9296(5) 0.3927(2) 0.39346(17)
H49 H 0.9319 0.3765 0.4071
C64 C 0.8866(4) 0.3942(2) 0.3693(2)
H50 H 0.8551 0.3792 0.3639
C65 C 0.8697(7) 0.4323(4) 0.3283(3)
H51 H 0.8701 0.4565 0.3274
H52 H 0.8279 0.4252 0.3254
N16 N 0.7542(4) 0.3835(2) 0.12882(15)
C66 C 0.7762(4) 0.4143(2) 0.12449(17)
C67 C 0.7541(4) 0.4311(2) 0.1008(2)
H53 H 0.7692 0.4522 0.0979
C68 C 0.7101(4) 0.4171(2) 0.08146(15)
H54 H 0.6950 0.4287 0.0653
C69 C 0.6881(4) 0.3863(2) 0.08579(17)
H55 H 0.6579 0.3768 0.0726
C70 C 0.7101(4) 0.36950(19) 0.10947(19)
H56 H 0.6951 0.3484 0.1124
N17 N 0.8847(4) 0.4242(2) 0.18334(15)
N18 N 0.8379(4) 0.40726(19) 0.16645(19)
C71 C 0.8174(4) 0.4270(3) 0.14346(16)
C72 C 0.8515(5) 0.4562(2) 0.14613(18)
H57 H 0.8472 0.4738 0.1336
C73 C 0.8931(4) 0.4545(2) 0.17078(19)
H58 H 0.9215 0.4707 0.1777
C74 C 0.9092(7) 0.4129(4) 0.2093(3)
H59 H 0.9514 0.4195 0.2134
H60 H 0.9079 0.3887 0.2091
C75 C 0.8981(3) 0.4187(2) 0.30571(10)
C76 C 0.9492(3) 0.3998(2) 0.31167(12)
H61 H 0.9650 0.3940 0.3298
C77 C 0.9770(3) 0.3893(2) 0.29107(15)
H62 H 1.0119 0.3764 0.2951
C78 C 0.9539(3) 0.39771(19) 0.26450(13)
H63 H 0.9729 0.3906 0.2504
C79 C 0.9028(2) 0.41662(14) 0.25854(10)
C80 C 0.8750(2) 0.42711(14) 0.27914(10)
C81 C 0.8239(3) 0.44602(19) 0.27318(13)
H64 H 0.8049 0.4532 0.2873
C82 C 0.8007(3) 0.4544(2) 0.24661(15)
H65 H 0.7659 0.4674 0.2425
C83 C 0.8286(3) 0.4440(2) 0.22601(12)
H66 H 0.8127 0.4497 0.2079
C84 C 0.8796(3) 0.4251(2) 0.23197(10)
N19 N 0.9155(5) 0.1194(3) 0.56369(16)
C85 C 0.8912(4) 0.0891(3) 0.56753(18)
C86 C 0.9125(5) 0.0712(2) 0.5908(2)
H67 H 0.8958 0.0505 0.5934
C87 C 0.9580(5) 0.0838(3) 0.61019(17)
H68 H 0.9726 0.0716 0.6261
C88 C 0.9823(4) 0.1141(3) 0.60635(18)
H69 H 1.0135 0.1227 0.6196
C89 C 0.9610(5) 0.1319(2) 0.5831(2)
H70 H 0.9777 0.1527 0.5805
N20 N 0.7799(5) 0.0813(3) 0.50812(16)
N21 N 0.8273(5) 0.0977(2) 0.5251(2)
C90 C 0.8485(4) 0.0772(3) 0.54750(18)
C91 C 0.8142(6) 0.0480(2) 0.5444(2)
H71 H 0.8189 0.0300 0.5564
C92 C 0.7719(5) 0.0506(3) 0.5200(2)
H72 H 0.7432 0.0346 0.5129
C93 C 0.7515(8) 0.0950(5) 0.4821(3)
H73 H 0.7514 0.1192 0.4833
H74 H 0.7098 0.0876 0.4778
N22 N 0.6132(4) 0.0557(2) 0.28870(14)
C94 C 0.6368(4) 0.0847(2) 0.28117(18)
C95 C 0.6140(5) 0.0988(2) 0.2563(2)
H75 H 0.6301 0.1186 0.2512
C96 C 0.5676(5) 0.0837(3) 0.23894(15)
H76 H 0.5520 0.0932 0.2219
C97 C 0.5440(4) 0.0546(3) 0.24646(18)
H77 H 0.5123 0.0443 0.2346
C98 C 0.5668(4) 0.0406(2) 0.27134(19)
H78 H 0.5507 0.0207 0.2765
N23 N 0.7056(5) 0.0783(2) 0.3221(2)
N24 N 0.7569(4) 0.0945(3) 0.33618(16)
C99 C 0.7659(4) 0.1229(2) 0.3213(2)
H79 H 0.7971 0.1384 0.3261
C100 C 0.7202(5) 0.1243(2) 0.29806(19)
H80 H 0.7154 0.1407 0.2845
C101 C 0.6830(4) 0.0967(3) 0.29856(18)
C102 C 0.7886(8) 0.0841(4) 0.3613(3)
H81 H 0.8301 0.0917 0.3633
H82 H 0.7892 0.0599 0.3616
C103 C 0.7834(4) 0.0846(2) 0.45916(11)
C104 C 0.8335(4) 0.0649(2) 0.46370(13)
H83 H 0.8497 0.0576 0.4814
C105 C 0.8601(4) 0.0558(2) 0.44230(17)
H84 H 0.8944 0.0424 0.4454
C106 C 0.8364(3) 0.0665(2) 0.41634(15)
H85 H 0.8546 0.0603 0.4017
C107 C 0.7863(3) 0.08614(16) 0.41180(11)
C108 C 0.7597(3) 0.09521(16) 0.43320(11)
C109 C 0.7095(3) 0.1149(2) 0.42866(15)
H86 H 0.6914 0.1211 0.4433
C110 C 0.6859(4) 0.1255(2) 0.40271(16)
H87 H 0.6516 0.1390 0.3996
C111 C 0.7124(4) 0.1165(2) 0.38130(13)
H88 H 0.6963 0.1237 0.3636
C112 C 0.7626(4) 0.0968(2) 0.38585(11)
N25 N 0.9778(4) 0.0870(2) 0.22430(19)
C113 C 0.9797(4) 0.0681(3) 0.24730(15)
C114 C 0.9387(4) 0.0432(2) 0.24743(16)
H89 H 0.9399 0.0302 0.2631
C115 C 0.8958(4) 0.0371(2) 0.2246(2)
H90 H 0.8678 0.0201 0.2247
C116 C 0.8940(4) 0.0561(3) 0.20157(16)
H91 H 0.8647 0.0519 0.1859
C117 C 0.9350(4) 0.0810(2) 0.20143(15)
H92 H 0.9337 0.0939 0.1857
N26 N 1.1030(4) 0.1025(2) 0.29207(19)
N27 N 1.0618(4) 0.1011(2) 0.26727(16)
C118 C 1.0241(4) 0.0738(3) 0.26833(18)
C119 C 1.0419(4) 0.0584(2) 0.2938(2)
H93 H 1.0243 0.0396 0.2999
C120 C 1.0907(4) 0.0762(3) 0.30845(15)
H94 H 1.1114 0.0713 0.3261
C121 C 1.1445(7) 0.1264(4) 0.2987(3)
H95 H 1.1594 0.1330 0.2824
H96 H 1.1783 0.1175 0.3119
N28 N 1.2921(4) 0.2846(2) 0.44543(19)
C122 C 1.2924(4) 0.3114(3) 0.42856(14)
C123 C 1.3247(4) 0.3391(2) 0.43794(19)
H97 H 1.3249 0.3575 0.4264
C124 C 1.3568(4) 0.3401(2) 0.4642(2)
H98 H 1.3789 0.3591 0.4706
C125 C 1.3565(4) 0.3133(3) 0.48106(15)
H99 H 1.3785 0.3139 0.4990
C126 C 1.3242(4) 0.2855(2) 0.47168(18)
H100 H 1.3240 0.2672 0.4832
N29 N 1.1842(4) 0.2852(2) 0.37260(18)
N30 N 1.2215(4) 0.2808(2) 0.39818(17)
C127 C 1.2574(4) 0.3091(3) 0.40397(17)
C128 C 1.2424(5) 0.3310(2) 0.3820(2)
H101 H 1.2596 0.3519 0.3805
C129 C 1.1972(4) 0.3163(3) 0.36258(16)
H102 H 1.1788 0.3256 0.3458
C130 C 1.1436(7) 0.2613(4) 0.3606(3)
H103 H 1.1103 0.2724 0.3487
H104 H 1.1272 0.2502 0.3749
C131 C 1.1189(3) 0.15778(17) 0.31143(16)
C132 C 1.0603(3) 0.1569(2) 0.31472(17)
H105 H 1.0357 0.1390 0.3080
C133 C 1.0376(2) 0.1824(2) 0.32790(17)
H106 H 0.9975 0.1818 0.3302
C134 C 1.0735(3) 0.2087(2) 0.33779(16)
H107 H 1.0580 0.2261 0.3468
C135 C 1.1321(2) 0.20955(15) 0.33450(11)
C136 C 1.1548(2) 0.18409(15) 0.32132(11)
C137 C 1.2134(3) 0.1849(2) 0.31803(16)
H108 H 1.2289 0.1675 0.3090
C138 C 1.2494(2) 0.2112(2) 0.32791(17)
H109 H 1.2894 0.2118 0.3257
C139 C 1.2267(3) 0.2367(2) 0.34110(17)
H110 H 1.2512 0.2547 0.3479
C140 C 1.1681(3) 0.23585(17) 0.34439(16)
N31 N 1.3075(4) 0.2210(2) 0.40840(17)
C141 C 1.2946(3) 0.1913(2) 0.39522(19)
C142 C 1.3383(4) 0.17478(19) 0.38497(18)
H111 H 1.3295 0.1545 0.3760
C143 C 1.3949(4) 0.1880(2) 0.38791(19)
H112 H 1.4247 0.1767 0.3809
C144 C 1.4078(3) 0.2177(2) 0.40109(19)
H113 H 1.4464 0.2267 0.4031
C145 C 1.3641(4) 0.23420(19) 0.41134(17)
H114 H 1.3729 0.2545 0.4203
N32 N 1.1441(3) 0.1822(2) 0.40179(18)
N33 N 1.1996(4) 0.19849(19) 0.40655(17)
C146 C 1.2398(3) 0.1795(3) 0.3949(2)
C147 C 1.2092(4) 0.1514(2) 0.3829(2)
H115 H 1.2255 0.1345 0.3737
C148 C 1.1500(4) 0.1531(2) 0.38719(19)
H116 H 1.1197 0.1375 0.3813
C149 C 1.0986(7) 0.1920(4) 0.4141(3)
H117 H 1.0609 0.1847 0.4028
H118 H 1.0980 0.2162 0.4142
N34 N 0.8173(4) 0.1747(2) 0.54376(17)
C150 C 0.8403(3) 0.2050(2) 0.55267(19)
C151 C 0.8053(4) 0.22744(19) 0.56319(19)
H119 H 0.8211 0.2482 0.5693
C152 C 0.7474(4) 0.2195(2) 0.56480(18)
H120 H 0.7235 0.2348 0.5720
C153 C 0.7244(3) 0.1891(2) 0.55589(19)
H121 H 0.6847 0.1837 0.5570
C154 C 0.7593(4) 0.16674(19) 0.54537(18)
H122 H 0.7436 0.1460 0.5393
N35 N 0.9874(4) 0.2002(2) 0.54192(18)
N36 N 0.9278(4) 0.1892(2) 0.53846(17)
C155 C 0.8960(3) 0.2117(3) 0.5518(2)
C156 C 0.9360(5) 0.2365(2) 0.56345(19)
H123 H 0.9266 0.2547 0.5736
C157 C 0.9924(4) 0.2294(2) 0.55736(19)
H124 H 1.0274 0.2420 0.5627
C158 C 1.0289(7) 0.1853(4) 0.5296(3)
H125 H 1.0235 0.1613 0.5302
H126 H 1.0688 0.1904 0.5400
C159 C 1.1003(3) 0.1800(2) 0.44285(12)
C160 C 1.1424(3) 0.1570(2) 0.45395(15)
H127 H 1.1687 0.1482 0.4434
C161 C 1.1458(3) 0.14674(19) 0.48044(16)
H128 H 1.1746 0.1310 0.4880
C162 C 1.1072(3) 0.15956(19) 0.49583(12)
H129 H 1.1095 0.1526 0.5139
C163 C 1.0651(3) 0.18261(14) 0.48473(10)
C164 C 1.0617(3) 0.19284(14) 0.45824(10)
C165 C 1.0196(3) 0.21589(19) 0.44714(12)
H130 H 1.0173 0.2229 0.4290
C166 C 0.9810(3) 0.22871(19) 0.46253(16)
H131 H 0.9522 0.2445 0.4549
C167 C 0.9844(3) 0.2185(2) 0.48902(15)
H132 H 0.9580 0.2272 0.4995
C168 C 1.0265(3) 0.1954(2) 0.50012(12)
N37 N 0.7232(3) 0.39075(19) 0.18593(16)
C169 C 0.7250(3) 0.3861(2) 0.21332(16)
C170 C 0.6868(4) 0.4035(2) 0.22635(13)
H133 H 0.6880 0.4003 0.2451
C171 C 0.6468(4) 0.4255(2) 0.21198(17)
H134 H 0.6206 0.4374 0.2209
C172 C 0.6450(4) 0.4302(2) 0.18459(17)
H135 H 0.6176 0.4453 0.1748
C173 C 0.6832(4) 0.4128(2) 0.17156(13)
H136 H 0.6820 0.4160 0.1528
N38 N 0.8528(3) 0.3354(2) 0.22982(17)
N39 N 0.8097(4) 0.3529(2) 0.21134(13)
C174 C 0.7695(3) 0.3674(2) 0.22604(18)
C175 C 0.7879(4) 0.3589(2) 0.25361(16)
H137 H 0.7691 0.3652 0.2680
C176 C 0.8394(4) 0.3391(2) 0.25595(14)
H138 H 0.8610 0.3299 0.2721
C177 C 0.8997(6) 0.3179(3) 0.2220(3)
H139 H 0.9336 0.3173 0.2373
H140 H 0.9126 0.3299 0.2070
N40 N 1.1126(3) 0.1077(2) 0.21191(18)
C178 C 1.1087(3) 0.1113(2) 0.18427(18)
C179 C 1.1524(4) 0.0982(2) 0.17184(15)
H141 H 1.1497 0.1006 0.1529
C180 C 1.2000(4) 0.0816(2) 0.18705(19)
H142 H 1.2299 0.0726 0.1786
C181 C 1.2040(3) 0.0780(2) 0.21470(19)
H143 H 1.2365 0.0667 0.2251
C182 C 1.1603(4) 0.0911(2) 0.22713(14)
H144 H 1.1630 0.0887 0.2460
N41 N 0.9758(3) 0.1596(2) 0.16751(18)
N42 N 1.0185(4) 0.1411(2) 0.18543(14)
C183 C 1.0610(4) 0.1293(2) 0.1707(2)
C184 C 1.0445(4) 0.1405(3) 0.14373(17)
H145 H 1.0651 0.1361 0.1295
C185 C 0.9919(4) 0.1592(2) 0.14174(15)
H146 H 0.9711 0.1696 0.1259
C186 C 0.9317(6) 0.1779(3) 0.1758(3)
H147 H 0.9179 0.1660 0.1905
H148 H 0.8977 0.1796 0.1605
C187 C 0.8838(3) 0.28315(14) 0.21287(16)
C188 C 0.8267(3) 0.27193(18) 0.21279(16)
H149 H 0.7989 0.2857 0.2190
C189 C 0.8104(2) 0.24060(19) 0.20358(17)
H150 H 0.7714 0.2329 0.2035
C190 C 0.8512(3) 0.22049(15) 0.19445(16)
H151 H 0.8400 0.1991 0.1882
C191 C 0.9082(2) 0.23171(12) 0.19454(11)
C192 C 0.9246(2) 0.26304(12) 0.20375(11)
C193 C 0.9816(2) 0.27427(15) 0.20384(16)
H152 H 0.9928 0.2957 0.2101
C194 C 1.0224(2) 0.25416(19) 0.19471(17)
H153 H 1.0614 0.2618 0.1948
C195 C 1.0061(3) 0.22283(18) 0.18551(17)
H154 H 1.0339 0.2091 0.1793
C196 C 0.9490(3) 0.21161(14) 0.18542(16)
N43 N 0.7007(4) 0.43464(19) 0.46838(19)
C197 C 0.6896(4) 0.4545(2) 0.44563(16)
C198 C 0.7237(4) 0.4823(2) 0.44433(16)
H155 H 0.7161 0.4958 0.4288
C199 C 0.7689(4) 0.4902(2) 0.4658(2)
H156 H 0.7922 0.5092 0.4649
C200 C 0.7800(4) 0.4704(2) 0.48852(16)
H157 H 0.8109 0.4758 0.5032
C201 C 0.7459(4) 0.4426(2) 0.48982(15)
H158 H 0.7535 0.4290 0.5054
N44 N 0.5619(4) 0.4143(2) 0.40681(18)
N45 N 0.6097(4) 0.4167(2) 0.42912(15)
C202 C 0.6433(4) 0.4449(2) 0.42540(18)
C203 C 0.6163(4) 0.4599(2) 0.4008(2)
H159 H 0.6295 0.4792 0.3933
C204 C 0.5660(4) 0.4410(2) 0.38930(15)
H160 H 0.5397 0.4455 0.3728
C205 C 0.5257(7) 0.3884(4) 0.4032(3)
H161 H 0.4865 0.3955 0.3932
H162 H 0.5202 0.3806 0.4211
N46 N 0.3769(4) 0.23073(19) 0.25312(17)
C206 C 0.3759(4) 0.2046(2) 0.27062(13)
C207 C 0.3429(4) 0.1768(2) 0.26187(17)
H163 H 0.3422 0.1590 0.2738
C208 C 0.3110(4) 0.1752(2) 0.23561(19)
H164 H 0.2885 0.1562 0.2296
C209 C 0.3121(4) 0.2013(2) 0.21811(14)
H165 H 0.2903 0.2002 0.2002
C210 C 0.3450(4) 0.2291(2) 0.22686(16)
H166 H 0.3458 0.2469 0.2149
N47 N 0.4843(3) 0.2325(2) 0.32673(17)
N48 N 0.4507(4) 0.2351(2) 0.30016(16)
C211 C 0.4142(4) 0.2069(2) 0.29500(15)
C212 C 0.4253(4) 0.18691(19) 0.3184(2)
H167 H 0.4070 0.1665 0.3205
C213 C 0.4686(4) 0.2027(2) 0.33800(15)
H168 H 0.4844 0.1948 0.3556
C214 C 0.5227(6) 0.2552(4) 0.3383(3)
H169 H 0.5390 0.2663 0.3239
H170 H 0.5560 0.2439 0.3500
C215 C 0.5474(3) 0.35947(15) 0.38796(15)
C216 C 0.6053(3) 0.36145(18) 0.38376(16)
H171 H 0.6292 0.3797 0.3903
C217 C 0.6282(2) 0.3367(2) 0.36994(17)
H172 H 0.6677 0.3380 0.3671
C218 C 0.5932(2) 0.30991(18) 0.36031(16)
H173 H 0.6089 0.2930 0.3509
C219 C 0.5353(2) 0.30793(14) 0.36452(11)
C220 C 0.5124(2) 0.33271(14) 0.37834(11)
C221 C 0.4545(3) 0.33073(18) 0.38254(16)
H174 H 0.4389 0.3477 0.3920
C222 C 0.4196(2) 0.3040(2) 0.37292(17)
H175 H 0.3800 0.3026 0.3758
C223 C 0.4425(3) 0.27919(18) 0.35910(16)
H176 H 0.4185 0.2609 0.3525
C224 C 0.5003(3) 0.28117(15) 0.35490(15)
N49 N 0.5825(5) 0.4207(3) 0.4864(2)
C225 C 0.5901(5) 0.4187(3) 0.51428(19)
C226 C 0.5536(5) 0.4367(3) 0.52784(15)
H177 H 0.5588 0.4354 0.5469
C227 C 0.5096(5) 0.4566(3) 0.5135(2)
H178 H 0.4847 0.4689 0.5228
C228 C 0.5020(5) 0.4585(3) 0.4856(2)
H179 H 0.4720 0.4721 0.4758
C229 C 0.5385(5) 0.4405(3) 0.47201(15)
H180 H 0.5333 0.4418 0.4529
N50 N 0.7161(5) 0.3651(3) 0.5277(2)
N51 N 0.6708(5) 0.3826(3) 0.51041(15)
C230 C 0.6353(5) 0.3985(3) 0.5266(2)
C231 C 0.6585(6) 0.3907(3) 0.55400(19)
H181 H 0.6433 0.3980 0.5692
C232 C 0.7084(5) 0.3701(3) 0.55468(17)
H182 H 0.7325 0.3611 0.5704
C233 C 0.7547(9) 0.3439(4) 0.5192(4)
H183 H 0.7899 0.3415 0.5338
H184 H 0.7680 0.3536 0.5035
N52 N 0.9361(5) 0.1222(3) 0.5004(2)
C234 C 0.9266(5) 0.1300(3) 0.4731(2)
C235 C 0.9639(6) 0.1175(3) 0.45698(16)
H185 H 0.9574 0.1228 0.4383
C236 C 1.0107(5) 0.0972(3) 0.4681(2)
H186 H 1.0362 0.0886 0.4571
C237 C 1.0202(5) 0.0894(3) 0.4954(2)
H187 H 1.0522 0.0756 0.5030
C238 C 0.9829(5) 0.1020(3) 0.51152(16)
H188 H 0.9894 0.0967 0.5302
N53 N 0.7919(5) 0.1771(3) 0.4669(2)
N54 N 0.8425(5) 0.1612(3) 0.48188(16)
C239 C 0.8785(5) 0.1508(3) 0.4635(2)
C240 C 0.8500(6) 0.1603(3) 0.43719(19)
H189 H 0.8643 0.1564 0.4210
C241 C 0.7965(5) 0.1765(3) 0.43926(18)
H190 H 0.7687 0.1854 0.4247
C242 C 0.7542(9) 0.1957(4) 0.4770(4)
H191 H 0.7448 0.1848 0.4931
H192 H 0.7169 0.1974 0.4635
C243 C 0.7291(4) 0.30892(18) 0.51123(18)
C244 C 0.6725(4) 0.3005(2) 0.51469(19)
H193 H 0.6485 0.3161 0.5214
C245 C 0.6510(3) 0.2691(3) 0.50829(19)
H194 H 0.6123 0.2633 0.5107
C246 C 0.6861(4) 0.2462(2) 0.49843(19)
H195 H 0.6714 0.2248 0.4941
C247 C 0.7427(3) 0.25465(16) 0.49497(13)
C248 C 0.7642(3) 0.28601(16) 0.50136(13)
C249 C 0.8208(4) 0.2945(2) 0.49790(19)
H196 H 0.8355 0.3159 0.5023
C250 C 0.8559(3) 0.2715(3) 0.48804(19)
H197 H 0.8946 0.2773 0.4857
C251 C 0.8344(4) 0.2402(2) 0.48164(19)
H198 H 0.8584 0.2245 0.4749
C252 C 0.7778(4) 0.23173(18) 0.48511(18)
N55 N 1.0874(4) 0.17588(17) 0.24103(17)
C253 C 1.0580(3) 0.1991(2) 0.25363(19)
C254 C 1.0865(4) 0.22795(19) 0.26320(19)
H199 H 1.0664 0.2438 0.2718
C255 C 1.1445(4) 0.23352(18) 0.26018(19)
H200 H 1.1640 0.2532 0.2667
C256 C 1.1739(3) 0.2103(2) 0.24758(19)
H201 H 1.2136 0.2141 0.2455
C257 C 1.1454(4) 0.18145(19) 0.23801(18)
H202 H 1.1655 0.1656 0.2294
N56 N 0.9124(3) 0.16604(19) 0.24549(18)
N57 N 0.9735(4) 0.16378(19) 0.24433(18)
C258 C 1.0013(3) 0.1933(2) 0.2547(2)
C259 C 0.9575(4) 0.21382(18) 0.2624(2)
H203 H 0.9638 0.2351 0.2699
C260 C 0.9025(3) 0.1970(2) 0.2566(2)
H204 H 0.8656 0.2050 0.2597
C261 C 0.8709(7) 0.1409(4) 0.2388(3)
H205 H 0.8811 0.1279 0.2238
H206 H 0.8312 0.1506 0.2325
N58 N 0.5941(4) -0.00560(17) 0.32679(19)
C262 C 0.6123(3) -0.0335(2) 0.31496(19)
C263 C 0.5806(4) -0.06249(18) 0.3149(2)
H207 H 0.5930 -0.0816 0.3068
C264 C 0.5308(4) -0.06352(18) 0.3267(2)
H208 H 0.5091 -0.0833 0.3267
C265 C 0.5126(3) -0.0356(2) 0.33855(19)
H209 H 0.4785 -0.0363 0.3466
C266 C 0.5443(4) -0.00663(18) 0.33859(19)
H210 H 0.5318 0.0125 0.3467
N59 N 0.7463(3) -0.0030(2) 0.29965(19)
N60 N 0.6937(4) -0.00010(19) 0.31028(18)
C267 C 0.6600(3) -0.0291(2) 0.3037(2)
C268 C 0.6918(4) -0.04981(19) 0.2889(2)
H211 H 0.6795 -0.0708 0.2820
C269 C 0.7452(4) -0.0337(2) 0.2865(2)
H212 H 0.7749 -0.0420 0.2775
C270 C 0.7916(6) 0.0203(4) 0.3023(3)
H213 H 0.8298 0.0086 0.3040
H214 H 0.7924 0.0324 0.3194
C271 C 0.8683(3) 0.11749(15) 0.26331(14)
C272 C 0.9120(3) 0.11997(17) 0.28637(15)
H215 H 0.9405 0.1370 0.2879
C273 C 0.9140(3) 0.0975(2) 0.30716(13)
H216 H 0.9439 0.0992 0.3229
C274 C 0.8724(3) 0.07250(18) 0.30488(11)
H217 H 0.8738 0.0571 0.3191
C275 C 0.8287(2) 0.07002(13) 0.28182(10)
C276 C 0.8266(2) 0.09251(13) 0.26104(10)
C277 C 0.7829(3) 0.09003(18) 0.23798(11)
H218 H 0.7815 0.1054 0.2238
C278 C 0.7413(3) 0.0651(2) 0.23571(13)
H219 H 0.7114 0.0634 0.2199
C279 C 0.7433(3) 0.04256(17) 0.25649(15)
H220 H 0.7149 0.0255 0.2549
C280 C 0.7870(3) 0.04504(15) 0.27955(14)
N61 N 0.4020(4) 0.3045(2) 0.23288(16)
C281 C 0.4311(4) 0.2992(2) 0.2115(2)
C282 C 0.4162(4) 0.3176(3) 0.18808(17)
H221 H 0.4360 0.3139 0.1735
C283 C 0.3722(4) 0.3413(2) 0.18595(17)
H222 H 0.3620 0.3538 0.1699
C284 C 0.3431(4) 0.3466(2) 0.2073(2)
H223 H 0.3131 0.3628 0.2058
C285 C 0.3580(4) 0.3282(2) 0.23075(17)
H224 H 0.3381 0.3319 0.2453
N62 N 0.5421(4) 0.2424(2) 0.24080(17)
N63 N 0.4933(4) 0.2634(2) 0.24143(18)
C286 C 0.4754(4) 0.2771(2) 0.2153(2)
C287 C 0.5132(5) 0.2645(3) 0.19856(16)
H225 H 0.5112 0.2696 0.1801
C288 C 0.5544(4) 0.2430(3) 0.2143(2)
H226 H 0.5848 0.2312 0.2082
C289 C 0.5680(7) 0.2250(4) 0.2635(3)
H227 H 0.5662 0.2385 0.2795
H228 H 0.6103 0.2217 0.2628
N64 N 0.6852(4) 0.0242(2) 0.37020(16)
C290 C 0.6541(4) 0.0356(2) 0.3894(2)
C291 C 0.6729(4) 0.0277(3) 0.41638(19)
H229 H 0.6517 0.0355 0.4295
C292 C 0.7229(5) 0.0084(3) 0.42425(16)
H230 H 0.7358 0.0030 0.4427
C293 C 0.7541(4) -0.0031(2) 0.4051(2)
H231 H 0.7882 -0.0163 0.4105
C294 C 0.7352(4) 0.0049(3) 0.37807(19)
H232 H 0.7565 -0.0030 0.3650
N65 N 0.5390(4) 0.0799(2) 0.34651(17)
N66 N 0.5930(4) 0.0622(3) 0.3518(2)
C295 C 0.6056(4) 0.0543(3) 0.3797(2)
C296 C 0.5594(5) 0.0671(3) 0.39162(17)
H233 H 0.5565 0.0654 0.4101
C297 C 0.5182(4) 0.0829(3) 0.3711(2)
H234 H 0.4829 0.0937 0.3734
C298 C 0.5153(7) 0.0943(4) 0.3226(3)
H235 H 0.4723 0.0974 0.3217
H236 H 0.5206 0.0796 0.3077
C299 C 0.5412(4) 0.19192(17) 0.26737(15)
C300 C 0.4997(4) 0.1789(2) 0.24639(13)
H237 H 0.4894 0.1904 0.2298
C301 C 0.4732(3) 0.1490(2) 0.24963(14)
H238 H 0.4448 0.1401 0.2353
C302 C 0.4882(3) 0.13209(18) 0.27384(16)
H239 H 0.4701 0.1116 0.2761
C303 C 0.5297(3) 0.14511(14) 0.29482(13)
C304 C 0.5562(3) 0.17502(14) 0.29158(13)
C305 C 0.5977(3) 0.18805(18) 0.31256(16)
H240 H 0.6158 0.2085 0.3103
C306 C 0.6127(3) 0.1712(2) 0.33677(14)
H241 H 0.6410 0.1801 0.3511
C307 C 0.5862(4) 0.1412(2) 0.34001(13)
H242 H 0.5965 0.1297 0.3566
C308 C 0.5447(4) 0.12822(17) 0.31903(15)
N67 N 0.8461(3) 0.3302(2) 0.15201(17)
C309 C 0.8237(3) 0.2994(2) 0.14416(19)
C310 C 0.8594(4) 0.27641(18) 0.13477(19)
H243 H 0.8441 0.2553 0.1294
C311 C 0.9175(4) 0.2842(2) 0.13322(19)
H244 H 0.9419 0.2685 0.1268
C312 C 0.9399(3) 0.3150(2) 0.14107(19)
H245 H 0.9796 0.3204 0.1400
C313 C 0.9042(4) 0.33804(18) 0.15046(18)
H246 H 0.9195 0.3591 0.1558
N68 N 0.6765(3) 0.3082(2) 0.15513(18)
N69 N 0.7360(4) 0.31892(19) 0.15751(18)
C314 C 0.7679(3) 0.2942(2) 0.1467(2)
C315 C 0.7281(4) 0.26819(19) 0.1376(2)
H247 H 0.7376 0.2485 0.1295
C316 C 0.6716(3) 0.2769(2) 0.1428(2)
H248 H 0.6367 0.2640 0.1388
C317 C 0.6361(6) 0.3247(4) 0.1682(3)
H249 H 0.5955 0.3205 0.1581
H250 H 0.6435 0.3485 0.1674
N70 N 0.3644(3) 0.2945(2) 0.29029(17)
C318 C 0.3780(3) 0.3244(2) 0.30300(18)
C319 C 0.3356(4) 0.34086(18) 0.31418(18)
H251 H 0.3449 0.3613 0.3229
C320 C 0.2796(3) 0.3273(2) 0.31265(18)
H252 H 0.2506 0.3386 0.3203
C321 C 0.2660(3) 0.2974(2) 0.29994(19)
H253 H 0.2278 0.2882 0.2989
C322 C 0.3084(3) 0.28098(18) 0.28876(17)
H254 H 0.2992 0.2605 0.2801
N71 N 0.5292(3) 0.3330(2) 0.29704(17)
N72 N 0.4728(3) 0.31758(18) 0.29210(17)
C323 C 0.4342(3) 0.3364(2) 0.3049(2)
C324 C 0.4666(4) 0.3634(2) 0.31768(19)
H255 H 0.4516 0.3800 0.3277
C325 C 0.5253(3) 0.3614(2) 0.31285(19)
H256 H 0.5565 0.3763 0.3191
C326 C 0.5746(6) 0.3227(4) 0.2845(3)
H257 H 0.5748 0.2985 0.2844
H258 H 0.6126 0.3300 0.2956
C327 C 0.6389(3) 0.31506(19) 0.19756(12)
C328 C 0.6809(3) 0.29182(18) 0.20842(15)
H259 H 0.7055 0.2822 0.1975
C329 C 0.6867(3) 0.28268(17) 0.23529(16)
H260 H 0.7154 0.2668 0.2427
C330 C 0.6506(3) 0.29678(18) 0.25131(12)
H261 H 0.6546 0.2905 0.2697
C331 C 0.6087(2) 0.32001(14) 0.24045(10)
C332 C 0.6028(2) 0.32915(14) 0.21357(10)
C333 C 0.5609(3) 0.35239(18) 0.20271(12)
H262 H 0.5569 0.3586 0.1843
C334 C 0.5248(3) 0.36649(17) 0.21873(16)
H263 H 0.4962 0.3824 0.2113
C335 C 0.5307(3) 0.35735(18) 0.24560(15)
H264 H 0.5060 0.3670 0.2565
C336 C 0.5726(3) 0.33411(19) 0.25646(11)
Cl1 Cl 0.69893(16) 0.39542(10) 0.31127(7)
O1 O 0.6772(4) 0.3768(2) 0.28792(15)
O2 O 0.6548(4) 0.3969(3) 0.32719(17)
O3 O 0.7134(5) 0.42719(17) 0.3041(3)
O4 O 0.7508(4) 0.3806(3) 0.3260(2)
Cl2 Cl 0.6862(2) 0.17530(11) 0.21883(11)
O5 O 0.7444(4) 0.1671(4) 0.2161(3)
O6 O 0.6692(6) 0.2031(3) 0.2027(3)
O7 O 0.6495(7) 0.1483(3) 0.2078(3)
O8 O 0.6811(8) 0.1796(4) 0.24525(19)
Cl3 Cl 0.5895(3) 0.20619(14) 0.41364(11)
O9 O 0.6505(4) 0.2048(5) 0.4182(4)
O10 O 0.5680(9) 0.2330(4) 0.3965(4)
O11 O 0.5636(7) 0.1774(3) 0.4007(3)
O12 O 0.5684(8) 0.2105(5) 0.4379(3)
Cl4 Cl 0.3366(3) 0.10436(12) 0.33195(13)
O13 O 0.2866(4) 0.1043(3) 0.3444(3)
O14 O 0.3520(6) 0.0723(2) 0.3266(3)
O15 O 0.3849(5) 0.1191(3) 0.3501(2)
O16 O 0.3244(7) 0.1228(4) 0.3082(2)
Cl5 Cl 0.2772(3) 0.05828(14) 0.10297(13)
O17 O 0.2472(6) 0.0643(3) 0.1244(2)
O18 O 0.2354(6) 0.0514(4) 0.0795(2)
O19 O 0.3152(5) 0.0311(3) 0.1098(3)
O20 O 0.3112(7) 0.0857(3) 0.0990(3)
Cl6 Cl 0.3164(2) 0.41467(12) 0.35716(11)
O21 O 0.3021(7) 0.4480(2) 0.3587(3)
O22 O 0.2737(4) 0.3986(3) 0.3383(2)
O23 O 0.3730(4) 0.4118(3) 0.3507(3)
O24 O 0.3185(7) 0.4005(4) 0.3830(2)
Cl7 Cl 0.07845(17) 0.45879(10) 0.21735(8)
O25 O 0.0262(3) 0.4777(2) 0.21126(19)
O26 O 0.0648(4) 0.42764(17) 0.22697(18)
O27 O 0.1018(4) 0.4544(2) 0.19377(15)
O28 O 0.1203(4) 0.4744(2) 0.23721(16)
Cl8 Cl 0.8345(2) 0.18792(11) 0.09858(8)
O29 O 0.8394(5) 0.1567(2) 0.1086(3)
O30 O 0.7893(5) 0.2058(3) 0.1074(3)
O31 O 0.8886(4) 0.2054(2) 0.1054(2)
O32 O 0.8205(8) 0.1869(4) 0.06977(16)
Cl9 Cl 0.95392(17) 0.28848(9) 0.30998(8)
O33 O 1.0129(4) 0.2844(4) 0.3233(3)
O34 O 0.9540(8) 0.2900(4) 0.28180(17)
O35 O 0.9309(4) 0.3179(2) 0.3180(2)
O36 O 0.9196(6) 0.2616(3) 0.3148(3)
Cl10 Cl 0.6342(3) 0.06656(19) 0.11820(11)
O37 O 0.6144(7) 0.0572(4) 0.1416(2)
O38 O 0.6930(5) 0.0558(4) 0.1191(3)
O39 O 0.5978(6) 0.0534(4) 0.0951(2)
O40 O 0.6328(7) 0.1012(2) 0.1166(3)
Cl11 Cl 0.1138(3) 0.32154(15) 0.11805(13)
O41 O 0.1602(6) 0.2988(3) 0.1184(3)
O42 O 0.0791(6) 0.3124(4) 0.1368(3)
O43 O 0.1390(8) 0.3528(3) 0.1255(4)
O44 O 0.0790(6) 0.3234(4) 0.0921(2)
Cl12 Cl 0.9575(4) 0.3310(2) 0.46338(17)
O45 O 0.9087(6) 0.3146(4) 0.4483(3)
O46 O 0.9943(6) 0.3432(4) 0.4475(2)
O47 O 0.9334(5) 0.3575(3) 0.4775(3)
O48 O 0.9889(5) 0.3110(2) 0.4841(2)
Cl13 Cl -0.0003(4) 0.1013(2) 0.38565(19)
O49 O 0.0264(9) 0.1237(4) 0.4053(3)
O50 O 0.0305(9) 0.1027(5) 0.3638(3)
O51 O -0.0597(6) 0.1103(8) 0.3762(5)
O52 O 0.0028(15) 0.0697(3) 0.3962(5)
Cl14 Cl 0.4551(6) 0.3662(3) 0.5379(3)
O53 O 0.5059(9) 0.3510(6) 0.5321(5)
O54 O 0.4238(14) 0.3818(9) 0.5147(5)
O55 O 0.4190(12) 0.3415(6) 0.5463(7)
O56 O 0.4699(14) 0.3891(7) 0.5588(6)
Cl15 Cl 0.3730(3) 0.41057(17) 0.69621(14)
O57 O 0.4334(4) 0.4151(4) 0.6967(3)
O58 O 0.3567(7) 0.3778(3) 0.6895(3)
O59 O 0.3611(10) 0.4165(5) 0.7224(3)
O60 O 0.3389(8) 0.4317(4) 0.6778(4)
Cl16 Cl 0.3394(4) 0.2386(2) 0.14712(17)
O61 O 0.3378(7) 0.2153(4) 0.1258(3)
O62 O 0.3868(6) 0.2301(4) 0.1680(3)
O63 O 0.3489(11) 0.2697(3) 0.1369(4)
O64 O 0.2856(6) 0.2376(6) 0.1560(4)
N73 N 0.7537(6) 0.3094(4) 0.3350(3)
O65 O 0.7034(6) 0.2988(3) 0.3264(2)
O66 O 0.7739(6) 0.3187(3) 0.3584(2)
C337 C 0.7926(9) 0.3089(5) 0.3145(4)
H265 H 0.7682 0.3102 0.2963
H266 H 0.8156 0.2886 0.3162
H267 H 0.8196 0.3277 0.3174
N74 N 0.1724(14) 0.2582(8) 0.0705(6)
O67 O 0.1313(11) 0.2405(6) 0.0703(4)
O68 O 0.1765(10) 0.2845(6) 0.0584(5)
C338 C 0.2279(15) 0.2480(8) 0.0882(7)
H268 H 0.2271 0.2545 0.1068
H269 H 0.2615 0.2586 0.0823
H270 H 0.2321 0.2242 0.0873
N75 N 0.7707(10) 0.1246(5) 0.1650(4)
O69 O 0.7332(7) 0.1504(4) 0.1498(3)
O70 O 0.8208(7) 0.1312(4) 0.1731(3)
C339 C 0.7502(10) 0.0973(6) 0.1708(5)
H271 H 0.7609 0.0804 0.1588
H272 H 0.7069 0.0987 0.1684
H273 H 0.7668 0.0917 0.1895
N76 N 0.0370(6) 0.3728(3) 0.1890(3)
O71 O 0.0143(5) 0.3585(3) 0.20574(19)
O72 O 0.0085(5) 0.3905(3) 0.17155(19)
C340 C 0.1032(7) 0.3714(4) 0.1895(3)
H274 H 0.1222 0.3575 0.2045
H275 H 0.1198 0.3935 0.1919
H276 H 0.1103 0.3624 0.1724
N77 N 0.7255(7) 0.4993(4) 0.3109(3)
O73 O 0.7769(5) 0.4988(3) 0.3239(2)
O74 O 0.7139(5) 0.5002(3) 0.2861(2)
C341 C 0.6790(8) 0.4969(4) 0.3269(3)
H277 H 0.6413 0.5041 0.3161
H278 H 0.6892 0.5108 0.3430
H279 H 0.6754 0.4741 0.3325
N78 N 0.2018(7) 0.2912(3) 0.2129(3)
O75 O 0.2417(5) 0.2780(3) 0.2286(2)
O76 O 0.1507(5) 0.2958(3) 0.2183(2)
C342 C 0.2138(8) 0.3017(4) 0.1877(3)
H280 H 0.2418 0.2866 0.1818
H281 H 0.2309 0.3237 0.1896
H282 H 0.1769 0.3021 0.1743
N79 N 0.3945(12) 0.0243(5) 0.2934(5)
O77 O 0.3643(8) 0.0042(4) 0.3009(4)
O78 O 0.4467(9) 0.0339(4) 0.3030(4)
C343 C 0.3648(12) 0.0426(5) 0.2667(5)
H283 H 0.3324 0.0293 0.2569
H284 H 0.3944 0.0462 0.2554
H285 H 0.3493 0.0638 0.2713
N80 N 0.1584(10) 0.2112(6) 0.1616(5)
O79 O 0.1766(8) 0.1814(5) 0.1682(4)
O80 O 0.1557(8) 0.2295(4) 0.1824(4)
C344 C 0.1266(12) 0.2202(6) 0.1358(5)
H286 H 0.0940 0.2048 0.1302
H287 H 0.1532 0.2198 0.1228
H288 H 0.1105 0.2423 0.1367
N81 N 0.1090(6) 0.3238(4) 0.2892(3)
O81 O 0.1225(5) 0.3496(3) 0.3020(2)
O82 O 0.1276(5) 0.2974(3) 0.2980(2)
C345 C 0.0714(7) 0.3251(4) 0.2632(3)
H289 H 0.0905 0.3138 0.2500
H290 H 0.0643 0.3480 0.2577
H291 H 0.0336 0.3144 0.2640
N82 N 0.4486(4) 0.9713(5) 0.2395(4)
O83 O 0.4572(6) 0.9753(4) 0.2622(3)
O84 O 0.4550(6) 0.9943(4) 0.2225(3)
C346 C 0.4291(10) 0.9411(6) 0.2247(5)
H292 H 0.4447 0.9222 0.2356
H293 H 0.4440 0.9408 0.2077
H294 H 0.3858 0.9402 0.2207
N83 N 0.4934(11) -0.0065(6) 0.1692(5)
O85 O 0.4446(8) -0.0032(4) 0.1563(4)
O86 O 0.5093(8) -0.0372(5) 0.1707(3)
C347 C 0.5343(12) 0.0168(7) 0.1769(5)
H295 H 0.5649 0.0154 0.1658
H296 H 0.5525 0.0136 0.1959
H297 H 0.5154 0.0383 0.1746
Cd5 Cd 0.48436(10) 0.35125(7) 0.64231(4)
O87 O 0.5350(8) 0.3674(4) 0.6074(4)
O88 O 0.4387(8) 0.3355(4) 0.6764(3)
O89 O 0.5606(10) 0.3769(6) 0.6733(4)
O90 O 0.4335(8) 0.4002(5) 0.6371(4)
O91 O 0.5411(10) 0.3032(6) 0.6471(4)
O92 O 0.4136(9) 0.3265(5) 0.6105(4)
O93 O 0.7223(8) 0.2345(4) 0.2977(4)
O94 O 0.8839(7) 0.0084(4) 0.3616(3)
O95 O 0.8911(8) 0.1687(4) 0.3441(3)
loop_
_geom_bond_atom_site_label_1
_geom_bond_atom_site_label_2
_geom_bond_site_symmetry_1
_geom_bond_site_symmetry_2
Cd1 N1 1_555 1_555
Cd2 N46 1_555 1_555
Cd3 N25 1_555 1_555
Cd4 N19 1_555 1_555
Ru1 N4 1_555 1_555
Ru2 N16 1_555 1_555
Ru3 N10 1_555 1_555
Ru4 N22 1_555 1_555
N1 C1 1_555 1_555
C1 C2 1_555 1_555
C2 H1 1_555 1_555
C3 C2 1_555 1_555
H2 C3 1_555 1_555
C4 C3 1_555 1_555
H3 C4 1_555 1_555
C5 N1 1_555 1_555
H4 C5 1_555 1_555
N2 N3 1_555 1_555
N3 Cd1 1_555 1_555
C6 C1 1_555 1_555
C7 C6 1_555 1_555
H5 C7 1_555 1_555
C8 N2 1_555 1_555
H6 C8 1_555 1_555
C9 N2 1_555 1_555
H7 C9 1_555 1_555
H8 C9 1_555 1_555
N4 C10 1_555 1_555
C10 C11 1_555 1_555
C11 H9 1_555 1_555
C12 C11 1_555 1_555
H10 C12 1_555 1_555
C13 C12 1_555 1_555
H11 C13 1_555 1_555
C14 N4 1_555 1_555
H12 C14 1_555 1_555
N5 N6 1_555 1_555
N6 Ru1 1_555 1_555
C15 C10 1_555 1_555
C16 C15 1_555 1_555
H13 C16 1_555 1_555
C17 N5 1_555 1_555
H14 C17 1_555 1_555
C18 N5 1_555 1_555
H15 C18 1_555 1_555
H16 C18 1_555 1_555
C19 C9 1_555 1_555
C20 C19 1_555 1_555
H17 C20 1_555 1_555
C21 C20 1_555 1_555
H18 C21 1_555 1_555
C22 C21 1_555 1_555
H19 C22 1_555 1_555
C23 C22 1_555 1_555
C24 C19 1_555 1_555
C25 C24 1_555 1_555
H20 C25 1_555 1_555
C26 C25 1_555 1_555
H21 C26 1_555 1_555
C27 C26 1_555 1_555
H22 C27 1_555 1_555
C28 C18 1_555 1_555
N7 Cd1 1_555 1_555
C29 N7 1_555 1_555
C30 C29 1_555 1_555
H23 C30 1_555 1_555
C31 C30 1_555 1_555
H24 C31 1_555 1_555
C32 C31 1_555 1_555
H25 C32 1_555 1_555
C33 N7 1_555 1_555
H26 C33 1_555 1_555
N8 N9 1_555 1_555
N9 Cd1 1_555 1_555
C34 C29 1_555 1_555
C35 C34 1_555 1_555
H27 C35 1_555 1_555
C36 N8 1_555 1_555
H28 C36 1_555 1_555
C37 N8 1_555 1_555
H29 C37 1_555 1_555
H30 C37 1_555 1_555
N10 C38 1_555 1_555
C38 C39 1_555 1_555
C39 H31 1_555 1_555
C40 C39 1_555 1_555
H32 C40 1_555 1_555
C41 C40 1_555 1_555
H33 C41 1_555 1_555
C42 N10 1_555 1_555
H34 C42 1_555 1_555
N11 N12 1_555 1_555
N12 Ru3 1_555 1_555
C43 C38 1_555 1_555
C44 C43 1_555 1_555
H35 C44 1_555 1_555
C45 N11 1_555 1_555
H36 C45 1_555 1_555
C46 N11 1_555 1_555
H37 C46 1_555 1_555
H38 C46 1_555 1_555
C47 C37 1_555 1_555
C48 C47 1_555 1_555
H39 C48 1_555 1_555
C49 C48 1_555 1_555
H40 C49 1_555 1_555
C50 C49 1_555 1_555
H41 C50 1_555 1_555
C51 C50 1_555 1_555
C52 C47 1_555 1_555
C53 C52 1_555 1_555
H42 C53 1_555 1_555
C54 C53 1_555 1_555
H43 C54 1_555 1_555
C55 C54 1_555 1_555
H44 C55 1_555 1_555
C56 C46 1_555 1_555
N13 Cd1 1_555 1_555
C57 N13 1_555 1_555
C58 C57 1_555 1_555
H45 C58 1_555 1_555
C59 C58 1_555 1_555
H46 C59 1_555 1_555
C60 C59 1_555 1_555
H47 C60 1_555 1_555
C61 N13 1_555 1_555
H48 C61 1_555 1_555
N14 N15 1_555 1_555
N15 Cd1 1_555 1_555
C62 C57 1_555 1_555
C63 C62 1_555 1_555
H49 C63 1_555 1_555
C64 N14 1_555 1_555
H50 C64 1_555 1_555
C65 N14 1_555 1_555
H51 C65 1_555 1_555
H52 C65 1_555 1_555
N16 C66 1_555 1_555
C66 C67 1_555 1_555
C67 H53 1_555 1_555
C68 C67 1_555 1_555
H54 C68 1_555 1_555
C69 C68 1_555 1_555
H55 C69 1_555 1_555
C70 N16 1_555 1_555
H56 C70 1_555 1_555
N17 N18 1_555 1_555
N18 Ru2 1_555 1_555
C71 C66 1_555 1_555
C72 C71 1_555 1_555
H57 C72 1_555 1_555
C73 N17 1_555 1_555
H58 C73 1_555 1_555
C74 N17 1_555 1_555
H59 C74 1_555 1_555
H60 C74 1_555 1_555
C75 C65 1_555 1_555
C76 C75 1_555 1_555
H61 C76 1_555 1_555
C77 C76 1_555 1_555
H62 C77 1_555 1_555
C78 C77 1_555 1_555
H63 C78 1_555 1_555
C79 C78 1_555 1_555
C80 C75 1_555 1_555
C81 C80 1_555 1_555
H64 C81 1_555 1_555
C82 C81 1_555 1_555
H65 C82 1_555 1_555
C83 C82 1_555 1_555
H66 C83 1_555 1_555
C84 C74 1_555 1_555
N19 C85 1_555 1_555
C85 C86 1_555 1_555
C86 H67 1_555 1_555
C87 C86 1_555 1_555
H68 C87 1_555 1_555
C88 C87 1_555 1_555
H69 C88 1_555 1_555
C89 N19 1_555 1_555
H70 C89 1_555 1_555
N20 N21 1_555 1_555
N21 Cd4 1_555 1_555
C90 C85 1_555 1_555
C91 C90 1_555 1_555
H71 C91 1_555 1_555
C92 N20 1_555 1_555
H72 C92 1_555 1_555
C93 N20 1_555 1_555
H73 C93 1_555 1_555
H74 C93 1_555 1_555
N22 C94 1_555 1_555
C94 C95 1_555 1_555
C95 H75 1_555 1_555
C96 C95 1_555 1_555
H76 C96 1_555 1_555
C97 C96 1_555 1_555
H77 C97 1_555 1_555
C98 N22 1_555 1_555
H78 C98 1_555 1_555
N23 Ru4 1_555 1_555
N24 N23 1_555 1_555
C99 N24 1_555 1_555
H79 C99 1_555 1_555
C100 C99 1_555 1_555
H80 C100 1_555 1_555
C101 C94 1_555 1_555
C102 N24 1_555 1_555
H81 C102 1_555 1_555
H82 C102 1_555 1_555
C103 C93 1_555 1_555
C104 C103 1_555 1_555
H83 C104 1_555 1_555
C105 C104 1_555 1_555
H84 C105 1_555 1_555
C106 C105 1_555 1_555
H85 C106 1_555 1_555
C107 C106 1_555 1_555
C108 C103 1_555 1_555
C109 C108 1_555 1_555
H86 C109 1_555 1_555
C110 C109 1_555 1_555
H87 C110 1_555 1_555
C111 C110 1_555 1_555
H88 C111 1_555 1_555
C112 C102 1_555 1_555
N25 C113 1_555 1_555
C113 C114 1_555 1_555
C114 H89 1_555 1_555
C115 C114 1_555 1_555
H90 C115 1_555 1_555
C116 C115 1_555 1_555
H91 C116 1_555 1_555
C117 N25 1_555 1_555
H92 C117 1_555 1_555
N26 N27 1_555 1_555
N27 Cd3 1_555 1_555
C118 C113 1_555 1_555
C119 C118 1_555 1_555
H93 C119 1_555 1_555
C120 N26 1_555 1_555
H94 C120 1_555 1_555
C121 N26 1_555 1_555
H95 C121 1_555 1_555
H96 C121 1_555 1_555
N28 Ru3 1_555 1_555
C122 N28 1_555 1_555
C123 C122 1_555 1_555
H97 C123 1_555 1_555
C124 C123 1_555 1_555
H98 C124 1_555 1_555
C125 C124 1_555 1_555
H99 C125 1_555 1_555
C126 N28 1_555 1_555
H100 C126 1_555 1_555
N29 N30 1_555 1_555
N30 Ru3 1_555 1_555
C127 C122 1_555 1_555
C128 C127 1_555 1_555
H101 C128 1_555 1_555
C129 N29 1_555 1_555
H102 C129 1_555 1_555
C130 N29 1_555 1_555
H103 C130 1_555 1_555
H104 C130 1_555 1_555
C131 C121 1_555 1_555
C132 C131 1_555 1_555
H105 C132 1_555 1_555
C133 C132 1_555 1_555
H106 C133 1_555 1_555
C134 C133 1_555 1_555
H107 C134 1_555 1_555
C135 C134 1_555 1_555
C136 C131 1_555 1_555
C137 C136 1_555 1_555
H108 C137 1_555 1_555
C138 C137 1_555 1_555
H109 C138 1_555 1_555
C139 C138 1_555 1_555
H110 C139 1_555 1_555
C140 C130 1_555 1_555
N31 Ru3 1_555 1_555
C141 N31 1_555 1_555
C142 C141 1_555 1_555
H111 C142 1_555 1_555
C143 C142 1_555 1_555
H112 C143 1_555 1_555
C144 C143 1_555 1_555
H113 C144 1_555 1_555
C145 N31 1_555 1_555
H114 C145 1_555 1_555
N32 N33 1_555 1_555
N33 Ru3 1_555 1_555
C146 C141 1_555 1_555
C147 C146 1_555 1_555
H115 C147 1_555 1_555
C148 N32 1_555 1_555
H116 C148 1_555 1_555
C149 N32 1_555 1_555
H117 C149 1_555 1_555
H118 C149 1_555 1_555
N34 Cd4 1_555 1_555
C150 N34 1_555 1_555
C151 C150 1_555 1_555
H119 C151 1_555 1_555
C152 C151 1_555 1_555
H120 C152 1_555 1_555
C153 C152 1_555 1_555
H121 C153 1_555 1_555
C154 N34 1_555 1_555
H122 C154 1_555 1_555
N35 N36 1_555 1_555
N36 Cd4 1_555 1_555
C155 C150 1_555 1_555
C156 C155 1_555 1_555
H123 C156 1_555 1_555
C157 N35 1_555 1_555
H124 C157 1_555 1_555
C158 N35 1_555 1_555
H125 C158 1_555 1_555
H126 C158 1_555 1_555
C159 C149 1_555 1_555
C160 C159 1_555 1_555
H127 C160 1_555 1_555
C161 C160 1_555 1_555
H128 C161 1_555 1_555
C162 C161 1_555 1_555
H129 C162 1_555 1_555
C163 C162 1_555 1_555
C164 C159 1_555 1_555
C165 C164 1_555 1_555
H130 C165 1_555 1_555
C166 C165 1_555 1_555
H131 C166 1_555 1_555
C167 C166 1_555 1_555
H132 C167 1_555 1_555
C168 C158 1_555 1_555
N37 Ru2 1_555 1_555
C169 N37 1_555 1_555
C170 C169 1_555 1_555
H133 C170 1_555 1_555
C171 C170 1_555 1_555
H134 C171 1_555 1_555
C172 C171 1_555 1_555
H135 C172 1_555 1_555
C173 N37 1_555 1_555
H136 C173 1_555 1_555
N38 N39 1_555 1_555
N39 Ru2 1_555 1_555
C174 C169 1_555 1_555
C175 C174 1_555 1_555
H137 C175 1_555 1_555
C176 N38 1_555 1_555
H138 C176 1_555 1_555
C177 N38 1_555 1_555
H139 C177 1_555 1_555
H140 C177 1_555 1_555
N40 Cd3 1_555 1_555
C178 N40 1_555 1_555
C179 C178 1_555 1_555
H141 C179 1_555 1_555
C180 C179 1_555 1_555
H142 C180 1_555 1_555
C181 C180 1_555 1_555
H143 C181 1_555 1_555
C182 N40 1_555 1_555
H144 C182 1_555 1_555
N41 N42 1_555 1_555
N42 Cd3 1_555 1_555
C183 C178 1_555 1_555
C184 C183 1_555 1_555
H145 C184 1_555 1_555
C185 N41 1_555 1_555
H146 C185 1_555 1_555
C186 N41 1_555 1_555
H147 C186 1_555 1_555
H148 C186 1_555 1_555
C187 C177 1_555 1_555
C188 C187 1_555 1_555
H149 C188 1_555 1_555
C189 C188 1_555 1_555
H150 C189 1_555 1_555
C190 C189 1_555 1_555
H151 C190 1_555 1_555
C191 C190 1_555 1_555
C192 C187 1_555 1_555
C193 C192 1_555 1_555
H152 C193 1_555 1_555
C194 C193 1_555 1_555
H153 C194 1_555 1_555
C195 C194 1_555 1_555
H154 C195 1_555 1_555
C196 C186 1_555 1_555
N43 Ru1 1_555 1_555
C197 N43 1_555 1_555
C198 C197 1_555 1_555
H155 C198 1_555 1_555
C199 C198 1_555 1_555
H156 C199 1_555 1_555
C200 C199 1_555 1_555
H157 C200 1_555 1_555
C201 N43 1_555 1_555
H158 C201 1_555 1_555
N44 N45 1_555 1_555
N45 Ru1 1_555 1_555
C202 C197 1_555 1_555
C203 C202 1_555 1_555
H159 C203 1_555 1_555
C204 N44 1_555 1_555
H160 C204 1_555 1_555
C205 N44 1_555 1_555
H161 C205 1_555 1_555
H162 C205 1_555 1_555
N46 C206 1_555 1_555
C206 C207 1_555 1_555
C207 H163 1_555 1_555
C208 C207 1_555 1_555
H164 C208 1_555 1_555
C209 C208 1_555 1_555
H165 C209 1_555 1_555
C210 N46 1_555 1_555
H166 C210 1_555 1_555
N47 N48 1_555 1_555
N48 Cd2 1_555 1_555
C211 C206 1_555 1_555
C212 C211 1_555 1_555
H167 C212 1_555 1_555
C213 N47 1_555 1_555
H168 C213 1_555 1_555
C214 N47 1_555 1_555
H169 C214 1_555 1_555
H170 C214 1_555 1_555
C215 C205 1_555 1_555
C216 C215 1_555 1_555
H171 C216 1_555 1_555
C217 C216 1_555 1_555
H172 C217 1_555 1_555
C218 C217 1_555 1_555
H173 C218 1_555 1_555
C219 C218 1_555 1_555
C220 C215 1_555 1_555
C221 C220 1_555 1_555
H174 C221 1_555 1_555
C222 C221 1_555 1_555
H175 C222 1_555 1_555
C223 C222 1_555 1_555
H176 C223 1_555 1_555
C224 C214 1_555 1_555
N49 Ru1 1_555 1_555
C225 N49 1_555 1_555
C226 C225 1_555 1_555
H177 C226 1_555 1_555
C227 C226 1_555 1_555
H178 C227 1_555 1_555
C228 C227 1_555 1_555
H179 C228 1_555 1_555
C229 N49 1_555 1_555
H180 C229 1_555 1_555
N50 N51 1_555 1_555
N51 Ru1 1_555 1_555
C230 C225 1_555 1_555
C231 C230 1_555 1_555
H181 C231 1_555 1_555
C232 N50 1_555 1_555
H182 C232 1_555 1_555
C233 N50 1_555 1_555
H183 C233 1_555 1_555
H184 C233 1_555 1_555
N52 Cd4 1_555 1_555
C234 N52 1_555 1_555
C235 C234 1_555 1_555
H185 C235 1_555 1_555
C236 C235 1_555 1_555
H186 C236 1_555 1_555
C237 C236 1_555 1_555
H187 C237 1_555 1_555
C238 N52 1_555 1_555
H188 C238 1_555 1_555
N53 N54 1_555 1_555
N54 Cd4 1_555 1_555
C239 C234 1_555 1_555
C240 C239 1_555 1_555
H189 C240 1_555 1_555
C241 N53 1_555 1_555
H190 C241 1_555 1_555
C242 N53 1_555 1_555
H191 C242 1_555 1_555
H192 C242 1_555 1_555
C243 C233 1_555 1_555
C244 C243 1_555 1_555
H193 C244 1_555 1_555
C245 C244 1_555 1_555
H194 C245 1_555 1_555
C246 C245 1_555 1_555
H195 C246 1_555 1_555
C247 C246 1_555 1_555
C248 C243 1_555 1_555
C249 C248 1_555 1_555
H196 C249 1_555 1_555
C250 C249 1_555 1_555
H197 C250 1_555 1_555
C251 C250 1_555 1_555
H198 C251 1_555 1_555
C252 C242 1_555 1_555
N55 Cd3 1_555 1_555
C253 N55 1_555 1_555
C254 C253 1_555 1_555
H199 C254 1_555 1_555
C255 C254 1_555 1_555
H200 C255 1_555 1_555
C256 C255 1_555 1_555
H201 C256 1_555 1_555
C257 N55 1_555 1_555
H202 C257 1_555 1_555
N56 N57 1_555 1_555
N57 Cd3 1_555 1_555
C258 C253 1_555 1_555
C259 C258 1_555 1_555
H203 C259 1_555 1_555
C260 N56 1_555 1_555
H204 C260 1_555 1_555
C261 N56 1_555 1_555
H205 C261 1_555 1_555
H206 C261 1_555 1_555
N58 Ru4 1_555 1_555
C262 N58 1_555 1_555
C263 C262 1_555 1_555
H207 C263 1_555 1_555
C264 C263 1_555 1_555
H208 C264 1_555 1_555
C265 C264 1_555 1_555
H209 C265 1_555 1_555
C266 N58 1_555 1_555
H210 C266 1_555 1_555
N59 N60 1_555 1_555
N60 Ru4 1_555 1_555
C267 C262 1_555 1_555
C268 C267 1_555 1_555
H211 C268 1_555 1_555
C269 N59 1_555 1_555
H212 C269 1_555 1_555
C270 N59 1_555 1_555
H213 C270 1_555 1_555
H214 C270 1_555 1_555
C271 C261 1_555 1_555
C272 C271 1_555 1_555
H215 C272 1_555 1_555
C273 C272 1_555 1_555
H216 C273 1_555 1_555
C274 C273 1_555 1_555
H217 C274 1_555 1_555
C275 C274 1_555 1_555
C276 C271 1_555 1_555
C277 C276 1_555 1_555
H218 C277 1_555 1_555
C278 C277 1_555 1_555
H219 C278 1_555 1_555
C279 C278 1_555 1_555
H220 C279 1_555 1_555
C280 C270 1_555 1_555
N61 Cd2 1_555 1_555
C281 N61 1_555 1_555
C282 C281 1_555 1_555
H221 C282 1_555 1_555
C283 C282 1_555 1_555
H222 C283 1_555 1_555
C284 C283 1_555 1_555
H223 C284 1_555 1_555
C285 N61 1_555 1_555
H224 C285 1_555 1_555
N62 N63 1_555 1_555
N63 Cd2 1_555 1_555
C286 C281 1_555 1_555
C287 C286 1_555 1_555
H225 C287 1_555 1_555
C288 N62 1_555 1_555
H226 C288 1_555 1_555
C289 N62 1_555 1_555
H227 C289 1_555 1_555
H228 C289 1_555 1_555
N64 Ru4 1_555 1_555
C290 N64 1_555 1_555
C291 C290 1_555 1_555
H229 C291 1_555 1_555
C292 C291 1_555 1_555
H230 C292 1_555 1_555
C293 C292 1_555 1_555
H231 C293 1_555 1_555
C294 N64 1_555 1_555
H232 C294 1_555 1_555
N65 N66 1_555 1_555
N66 Ru4 1_555 1_555
C295 C290 1_555 1_555
C296 C295 1_555 1_555
H233 C296 1_555 1_555
C297 N65 1_555 1_555
H234 C297 1_555 1_555
C298 N65 1_555 1_555
H235 C298 1_555 1_555
H236 C298 1_555 1_555
C299 C289 1_555 1_555
C300 C299 1_555 1_555
H237 C300 1_555 1_555
C301 C300 1_555 1_555
H238 C301 1_555 1_555
C302 C301 1_555 1_555
H239 C302 1_555 1_555
C303 C302 1_555 1_555
C304 C299 1_555 1_555
C305 C304 1_555 1_555
H240 C305 1_555 1_555
C306 C305 1_555 1_555
H241 C306 1_555 1_555
C307 C306 1_555 1_555
H242 C307 1_555 1_555
C308 C298 1_555 1_555
N67 Ru2 1_555 1_555
C309 N67 1_555 1_555
C310 C309 1_555 1_555
H243 C310 1_555 1_555
C311 C310 1_555 1_555
H244 C311 1_555 1_555
C312 C311 1_555 1_555
H245 C312 1_555 1_555
C313 N67 1_555 1_555
H246 C313 1_555 1_555
N68 N69 1_555 1_555
N69 Ru2 1_555 1_555
C314 C309 1_555 1_555
C315 C314 1_555 1_555
H247 C315 1_555 1_555
C316 N68 1_555 1_555
H248 C316 1_555 1_555
C317 N68 1_555 1_555
H249 C317 1_555 1_555
H250 C317 1_555 1_555
N70 Cd2 1_555 1_555
C318 N70 1_555 1_555
C319 C318 1_555 1_555
H251 C319 1_555 1_555
C320 C319 1_555 1_555
H252 C320 1_555 1_555
C321 C320 1_555 1_555
H253 C321 1_555 1_555
C322 N70 1_555 1_555
H254 C322 1_555 1_555
N71 N72 1_555 1_555
N72 Cd2 1_555 1_555
C323 C318 1_555 1_555
C324 C323 1_555 1_555
H255 C324 1_555 1_555
C325 N71 1_555 1_555
H256 C325 1_555 1_555
C326 N71 1_555 1_555
H257 C326 1_555 1_555
H258 C326 1_555 1_555
C327 C317 1_555 1_555
C328 C327 1_555 1_555
H259 C328 1_555 1_555
C329 C328 1_555 1_555
H260 C329 1_555 1_555
C330 C329 1_555 1_555
H261 C330 1_555 1_555
C331 C330 1_555 1_555
C332 C327 1_555 1_555
C333 C332 1_555 1_555
H262 C333 1_555 1_555
C334 C333 1_555 1_555
H263 C334 1_555 1_555
C335 C334 1_555 1_555
H264 C335 1_555 1_555
C336 C326 1_555 1_555
Cl1 O1 1_555 1_555
O2 Cl1 1_555 1_555
O3 Cl1 1_555 1_555
O4 Cl1 1_555 1_555
Cl2 O5 1_555 1_555
O6 Cl2 1_555 1_555
O7 Cl2 1_555 1_555
O8 Cl2 1_555 1_555
Cl3 O9 1_555 1_555
O10 Cl3 1_555 1_555
O11 Cl3 1_555 1_555
O12 Cl3 1_555 1_555
Cl4 O13 1_555 1_555
O14 Cl4 1_555 1_555
O15 Cl4 1_555 1_555
O16 Cl4 1_555 1_555
Cl5 O17 1_555 1_555
O18 Cl5 1_555 1_555
O19 Cl5 1_555 1_555
O20 Cl5 1_555 1_555
Cl6 O21 1_555 1_555
O22 Cl6 1_555 1_555
O23 Cl6 1_555 1_555
O24 Cl6 1_555 1_555
Cl7 O25 1_555 1_555
O26 Cl7 1_555 1_555
O27 Cl7 1_555 1_555
O28 Cl7 1_555 1_555
Cl8 O29 1_555 1_555
O30 Cl8 1_555 1_555
O31 Cl8 1_555 1_555
O32 Cl8 1_555 1_555
Cl9 O33 1_555 1_555
O34 Cl9 1_555 1_555
O35 Cl9 1_555 1_555
O36 Cl9 1_555 1_555
Cl10 O37 1_555 1_555
O38 Cl10 1_555 1_555
O39 Cl10 1_555 1_555
O40 Cl10 1_555 1_555
Cl11 O41 1_555 1_555
O42 Cl11 1_555 1_555
O43 Cl11 1_555 1_555
O44 Cl11 1_555 1_555
Cl12 O45 1_555 1_555
O46 Cl12 1_555 1_555
O47 Cl12 1_555 1_555
O48 Cl12 1_555 1_555
Cl13 O49 1_555 1_555
O50 Cl13 1_555 1_555
O51 Cl13 1_555 1_555
O52 Cl13 1_555 1_555
Cl14 O53 1_555 1_555
O54 Cl14 1_555 1_555
O55 Cl14 1_555 1_555
O56 Cl14 1_555 1_555
Cl15 O57 1_555 1_555
O58 Cl15 1_555 1_555
O59 Cl15 1_555 1_555
O60 Cl15 1_555 1_555
Cl16 O61 1_555 1_555
O62 Cl16 1_555 1_555
O63 Cl16 1_555 1_555
O64 Cl16 1_555 1_555
N73 O65 1_555 1_555
O66 N73 1_555 1_555
C337 N73 1_555 1_555
H265 C337 1_555 1_555
H266 C337 1_555 1_555
H267 C337 1_555 1_555
N74 O67 1_555 1_555
O68 N74 1_555 1_555
C338 N74 1_555 1_555
H268 C338 1_555 1_555
H269 C338 1_555 1_555
H270 C338 1_555 1_555
N75 O69 1_555 1_555
O70 N75 1_555 1_555
C339 N75 1_555 1_555
H271 C339 1_555 1_555
H272 C339 1_555 1_555
H273 C339 1_555 1_555
N76 O71 1_555 1_555
O72 N76 1_555 1_555
C340 N76 1_555 1_555
H274 C340 1_555 1_555
H275 C340 1_555 1_555
H276 C340 1_555 1_555
N77 O73 1_555 1_555
O74 N77 1_555 1_555
C341 N77 1_555 1_555
H277 C341 1_555 1_555
H278 C341 1_555 1_555
H279 C341 1_555 1_555
N78 O75 1_555 1_555
O76 N78 1_555 1_555
C342 N78 1_555 1_555
H280 C342 1_555 1_555
H281 C342 1_555 1_555
H282 C342 1_555 1_555
N79 O77 1_555 1_555
O78 N79 1_555 1_555
C343 N79 1_555 1_555
H283 C343 1_555 1_555
H284 C343 1_555 1_555
H285 C343 1_555 1_555
N80 O79 1_555 1_555
O80 N80 1_555 1_555
C344 N80 1_555 1_555
H286 C344 1_555 1_555
H287 C344 1_555 1_555
H288 C344 1_555 1_555
N81 O81 1_555 1_555
O82 N81 1_555 1_555
C345 N81 1_555 1_555
H289 C345 1_555 1_555
H290 C345 1_555 1_555
H291 C345 1_555 1_555
N82 O83 1_555 1_555
O84 N82 1_555 1_555
C346 N82 1_555 1_555
H292 C346 1_555 1_555
H293 C346 1_555 1_555
H294 C346 1_555 1_555
N83 O85 1_555 1_555
O86 N83 1_555 1_555
C347 N83 1_555 1_555
H295 C347 1_555 1_555
H296 C347 1_555 1_555
H297 C347 1_555 1_555
Cd5 O87 1_555 1_555
O88 Cd5 1_555 1_555
O89 Cd5 1_555 1_555
O90 Cd5 1_555 1_555
O91 Cd5 1_555 1_555
O92 Cd5 1_555 1_555
C4 C5 1_555 1_555
N3 C6 1_555 1_555
C7 C8 1_555 1_555
C13 C14 1_555 1_555
N6 C15 1_555 1_555
C16 C17 1_555 1_555
C23 C24 1_555 1_555
C23 C28 1_555 1_555
C27 C28 1_555 1_555
C32 C33 1_555 1_555
N9 C34 1_555 1_555
C35 C36 1_555 1_555
C41 C42 1_555 1_555
N12 C43 1_555 1_555
C44 C45 1_555 1_555
C51 C52 1_555 1_555
C51 C56 1_555 1_555
C55 C56 1_555 1_555
C60 C61 1_555 1_555
N15 C62 1_555 1_555
C63 C64 1_555 1_555
C69 C70 1_555 1_555
N18 C71 1_555 1_555
C72 C73 1_555 1_555
C79 C80 1_555 1_555
C79 C84 1_555 1_555
C83 C84 1_555 1_555
C88 C89 1_555 1_555
N21 C90 1_555 1_555
C91 C92 1_555 1_555
C97 C98 1_555 1_555
N23 C101 1_555 1_555
C100 C101 1_555 1_555
C107 C108 1_555 1_555
C107 C112 1_555 1_555
C111 C112 1_555 1_555
C116 C117 1_555 1_555
N27 C118 1_555 1_555
C119 C120 1_555 1_555
C125 C126 1_555 1_555
N30 C127 1_555 1_555
C128 C129 1_555 1_555
C135 C136 1_555 1_555
C135 C140 1_555 1_555
C139 C140 1_555 1_555
C144 C145 1_555 1_555
N33 C146 1_555 1_555
C147 C148 1_555 1_555
C153 C154 1_555 1_555
N36 C155 1_555 1_555
C156 C157 1_555 1_555
C163 C164 1_555 1_555
C163 C168 1_555 1_555
C167 C168 1_555 1_555
C172 C173 1_555 1_555
N39 C174 1_555 1_555
C175 C176 1_555 1_555
C181 C182 1_555 1_555
N42 C183 1_555 1_555
C184 C185 1_555 1_555
C191 C192 1_555 1_555
C191 C196 1_555 1_555
C195 C196 1_555 1_555
C200 C201 1_555 1_555
N45 C202 1_555 1_555
C203 C204 1_555 1_555
C209 C210 1_555 1_555
N48 C211 1_555 1_555
C212 C213 1_555 1_555
C219 C220 1_555 1_555
C219 C224 1_555 1_555
C223 C224 1_555 1_555
C228 C229 1_555 1_555
N51 C230 1_555 1_555
C231 C232 1_555 1_555
C237 C238 1_555 1_555
N54 C239 1_555 1_555
C240 C241 1_555 1_555
C247 C248 1_555 1_555
C247 C252 1_555 1_555
C251 C252 1_555 1_555
C256 C257 1_555 1_555
N57 C258 1_555 1_555
C259 C260 1_555 1_555
C265 C266 1_555 1_555
N60 C267 1_555 1_555
C268 C269 1_555 1_555
C275 C276 1_555 1_555
C275 C280 1_555 1_555
C279 C280 1_555 1_555
C284 C285 1_555 1_555
N63 C286 1_555 1_555
C287 C288 1_555 1_555
C293 C294 1_555 1_555
N66 C295 1_555 1_555
C296 C297 1_555 1_555
C303 C304 1_555 1_555
C303 C308 1_555 1_555
C307 C308 1_555 1_555
C312 C313 1_555 1_555
N69 C314 1_555 1_555
C315 C316 1_555 1_555
C321 C322 1_555 1_555
N72 C323 1_555 1_555
C324 C325 1_555 1_555
C331 C332 1_555 1_555
C331 C336 1_555 1_555
C335 C336 1_555 1_555

#END
