# generated using pymatgen
data_Cd5H297Ru4C347N83Cl17O96
_symmetry_space_group_name_H-M   'P 1'
_cell_length_a   23.00270000
_cell_length_b   40.88800000
_cell_length_c   50.52900000
_cell_angle_alpha   90.00000000
_cell_angle_beta   100.98900000
_cell_angle_gamma   90.00000000
_symmetry_Int_Tables_number   1
_chemical_formula_structural   Cd5H297Ru4C347N83Cl17O96
_chemical_formula_sum   'Cd20 H1188 Ru16 C1388 N332 Cl68 O384'
_cell_volume   46652.84810040
_cell_formula_units_Z   4
loop_
 _symmetry_equiv_pos_site_id
 _symmetry_equiv_pos_as_xyz
  1  'x, y, z'
loop_
 _atom_site_type_symbol
 _atom_site_label
 _atom_site_symmetry_multiplicity
 _atom_site_fract_x
 _atom_site_fract_y
 _atom_site_fract_z
 _atom_site_occupancy
  Cd  Cd1  1  0.006940  0.481310  0.366690  1
  Cd  Cd2  1  0.993060  0.981310  0.133310  1
  Cd  Cd3  1  0.993060  0.518690  0.633310  1
  Cd  Cd4  1  0.006940  0.018690  0.866690  1
  Cd  Cd5  1  0.432530  0.274120  0.269240  1
  Cd  Cd6  1  0.567470  0.774120  0.230760  1
  Cd  Cd7  1  0.567470  0.725880  0.730760  1
  Cd  Cd8  1  0.432530  0.225880  0.769240  1
  Cd  Cd9  1  0.037210  0.130130  0.229220  1
  Cd  Cd10  1  0.962790  0.630130  0.270780  1
  Cd  Cd11  1  0.962790  0.869870  0.770780  1
  Cd  Cd12  1  0.037210  0.369870  0.729220  1
  Cd  Cd13  1  0.876580  0.144460  0.524400  1
  Cd  Cd14  1  0.123420  0.644460  0.975600  1
  Cd  Cd15  1  0.123420  0.855540  0.475600  1
  Cd  Cd16  1  0.876580  0.355540  0.024400  1
  Cd  Cd17  1  0.484360  0.351250  0.642310  1
  Cd  Cd18  1  0.515640  0.851250  0.857690  1
  Cd  Cd19  1  0.515640  0.648750  0.357690  1
  Cd  Cd20  1  0.484360  0.148750  0.142310  1
  H  H21  1  0.065400  0.600400  0.392500  1
  H  H22  1  0.934600  0.100400  0.107500  1
  H  H23  1  0.934600  0.399600  0.607500  1
  H  H24  1  0.065400  0.899600  0.892500  1
  H  H25  1  0.161800  0.600100  0.383900  1
  H  H26  1  0.838200  0.100100  0.116100  1
  H  H27  1  0.838200  0.399900  0.616100  1
  H  H28  1  0.161800  0.899900  0.883900  1
  H  H29  1  0.200600  0.552400  0.368500  1
  H  H30  1  0.799400  0.052400  0.131500  1
  H  H31  1  0.799400  0.447600  0.631500  1
  H  H32  1  0.200600  0.947600  0.868500  1
  H  H33  1  0.142900  0.504900  0.361700  1
  H  H34  1  0.857100  0.004900  0.138300  1
  H  H35  1  0.857100  0.495100  0.638300  1
  H  H36  1  0.142900  0.995100  0.861700  1
  H  H37  1  0.966900  0.594000  0.406900  1
  H  H38  1  0.033100  0.094000  0.093100  1
  H  H39  1  0.033100  0.406000  0.593100  1
  H  H40  1  0.966900  0.906000  0.906900  1
  H  H41  1  0.867800  0.566600  0.406500  1
  H  H42  1  0.132200  0.066600  0.093500  1
  H  H43  1  0.132200  0.433400  0.593500  1
  H  H44  1  0.867800  0.933400  0.906500  1
  H  H45  1  0.862400  0.486800  0.369400  1
  H  H46  1  0.137600  0.986800  0.130600  1
  H  H47  1  0.137600  0.513200  0.630600  1
  H  H48  1  0.862400  0.013200  0.869400  1
  H  H49  1  0.818900  0.509700  0.382400  1
  H  H50  1  0.181100  0.009700  0.117600  1
  H  H51  1  0.181100  0.490300  0.617600  1
  H  H52  1  0.818900  0.990300  0.882400  1
  H  H53  1  0.594800  0.278000  0.430900  1
  H  H54  1  0.405200  0.778000  0.069100  1
  H  H55  1  0.405200  0.722000  0.569100  1
  H  H56  1  0.594800  0.222000  0.930900  1
  H  H57  1  0.502700  0.272600  0.443700  1
  H  H58  1  0.497300  0.772600  0.056300  1
  H  H59  1  0.497300  0.727400  0.556300  1
  H  H60  1  0.502700  0.227400  0.943700  1
  H  H61  1  0.466600  0.314600  0.467500  1
  H  H62  1  0.533400  0.814600  0.032500  1
  H  H63  1  0.533400  0.685400  0.532500  1
  H  H64  1  0.466600  0.185400  0.967500  1
  H  H65  1  0.522700  0.362100  0.478600  1
  H  H66  1  0.477300  0.862100  0.021400  1
  H  H67  1  0.477300  0.637900  0.521400  1
  H  H68  1  0.522700  0.137900  0.978600  1
  H  H69  1  0.701500  0.283900  0.426900  1
  H  H70  1  0.298500  0.783900  0.073100  1
  H  H71  1  0.298500  0.716100  0.573100  1
  H  H72  1  0.701500  0.216100  0.926900  1
  H  H73  1  0.800200  0.313100  0.431800  1
  H  H74  1  0.199800  0.813100  0.068200  1
  H  H75  1  0.199800  0.686900  0.568200  1
  H  H76  1  0.800200  0.186900  0.931800  1
  H  H77  1  0.840000  0.369100  0.454700  1
  H  H78  1  0.160000  0.869100  0.045300  1
  H  H79  1  0.160000  0.630900  0.545300  1
  H  H80  1  0.840000  0.130900  0.954700  1
  H  H81  1  0.795000  0.390900  0.467500  1
  H  H82  1  0.205000  0.890900  0.032500  1
  H  H83  1  0.205000  0.609100  0.532500  1
  H  H84  1  0.795000  0.109100  0.967500  1
  H  H85  1  0.936900  0.500200  0.432800  1
  H  H86  1  0.063100  0.000200  0.067200  1
  H  H87  1  0.063100  0.499800  0.567200  1
  H  H88  1  0.936900  0.999800  0.932800  1
  H  H89  1  0.947600  0.463100  0.468600  1
  H  H90  1  0.052400  0.963100  0.031400  1
  H  H91  1  0.052400  0.536900  0.531400  1
  H  H92  1  0.947600  0.036900  0.968600  1
  H  H93  1  0.883200  0.418400  0.466600  1
  H  H94  1  0.116800  0.918400  0.033400  1
  H  H95  1  0.116800  0.581600  0.533400  1
  H  H96  1  0.883200  0.081600  0.966600  1
  H  H97  1  0.778900  0.461900  0.371300  1
  H  H98  1  0.221100  0.961900  0.128700  1
  H  H99  1  0.221100  0.538100  0.628700  1
  H  H100  1  0.778900  0.038100  0.871300  1
  H  H101  1  0.714500  0.417300  0.369200  1
  H  H102  1  0.285500  0.917300  0.130800  1
  H  H103  1  0.285500  0.582700  0.630800  1
  H  H104  1  0.714500  0.082700  0.869200  1
  H  H105  1  0.725200  0.380100  0.405000  1
  H  H106  1  0.274800  0.880100  0.095000  1
  H  H107  1  0.274800  0.619900  0.595000  1
  H  H108  1  0.725200  0.119900  0.905000  1
  H  H109  1  0.013300  0.474200  0.266000  1
  H  H110  1  0.986700  0.974200  0.234000  1
  H  H111  1  0.986700  0.525800  0.734000  1
  H  H112  1  0.013300  0.025800  0.766000  1
  H  H113  1  0.926700  0.503400  0.249100  1
  H  H114  1  0.073300  0.003400  0.250900  1
  H  H115  1  0.073300  0.496600  0.750900  1
  H  H116  1  0.926700  0.996600  0.749100  1
  H  H117  1  0.871000  0.526100  0.278700  1
  H  H118  1  0.129000  0.026100  0.221300  1
  H  H119  1  0.129000  0.473900  0.721300  1
  H  H120  1  0.871000  0.973900  0.778700  1
  H  H121  1  0.901900  0.519600  0.325300  1
  H  H122  1  0.098100  0.019600  0.174700  1
  H  H123  1  0.098100  0.480400  0.674700  1
  H  H124  1  0.901900  0.980400  0.825300  1
  H  H125  1  0.111800  0.452700  0.288000  1
  H  H126  1  0.888200  0.952700  0.212000  1
  H  H127  1  0.888200  0.547300  0.712000  1
  H  H128  1  0.111800  0.047300  0.788000  1
  H  H129  1  0.187000  0.429600  0.326800  1
  H  H130  1  0.813000  0.929600  0.173200  1
  H  H131  1  0.813000  0.570400  0.673200  1
  H  H132  1  0.187000  0.070400  0.826800  1
  H  H133  1  0.136700  0.441500  0.391800  1
  H  H134  1  0.863300  0.941500  0.108200  1
  H  H135  1  0.863300  0.558500  0.608200  1
  H  H136  1  0.136700  0.058500  0.891800  1
  H  H137  1  0.191200  0.426100  0.380500  1
  H  H138  1  0.808800  0.926100  0.119500  1
  H  H139  1  0.808800  0.573900  0.619500  1
  H  H140  1  0.191200  0.073900  0.880500  1
  H  H141  1  0.230400  0.202000  0.522600  1
  H  H142  1  0.769600  0.702000  0.977400  1
  H  H143  1  0.769600  0.798000  0.477400  1
  H  H144  1  0.230400  0.298000  0.022600  1
  H  H145  1  0.305600  0.162700  0.526800  1
  H  H146  1  0.694400  0.662700  0.973200  1
  H  H147  1  0.694400  0.837300  0.473200  1
  H  H148  1  0.305600  0.337300  0.026800  1
  H  H149  1  0.356300  0.154300  0.491400  1
  H  H150  1  0.643700  0.654300  0.008600  1
  H  H151  1  0.643700  0.845700  0.508600  1
  H  H152  1  0.356300  0.345700  0.991400  1
  H  H153  1  0.331900  0.185200  0.451800  1
  H  H154  1  0.668100  0.685200  0.048200  1
  H  H155  1  0.668100  0.814800  0.548200  1
  H  H156  1  0.331900  0.314800  0.951800  1
  H  H157  1  0.152100  0.246300  0.515000  1
  H  H158  1  0.847900  0.746300  0.985000  1
  H  H159  1  0.847900  0.753700  0.485000  1
  H  H160  1  0.152100  0.253700  0.015000  1
  H  H161  1  0.082400  0.285800  0.486000  1
  H  H162  1  0.917600  0.785800  0.014000  1
  H  H163  1  0.917600  0.714200  0.514000  1
  H  H164  1  0.082400  0.214200  0.986000  1
  H  H165  1  0.062100  0.293500  0.429300  1
  H  H166  1  0.937900  0.793500  0.070700  1
  H  H167  1  0.937900  0.706500  0.570700  1
  H  H168  1  0.062100  0.206500  0.929300  1
  H  H169  1  0.114000  0.279800  0.415400  1
  H  H170  1  0.886000  0.779800  0.084600  1
  H  H171  1  0.886000  0.720200  0.584600  1
  H  H172  1  0.114000  0.220200  0.915400  1
  H  H173  1  0.069700  0.392500  0.343100  1
  H  H174  1  0.930300  0.892500  0.156900  1
  H  H175  1  0.930300  0.607500  0.656900  1
  H  H176  1  0.069700  0.107500  0.843100  1
  H  H177  1  0.027200  0.341300  0.347700  1
  H  H178  1  0.972800  0.841300  0.152300  1
  H  H179  1  0.972800  0.658700  0.652300  1
  H  H180  1  0.027200  0.158700  0.847700  1
  H  H181  1  0.055100  0.311500  0.387600  1
  H  H182  1  0.944900  0.811500  0.112400  1
  H  H183  1  0.944900  0.688500  0.612400  1
  H  H184  1  0.055100  0.188500  0.887600  1
  H  H185  1  0.198800  0.408700  0.423200  1
  H  H186  1  0.801200  0.908700  0.076800  1
  H  H187  1  0.801200  0.591300  0.576800  1
  H  H188  1  0.198800  0.091300  0.923200  1
  H  H189  1  0.226700  0.378900  0.463100  1
  H  H190  1  0.773300  0.878900  0.036900  1
  H  H191  1  0.773300  0.621100  0.536900  1
  H  H192  1  0.226700  0.121100  0.963100  1
  H  H193  1  0.184200  0.327700  0.467600  1
  H  H194  1  0.815800  0.827700  0.032400  1
  H  H195  1  0.815800  0.672300  0.532400  1
  H  H196  1  0.184200  0.172300  0.967600  1
  H  H197  1  0.018300  0.394500  0.440000  1
  H  H198  1  0.981700  0.894500  0.060000  1
  H  H199  1  0.981700  0.605500  0.560000  1
  H  H200  1  0.018300  0.105500  0.940000  1
  H  H201  1  0.093400  0.417900  0.472200  1
  H  H202  1  0.906600  0.917900  0.027800  1
  H  H203  1  0.906600  0.582100  0.527800  1
  H  H204  1  0.093400  0.082100  0.972200  1
  H  H205  1  0.133800  0.468500  0.463700  1
  H  H206  1  0.866200  0.968500  0.036300  1
  H  H207  1  0.866200  0.531500  0.536300  1
  H  H208  1  0.133800  0.031500  0.963700  1
  H  H209  1  0.099000  0.495700  0.423000  1
  H  H210  1  0.901000  0.995700  0.077000  1
  H  H211  1  0.901000  0.504300  0.577000  1
  H  H212  1  0.099000  0.004300  0.923000  1
  H  H213  1  0.931900  0.376500  0.407100  1
  H  H214  1  0.068100  0.876500  0.092900  1
  H  H215  1  0.068100  0.623500  0.592900  1
  H  H216  1  0.931900  0.123500  0.907100  1
  H  H217  1  0.855100  0.379200  0.363900  1
  H  H218  1  0.144900  0.879200  0.136100  1
  H  H219  1  0.144900  0.620800  0.636100  1
  H  H220  1  0.855100  0.120800  0.863900  1
  H  H221  1  0.870100  0.456500  0.327400  1
  H  H222  1  0.129900  0.956500  0.172600  1
  H  H223  1  0.129900  0.543500  0.672600  1
  H  H224  1  0.870100  0.043500  0.827400  1
  H  H225  1  0.827900  0.425200  0.325400  1
  H  H226  1  0.172100  0.925200  0.174600  1
  H  H227  1  0.172100  0.574800  0.674600  1
  H  H228  1  0.827900  0.074800  0.825400  1
  H  H229  1  0.769200  0.452200  0.097900  1
  H  H230  1  0.230800  0.952200  0.402100  1
  H  H231  1  0.230800  0.547800  0.902100  1
  H  H232  1  0.769200  0.047800  0.597900  1
  H  H233  1  0.695000  0.428700  0.065300  1
  H  H234  1  0.305000  0.928700  0.434700  1
  H  H235  1  0.305000  0.571300  0.934700  1
  H  H236  1  0.695000  0.071300  0.565300  1
  H  H237  1  0.657900  0.376800  0.072600  1
  H  H238  1  0.342100  0.876800  0.427400  1
  H  H239  1  0.342100  0.623200  0.927400  1
  H  H240  1  0.657900  0.123200  0.572600  1
  H  H241  1  0.695100  0.348400  0.112400  1
  H  H242  1  0.304900  0.848400  0.387600  1
  H  H243  1  0.304900  0.651600  0.887600  1
  H  H244  1  0.695100  0.151600  0.612400  1
  H  H245  1  0.847200  0.473800  0.133600  1
  H  H246  1  0.152800  0.973800  0.366400  1
  H  H247  1  0.152800  0.526200  0.866400  1
  H  H248  1  0.847200  0.026200  0.633600  1
  H  H249  1  0.921500  0.470700  0.177700  1
  H  H250  1  0.078500  0.970700  0.322300  1
  H  H251  1  0.078500  0.529300  0.822300  1
  H  H252  1  0.921500  0.029300  0.677700  1
  H  H253  1  0.951400  0.419500  0.213400  1
  H  H254  1  0.048600  0.919500  0.286600  1
  H  H255  1  0.048600  0.580500  0.786600  1
  H  H256  1  0.951400  0.080500  0.713400  1
  H  H257  1  0.907900  0.388700  0.209100  1
  H  H258  1  0.092100  0.888700  0.290900  1
  H  H259  1  0.092100  0.611300  0.790900  1
  H  H260  1  0.907900  0.111300  0.709100  1
  H  H261  1  0.965000  0.394000  0.329800  1
  H  H262  1  0.035000  0.894000  0.170200  1
  H  H263  1  0.035000  0.606000  0.670200  1
  H  H264  1  0.965000  0.106000  0.829800  1
  H  H265  1  0.011900  0.376400  0.295100  1
  H  H266  1  0.988100  0.876400  0.204900  1
  H  H267  1  0.988100  0.623600  0.704900  1
  H  H268  1  0.011900  0.123600  0.795100  1
  H  H269  1  0.972900  0.390600  0.250400  1
  H  H270  1  0.027100  0.890600  0.249600  1
  H  H271  1  0.027100  0.609400  0.749600  1
  H  H272  1  0.972900  0.109400  0.750400  1
  H  H273  1  0.804900  0.453200  0.287300  1
  H  H274  1  0.195100  0.953200  0.212700  1
  H  H275  1  0.195100  0.546800  0.712700  1
  H  H276  1  0.804900  0.046800  0.787300  1
  H  H277  1  0.765900  0.467400  0.242500  1
  H  H278  1  0.234100  0.967400  0.257500  1
  H  H279  1  0.234100  0.532600  0.757500  1
  H  H280  1  0.765900  0.032600  0.742500  1
  H  H281  1  0.812700  0.449700  0.207900  1
  H  H282  1  0.187300  0.949700  0.292100  1
  H  H283  1  0.187300  0.550300  0.792100  1
  H  H284  1  0.812700  0.050300  0.707900  1
  H  H285  1  0.895800  0.050500  0.593400  1
  H  H286  1  0.104200  0.550500  0.906600  1
  H  H287  1  0.104200  0.949500  0.406600  1
  H  H288  1  0.895800  0.449500  0.093400  1
  H  H289  1  0.972600  0.071600  0.626100  1
  H  H290  1  0.027400  0.571600  0.873900  1
  H  H291  1  0.027400  0.928400  0.373900  1
  H  H292  1  0.972600  0.428400  0.126100  1
  H  H293  1  0.013500  0.122700  0.619600  1
  H  H294  1  0.986500  0.622700  0.880400  1
  H  H295  1  0.986500  0.877300  0.380400  1
  H  H296  1  0.013500  0.377300  0.119600  1
  H  H297  1  0.977700  0.152700  0.580500  1
  H  H298  1  0.022300  0.652700  0.919500  1
  H  H299  1  0.022300  0.847300  0.419500  1
  H  H300  1  0.977700  0.347300  0.080500  1
  H  H301  1  0.818900  0.030000  0.556400  1
  H  H302  1  0.181100  0.530000  0.943600  1
  H  H303  1  0.181100  0.970000  0.443600  1
  H  H304  1  0.818900  0.470000  0.056400  1
  H  H305  1  0.743200  0.034600  0.512900  1
  H  H306  1  0.256800  0.534600  0.987100  1
  H  H307  1  0.256800  0.965400  0.487100  1
  H  H308  1  0.743200  0.465400  0.012900  1
  H  H309  1  0.751400  0.119200  0.483300  1
  H  H310  1  0.248600  0.619200  0.016700  1
  H  H311  1  0.248600  0.880800  0.516700  1
  H  H312  1  0.751400  0.380800  0.983300  1
  H  H313  1  0.709800  0.087600  0.477800  1
  H  H314  1  0.290200  0.587600  0.022200  1
  H  H315  1  0.290200  0.912400  0.522200  1
  H  H316  1  0.709800  0.412400  0.977800  1
  H  H317  1  0.630100  0.118600  0.251200  1
  H  H318  1  0.369900  0.618600  0.248800  1
  H  H319  1  0.369900  0.881400  0.748800  1
  H  H320  1  0.630100  0.381400  0.751200  1
  H  H321  1  0.552000  0.093200  0.221900  1
  H  H322  1  0.448000  0.593200  0.278100  1
  H  H323  1  0.448000  0.906800  0.778100  1
  H  H324  1  0.552000  0.406800  0.721900  1
  H  H325  1  0.512300  0.044300  0.234600  1
  H  H326  1  0.487700  0.544300  0.265400  1
  H  H327  1  0.487700  0.955700  0.765400  1
  H  H328  1  0.512300  0.455700  0.734600  1
  H  H329  1  0.550700  0.020700  0.276500  1
  H  H330  1  0.449300  0.520700  0.223500  1
  H  H331  1  0.449300  0.979300  0.723500  1
  H  H332  1  0.550700  0.479300  0.776500  1
  H  H333  1  0.797100  0.138400  0.326100  1
  H  H334  1  0.202900  0.638400  0.173900  1
  H  H335  1  0.202900  0.861600  0.673900  1
  H  H336  1  0.797100  0.361600  0.826100  1
  H  H337  1  0.715400  0.140700  0.284500  1
  H  H338  1  0.284600  0.640700  0.215500  1
  H  H339  1  0.284600  0.859300  0.715500  1
  H  H340  1  0.715400  0.359300  0.784500  1
  H  H341  1  0.830100  0.091700  0.363300  1
  H  H342  1  0.169900  0.591700  0.136700  1
  H  H343  1  0.169900  0.908300  0.636700  1
  H  H344  1  0.830100  0.408300  0.863300  1
  H  H345  1  0.789200  0.059900  0.361600  1
  H  H346  1  0.210800  0.559900  0.138400  1
  H  H347  1  0.210800  0.940100  0.638400  1
  H  H348  1  0.789200  0.440100  0.861600  1
  H  H349  1  0.849700  0.057600  0.481400  1
  H  H350  1  0.150300  0.557600  0.018600  1
  H  H351  1  0.150300  0.942400  0.518600  1
  H  H352  1  0.849700  0.442400  0.981400  1
  H  H353  1  0.894400  0.042400  0.445400  1
  H  H354  1  0.105600  0.542400  0.054600  1
  H  H355  1  0.105600  0.957600  0.554600  1
  H  H356  1  0.894400  0.457600  0.945400  1
  H  H357  1  0.854600  0.060300  0.401700  1
  H  H358  1  0.145400  0.560300  0.098300  1
  H  H359  1  0.145400  0.939700  0.598300  1
  H  H360  1  0.854600  0.439700  0.901700  1
  H  H361  1  0.691400  0.121100  0.443300  1
  H  H362  1  0.308600  0.621100  0.056700  1
  H  H363  1  0.308600  0.878900  0.556700  1
  H  H364  1  0.691400  0.378900  0.943300  1
  H  H365  1  0.651600  0.139000  0.399600  1
  H  H366  1  0.348400  0.639000  0.100400  1
  H  H367  1  0.348400  0.861000  0.600400  1
  H  H368  1  0.651600  0.361000  0.899600  1
  H  H369  1  0.696300  0.123700  0.363600  1
  H  H370  1  0.303700  0.623700  0.136400  1
  H  H371  1  0.303700  0.876300  0.636400  1
  H  H372  1  0.696300  0.376300  0.863600  1
  H  H373  1  0.939900  0.030200  0.263100  1
  H  H374  1  0.060100  0.530200  0.236900  1
  H  H375  1  0.060100  0.969800  0.736900  1
  H  H376  1  0.939900  0.469800  0.763100  1
  H  H377  1  0.867800  0.020100  0.224700  1
  H  H378  1  0.132200  0.520100  0.275300  1
  H  H379  1  0.132200  0.979900  0.775300  1
  H  H380  1  0.867800  0.479900  0.724700  1
  H  H381  1  0.864700  0.051900  0.185900  1
  H  H382  1  0.135300  0.551900  0.314100  1
  H  H383  1  0.135300  0.948100  0.814100  1
  H  H384  1  0.864700  0.448100  0.685900  1
  H  H385  1  0.933700  0.093900  0.185700  1
  H  H386  1  0.066300  0.593900  0.314300  1
  H  H387  1  0.066300  0.906100  0.814300  1
  H  H388  1  0.933700  0.406100  0.685700  1
  H  H389  1  0.024300  0.039600  0.299900  1
  H  H390  1  0.975700  0.539600  0.200100  1
  H  H391  1  0.975700  0.960400  0.700100  1
  H  H392  1  0.024300  0.460400  0.799900  1
  H  H393  1  0.111400  0.071300  0.326100  1
  H  H394  1  0.888600  0.571300  0.173900  1
  H  H395  1  0.888600  0.928700  0.673900  1
  H  H396  1  0.111400  0.428700  0.826100  1
  H  H397  1  0.159400  0.133000  0.282400  1
  H  H398  1  0.840600  0.633000  0.217600  1
  H  H399  1  0.840600  0.867000  0.717600  1
  H  H400  1  0.159400  0.367000  0.782400  1
  H  H401  1  0.178300  0.117500  0.311900  1
  H  H402  1  0.821700  0.617500  0.188100  1
  H  H403  1  0.821700  0.882500  0.688100  1
  H  H404  1  0.178300  0.382500  0.811900  1
  H  H405  1  0.324900  0.357500  0.426400  1
  H  H406  1  0.675100  0.857500  0.073600  1
  H  H407  1  0.675100  0.642500  0.573600  1
  H  H408  1  0.324900  0.142500  0.926400  1
  H  H409  1  0.378900  0.359100  0.470600  1
  H  H410  1  0.621100  0.859100  0.029400  1
  H  H411  1  0.621100  0.640900  0.529400  1
  H  H412  1  0.378900  0.140900  0.970600  1
  H  H413  1  0.378500  0.313900  0.499000  1
  H  H414  1  0.621500  0.813900  0.001000  1
  H  H415  1  0.621500  0.686100  0.501000  1
  H  H416  1  0.378500  0.186100  0.999000  1
  H  H417  1  0.324000  0.267200  0.483200  1
  H  H418  1  0.676000  0.767200  0.016800  1
  H  H419  1  0.676000  0.732800  0.516800  1
  H  H420  1  0.324000  0.232800  0.983200  1
  H  H421  1  0.259600  0.351900  0.380500  1
  H  H422  1  0.740400  0.851900  0.119500  1
  H  H423  1  0.740400  0.648100  0.619500  1
  H  H424  1  0.259600  0.148100  0.880500  1
  H  H425  1  0.178800  0.325600  0.345800  1
  H  H426  1  0.821200  0.825600  0.154200  1
  H  H427  1  0.821200  0.674400  0.654200  1
  H  H428  1  0.178800  0.174400  0.845800  1
  H  H429  1  0.110300  0.272400  0.348700  1
  H  H430  1  0.889700  0.772400  0.151300  1
  H  H431  1  0.889700  0.727600  0.651300  1
  H  H432  1  0.110300  0.227600  0.848700  1
  H  H433  1  0.127200  0.250200  0.374900  1
  H  H434  1  0.872800  0.750200  0.125100  1
  H  H435  1  0.872800  0.749800  0.625100  1
  H  H436  1  0.127200  0.249800  0.874900  1
  H  H437  1  0.035700  0.139000  0.308000  1
  H  H438  1  0.964300  0.639000  0.192000  1
  H  H439  1  0.964300  0.861000  0.692000  1
  H  H440  1  0.035700  0.361000  0.808000  1
  H  H441  1  0.997500  0.181800  0.330200  1
  H  H442  1  0.002500  0.681800  0.169800  1
  H  H443  1  0.002500  0.818200  0.669800  1
  H  H444  1  0.997500  0.318200  0.830200  1
  H  H445  1  0.058000  0.226100  0.346800  1
  H  H446  1  0.942000  0.726100  0.153200  1
  H  H447  1  0.942000  0.773900  0.653200  1
  H  H448  1  0.058000  0.273900  0.846800  1
  H  H449  1  0.228900  0.167500  0.309000  1
  H  H450  1  0.771100  0.667500  0.191000  1
  H  H451  1  0.771100  0.832500  0.691000  1
  H  H452  1  0.228900  0.332500  0.809000  1
  H  H453  1  0.289400  0.211800  0.325700  1
  H  H454  1  0.710600  0.711800  0.174300  1
  H  H455  1  0.710600  0.788200  0.674300  1
  H  H456  1  0.289400  0.288200  0.825700  1
  H  H457  1  0.251200  0.254700  0.347900  1
  H  H458  1  0.748800  0.754700  0.152100  1
  H  H459  1  0.748800  0.745300  0.652100  1
  H  H460  1  0.251200  0.245300  0.847900  1
  H  H461  1  0.329500  0.154500  0.376000  1
  H  H462  1  0.670500  0.654500  0.124000  1
  H  H463  1  0.670500  0.845500  0.624000  1
  H  H464  1  0.329500  0.345500  0.876000  1
  H  H465  1  0.424700  0.176700  0.380900  1
  H  H466  1  0.575300  0.676700  0.119100  1
  H  H467  1  0.575300  0.823300  0.619100  1
  H  H468  1  0.424700  0.323300  0.880900  1
  H  H469  1  0.446400  0.226700  0.403100  1
  H  H470  1  0.553600  0.726700  0.096900  1
  H  H471  1  0.553600  0.773300  0.596900  1
  H  H472  1  0.446400  0.273300  0.903100  1
  H  H473  1  0.372900  0.254500  0.420300  1
  H  H474  1  0.627100  0.754500  0.079700  1
  H  H475  1  0.627100  0.745500  0.579700  1
  H  H476  1  0.372900  0.245500  0.920300  1
  H  H477  1  0.225500  0.134500  0.373700  1
  H  H478  1  0.774500  0.634500  0.126300  1
  H  H479  1  0.774500  0.865500  0.626300  1
  H  H480  1  0.225500  0.365500  0.873700  1
  H  H481  1  0.119700  0.137500  0.381300  1
  H  H482  1  0.880300  0.637500  0.118700  1
  H  H483  1  0.880300  0.862500  0.618700  1
  H  H484  1  0.119700  0.362500  0.881300  1
  H  H485  1  0.060900  0.184700  0.402800  1
  H  H486  1  0.939100  0.684700  0.097200  1
  H  H487  1  0.939100  0.815300  0.597200  1
  H  H488  1  0.060900  0.315300  0.902800  1
  H  H489  1  0.098000  0.216200  0.414200  1
  H  H490  1  0.902000  0.716200  0.085800  1
  H  H491  1  0.902000  0.783800  0.585800  1
  H  H492  1  0.098000  0.283800  0.914200  1
  H  H493  1  0.821100  0.248200  0.569300  1
  H  H494  1  0.178900  0.748200  0.930700  1
  H  H495  1  0.178900  0.751800  0.430700  1
  H  H496  1  0.821100  0.251800  0.069300  1
  H  H497  1  0.723500  0.234800  0.572000  1
  H  H498  1  0.276500  0.734800  0.928000  1
  H  H499  1  0.276500  0.765200  0.428000  1
  H  H500  1  0.723500  0.265200  0.072000  1
  H  H501  1  0.684700  0.183700  0.557000  1
  H  H502  1  0.315300  0.683700  0.943000  1
  H  H503  1  0.315300  0.816300  0.443000  1
  H  H504  1  0.684700  0.316300  0.057000  1
  H  H505  1  0.743600  0.146000  0.539300  1
  H  H506  1  0.256400  0.646000  0.960700  1
  H  H507  1  0.256400  0.854000  0.460700  1
  H  H508  1  0.743600  0.354000  0.039300  1
  H  H509  1  0.926600  0.254700  0.573600  1
  H  H510  1  0.073400  0.754700  0.926400  1
  H  H511  1  0.073400  0.745300  0.426400  1
  H  H512  1  0.926600  0.245300  0.073600  1
  H  H513  1  0.027400  0.242000  0.562700  1
  H  H514  1  0.972600  0.742000  0.937300  1
  H  H515  1  0.972600  0.758000  0.437300  1
  H  H516  1  0.027400  0.258000  0.062700  1
  H  H517  1  0.023500  0.161300  0.530200  1
  H  H518  1  0.976500  0.661300  0.969800  1
  H  H519  1  0.976500  0.838700  0.469800  1
  H  H520  1  0.023500  0.338700  0.030200  1
  H  H521  1  0.068800  0.190400  0.540000  1
  H  H522  1  0.931200  0.690400  0.960000  1
  H  H523  1  0.931200  0.809600  0.460000  1
  H  H524  1  0.068800  0.309600  0.040000  1
  H  H525  1  0.168700  0.148200  0.443400  1
  H  H526  1  0.831300  0.648200  0.056600  1
  H  H527  1  0.831300  0.851800  0.556600  1
  H  H528  1  0.168700  0.351800  0.943400  1
  H  H529  1  0.174600  0.131000  0.488000  1
  H  H530  1  0.825400  0.631000  0.012000  1
  H  H531  1  0.825400  0.869000  0.512000  1
  H  H532  1  0.174600  0.369000  0.988000  1
  H  H533  1  0.109500  0.152600  0.513900  1
  H  H534  1  0.890500  0.652600  0.986100  1
  H  H535  1  0.890500  0.847400  0.486100  1
  H  H536  1  0.109500  0.347400  0.013900  1
  H  H537  1  0.017300  0.222900  0.429000  1
  H  H538  1  0.982700  0.722900  0.071000  1
  H  H539  1  0.982700  0.777100  0.571000  1
  H  H540  1  0.017300  0.277100  0.929000  1
  H  H541  1  0.952200  0.244500  0.454900  1
  H  H542  1  0.047800  0.744500  0.045100  1
  H  H543  1  0.047800  0.755500  0.545100  1
  H  H544  1  0.952200  0.255500  0.954900  1
  H  H545  1  0.958000  0.227200  0.499500  1
  H  H546  1  0.042000  0.727200  0.000500  1
  H  H547  1  0.042000  0.772800  0.500500  1
  H  H548  1  0.958000  0.272800  0.999500  1
  H  H549  1  0.688000  0.400300  0.245100  1
  H  H550  1  0.312000  0.900300  0.254900  1
  H  H551  1  0.312000  0.599700  0.754900  1
  H  H552  1  0.688000  0.099700  0.745100  1
  H  H553  1  0.620600  0.437400  0.220900  1
  H  H554  1  0.379400  0.937400  0.279100  1
  H  H555  1  0.379400  0.562600  0.779100  1
  H  H556  1  0.620600  0.062600  0.720900  1
  H  H557  1  0.617600  0.445300  0.174800  1
  H  H558  1  0.382400  0.945300  0.325200  1
  H  H559  1  0.382400  0.554700  0.825200  1
  H  H560  1  0.617600  0.054700  0.674800  1
  H  H561  1  0.682000  0.416000  0.152800  1
  H  H562  1  0.318000  0.916000  0.347200  1
  H  H563  1  0.318000  0.584000  0.847200  1
  H  H564  1  0.682000  0.084000  0.652800  1
  H  H565  1  0.769100  0.365200  0.268000  1
  H  H566  1  0.230900  0.865200  0.232000  1
  H  H567  1  0.230900  0.634800  0.732000  1
  H  H568  1  0.769100  0.134800  0.768000  1
  H  H569  1  0.861000  0.329900  0.272100  1
  H  H570  1  0.139000  0.829900  0.227900  1
  H  H571  1  0.139000  0.670100  0.727900  1
  H  H572  1  0.861000  0.170100  0.772100  1
  H  H573  1  0.933600  0.317300  0.237300  1
  H  H574  1  0.066400  0.817300  0.262700  1
  H  H575  1  0.066400  0.682700  0.762700  1
  H  H576  1  0.933600  0.182700  0.737300  1
  H  H577  1  0.912600  0.329900  0.207000  1
  H  H578  1  0.087400  0.829900  0.293000  1
  H  H579  1  0.087400  0.670100  0.793000  1
  H  H580  1  0.912600  0.170100  0.707000  1
  H  H581  1  0.149700  0.100600  0.152900  1
  H  H582  1  0.850300  0.600600  0.347100  1
  H  H583  1  0.850300  0.899400  0.847100  1
  H  H584  1  0.149700  0.399400  0.652900  1
  H  H585  1  0.229900  0.072600  0.178600  1
  H  H586  1  0.770100  0.572600  0.321400  1
  H  H587  1  0.770100  0.927400  0.821400  1
  H  H588  1  0.229900  0.427400  0.678600  1
  H  H589  1  0.236500  0.066700  0.225100  1
  H  H590  1  0.763500  0.566700  0.274900  1
  H  H591  1  0.763500  0.933300  0.774900  1
  H  H592  1  0.236500  0.433300  0.725100  1
  H  H593  1  0.163000  0.088700  0.246000  1
  H  H594  1  0.837000  0.588700  0.254000  1
  H  H595  1  0.837000  0.911300  0.754000  1
  H  H596  1  0.163000  0.411300  0.746000  1
  H  H597  1  0.065100  0.136100  0.129500  1
  H  H598  1  0.934900  0.636100  0.370500  1
  H  H599  1  0.934900  0.863900  0.870500  1
  H  H600  1  0.065100  0.363900  0.629500  1
  H  H601  1  0.971100  0.169600  0.125900  1
  H  H602  1  0.028900  0.669600  0.374100  1
  H  H603  1  0.028900  0.830400  0.874100  1
  H  H604  1  0.971100  0.330400  0.625900  1
  H  H605  1  0.917900  0.166000  0.190500  1
  H  H606  1  0.082100  0.666000  0.309500  1
  H  H607  1  0.082100  0.834000  0.809500  1
  H  H608  1  0.917900  0.334000  0.690500  1
  H  H609  1  0.897700  0.179600  0.160500  1
  H  H610  1  0.102300  0.679600  0.339500  1
  H  H611  1  0.102300  0.820400  0.839500  1
  H  H612  1  0.897700  0.320400  0.660500  1
  H  H613  1  0.798900  0.285700  0.219000  1
  H  H614  1  0.201100  0.785700  0.281000  1
  H  H615  1  0.201100  0.714300  0.781000  1
  H  H616  1  0.798900  0.214300  0.719000  1
  H  H617  1  0.771400  0.232900  0.203500  1
  H  H618  1  0.228600  0.732900  0.296500  1
  H  H619  1  0.228600  0.767100  0.796500  1
  H  H620  1  0.771400  0.267100  0.703500  1
  H  H621  1  0.840000  0.199100  0.188200  1
  H  H622  1  0.160000  0.699100  0.311800  1
  H  H623  1  0.160000  0.800900  0.811800  1
  H  H624  1  0.840000  0.300900  0.688200  1
  H  H625  1  0.992800  0.295700  0.210100  1
  H  H626  1  0.007200  0.795700  0.289900  1
  H  H627  1  0.007200  0.704300  0.789900  1
  H  H628  1  0.992800  0.204300  0.710100  1
  H  H629  1  0.061400  0.261800  0.194800  1
  H  H630  1  0.938600  0.761800  0.305200  1
  H  H631  1  0.938600  0.738200  0.805200  1
  H  H632  1  0.061400  0.238200  0.694800  1
  H  H633  1  0.033900  0.209100  0.179300  1
  H  H634  1  0.966100  0.709100  0.320700  1
  H  H635  1  0.966100  0.790900  0.820700  1
  H  H636  1  0.033900  0.290900  0.679300  1
  H  H637  1  0.716100  0.495800  0.428800  1
  H  H638  1  0.283900  0.995800  0.071200  1
  H  H639  1  0.283900  0.504200  0.571200  1
  H  H640  1  0.716100  0.004200  0.928800  1
  H  H641  1  0.792200  0.509200  0.464900  1
  H  H642  1  0.207800  0.009200  0.035100  1
  H  H643  1  0.207800  0.490800  0.535100  1
  H  H644  1  0.792200  0.990800  0.964900  1
  H  H645  1  0.810900  0.475800  0.503200  1
  H  H646  1  0.189100  0.975800  0.996800  1
  H  H647  1  0.189100  0.524200  0.496800  1
  H  H648  1  0.810900  0.024200  0.003200  1
  H  H649  1  0.753500  0.429000  0.505400  1
  H  H650  1  0.246500  0.929000  0.994600  1
  H  H651  1  0.246500  0.571000  0.494600  1
  H  H652  1  0.753500  0.071000  0.005400  1
  H  H653  1  0.629500  0.479200  0.393300  1
  H  H654  1  0.370500  0.979200  0.106700  1
  H  H655  1  0.370500  0.520800  0.606700  1
  H  H656  1  0.629500  0.020800  0.893300  1
  H  H657  1  0.539700  0.445500  0.372800  1
  H  H658  1  0.460300  0.945500  0.127200  1
  H  H659  1  0.460300  0.554500  0.627200  1
  H  H660  1  0.539700  0.054500  0.872800  1
  H  H661  1  0.486500  0.395500  0.393200  1
  H  H662  1  0.513500  0.895500  0.106800  1
  H  H663  1  0.513500  0.604500  0.606800  1
  H  H664  1  0.486500  0.104500  0.893200  1
  H  H665  1  0.520200  0.380600  0.421100  1
  H  H666  1  0.479800  0.880600  0.078900  1
  H  H667  1  0.479800  0.619400  0.578900  1
  H  H668  1  0.520200  0.119400  0.921100  1
  H  H669  1  0.342200  0.159000  0.273800  1
  H  H670  1  0.657800  0.659000  0.226200  1
  H  H671  1  0.657800  0.841000  0.726200  1
  H  H672  1  0.342200  0.341000  0.773800  1
  H  H673  1  0.288500  0.156200  0.229600  1
  H  H674  1  0.711500  0.656200  0.270400  1
  H  H675  1  0.711500  0.843800  0.770400  1
  H  H676  1  0.288500  0.343800  0.729600  1
  H  H677  1  0.290300  0.200200  0.200200  1
  H  H678  1  0.709700  0.700200  0.299800  1
  H  H679  1  0.709700  0.799800  0.799800  1
  H  H680  1  0.290300  0.299800  0.700200  1
  H  H681  1  0.345800  0.246900  0.214900  1
  H  H682  1  0.654200  0.746900  0.285100  1
  H  H683  1  0.654200  0.753100  0.785100  1
  H  H684  1  0.345800  0.253100  0.714900  1
  H  H685  1  0.407000  0.166500  0.320500  1
  H  H686  1  0.593000  0.666500  0.179500  1
  H  H687  1  0.593000  0.833500  0.679500  1
  H  H688  1  0.407000  0.333500  0.820500  1
  H  H689  1  0.484400  0.194800  0.355600  1
  H  H690  1  0.515600  0.694800  0.144400  1
  H  H691  1  0.515600  0.805200  0.644400  1
  H  H692  1  0.484400  0.305200  0.855600  1
  H  H693  1  0.539000  0.266300  0.323900  1
  H  H694  1  0.461000  0.766300  0.176100  1
  H  H695  1  0.461000  0.733700  0.676100  1
  H  H696  1  0.539000  0.233700  0.823900  1
  H  H697  1  0.556000  0.243900  0.350000  1
  H  H698  1  0.444000  0.743900  0.150000  1
  H  H699  1  0.444000  0.756100  0.650000  1
  H  H700  1  0.556000  0.256100  0.850000  1
  H  H701  1  0.629200  0.379700  0.390300  1
  H  H702  1  0.370800  0.879700  0.109700  1
  H  H703  1  0.370800  0.620300  0.609700  1
  H  H704  1  0.629200  0.120300  0.890300  1
  H  H705  1  0.667700  0.338000  0.367100  1
  H  H706  1  0.332300  0.838000  0.132900  1
  H  H707  1  0.332300  0.662000  0.632900  1
  H  H708  1  0.667700  0.162000  0.867100  1
  H  H709  1  0.608900  0.293000  0.350900  1
  H  H710  1  0.391100  0.793000  0.149100  1
  H  H711  1  0.391100  0.707000  0.649100  1
  H  H712  1  0.608900  0.207000  0.850900  1
  H  H713  1  0.438900  0.347700  0.392000  1
  H  H714  1  0.561100  0.847700  0.108000  1
  H  H715  1  0.561100  0.652300  0.608000  1
  H  H716  1  0.438900  0.152300  0.892000  1
  H  H717  1  0.380000  0.302600  0.375800  1
  H  H718  1  0.620000  0.802600  0.124200  1
  H  H719  1  0.620000  0.697400  0.624200  1
  H  H720  1  0.380000  0.197400  0.875800  1
  H  H721  1  0.418500  0.260900  0.352500  1
  H  H722  1  0.581500  0.760900  0.147500  1
  H  H723  1  0.581500  0.739100  0.647500  1
  H  H724  1  0.418500  0.239100  0.852500  1
  H  H725  1  0.558800  0.435400  0.546900  1
  H  H726  1  0.441200  0.935400  0.953100  1
  H  H727  1  0.441200  0.564600  0.453100  1
  H  H728  1  0.558800  0.064600  0.046900  1
  H  H729  1  0.484700  0.468900  0.522800  1
  H  H730  1  0.515300  0.968900  0.977200  1
  H  H731  1  0.515300  0.531100  0.477200  1
  H  H732  1  0.484700  0.031100  0.022800  1
  H  H733  1  0.472000  0.472100  0.475800  1
  H  H734  1  0.528000  0.972100  0.024200  1
  H  H735  1  0.528000  0.527900  0.524200  1
  H  H736  1  0.472000  0.027900  0.975800  1
  H  H737  1  0.533300  0.441800  0.452900  1
  H  H738  1  0.466700  0.941800  0.047100  1
  H  H739  1  0.466700  0.558200  0.547100  1
  H  H740  1  0.533300  0.058200  0.952900  1
  H  H741  1  0.643300  0.398000  0.569200  1
  H  H742  1  0.356700  0.898000  0.930800  1
  H  H743  1  0.356700  0.602000  0.430800  1
  H  H744  1  0.643300  0.102000  0.069200  1
  H  H745  1  0.732500  0.361100  0.570400  1
  H  H746  1  0.267500  0.861100  0.929600  1
  H  H747  1  0.267500  0.638900  0.429600  1
  H  H748  1  0.732500  0.138900  0.070400  1
  H  H749  1  0.789900  0.341500  0.533800  1
  H  H750  1  0.210100  0.841500  0.966200  1
  H  H751  1  0.210100  0.658500  0.466200  1
  H  H752  1  0.789900  0.158500  0.033800  1
  H  H753  1  0.768000  0.353600  0.503500  1
  H  H754  1  0.232000  0.853600  0.996500  1
  H  H755  1  0.232000  0.646400  0.496500  1
  H  H756  1  0.768000  0.146400  0.003500  1
  H  H757  1  0.957400  0.122800  0.438300  1
  H  H758  1  0.042600  0.622800  0.061700  1
  H  H759  1  0.042600  0.877200  0.561700  1
  H  H760  1  0.957400  0.377200  0.938300  1
  H  H761  1  0.036200  0.088600  0.457100  1
  H  H762  1  0.963800  0.588600  0.042900  1
  H  H763  1  0.963800  0.911400  0.542900  1
  H  H764  1  0.036200  0.411400  0.957100  1
  H  H765  1  0.052200  0.075600  0.503000  1
  H  H766  1  0.947800  0.575600  0.997000  1
  H  H767  1  0.947800  0.924400  0.497000  1
  H  H768  1  0.052200  0.424400  0.003000  1
  H  H769  1  0.989400  0.096700  0.530200  1
  H  H770  1  0.010600  0.596700  0.969800  1
  H  H771  1  0.010600  0.903300  0.469800  1
  H  H772  1  0.989400  0.403300  0.030200  1
  H  H773  1  0.864300  0.156400  0.421000  1
  H  H774  1  0.135700  0.656400  0.079000  1
  H  H775  1  0.135700  0.843600  0.579000  1
  H  H776  1  0.864300  0.343600  0.921000  1
  H  H777  1  0.768700  0.185400  0.424700  1
  H  H778  1  0.231300  0.685400  0.075300  1
  H  H779  1  0.231300  0.814600  0.575300  1
  H  H780  1  0.768700  0.314600  0.924700  1
  H  H781  1  0.744800  0.184800  0.493100  1
  H  H782  1  0.255200  0.684800  0.006900  1
  H  H783  1  0.255200  0.815200  0.506900  1
  H  H784  1  0.744800  0.315200  0.993100  1
  H  H785  1  0.716900  0.197400  0.463500  1
  H  H786  1  0.283100  0.697400  0.036500  1
  H  H787  1  0.283100  0.802600  0.536500  1
  H  H788  1  0.716900  0.302600  0.963500  1
  H  H789  1  0.648500  0.316100  0.521400  1
  H  H790  1  0.351500  0.816100  0.978600  1
  H  H791  1  0.351500  0.683900  0.478600  1
  H  H792  1  0.648500  0.183900  0.021400  1
  H  H793  1  0.612300  0.263300  0.510700  1
  H  H794  1  0.387700  0.763300  0.989300  1
  H  H795  1  0.387700  0.736700  0.489300  1
  H  H796  1  0.612300  0.236700  0.010700  1
  H  H797  1  0.671400  0.224800  0.494100  1
  H  H798  1  0.328600  0.724800  0.005900  1
  H  H799  1  0.328600  0.775200  0.505900  1
  H  H800  1  0.671400  0.275200  0.994100  1
  H  H801  1  0.835500  0.315900  0.502300  1
  H  H802  1  0.164500  0.815900  0.997700  1
  H  H803  1  0.164500  0.684100  0.497700  1
  H  H804  1  0.835500  0.184100  0.002300  1
  H  H805  1  0.894600  0.277300  0.485700  1
  H  H806  1  0.105400  0.777300  0.014300  1
  H  H807  1  0.105400  0.722700  0.514300  1
  H  H808  1  0.894600  0.222700  0.985700  1
  H  H809  1  0.858400  0.224500  0.474900  1
  H  H810  1  0.141600  0.724500  0.025100  1
  H  H811  1  0.141600  0.775500  0.525100  1
  H  H812  1  0.858400  0.275500  0.974900  1
  H  H813  1  0.066400  0.243800  0.271800  1
  H  H814  1  0.933600  0.743800  0.228200  1
  H  H815  1  0.933600  0.756200  0.728200  1
  H  H816  1  0.066400  0.256200  0.771800  1
  H  H817  1  0.164000  0.253200  0.266700  1
  H  H818  1  0.836000  0.753200  0.233300  1
  H  H819  1  0.836000  0.746800  0.733300  1
  H  H820  1  0.164000  0.246800  0.766700  1
  H  H821  1  0.213600  0.214100  0.245500  1
  H  H822  1  0.786400  0.714100  0.254500  1
  H  H823  1  0.786400  0.785900  0.754500  1
  H  H824  1  0.213600  0.285900  0.745500  1
  H  H825  1  0.165500  0.165600  0.229400  1
  H  H826  1  0.834500  0.665600  0.270600  1
  H  H827  1  0.834500  0.834400  0.770600  1
  H  H828  1  0.165500  0.334400  0.729400  1
  H  H829  1  0.963800  0.235100  0.269900  1
  H  H830  1  0.036200  0.735100  0.230100  1
  H  H831  1  0.036200  0.764900  0.730100  1
  H  H832  1  0.963800  0.264900  0.769900  1
  H  H833  1  0.865600  0.205000  0.259700  1
  H  H834  1  0.134400  0.705000  0.240300  1
  H  H835  1  0.134400  0.795000  0.740300  1
  H  H836  1  0.865600  0.295000  0.759700  1
  H  H837  1  0.881100  0.127900  0.223800  1
  H  H838  1  0.118900  0.627900  0.276200  1
  H  H839  1  0.118900  0.872100  0.776200  1
  H  H840  1  0.881100  0.372100  0.723800  1
  H  H841  1  0.831200  0.150600  0.232500  1
  H  H842  1  0.168800  0.650600  0.267500  1
  H  H843  1  0.168800  0.849400  0.767500  1
  H  H844  1  0.831200  0.349400  0.732500  1
  H  H845  1  0.593000  0.918400  0.306800  1
  H  H846  1  0.407000  0.418400  0.193200  1
  H  H847  1  0.407000  0.081600  0.693200  1
  H  H848  1  0.593000  0.581600  0.806800  1
  H  H849  1  0.509100  0.916700  0.326700  1
  H  H850  1  0.490900  0.416700  0.173300  1
  H  H851  1  0.490900  0.083300  0.673300  1
  H  H852  1  0.509100  0.583300  0.826700  1
  H  H853  1  0.478500  0.963700  0.346600  1
  H  H854  1  0.521500  0.463700  0.153400  1
  H  H855  1  0.521500  0.036300  0.653400  1
  H  H856  1  0.478500  0.536300  0.846600  1
  H  H857  1  0.531800  0.012500  0.346700  1
  H  H858  1  0.468200  0.512500  0.153300  1
  H  H859  1  0.468200  0.987500  0.653300  1
  H  H860  1  0.531800  0.487500  0.846700  1
  H  H861  1  0.679500  0.929200  0.282000  1
  H  H862  1  0.320500  0.429200  0.218000  1
  H  H863  1  0.320500  0.070800  0.718000  1
  H  H864  1  0.679500  0.570800  0.782000  1
  H  H865  1  0.774900  0.958000  0.277500  1
  H  H866  1  0.225100  0.458000  0.222500  1
  H  H867  1  0.225100  0.042000  0.722500  1
  H  H868  1  0.774900  0.542000  0.777500  1
  H  H869  1  0.829800  0.008600  0.304000  1
  H  H870  1  0.170200  0.508600  0.196000  1
  H  H871  1  0.170200  0.991400  0.696000  1
  H  H872  1  0.829800  0.491400  0.804000  1
  H  H873  1  0.792400  0.032400  0.319400  1
  H  H874  1  0.207600  0.532400  0.180600  1
  H  H875  1  0.207600  0.967600  0.680600  1
  H  H876  1  0.792400  0.467600  0.819400  1
  H  H877  1  0.940500  0.137000  0.287900  1
  H  H878  1  0.059500  0.637000  0.212100  1
  H  H879  1  0.059500  0.863000  0.712100  1
  H  H880  1  0.940500  0.363000  0.787900  1
  H  H881  1  0.943900  0.099200  0.322900  1
  H  H882  1  0.056100  0.599200  0.177100  1
  H  H883  1  0.056100  0.900800  0.677100  1
  H  H884  1  0.943900  0.400800  0.822900  1
  H  H885  1  0.873800  0.057100  0.319100  1
  H  H886  1  0.126200  0.557100  0.180900  1
  H  H887  1  0.126200  0.942900  0.680900  1
  H  H888  1  0.873800  0.442900  0.819100  1
  H  H889  1  0.781500  0.105400  0.223800  1
  H  H890  1  0.218500  0.605400  0.276200  1
  H  H891  1  0.218500  0.894600  0.776200  1
  H  H892  1  0.781500  0.394600  0.723800  1
  H  H893  1  0.711400  0.063400  0.219900  1
  H  H894  1  0.288600  0.563400  0.280100  1
  H  H895  1  0.288600  0.936600  0.780100  1
  H  H896  1  0.711400  0.436600  0.719900  1
  H  H897  1  0.714900  0.025500  0.254900  1
  H  H898  1  0.285100  0.525500  0.245100  1
  H  H899  1  0.285100  0.974500  0.745100  1
  H  H900  1  0.714900  0.474500  0.754900  1
  H  H901  1  0.436000  0.313900  0.173500  1
  H  H902  1  0.564000  0.813900  0.326500  1
  H  H903  1  0.564000  0.686100  0.826500  1
  H  H904  1  0.436000  0.186100  0.673500  1
  H  H905  1  0.362000  0.353800  0.169900  1
  H  H906  1  0.638000  0.853800  0.330100  1
  H  H907  1  0.638000  0.646200  0.830100  1
  H  H908  1  0.362000  0.146200  0.669900  1
  H  H909  1  0.313100  0.362800  0.205800  1
  H  H910  1  0.686900  0.862800  0.294200  1
  H  H911  1  0.686900  0.637200  0.794200  1
  H  H912  1  0.313100  0.137200  0.705800  1
  H  H913  1  0.338100  0.331900  0.245300  1
  H  H914  1  0.661900  0.831900  0.254700  1
  H  H915  1  0.661900  0.668100  0.754700  1
  H  H916  1  0.338100  0.168100  0.745300  1
  H  H917  1  0.511200  0.269600  0.180100  1
  H  H918  1  0.488800  0.769600  0.319900  1
  H  H919  1  0.488800  0.730400  0.819900  1
  H  H920  1  0.511200  0.230400  0.680100  1
  H  H921  1  0.584800  0.231200  0.208200  1
  H  H922  1  0.415200  0.731200  0.291800  1
  H  H923  1  0.415200  0.768800  0.791800  1
  H  H924  1  0.584800  0.268800  0.708200  1
  H  H925  1  0.566200  0.238500  0.279500  1
  H  H926  1  0.433800  0.738500  0.220500  1
  H  H927  1  0.433800  0.761500  0.720500  1
  H  H928  1  0.566200  0.261500  0.779500  1
  H  H929  1  0.610300  0.221700  0.262800  1
  H  H930  1  0.389700  0.721700  0.237200  1
  H  H931  1  0.389700  0.778300  0.737200  1
  H  H932  1  0.610300  0.278300  0.762800  1
  H  H933  1  0.651700  0.035500  0.429500  1
  H  H934  1  0.348300  0.535500  0.070500  1
  H  H935  1  0.348300  0.964500  0.570500  1
  H  H936  1  0.651700  0.464500  0.929500  1
  H  H937  1  0.735800  0.003000  0.442700  1
  H  H938  1  0.264200  0.503000  0.057300  1
  H  H939  1  0.264200  0.997000  0.557300  1
  H  H940  1  0.735800  0.497000  0.942700  1
  H  H941  1  0.788200  0.983700  0.410500  1
  H  H942  1  0.211800  0.483700  0.089500  1
  H  H943  1  0.211800  0.016300  0.589500  1
  H  H944  1  0.788200  0.516300  0.910500  1
  H  H945  1  0.756500  0.997000  0.365000  1
  H  H946  1  0.243500  0.497000  0.135000  1
  H  H947  1  0.243500  0.003000  0.635000  1
  H  H948  1  0.756500  0.503000  0.865000  1
  H  H949  1  0.556500  0.065400  0.410100  1
  H  H950  1  0.443500  0.565400  0.089900  1
  H  H951  1  0.443500  0.934600  0.589900  1
  H  H952  1  0.556500  0.434600  0.910100  1
  H  H953  1  0.482900  0.093700  0.373400  1
  H  H954  1  0.517100  0.593700  0.126600  1
  H  H955  1  0.517100  0.906300  0.626600  1
  H  H956  1  0.482900  0.406300  0.873400  1
  H  H957  1  0.472300  0.097400  0.321700  1
  H  H958  1  0.527700  0.597400  0.178300  1
  H  H959  1  0.527700  0.902600  0.678300  1
  H  H960  1  0.472300  0.402600  0.821700  1
  H  H961  1  0.520600  0.079600  0.307700  1
  H  H962  1  0.479400  0.579600  0.192300  1
  H  H963  1  0.479400  0.920400  0.692300  1
  H  H964  1  0.520600  0.420400  0.807700  1
  H  H965  1  0.489400  0.190400  0.229800  1
  H  H966  1  0.510600  0.690400  0.270200  1
  H  H967  1  0.510600  0.809600  0.770200  1
  H  H968  1  0.489400  0.309600  0.729800  1
  H  H969  1  0.444800  0.140100  0.235300  1
  H  H970  1  0.555200  0.640100  0.264700  1
  H  H971  1  0.555200  0.859900  0.764700  1
  H  H972  1  0.444800  0.359900  0.735300  1
  H  H973  1  0.470100  0.111600  0.276100  1
  H  H974  1  0.529900  0.611600  0.223900  1
  H  H975  1  0.529900  0.888400  0.723900  1
  H  H976  1  0.470100  0.388400  0.776100  1
  H  H977  1  0.615800  0.208500  0.310300  1
  H  H978  1  0.384200  0.708500  0.189700  1
  H  H979  1  0.384200  0.791500  0.689700  1
  H  H980  1  0.615800  0.291500  0.810300  1
  H  H981  1  0.641000  0.180100  0.351100  1
  H  H982  1  0.359000  0.680100  0.148900  1
  H  H983  1  0.359000  0.819900  0.648900  1
  H  H984  1  0.641000  0.319900  0.851100  1
  H  H985  1  0.596500  0.129700  0.356600  1
  H  H986  1  0.403500  0.629700  0.143400  1
  H  H987  1  0.403500  0.870300  0.643400  1
  H  H988  1  0.596500  0.370300  0.856600  1
  H  H989  1  0.844100  0.255300  0.129400  1
  H  H990  1  0.155900  0.755300  0.370600  1
  H  H991  1  0.155900  0.744700  0.870600  1
  H  H992  1  0.844100  0.244700  0.629400  1
  H  H993  1  0.941900  0.268500  0.126800  1
  H  H994  1  0.058100  0.768500  0.373200  1
  H  H995  1  0.058100  0.731500  0.873200  1
  H  H996  1  0.941900  0.231500  0.626800  1
  H  H997  1  0.979600  0.320400  0.140000  1
  H  H998  1  0.020400  0.820400  0.360000  1
  H  H999  1  0.020400  0.679600  0.860000  1
  H  H1000  1  0.979600  0.179600  0.640000  1
  H  H1001  1  0.919500  0.359100  0.155800  1
  H  H1002  1  0.080500  0.859100  0.344200  1
  H  H1003  1  0.080500  0.640900  0.844200  1
  H  H1004  1  0.919500  0.140900  0.655800  1
  H  H1005  1  0.737600  0.248500  0.129500  1
  H  H1006  1  0.262400  0.748500  0.370500  1
  H  H1007  1  0.262400  0.751500  0.870500  1
  H  H1008  1  0.737600  0.251500  0.629500  1
  H  H1009  1  0.636700  0.264000  0.138800  1
  H  H1010  1  0.363300  0.764000  0.361200  1
  H  H1011  1  0.363300  0.736000  0.861200  1
  H  H1012  1  0.636700  0.236000  0.638800  1
  H  H1013  1  0.595500  0.320500  0.158100  1
  H  H1014  1  0.404500  0.820500  0.341900  1
  H  H1015  1  0.404500  0.679500  0.841900  1
  H  H1016  1  0.595500  0.179500  0.658100  1
  H  H1017  1  0.643500  0.348500  0.167400  1
  H  H1018  1  0.356500  0.848500  0.332600  1
  H  H1019  1  0.356500  0.651500  0.832600  1
  H  H1020  1  0.643500  0.151500  0.667400  1
  H  H1021  1  0.344900  0.361300  0.322900  1
  H  H1022  1  0.655100  0.861300  0.177100  1
  H  H1023  1  0.655100  0.638700  0.677100  1
  H  H1024  1  0.344900  0.138700  0.822900  1
  H  H1025  1  0.250600  0.338600  0.320300  1
  H  H1026  1  0.749400  0.838600  0.179700  1
  H  H1027  1  0.749400  0.661400  0.679700  1
  H  H1028  1  0.250600  0.161400  0.820300  1
  H  H1029  1  0.227800  0.288200  0.298900  1
  H  H1030  1  0.772200  0.788200  0.201100  1
  H  H1031  1  0.772200  0.711800  0.701100  1
  H  H1032  1  0.227800  0.211800  0.798900  1
  H  H1033  1  0.299200  0.260500  0.280100  1
  H  H1034  1  0.700800  0.760500  0.219900  1
  H  H1035  1  0.700800  0.739500  0.719900  1
  H  H1036  1  0.299200  0.239500  0.780100  1
  H  H1037  1  0.451600  0.380000  0.327700  1
  H  H1038  1  0.548400  0.880000  0.172300  1
  H  H1039  1  0.548400  0.620000  0.672300  1
  H  H1040  1  0.451600  0.120000  0.827700  1
  H  H1041  1  0.556500  0.376300  0.319100  1
  H  H1042  1  0.443500  0.876300  0.180900  1
  H  H1043  1  0.443500  0.623700  0.680900  1
  H  H1044  1  0.556500  0.123700  0.819100  1
  H  H1045  1  0.574800  0.298500  0.284400  1
  H  H1046  1  0.425200  0.798500  0.215600  1
  H  H1047  1  0.425200  0.701500  0.715600  1
  H  H1048  1  0.574800  0.201500  0.784400  1
  H  H1049  1  0.612600  0.330000  0.295600  1
  H  H1050  1  0.387400  0.830000  0.204400  1
  H  H1051  1  0.387400  0.670000  0.704400  1
  H  H1052  1  0.612600  0.170000  0.795600  1
  H  H1053  1  0.705500  0.282200  0.197500  1
  H  H1054  1  0.294500  0.782200  0.302500  1
  H  H1055  1  0.294500  0.717800  0.802500  1
  H  H1056  1  0.705500  0.217800  0.697500  1
  H  H1057  1  0.715400  0.266800  0.242700  1
  H  H1058  1  0.284600  0.766800  0.257300  1
  H  H1059  1  0.284600  0.733200  0.757300  1
  H  H1060  1  0.715400  0.233200  0.742700  1
  H  H1061  1  0.654600  0.290500  0.269700  1
  H  H1062  1  0.345400  0.790500  0.230300  1
  H  H1063  1  0.345400  0.709500  0.730300  1
  H  H1064  1  0.654600  0.209500  0.769700  1
  H  H1065  1  0.556900  0.358600  0.184300  1
  H  H1066  1  0.443100  0.858600  0.315700  1
  H  H1067  1  0.443100  0.641400  0.815700  1
  H  H1068  1  0.556900  0.141400  0.684300  1
  H  H1069  1  0.496200  0.382400  0.211300  1
  H  H1070  1  0.503800  0.882400  0.288700  1
  H  H1071  1  0.503800  0.617600  0.788700  1
  H  H1072  1  0.496200  0.117600  0.711300  1
  H  H1073  1  0.506000  0.367000  0.256500  1
  H  H1074  1  0.494000  0.867000  0.243500  1
  H  H1075  1  0.494000  0.633000  0.743500  1
  H  H1076  1  0.506000  0.133000  0.756500  1
  H  H1077  1  0.768200  0.310200  0.296300  1
  H  H1078  1  0.231800  0.810200  0.203700  1
  H  H1079  1  0.231800  0.689800  0.703700  1
  H  H1080  1  0.768200  0.189800  0.796300  1
  H  H1081  1  0.815600  0.288600  0.316200  1
  H  H1082  1  0.184400  0.788600  0.183800  1
  H  H1083  1  0.184400  0.711400  0.683800  1
  H  H1084  1  0.815600  0.211400  0.816200  1
  H  H1085  1  0.819600  0.327700  0.317400  1
  H  H1086  1  0.180400  0.827700  0.182600  1
  H  H1087  1  0.180400  0.672300  0.682600  1
  H  H1088  1  0.819600  0.172300  0.817400  1
  H  H1089  1  0.227100  0.254500  0.106800  1
  H  H1090  1  0.772900  0.754500  0.393200  1
  H  H1091  1  0.772900  0.745500  0.893200  1
  H  H1092  1  0.227100  0.245500  0.606800  1
  H  H1093  1  0.261500  0.258600  0.082300  1
  H  H1094  1  0.738500  0.758600  0.417700  1
  H  H1095  1  0.738500  0.741400  0.917700  1
  H  H1096  1  0.261500  0.241400  0.582300  1
  H  H1097  1  0.232100  0.224200  0.087300  1
  H  H1098  1  0.767900  0.724200  0.412700  1
  H  H1099  1  0.767900  0.775800  0.912700  1
  H  H1100  1  0.232100  0.275800  0.587300  1
  H  H1101  1  0.760900  0.080400  0.158800  1
  H  H1102  1  0.239100  0.580400  0.341200  1
  H  H1103  1  0.239100  0.919600  0.841200  1
  H  H1104  1  0.760900  0.419600  0.658800  1
  H  H1105  1  0.706900  0.098700  0.168400  1
  H  H1106  1  0.293100  0.598700  0.331600  1
  H  H1107  1  0.293100  0.901300  0.831600  1
  H  H1108  1  0.706900  0.401300  0.668400  1
  H  H1109  1  0.766800  0.091700  0.189500  1
  H  H1110  1  0.233200  0.591700  0.310500  1
  H  H1111  1  0.233200  0.908300  0.810500  1
  H  H1112  1  0.766800  0.408300  0.689500  1
  H  H1113  1  0.122200  0.357500  0.204500  1
  H  H1114  1  0.877800  0.857500  0.295500  1
  H  H1115  1  0.877800  0.642500  0.795500  1
  H  H1116  1  0.122200  0.142500  0.704500  1
  H  H1117  1  0.119800  0.393500  0.191900  1
  H  H1118  1  0.880200  0.893500  0.308100  1
  H  H1119  1  0.880200  0.606500  0.808100  1
  H  H1120  1  0.119800  0.106500  0.691900  1
  H  H1121  1  0.110300  0.362400  0.172400  1
  H  H1122  1  0.889700  0.862400  0.327600  1
  H  H1123  1  0.889700  0.637600  0.827600  1
  H  H1124  1  0.110300  0.137600  0.672400  1
  H  H1125  1  0.641300  0.504100  0.316100  1
  H  H1126  1  0.358700  0.004100  0.183900  1
  H  H1127  1  0.358700  0.495900  0.683900  1
  H  H1128  1  0.641300  0.995900  0.816100  1
  H  H1129  1  0.689200  0.510800  0.343000  1
  H  H1130  1  0.310800  0.010800  0.157000  1
  H  H1131  1  0.310800  0.489200  0.657000  1
  H  H1132  1  0.689200  0.989200  0.843000  1
  H  H1133  1  0.675400  0.474100  0.332500  1
  H  H1134  1  0.324600  0.974100  0.167500  1
  H  H1135  1  0.324600  0.525900  0.667500  1
  H  H1136  1  0.675400  0.025900  0.832500  1
  H  H1137  1  0.241800  0.286600  0.181800  1
  H  H1138  1  0.758200  0.786600  0.318200  1
  H  H1139  1  0.758200  0.713400  0.818200  1
  H  H1140  1  0.241800  0.213400  0.681800  1
  H  H1141  1  0.230900  0.323700  0.189600  1
  H  H1142  1  0.769100  0.823700  0.310400  1
  H  H1143  1  0.769100  0.676300  0.810400  1
  H  H1144  1  0.230900  0.176300  0.689600  1
  H  H1145  1  0.176900  0.302100  0.174300  1
  H  H1146  1  0.823100  0.802100  0.325700  1
  H  H1147  1  0.823100  0.697900  0.825700  1
  H  H1148  1  0.176900  0.197900  0.674300  1
  H  H1149  1  0.332400  0.029300  0.256900  1
  H  H1150  1  0.667600  0.529300  0.243100  1
  H  H1151  1  0.667600  0.970700  0.743100  1
  H  H1152  1  0.332400  0.470700  0.756900  1
  H  H1153  1  0.394400  0.046200  0.255400  1
  H  H1154  1  0.605600  0.546200  0.244600  1
  H  H1155  1  0.605600  0.953800  0.744600  1
  H  H1156  1  0.394400  0.453800  0.755400  1
  H  H1157  1  0.349300  0.063800  0.271300  1
  H  H1158  1  0.650700  0.563800  0.228700  1
  H  H1159  1  0.650700  0.936200  0.728700  1
  H  H1160  1  0.349300  0.436200  0.771300  1
  H  H1161  1  0.094000  0.204800  0.130200  1
  H  H1162  1  0.906000  0.704800  0.369800  1
  H  H1163  1  0.906000  0.795200  0.869800  1
  H  H1164  1  0.094000  0.295200  0.630200  1
  H  H1165  1  0.153200  0.219800  0.122800  1
  H  H1166  1  0.846800  0.719800  0.377200  1
  H  H1167  1  0.846800  0.780200  0.877200  1
  H  H1168  1  0.153200  0.280200  0.622800  1
  H  H1169  1  0.110500  0.242300  0.136700  1
  H  H1170  1  0.889500  0.742300  0.363300  1
  H  H1171  1  0.889500  0.757700  0.863300  1
  H  H1172  1  0.110500  0.257700  0.636700  1
  H  H1173  1  0.090500  0.313800  0.250000  1
  H  H1174  1  0.909500  0.813800  0.250000  1
  H  H1175  1  0.909500  0.686200  0.750000  1
  H  H1176  1  0.090500  0.186200  0.750000  1
  H  H1177  1  0.064300  0.348000  0.257700  1
  H  H1178  1  0.935700  0.848000  0.242300  1
  H  H1179  1  0.935700  0.652000  0.742300  1
  H  H1180  1  0.064300  0.152000  0.757700  1
  H  H1181  1  0.033600  0.314400  0.264000  1
  H  H1182  1  0.966400  0.814400  0.236000  1
  H  H1183  1  0.966400  0.685600  0.736000  1
  H  H1184  1  0.033600  0.185600  0.764000  1
  H  H1185  1  0.444700  0.922200  0.235600  1
  H  H1186  1  0.555300  0.422200  0.264400  1
  H  H1187  1  0.555300  0.077800  0.764400  1
  H  H1188  1  0.444700  0.577800  0.735600  1
  H  H1189  1  0.444000  0.940800  0.207700  1
  H  H1190  1  0.556000  0.440800  0.292300  1
  H  H1191  1  0.556000  0.059200  0.792300  1
  H  H1192  1  0.444000  0.559200  0.707700  1
  H  H1193  1  0.385800  0.940200  0.220700  1
  H  H1194  1  0.614200  0.440200  0.279300  1
  H  H1195  1  0.614200  0.059800  0.779300  1
  H  H1196  1  0.385800  0.559800  0.720700  1
  H  H1197  1  0.564900  0.015400  0.165800  1
  H  H1198  1  0.435100  0.515400  0.334200  1
  H  H1199  1  0.435100  0.984600  0.834200  1
  H  H1200  1  0.564900  0.484600  0.665800  1
  H  H1201  1  0.552500  0.013600  0.195900  1
  H  H1202  1  0.447500  0.513600  0.304100  1
  H  H1203  1  0.447500  0.986400  0.804100  1
  H  H1204  1  0.552500  0.486400  0.695900  1
  H  H1205  1  0.515400  0.038300  0.174600  1
  H  H1206  1  0.484600  0.538300  0.325400  1
  H  H1207  1  0.484600  0.961700  0.825400  1
  H  H1208  1  0.515400  0.461700  0.674600  1
  Ru  Ru1209  1  0.643670  0.391850  0.467710  1
  Ru  Ru1210  1  0.356330  0.891850  0.032290  1
  Ru  Ru1211  1  0.356330  0.608150  0.532290  1
  Ru  Ru1212  1  0.643670  0.108150  0.967710  1
  Ru  Ru1213  1  0.786860  0.362960  0.168010  1
  Ru  Ru1214  1  0.213140  0.862960  0.331990  1
  Ru  Ru1215  1  0.213140  0.637040  0.831990  1
  Ru  Ru1216  1  0.786860  0.137040  0.668010  1
  Ru  Ru1217  1  0.239530  0.242010  0.428430  1
  Ru  Ru1218  1  0.760470  0.742010  0.071570  1
  Ru  Ru1219  1  0.760470  0.757990  0.571570  1
  Ru  Ru1220  1  0.239530  0.257990  0.928430  1
  Ru  Ru1221  1  0.650190  0.037460  0.328790  1
  Ru  Ru1222  1  0.349810  0.537460  0.171210  1
  Ru  Ru1223  1  0.349810  0.962540  0.671210  1
  Ru  Ru1224  1  0.650190  0.462540  0.828790  1
  C  C1225  1  0.046900  0.552800  0.382200  1
  C  C1226  1  0.953100  0.052800  0.117800  1
  C  C1227  1  0.953100  0.447200  0.617800  1
  C  C1228  1  0.046900  0.947200  0.882200  1
  C  C1229  1  0.081100  0.580980  0.386270  1
  C  C1230  1  0.918900  0.080980  0.113730  1
  C  C1231  1  0.918900  0.419020  0.613730  1
  C  C1232  1  0.081100  0.919020  0.886270  1
  C  C1233  1  0.138400  0.580830  0.381170  1
  C  C1234  1  0.861600  0.080830  0.118830  1
  C  C1235  1  0.861600  0.419170  0.618830  1
  C  C1236  1  0.138400  0.919170  0.881170  1
  C  C1237  1  0.161400  0.552500  0.372000  1
  C  C1238  1  0.838600  0.052500  0.128000  1
  C  C1239  1  0.838600  0.447500  0.628000  1
  C  C1240  1  0.161400  0.947500  0.872000  1
  C  C1241  1  0.127100  0.524270  0.367920  1
  C  C1242  1  0.872900  0.024270  0.132080  1
  C  C1243  1  0.872900  0.475730  0.632080  1
  C  C1244  1  0.127100  0.975730  0.867920  1
  C  C1245  1  0.991800  0.550600  0.388800  1
  C  C1246  1  0.008200  0.050600  0.111200  1
  C  C1247  1  0.008200  0.449400  0.611200  1
  C  C1248  1  0.991800  0.949400  0.888800  1
  C  C1249  1  0.955800  0.572690  0.400200  1
  C  C1250  1  0.044200  0.072690  0.099800  1
  C  C1251  1  0.044200  0.427310  0.599800  1
  C  C1252  1  0.955800  0.927310  0.900200  1
  C  C1253  1  0.900400  0.557400  0.400000  1
  C  C1254  1  0.099600  0.057400  0.100000  1
  C  C1255  1  0.099600  0.442600  0.600000  1
  C  C1256  1  0.900400  0.942600  0.900000  1
  C  C1257  1  0.859100  0.499900  0.385500  1
  C  C1258  1  0.140900  0.999900  0.114500  1
  C  C1259  1  0.140900  0.500100  0.614500  1
  C  C1260  1  0.859100  0.000100  0.885500  1
  C  C1261  1  0.613500  0.323300  0.447200  1
  C  C1262  1  0.386500  0.823300  0.052800  1
  C  C1263  1  0.386500  0.676700  0.552800  1
  C  C1264  1  0.613500  0.176700  0.947200  1
  C  C1265  1  0.580200  0.295100  0.440600  1
  C  C1266  1  0.419800  0.795100  0.059400  1
  C  C1267  1  0.419800  0.704900  0.559400  1
  C  C1268  1  0.580200  0.204900  0.940600  1
  C  C1269  1  0.525400  0.291900  0.448200  1
  C  C1270  1  0.474600  0.791900  0.051800  1
  C  C1271  1  0.474600  0.708100  0.551800  1
  C  C1272  1  0.525400  0.208100  0.948200  1
  C  C1273  1  0.504000  0.316800  0.462300  1
  C  C1274  1  0.496000  0.816800  0.037700  1
  C  C1275  1  0.496000  0.683200  0.537700  1
  C  C1276  1  0.504000  0.183200  0.962300  1
  C  C1277  1  0.537300  0.345100  0.468890  1
  C  C1278  1  0.462700  0.845100  0.031110  1
  C  C1279  1  0.462700  0.654900  0.531110  1
  C  C1280  1  0.537300  0.154900  0.968890  1
  C  C1281  1  0.669600  0.326700  0.443200  1
  C  C1282  1  0.330400  0.826700  0.056800  1
  C  C1283  1  0.330400  0.673300  0.556800  1
  C  C1284  1  0.669600  0.173300  0.943200  1
  C  C1285  1  0.710000  0.305400  0.433800  1
  C  C1286  1  0.290000  0.805400  0.066200  1
  C  C1287  1  0.290000  0.694600  0.566200  1
  C  C1288  1  0.710000  0.194600  0.933800  1
  C  C1289  1  0.765300  0.321700  0.436500  1
  C  C1290  1  0.234700  0.821700  0.063500  1
  C  C1291  1  0.234700  0.678300  0.563500  1
  C  C1292  1  0.765300  0.178300  0.936500  1
  C  C1293  1  0.799700  0.378700  0.451200  1
  C  C1294  1  0.200300  0.878700  0.048800  1
  C  C1295  1  0.200300  0.621300  0.548800  1
  C  C1296  1  0.799700  0.121300  0.951200  1
  C  C1297  1  0.866100  0.477720  0.409520  1
  C  C1298  1  0.133900  0.977720  0.090480  1
  C  C1299  1  0.133900  0.522280  0.590480  1
  C  C1300  1  0.866100  0.022280  0.909520  1
  C  C1301  1  0.910800  0.482130  0.432010  1
  C  C1302  1  0.089200  0.982130  0.067990  1
  C  C1303  1  0.089200  0.517870  0.567990  1
  C  C1304  1  0.910800  0.017870  0.932010  1
  C  C1305  1  0.917100  0.460000  0.453280  1
  C  C1306  1  0.082900  0.960000  0.046720  1
  C  C1307  1  0.082900  0.540000  0.546720  1
  C  C1308  1  0.917100  0.040000  0.953280  1
  C  C1309  1  0.878800  0.433540  0.452060  1
  C  C1310  1  0.121200  0.933540  0.047940  1
  C  C1311  1  0.121200  0.566460  0.547940  1
  C  C1312  1  0.878800  0.066460  0.952060  1
  C  C1313  1  0.834200  0.429130  0.429570  1
  C  C1314  1  0.165800  0.929130  0.070430  1
  C  C1315  1  0.165800  0.570870  0.570430  1
  C  C1316  1  0.834200  0.070870  0.929570  1
  C  C1317  1  0.827900  0.451210  0.408300  1
  C  C1318  1  0.172100  0.951210  0.091700  1
  C  C1319  1  0.172100  0.548790  0.591700  1
  C  C1320  1  0.827900  0.048790  0.908300  1
  C  C1321  1  0.783300  0.446800  0.385810  1
  C  C1322  1  0.216700  0.946800  0.114190  1
  C  C1323  1  0.216700  0.553200  0.614190  1
  C  C1324  1  0.783300  0.053200  0.885810  1
  C  C1325  1  0.745000  0.420300  0.384590  1
  C  C1326  1  0.255000  0.920300  0.115410  1
  C  C1327  1  0.255000  0.579700  0.615410  1
  C  C1328  1  0.745000  0.079700  0.884590  1
  C  C1329  1  0.751300  0.398210  0.405860  1
  C  C1330  1  0.248700  0.898210  0.094140  1
  C  C1331  1  0.248700  0.601790  0.594140  1
  C  C1332  1  0.751300  0.101790  0.905860  1
  C  C1333  1  0.795900  0.402630  0.428350  1
  C  C1334  1  0.204100  0.902630  0.071650  1
  C  C1335  1  0.204100  0.597370  0.571650  1
  C  C1336  1  0.795900  0.097370  0.928350  1
  C  C1337  1  0.009100  0.479600  0.305700  1
  C  C1338  1  0.990900  0.979600  0.194300  1
  C  C1339  1  0.990900  0.520400  0.694300  1
  C  C1340  1  0.009100  0.020400  0.805700  1
  C  C1341  1  0.990700  0.483400  0.278040  1
  C  C1342  1  0.009300  0.983400  0.221960  1
  C  C1343  1  0.009300  0.516600  0.721960  1
  C  C1344  1  0.990700  0.016600  0.778040  1
  C  C1345  1  0.939300  0.500800  0.267980  1
  C  C1346  1  0.060700  0.000800  0.232020  1
  C  C1347  1  0.060700  0.499200  0.732020  1
  C  C1348  1  0.939300  0.999200  0.767980  1
  C  C1349  1  0.906200  0.514300  0.285580  1
  C  C1350  1  0.093800  0.014300  0.214420  1
  C  C1351  1  0.093800  0.485700  0.714420  1
  C  C1352  1  0.906200  0.985700  0.785580  1
  C  C1353  1  0.924500  0.510400  0.313240  1
  C  C1354  1  0.075500  0.010400  0.186760  1
  C  C1355  1  0.075500  0.489600  0.686760  1
  C  C1356  1  0.924500  0.989600  0.813240  1
  C  C1357  1  0.057800  0.462500  0.316740  1
  C  C1358  1  0.942200  0.962500  0.183260  1
  C  C1359  1  0.942200  0.537500  0.683260  1
  C  C1360  1  0.057800  0.037500  0.816740  1
  C  C1361  1  0.107500  0.451600  0.306310  1
  C  C1362  1  0.892500  0.951600  0.193690  1
  C  C1363  1  0.892500  0.548400  0.693690  1
  C  C1364  1  0.107500  0.048400  0.806310  1
  C  C1365  1  0.149600  0.438600  0.328050  1
  C  C1366  1  0.850400  0.938600  0.171950  1
  C  C1367  1  0.850400  0.561400  0.671950  1
  C  C1368  1  0.149600  0.061400  0.828050  1
  C  C1369  1  0.147400  0.427300  0.377600  1
  C  C1370  1  0.852600  0.927300  0.122400  1
  C  C1371  1  0.852600  0.572700  0.622400  1
  C  C1372  1  0.147400  0.072700  0.877600  1
  C  C1373  1  0.236500  0.217000  0.484800  1
  C  C1374  1  0.763500  0.717000  0.015200  1
  C  C1375  1  0.763500  0.783000  0.515200  1
  C  C1376  1  0.236500  0.283000  0.984800  1
  C  C1377  1  0.251000  0.198600  0.508270  1
  C  C1378  1  0.749000  0.698600  0.991730  1
  C  C1379  1  0.749000  0.801400  0.491730  1
  C  C1380  1  0.251000  0.301400  0.008270  1
  C  C1381  1  0.295700  0.175300  0.510730  1
  C  C1382  1  0.704300  0.675300  0.989270  1
  C  C1383  1  0.704300  0.824700  0.489270  1
  C  C1384  1  0.295700  0.324700  0.010730  1
  C  C1385  1  0.325800  0.170300  0.489700  1
  C  C1386  1  0.674200  0.670300  0.010300  1
  C  C1387  1  0.674200  0.829700  0.510300  1
  C  C1388  1  0.325800  0.329700  0.989700  1
  C  C1389  1  0.311300  0.188600  0.466210  1
  C  C1390  1  0.688700  0.688600  0.033790  1
  C  C1391  1  0.688700  0.811400  0.533790  1
  C  C1392  1  0.311300  0.311400  0.966210  1
  C  C1393  1  0.192200  0.239100  0.481000  1
  C  C1394  1  0.807800  0.739100  0.019000  1
  C  C1395  1  0.807800  0.760900  0.519000  1
  C  C1396  1  0.192200  0.260900  0.981000  1
  C  C1397  1  0.152500  0.251700  0.496780  1
  C  C1398  1  0.847500  0.751700  0.003220  1
  C  C1399  1  0.847500  0.748300  0.503220  1
  C  C1400  1  0.152500  0.248300  0.996780  1
  C  C1401  1  0.113500  0.273800  0.480500  1
  C  C1402  1  0.886500  0.773800  0.019500  1
  C  C1403  1  0.886500  0.726200  0.519500  1
  C  C1404  1  0.113500  0.226200  0.980500  1
  C  C1405  1  0.105700  0.292200  0.431100  1
  C  C1406  1  0.894300  0.792200  0.068900  1
  C  C1407  1  0.894300  0.707800  0.568900  1
  C  C1408  1  0.105700  0.207800  0.931100  1
  C  C1409  1  0.123000  0.393020  0.380330  1
  C  C1410  1  0.877000  0.893020  0.119670  1
  C  C1411  1  0.877000  0.606980  0.619670  1
  C  C1412  1  0.123000  0.106980  0.880330  1
  C  C1413  1  0.081100  0.380400  0.359340  1
  C  C1414  1  0.918900  0.880400  0.140660  1
  C  C1415  1  0.918900  0.619600  0.640660  1
  C  C1416  1  0.081100  0.119600  0.859340  1
  C  C1417  1  0.055800  0.350000  0.362050  1
  C  C1418  1  0.944200  0.850000  0.137950  1
  C  C1419  1  0.944200  0.650000  0.637950  1
  C  C1420  1  0.055800  0.150000  0.862050  1
  C  C1421  1  0.072400  0.332230  0.385750  1
  C  C1422  1  0.927600  0.832230  0.114250  1
  C  C1423  1  0.927600  0.667770  0.614250  1
  C  C1424  1  0.072400  0.167770  0.885750  1
  C  C1425  1  0.114300  0.344890  0.406750  1
  C  C1426  1  0.885700  0.844890  0.093250  1
  C  C1427  1  0.885700  0.655110  0.593250  1
  C  C1428  1  0.114300  0.155110  0.906750  1
  C  C1429  1  0.139600  0.375290  0.404040  1
  C  C1430  1  0.860400  0.875290  0.095960  1
  C  C1431  1  0.860400  0.624710  0.595960  1
  C  C1432  1  0.139600  0.124710  0.904040  1
  C  C1433  1  0.181500  0.387950  0.425030  1
  C  C1434  1  0.818500  0.887950  0.074970  1
  C  C1435  1  0.818500  0.612050  0.574970  1
  C  C1436  1  0.181500  0.112050  0.925030  1
  C  C1437  1  0.198100  0.370200  0.448730  1
  C  C1438  1  0.801900  0.870200  0.051270  1
  C  C1439  1  0.801900  0.629800  0.551270  1
  C  C1440  1  0.198100  0.129800  0.948730  1
  C  C1441  1  0.172800  0.339800  0.451450  1
  C  C1442  1  0.827200  0.839800  0.048550  1
  C  C1443  1  0.827200  0.660200  0.548550  1
  C  C1444  1  0.172800  0.160200  0.951450  1
  C  C1445  1  0.130900  0.327150  0.430450  1
  C  C1446  1  0.869100  0.827150  0.069550  1
  C  C1447  1  0.869100  0.672850  0.569550  1
  C  C1448  1  0.130900  0.172850  0.930450  1
  C  C1449  1  0.014000  0.431300  0.412360  1
  C  C1450  1  0.986000  0.931300  0.087640  1
  C  C1451  1  0.986000  0.568700  0.587640  1
  C  C1452  1  0.014000  0.068700  0.912360  1
  C  C1453  1  0.034700  0.415100  0.436520  1
  C  C1454  1  0.965300  0.915100  0.063480  1
  C  C1455  1  0.965300  0.584900  0.563480  1
  C  C1456  1  0.034700  0.084900  0.936520  1
  C  C1457  1  0.079300  0.429000  0.455650  1
  C  C1458  1  0.920700  0.929000  0.044350  1
  C  C1459  1  0.920700  0.571000  0.544350  1
  C  C1460  1  0.079300  0.071000  0.955650  1
  C  C1461  1  0.103300  0.459000  0.450630  1
  C  C1462  1  0.896700  0.959000  0.049370  1
  C  C1463  1  0.896700  0.541000  0.549370  1
  C  C1464  1  0.103300  0.041000  0.950630  1
  C  C1465  1  0.082600  0.475200  0.426470  1
  C  C1466  1  0.917400  0.975200  0.073530  1
  C  C1467  1  0.917400  0.524800  0.573530  1
  C  C1468  1  0.082600  0.024800  0.926470  1
  C  C1469  1  0.968600  0.419700  0.393680  1
  C  C1470  1  0.031400  0.919700  0.106320  1
  C  C1471  1  0.031400  0.580300  0.606320  1
  C  C1472  1  0.968600  0.080300  0.893680  1
  C  C1473  1  0.929600  0.392700  0.393460  1
  C  C1474  1  0.070400  0.892700  0.106540  1
  C  C1475  1  0.070400  0.607300  0.606540  1
  C  C1476  1  0.929600  0.107300  0.893460  1
  C  C1477  1  0.886600  0.394200  0.369300  1
  C  C1478  1  0.113400  0.894200  0.130700  1
  C  C1479  1  0.113400  0.605800  0.630700  1
  C  C1480  1  0.886600  0.105800  0.869300  1
  C  C1481  1  0.869700  0.432300  0.328300  1
  C  C1482  1  0.130300  0.932300  0.171700  1
  C  C1483  1  0.130300  0.567700  0.671700  1
  C  C1484  1  0.869700  0.067700  0.828300  1
  C  C1485  1  0.776200  0.414300  0.124490  1
  C  C1486  1  0.223800  0.914300  0.375510  1
  C  C1487  1  0.223800  0.585700  0.875510  1
  C  C1488  1  0.776200  0.085700  0.624490  1
  C  C1489  1  0.754100  0.431100  0.100800  1
  C  C1490  1  0.245900  0.931100  0.399200  1
  C  C1491  1  0.245900  0.568900  0.899200  1
  C  C1492  1  0.754100  0.068900  0.600800  1
  C  C1493  1  0.710100  0.417100  0.081460  1
  C  C1494  1  0.289900  0.917100  0.418540  1
  C  C1495  1  0.289900  0.582900  0.918540  1
  C  C1496  1  0.710100  0.082900  0.581460  1
  C  C1497  1  0.688100  0.386300  0.085790  1
  C  C1498  1  0.311900  0.886300  0.414210  1
  C  C1499  1  0.311900  0.613700  0.914210  1
  C  C1500  1  0.688100  0.113700  0.585790  1
  C  C1501  1  0.710100  0.369500  0.109470  1
  C  C1502  1  0.289900  0.869500  0.390530  1
  C  C1503  1  0.289900  0.630500  0.890530  1
  C  C1504  1  0.710100  0.130500  0.609470  1
  C  C1505  1  0.817400  0.427000  0.143460  1
  C  C1506  1  0.182600  0.927000  0.356540  1
  C  C1507  1  0.182600  0.573000  0.856540  1
  C  C1508  1  0.817400  0.073000  0.643460  1
  C  C1509  1  0.851500  0.456200  0.146130  1
  C  C1510  1  0.148500  0.956200  0.353870  1
  C  C1511  1  0.148500  0.543800  0.853870  1
  C  C1512  1  0.851500  0.043800  0.646130  1
  C  C1513  1  0.893100  0.454500  0.170780  1
  C  C1514  1  0.106900  0.954500  0.329220  1
  C  C1515  1  0.106900  0.545500  0.829220  1
  C  C1516  1  0.893100  0.045500  0.670780  1
  C  C1517  1  0.909200  0.412900  0.209300  1
  C  C1518  1  0.090800  0.912900  0.290700  1
  C  C1519  1  0.090800  0.587100  0.790700  1
  C  C1520  1  0.909200  0.087100  0.709300  1
  C  C1521  1  0.898100  0.418700  0.305710  1
  C  C1522  1  0.101900  0.918700  0.194290  1
  C  C1523  1  0.101900  0.581300  0.694290  1
  C  C1524  1  0.898100  0.081300  0.805710  1
  C  C1525  1  0.949200  0.399800  0.311670  1
  C  C1526  1  0.050800  0.899800  0.188330  1
  C  C1527  1  0.050800  0.600200  0.688330  1
  C  C1528  1  0.949200  0.100200  0.811670  1
  C  C1529  1  0.977000  0.389300  0.291070  1
  C  C1530  1  0.023000  0.889300  0.208930  1
  C  C1531  1  0.023000  0.610700  0.708930  1
  C  C1532  1  0.977000  0.110700  0.791070  1
  C  C1533  1  0.953900  0.397710  0.264500  1
  C  C1534  1  0.046100  0.897710  0.235500  1
  C  C1535  1  0.046100  0.602290  0.735500  1
  C  C1536  1  0.953900  0.102290  0.764500  1
  C  C1537  1  0.902800  0.416620  0.258540  1
  C  C1538  1  0.097200  0.916620  0.241460  1
  C  C1539  1  0.097200  0.583380  0.741460  1
  C  C1540  1  0.902800  0.083380  0.758540  1
  C  C1541  1  0.875000  0.427110  0.279140  1
  C  C1542  1  0.125000  0.927110  0.220860  1
  C  C1543  1  0.125000  0.572890  0.720860  1
  C  C1544  1  0.875000  0.072890  0.779140  1
  C  C1545  1  0.823900  0.446020  0.273180  1
  C  C1546  1  0.176100  0.946020  0.226820  1
  C  C1547  1  0.176100  0.553980  0.726820  1
  C  C1548  1  0.823900  0.053980  0.773180  1
  C  C1549  1  0.800700  0.454400  0.246610  1
  C  C1550  1  0.199300  0.954400  0.253390  1
  C  C1551  1  0.199300  0.545600  0.753390  1
  C  C1552  1  0.800700  0.045600  0.746610  1
  C  C1553  1  0.828600  0.444000  0.226010  1
  C  C1554  1  0.171400  0.944000  0.273990  1
  C  C1555  1  0.171400  0.556000  0.773990  1
  C  C1556  1  0.828600  0.056000  0.726010  1
  C  C1557  1  0.879600  0.425100  0.231970  1
  C  C1558  1  0.120400  0.925100  0.268030  1
  C  C1559  1  0.120400  0.574900  0.768030  1
  C  C1560  1  0.879600  0.074900  0.731970  1
  C  C1561  1  0.891200  0.089100  0.567530  1
  C  C1562  1  0.108800  0.589100  0.932470  1
  C  C1563  1  0.108800  0.910900  0.432470  1
  C  C1564  1  0.891200  0.410900  0.067530  1
  C  C1565  1  0.912500  0.071200  0.590800  1
  C  C1566  1  0.087500  0.571200  0.909200  1
  C  C1567  1  0.087500  0.928800  0.409200  1
  C  C1568  1  0.912500  0.428800  0.090800  1
  C  C1569  1  0.958000  0.083800  0.610190  1
  C  C1570  1  0.042000  0.583800  0.889810  1
  C  C1571  1  0.042000  0.916200  0.389810  1
  C  C1572  1  0.958000  0.416200  0.110190  1
  C  C1573  1  0.982300  0.114100  0.606350  1
  C  C1574  1  0.017700  0.614100  0.893650  1
  C  C1575  1  0.017700  0.885900  0.393650  1
  C  C1576  1  0.982300  0.385900  0.106350  1
  C  C1577  1  0.961000  0.131900  0.583100  1
  C  C1578  1  0.039000  0.631900  0.916900  1
  C  C1579  1  0.039000  0.868100  0.416900  1
  C  C1580  1  0.961000  0.368100  0.083100  1
  C  C1581  1  0.848500  0.077200  0.547500  1
  C  C1582  1  0.151500  0.577200  0.952500  1
  C  C1583  1  0.151500  0.922800  0.452500  1
  C  C1584  1  0.848500  0.422800  0.047500  1
  C  C1585  1  0.814200  0.048000  0.544400  1
  C  C1586  1  0.185800  0.548000  0.955600  1
  C  C1587  1  0.185800  0.952000  0.455600  1
  C  C1588  1  0.814200  0.452000  0.044400  1
  C  C1589  1  0.771900  0.050600  0.520000  1
  C  C1590  1  0.228100  0.550600  0.980000  1
  C  C1591  1  0.228100  0.949400  0.480000  1
  C  C1592  1  0.771900  0.449400  0.020000  1
  C  C1593  1  0.751500  0.095000  0.482100  1
  C  C1594  1  0.248500  0.595000  0.017900  1
  C  C1595  1  0.248500  0.905000  0.517900  1
  C  C1596  1  0.751500  0.405000  0.982100  1
  C  C1597  1  0.636800  0.084700  0.281170  1
  C  C1598  1  0.363200  0.584700  0.218830  1
  C  C1599  1  0.363200  0.915300  0.718830  1
  C  C1600  1  0.636800  0.415300  0.781170  1
  C  C1601  1  0.614000  0.098800  0.256300  1
  C  C1602  1  0.386000  0.598800  0.243700  1
  C  C1603  1  0.386000  0.901200  0.743700  1
  C  C1604  1  0.614000  0.401200  0.756300  1
  C  C1605  1  0.567600  0.083700  0.238940  1
  C  C1606  1  0.432400  0.583700  0.261060  1
  C  C1607  1  0.432400  0.916300  0.761060  1
  C  C1608  1  0.567600  0.416300  0.738940  1
  C  C1609  1  0.544000  0.054600  0.246460  1
  C  C1610  1  0.456000  0.554600  0.253540  1
  C  C1611  1  0.456000  0.945400  0.753540  1
  C  C1612  1  0.544000  0.445400  0.746460  1
  C  C1613  1  0.566800  0.040600  0.271340  1
  C  C1614  1  0.433200  0.540600  0.228660  1
  C  C1615  1  0.433200  0.959400  0.728660  1
  C  C1616  1  0.566800  0.459400  0.771340  1
  C  C1617  1  0.765900  0.122900  0.321300  1
  C  C1618  1  0.234100  0.622900  0.178700  1
  C  C1619  1  0.234100  0.877100  0.678700  1
  C  C1620  1  0.765900  0.377100  0.821300  1
  C  C1621  1  0.720200  0.124300  0.298060  1
  C  C1622  1  0.279800  0.624300  0.201940  1
  C  C1623  1  0.279800  0.875700  0.701940  1
  C  C1624  1  0.720200  0.375700  0.798060  1
  C  C1625  1  0.683000  0.096700  0.298560  1
  C  C1626  1  0.317000  0.596700  0.201440  1
  C  C1627  1  0.317000  0.903300  0.701440  1
  C  C1628  1  0.683000  0.403300  0.798560  1
  C  C1629  1  0.788600  0.084100  0.361300  1
  C  C1630  1  0.211400  0.584100  0.138700  1
  C  C1631  1  0.211400  0.915900  0.638700  1
  C  C1632  1  0.788600  0.415900  0.861300  1
  C  C1633  1  0.783400  0.084600  0.459160  1
  C  C1634  1  0.216600  0.584600  0.040840  1
  C  C1635  1  0.216600  0.915400  0.540840  1
  C  C1636  1  0.783400  0.415400  0.959160  1
  C  C1637  1  0.833500  0.064900  0.463700  1
  C  C1638  1  0.166500  0.564900  0.036300  1
  C  C1639  1  0.166500  0.935100  0.536300  1
  C  C1640  1  0.833500  0.435100  0.963700  1
  C  C1641  1  0.860100  0.055800  0.442300  1
  C  C1642  1  0.139900  0.555800  0.057700  1
  C  C1643  1  0.139900  0.944200  0.557700  1
  C  C1644  1  0.860100  0.444200  0.942300  1
  C  C1645  1  0.836400  0.066500  0.416340  1
  C  C1646  1  0.163600  0.566500  0.083660  1
  C  C1647  1  0.163600  0.933500  0.583660  1
  C  C1648  1  0.836400  0.433500  0.916340  1
  C  C1649  1  0.786300  0.086140  0.411800  1
  C  C1650  1  0.213700  0.586140  0.088200  1
  C  C1651  1  0.213700  0.913860  0.588200  1
  C  C1652  1  0.786300  0.413860  0.911800  1
  C  C1653  1  0.759700  0.095210  0.433200  1
  C  C1654  1  0.240300  0.595210  0.066800  1
  C  C1655  1  0.240300  0.904790  0.566800  1
  C  C1656  1  0.759700  0.404790  0.933200  1
  C  C1657  1  0.709500  0.114900  0.428660  1
  C  C1658  1  0.290500  0.614900  0.071340  1
  C  C1659  1  0.290500  0.885100  0.571340  1
  C  C1660  1  0.709500  0.385100  0.928660  1
  C  C1661  1  0.685900  0.125500  0.402710  1
  C  C1662  1  0.314100  0.625500  0.097290  1
  C  C1663  1  0.314100  0.874500  0.597290  1
  C  C1664  1  0.685900  0.374500  0.902710  1
  C  C1665  1  0.712400  0.116500  0.381300  1
  C  C1666  1  0.287600  0.616500  0.118700  1
  C  C1667  1  0.287600  0.883500  0.618700  1
  C  C1668  1  0.712400  0.383500  0.881300  1
  C  C1669  1  0.762600  0.096800  0.385850  1
  C  C1670  1  0.237400  0.596800  0.114150  1
  C  C1671  1  0.237400  0.903200  0.614150  1
  C  C1672  1  0.762600  0.403200  0.885850  1
  C  C1673  1  0.979700  0.068100  0.247300  1
  C  C1674  1  0.020300  0.568100  0.252700  1
  C  C1675  1  0.020300  0.931900  0.752700  1
  C  C1676  1  0.979700  0.431900  0.747300  1
  C  C1677  1  0.938700  0.043200  0.247430  1
  C  C1678  1  0.061300  0.543200  0.252570  1
  C  C1679  1  0.061300  0.956800  0.752570  1
  C  C1680  1  0.938700  0.456800  0.747430  1
  C  C1681  1  0.895800  0.037100  0.224600  1
  C  C1682  1  0.104200  0.537100  0.275400  1
  C  C1683  1  0.104200  0.962900  0.775400  1
  C  C1684  1  0.895800  0.462900  0.724600  1
  C  C1685  1  0.894000  0.056100  0.201570  1
  C  C1686  1  0.106000  0.556100  0.298430  1
  C  C1687  1  0.106000  0.943900  0.798430  1
  C  C1688  1  0.894000  0.443900  0.701570  1
  C  C1689  1  0.935000  0.081000  0.201430  1
  C  C1690  1  0.065000  0.581000  0.298570  1
  C  C1691  1  0.065000  0.919000  0.798570  1
  C  C1692  1  0.935000  0.419000  0.701430  1
  C  C1693  1  0.024100  0.073800  0.268330  1
  C  C1694  1  0.975900  0.573800  0.231670  1
  C  C1695  1  0.975900  0.926200  0.731670  1
  C  C1696  1  0.024100  0.426200  0.768330  1
  C  C1697  1  0.041900  0.058400  0.293800  1
  C  C1698  1  0.958100  0.558400  0.206200  1
  C  C1699  1  0.958100  0.941600  0.706200  1
  C  C1700  1  0.041900  0.441600  0.793800  1
  C  C1701  1  0.090700  0.076200  0.308450  1
  C  C1702  1  0.909300  0.576200  0.191550  1
  C  C1703  1  0.909300  0.923800  0.691550  1
  C  C1704  1  0.090700  0.423800  0.808450  1
  C  C1705  1  0.144500  0.126400  0.298700  1
  C  C1706  1  0.855500  0.626400  0.201300  1
  C  C1707  1  0.855500  0.873600  0.701300  1
  C  C1708  1  0.144500  0.373600  0.798700  1
  C  C1709  1  0.292400  0.311400  0.428560  1
  C  C1710  1  0.707600  0.811400  0.071440  1
  C  C1711  1  0.707600  0.688600  0.571440  1
  C  C1712  1  0.292400  0.188600  0.928560  1
  C  C1713  1  0.324700  0.339100  0.437940  1
  C  C1714  1  0.675300  0.839100  0.062060  1
  C  C1715  1  0.675300  0.660900  0.562060  1
  C  C1716  1  0.324700  0.160900  0.937940  1
  C  C1717  1  0.356800  0.340100  0.464200  1
  C  C1718  1  0.643200  0.840100  0.035800  1
  C  C1719  1  0.643200  0.659900  0.535800  1
  C  C1720  1  0.356800  0.159900  0.964200  1
  C  C1721  1  0.356500  0.313300  0.481060  1
  C  C1722  1  0.643500  0.813300  0.018940  1
  C  C1723  1  0.643500  0.686700  0.518940  1
  C  C1724  1  0.356500  0.186700  0.981060  1
  C  C1725  1  0.324200  0.285500  0.471680  1
  C  C1726  1  0.675800  0.785500  0.028320  1
  C  C1727  1  0.675800  0.714500  0.528320  1
  C  C1728  1  0.324200  0.214500  0.971680  1
  C  C1729  1  0.257400  0.309100  0.403970  1
  C  C1730  1  0.742600  0.809100  0.096030  1
  C  C1731  1  0.742600  0.690900  0.596030  1
  C  C1732  1  0.257400  0.190900  0.903970  1
  C  C1733  1  0.242400  0.331000  0.382000  1
  C  C1734  1  0.757600  0.831000  0.118000  1
  C  C1735  1  0.757600  0.669000  0.618000  1
  C  C1736  1  0.242400  0.169000  0.882000  1
  C  C1737  1  0.197200  0.316300  0.362580  1
  C  C1738  1  0.802800  0.816300  0.137420  1
  C  C1739  1  0.802800  0.683700  0.637420  1
  C  C1740  1  0.197200  0.183700  0.862580  1
  C  C1741  1  0.143600  0.261300  0.360600  1
  C  C1742  1  0.856400  0.761300  0.139400  1
  C  C1743  1  0.856400  0.738700  0.639400  1
  C  C1744  1  0.143600  0.238700  0.860600  1
  C  C1745  1  0.118900  0.157780  0.311430  1
  C  C1746  1  0.881100  0.657780  0.188570  1
  C  C1747  1  0.881100  0.842220  0.688570  1
  C  C1748  1  0.118900  0.342220  0.811430  1
  C  C1749  1  0.060300  0.156900  0.314720  1
  C  C1750  1  0.939700  0.656900  0.185280  1
  C  C1751  1  0.939700  0.843100  0.685280  1
  C  C1752  1  0.060300  0.343100  0.814720  1
  C  C1753  1  0.037600  0.182400  0.327900  1
  C  C1754  1  0.962400  0.682400  0.172100  1
  C  C1755  1  0.962400  0.817600  0.672100  1
  C  C1756  1  0.037600  0.317600  0.827900  1
  C  C1757  1  0.073500  0.208700  0.337790  1
  C  C1758  1  0.926500  0.708700  0.162210  1
  C  C1759  1  0.926500  0.791300  0.662210  1
  C  C1760  1  0.073500  0.291300  0.837790  1
  C  C1761  1  0.132100  0.209550  0.334500  1
  C  C1762  1  0.867900  0.709550  0.165500  1
  C  C1763  1  0.867900  0.790450  0.665500  1
  C  C1764  1  0.132100  0.290450  0.834500  1
  C  C1765  1  0.154800  0.184090  0.321320  1
  C  C1766  1  0.845200  0.684090  0.178680  1
  C  C1767  1  0.845200  0.815910  0.678680  1
  C  C1768  1  0.154800  0.315910  0.821320  1
  C  C1769  1  0.213400  0.184900  0.318030  1
  C  C1770  1  0.786600  0.684900  0.181970  1
  C  C1771  1  0.786600  0.815100  0.681970  1
  C  C1772  1  0.213400  0.315100  0.818030  1
  C  C1773  1  0.249400  0.211200  0.327910  1
  C  C1774  1  0.750600  0.711200  0.172090  1
  C  C1775  1  0.750600  0.788800  0.672090  1
  C  C1776  1  0.249400  0.288800  0.827910  1
  C  C1777  1  0.226700  0.236700  0.341100  1
  C  C1778  1  0.773300  0.736700  0.158900  1
  C  C1779  1  0.773300  0.763300  0.658900  1
  C  C1780  1  0.226700  0.263300  0.841100  1
  C  C1781  1  0.168100  0.235850  0.344390  1
  C  C1782  1  0.831900  0.735850  0.155610  1
  C  C1783  1  0.831900  0.764150  0.655610  1
  C  C1784  1  0.168100  0.264150  0.844390  1
  C  C1785  1  0.294600  0.191300  0.395220  1
  C  C1786  1  0.705400  0.691300  0.104780  1
  C  C1787  1  0.705400  0.808700  0.604780  1
  C  C1788  1  0.294600  0.308700  0.895220  1
  C  C1789  1  0.338300  0.174780  0.384970  1
  C  C1790  1  0.661700  0.674780  0.115030  1
  C  C1791  1  0.661700  0.825220  0.615030  1
  C  C1792  1  0.338300  0.325220  0.884970  1
  C  C1793  1  0.394900  0.188000  0.387910  1
  C  C1794  1  0.605100  0.688000  0.112090  1
  C  C1795  1  0.605100  0.812000  0.612090  1
  C  C1796  1  0.394900  0.312000  0.887910  1
  C  C1797  1  0.407800  0.217700  0.401090  1
  C  C1798  1  0.592200  0.717700  0.098910  1
  C  C1799  1  0.592200  0.782300  0.598910  1
  C  C1800  1  0.407800  0.282300  0.901090  1
  C  C1801  1  0.364100  0.234200  0.411340  1
  C  C1802  1  0.635900  0.734200  0.088660  1
  C  C1803  1  0.635900  0.765800  0.588660  1
  C  C1804  1  0.364100  0.265800  0.911340  1
  C  C1805  1  0.239800  0.179500  0.394900  1
  C  C1806  1  0.760200  0.679500  0.105100  1
  C  C1807  1  0.760200  0.820500  0.605100  1
  C  C1808  1  0.239800  0.320500  0.894900  1
  C  C1809  1  0.209200  0.151400  0.382900  1
  C  C1810  1  0.790800  0.651400  0.117100  1
  C  C1811  1  0.790800  0.848600  0.617100  1
  C  C1812  1  0.209200  0.348600  0.882900  1
  C  C1813  1  0.150000  0.153100  0.387190  1
  C  C1814  1  0.850000  0.653100  0.112810  1
  C  C1815  1  0.850000  0.846900  0.612810  1
  C  C1816  1  0.150000  0.346900  0.887190  1
  C  C1817  1  0.098600  0.192000  0.414100  1
  C  C1818  1  0.901400  0.692000  0.085900  1
  C  C1819  1  0.901400  0.808000  0.585900  1
  C  C1820  1  0.098600  0.308000  0.914100  1
  C  C1821  1  0.840300  0.205000  0.552670  1
  C  C1822  1  0.159700  0.705000  0.947330  1
  C  C1823  1  0.159700  0.795000  0.447330  1
  C  C1824  1  0.840300  0.295000  0.052670  1
  C  C1825  1  0.805300  0.227440  0.563190  1
  C  C1826  1  0.194700  0.727440  0.936810  1
  C  C1827  1  0.194700  0.772560  0.436810  1
  C  C1828  1  0.805300  0.272560  0.063190  1
  C  C1829  1  0.747400  0.219500  0.564800  1
  C  C1830  1  0.252600  0.719500  0.935200  1
  C  C1831  1  0.252600  0.780500  0.435200  1
  C  C1832  1  0.747400  0.280500  0.064800  1
  C  C1833  1  0.724400  0.189100  0.555890  1
  C  C1834  1  0.275600  0.689100  0.944110  1
  C  C1835  1  0.275600  0.810900  0.444110  1
  C  C1836  1  0.724400  0.310900  0.055890  1
  C  C1837  1  0.759300  0.166740  0.545370  1
  C  C1838  1  0.240700  0.666740  0.954630  1
  C  C1839  1  0.240700  0.833260  0.454630  1
  C  C1840  1  0.759300  0.333260  0.045370  1
  C  C1841  1  0.896000  0.211700  0.551800  1
  C  C1842  1  0.104000  0.711700  0.948200  1
  C  C1843  1  0.104000  0.788300  0.448200  1
  C  C1844  1  0.896000  0.288300  0.051800  1
  C  C1845  1  0.936000  0.236500  0.563450  1
  C  C1846  1  0.064000  0.736500  0.936550  1
  C  C1847  1  0.064000  0.763500  0.436550  1
  C  C1848  1  0.936000  0.263500  0.063450  1
  C  C1849  1  0.992400  0.229400  0.557360  1
  C  C1850  1  0.007600  0.729400  0.942640  1
  C  C1851  1  0.007600  0.770600  0.442640  1
  C  C1852  1  0.992400  0.270600  0.057360  1
  C  C1853  1  0.028900  0.185300  0.529600  1
  C  C1854  1  0.971100  0.685300  0.970400  1
  C  C1855  1  0.971100  0.814700  0.470400  1
  C  C1856  1  0.028900  0.314700  0.029600  1
  C  C1857  1  0.100300  0.180000  0.442850  1
  C  C1858  1  0.899700  0.680000  0.057150  1
  C  C1859  1  0.899700  0.820000  0.557150  1
  C  C1860  1  0.100300  0.320000  0.942850  1
  C  C1861  1  0.142400  0.157000  0.453950  1
  C  C1862  1  0.857600  0.657000  0.046050  1
  C  C1863  1  0.857600  0.843000  0.546050  1
  C  C1864  1  0.142400  0.343000  0.953950  1
  C  C1865  1  0.145800  0.146740  0.480440  1
  C  C1866  1  0.854200  0.646740  0.019560  1
  C  C1867  1  0.854200  0.853260  0.519560  1
  C  C1868  1  0.145800  0.353260  0.980440  1
  C  C1869  1  0.107200  0.159560  0.495830  1
  C  C1870  1  0.892800  0.659560  0.004170  1
  C  C1871  1  0.892800  0.840440  0.504170  1
  C  C1872  1  0.107200  0.340440  0.995830  1
  C  C1873  1  0.065100  0.182610  0.484730  1
  C  C1874  1  0.934900  0.682610  0.015270  1
  C  C1875  1  0.934900  0.817390  0.515270  1
  C  C1876  1  0.065100  0.317390  0.984730  1
  C  C1877  1  0.061700  0.192840  0.458240  1
  C  C1878  1  0.938300  0.692840  0.041760  1
  C  C1879  1  0.938300  0.807160  0.541760  1
  C  C1880  1  0.061700  0.307160  0.958240  1
  C  C1881  1  0.019600  0.215890  0.447140  1
  C  C1882  1  0.980400  0.715890  0.052860  1
  C  C1883  1  0.980400  0.784110  0.552860  1
  C  C1884  1  0.019600  0.284110  0.947140  1
  C  C1885  1  0.981000  0.228710  0.462530  1
  C  C1886  1  0.019000  0.728710  0.037470  1
  C  C1887  1  0.019000  0.771290  0.537470  1
  C  C1888  1  0.981000  0.271290  0.962530  1
  C  C1889  1  0.984400  0.218500  0.489020  1
  C  C1890  1  0.015600  0.718500  0.010980  1
  C  C1891  1  0.015600  0.781500  0.510980  1
  C  C1892  1  0.984400  0.281500  0.989020  1
  C  C1893  1  0.026500  0.195400  0.500120  1
  C  C1894  1  0.973500  0.695400  0.999880  1
  C  C1895  1  0.973500  0.804600  0.499880  1
  C  C1896  1  0.026500  0.304600  0.000120  1
  C  C1897  1  0.725000  0.386100  0.213320  1
  C  C1898  1  0.275000  0.886100  0.286680  1
  C  C1899  1  0.275000  0.613900  0.786680  1
  C  C1900  1  0.725000  0.113900  0.713320  1
  C  C1901  1  0.686800  0.403500  0.226350  1
  C  C1902  1  0.313200  0.903500  0.273650  1
  C  C1903  1  0.313200  0.596500  0.773650  1
  C  C1904  1  0.686800  0.096500  0.726350  1
  C  C1905  1  0.646800  0.425500  0.211980  1
  C  C1906  1  0.353200  0.925500  0.288020  1
  C  C1907  1  0.353200  0.574500  0.788020  1
  C  C1908  1  0.646800  0.074500  0.711980  1
  C  C1909  1  0.645000  0.430200  0.184590  1
  C  C1910  1  0.355000  0.930200  0.315410  1
  C  C1911  1  0.355000  0.569800  0.815410  1
  C  C1912  1  0.645000  0.069800  0.684590  1
  C  C1913  1  0.683200  0.412800  0.171560  1
  C  C1914  1  0.316800  0.912800  0.328440  1
  C  C1915  1  0.316800  0.587200  0.828440  1
  C  C1916  1  0.683200  0.087200  0.671560  1
  C  C1917  1  0.769500  0.367400  0.226040  1
  C  C1918  1  0.230500  0.867400  0.273960  1
  C  C1919  1  0.230500  0.632600  0.773960  1
  C  C1920  1  0.769500  0.132600  0.726040  1
  C  C1921  1  0.787900  0.358900  0.253610  1
  C  C1922  1  0.212100  0.858900  0.246390  1
  C  C1923  1  0.212100  0.641100  0.746390  1
  C  C1924  1  0.787900  0.141100  0.753610  1
  C  C1925  1  0.839400  0.339100  0.255950  1
  C  C1926  1  0.160600  0.839100  0.244050  1
  C  C1927  1  0.160600  0.660900  0.744050  1
  C  C1928  1  0.839400  0.160900  0.755950  1
  C  C1929  1  0.899700  0.317900  0.222000  1
  C  C1930  1  0.100300  0.817900  0.278000  1
  C  C1931  1  0.100300  0.682100  0.778000  1
  C  C1932  1  0.899700  0.182100  0.722000  1
  C  C1933  1  0.108700  0.111300  0.184270  1
  C  C1934  1  0.891300  0.611300  0.315730  1
  C  C1935  1  0.891300  0.888700  0.815730  1
  C  C1936  1  0.108700  0.388700  0.684270  1
  C  C1937  1  0.152400  0.098200  0.171840  1
  C  C1938  1  0.847600  0.598200  0.328160  1
  C  C1939  1  0.847600  0.901800  0.828160  1
  C  C1940  1  0.152400  0.401800  0.671840  1
  C  C1941  1  0.200000  0.081600  0.187050  1
  C  C1942  1  0.800000  0.581600  0.312950  1
  C  C1943  1  0.800000  0.918400  0.812950  1
  C  C1944  1  0.200000  0.418400  0.687050  1
  C  C1945  1  0.204000  0.078000  0.214700  1
  C  C1946  1  0.796000  0.578000  0.285300  1
  C  C1947  1  0.796000  0.922000  0.785300  1
  C  C1948  1  0.204000  0.422000  0.714700  1
  C  C1949  1  0.160300  0.091100  0.227130  1
  C  C1950  1  0.839700  0.591100  0.272870  1
  C  C1951  1  0.839700  0.908900  0.772870  1
  C  C1952  1  0.160300  0.408900  0.727130  1
  C  C1953  1  0.061000  0.129300  0.170700  1
  C  C1954  1  0.939000  0.629300  0.329300  1
  C  C1955  1  0.939000  0.870700  0.829300  1
  C  C1956  1  0.061000  0.370700  0.670700  1
  C  C1957  1  0.044500  0.140500  0.143730  1
  C  C1958  1  0.955500  0.640500  0.356270  1
  C  C1959  1  0.955500  0.859500  0.856270  1
  C  C1960  1  0.044500  0.359500  0.643730  1
  C  C1961  1  0.991900  0.159200  0.141740  1
  C  C1962  1  0.008100  0.659200  0.358260  1
  C  C1963  1  0.008100  0.840800  0.858260  1
  C  C1964  1  0.991900  0.340800  0.641740  1
  C  C1965  1  0.931700  0.177900  0.175800  1
  C  C1966  1  0.068300  0.677900  0.324200  1
  C  C1967  1  0.068300  0.822100  0.824200  1
  C  C1968  1  0.931700  0.322100  0.675800  1
  C  C1969  1  0.883800  0.283150  0.212870  1
  C  C1970  1  0.116200  0.783150  0.287130  1
  C  C1971  1  0.116200  0.716850  0.787130  1
  C  C1972  1  0.883800  0.216850  0.712870  1
  C  C1973  1  0.826700  0.271930  0.212790  1
  C  C1974  1  0.173300  0.771930  0.287210  1
  C  C1975  1  0.173300  0.728070  0.787210  1
  C  C1976  1  0.826700  0.228070  0.712790  1
  C  C1977  1  0.810400  0.240600  0.203580  1
  C  C1978  1  0.189600  0.740600  0.296420  1
  C  C1979  1  0.189600  0.759400  0.796420  1
  C  C1980  1  0.810400  0.259400  0.703580  1
  C  C1981  1  0.851200  0.220490  0.194450  1
  C  C1982  1  0.148800  0.720490  0.305550  1
  C  C1983  1  0.148800  0.779510  0.805550  1
  C  C1984  1  0.851200  0.279510  0.694450  1
  C  C1985  1  0.908200  0.231710  0.194540  1
  C  C1986  1  0.091800  0.731710  0.305460  1
  C  C1987  1  0.091800  0.768290  0.805460  1
  C  C1988  1  0.908200  0.268290  0.694540  1
  C  C1989  1  0.924600  0.263040  0.203750  1
  C  C1990  1  0.075400  0.763040  0.296250  1
  C  C1991  1  0.075400  0.736960  0.796250  1
  C  C1992  1  0.924600  0.236960  0.703750  1
  C  C1993  1  0.981600  0.274270  0.203840  1
  C  C1994  1  0.018400  0.774270  0.296160  1
  C  C1995  1  0.018400  0.725730  0.796160  1
  C  C1996  1  0.981600  0.225730  0.703840  1
  C  C1997  1  0.022400  0.254160  0.194710  1
  C  C1998  1  0.977600  0.754160  0.305290  1
  C  C1999  1  0.977600  0.745840  0.805290  1
  C  C2000  1  0.022400  0.245840  0.694710  1
  C  C2001  1  0.006100  0.222830  0.185510  1
  C  C2002  1  0.993900  0.722830  0.314490  1
  C  C2003  1  0.993900  0.777170  0.814490  1
  C  C2004  1  0.006100  0.277170  0.685510  1
  C  C2005  1  0.949000  0.211610  0.185420  1
  C  C2006  1  0.051000  0.711610  0.314580  1
  C  C2007  1  0.051000  0.788390  0.814580  1
  C  C2008  1  0.949000  0.288390  0.685420  1
  C  C2009  1  0.689600  0.454500  0.445630  1
  C  C2010  1  0.310400  0.954500  0.054370  1
  C  C2011  1  0.310400  0.545500  0.554370  1
  C  C2012  1  0.689600  0.045500  0.945630  1
  C  C2013  1  0.723700  0.482300  0.444330  1
  C  C2014  1  0.276300  0.982300  0.055670  1
  C  C2015  1  0.276300  0.517700  0.555670  1
  C  C2016  1  0.723700  0.017700  0.944330  1
  C  C2017  1  0.768900  0.490200  0.465800  1
  C  C2018  1  0.231100  0.990200  0.034200  1
  C  C2019  1  0.231100  0.509800  0.534200  1
  C  C2020  1  0.768900  0.009800  0.965800  1
  C  C2021  1  0.780000  0.470400  0.488520  1
  C  C2022  1  0.220000  0.970400  0.011480  1
  C  C2023  1  0.220000  0.529600  0.511480  1
  C  C2024  1  0.780000  0.029600  0.988520  1
  C  C2025  1  0.745900  0.442600  0.489820  1
  C  C2026  1  0.254100  0.942600  0.010180  1
  C  C2027  1  0.254100  0.557400  0.510180  1
  C  C2028  1  0.745900  0.057400  0.989820  1
  C  C2029  1  0.643300  0.444900  0.425400  1
  C  C2030  1  0.356700  0.944900  0.074600  1
  C  C2031  1  0.356700  0.555100  0.574600  1
  C  C2032  1  0.643300  0.055100  0.925400  1
  C  C2033  1  0.616300  0.459900  0.400800  1
  C  C2034  1  0.383700  0.959900  0.099200  1
  C  C2035  1  0.383700  0.540100  0.599200  1
  C  C2036  1  0.616300  0.040100  0.900800  1
  C  C2037  1  0.566000  0.441000  0.389300  1
  C  C2038  1  0.434000  0.941000  0.110700  1
  C  C2039  1  0.434000  0.559000  0.610700  1
  C  C2040  1  0.566000  0.059000  0.889300  1
  C  C2041  1  0.525700  0.388400  0.403200  1
  C  C2042  1  0.474300  0.888400  0.096800  1
  C  C2043  1  0.474300  0.611600  0.596800  1
  C  C2044  1  0.525700  0.111600  0.903200  1
  C  C2045  1  0.375900  0.204600  0.270620  1
  C  C2046  1  0.624100  0.704600  0.229380  1
  C  C2047  1  0.624100  0.795400  0.729380  1
  C  C2048  1  0.375900  0.295400  0.770620  1
  C  C2049  1  0.342900  0.176800  0.261870  1
  C  C2050  1  0.657100  0.676800  0.238130  1
  C  C2051  1  0.657100  0.823200  0.738130  1
  C  C2052  1  0.342900  0.323200  0.761870  1
  C  C2053  1  0.311000  0.175200  0.235610  1
  C  C2054  1  0.689000  0.675200  0.264390  1
  C  C2055  1  0.689000  0.824800  0.764390  1
  C  C2056  1  0.311000  0.324800  0.735610  1
  C  C2057  1  0.312100  0.201300  0.218110  1
  C  C2058  1  0.687900  0.701300  0.281890  1
  C  C2059  1  0.687900  0.798700  0.781890  1
  C  C2060  1  0.312100  0.298700  0.718110  1
  C  C2061  1  0.345000  0.229100  0.226860  1
  C  C2062  1  0.655000  0.729100  0.273140  1
  C  C2063  1  0.655000  0.770900  0.773140  1
  C  C2064  1  0.345000  0.270900  0.726860  1
  C  C2065  1  0.414200  0.206900  0.295000  1
  C  C2066  1  0.585800  0.706900  0.205000  1
  C  C2067  1  0.585800  0.793100  0.705000  1
  C  C2068  1  0.414200  0.293100  0.795000  1
  C  C2069  1  0.425300  0.186910  0.318400  1
  C  C2070  1  0.574700  0.686910  0.181600  1
  C  C2071  1  0.574700  0.813090  0.681600  1
  C  C2072  1  0.425300  0.313090  0.818400  1
  C  C2073  1  0.468600  0.202700  0.338000  1
  C  C2074  1  0.531400  0.702700  0.162000  1
  C  C2075  1  0.531400  0.797300  0.662000  1
  C  C2076  1  0.468600  0.297300  0.838000  1
  C  C2077  1  0.522700  0.255200  0.338300  1
  C  C2078  1  0.477300  0.755200  0.161700  1
  C  C2079  1  0.477300  0.744800  0.661700  1
  C  C2080  1  0.522700  0.244800  0.838300  1
  C  C2081  1  0.547400  0.359470  0.387960  1
  C  C2082  1  0.452600  0.859470  0.112040  1
  C  C2083  1  0.452600  0.640530  0.612040  1
  C  C2084  1  0.547400  0.140530  0.887960  1
  C  C2085  1  0.605300  0.361450  0.383760  1
  C  C2086  1  0.394700  0.861450  0.116240  1
  C  C2087  1  0.394700  0.638550  0.616240  1
  C  C2088  1  0.605300  0.138550  0.883760  1
  C  C2089  1  0.628200  0.336700  0.369940  1
  C  C2090  1  0.371800  0.836700  0.130060  1
  C  C2091  1  0.371800  0.663300  0.630060  1
  C  C2092  1  0.628200  0.163300  0.869940  1
  C  C2093  1  0.593200  0.309910  0.360310  1
  C  C2094  1  0.406800  0.809910  0.139690  1
  C  C2095  1  0.406800  0.690090  0.639690  1
  C  C2096  1  0.593200  0.190090  0.860310  1
  C  C2097  1  0.535300  0.307930  0.364520  1
  C  C2098  1  0.464700  0.807930  0.135480  1
  C  C2099  1  0.464700  0.692070  0.635480  1
  C  C2100  1  0.535300  0.192070  0.864520  1
  C  C2101  1  0.512400  0.332710  0.378340  1
  C  C2102  1  0.487600  0.832710  0.121660  1
  C  C2103  1  0.487600  0.667290  0.621660  1
  C  C2104  1  0.512400  0.167290  0.878340  1
  C  C2105  1  0.454500  0.330730  0.382540  1
  C  C2106  1  0.545500  0.830730  0.117460  1
  C  C2107  1  0.545500  0.669270  0.617460  1
  C  C2108  1  0.454500  0.169270  0.882540  1
  C  C2109  1  0.419600  0.304000  0.372920  1
  C  C2110  1  0.580400  0.804000  0.127080  1
  C  C2111  1  0.580400  0.696000  0.627080  1
  C  C2112  1  0.419600  0.196000  0.872920  1
  C  C2113  1  0.442500  0.279190  0.359100  1
  C  C2114  1  0.557500  0.779190  0.140900  1
  C  C2115  1  0.557500  0.720810  0.640900  1
  C  C2116  1  0.442500  0.220810  0.859100  1
  C  C2117  1  0.500300  0.281170  0.354900  1
  C  C2118  1  0.499700  0.781170  0.145100  1
  C  C2119  1  0.499700  0.718830  0.645100  1
  C  C2120  1  0.500300  0.218830  0.854900  1
  C  C2121  1  0.590100  0.418700  0.514280  1
  C  C2122  1  0.409900  0.918700  0.985720  1
  C  C2123  1  0.409900  0.581300  0.485720  1
  C  C2124  1  0.590100  0.081300  0.014280  1
  C  C2125  1  0.553600  0.436700  0.527840  1
  C  C2126  1  0.446400  0.936700  0.972160  1
  C  C2127  1  0.446400  0.563300  0.472160  1
  C  C2128  1  0.553600  0.063300  0.027840  1
  C  C2129  1  0.509600  0.456600  0.513500  1
  C  C2130  1  0.490400  0.956600  0.986500  1
  C  C2131  1  0.490400  0.543400  0.486500  1
  C  C2132  1  0.509600  0.043400  0.013500  1
  C  C2133  1  0.502000  0.458500  0.485600  1
  C  C2134  1  0.498000  0.958500  0.014400  1
  C  C2135  1  0.498000  0.541500  0.514400  1
  C  C2136  1  0.502000  0.041500  0.985600  1
  C  C2137  1  0.538500  0.440500  0.472010  1
  C  C2138  1  0.461500  0.940500  0.027990  1
  C  C2139  1  0.461500  0.559500  0.527990  1
  C  C2140  1  0.538500  0.059500  0.972010  1
  C  C2141  1  0.635300  0.398500  0.526600  1
  C  C2142  1  0.364700  0.898500  0.973400  1
  C  C2143  1  0.364700  0.601500  0.473400  1
  C  C2144  1  0.635300  0.101500  0.026600  1
  C  C2145  1  0.658500  0.390700  0.554000  1
  C  C2146  1  0.341500  0.890700  0.946000  1
  C  C2147  1  0.341500  0.609300  0.446000  1
  C  C2148  1  0.658500  0.109300  0.054000  1
  C  C2149  1  0.708400  0.370100  0.554680  1
  C  C2150  1  0.291600  0.870100  0.945320  1
  C  C2151  1  0.291600  0.629900  0.445320  1
  C  C2152  1  0.708400  0.129900  0.054680  1
  C  C2153  1  0.754700  0.343900  0.519200  1
  C  C2154  1  0.245300  0.843900  0.980800  1
  C  C2155  1  0.245300  0.656100  0.480800  1
  C  C2156  1  0.754700  0.156100  0.019200  1
  C  C2157  1  0.926600  0.130000  0.473100  1
  C  C2158  1  0.073400  0.630000  0.026900  1
  C  C2159  1  0.073400  0.870000  0.526900  1
  C  C2160  1  0.926600  0.370000  0.973100  1
  C  C2161  1  0.963900  0.117500  0.456980  1
  C  C2162  1  0.036100  0.617500  0.043020  1
  C  C2163  1  0.036100  0.882500  0.543020  1
  C  C2164  1  0.963900  0.382500  0.956980  1
  C  C2165  1  0.010700  0.097200  0.468100  1
  C  C2166  1  0.989300  0.597200  0.031900  1
  C  C2167  1  0.989300  0.902800  0.531900  1
  C  C2168  1  0.010700  0.402800  0.968100  1
  C  C2169  1  0.020200  0.089400  0.495400  1
  C  C2170  1  0.979800  0.589400  0.004600  1
  C  C2171  1  0.979800  0.910600  0.504600  1
  C  C2172  1  0.020200  0.410600  0.995400  1
  C  C2173  1  0.982900  0.102000  0.511520  1
  C  C2174  1  0.017100  0.602000  0.988480  1
  C  C2175  1  0.017100  0.898000  0.488480  1
  C  C2176  1  0.982900  0.398000  0.011520  1
  C  C2177  1  0.878500  0.150800  0.463500  1
  C  C2178  1  0.121500  0.650800  0.036500  1
  C  C2179  1  0.121500  0.849200  0.536500  1
  C  C2180  1  0.878500  0.349200  0.963500  1
  C  C2181  1  0.850000  0.160300  0.437190  1
  C  C2182  1  0.150000  0.660300  0.062810  1
  C  C2183  1  0.150000  0.839700  0.562810  1
  C  C2184  1  0.850000  0.339700  0.937190  1
  C  C2185  1  0.796500  0.176500  0.439260  1
  C  C2186  1  0.203500  0.676500  0.060740  1
  C  C2187  1  0.203500  0.823500  0.560740  1
  C  C2188  1  0.796500  0.323500  0.939260  1
  C  C2189  1  0.754200  0.195700  0.477000  1
  C  C2190  1  0.245800  0.695700  0.023000  1
  C  C2191  1  0.245800  0.804300  0.523000  1
  C  C2192  1  0.754200  0.304300  0.977000  1
  C  C2193  1  0.729100  0.308920  0.511230  1
  C  C2194  1  0.270900  0.808920  0.988770  1
  C  C2195  1  0.270900  0.691080  0.488770  1
  C  C2196  1  0.729100  0.191080  0.011230  1
  C  C2197  1  0.672500  0.300500  0.514690  1
  C  C2198  1  0.327500  0.800500  0.985310  1
  C  C2199  1  0.327500  0.699500  0.485310  1
  C  C2200  1  0.672500  0.199500  0.014690  1
  C  C2201  1  0.651000  0.269100  0.508290  1
  C  C2202  1  0.349000  0.769100  0.991710  1
  C  C2203  1  0.349000  0.730900  0.491710  1
  C  C2204  1  0.651000  0.230900  0.008290  1
  C  C2205  1  0.686100  0.246200  0.498430  1
  C  C2206  1  0.313900  0.746200  0.001570  1
  C  C2207  1  0.313900  0.753800  0.501570  1
  C  C2208  1  0.686100  0.253800  0.998430  1
  C  C2209  1  0.742700  0.254650  0.494970  1
  C  C2210  1  0.257300  0.754650  0.005030  1
  C  C2211  1  0.257300  0.745350  0.505030  1
  C  C2212  1  0.742700  0.245350  0.994970  1
  C  C2213  1  0.764200  0.286010  0.501360  1
  C  C2214  1  0.235800  0.786010  0.998640  1
  C  C2215  1  0.235800  0.713990  0.498640  1
  C  C2216  1  0.764200  0.213990  0.001360  1
  C  C2217  1  0.820800  0.294500  0.497900  1
  C  C2218  1  0.179200  0.794500  0.002100  1
  C  C2219  1  0.179200  0.705500  0.502100  1
  C  C2220  1  0.820800  0.205500  0.997900  1
  C  C2221  1  0.855900  0.271500  0.488040  1
  C  C2222  1  0.144100  0.771500  0.011960  1
  C  C2223  1  0.144100  0.728500  0.511960  1
  C  C2224  1  0.855900  0.228500  0.988040  1
  C  C2225  1  0.834400  0.240200  0.481640  1
  C  C2226  1  0.165600  0.740200  0.018360  1
  C  C2227  1  0.165600  0.759800  0.518360  1
  C  C2228  1  0.834400  0.259800  0.981640  1
  C  C2229  1  0.777800  0.231730  0.485110  1
  C  C2230  1  0.222200  0.731730  0.014890  1
  C  C2231  1  0.222200  0.768270  0.514890  1
  C  C2232  1  0.777800  0.268270  0.985110  1
  C  C2233  1  0.058000  0.199100  0.253630  1
  C  C2234  1  0.942000  0.699100  0.246370  1
  C  C2235  1  0.942000  0.800900  0.746370  1
  C  C2236  1  0.058000  0.300900  0.753630  1
  C  C2237  1  0.086500  0.227950  0.263200  1
  C  C2238  1  0.913500  0.727950  0.236800  1
  C  C2239  1  0.913500  0.772050  0.736800  1
  C  C2240  1  0.086500  0.272050  0.763200  1
  C  C2241  1  0.144500  0.233520  0.260180  1
  C  C2242  1  0.855500  0.733520  0.239820  1
  C  C2243  1  0.855500  0.766480  0.739820  1
  C  C2244  1  0.144500  0.266480  0.760180  1
  C  C2245  1  0.173900  0.210300  0.247580  1
  C  C2246  1  0.826100  0.710300  0.252420  1
  C  C2247  1  0.826100  0.789700  0.752420  1
  C  C2248  1  0.173900  0.289700  0.747580  1
  C  C2249  1  0.145400  0.181450  0.238010  1
  C  C2250  1  0.854600  0.681450  0.261990  1
  C  C2251  1  0.854600  0.818550  0.761990  1
  C  C2252  1  0.145400  0.318550  0.738010  1
  C  C2253  1  0.001300  0.193300  0.254700  1
  C  C2254  1  0.998700  0.693300  0.245300  1
  C  C2255  1  0.998700  0.806700  0.745300  1
  C  C2256  1  0.001300  0.306700  0.754700  1
  C  C2257  1  0.957500  0.213820  0.262400  1
  C  C2258  1  0.042500  0.713820  0.237600  1
  C  C2259  1  0.042500  0.786180  0.737600  1
  C  C2260  1  0.957500  0.286180  0.762400  1
  C  C2261  1  0.902500  0.197000  0.256600  1
  C  C2262  1  0.097500  0.697000  0.243400  1
  C  C2263  1  0.097500  0.803000  0.743400  1
  C  C2264  1  0.902500  0.303000  0.756600  1
  C  C2265  1  0.870900  0.140900  0.238800  1
  C  C2266  1  0.129100  0.640900  0.261200  1
  C  C2267  1  0.129100  0.859100  0.761200  1
  C  C2268  1  0.870900  0.359100  0.738800  1
  C  C2269  1  0.612300  0.966500  0.314960  1
  C  C2270  1  0.387700  0.466500  0.185040  1
  C  C2271  1  0.387700  0.033500  0.685040  1
  C  C2272  1  0.612300  0.533500  0.814960  1
  C  C2273  1  0.580600  0.937510  0.314900  1
  C  C2274  1  0.419400  0.437510  0.185100  1
  C  C2275  1  0.419400  0.062490  0.685100  1
  C  C2276  1  0.580600  0.562490  0.814900  1
  C  C2277  1  0.530800  0.936480  0.326700  1
  C  C2278  1  0.469200  0.436480  0.173300  1
  C  C2279  1  0.469200  0.063520  0.673300  1
  C  C2280  1  0.530800  0.563520  0.826700  1
  C  C2281  1  0.512600  0.964400  0.338550  1
  C  C2282  1  0.487400  0.464400  0.161450  1
  C  C2283  1  0.487400  0.035600  0.661450  1
  C  C2284  1  0.512600  0.535600  0.838550  1
  C  C2285  1  0.544300  0.993370  0.338590  1
  C  C2286  1  0.455700  0.493370  0.161410  1
  C  C2287  1  0.455700  0.006630  0.661410  1
  C  C2288  1  0.544300  0.506630  0.838590  1
  C  C2289  1  0.660000  0.970900  0.303700  1
  C  C2290  1  0.340000  0.470900  0.196300  1
  C  C2291  1  0.340000  0.029100  0.696300  1
  C  C2292  1  0.660000  0.529100  0.803700  1
  C  C2293  1  0.691800  0.950190  0.288900  1
  C  C2294  1  0.308200  0.450190  0.211100  1
  C  C2295  1  0.308200  0.049810  0.711100  1
  C  C2296  1  0.691800  0.549810  0.788900  1
  C  C2297  1  0.745200  0.966300  0.286500  1
  C  C2298  1  0.254800  0.466300  0.213500  1
  C  C2299  1  0.254800  0.033700  0.713500  1
  C  C2300  1  0.745200  0.533700  0.786500  1
  C  C2301  1  0.791600  0.020300  0.302300  1
  C  C2302  1  0.208400  0.520300  0.197700  1
  C  C2303  1  0.208400  0.979700  0.697700  1
  C  C2304  1  0.791600  0.479700  0.802300  1
  C  C2305  1  0.868300  0.117490  0.263310  1
  C  C2306  1  0.131700  0.617490  0.236690  1
  C  C2307  1  0.131700  0.882510  0.736690  1
  C  C2308  1  0.868300  0.382510  0.763310  1
  C  C2309  1  0.912000  0.119970  0.286370  1
  C  C2310  1  0.088000  0.619970  0.213630  1
  C  C2311  1  0.088000  0.880030  0.713630  1
  C  C2312  1  0.912000  0.380030  0.786370  1
  C  C2313  1  0.914000  0.097500  0.307160  1
  C  C2314  1  0.086000  0.597500  0.192840  1
  C  C2315  1  0.086000  0.902500  0.692840  1
  C  C2316  1  0.914000  0.402500  0.807160  1
  C  C2317  1  0.872400  0.072500  0.304880  1
  C  C2318  1  0.127600  0.572500  0.195120  1
  C  C2319  1  0.127600  0.927500  0.695120  1
  C  C2320  1  0.872400  0.427500  0.804880  1
  C  C2321  1  0.828700  0.070020  0.281820  1
  C  C2322  1  0.171300  0.570020  0.218180  1
  C  C2323  1  0.171300  0.929980  0.718180  1
  C  C2324  1  0.828700  0.429980  0.781820  1
  C  C2325  1  0.826600  0.092510  0.261040  1
  C  C2326  1  0.173400  0.592510  0.238960  1
  C  C2327  1  0.173400  0.907490  0.738960  1
  C  C2328  1  0.826600  0.407490  0.761040  1
  C  C2329  1  0.782900  0.090030  0.237980  1
  C  C2330  1  0.217100  0.590030  0.262020  1
  C  C2331  1  0.217100  0.909970  0.762020  1
  C  C2332  1  0.782900  0.409970  0.737980  1
  C  C2333  1  0.741300  0.065100  0.235710  1
  C  C2334  1  0.258700  0.565100  0.264290  1
  C  C2335  1  0.258700  0.934900  0.764290  1
  C  C2336  1  0.741300  0.434900  0.735710  1
  C  C2337  1  0.743300  0.042560  0.256490  1
  C  C2338  1  0.256700  0.542560  0.243510  1
  C  C2339  1  0.256700  0.957440  0.743510  1
  C  C2340  1  0.743300  0.457440  0.756490  1
  C  C2341  1  0.787000  0.045040  0.279550  1
  C  C2342  1  0.213000  0.545040  0.220450  1
  C  C2343  1  0.213000  0.954960  0.720450  1
  C  C2344  1  0.787000  0.454960  0.779550  1
  C  C2345  1  0.431100  0.299200  0.211500  1
  C  C2346  1  0.568900  0.799200  0.288500  1
  C  C2347  1  0.568900  0.700800  0.788500  1
  C  C2348  1  0.431100  0.200800  0.711500  1
  C  C2349  1  0.416200  0.317600  0.188080  1
  C  C2350  1  0.583800  0.817600  0.311920  1
  C  C2351  1  0.583800  0.682400  0.811920  1
  C  C2352  1  0.416200  0.182400  0.688080  1
  C  C2353  1  0.372200  0.341300  0.185950  1
  C  C2354  1  0.627800  0.841300  0.314050  1
  C  C2355  1  0.627800  0.658700  0.814050  1
  C  C2356  1  0.372200  0.158700  0.685950  1
  C  C2357  1  0.343100  0.346600  0.207300  1
  C  C2358  1  0.656900  0.846600  0.292700  1
  C  C2359  1  0.656900  0.653400  0.792700  1
  C  C2360  1  0.343100  0.153400  0.707300  1
  C  C2361  1  0.358000  0.328200  0.230750  1
  C  C2362  1  0.642000  0.828200  0.269250  1
  C  C2363  1  0.642000  0.671800  0.769250  1
  C  C2364  1  0.358000  0.171800  0.730750  1
  C  C2365  1  0.475400  0.277100  0.215300  1
  C  C2366  1  0.524600  0.777100  0.284700  1
  C  C2367  1  0.524600  0.722900  0.784700  1
  C  C2368  1  0.475400  0.222900  0.715300  1
  C  C2369  1  0.513200  0.264500  0.198560  1
  C  C2370  1  0.486800  0.764500  0.301440  1
  C  C2371  1  0.486800  0.735500  0.801440  1
  C  C2372  1  0.513200  0.235500  0.698560  1
  C  C2373  1  0.554400  0.243000  0.214300  1
  C  C2374  1  0.445600  0.743000  0.285700  1
  C  C2375  1  0.445600  0.757000  0.785700  1
  C  C2376  1  0.554400  0.257000  0.714300  1
  C  C2377  1  0.568000  0.225000  0.263500  1
  C  C2378  1  0.432000  0.725000  0.236500  1
  C  C2379  1  0.432000  0.775000  0.736500  1
  C  C2380  1  0.568000  0.275000  0.763500  1
  C  C2381  1  0.654100  0.035600  0.389400  1
  C  C2382  1  0.345900  0.535600  0.110600  1
  C  C2383  1  0.345900  0.964400  0.610600  1
  C  C2384  1  0.654100  0.464400  0.889400  1
  C  C2385  1  0.672900  0.027700  0.416380  1
  C  C2386  1  0.327100  0.527700  0.083620  1
  C  C2387  1  0.327100  0.972300  0.583620  1
  C  C2388  1  0.672900  0.472300  0.916380  1
  C  C2389  1  0.722900  0.008400  0.424250  1
  C  C2390  1  0.277100  0.508400  0.075750  1
  C  C2391  1  0.277100  0.991600  0.575750  1
  C  C2392  1  0.722900  0.491600  0.924250  1
  C  C2393  1  0.754100  0.996900  0.405100  1
  C  C2394  1  0.245900  0.496900  0.094900  1
  C  C2395  1  0.245900  0.003100  0.594900  1
  C  C2396  1  0.754100  0.503100  0.905100  1
  C  C2397  1  0.735200  0.004900  0.378070  1
  C  C2398  1  0.264800  0.504900  0.121930  1
  C  C2399  1  0.264800  0.995100  0.621930  1
  C  C2400  1  0.735200  0.495100  0.878070  1
  C  C2401  1  0.605600  0.054300  0.379700  1
  C  C2402  1  0.394400  0.554300  0.120300  1
  C  C2403  1  0.394400  0.945700  0.620300  1
  C  C2404  1  0.605600  0.445700  0.879700  1
  C  C2405  1  0.559400  0.067100  0.391620  1
  C  C2406  1  0.440600  0.567100  0.108380  1
  C  C2407  1  0.440600  0.932900  0.608380  1
  C  C2408  1  0.559400  0.432900  0.891620  1
  C  C2409  1  0.518200  0.082900  0.371100  1
  C  C2410  1  0.481800  0.582900  0.128900  1
  C  C2411  1  0.481800  0.917100  0.628900  1
  C  C2412  1  0.518200  0.417100  0.871100  1
  C  C2413  1  0.515300  0.094300  0.322600  1
  C  C2414  1  0.484700  0.594300  0.177400  1
  C  C2415  1  0.484700  0.905700  0.677400  1
  C  C2416  1  0.515300  0.405700  0.822600  1
  C  C2417  1  0.541200  0.191920  0.267370  1
  C  C2418  1  0.458800  0.691920  0.232630  1
  C  C2419  1  0.458800  0.808080  0.732630  1
  C  C2420  1  0.541200  0.308080  0.767370  1
  C  C2421  1  0.499700  0.178900  0.246390  1
  C  C2422  1  0.500300  0.678900  0.253610  1
  C  C2423  1  0.500300  0.821100  0.753610  1
  C  C2424  1  0.499700  0.321100  0.746390  1
  C  C2425  1  0.473200  0.149000  0.249630  1
  C  C2426  1  0.526800  0.649000  0.250370  1
  C  C2427  1  0.526800  0.851000  0.750370  1
  C  C2428  1  0.473200  0.351000  0.749630  1
  C  C2429  1  0.488200  0.132090  0.273840  1
  C  C2430  1  0.511800  0.632090  0.226160  1
  C  C2431  1  0.511800  0.867910  0.726160  1
  C  C2432  1  0.488200  0.367910  0.773840  1
  C  C2433  1  0.529700  0.145110  0.294820  1
  C  C2434  1  0.470300  0.645110  0.205180  1
  C  C2435  1  0.470300  0.854890  0.705180  1
  C  C2436  1  0.529700  0.354890  0.794820  1
  C  C2437  1  0.556200  0.175020  0.291580  1
  C  C2438  1  0.443800  0.675020  0.208420  1
  C  C2439  1  0.443800  0.824980  0.708420  1
  C  C2440  1  0.556200  0.324980  0.791580  1
  C  C2441  1  0.597700  0.188050  0.312560  1
  C  C2442  1  0.402300  0.688050  0.187440  1
  C  C2443  1  0.402300  0.811950  0.687440  1
  C  C2444  1  0.597700  0.311950  0.812560  1
  C  C2445  1  0.612700  0.171200  0.336770  1
  C  C2446  1  0.387300  0.671200  0.163230  1
  C  C2447  1  0.387300  0.828800  0.663230  1
  C  C2448  1  0.612700  0.328800  0.836770  1
  C  C2449  1  0.586200  0.141200  0.340010  1
  C  C2450  1  0.413800  0.641200  0.159990  1
  C  C2451  1  0.413800  0.858800  0.659990  1
  C  C2452  1  0.586200  0.358800  0.840010  1
  C  C2453  1  0.544700  0.128220  0.319030  1
  C  C2454  1  0.455300  0.628220  0.180970  1
  C  C2455  1  0.455300  0.871780  0.680970  1
  C  C2456  1  0.544700  0.371780  0.819030  1
  C  C2457  1  0.823700  0.299400  0.144160  1
  C  C2458  1  0.176300  0.799400  0.355840  1
  C  C2459  1  0.176300  0.700600  0.855840  1
  C  C2460  1  0.823700  0.200600  0.644160  1
  C  C2461  1  0.859400  0.276410  0.134770  1
  C  C2462  1  0.140600  0.776410  0.365230  1
  C  C2463  1  0.140600  0.723590  0.865230  1
  C  C2464  1  0.859400  0.223590  0.634770  1
  C  C2465  1  0.917500  0.284200  0.133220  1
  C  C2466  1  0.082500  0.784200  0.366780  1
  C  C2467  1  0.082500  0.715800  0.866780  1
  C  C2468  1  0.917500  0.215800  0.633220  1
  C  C2469  1  0.939900  0.315000  0.141070  1
  C  C2470  1  0.060100  0.815000  0.358930  1
  C  C2471  1  0.060100  0.685000  0.858930  1
  C  C2472  1  0.939900  0.185000  0.641070  1
  C  C2473  1  0.904200  0.338040  0.150460  1
  C  C2474  1  0.095800  0.838040  0.349540  1
  C  C2475  1  0.095800  0.661960  0.849540  1
  C  C2476  1  0.904200  0.161960  0.650460  1
  C  C2477  1  0.767900  0.294200  0.146700  1
  C  C2478  1  0.232100  0.794200  0.353300  1
  C  C2479  1  0.232100  0.705800  0.853300  1
  C  C2480  1  0.767900  0.205800  0.646700  1
  C  C2481  1  0.728100  0.268190  0.137600  1
  C  C2482  1  0.271900  0.768190  0.362400  1
  C  C2483  1  0.271900  0.731810  0.862400  1
  C  C2484  1  0.728100  0.231810  0.637600  1
  C  C2485  1  0.671600  0.276900  0.142800  1
  C  C2486  1  0.328400  0.776900  0.357200  1
  C  C2487  1  0.328400  0.723100  0.857200  1
  C  C2488  1  0.671600  0.223100  0.642800  1
  C  C2489  1  0.636100  0.324700  0.168200  1
  C  C2490  1  0.363900  0.824700  0.331800  1
  C  C2491  1  0.363900  0.675300  0.831800  1
  C  C2492  1  0.636100  0.175300  0.668200  1
  C  C2493  1  0.378000  0.324400  0.303000  1
  C  C2494  1  0.622000  0.824400  0.197000  1
  C  C2495  1  0.622000  0.675600  0.697000  1
  C  C2496  1  0.378000  0.175600  0.803000  1
  C  C2497  1  0.335600  0.340860  0.314180  1
  C  C2498  1  0.664400  0.840860  0.185820  1
  C  C2499  1  0.664400  0.659140  0.685820  1
  C  C2500  1  0.335600  0.159140  0.814180  1
  C  C2501  1  0.279600  0.327300  0.312650  1
  C  C2502  1  0.720400  0.827300  0.187350  1
  C  C2503  1  0.720400  0.672700  0.687350  1
  C  C2504  1  0.279600  0.172700  0.812650  1
  C  C2505  1  0.266000  0.297400  0.299940  1
  C  C2506  1  0.734000  0.797400  0.200060  1
  C  C2507  1  0.734000  0.702600  0.700060  1
  C  C2508  1  0.266000  0.202600  0.799940  1
  C  C2509  1  0.308400  0.280980  0.288760  1
  C  C2510  1  0.691600  0.780980  0.211240  1
  C  C2511  1  0.691600  0.719020  0.711240  1
  C  C2512  1  0.308400  0.219020  0.788760  1
  C  C2513  1  0.434200  0.336400  0.304900  1
  C  C2514  1  0.565800  0.836400  0.195100  1
  C  C2515  1  0.565800  0.663600  0.695100  1
  C  C2516  1  0.434200  0.163600  0.804900  1
  C  C2517  1  0.466600  0.363400  0.317680  1
  C  C2518  1  0.533400  0.863400  0.182320  1
  C  C2519  1  0.533400  0.636600  0.682320  1
  C  C2520  1  0.466600  0.136600  0.817680  1
  C  C2521  1  0.525300  0.361400  0.312850  1
  C  C2522  1  0.474700  0.861400  0.187150  1
  C  C2523  1  0.474700  0.638600  0.687150  1
  C  C2524  1  0.525300  0.138600  0.812850  1
  C  C2525  1  0.574600  0.322700  0.284500  1
  C  C2526  1  0.425400  0.822700  0.215500  1
  C  C2527  1  0.425400  0.677300  0.715500  1
  C  C2528  1  0.574600  0.177300  0.784500  1
  C  C2529  1  0.638900  0.315060  0.197560  1
  C  C2530  1  0.361100  0.815060  0.302440  1
  C  C2531  1  0.361100  0.684940  0.802440  1
  C  C2532  1  0.638900  0.184940  0.697560  1
  C  C2533  1  0.680900  0.291820  0.208420  1
  C  C2534  1  0.319100  0.791820  0.291580  1
  C  C2535  1  0.319100  0.708180  0.791580  1
  C  C2536  1  0.680900  0.208180  0.708420  1
  C  C2537  1  0.686700  0.282680  0.235290  1
  C  C2538  1  0.313300  0.782680  0.264710  1
  C  C2539  1  0.313300  0.717320  0.764710  1
  C  C2540  1  0.686700  0.217320  0.735290  1
  C  C2541  1  0.650600  0.296780  0.251310  1
  C  C2542  1  0.349400  0.796780  0.248690  1
  C  C2543  1  0.349400  0.703220  0.748690  1
  C  C2544  1  0.650600  0.203220  0.751310  1
  C  C2545  1  0.608700  0.320010  0.240450  1
  C  C2546  1  0.391300  0.820010  0.259550  1
  C  C2547  1  0.391300  0.679990  0.759550  1
  C  C2548  1  0.608700  0.179990  0.740450  1
  C  C2549  1  0.602800  0.329150  0.213570  1
  C  C2550  1  0.397200  0.829150  0.286430  1
  C  C2551  1  0.397200  0.670850  0.786430  1
  C  C2552  1  0.602800  0.170850  0.713570  1
  C  C2553  1  0.560900  0.352390  0.202710  1
  C  C2554  1  0.439100  0.852390  0.297290  1
  C  C2555  1  0.439100  0.647610  0.797290  1
  C  C2556  1  0.560900  0.147610  0.702710  1
  C  C2557  1  0.524800  0.366490  0.218730  1
  C  C2558  1  0.475200  0.866490  0.281270  1
  C  C2559  1  0.475200  0.633510  0.781270  1
  C  C2560  1  0.524800  0.133510  0.718730  1
  C  C2561  1  0.530700  0.357350  0.245600  1
  C  C2562  1  0.469300  0.857350  0.254400  1
  C  C2563  1  0.469300  0.642650  0.754400  1
  C  C2564  1  0.530700  0.142650  0.745600  1
  C  C2565  1  0.572600  0.334110  0.256460  1
  C  C2566  1  0.427400  0.834110  0.243540  1
  C  C2567  1  0.427400  0.665890  0.743540  1
  C  C2568  1  0.572600  0.165890  0.756460  1
  C  C2569  1  0.792600  0.308900  0.314500  1
  C  C2570  1  0.207400  0.808900  0.185500  1
  C  C2571  1  0.207400  0.691100  0.685500  1
  C  C2572  1  0.792600  0.191100  0.814500  1
  C  C2573  1  0.227900  0.248000  0.088200  1
  C  C2574  1  0.772100  0.748000  0.411800  1
  C  C2575  1  0.772100  0.752000  0.911800  1
  C  C2576  1  0.227900  0.252000  0.588200  1
  C  C2577  1  0.750200  0.097300  0.170800  1
  C  C2578  1  0.249800  0.597300  0.329200  1
  C  C2579  1  0.249800  0.902700  0.829200  1
  C  C2580  1  0.750200  0.402700  0.670800  1
  C  C2581  1  0.103200  0.371400  0.189500  1
  C  C2582  1  0.896800  0.871400  0.310500  1
  C  C2583  1  0.896800  0.628600  0.810500  1
  C  C2584  1  0.103200  0.128600  0.689500  1
  C  C2585  1  0.679000  0.496900  0.326900  1
  C  C2586  1  0.321000  0.996900  0.173100  1
  C  C2587  1  0.321000  0.503100  0.673100  1
  C  C2588  1  0.679000  0.003100  0.826900  1
  C  C2589  1  0.213800  0.301700  0.187700  1
  C  C2590  1  0.786200  0.801700  0.312300  1
  C  C2591  1  0.786200  0.698300  0.812300  1
  C  C2592  1  0.213800  0.198300  0.687700  1
  C  C2593  1  0.364800  0.042600  0.266700  1
  C  C2594  1  0.635200  0.542600  0.233300  1
  C  C2595  1  0.635200  0.957400  0.733300  1
  C  C2596  1  0.364800  0.457400  0.766700  1
  C  C2597  1  0.126600  0.220200  0.135800  1
  C  C2598  1  0.873400  0.720200  0.364200  1
  C  C2599  1  0.873400  0.779800  0.864200  1
  C  C2600  1  0.126600  0.279800  0.635800  1
  C  C2601  1  0.071400  0.325100  0.263200  1
  C  C2602  1  0.928600  0.825100  0.236800  1
  C  C2603  1  0.928600  0.674900  0.736800  1
  C  C2604  1  0.071400  0.174900  0.763200  1
  C  C2605  1  0.429100  0.941100  0.224700  1
  C  C2606  1  0.570900  0.441100  0.275300  1
  C  C2607  1  0.570900  0.058900  0.775300  1
  C  C2608  1  0.429100  0.558900  0.724700  1
  C  C2609  1  0.534300  0.016800  0.176900  1
  C  C2610  1  0.465700  0.516800  0.323100  1
  C  C2611  1  0.465700  0.983200  0.823100  1
  C  C2612  1  0.534300  0.483200  0.676900  1
  N  N2613  1  0.069900  0.524420  0.373020  1
  N  N2614  1  0.930100  0.024420  0.126980  1
  N  N2615  1  0.930100  0.475580  0.626980  1
  N  N2616  1  0.069900  0.975580  0.873020  1
  N  N2617  1  0.902100  0.525800  0.388470  1
  N  N2618  1  0.097900  0.025800  0.111530  1
  N  N2619  1  0.097900  0.474200  0.611530  1
  N  N2620  1  0.902100  0.974200  0.888470  1
  N  N2621  1  0.958600  0.521600  0.381540  1
  N  N2622  1  0.041400  0.021600  0.118460  1
  N  N2623  1  0.041400  0.478400  0.618460  1
  N  N2624  1  0.958600  0.978400  0.881540  1
  N  N2625  1  0.592100  0.348300  0.461340  1
  N  N2626  1  0.407900  0.848300  0.038660  1
  N  N2627  1  0.407900  0.651700  0.538660  1
  N  N2628  1  0.592100  0.151700  0.961340  1
  N  N2629  1  0.759100  0.353200  0.447610  1
  N  N2630  1  0.240900  0.853200  0.052390  1
  N  N2631  1  0.240900  0.646800  0.552390  1
  N  N2632  1  0.759100  0.146800  0.947610  1
  N  N2633  1  0.700000  0.356300  0.451760  1
  N  N2634  1  0.300000  0.856300  0.048240  1
  N  N2635  1  0.300000  0.643700  0.548240  1
  N  N2636  1  0.700000  0.143700  0.951760  1
  N  N2637  1  0.976000  0.493100  0.323300  1
  N  N2638  1  0.024000  0.993100  0.176700  1
  N  N2639  1  0.024000  0.506900  0.676700  1
  N  N2640  1  0.976000  0.006900  0.823300  1
  N  N2641  1  0.125800  0.441600  0.351900  1
  N  N2642  1  0.874200  0.941600  0.148100  1
  N  N2643  1  0.874200  0.558400  0.648100  1
  N  N2644  1  0.125800  0.058400  0.851900  1
  N  N2645  1  0.069100  0.456400  0.344910  1
  N  N2646  1  0.930900  0.956400  0.155090  1
  N  N2647  1  0.930900  0.543600  0.655090  1
  N  N2648  1  0.069100  0.043600  0.844910  1
  N  N2649  1  0.266600  0.212000  0.463750  1
  N  N2650  1  0.733400  0.712000  0.036250  1
  N  N2651  1  0.733400  0.788000  0.536250  1
  N  N2652  1  0.266600  0.288000  0.963750  1
  N  N2653  1  0.129000  0.274900  0.454680  1
  N  N2654  1  0.871000  0.774900  0.045320  1
  N  N2655  1  0.871000  0.725100  0.545320  1
  N  N2656  1  0.129000  0.225100  0.954680  1
  N  N2657  1  0.177700  0.253400  0.454940  1
  N  N2658  1  0.822300  0.753400  0.045060  1
  N  N2659  1  0.822300  0.746600  0.545060  1
  N  N2660  1  0.177700  0.246600  0.954940  1
  N  N2661  1  0.038000  0.461300  0.407330  1
  N  N2662  1  0.962000  0.961300  0.092670  1
  N  N2663  1  0.962000  0.538700  0.592670  1
  N  N2664  1  0.038000  0.038700  0.907330  1
  N  N2665  1  0.899000  0.422100  0.354540  1
  N  N2666  1  0.101000  0.922100  0.145460  1
  N  N2667  1  0.101000  0.577900  0.645460  1
  N  N2668  1  0.899000  0.077900  0.854540  1
  N  N2669  1  0.949700  0.437900  0.369630  1
  N  N2670  1  0.050300  0.937900  0.130370  1
  N  N2671  1  0.050300  0.562100  0.630370  1
  N  N2672  1  0.949700  0.062100  0.869630  1
  N  N2673  1  0.754200  0.383500  0.128820  1
  N  N2674  1  0.245800  0.883500  0.371180  1
  N  N2675  1  0.245800  0.616500  0.871180  1
  N  N2676  1  0.754200  0.116500  0.628820  1
  N  N2677  1  0.884700  0.424200  0.183340  1
  N  N2678  1  0.115300  0.924200  0.316660  1
  N  N2679  1  0.115300  0.575800  0.816660  1
  N  N2680  1  0.884700  0.075800  0.683340  1
  N  N2681  1  0.837900  0.407260  0.166450  1
  N  N2682  1  0.162100  0.907260  0.333550  1
  N  N2683  1  0.162100  0.592740  0.833550  1
  N  N2684  1  0.837900  0.092740  0.666450  1
  N  N2685  1  0.915500  0.119400  0.563690  1
  N  N2686  1  0.084500  0.619400  0.936310  1
  N  N2687  1  0.084500  0.880600  0.436310  1
  N  N2688  1  0.915500  0.380600  0.063690  1
  N  N2689  1  0.779900  0.081300  0.508120  1
  N  N2690  1  0.220100  0.581300  0.991880  1
  N  N2691  1  0.220100  0.918700  0.491880  1
  N  N2692  1  0.779900  0.418700  0.008120  1
  N  N2693  1  0.827300  0.097700  0.525100  1
  N  N2694  1  0.172700  0.597700  0.974900  1
  N  N2695  1  0.172700  0.902300  0.474900  1
  N  N2696  1  0.827300  0.402300  0.025100  1
  N  N2697  1  0.613200  0.055700  0.288700  1
  N  N2698  1  0.386800  0.555700  0.211300  1
  N  N2699  1  0.386800  0.944300  0.711300  1
  N  N2700  1  0.613200  0.444300  0.788700  1
  N  N2701  1  0.705600  0.078300  0.322100  1
  N  N2702  1  0.294400  0.578300  0.177900  1
  N  N2703  1  0.294400  0.921700  0.677900  1
  N  N2704  1  0.705600  0.421700  0.822100  1
  N  N2705  1  0.756900  0.094500  0.336180  1
  N  N2706  1  0.243100  0.594500  0.163820  1
  N  N2707  1  0.243100  0.905500  0.663820  1
  N  N2708  1  0.756900  0.405500  0.836180  1
  N  N2709  1  0.977800  0.087000  0.224300  1
  N  N2710  1  0.022200  0.587000  0.275700  1
  N  N2711  1  0.022200  0.913000  0.775700  1
  N  N2712  1  0.977800  0.413000  0.724300  1
  N  N2713  1  0.103000  0.102500  0.292070  1
  N  N2714  1  0.897000  0.602500  0.207930  1
  N  N2715  1  0.897000  0.897500  0.707930  1
  N  N2716  1  0.103000  0.397500  0.792070  1
  N  N2717  1  0.061800  0.101100  0.267270  1
  N  N2718  1  0.938200  0.601100  0.232730  1
  N  N2719  1  0.938200  0.898900  0.732730  1
  N  N2720  1  0.061800  0.398900  0.767270  1
  N  N2721  1  0.292100  0.284600  0.445430  1
  N  N2722  1  0.707900  0.784600  0.054570  1
  N  N2723  1  0.707900  0.715400  0.554570  1
  N  N2724  1  0.292100  0.215400  0.945430  1
  N  N2725  1  0.184200  0.285200  0.372600  1
  N  N2726  1  0.815800  0.785200  0.127400  1
  N  N2727  1  0.815800  0.714800  0.627400  1
  N  N2728  1  0.184200  0.214800  0.872600  1
  N  N2729  1  0.221500  0.280800  0.398180  1
  N  N2730  1  0.778500  0.780800  0.101820  1
  N  N2731  1  0.778500  0.719200  0.601820  1
  N  N2732  1  0.221500  0.219200  0.898180  1
  N  N2733  1  0.307500  0.221000  0.408400  1
  N  N2734  1  0.692500  0.721000  0.091600  1
  N  N2735  1  0.692500  0.779000  0.591600  1
  N  N2736  1  0.307500  0.279000  0.908400  1
  N  N2737  1  0.144100  0.182200  0.401790  1
  N  N2738  1  0.855900  0.682200  0.098210  1
  N  N2739  1  0.855900  0.817800  0.598210  1
  N  N2740  1  0.144100  0.317800  0.901790  1
  N  N2741  1  0.199600  0.198490  0.406550  1
  N  N2742  1  0.800400  0.698490  0.093450  1
  N  N2743  1  0.800400  0.801510  0.593450  1
  N  N2744  1  0.199600  0.301510  0.906550  1
  N  N2745  1  0.817300  0.174700  0.543760  1
  N  N2746  1  0.182700  0.674700  0.956240  1
  N  N2747  1  0.182700  0.825300  0.456240  1
  N  N2748  1  0.817300  0.325300  0.043760  1
  N  N2749  1  0.987400  0.200200  0.541920  1
  N  N2750  1  0.012600  0.700200  0.958080  1
  N  N2751  1  0.012600  0.799800  0.458080  1
  N  N2752  1  0.987400  0.299800  0.041920  1
  N  N2753  1  0.927800  0.189200  0.538460  1
  N  N2754  1  0.072200  0.689200  0.961540  1
  N  N2755  1  0.072200  0.810800  0.461540  1
  N  N2756  1  0.927800  0.310800  0.038460  1
  N  N2757  1  0.723200  0.390750  0.185930  1
  N  N2758  1  0.276800  0.890750  0.314070  1
  N  N2759  1  0.276800  0.609250  0.814070  1
  N  N2760  1  0.723200  0.109250  0.685930  1
  N  N2761  1  0.852800  0.335400  0.229820  1
  N  N2762  1  0.147200  0.835400  0.270180  1
  N  N2763  1  0.147200  0.664600  0.770180  1
  N  N2764  1  0.852800  0.164600  0.729820  1
  N  N2765  1  0.809700  0.352900  0.211340  1
  N  N2766  1  0.190300  0.852900  0.288660  1
  N  N2767  1  0.190300  0.647100  0.788660  1
  N  N2768  1  0.809700  0.147100  0.711340  1
  N  N2769  1  0.112600  0.107700  0.211910  1
  N  N2770  1  0.887400  0.607700  0.288090  1
  N  N2771  1  0.887400  0.892300  0.788090  1
  N  N2772  1  0.112600  0.392300  0.711910  1
  N  N2773  1  0.975800  0.159600  0.167510  1
  N  N2774  1  0.024200  0.659600  0.332490  1
  N  N2775  1  0.024200  0.840400  0.832490  1
  N  N2776  1  0.975800  0.340400  0.667510  1
  N  N2777  1  0.018500  0.141100  0.185430  1
  N  N2778  1  0.981500  0.641100  0.314570  1
  N  N2779  1  0.981500  0.858900  0.814570  1
  N  N2780  1  0.018500  0.358900  0.685430  1
  N  N2781  1  0.700700  0.434640  0.468380  1
  N  N2782  1  0.299300  0.934640  0.031620  1
  N  N2783  1  0.299300  0.565360  0.531620  1
  N  N2784  1  0.700700  0.065360  0.968380  1
  N  N2785  1  0.561900  0.414300  0.406810  1
  N  N2786  1  0.438100  0.914300  0.093190  1
  N  N2787  1  0.438100  0.585700  0.593190  1
  N  N2788  1  0.561900  0.085700  0.906810  1
  N  N2789  1  0.609700  0.416700  0.429120  1
  N  N2790  1  0.390300  0.916700  0.070880  1
  N  N2791  1  0.390300  0.583300  0.570880  1
  N  N2792  1  0.609700  0.083300  0.929120  1
  N  N2793  1  0.376900  0.230730  0.253120  1
  N  N2794  1  0.623100  0.730730  0.246880  1
  N  N2795  1  0.623100  0.769270  0.746880  1
  N  N2796  1  0.376900  0.269270  0.753120  1
  N  N2797  1  0.484300  0.232500  0.326730  1
  N  N2798  1  0.515700  0.732500  0.173270  1
  N  N2799  1  0.515700  0.767500  0.673270  1
  N  N2800  1  0.484300  0.267500  0.826730  1
  N  N2801  1  0.450700  0.235100  0.300160  1
  N  N2802  1  0.549300  0.735100  0.199840  1
  N  N2803  1  0.549300  0.764900  0.699840  1
  N  N2804  1  0.450700  0.264900  0.800160  1
  N  N2805  1  0.582500  0.420700  0.486400  1
  N  N2806  1  0.417500  0.920700  0.013600  1
  N  N2807  1  0.417500  0.579300  0.513600  1
  N  N2808  1  0.582500  0.079300  0.986400  1
  N  N2809  1  0.716100  0.365100  0.527700  1
  N  N2810  1  0.283900  0.865100  0.972300  1
  N  N2811  1  0.283900  0.634900  0.472300  1
  N  N2812  1  0.716100  0.134900  0.027700  1
  N  N2813  1  0.670800  0.382600  0.510410  1
  N  N2814  1  0.329200  0.882600  0.989590  1
  N  N2815  1  0.329200  0.617400  0.489590  1
  N  N2816  1  0.670800  0.117400  0.010410  1
  N  N2817  1  0.936100  0.122200  0.500400  1
  N  N2818  1  0.063900  0.622200  0.999600  1
  N  N2819  1  0.063900  0.877800  0.499600  1
  N  N2820  1  0.936100  0.377800  0.000400  1
  N  N2821  1  0.791900  0.177100  0.466900  1
  N  N2822  1  0.208100  0.677100  0.033100  1
  N  N2823  1  0.208100  0.822900  0.533100  1
  N  N2824  1  0.791900  0.322900  0.966900  1
  N  N2825  1  0.842500  0.161200  0.481880  1
  N  N2826  1  0.157500  0.661200  0.018120  1
  N  N2827  1  0.157500  0.838800  0.518120  1
  N  N2828  1  0.842500  0.338800  0.981880  1
  N  N2829  1  0.087400  0.175880  0.241030  1
  N  N2830  1  0.912600  0.675880  0.258970  1
  N  N2831  1  0.912600  0.824120  0.758970  1
  N  N2832  1  0.087400  0.324120  0.741030  1
  N  N2833  1  0.912400  0.166040  0.245490  1
  N  N2834  1  0.087600  0.666040  0.254510  1
  N  N2835  1  0.087600  0.833960  0.754510  1
  N  N2836  1  0.912400  0.333960  0.745490  1
  N  N2837  1  0.973500  0.163780  0.244330  1
  N  N2838  1  0.026500  0.663780  0.255670  1
  N  N2839  1  0.026500  0.836220  0.755670  1
  N  N2840  1  0.973500  0.336220  0.744330  1
  N  N2841  1  0.594100  0.994400  0.326790  1
  N  N2842  1  0.405900  0.494400  0.173210  1
  N  N2843  1  0.405900  0.005600  0.673210  1
  N  N2844  1  0.594100  0.505600  0.826790  1
  N  N2845  1  0.746300  0.997000  0.299650  1
  N  N2846  1  0.253700  0.497000  0.200350  1
  N  N2847  1  0.253700  0.003000  0.700350  1
  N  N2848  1  0.746300  0.503000  0.799650  1
  N  N2849  1  0.693700  0.999900  0.310280  1
  N  N2850  1  0.306300  0.499900  0.189720  1
  N  N2851  1  0.306300  0.000100  0.689720  1
  N  N2852  1  0.693700  0.500100  0.810280  1
  N  N2853  1  0.402000  0.304500  0.232880  1
  N  N2854  1  0.598000  0.804500  0.267120  1
  N  N2855  1  0.598000  0.695500  0.767120  1
  N  N2856  1  0.402000  0.195500  0.732880  1
  N  N2857  1  0.542100  0.242400  0.240800  1
  N  N2858  1  0.457900  0.742400  0.259200  1
  N  N2859  1  0.457900  0.757600  0.759200  1
  N  N2860  1  0.542100  0.257600  0.740800  1
  N  N2861  1  0.493300  0.263400  0.241430  1
  N  N2862  1  0.506700  0.763400  0.258570  1
  N  N2863  1  0.506700  0.736600  0.758570  1
  N  N2864  1  0.493300  0.236600  0.741430  1
  N  N2865  1  0.685200  0.024200  0.370200  1
  N  N2866  1  0.314800  0.524200  0.129800  1
  N  N2867  1  0.314800  0.975800  0.629800  1
  N  N2868  1  0.685200  0.475800  0.870200  1
  N  N2869  1  0.539000  0.079900  0.346510  1
  N  N2870  1  0.461000  0.579900  0.153490  1
  N  N2871  1  0.461000  0.920100  0.653490  1
  N  N2872  1  0.539000  0.420100  0.846510  1
  N  N2873  1  0.593000  0.062200  0.351800  1
  N  N2874  1  0.407000  0.562200  0.148200  1
  N  N2875  1  0.407000  0.937800  0.648200  1
  N  N2876  1  0.593000  0.437800  0.851800  1
  N  N2877  1  0.846100  0.330200  0.152010  1
  N  N2878  1  0.153900  0.830200  0.347990  1
  N  N2879  1  0.153900  0.669800  0.847990  1
  N  N2880  1  0.846100  0.169800  0.652010  1
  N  N2881  1  0.676500  0.308200  0.155130  1
  N  N2882  1  0.323500  0.808200  0.344870  1
  N  N2883  1  0.323500  0.691800  0.844870  1
  N  N2884  1  0.676500  0.191800  0.655130  1
  N  N2885  1  0.736000  0.318920  0.157510  1
  N  N2886  1  0.264000  0.818920  0.342490  1
  N  N2887  1  0.264000  0.681080  0.842490  1
  N  N2888  1  0.736000  0.181080  0.657510  1
  N  N2889  1  0.364400  0.294500  0.290290  1
  N  N2890  1  0.635600  0.794500  0.209710  1
  N  N2891  1  0.635600  0.705500  0.709710  1
  N  N2892  1  0.364400  0.205500  0.790290  1
  N  N2893  1  0.529200  0.333000  0.297040  1
  N  N2894  1  0.470800  0.833000  0.202960  1
  N  N2895  1  0.470800  0.667000  0.702960  1
  N  N2896  1  0.529200  0.167000  0.797040  1
  N  N2897  1  0.472800  0.317580  0.292100  1
  N  N2898  1  0.527200  0.817580  0.207900  1
  N  N2899  1  0.527200  0.682420  0.707900  1
  N  N2900  1  0.472800  0.182420  0.792100  1
  N  N2901  1  0.753700  0.309400  0.335000  1
  N  N2902  1  0.246300  0.809400  0.165000  1
  N  N2903  1  0.246300  0.690600  0.665000  1
  N  N2904  1  0.753700  0.190600  0.835000  1
  N  N2905  1  0.172400  0.258200  0.070500  1
  N  N2906  1  0.827600  0.758200  0.429500  1
  N  N2907  1  0.827600  0.741800  0.929500  1
  N  N2908  1  0.172400  0.241800  0.570500  1
  N  N2909  1  0.770700  0.124600  0.165000  1
  N  N2910  1  0.229300  0.624600  0.335000  1
  N  N2911  1  0.229300  0.875400  0.835000  1
  N  N2912  1  0.770700  0.375400  0.665000  1
  N  N2913  1  0.037000  0.372800  0.189000  1
  N  N2914  1  0.963000  0.872800  0.311000  1
  N  N2915  1  0.963000  0.627200  0.811000  1
  N  N2916  1  0.037000  0.127200  0.689000  1
  N  N2917  1  0.725500  0.499300  0.310900  1
  N  N2918  1  0.274500  0.999300  0.189100  1
  N  N2919  1  0.274500  0.500700  0.689100  1
  N  N2920  1  0.725500  0.000700  0.810900  1
  N  N2921  1  0.201800  0.291200  0.212900  1
  N  N2922  1  0.798200  0.791200  0.287100  1
  N  N2923  1  0.798200  0.708800  0.787100  1
  N  N2924  1  0.201800  0.208800  0.712900  1
  N  N2925  1  0.394500  0.024300  0.293400  1
  N  N2926  1  0.605500  0.524300  0.206600  1
  N  N2927  1  0.605500  0.975700  0.706600  1
  N  N2928  1  0.394500  0.475700  0.793400  1
  N  N2929  1  0.158400  0.211200  0.161600  1
  N  N2930  1  0.841600  0.711200  0.338400  1
  N  N2931  1  0.841600  0.788800  0.838400  1
  N  N2932  1  0.158400  0.288800  0.661600  1
  N  N2933  1  0.109000  0.323800  0.289200  1
  N  N2934  1  0.891000  0.823800  0.210800  1
  N  N2935  1  0.891000  0.676200  0.710800  1
  N  N2936  1  0.109000  0.176200  0.789200  1
  N  N2937  1  0.448600  0.971300  0.239500  1
  N  N2938  1  0.551400  0.471300  0.260500  1
  N  N2939  1  0.551400  0.028700  0.760500  1
  N  N2940  1  0.448600  0.528700  0.739500  1
  N  N2941  1  0.493400  0.993500  0.169200  1
  N  N2942  1  0.506600  0.493500  0.330800  1
  N  N2943  1  0.506600  0.006500  0.830800  1
  N  N2944  1  0.493400  0.506500  0.669200  1
  Cl  Cl2945  1  0.698930  0.395420  0.311270  1
  Cl  Cl2946  1  0.301070  0.895420  0.188730  1
  Cl  Cl2947  1  0.301070  0.604580  0.688730  1
  Cl  Cl2948  1  0.698930  0.104580  0.811270  1
  Cl  Cl2949  1  0.686200  0.175300  0.218830  1
  Cl  Cl2950  1  0.313800  0.675300  0.281170  1
  Cl  Cl2951  1  0.313800  0.824700  0.781170  1
  Cl  Cl2952  1  0.686200  0.324700  0.718830  1
  Cl  Cl2953  1  0.589500  0.206190  0.413640  1
  Cl  Cl2954  1  0.410500  0.706190  0.086360  1
  Cl  Cl2955  1  0.410500  0.793810  0.586360  1
  Cl  Cl2956  1  0.589500  0.293810  0.913640  1
  Cl  Cl2957  1  0.336600  0.104360  0.331950  1
  Cl  Cl2958  1  0.663400  0.604360  0.168050  1
  Cl  Cl2959  1  0.663400  0.895640  0.668050  1
  Cl  Cl2960  1  0.336600  0.395640  0.831950  1
  Cl  Cl2961  1  0.277200  0.058280  0.102970  1
  Cl  Cl2962  1  0.722800  0.558280  0.397030  1
  Cl  Cl2963  1  0.722800  0.941720  0.897030  1
  Cl  Cl2964  1  0.277200  0.441720  0.602970  1
  Cl  Cl2965  1  0.316400  0.414670  0.357160  1
  Cl  Cl2966  1  0.683600  0.914670  0.142840  1
  Cl  Cl2967  1  0.683600  0.585330  0.642840  1
  Cl  Cl2968  1  0.316400  0.085330  0.857160  1
  Cl  Cl2969  1  0.078450  0.458790  0.217350  1
  Cl  Cl2970  1  0.921550  0.958790  0.282650  1
  Cl  Cl2971  1  0.921550  0.541210  0.782650  1
  Cl  Cl2972  1  0.078450  0.041210  0.717350  1
  Cl  Cl2973  1  0.834500  0.187920  0.098580  1
  Cl  Cl2974  1  0.165500  0.687920  0.401420  1
  Cl  Cl2975  1  0.165500  0.812080  0.901420  1
  Cl  Cl2976  1  0.834500  0.312080  0.598580  1
  Cl  Cl2977  1  0.953920  0.288480  0.309980  1
  Cl  Cl2978  1  0.046080  0.788480  0.190020  1
  Cl  Cl2979  1  0.046080  0.711520  0.690020  1
  Cl  Cl2980  1  0.953920  0.211520  0.809980  1
  Cl  Cl2981  1  0.634200  0.066560  0.118200  1
  Cl  Cl2982  1  0.365800  0.566560  0.381800  1
  Cl  Cl2983  1  0.365800  0.933440  0.881800  1
  Cl  Cl2984  1  0.634200  0.433440  0.618200  1
  Cl  Cl2985  1  0.113800  0.321540  0.118050  1
  Cl  Cl2986  1  0.886200  0.821540  0.381950  1
  Cl  Cl2987  1  0.886200  0.678460  0.881950  1
  Cl  Cl2988  1  0.113800  0.178460  0.618050  1
  Cl  Cl2989  1  0.957500  0.331000  0.463380  1
  Cl  Cl2990  1  0.042500  0.831000  0.036620  1
  Cl  Cl2991  1  0.042500  0.669000  0.536620  1
  Cl  Cl2992  1  0.957500  0.169000  0.963380  1
  Cl  Cl2993  1  0.999700  0.101300  0.385650  1
  Cl  Cl2994  1  0.000300  0.601300  0.114350  1
  Cl  Cl2995  1  0.000300  0.898700  0.614350  1
  Cl  Cl2996  1  0.999700  0.398700  0.885650  1
  Cl  Cl2997  1  0.455100  0.366200  0.537900  1
  Cl  Cl2998  1  0.544900  0.866200  0.962100  1
  Cl  Cl2999  1  0.544900  0.633800  0.462100  1
  Cl  Cl3000  1  0.455100  0.133800  0.037900  1
  Cl  Cl3001  1  0.373000  0.410570  0.696210  1
  Cl  Cl3002  1  0.627000  0.910570  0.803790  1
  Cl  Cl3003  1  0.627000  0.589430  0.303790  1
  Cl  Cl3004  1  0.373000  0.089430  0.196210  1
  Cl  Cl3005  1  0.339400  0.238600  0.147120  1
  Cl  Cl3006  1  0.660600  0.738600  0.352880  1
  Cl  Cl3007  1  0.660600  0.761400  0.852880  1
  Cl  Cl3008  1  0.339400  0.261400  0.647120  1
  Cl  Cl3009  1  0.986000  0.344700  0.475170  1
  Cl  Cl3010  1  0.014000  0.844700  0.024830  1
  Cl  Cl3011  1  0.014000  0.655300  0.524830  1
  Cl  Cl3012  1  0.986000  0.155300  0.975170  1
  O  O3013  1  0.677200  0.376800  0.287920  1
  O  O3014  1  0.322800  0.876800  0.212080  1
  O  O3015  1  0.322800  0.623200  0.712080  1
  O  O3016  1  0.677200  0.123200  0.787920  1
  O  O3017  1  0.654800  0.396900  0.327190  1
  O  O3018  1  0.345200  0.896900  0.172810  1
  O  O3019  1  0.345200  0.603100  0.672810  1
  O  O3020  1  0.654800  0.103100  0.827190  1
  O  O3021  1  0.713400  0.427190  0.304100  1
  O  O3022  1  0.286600  0.927190  0.195900  1
  O  O3023  1  0.286600  0.572810  0.695900  1
  O  O3024  1  0.713400  0.072810  0.804100  1
  O  O3025  1  0.750800  0.380600  0.326000  1
  O  O3026  1  0.249200  0.880600  0.174000  1
  O  O3027  1  0.249200  0.619400  0.674000  1
  O  O3028  1  0.750800  0.119400  0.826000  1
  O  O3029  1  0.744400  0.167100  0.216100  1
  O  O3030  1  0.255600  0.667100  0.283900  1
  O  O3031  1  0.255600  0.832900  0.783900  1
  O  O3032  1  0.744400  0.332900  0.716100  1
  O  O3033  1  0.669200  0.203100  0.202700  1
  O  O3034  1  0.330800  0.703100  0.297300  1
  O  O3035  1  0.330800  0.796900  0.797300  1
  O  O3036  1  0.669200  0.296900  0.702700  1
  O  O3037  1  0.649500  0.148300  0.207800  1
  O  O3038  1  0.350500  0.648300  0.292200  1
  O  O3039  1  0.350500  0.851700  0.792200  1
  O  O3040  1  0.649500  0.351700  0.707800  1
  O  O3041  1  0.681100  0.179600  0.245250  1
  O  O3042  1  0.318900  0.679600  0.254750  1
  O  O3043  1  0.318900  0.820400  0.754750  1
  O  O3044  1  0.681100  0.320400  0.745250  1
  O  O3045  1  0.650500  0.204800  0.418200  1
  O  O3046  1  0.349500  0.704800  0.081800  1
  O  O3047  1  0.349500  0.795200  0.581800  1
  O  O3048  1  0.650500  0.295200  0.918200  1
  O  O3049  1  0.568000  0.233000  0.396500  1
  O  O3050  1  0.432000  0.733000  0.103500  1
  O  O3051  1  0.432000  0.767000  0.603500  1
  O  O3052  1  0.568000  0.267000  0.896500  1
  O  O3053  1  0.563600  0.177400  0.400700  1
  O  O3054  1  0.436400  0.677400  0.099300  1
  O  O3055  1  0.436400  0.822600  0.599300  1
  O  O3056  1  0.563600  0.322600  0.900700  1
  O  O3057  1  0.568400  0.210500  0.437900  1
  O  O3058  1  0.431600  0.710500  0.062100  1
  O  O3059  1  0.431600  0.789500  0.562100  1
  O  O3060  1  0.568400  0.289500  0.937900  1
  O  O3061  1  0.286600  0.104300  0.344400  1
  O  O3062  1  0.713400  0.604300  0.155600  1
  O  O3063  1  0.713400  0.895700  0.655600  1
  O  O3064  1  0.286600  0.395700  0.844400  1
  O  O3065  1  0.352000  0.072300  0.326600  1
  O  O3066  1  0.648000  0.572300  0.173400  1
  O  O3067  1  0.648000  0.927700  0.673400  1
  O  O3068  1  0.352000  0.427700  0.826600  1
  O  O3069  1  0.384900  0.119100  0.350100  1
  O  O3070  1  0.615100  0.619100  0.149900  1
  O  O3071  1  0.615100  0.880900  0.649900  1
  O  O3072  1  0.384900  0.380900  0.850100  1
  O  O3073  1  0.324400  0.122800  0.308200  1
  O  O3074  1  0.675600  0.622800  0.191800  1
  O  O3075  1  0.675600  0.877200  0.691800  1
  O  O3076  1  0.324400  0.377200  0.808200  1
  O  O3077  1  0.247200  0.064300  0.124400  1
  O  O3078  1  0.752800  0.564300  0.375600  1
  O  O3079  1  0.752800  0.935700  0.875600  1
  O  O3080  1  0.247200  0.435700  0.624400  1
  O  O3081  1  0.235400  0.051400  0.079500  1
  O  O3082  1  0.764600  0.551400  0.420500  1
  O  O3083  1  0.764600  0.948600  0.920500  1
  O  O3084  1  0.235400  0.448600  0.579500  1
  O  O3085  1  0.315200  0.031100  0.109800  1
  O  O3086  1  0.684800  0.531100  0.390200  1
  O  O3087  1  0.684800  0.968900  0.890200  1
  O  O3088  1  0.315200  0.468900  0.609800  1
  O  O3089  1  0.311200  0.085700  0.099000  1
  O  O3090  1  0.688800  0.585700  0.401000  1
  O  O3091  1  0.688800  0.914300  0.901000  1
  O  O3092  1  0.311200  0.414300  0.599000  1
  O  O3093  1  0.302100  0.448000  0.358700  1
  O  O3094  1  0.697900  0.948000  0.141300  1
  O  O3095  1  0.697900  0.552000  0.641300  1
  O  O3096  1  0.302100  0.052000  0.858700  1
  O  O3097  1  0.273700  0.398600  0.338300  1
  O  O3098  1  0.726300  0.898600  0.161700  1
  O  O3099  1  0.726300  0.601400  0.661700  1
  O  O3100  1  0.273700  0.101400  0.838300  1
  O  O3101  1  0.373000  0.411800  0.350700  1
  O  O3102  1  0.627000  0.911800  0.149300  1
  O  O3103  1  0.627000  0.588200  0.649300  1
  O  O3104  1  0.373000  0.088200  0.850700  1
  O  O3105  1  0.318500  0.400500  0.383000  1
  O  O3106  1  0.681500  0.900500  0.117000  1
  O  O3107  1  0.681500  0.599500  0.617000  1
  O  O3108  1  0.318500  0.099500  0.883000  1
  O  O3109  1  0.026200  0.477700  0.211260  1
  O  O3110  1  0.973800  0.977700  0.288740  1
  O  O3111  1  0.973800  0.522300  0.788740  1
  O  O3112  1  0.026200  0.022300  0.711260  1
  O  O3113  1  0.064800  0.427640  0.226970  1
  O  O3114  1  0.935200  0.927640  0.273030  1
  O  O3115  1  0.935200  0.572360  0.773030  1
  O  O3116  1  0.064800  0.072360  0.726970  1
  O  O3117  1  0.101800  0.454400  0.193770  1
  O  O3118  1  0.898200  0.954400  0.306230  1
  O  O3119  1  0.898200  0.545600  0.806230  1
  O  O3120  1  0.101800  0.045600  0.693770  1
  O  O3121  1  0.120300  0.474400  0.237210  1
  O  O3122  1  0.879700  0.974400  0.262790  1
  O  O3123  1  0.879700  0.525600  0.762790  1
  O  O3124  1  0.120300  0.025600  0.737210  1
  O  O3125  1  0.839400  0.156700  0.108600  1
  O  O3126  1  0.160600  0.656700  0.391400  1
  O  O3127  1  0.160600  0.843300  0.891400  1
  O  O3128  1  0.839400  0.343300  0.608600  1
  O  O3129  1  0.789300  0.205800  0.107400  1
  O  O3130  1  0.210700  0.705800  0.392600  1
  O  O3131  1  0.210700  0.794200  0.892600  1
  O  O3132  1  0.789300  0.294200  0.607400  1
  O  O3133  1  0.888600  0.205400  0.105400  1
  O  O3134  1  0.111400  0.705400  0.394600  1
  O  O3135  1  0.111400  0.794600  0.894600  1
  O  O3136  1  0.888600  0.294600  0.605400  1
  O  O3137  1  0.820500  0.186900  0.069770  1
  O  O3138  1  0.179500  0.686900  0.430230  1
  O  O3139  1  0.179500  0.813100  0.930230  1
  O  O3140  1  0.820500  0.313100  0.569770  1
  O  O3141  1  0.012900  0.284400  0.323300  1
  O  O3142  1  0.987100  0.784400  0.176700  1
  O  O3143  1  0.987100  0.715600  0.676700  1
  O  O3144  1  0.012900  0.215600  0.823300  1
  O  O3145  1  0.954000  0.290000  0.281800  1
  O  O3146  1  0.046000  0.790000  0.218200  1
  O  O3147  1  0.046000  0.710000  0.718200  1
  O  O3148  1  0.954000  0.210000  0.781800  1
  O  O3149  1  0.930900  0.317900  0.318000  1
  O  O3150  1  0.069100  0.817900  0.182000  1
  O  O3151  1  0.069100  0.682100  0.682000  1
  O  O3152  1  0.930900  0.182100  0.818000  1
  O  O3153  1  0.919600  0.261600  0.314800  1
  O  O3154  1  0.080400  0.761600  0.185200  1
  O  O3155  1  0.080400  0.738400  0.685200  1
  O  O3156  1  0.919600  0.238400  0.814800  1
  O  O3157  1  0.614400  0.057200  0.141600  1
  O  O3158  1  0.385600  0.557200  0.358400  1
  O  O3159  1  0.385600  0.942800  0.858400  1
  O  O3160  1  0.614400  0.442800  0.641600  1
  O  O3161  1  0.693000  0.055800  0.119100  1
  O  O3162  1  0.307000  0.555800  0.380900  1
  O  O3163  1  0.307000  0.944200  0.880900  1
  O  O3164  1  0.693000  0.444200  0.619100  1
  O  O3165  1  0.597800  0.053400  0.095100  1
  O  O3166  1  0.402200  0.553400  0.404900  1
  O  O3167  1  0.402200  0.946600  0.904900  1
  O  O3168  1  0.597800  0.446600  0.595100  1
  O  O3169  1  0.632800  0.101200  0.116600  1
  O  O3170  1  0.367200  0.601200  0.383400  1
  O  O3171  1  0.367200  0.898800  0.883400  1
  O  O3172  1  0.632800  0.398800  0.616600  1
  O  O3173  1  0.160200  0.298800  0.118400  1
  O  O3174  1  0.839800  0.798800  0.381600  1
  O  O3175  1  0.839800  0.701200  0.881600  1
  O  O3176  1  0.160200  0.201200  0.618400  1
  O  O3177  1  0.079100  0.312400  0.136800  1
  O  O3178  1  0.920900  0.812400  0.363200  1
  O  O3179  1  0.920900  0.687600  0.863200  1
  O  O3180  1  0.079100  0.187600  0.636800  1
  O  O3181  1  0.139000  0.352800  0.125500  1
  O  O3182  1  0.861000  0.852800  0.374500  1
  O  O3183  1  0.861000  0.647200  0.874500  1
  O  O3184  1  0.139000  0.147200  0.625500  1
  O  O3185  1  0.079000  0.323400  0.092100  1
  O  O3186  1  0.921000  0.823400  0.407900  1
  O  O3187  1  0.921000  0.676600  0.907900  1
  O  O3188  1  0.079000  0.176600  0.592100  1
  O  O3189  1  0.908700  0.314600  0.448300  1
  O  O3190  1  0.091300  0.814600  0.051700  1
  O  O3191  1  0.091300  0.685400  0.551700  1
  O  O3192  1  0.908700  0.185400  0.948300  1
  O  O3193  1  0.994300  0.343200  0.447500  1
  O  O3194  1  0.005700  0.843200  0.052500  1
  O  O3195  1  0.005700  0.656800  0.552500  1
  O  O3196  1  0.994300  0.156800  0.947500  1
  O  O3197  1  0.933400  0.357500  0.477500  1
  O  O3198  1  0.066600  0.857500  0.022500  1
  O  O3199  1  0.066600  0.642500  0.522500  1
  O  O3200  1  0.933400  0.142500  0.977500  1
  O  O3201  1  0.988900  0.311000  0.484100  1
  O  O3202  1  0.011100  0.811000  0.015900  1
  O  O3203  1  0.011100  0.689000  0.515900  1
  O  O3204  1  0.988900  0.189000  0.984100  1
  O  O3205  1  0.026400  0.123700  0.405300  1
  O  O3206  1  0.973600  0.623700  0.094700  1
  O  O3207  1  0.973600  0.876300  0.594700  1
  O  O3208  1  0.026400  0.376300  0.905300  1
  O  O3209  1  0.030500  0.102700  0.363800  1
  O  O3210  1  0.969500  0.602700  0.136200  1
  O  O3211  1  0.969500  0.897300  0.636200  1
  O  O3212  1  0.030500  0.397300  0.863800  1
  O  O3213  1  0.940300  0.110300  0.376200  1
  O  O3214  1  0.059700  0.610300  0.123800  1
  O  O3215  1  0.059700  0.889700  0.623800  1
  O  O3216  1  0.940300  0.389700  0.876200  1
  O  O3217  1  0.002800  0.069700  0.396200  1
  O  O3218  1  0.997200  0.569700  0.103800  1
  O  O3219  1  0.997200  0.930300  0.603800  1
  O  O3220  1  0.002800  0.430300  0.896200  1
  O  O3221  1  0.505900  0.351000  0.532100  1
  O  O3222  1  0.494100  0.851000  0.967900  1
  O  O3223  1  0.494100  0.649000  0.467900  1
  O  O3224  1  0.505900  0.149000  0.032100  1
  O  O3225  1  0.423800  0.381800  0.514700  1
  O  O3226  1  0.576200  0.881800  0.985300  1
  O  O3227  1  0.576200  0.618200  0.485300  1
  O  O3228  1  0.423800  0.118200  0.014700  1
  O  O3229  1  0.419000  0.341500  0.546300  1
  O  O3230  1  0.581000  0.841500  0.953700  1
  O  O3231  1  0.581000  0.658500  0.453700  1
  O  O3232  1  0.419000  0.158500  0.046300  1
  O  O3233  1  0.469900  0.389100  0.558800  1
  O  O3234  1  0.530100  0.889100  0.941200  1
  O  O3235  1  0.530100  0.610900  0.441200  1
  O  O3236  1  0.469900  0.110900  0.058800  1
  O  O3237  1  0.433400  0.415100  0.696700  1
  O  O3238  1  0.566600  0.915100  0.803300  1
  O  O3239  1  0.566600  0.584900  0.303300  1
  O  O3240  1  0.433400  0.084900  0.196700  1
  O  O3241  1  0.356700  0.377800  0.689500  1
  O  O3242  1  0.643300  0.877800  0.810500  1
  O  O3243  1  0.643300  0.622200  0.310500  1
  O  O3244  1  0.356700  0.122200  0.189500  1
  O  O3245  1  0.361100  0.416500  0.722400  1
  O  O3246  1  0.638900  0.916500  0.777600  1
  O  O3247  1  0.638900  0.583500  0.277600  1
  O  O3248  1  0.361100  0.083500  0.222400  1
  O  O3249  1  0.338900  0.431700  0.677800  1
  O  O3250  1  0.661100  0.931700  0.822200  1
  O  O3251  1  0.661100  0.568300  0.322200  1
  O  O3252  1  0.338900  0.068300  0.177800  1
  O  O3253  1  0.337800  0.215300  0.125800  1
  O  O3254  1  0.662200  0.715300  0.374200  1
  O  O3255  1  0.662200  0.784700  0.874200  1
  O  O3256  1  0.337800  0.284700  0.625800  1
  O  O3257  1  0.386800  0.230100  0.168000  1
  O  O3258  1  0.613200  0.730100  0.332000  1
  O  O3259  1  0.613200  0.769900  0.832000  1
  O  O3260  1  0.386800  0.269900  0.668000  1
  O  O3261  1  0.348900  0.269700  0.136900  1
  O  O3262  1  0.651100  0.769700  0.363100  1
  O  O3263  1  0.651100  0.730300  0.863100  1
  O  O3264  1  0.348900  0.230300  0.636900  1
  O  O3265  1  0.285600  0.237600  0.156000  1
  O  O3266  1  0.714400  0.737600  0.344000  1
  O  O3267  1  0.714400  0.762400  0.844000  1
  O  O3268  1  0.285600  0.262400  0.656000  1
  O  O3269  1  0.703400  0.298800  0.326400  1
  O  O3270  1  0.296600  0.798800  0.173600  1
  O  O3271  1  0.296600  0.701200  0.673600  1
  O  O3272  1  0.703400  0.201200  0.826400  1
  O  O3273  1  0.773900  0.318700  0.358400  1
  O  O3274  1  0.226100  0.818700  0.141600  1
  O  O3275  1  0.226100  0.681300  0.641600  1
  O  O3276  1  0.773900  0.181300  0.858400  1
  O  O3277  1  0.131300  0.240500  0.070300  1
  O  O3278  1  0.868700  0.740500  0.429700  1
  O  O3279  1  0.868700  0.759500  0.929700  1
  O  O3280  1  0.131300  0.259500  0.570300  1
  O  O3281  1  0.176500  0.284500  0.058400  1
  O  O3282  1  0.823500  0.784500  0.441600  1
  O  O3283  1  0.823500  0.715500  0.941600  1
  O  O3284  1  0.176500  0.215500  0.558400  1
  O  O3285  1  0.733200  0.150400  0.149800  1
  O  O3286  1  0.266800  0.650400  0.350200  1
  O  O3287  1  0.266800  0.849600  0.850200  1
  O  O3288  1  0.733200  0.349600  0.649800  1
  O  O3289  1  0.820800  0.131200  0.173100  1
  O  O3290  1  0.179200  0.631200  0.326900  1
  O  O3291  1  0.179200  0.868800  0.826900  1
  O  O3292  1  0.820800  0.368800  0.673100  1
  O  O3293  1  0.014300  0.358500  0.205740  1
  O  O3294  1  0.985700  0.858500  0.294260  1
  O  O3295  1  0.985700  0.641500  0.794260  1
  O  O3296  1  0.014300  0.141500  0.705740  1
  O  O3297  1  0.008500  0.390500  0.171550  1
  O  O3298  1  0.991500  0.890500  0.328450  1
  O  O3299  1  0.991500  0.609500  0.828450  1
  O  O3300  1  0.008500  0.109500  0.671550  1
  O  O3301  1  0.776900  0.498800  0.323900  1
  O  O3302  1  0.223100  0.998800  0.176100  1
  O  O3303  1  0.223100  0.501200  0.676100  1
  O  O3304  1  0.776900  0.001200  0.823900  1
  O  O3305  1  0.713900  0.500200  0.286100  1
  O  O3306  1  0.286100  0.000200  0.213900  1
  O  O3307  1  0.286100  0.499800  0.713900  1
  O  O3308  1  0.713900  0.999800  0.786100  1
  O  O3309  1  0.241700  0.278000  0.228600  1
  O  O3310  1  0.758300  0.778000  0.271400  1
  O  O3311  1  0.758300  0.722000  0.771400  1
  O  O3312  1  0.241700  0.222000  0.728600  1
  O  O3313  1  0.150700  0.295800  0.218300  1
  O  O3314  1  0.849300  0.795800  0.281700  1
  O  O3315  1  0.849300  0.704200  0.781700  1
  O  O3316  1  0.150700  0.204200  0.718300  1
  O  O3317  1  0.364300  0.004200  0.300900  1
  O  O3318  1  0.635700  0.504200  0.199100  1
  O  O3319  1  0.635700  0.995800  0.699100  1
  O  O3320  1  0.364300  0.495800  0.800900  1
  O  O3321  1  0.446700  0.033900  0.303000  1
  O  O3322  1  0.553300  0.533900  0.197000  1
  O  O3323  1  0.553300  0.966100  0.697000  1
  O  O3324  1  0.446700  0.466100  0.803000  1
  O  O3325  1  0.176600  0.181400  0.168200  1
  O  O3326  1  0.823400  0.681400  0.331800  1
  O  O3327  1  0.823400  0.818600  0.831800  1
  O  O3328  1  0.176600  0.318600  0.668200  1
  O  O3329  1  0.155700  0.229500  0.182400  1
  O  O3330  1  0.844300  0.729500  0.317600  1
  O  O3331  1  0.844300  0.770500  0.817600  1
  O  O3332  1  0.155700  0.270500  0.682400  1
  O  O3333  1  0.122500  0.349600  0.302000  1
  O  O3334  1  0.877500  0.849600  0.198000  1
  O  O3335  1  0.877500  0.650400  0.698000  1
  O  O3336  1  0.122500  0.150400  0.802000  1
  O  O3337  1  0.127600  0.297400  0.298000  1
  O  O3338  1  0.872400  0.797400  0.202000  1
  O  O3339  1  0.872400  0.702600  0.702000  1
  O  O3340  1  0.127600  0.202600  0.798000  1
  O  O3341  1  0.457200  0.975300  0.262200  1
  O  O3342  1  0.542800  0.475300  0.237800  1
  O  O3343  1  0.542800  0.024700  0.737800  1
  O  O3344  1  0.457200  0.524700  0.762200  1
  O  O3345  1  0.455000  0.994300  0.222500  1
  O  O3346  1  0.545000  0.494300  0.277500  1
  O  O3347  1  0.545000  0.005700  0.777500  1
  O  O3348  1  0.455000  0.505700  0.722500  1
  O  O3349  1  0.444600  0.996800  0.156300  1
  O  O3350  1  0.555400  0.496800  0.343700  1
  O  O3351  1  0.555400  0.003200  0.843700  1
  O  O3352  1  0.444600  0.503200  0.656300  1
  O  O3353  1  0.509300  0.962800  0.170700  1
  O  O3354  1  0.490700  0.462800  0.329300  1
  O  O3355  1  0.490700  0.037200  0.829300  1
  O  O3356  1  0.509300  0.537200  0.670700  1
  O  O3357  1  0.535000  0.367400  0.607400  1
  O  O3358  1  0.465000  0.867400  0.892600  1
  O  O3359  1  0.465000  0.632600  0.392600  1
  O  O3360  1  0.535000  0.132600  0.107400  1
  O  O3361  1  0.438700  0.335500  0.676400  1
  O  O3362  1  0.561300  0.835500  0.823600  1
  O  O3363  1  0.561300  0.664500  0.323600  1
  O  O3364  1  0.438700  0.164500  0.176400  1
  O  O3365  1  0.560600  0.376900  0.673300  1
  O  O3366  1  0.439400  0.876900  0.826700  1
  O  O3367  1  0.439400  0.623100  0.326700  1
  O  O3368  1  0.560600  0.123100  0.173300  1
  O  O3369  1  0.433500  0.400200  0.637100  1
  O  O3370  1  0.566500  0.900200  0.862900  1
  O  O3371  1  0.566500  0.599800  0.362900  1
  O  O3372  1  0.433500  0.099800  0.137100  1
  O  O3373  1  0.541100  0.303200  0.647100  1
  O  O3374  1  0.458900  0.803200  0.852900  1
  O  O3375  1  0.458900  0.696800  0.352900  1
  O  O3376  1  0.541100  0.196800  0.147100  1
  O  O3377  1  0.413600  0.326500  0.610500  1
  O  O3378  1  0.586400  0.826500  0.889500  1
  O  O3379  1  0.586400  0.673500  0.389500  1
  O  O3380  1  0.413600  0.173500  0.110500  1
  O  O3381  1  0.722300  0.234500  0.297700  1
  O  O3382  1  0.277700  0.734500  0.202300  1
  O  O3383  1  0.277700  0.765500  0.702300  1
  O  O3384  1  0.722300  0.265500  0.797700  1
  O  O3385  1  0.883900  0.008400  0.361600  1
  O  O3386  1  0.116100  0.508400  0.138400  1
  O  O3387  1  0.116100  0.991600  0.638400  1
  O  O3388  1  0.883900  0.491600  0.861600  1
  O  O3389  1  0.891100  0.168700  0.344100  1
  O  O3390  1  0.108900  0.668700  0.155900  1
  O  O3391  1  0.108900  0.831300  0.655900  1
  O  O3392  1  0.891100  0.331300  0.844100  1
  O  O3393  1  0.034300  0.362000  0.489700  1
  O  O3394  1  0.965700  0.862000  0.010300  1
  O  O3395  1  0.965700  0.638000  0.510300  1
  O  O3396  1  0.034300  0.138000  0.989700  1
