# generated using pymatgen
data_H82Pd3C94N23O34
_symmetry_space_group_name_H-M   'P 1'
_cell_length_a   18.09610000
_cell_length_b   18.91500000
_cell_length_c   26.03300000
_cell_angle_alpha   80.34900000
_cell_angle_beta   70.27600000
_cell_angle_gamma   63.31700000
_symmetry_Int_Tables_number   1
_chemical_formula_structural   H82Pd3C94N23O34
_chemical_formula_sum   'H328 Pd12 C376 N92 O136'
_cell_volume   7493.32207209
_cell_formula_units_Z   4
loop_
 _symmetry_equiv_pos_site_id
 _symmetry_equiv_pos_as_xyz
  1  'x, y, z'
loop_
 _atom_site_type_symbol
 _atom_site_label
 _atom_site_symmetry_multiplicity
 _atom_site_fract_x
 _atom_site_fract_y
 _atom_site_fract_z
 _atom_site_occupancy
  H  H1  1  0.788000  0.251600  0.225600  1
  H  H2  1  0.212000  0.748400  0.774400  1
  H  H3  1  0.834000  0.115800  0.224400  1
  H  H4  1  0.166000  0.884200  0.775600  1
  H  H5  1  0.652700  0.154100  0.152100  1
  H  H6  1  0.347300  0.845900  0.847900  1
  H  H7  1  0.611500  0.289100  0.154500  1
  H  H8  1  0.388500  0.710900  0.845500  1
  H  H9  1  0.584900  0.930100  0.081800  1
  H  H10  1  0.415100  0.069900  0.918200  1
  H  H11  1  0.635200  0.992600  0.122700  1
  H  H12  1  0.364800  0.007400  0.877300  1
  H  H13  1  0.812700  0.776600  0.152300  1
  H  H14  1  0.187300  0.223400  0.847700  1
  H  H15  1  0.758200  0.720200  0.110600  1
  H  H16  1  0.241800  0.279800  0.889400  1
  H  H17  1  0.055400  0.668300  0.244700  1
  H  H18  1  0.944600  0.331700  0.755300  1
  H  H19  1  0.940600  0.753400  0.211200  1
  H  H20  1  0.059400  0.246600  0.788800  1
  H  H21  1  0.967600  0.938900  0.247600  1
  H  H22  1  0.032400  0.061100  0.752400  1
  H  H23  1  0.082200  0.849300  0.279700  1
  H  H24  1  0.917800  0.150700  0.720300  1
  H  H25  1  0.451200  0.271600  0.618100  1
  H  H26  1  0.548800  0.728400  0.381900  1
  H  H27  1  0.497700  0.135800  0.612500  1
  H  H28  1  0.502300  0.864200  0.387500  1
  H  H29  1  0.314300  0.183700  0.539300  1
  H  H30  1  0.685700  0.816300  0.460700  1
  H  H31  1  0.272700  0.317700  0.546300  1
  H  H32  1  0.727300  0.682300  0.453700  1
  H  H33  1  0.213500  0.013500  0.470200  1
  H  H34  1  0.786500  0.986500  0.529800  1
  H  H35  1  0.289000  0.049600  0.509300  1
  H  H36  1  0.711000  0.950400  0.490700  1
  H  H37  1  0.442600  0.817100  0.525400  1
  H  H38  1  0.557400  0.182900  0.474600  1
  H  H39  1  0.363200  0.786300  0.485800  1
  H  H40  1  0.636800  0.213700  0.514200  1
  H  H41  1  0.720900  0.693100  0.620300  1
  H  H42  1  0.279100  0.306900  0.379700  1
  H  H43  1  0.609500  0.773800  0.583300  1
  H  H44  1  0.390500  0.226200  0.416700  1
  H  H45  1  0.629300  0.963600  0.618700  1
  H  H46  1  0.370700  0.036400  0.381300  1
  H  H47  1  0.743600  0.878200  0.651500  1
  H  H48  1  0.256400  0.121800  0.348500  1
  H  H49  1  0.645900  0.433100  0.076500  1
  H  H50  1  0.354100  0.566900  0.923500  1
  H  H51  1  0.732300  0.433000  0.987400  1
  H  H52  1  0.267700  0.567000  0.012600  1
  H  H53  1  0.937300  0.363500  0.044300  1
  H  H54  1  0.062700  0.636500  0.955700  1
  H  H55  1  0.846900  0.362600  0.131700  1
  H  H56  1  0.153100  0.637400  0.868300  1
  H  H57  1  0.309600  0.390100  0.705200  1
  H  H58  1  0.690400  0.609900  0.294800  1
  H  H59  1  0.216400  0.378600  0.788700  1
  H  H60  1  0.783600  0.621400  0.211300  1
  H  H61  1  0.034200  0.431500  0.713700  1
  H  H62  1  0.965800  0.568500  0.286300  1
  H  H63  1  0.131800  0.444300  0.632300  1
  H  H64  1  0.868200  0.555700  0.367700  1
  H  H65  1  0.228200  0.801400  0.198500  1
  H  H66  1  0.771800  0.198600  0.801500  1
  H  H67  1  0.278200  0.824100  0.105900  1
  H  H68  1  0.721800  0.175900  0.894100  1
  H  H69  1  0.328400  0.599100  0.080600  1
  H  H70  1  0.671600  0.400900  0.919400  1
  H  H71  1  0.275200  0.582900  0.174100  1
  H  H72  1  0.724800  0.417100  0.825900  1
  H  H73  1  0.698700  0.642600  0.730800  1
  H  H74  1  0.301300  0.357400  0.269200  1
  H  H75  1  0.581600  0.647100  0.805000  1
  H  H76  1  0.418400  0.352900  0.195000  1
  H  H77  1  0.589800  0.829300  0.862700  1
  H  H78  1  0.410200  0.170700  0.137300  1
  H  H79  1  0.706600  0.819700  0.787500  1
  H  H80  1  0.293400  0.180300  0.212500  1
  H  H81  1  0.806100  0.661600  0.991400  1
  H  H82  1  0.193900  0.338400  0.008600  1
  H  H83  1  0.919300  0.660700  0.915600  1
  H  H84  1  0.080700  0.339300  0.084400  1
  H  H85  1  0.765800  0.886000  0.881600  1
  H  H86  1  0.234200  0.114000  0.118400  1
  H  H87  1  0.656100  0.881000  0.958900  1
  H  H88  1  0.343900  0.119000  0.041100  1
  H  H89  1  0.081700  0.968400  0.559200  1
  H  H90  1  0.918300  0.031600  0.440800  1
  H  H91  1  0.035400  0.949200  0.652600  1
  H  H92  1  0.964600  0.050800  0.347400  1
  H  H93  1  0.176600  0.712800  0.629100  1
  H  H94  1  0.823400  0.287200  0.370900  1
  H  H95  1  0.216600  0.738500  0.536700  1
  H  H96  1  0.783400  0.261500  0.463300  1
  H  H97  1  0.550500  0.388100  0.274900  1
  H  H98  1  0.449500  0.611900  0.725100  1
  H  H99  1  0.624800  0.380600  0.291700  1
  H  H100  1  0.375200  0.619400  0.708300  1
  H  H101  1  0.528700  0.498200  0.325300  1
  H  H102  1  0.471300  0.501800  0.674700  1
  H  H103  1  0.488400  0.519000  0.275400  1
  H  H104  1  0.511600  0.481000  0.724600  1
  H  H105  1  0.569600  0.591800  0.261400  1
  H  H106  1  0.430400  0.408200  0.738600  1
  H  H107  1  0.652600  0.513300  0.268300  1
  H  H108  1  0.347400  0.486700  0.731700  1
  H  H109  1  0.672900  0.530100  0.177200  1
  H  H110  1  0.327100  0.469900  0.822800  1
  H  H111  1  0.581800  0.547100  0.182300  1
  H  H112  1  0.418200  0.452900  0.817700  1
  H  H113  1  0.574400  0.714800  0.143000  1
  H  H114  1  0.425600  0.285200  0.857000  1
  H  H115  1  0.508000  0.795700  0.136400  1
  H  H116  1  0.492000  0.204300  0.863600  1
  H  H117  1  0.546000  0.747300  0.000200  1
  H  H118  1  0.454000  0.252700  0.999800  1
  H  H119  1  0.633200  0.678800  0.987400  1
  H  H120  1  0.366800  0.321200  0.012600  1
  H  H121  1  0.209200  0.948300  0.369800  1
  H  H122  1  0.790800  0.051700  0.630200  1
  H  H123  1  0.290500  0.873900  0.364000  1
  H  H124  1  0.709500  0.126100  0.636000  1
  H  H125  1  0.112600  0.802600  0.448400  1
  H  H126  1  0.887400  0.197400  0.551600  1
  H  H127  1  0.048200  0.884600  0.465500  1
  H  H128  1  0.951800  0.115400  0.534500  1
  H  H129  1  0.940600  0.666800  0.603500  1
  H  H130  1  0.059400  0.333200  0.396500  1
  H  H131  1  0.921800  0.751500  0.606900  1
  H  H132  1  0.078200  0.248500  0.393100  1
  H  H133  1  0.888400  0.716900  0.756100  1
  H  H134  1  0.111600  0.283100  0.243900  1
  H  H135  1  0.883400  0.639500  0.760000  1
  H  H136  1  0.116600  0.360500  0.240000  1
  H  H137  1  0.443000  0.756100  0.097500  1
  H  H138  1  0.557000  0.243900  0.902500  1
  H  H139  1  0.475500  0.682000  0.137600  1
  H  H140  1  0.524500  0.318000  0.862400  1
  H  H141  1  0.600000  0.615200  0.067900  1
  H  H142  1  0.400000  0.384800  0.932100  1
  H  H143  1  0.519200  0.643400  0.044600  1
  H  H144  1  0.480800  0.356600  0.955400  1
  H  H145  1  0.234700  0.567900  0.578800  1
  H  H146  1  0.765300  0.432100  0.421200  1
  H  H147  1  0.267700  0.555700  0.626400  1
  H  H148  1  0.732300  0.444300  0.373600  1
  H  H149  1  0.401100  0.540800  0.574300  1
  H  H150  1  0.598900  0.459200  0.425700  1
  H  H151  1  0.336400  0.614600  0.546900  1
  H  H152  1  0.663600  0.385400  0.453100  1
  H  H153  1  0.348200  0.530200  0.484100  1
  H  H154  1  0.651800  0.469800  0.515900  1
  H  H155  1  0.444600  0.515500  0.480200  1
  H  H156  1  0.555400  0.484500  0.519800  1
  H  H157  1  0.464900  0.402600  0.527600  1
  H  H158  1  0.535100  0.597400  0.472400  1
  H  H159  1  0.414200  0.399500  0.493900  1
  H  H160  1  0.585800  0.600500  0.506100  1
  H  H161  1  0.108400  0.697400  0.375400  1
  H  H162  1  0.891600  0.302600  0.624600  1
  H  H163  1  0.118800  0.619300  0.361600  1
  H  H164  1  0.881200  0.380700  0.638400  1
  H  H165  1  0.233800  0.649700  0.391800  1
  H  H166  1  0.766200  0.350300  0.608200  1
  H  H167  1  0.206600  0.577600  0.412400  1
  H  H168  1  0.793400  0.422400  0.587600  1
  H  H169  1  0.351700  0.547600  0.348800  1
  H  H170  1  0.648300  0.452400  0.651200  1
  H  H171  1  0.297000  0.507400  0.338300  1
  H  H172  1  0.703000  0.492600  0.661700  1
  H  H173  1  0.330500  0.556100  0.258200  1
  H  H174  1  0.669500  0.443900  0.741800  1
  H  H175  1  0.344300  0.618700  0.276100  1
  H  H176  1  0.655700  0.381300  0.723900  1
  H  H177  1  0.230900  0.798300  0.351500  1
  H  H178  1  0.769100  0.201700  0.648500  1
  H  H179  1  0.201000  0.875600  0.313300  1
  H  H180  1  0.799000  0.124400  0.686700  1
  H  H181  1  0.069100  0.936000  0.381700  1
  H  H182  1  0.930900  0.064000  0.618300  1
  H  H183  1  0.079400  0.850100  0.371400  1
  H  H184  1  0.920600  0.149900  0.628600  1
  H  H185  1  0.055200  0.644000  0.624500  1
  H  H186  1  0.944800  0.356000  0.375500  1
  H  H187  1  0.008900  0.727500  0.653800  1
  H  H188  1  0.991100  0.272500  0.346200  1
  H  H189  1  0.023200  0.642600  0.721600  1
  H  H190  1  0.976800  0.357400  0.278400  1
  H  H191  1  0.001200  0.585500  0.696400  1
  H  H192  1  0.998800  0.414500  0.303600  1
  H  H193  1  0.855500  0.811400  0.994700  1
  H  H194  1  0.144500  0.188600  0.005300  1
  H  H195  1  0.970700  0.757500  0.035500  1
  H  H196  1  0.029300  0.242500  0.964500  1
  H  H197  1  0.060300  0.778400  0.077700  1
  H  H198  1  0.939700  0.221600  0.922300  1
  H  H199  1  0.083800  0.876100  0.109800  1
  H  H200  1  0.916200  0.123900  0.890200  1
  H  H201  1  0.061600  0.002600  0.121400  1
  H  H202  1  0.938400  0.997400  0.878600  1
  H  H203  1  0.992800  0.129400  0.112100  1
  H  H204  1  0.007200  0.870600  0.887900  1
  H  H205  1  0.874300  0.198100  0.073500  1
  H  H206  1  0.125700  0.801900  0.926500  1
  H  H207  1  0.779600  0.168900  0.032500  1
  H  H208  1  0.220400  0.831100  0.967500  1
  H  H209  1  0.740100  0.089200  0.006600  1
  H  H210  1  0.259900  0.910800  0.993400  1
  H  H211  1  0.774500  0.946100  0.986300  1
  H  H212  1  0.225500  0.053900  0.013700  1
  H  H213  1  0.291100  0.235600  0.720500  1
  H  H214  1  0.708900  0.764400  0.279500  1
  H  H215  1  0.201600  0.224500  0.681700  1
  H  H216  1  0.798400  0.775500  0.318300  1
  H  H217  1  0.162300  0.136900  0.643000  1
  H  H218  1  0.837700  0.863100  0.357000  1
  H  H219  1  0.174700  0.016000  0.631000  1
  H  H220  1  0.825300  0.984000  0.369000  1
  H  H221  1  0.260000  0.867000  0.634400  1
  H  H222  1  0.740000  0.133000  0.365600  1
  H  H223  1  0.372700  0.756100  0.654900  1
  H  H224  1  0.627300  0.243900  0.345100  1
  H  H225  1  0.465200  0.765800  0.694700  1
  H  H226  1  0.534800  0.234200  0.305300  1
  H  H227  1  0.504300  0.854000  0.731200  1
  H  H228  1  0.495700  0.146000  0.268800  1
  H  H229  1  0.488100  0.975200  0.746700  1
  H  H230  1  0.511900  0.024800  0.253300  1
  H  H231  1  0.401600  0.124000  0.744700  1
  H  H232  1  0.598400  0.876000  0.255300  1
  H  H233  1  0.143800  0.683200  0.374100  1
  H  H234  1  0.856200  0.316800  0.625900  1
  H  H235  1  0.097200  0.646900  0.357700  1
  H  H236  1  0.902800  0.353100  0.642300  1
  H  H237  1  0.215500  0.525800  0.342600  1
  H  H238  1  0.784500  0.474200  0.657400  1
  H  H239  1  0.197700  0.553200  0.402600  1
  H  H240  1  0.802300  0.446800  0.597400  1
  H  H241  1  0.299600  0.609300  0.367800  1
  H  H242  1  0.700400  0.390700  0.632200  1
  H  H243  1  0.348200  0.520300  0.346200  1
  H  H244  1  0.651800  0.479700  0.653800  1
  H  H245  1  0.346500  0.562200  0.262800  1
  H  H246  1  0.653500  0.437800  0.737200  1
  H  H247  1  0.347500  0.632700  0.280700  1
  H  H248  1  0.652500  0.367300  0.719300  1
  H  H249  1  0.743900  0.970300  0.967800  1
  H  H250  1  0.256100  0.029700  0.032200  1
  H  H251  1  0.838000  0.850100  0.992100  1
  H  H252  1  0.162000  0.149900  0.007900  1
  H  H253  1  0.954400  0.776100  0.033400  1
  H  H254  1  0.045600  0.223900  0.966600  1
  H  H255  1  0.047100  0.763800  0.075900  1
  H  H256  1  0.952900  0.236200  0.924100  1
  H  H257  1  0.105800  0.836900  0.118100  1
  H  H258  1  0.894200  0.163100  0.881900  1
  H  H259  1  0.099000  0.953800  0.137800  1
  H  H260  1  0.901000  0.046200  0.862200  1
  H  H261  1  0.005900  0.078700  0.115400  1
  H  H262  1  0.994100  0.921300  0.884600  1
  H  H263  1  0.890800  0.154000  0.071700  1
  H  H264  1  0.109200  0.846000  0.928300  1
  H  H265  1  0.795500  0.160900  0.028100  1
  H  H266  1  0.204500  0.839100  0.971900  1
  H  H267  1  0.736200  0.086300  0.993200  1
  H  H268  1  0.263800  0.913700  0.006800  1
  H  H269  1  0.904900  0.789600  0.017200  1
  H  H270  1  0.095100  0.210400  0.982800  1
  H  H271  1  0.817800  0.912900  0.998800  1
  H  H272  1  0.182200  0.087100  0.001200  1
  H  H273  1  0.768600  0.062400  0.997800  1
  H  H274  1  0.231400  0.937600  0.002200  1
  H  H275  1  0.769500  0.167900  0.025400  1
  H  H276  1  0.230500  0.832100  0.974600  1
  H  H277  1  0.850300  0.222800  0.062300  1
  H  H278  1  0.149700  0.777200  0.937700  1
  H  H279  1  0.953700  0.194000  0.107300  1
  H  H280  1  0.046300  0.806000  0.892700  1
  H  H281  1  0.042200  0.067100  0.127700  1
  H  H282  1  0.957800  0.932900  0.872300  1
  H  H283  1  0.086000  0.926700  0.125200  1
  H  H284  1  0.914000  0.073300  0.874800  1
  H  H285  1  0.089200  0.816500  0.094900  1
  H  H286  1  0.910800  0.183500  0.905100  1
  H  H287  1  0.013000  0.765700  0.059300  1
  H  H288  1  0.987000  0.234300  0.940700  1
  H  H289  1  0.192700  0.260000  0.683800  1
  H  H290  1  0.807300  0.740000  0.316200  1
  H  H291  1  0.153500  0.180800  0.653000  1
  H  H292  1  0.846500  0.819200  0.347000  1
  H  H293  1  0.175000  0.041200  0.639400  1
  H  H294  1  0.825000  0.958800  0.360600  1
  H  H295  1  0.252900  0.909800  0.641800  1
  H  H296  1  0.747100  0.090200  0.358200  1
  H  H297  1  0.377000  0.789200  0.667500  1
  H  H298  1  0.623000  0.210800  0.332500  1
  H  H299  1  0.494100  0.740300  0.703000  1
  H  H300  1  0.505900  0.259700  0.297000  1
  H  H301  1  0.527900  0.823800  0.737000  1
  H  H302  1  0.472100  0.176200  0.263000  1
  H  H303  1  0.501500  0.957300  0.752500  1
  H  H304  1  0.498500  0.042700  0.247500  1
  H  H305  1  0.430300  0.092000  0.744000  1
  H  H306  1  0.569700  0.908000  0.256000  1
  H  H307  1  0.306800  0.208200  0.722700  1
  H  H308  1  0.693200  0.791800  0.277300  1
  H  H309  1  0.254500  0.252000  0.709800  1
  H  H310  1  0.745500  0.748000  0.290200  1
  H  H311  1  0.368300  0.160100  0.737700  1
  H  H312  1  0.631700  0.839900  0.262300  1
  H  H313  1  0.468600  0.012500  0.744600  1
  H  H314  1  0.531400  0.987500  0.255400  1
  H  H315  1  0.500000  0.883900  0.739600  1
  H  H316  1  0.500000  0.116100  0.260400  1
  H  H317  1  0.474100  0.777500  0.702600  1
  H  H318  1  0.525900  0.222500  0.297400  1
  H  H319  1  0.401600  0.748600  0.657400  1
  H  H320  1  0.598400  0.251400  0.342600  1
  H  H321  1  0.278800  0.846100  0.636500  1
  H  H322  1  0.721200  0.153900  0.363500  1
  H  H323  1  0.190200  0.986000  0.628900  1
  H  H324  1  0.809800  0.014000  0.371100  1
  H  H325  1  0.153300  0.116900  0.636900  1
  H  H326  1  0.846700  0.883100  0.363100  1
  H  H327  1  0.178800  0.218500  0.668300  1
  H  H328  1  0.821200  0.781500  0.331700  1
  Pd  Pd329  1  0.662791  0.400157  0.190225  1
  Pd  Pd330  1  0.337209  0.599843  0.809775  1
  Pd  Pd331  1  0.631190  0.765733  0.050830  1
  Pd  Pd332  1  0.368810  0.234267  0.949170  1
  Pd  Pd333  1  0.195103  0.674561  0.275063  1
  Pd  Pd334  1  0.804897  0.325439  0.724937  1
  Pd  Pd335  1  0.318582  0.422201  0.589848  1
  Pd  Pd336  1  0.681418  0.577799  0.410152  1
  Pd  Pd337  1  0.193516  0.874039  0.458684  1
  Pd  Pd338  1  0.806484  0.125961  0.541316  1
  Pd  Pd339  1  0.818590  0.720360  0.688146  1
  Pd  Pd340  1  0.181410  0.279640  0.311854  1
  C  C341  1  0.760800  0.231200  0.210320  1
  C  C342  1  0.239200  0.768800  0.789680  1
  C  C343  1  0.788200  0.150500  0.209890  1
  C  C344  1  0.211800  0.849500  0.790110  1
  C  C345  1  0.681400  0.173000  0.167230  1
  C  C346  1  0.318600  0.827000  0.832770  1
  C  C347  1  0.657200  0.253100  0.168700  1
  C  C348  1  0.342800  0.746900  0.831300  1
  C  C349  1  0.748400  0.120200  0.188140  1
  C  C350  1  0.251600  0.879800  0.811860  1
  C  C351  1  0.632300  0.899000  0.095820  1
  C  C352  1  0.367700  0.101000  0.904180  1
  C  C353  1  0.662000  0.936600  0.120240  1
  C  C354  1  0.338000  0.063400  0.879760  1
  C  C355  1  0.730600  0.891900  0.140860  1
  C  C356  1  0.269400  0.108100  0.859140  1
  C  C357  1  0.766500  0.809300  0.137560  1
  C  C358  1  0.233500  0.190700  0.862440  1
  C  C359  1  0.733700  0.776200  0.112700  1
  C  C360  1  0.266300  0.223800  0.887300  1
  C  C361  1  0.037500  0.723800  0.244730  1
  C  C362  1  0.962500  0.276200  0.755270  1
  C  C363  1  0.969100  0.774100  0.224980  1
  C  C364  1  0.030900  0.225900  0.775020  1
  C  C365  1  0.942400  0.855800  0.225620  1
  C  C366  1  0.057600  0.144200  0.774380  1
  C  C367  1  0.984900  0.883600  0.246370  1
  C  C368  1  0.015100  0.116400  0.753630  1
  C  C369  1  0.053000  0.830000  0.265330  1
  C  C370  1  0.947000  0.170000  0.734670  1
  C  C371  1  0.778300  0.033000  0.186430  1
  C  C372  1  0.221700  0.967000  0.813570  1
  C  C373  1  0.769800  0.927700  0.164410  1
  C  C374  1  0.230200  0.072300  0.835590  1
  C  C375  1  0.870000  0.910100  0.203820  1
  C  C376  1  0.130000  0.089900  0.796180  1
  C  C377  1  0.423700  0.252800  0.601830  1
  C  C378  1  0.576300  0.747200  0.398170  1
  C  C379  1  0.451500  0.172300  0.598790  1
  C  C380  1  0.548500  0.827700  0.401210  1
  C  C381  1  0.410200  0.145600  0.575230  1
  C  C382  1  0.589800  0.854400  0.424770  1
  C  C383  1  0.343200  0.200800  0.555580  1
  C  C384  1  0.656800  0.799200  0.444420  1
  C  C385  1  0.318700  0.280100  0.559710  1
  C  C386  1  0.681300  0.719900  0.440290  1
  C  C387  1  0.260400  0.973500  0.481780  1
  C  C388  1  0.739600  0.026500  0.518220  1
  C  C389  1  0.305100  0.995300  0.504750  1
  C  C390  1  0.694900  0.004700  0.495250  1
  C  C391  1  0.374000  0.936800  0.521230  1
  C  C392  1  0.626000  0.063200  0.478770  1
  C  C393  1  0.395800  0.858100  0.514310  1
  C  C394  1  0.604200  0.141900  0.485690  1
  C  C395  1  0.348200  0.840100  0.490910  1
  C  C396  1  0.651800  0.159900  0.509090  1
  C  C397  1  0.701400  0.748900  0.620100  1
  C  C398  1  0.298600  0.251100  0.379900  1
  C  C399  1  0.634800  0.796400  0.598450  1
  C  C400  1  0.365200  0.203600  0.401550  1
  C  C401  1  0.605300  0.877500  0.599190  1
  C  C402  1  0.394700  0.122500  0.400810  1
  C  C403  1  0.647100  0.908100  0.618930  1
  C  C404  1  0.352900  0.091900  0.381070  1
  C  C405  1  0.714200  0.857200  0.638810  1
  C  C406  1  0.285800  0.142800  0.361190  1
  C  C407  1  0.438100  0.060000  0.570760  1
  C  C408  1  0.561900  0.940000  0.429240  1
  C  C409  1  0.422200  0.960500  0.545590  1
  C  C410  1  0.577800  0.039500  0.454410  1
  C  C411  1  0.529400  0.933500  0.580950  1
  C  C412  1  0.470600  0.066500  0.419050  1
  C  C413  1  0.706000  0.418200  0.069690  1
  C  C414  1  0.294000  0.581800  0.930310  1
  C  C415  1  0.757100  0.418500  0.016520  1
  C  C416  1  0.242900  0.581500  0.983480  1
  C  C417  1  0.844400  0.397500  0.005820  1
  C  C418  1  0.155600  0.602500  0.994180  1
  C  C419  1  0.877800  0.377200  0.049980  1
  C  C420  1  0.122200  0.622800  0.950020  1
  C  C421  1  0.823700  0.377300  0.101790  1
  C  C422  1  0.176300  0.622700  0.898210  1
  C  C423  1  0.252600  0.399100  0.707250  1
  C  C424  1  0.747400  0.600900  0.292750  1
  C  C425  1  0.197700  0.392000  0.756940  1
  C  C426  1  0.802300  0.608000  0.243060  1
  C  C427  1  0.114300  0.404600  0.760550  1
  C  C428  1  0.885700  0.595400  0.239450  1
  C  C429  1  0.090300  0.423500  0.712950  1
  C  C430  1  0.909700  0.576500  0.287050  1
  C  C431  1  0.148900  0.430400  0.664650  1
  C  C432  1  0.851100  0.569600  0.335350  1
  C  C433  1  0.900000  0.397400  0.951570  1
  C  C434  1  0.100000  0.602600  0.048430  1
  C  C435  1  0.949700  0.395600  0.906980  1
  C  C436  1  0.050300  0.604400  0.093020  1
  C  C437  1  0.055900  0.398100  0.812300  1
  C  C438  1  0.944100  0.601900  0.187700  1
  C  C439  1  0.006400  0.395400  0.856080  1
  C  C440  1  0.993600  0.604600  0.143920  1
  C  C441  1  0.249000  0.760000  0.174000  1
  C  C442  1  0.751000  0.240000  0.826000  1
  C  C443  1  0.279300  0.773800  0.119100  1
  C  C444  1  0.720700  0.226200  0.880900  1
  C  C445  1  0.311800  0.712400  0.083030  1
  C  C446  1  0.688200  0.287600  0.916970  1
  C  C447  1  0.308600  0.641300  0.104300  1
  C  C448  1  0.691400  0.358700  0.895700  1
  C  C449  1  0.276700  0.632000  0.159860  1
  C  C450  1  0.723300  0.368000  0.840140  1
  C  C451  1  0.676200  0.680500  0.758200  1
  C  C452  1  0.323800  0.319500  0.241800  1
  C  C453  1  0.606700  0.682700  0.802300  1
  C  C454  1  0.393300  0.317300  0.197700  1
  C  C455  1  0.573600  0.737900  0.842730  1
  C  C456  1  0.426400  0.262100  0.157270  1
  C  C457  1  0.611700  0.790200  0.836200  1
  C  C458  1  0.388300  0.209800  0.163800  1
  C  C459  1  0.680700  0.784300  0.791400  1
  C  C460  1  0.319300  0.215700  0.208600  1
  C  C461  1  0.352700  0.722300  0.026500  1
  C  C462  1  0.647300  0.277700  0.973500  1
  C  C463  1  0.395600  0.729900  0.981400  1
  C  C464  1  0.604400  0.270100  0.018600  1
  C  C465  1  0.505000  0.739200  0.890500  1
  C  C466  1  0.495000  0.260800  0.109500  1
  C  C467  1  0.451100  0.736300  0.931890  1
  C  C468  1  0.548900  0.263700  0.068110  1
  C  C469  1  0.798500  0.707700  0.968760  1
  C  C470  1  0.201500  0.292300  0.031240  1
  C  C471  1  0.866100  0.706800  0.923900  1
  C  C472  1  0.133900  0.293200  0.076100  1
  C  C473  1  0.855300  0.774000  0.890840  1
  C  C474  1  0.144700  0.226000  0.109160  1
  C  C475  1  0.775400  0.839500  0.904000  1
  C  C476  1  0.224600  0.160500  0.096000  1
  C  C477  1  0.710400  0.836200  0.949800  1
  C  C478  1  0.289600  0.163800  0.050200  1
  C  C479  1  0.099900  0.916000  0.573970  1
  C  C480  1  0.900100  0.084000  0.426030  1
  C  C481  1  0.072300  0.905100  0.629420  1
  C  C482  1  0.927700  0.094900  0.370580  1
  C  C483  1  0.099300  0.828200  0.651480  1
  C  C484  1  0.900700  0.171800  0.348520  1
  C  C485  1  0.155300  0.765700  0.615600  1
  C  C486  1  0.844700  0.234300  0.384400  1
  C  C487  1  0.179100  0.781500  0.560810  1
  C  C488  1  0.820900  0.218500  0.439190  1
  C  C489  1  0.923300  0.777600  0.843700  1
  C  C490  1  0.076700  0.222400  0.156300  1
  C  C491  1  0.974700  0.787200  0.802800  1
  C  C492  1  0.025300  0.212800  0.197200  1
  C  C493  1  0.064500  0.813100  0.707930  1
  C  C494  1  0.935500  0.186900  0.292070  1
  C  C495  1  0.026400  0.800500  0.753300  1
  C  C496  1  0.973600  0.199500  0.246700  1
  C  C497  1  0.543000  0.493700  0.285370  1
  C  C498  1  0.457000  0.506300  0.714630  1
  C  C499  1  0.601000  0.534100  0.255350  1
  C  C500  1  0.399000  0.465900  0.744650  1
  C  C501  1  0.494800  0.713500  0.106100  1
  C  C502  1  0.505200  0.286500  0.893900  1
  C  C503  1  0.552500  0.661900  0.057900  1
  C  C504  1  0.447500  0.338100  0.942100  1
  C  C505  1  0.356000  0.557300  0.555800  1
  C  C506  1  0.644000  0.442700  0.444200  1
  C  C507  1  0.391600  0.510300  0.504280  1
  C  C508  1  0.608400  0.489700  0.495720  1
  C  C509  1  0.221500  0.610000  0.380100  1
  C  C510  1  0.778500  0.390000  0.619900  1
  C  C511  1  0.299500  0.558500  0.338600  1
  C  C512  1  0.700500  0.441500  0.661400  1
  C  C513  1  0.197100  0.856500  0.351470  1
  C  C514  1  0.802900  0.143500  0.648530  1
  C  C515  1  0.104000  0.878300  0.384800  1
  C  C516  1  0.896000  0.121700  0.615200  1
  C  C517  1  0.001100  0.680400  0.649800  1
  C  C518  1  0.998900  0.319600  0.350200  1
  C  C519  1  0.985200  0.641600  0.702100  1
  C  C520  1  0.014800  0.358400  0.297900  1
  C  C521  1  0.869000  0.846600  0.008000  1
  C  C522  1  0.131000  0.153400  0.992000  1
  C  C523  1  0.938300  0.812900  0.031900  1
  C  C524  1  0.061700  0.187100  0.968100  1
  C  C525  1  0.953900  0.870200  0.049600  1
  C  C526  1  0.046100  0.129800  0.950400  1
  C  C527  1  0.027100  0.833700  0.074400  1
  C  C528  1  0.972900  0.166300  0.925600  1
  C  C529  1  0.040000  0.893900  0.092300  1
  C  C530  1  0.960000  0.106100  0.907700  1
  C  C531  1  0.000200  0.966900  0.087500  1
  C  C532  1  0.999800  0.033100  0.912500  1
  C  C533  1  0.016800  0.021400  0.104600  1
  C  C534  1  0.983200  0.978600  0.895400  1
  C  C535  1  0.974100  0.098000  0.099200  1
  C  C536  1  0.025900  0.902000  0.900800  1
  C  C537  1  0.902400  0.142100  0.076400  1
  C  C538  1  0.097600  0.857900  0.923600  1
  C  C539  1  0.879800  0.084900  0.058100  1
  C  C540  1  0.120200  0.915100  0.941900  1
  C  C541  1  0.811200  0.113300  0.035900  1
  C  C542  1  0.188800  0.886700  0.964100  1
  C  C543  1  0.789200  0.066300  0.019700  1
  C  C544  1  0.210800  0.933700  0.980300  1
  C  C545  1  0.834500  0.982100  0.020600  1
  C  C546  1  0.165500  0.017900  0.979400  1
  C  C547  1  0.819500  0.928400  0.002800  1
  C  C548  1  0.180500  0.071600  0.997200  1
  C  C549  1  0.907100  0.948500  0.045200  1
  C  C550  1  0.092900  0.051500  0.954800  1
  C  C551  1  0.926200  0.003600  0.062000  1
  C  C552  1  0.073800  0.996400  0.938000  1
  C  C553  1  0.299100  0.184500  0.713700  1
  C  C554  1  0.700900  0.815500  0.286300  1
  C  C555  1  0.246400  0.178200  0.690700  1
  C  C556  1  0.753600  0.821800  0.309300  1
  C  C557  1  0.257100  0.103100  0.679800  1
  C  C558  1  0.742900  0.896900  0.320200  1
  C  C559  1  0.205200  0.091600  0.654600  1
  C  C560  1  0.794800  0.908400  0.345400  1
  C  C561  1  0.213500  0.020100  0.646200  1
  C  C562  1  0.786500  0.979900  0.353800  1
  C  C563  1  0.281900  0.948300  0.660200  1
  C  C564  1  0.718100  0.051700  0.339800  1
  C  C565  1  0.296700  0.873500  0.650200  1
  C  C566  1  0.703300  0.126500  0.349800  1
  C  C567  1  0.364300  0.806800  0.662900  1
  C  C568  1  0.635700  0.193200  0.337100  1
  C  C569  1  0.419300  0.811700  0.686300  1
  C  C570  1  0.580700  0.188300  0.313700  1
  C  C571  1  0.404100  0.889500  0.697500  1
  C  C572  1  0.595900  0.110500  0.302500  1
  C  C573  1  0.459400  0.899600  0.721800  1
  C  C574  1  0.540600  0.100400  0.278200  1
  C  C575  1  0.449500  0.971000  0.731400  1
  C  C576  1  0.550500  0.029000  0.268600  1
  C  C577  1  0.380000  0.042300  0.718500  1
  C  C578  1  0.620000  0.957700  0.281500  1
  C  C579  1  0.365800  0.117400  0.728100  1
  C  C580  1  0.634200  0.882600  0.271900  1
  C  C581  1  0.324500  0.034100  0.694500  1
  C  C582  1  0.675500  0.965900  0.305500  1
  C  C583  1  0.337600  0.957200  0.684100  1
  C  C584  1  0.662400  0.042800  0.315900  1
  C  C585  1  0.213300  0.566600  0.363200  1
  C  C586  1  0.786700  0.433400  0.636800  1
  C  C587  1  0.300700  0.573000  0.343900  1
  C  C588  1  0.699300  0.427000  0.656100  1
  C  C589  1  0.781400  0.967500  0.987000  1
  C  C590  1  0.218600  0.032500  0.013000  1
  C  C591  1  0.836800  0.897700  0.000500  1
  C  C592  1  0.163200  0.102300  0.999500  1
  C  C593  1  0.893200  0.895400  0.027000  1
  C  C594  1  0.106800  0.104600  0.973000  1
  C  C595  1  0.953600  0.823300  0.042200  1
  C  C596  1  0.046400  0.176700  0.957800  1
  C  C597  1  0.008800  0.815100  0.067200  1
  C  C598  1  0.991200  0.184900  0.932800  1
  C  C599  1  0.011300  0.884700  0.081500  1
  C  C600  1  0.988700  0.115300  0.918500  1
  C  C601  1  0.065100  0.885400  0.107700  1
  C  C602  1  0.934900  0.114600  0.892300  1
  C  C603  1  0.060500  0.957100  0.119200  1
  C  C604  1  0.939500  0.042900  0.880800  1
  C  C605  1  0.006400  0.031800  0.106500  1
  C  C606  1  0.993600  0.968200  0.893500  1
  C  C607  1  0.950900  0.031500  0.078500  1
  C  C608  1  0.049100  0.968500  0.921500  1
  C  C609  1  0.891100  0.106700  0.063700  1
  C  C610  1  0.108900  0.893300  0.936300  1
  C  C611  1  0.834400  0.110900  0.038200  1
  C  C612  1  0.165600  0.889100  0.961800  1
  C  C613  1  0.833900  0.039300  0.026700  1
  C  C614  1  0.166100  0.960700  0.973300  1
  C  C615  1  0.778800  0.037200  0.001400  1
  C  C616  1  0.221200  0.962800  0.998600  1
  C  C617  1  0.895000  0.964600  0.039800  1
  C  C618  1  0.105000  0.035400  0.960200  1
  C  C619  1  0.951900  0.961300  0.067200  1
  C  C620  1  0.048100  0.038700  0.932800  1
  C  C621  1  0.910700  0.832900  0.026700  1
  C  C622  1  0.089300  0.167100  0.973300  1
  C  C623  1  0.859200  0.906200  0.016100  1
  C  C624  1  0.140800  0.093800  0.983900  1
  C  C625  1  0.861000  0.973900  0.028200  1
  C  C626  1  0.139000  0.026100  0.971800  1
  C  C627  1  0.808500  0.053500  0.016900  1
  C  C628  1  0.191500  0.946500  0.983100  1
  C  C629  1  0.811000  0.116400  0.031000  1
  C  C630  1  0.189000  0.883600  0.969000  1
  C  C631  1  0.876000  0.107500  0.055400  1
  C  C632  1  0.124000  0.892500  0.944600  1
  C  C633  1  0.885200  0.169500  0.070100  1
  C  C634  1  0.114800  0.830500  0.929900  1
  C  C635  1  0.948200  0.151200  0.097100  1
  C  C636  1  0.051800  0.848800  0.902900  1
  C  C637  1  0.001200  0.076500  0.109300  1
  C  C638  1  0.998800  0.923500  0.890700  1
  C  C639  1  0.992100  0.013200  0.093000  1
  C  C640  1  0.007900  0.986800  0.907000  1
  C  C641  1  0.047500  0.933800  0.105400  1
  C  C642  1  0.952500  0.066200  0.894600  1
  C  C643  1  0.047500  0.868300  0.090200  1
  C  C644  1  0.952500  0.131700  0.909800  1
  C  C645  1  0.979900  0.882200  0.066500  1
  C  C646  1  0.020100  0.117800  0.933500  1
  C  C647  1  0.975000  0.818200  0.052300  1
  C  C648  1  0.025000  0.181800  0.947700  1
  C  C649  1  0.925000  0.960600  0.054300  1
  C  C650  1  0.075000  0.039400  0.945700  1
  C  C651  1  0.928800  0.028000  0.068800  1
  C  C652  1  0.071200  0.972000  0.931200  1
  C  C653  1  0.224000  0.204200  0.686200  1
  C  C654  1  0.776000  0.795800  0.313800  1
  C  C655  1  0.201000  0.157500  0.667700  1
  C  C656  1  0.799000  0.842500  0.332300  1
  C  C657  1  0.245100  0.075500  0.669700  1
  C  C658  1  0.754900  0.924500  0.330300  1
  C  C659  1  0.223500  0.021000  0.652900  1
  C  C660  1  0.776500  0.979000  0.347100  1
  C  C661  1  0.268700  0.942800  0.655400  1
  C  C662  1  0.731300  0.057200  0.344600  1
  C  C663  1  0.340900  0.905900  0.678000  1
  C  C664  1  0.659100  0.094100  0.322000  1
  C  C665  1  0.390500  0.824800  0.680400  1
  C  C666  1  0.609500  0.175200  0.319600  1
  C  C667  1  0.460500  0.795800  0.701900  1
  C  C668  1  0.539500  0.204200  0.298100  1
  C  C669  1  0.481800  0.844500  0.721200  1
  C  C670  1  0.518200  0.155500  0.278800  1
  C  C671  1  0.433100  0.926700  0.716900  1
  C  C672  1  0.566900  0.073300  0.283100  1
  C  C673  1  0.455600  0.979000  0.736500  1
  C  C674  1  0.544400  0.021000  0.263500  1
  C  C675  1  0.412600  0.058600  0.732500  1
  C  C676  1  0.587400  0.941400  0.267500  1
  C  C677  1  0.339600  0.093100  0.710700  1
  C  C678  1  0.660400  0.906900  0.289300  1
  C  C679  1  0.292800  0.173800  0.708900  1
  C  C680  1  0.707200  0.826200  0.291100  1
  C  C681  1  0.316000  0.041900  0.692000  1
  C  C682  1  0.684000  0.958100  0.308000  1
  C  C683  1  0.363100  0.958700  0.696000  1
  C  C684  1  0.636900  0.041300  0.304000  1
  C  C685  1  0.271500  0.197700  0.704900  1
  C  C686  1  0.728500  0.802300  0.295100  1
  C  C687  1  0.338300  0.144100  0.721700  1
  C  C688  1  0.661700  0.855900  0.278300  1
  C  C689  1  0.363200  0.063100  0.715100  1
  C  C690  1  0.636800  0.936900  0.284900  1
  C  C691  1  0.434300  0.999500  0.730400  1
  C  C692  1  0.565700  0.000500  0.269600  1
  C  C693  1  0.455100  0.922800  0.725800  1
  C  C694  1  0.544900  0.077200  0.274200  1
  C  C695  1  0.411100  0.897100  0.700400  1
  C  C696  1  0.588900  0.102900  0.299600  1
  C  C697  1  0.428800  0.820000  0.691000  1
  C  C698  1  0.571200  0.180000  0.309000  1
  C  C699  1  0.383000  0.802200  0.665400  1
  C  C700  1  0.617000  0.197800  0.334600  1
  C  C701  1  0.312800  0.858600  0.651300  1
  C  C702  1  0.687200  0.141400  0.348700  1
  C  C703  1  0.294100  0.938000  0.660400  1
  C  C704  1  0.705900  0.062000  0.339600  1
  C  C705  1  0.222600  0.000200  0.644000  1
  C  C706  1  0.777400  0.999800  0.356000  1
  C  C707  1  0.199800  0.077500  0.649200  1
  C  C708  1  0.800200  0.922500  0.350800  1
  C  C709  1  0.246700  0.099600  0.673600  1
  C  C710  1  0.753300  0.900400  0.326400  1
  C  C711  1  0.225000  0.177900  0.680300  1
  C  C712  1  0.775000  0.822100  0.319700  1
  C  C713  1  0.317000  0.040000  0.691000  1
  C  C714  1  0.683000  0.960000  0.309000  1
  C  C715  1  0.340000  0.958900  0.684000  1
  C  C716  1  0.660000  0.041100  0.316000  1
  N  N717  1  0.696610  0.281730  0.189670  1
  N  N718  1  0.303390  0.718270  0.810330  1
  N  N719  1  0.668500  0.820010  0.091360  1
  N  N720  1  0.331500  0.179990  0.908640  1
  N  N721  1  0.079200  0.751520  0.263980  1
  N  N722  1  0.920800  0.248480  0.736020  1
  N  N723  1  0.835460  0.876900  0.182990  1
  N  N724  1  0.164540  0.123100  0.817010  1
  N  N725  1  0.844490  0.987940  0.206740  1
  N  N726  1  0.155510  0.012060  0.793260  1
  N  N727  1  0.737760  0.006800  0.165190  1
  N  N728  1  0.262240  0.993200  0.834810  1
  N  N729  1  0.358900  0.305360  0.582460  1
  N  N730  1  0.641100  0.694640  0.417540  1
  N  N731  1  0.281200  0.897330  0.475210  1
  N  N732  1  0.718800  0.102670  0.524790  1
  N  N733  1  0.739800  0.778600  0.640960  1
  N  N734  1  0.260200  0.221400  0.359040  1
  N  N735  1  0.489800  0.904800  0.560660  1
  N  N736  1  0.510200  0.095200  0.439340  1
  N  N737  1  0.505900  0.010290  0.587270  1
  N  N738  1  0.494100  0.989710  0.412730  1
  N  N739  1  0.393930  0.038520  0.549310  1
  N  N740  1  0.606070  0.961480  0.450690  1
  N  N741  1  0.738500  0.397590  0.111630  1
  N  N742  1  0.261500  0.602410  0.888370  1
  N  N743  1  0.229300  0.418300  0.661420  1
  N  N744  1  0.770700  0.581700  0.338580  1
  N  N745  1  0.247600  0.690500  0.194370  1
  N  N746  1  0.752400  0.309500  0.805630  1
  N  N747  1  0.713400  0.730300  0.752750  1
  N  N748  1  0.286600  0.269700  0.247250  1
  N  N749  1  0.722500  0.771100  0.981710  1
  N  N750  1  0.277500  0.228900  0.018290  1
  N  N751  1  0.151700  0.855070  0.539780  1
  N  N752  1  0.848300  0.144930  0.460220  1
  N  N753  1  0.589800  0.408820  0.269930  1
  N  N754  1  0.410200  0.591180  0.730070  1
  N  N755  1  0.627300  0.517460  0.196350  1
  N  N756  1  0.372700  0.482540  0.803650  1
  N  N757  1  0.545300  0.748200  0.119330  1
  N  N758  1  0.454700  0.251800  0.880670  1
  N  N759  1  0.588300  0.710600  0.014920  1
  N  N760  1  0.411700  0.289400  0.985080  1
  N  N761  1  0.231000  0.894800  0.377270  1
  N  N762  1  0.769000  0.105200  0.622730  1
  N  N763  1  0.102000  0.855200  0.442610  1
  N  N764  1  0.898000  0.144800  0.557390  1
  N  N765  1  0.928700  0.705000  0.626600  1
  N  N766  1  0.071300  0.295000  0.373400  1
  N  N767  1  0.896400  0.676900  0.736200  1
  N  N768  1  0.103600  0.323100  0.263800  1
  N  N769  1  0.282100  0.540400  0.591320  1
  N  N770  1  0.717900  0.459600  0.408680  1
  N  N771  1  0.411800  0.426360  0.521190  1
  N  N772  1  0.588200  0.573640  0.478810  1
  N  N773  1  0.147100  0.650900  0.357400  1
  N  N774  1  0.852900  0.349100  0.642600  1
  N  N775  1  0.307000  0.595000  0.283400  1
  N  N776  1  0.693000  0.405000  0.716600  1
  N  N777  1  0.072300  0.096800  0.427550  1
  N  N778  1  0.927700  0.903200  0.572450  1
  N  N779  1  0.572700  0.750800  0.236180  1
  N  N780  1  0.427300  0.249200  0.763820  1
  N  N781  1  0.448200  0.914900  0.992080  1
  N  N782  1  0.551800  0.085100  0.007920  1
  N  N783  1  0.202400  0.620800  0.724400  1
  N  N784  1  0.797600  0.379200  0.275600  1
  N  N785  1  0.547300  0.632900  0.608080  1
  N  N786  1  0.452700  0.367100  0.391920  1
  N  N787  1  0.136800  0.655200  0.503300  1
  N  N788  1  0.863200  0.344800  0.496700  1
  N  N789  1  0.472500  0.478700  0.170620  1
  N  N790  1  0.527500  0.521300  0.829380  1
  N  N791  1  0.801600  0.563400  0.100030  1
  N  N792  1  0.198400  0.436600  0.899970  1
  N  N793  1  0.142500  0.987600  0.220870  1
  N  N794  1  0.857500  0.012400  0.779130  1
  N  N795  1  0.430600  0.657800  0.406500  1
  N  N796  1  0.569400  0.342200  0.593500  1
  N  N797  1  0.086100  0.161200  0.556700  1
  N  N798  1  0.913900  0.838800  0.443300  1
  N  N799  1  0.686900  0.568000  0.918500  1
  N  N800  1  0.313100  0.432000  0.081500  1
  N  N801  1  0.826200  0.501500  0.757500  1
  N  N802  1  0.173800  0.498500  0.242500  1
  N  N803  1  0.925600  0.537300  0.580000  1
  N  N804  1  0.074400  0.462700  0.420000  1
  N  N805  1  0.150400  0.646800  0.351500  1
  N  N806  1  0.849600  0.353200  0.648500  1
  N  N807  1  0.316000  0.604000  0.286700  1
  N  N808  1  0.684000  0.396000  0.713300  1
  O  O809  1  0.058060  0.048110  0.463200  1
  O  O810  1  0.941940  0.951890  0.536800  1
  O  O811  1  0.136100  0.072940  0.385140  1
  O  O812  1  0.863900  0.927060  0.614860  1
  O  O813  1  0.023500  0.168540  0.433510  1
  O  O814  1  0.976500  0.831460  0.566490  1
  O  O815  1  0.554800  0.743600  0.286700  1
  O  O816  1  0.445200  0.256400  0.713300  1
  O  O817  1  0.626250  0.692390  0.206590  1
  O  O818  1  0.373750  0.307610  0.793410  1
  O  O819  1  0.537800  0.817370  0.214780  1
  O  O820  1  0.462200  0.182630  0.785220  1
  O  O821  1  0.424100  0.866800  0.023680  1
  O  O822  1  0.575900  0.133200  0.976320  1
  O  O823  1  0.511200  0.890200  0.951190  1
  O  O824  1  0.488800  0.109800  0.048810  1
  O  O825  1  0.408400  0.985600  0.002900  1
  O  O826  1  0.591600  0.014400  0.997100  1
  O  O827  1  0.176300  0.584200  0.704980  1
  O  O828  1  0.823700  0.415800  0.295020  1
  O  O829  1  0.258800  0.642000  0.693160  1
  O  O830  1  0.741200  0.358000  0.306840  1
  O  O831  1  0.174100  0.635900  0.773680  1
  O  O832  1  0.825900  0.364100  0.226320  1
  O  O833  1  0.559900  0.630600  0.651940  1
  O  O834  1  0.440100  0.369400  0.348060  1
  O  O835  1  0.487000  0.621300  0.605710  1
  O  O836  1  0.513000  0.378700  0.394290  1
  O  O837  1  0.596600  0.649000  0.564540  1
  O  O838  1  0.403400  0.351000  0.435460  1
  O  O839  1  0.135900  0.603200  0.538800  1
  O  O840  1  0.864100  0.396800  0.461200  1
  O  O841  1  0.079400  0.695300  0.480000  1
  O  O842  1  0.920600  0.304700  0.520000  1
  O  O843  1  0.204100  0.668400  0.487500  1
  O  O844  1  0.795900  0.331600  0.512500  1
  O  O845  1  0.474800  0.544820  0.160750  1
  O  O846  1  0.525200  0.455180  0.839250  1
  O  O847  1  0.433200  0.461900  0.216490  1
  O  O848  1  0.566800  0.538100  0.783510  1
  O  O849  1  0.512200  0.427630  0.134400  1
  O  O850  1  0.487800  0.572370  0.865600  1
  O  O851  1  0.792700  0.530800  0.145380  1
  O  O852  1  0.207300  0.469200  0.854620  1
  O  O853  1  0.740000  0.593100  0.081320  1
  O  O854  1  0.260000  0.406900  0.918680  1
  O  O855  1  0.870700  0.567500  0.075700  1
  O  O856  1  0.129300  0.432500  0.924300  1
  O  O857  1  0.097300  0.992100  0.268080  1
  O  O858  1  0.902700  0.007900  0.731920  1
  O  O859  1  0.152600  0.937400  0.190800  1
  O  O860  1  0.847400  0.062600  0.809200  1
  O  O861  1  0.174900  0.035000  0.199780  1
  O  O862  1  0.825100  0.965000  0.800220  1
  O  O863  1  0.376000  0.698200  0.383400  1
  O  O864  1  0.624000  0.301800  0.616600  1
  O  O865  1  0.502700  0.610600  0.379970  1
  O  O866  1  0.497300  0.389400  0.620030  1
  O  O867  1  0.418500  0.663470  0.456200  1
  O  O868  1  0.581500  0.336530  0.543800  1
  O  O869  1  0.145800  0.174300  0.521600  1
  O  O870  1  0.854200  0.825700  0.478400  1
  O  O871  1  0.023500  0.215800  0.586800  1
  O  O872  1  0.976500  0.784200  0.413200  1
  O  O873  1  0.087800  0.097300  0.563300  1
  O  O874  1  0.912200  0.902700  0.436700  1
  O  O875  1  0.719700  0.518000  0.885700  1
  O  O876  1  0.280300  0.482000  0.114300  1
  O  O877  1  0.718900  0.614300  0.918100  1
  O  O878  1  0.281100  0.385700  0.081900  1
  O  O879  1  0.628400  0.564200  0.960100  1
  O  O880  1  0.371600  0.435800  0.039900  1
  O  O881  1  0.869800  0.527100  0.719700  1
  O  O882  1  0.130200  0.472900  0.280300  1
  O  O883  1  0.766200  0.493100  0.753400  1
  O  O884  1  0.233800  0.506900  0.246600  1
  O  O885  1  0.847700  0.478000  0.799300  1
  O  O886  1  0.152300  0.522000  0.200700  1
  O  O887  1  0.984300  0.525000  0.598700  1
  O  O888  1  0.015700  0.475000  0.401300  1
  O  O889  1  0.879100  0.605000  0.565900  1
  O  O890  1  0.120900  0.395000  0.434100  1
  O  O891  1  0.925600  0.487200  0.552300  1
  O  O892  1  0.074400  0.512800  0.447700  1
  O  O893  1  0.180200  0.121200  0.272710  1
  O  O894  1  0.819800  0.878800  0.727290  1
  O  O895  1  0.413100  0.025500  0.135660  1
  O  O896  1  0.586900  0.974500  0.864340  1
  O  O897  1  0.407400  0.692700  0.267820  1
  O  O898  1  0.592600  0.307300  0.732180  1
  O  O899  1  0.123600  0.414400  0.167390  1
  O  O900  1  0.876400  0.585600  0.832610  1
  O  O901  1  0.022500  0.352300  0.630400  1
  O  O902  1  0.977500  0.647700  0.369600  1
  O  O903  1  0.852300  0.696900  0.466500  1
  O  O904  1  0.147700  0.303100  0.533500  1
  O  O905  1  0.405000  0.887700  0.328830  1
  O  O906  1  0.595000  0.112300  0.671170  1
  O  O907  1  0.961400  0.426300  0.161340  1
  O  O908  1  0.038600  0.573700  0.838660  1
  O  O909  1  0.334000  0.932700  0.125410  1
  O  O910  1  0.666000  0.067300  0.874590  1
  O  O911  1  0.354900  0.845800  0.221800  1
  O  O912  1  0.645100  0.154200  0.778200  1
  O  O913  1  0.510900  0.511200  0.964400  1
  O  O914  1  0.489100  0.488800  0.035600  1
  O  O915  1  0.356800  0.019900  0.255200  1
  O  O916  1  0.643200  0.980100  0.744800  1
  O  O917  1  0.229400  0.440900  0.487800  1
  O  O918  1  0.770600  0.559100  0.512200  1
  O  O919  1  0.977400  0.554500  0.976800  1
  O  O920  1  0.022600  0.445500  0.023200  1
  O  O921  1  0.924900  0.684200  0.518900  1
  O  O922  1  0.075100  0.315800  0.481100  1
  O  O923  1  0.209000  0.693700  0.435700  1
  O  O924  1  0.791000  0.306300  0.564300  1
  O  O925  1  0.181000  0.585000  0.519800  1
  O  O926  1  0.819000  0.415000  0.480200  1
  O  O927  1  0.021300  0.652000  0.502100  1
  O  O928  1  0.978700  0.348000  0.497900  1
  O  O929  1  0.714100  0.617200  0.921200  1
  O  O930  1  0.285900  0.382800  0.078800  1
  O  O931  1  0.789700  0.594000  0.933100  1
  O  O932  1  0.210300  0.406000  0.066900  1
  O  O933  1  0.582700  0.540100  0.945000  1
  O  O934  1  0.417300  0.459900  0.055000  1
  O  O935  1  0.855000  0.474400  0.761300  1
  O  O936  1  0.145000  0.525600  0.238700  1
  O  O937  1  0.875800  0.537900  0.647900  1
  O  O938  1  0.124200  0.462100  0.352100  1
  O  O939  1  0.953200  0.545300  0.966400  1
  O  O940  1  0.046800  0.454700  0.033600  1
  O  O941  1  0.365400  0.999300  0.244900  1
  O  O942  1  0.634600  0.000700  0.755100  1
  O  O943  1  0.226600  0.417000  0.454600  1
  O  O944  1  0.773400  0.583000  0.545400  1
