
#######################################################################
#
#                 Cambridge Crystallographic Data Centre
#                                CCDC 
#
#######################################################################
#
# If this CIF has been generated from an entry in the Cambridge 
# Structural Database, then it will include bibliographic, chemical, 
# crystal, experimental, refinement or atomic coordinate data resulting 
# from the CCDC's data processing and validation procedures.
#
#######################################################################

data_BOBROA
_chemical_formula_moiety         
'C90 H96 N30 Pd6 12+,2(C16 H10),12(N1 O3 1-),17.25(H2 O1)'
_chemical_name_systematic        
'bis(\m~3~-2,4,6-tris(4-Pyridyl)-1,3,5-triazine)-tris(\m~2~-1,4-bis(4-pyridyl)buta-1,3-diyne)-hexakis(ethylenediamine)-hexa-palladium bis(pyrene) clathrate dodecanitrate hydrate'
_symmetry_cell_setting           triclinic
_symmetry_space_group_name_H-M   'P -1'
_symmetry_Int_Tables_number      2
_space_group_name_Hall           '-P 1'
loop_
_symmetry_equiv_pos_site_id
_symmetry_equiv_pos_as_xyz
1 x,y,z
2 -x,-y,-z
_cell_length_a                   18.0961(19)
_cell_length_b                   18.915(2)
_cell_length_c                   26.033(3)
_cell_angle_alpha                80.3490(10)
_cell_angle_beta                 70.2760(10)
_cell_angle_gamma                63.3170(10)
_cell_volume                     7493.32
_exptl_crystal_colour            orange
_exptl_crystal_description       plate
_cell_formula_units_Z            2
loop_
_atom_site_label
_atom_site_type_symbol
_atom_site_fract_x
_atom_site_fract_y
_atom_site_fract_z
Pd1 Pd -0.337209(17) 1.400157(15) 1.190225(11)
Pd2 Pd -0.36881(2) 0.765733(17) 1.050830(12)
Pd3 Pd 0.195103(19) 0.674561(17) 1.275063(13)
Pd4 Pd 0.318582(19) 1.422201(16) 0.589848(12)
Pd5 Pd 0.193516(19) 0.874039(17) 0.458684(12)
Pd6 Pd 0.81859(2) 0.72036(2) 0.688146(17)
N1 N -0.30339(19) 1.28173(17) 1.18967(12)
N2 N -0.3315(2) 0.82001(18) 1.09136(12)
N3 N 0.0792(2) 0.75152(18) 1.26398(13)
N4 N -0.16454(19) 0.87690(17) 1.18299(12)
N5 N -0.15551(19) 0.98794(17) 1.20674(12)
N6 N -0.26224(19) 1.00680(17) 1.16519(12)
C1 C -0.2392(2) 1.2312(2) 1.21032(15)
C2 C -0.2118(2) 1.1505(2) 1.20989(14)
C3 C -0.3186(2) 1.1730(2) 1.16723(14)
C4 C -0.3428(2) 1.2531(2) 1.16870(15)
C5 C -0.2516(2) 1.1202(2) 1.18814(13)
C6 C -0.3677(2) 0.8990(2) 1.09582(16)
C7 C -0.3380(2) 0.9366(2) 1.12024(16)
C8 C -0.2694(2) 0.8919(2) 1.14086(15)
C9 C -0.2335(3) 0.8093(2) 1.13756(16)
C10 C -0.2663(3) 0.7762(2) 1.11270(16)
C11 C 0.0375(2) 0.7238(2) 1.24473(17)
C12 C -0.0309(2) 0.7741(2) 1.22498(16)
C13 C -0.0576(2) 0.8558(2) 1.22562(14)
C14 C -0.0151(2) 0.8836(2) 1.24637(15)
C15 C 0.0530(2) 0.8300(2) 1.26533(16)
C16 C -0.2217(2) 1.0330(2) 1.18643(14)
C17 C -0.2302(2) 0.9277(2) 1.16441(14)
C18 C -0.1300(2) 0.9101(2) 1.20382(14)
N7 N 0.3589(2) 1.30536(18) 0.58246(12)
N8 N 0.2812(2) 0.89733(19) 0.47521(13)
N9 N 0.7398(2) 0.7786(2) 0.64096(14)
N10 N 0.4898(2) 0.90480(18) 0.56066(12)
N11 N 0.5059(2) 1.01029(18) 0.58727(12)
N12 N 0.39393(19) 1.03852(18) 0.54931(12)
C19 C 0.4237(2) 1.2528(2) 0.60183(14)
C20 C 0.4515(2) 1.1723(2) 0.59879(14)
C21 C 0.4102(2) 1.1456(2) 0.57523(14)
C22 C 0.3432(2) 1.2008(2) 0.55558(15)
C23 C 0.3187(3) 1.2801(2) 0.55971(16)
C24 C 0.2604(3) 0.9735(2) 0.48178(16)
C25 C 0.3051(3) 0.9953(2) 0.50475(15)
C26 C 0.3740(2) 0.9368(2) 0.52123(14)
C27 C 0.3958(2) 0.8581(2) 0.51431(15)
C28 C 0.3482(2) 0.8401(2) 0.49091(16)
C29 C 0.7014(3) 0.7489(3) 0.62010(19)
C30 C 0.6348(3) 0.7964(2) 0.59845(17)
C31 C 0.6053(2) 0.8775(2) 0.59919(15)
C32 C 0.6471(3) 0.9081(2) 0.61893(17)
C33 C 0.7142(3) 0.8572(2) 0.63881(18)
C34 C 0.4381(2) 1.0600(2) 0.57076(14)
C35 C 0.4222(2) 0.9605(2) 0.54559(14)
C36 C 0.5294(2) 0.9335(2) 0.58095(14)
N13 N -0.2615(2) 1.39759(17) 1.11163(12)
N14 N 0.2293(2) 1.41830(18) 0.66142(13)
N15 N 0.2476(2) 0.6905(2) 1.19437(15)
N16 N 0.7134(2) 0.7303(2) 0.75275(16)
N17 N -0.2775(2) 0.7711(2) 0.98171(14)
N18 N 0.1517(2) 0.85507(19) 0.53978(14)
C37 C -0.2940(3) 1.4182(3) 1.06969(16)
C38 C -0.2429(3) 1.4185(3) 1.01652(18)
C39 C -0.1556(3) 1.3975(2) 1.00582(16)
C40 C -0.1222(3) 1.3772(3) 1.04998(17)
C41 C -0.1763(3) 1.3773(2) 1.10179(16)
C42 C 0.2526(3) 1.3991(2) 0.70725(16)
C43 C 0.1977(3) 1.3920(2) 0.75694(17)
C44 C 0.1143(3) 1.4046(2) 0.76055(16)
C45 C 0.0903(3) 1.4235(3) 0.71295(17)
C46 C 0.1489(3) 1.4304(2) 0.66465(17)
C47 C -0.1000(3) 1.3974(3) 0.95157(17)
C48 C -0.0503(3) 1.3956(3) 0.90698(17)
C49 C 0.0559(3) 1.3981(2) 0.81230(16)
C50 C 0.0064(3) 1.3954(2) 0.85608(17)
C51 C 0.2490(3) 0.7600(3) 1.17400(19)
C52 C 0.2793(3) 0.7738(3) 1.1191(2)
C53 C 0.3118(3) 0.7124(3) 1.08303(18)
C54 C 0.3086(3) 0.6413(3) 1.1043(2)
C55 C 0.2767(3) 0.6320(3) 1.15986(19)
C56 C 0.6762(3) 0.6805(3) 0.7582(2)
C57 C 0.6067(3) 0.6827(3) 0.8023(2)
C58 C 0.5736(3) 0.7379(3) 0.84273(18)
C59 C 0.6117(4) 0.7902(3) 0.8362(2)
C60 C 0.6807(4) 0.7843(3) 0.7914(2)
C61 C 0.3527(3) 0.7223(3) 1.0265(2)
C62 C 0.3956(3) 0.7299(3) 0.9814(2)
C63 C 0.5050(3) 0.7392(3) 0.8905(2)
C64 C 0.4511(3) 0.7363(3) 0.93189(19)
C65 C -0.2015(3) 0.7077(3) 0.96876(19)
C66 C -0.1339(3) 0.7068(3) 0.9239(2)
C67 C -0.1447(3) 0.7740(3) 0.89084(19)
C68 C -0.2246(3) 0.8395(3) 0.9040(2)
C69 C -0.2896(3) 0.8362(3) 0.94980(19)
C70 C 0.0999(3) 0.9160(2) 0.57397(17)
C71 C 0.0723(3) 0.9051(3) 0.62942(17)
C72 C 0.0993(3) 0.8282(3) 0.65148(18)
C73 C 0.1553(3) 0.7657(3) 0.6156(2)
C74 C 0.1791(3) 0.7815(3) 0.56081(19)
C75 C -0.0767(3) 0.7776(3) 0.8437(2)
C76 C -0.0253(3) 0.7872(3) 0.8028(2)
C77 C 0.0645(3) 0.8131(3) 0.70793(19)
C78 C 0.0264(3) 0.8005(3) 0.7533(2)
N19 N -0.4102(2) 1.40882(18) 1.26993(12)
C79 C -0.4570(2) 1.4937(2) 1.28537(16)
C80 C -0.3990(2) 1.5341(2) 1.25535(15)
N20 N -0.3727(2) 1.51746(17) 1.19635(13)
N21 N -0.4547(2) 0.7482(2) 1.11933(14)
N22 N -0.4117(3) 0.7106(2) 1.01492(16)
N23 N 0.2310(2) 0.8948(2) 0.37727(14)
N24 N 0.1020(2) 0.8552(2) 0.44261(15)
N25 N 0.9287(3) 0.7050(3) 0.6266(2)
N26 N 0.8964(3) 0.6769(5) 0.7362(3)
C81 C -0.5052(3) 0.7135(3) 1.1061(2)
C82 C -0.4475(4) 0.6619(3) 1.0579(2)
N27 N 0.2821(2) 1.54040(19) 0.59132(14)
C83 C 0.3560(3) 1.5573(2) 0.55580(18)
C84 C 0.3916(3) 1.5103(2) 0.50428(17)
N28 N 0.4118(2) 1.42636(18) 0.52119(13)
N29 N 0.1471(13) 0.6509(15) 1.3574(13)
C85 C 0.2215(8) 0.6100(10) 1.3801(5)
C86 C 0.2995(12) 0.5585(14) 1.3386(10)
N30 N 0.307(2) 0.595(2) 1.2834(9)
C87 C 0.1971(3) 0.8565(3) 0.35147(19)
C88 C 0.1040(3) 0.8783(3) 0.3848(2)
C89 C 1.0011(4) 0.6804(6) 0.6498(4)
C90 C 0.9852(4) 0.6416(5) 0.7021(3)
H1 H -0.2120 1.2516 1.2256
H2 H -0.1660 1.1158 1.2244
H3 H -0.3473 1.1541 1.1521
H4 H -0.3885 1.2891 1.1545
H5 H -0.4151 0.9301 1.0818
H6 H -0.3648 0.9926 1.1227
H7 H -0.1873 0.7766 1.1523
H8 H -0.2418 0.7202 1.1106
H9 H 0.0554 0.6683 1.2447
H10 H -0.0594 0.7534 1.2112
H11 H -0.0324 0.9389 1.2476
H12 H 0.0822 0.8493 1.2797
H13 H 0.4512 1.2716 0.6181
H14 H 0.4977 1.1358 0.6125
H15 H 0.3143 1.1837 0.5393
H16 H 0.2727 1.3177 0.5463
H17 H 0.2135 1.0135 0.4702
H18 H 0.2890 1.0496 0.5093
H19 H 0.4426 0.8171 0.5254
H20 H 0.3632 0.7863 0.4858
H21 H 0.7209 0.6931 0.6203
H22 H 0.6095 0.7738 0.5833
H23 H 0.6293 0.9636 0.6187
H24 H 0.7436 0.8782 0.6515
H25 H -0.3541 1.4331 1.0765
H26 H -0.2677 1.4330 0.9874
H27 H -0.0627 1.3635 1.0443
H28 H -0.1531 1.3626 1.1317
H29 H 0.3096 1.3901 0.7052
H30 H 0.2164 1.3786 0.7887
H31 H 0.0342 1.4315 0.7137
H32 H 0.1318 1.4443 0.6323
H33 H 0.2282 0.8014 1.1985
H34 H 0.2782 0.8241 1.1059
H35 H 0.3284 0.5991 1.0806
H36 H 0.2752 0.5829 1.1741
H37 H 0.6987 0.6426 0.7308
H38 H 0.5816 0.6471 0.8050
H39 H 0.5898 0.8293 0.8627
H40 H 0.7066 0.8197 0.7875
H41 H -0.1939 0.6616 0.9914
H42 H -0.0807 0.6607 0.9156
H43 H -0.2342 0.8860 0.8816
H44 H -0.3439 0.8810 0.9589
H45 H 0.0817 0.9684 0.5592
H46 H 0.0354 0.9492 0.6526
H47 H 0.1766 0.7128 0.6291
H48 H 0.2166 0.7385 0.5367
H49 H -0.4495 1.3881 1.2749
H50 H -0.3752 1.3806 1.2917
H51 H -0.4713 1.4982 1.3253
H52 H -0.5116 1.5190 1.2754
H53 H -0.4304 1.5918 1.2614
H54 H -0.3474 1.5133 1.2683
H55 H -0.3271 1.5301 1.1772
H56 H -0.4182 1.5471 1.1823
H57 H -0.4256 0.7148 1.1430
H58 H -0.4920 0.7957 1.1364
H59 H -0.4540 0.7473 1.0002
H60 H -0.3668 0.6788 0.9874
H61 H 0.2092 0.9483 0.3698
H62 H 0.2905 0.8739 0.3640
H63 H 0.1126 0.8026 0.4484
H64 H 0.0482 0.8846 0.4655
H65 H 0.9406 0.6668 0.6035
H66 H 0.9218 0.7515 0.6069
H67 H 0.8884 0.7169 0.7561
H68 H 0.8834 0.6395 0.7600
H69 H -0.5570 0.7561 1.0975
H70 H -0.5245 0.6820 1.1376
H71 H -0.4000 0.6152 1.0679
H72 H -0.4808 0.6434 1.0446
H73 H 0.2347 1.5679 0.5788
H74 H 0.2677 1.5557 0.6264
H75 H 0.4011 1.5408 0.5743
H76 H 0.3364 1.6146 0.5469
H77 H 0.3482 1.5302 0.4841
H78 H 0.4446 1.5155 0.4802
H79 H 0.4649 1.4026 0.5276
H80 H 0.4142 1.3995 0.4939
H81 H 0.1084 0.6974 1.3754
H82 H 0.1188 0.6193 1.3616
H83 H 0.2338 0.6497 1.3918
H84 H 0.2066 0.5776 1.4124
H85 H 0.3517 0.5476 1.3488
H86 H 0.2970 0.5074 1.3383
H87 H 0.3305 0.5561 1.2582
H88 H 0.3443 0.6187 1.2761
H89 H 0.2309 0.7983 0.3515
H90 H 0.2010 0.8756 0.3133
H91 H 0.0691 0.9360 0.3817
H92 H 0.0794 0.8501 0.3714
H93 H 1.0552 0.6440 0.6245
H94 H 1.0089 0.7275 0.6538
H95 H 1.0232 0.6426 0.7216
H96 H 1.0012 0.5855 0.6964
C91 C -0.1310(6) 0.8466(7) 1.0080(4)
C92 C -0.0617(7) 0.8129(8) 1.0319(4)
C93 C -0.0461(6) 0.8702(7) 1.0496(3)
C94 C 0.0271(6) 0.8337(8) 1.0744(4)
C95 C 0.0400(8) 0.8939(8) 1.0923(5)
C96 C 0.0002(7) 0.9669(8) 1.0875(4)
C97 C 0.0168(11) 1.0214(10) 1.1046(8)
C98 C -0.0259(8) 1.0980(9) 1.0992(5)
C99 C -0.0976(9) 1.1421(9) 1.0764(5)
C100 C -0.1202(9) 1.0849(8) 1.0581(6)
C101 C -0.1888(12) 1.1133(10) 1.0359(8)
C102 C -0.2108(7) 1.0663(7) 1.0197(5)
C103 C -0.1655(6) 0.9821(6) 1.0206(4)
C104 C -0.1805(7) 0.9284(7) 1.0028(4)
C105 C -0.0929(10) 0.9485(7) 1.0452(7)
C106 C -0.0738(7) 1.0036(8) 1.0620(4)
H97 H -0.1445 0.8114 0.9947
H98 H -0.0293 0.7575 1.0355
H99 H 0.0603 0.7784 1.0777
H100 H 0.0838 0.8761 1.1098
H101 H 0.0616 1.0026 1.1214
H102 H -0.0072 1.1294 1.1121
H103 H -0.1257 1.1981 1.0735
H104 H -0.2204 1.1689 1.0325
H105 H -0.2599 1.0892 1.0066
H106 H -0.2255 0.9461 0.9863
C107 C 0.2991(8) 1.1845(6) 0.7137(5)
C108 C 0.2464(7) 1.1782(6) 0.6907(4)
C109 C 0.2571(6) 1.1031(6) 0.6798(4)
C110 C 0.2052(8) 1.0916(6) 0.6546(5)
C111 C 0.2135(8) 1.0201(6) 0.6462(7)
C112 C 0.2819(10) 0.9483(7) 0.6602(8)
C113 C 0.2967(8) 0.8735(6) 0.6502(6)
C114 C 0.3643(8) 0.8068(6) 0.6629(7)
C115 C 0.4193(8) 0.8117(7) 0.6863(5)
C116 C 0.4041(8) 0.8895(6) 0.6975(6)
C117 C 0.4594(7) 0.8996(6) 0.7218(5)
C118 C 0.4495(8) 0.9710(6) 0.7314(6)
C119 C 0.3800(6) 1.0423(5) 0.7185(4)
C120 C 0.3658(6) 1.1174(5) 0.7281(4)
C121 C 0.3245(14) 1.0341(6) 0.6945(12)
C122 C 0.3376(14) 0.9572(6) 0.6841(11)
H107 H 0.2911 1.2356 0.7205
H108 H 0.2016 1.2245 0.6817
H109 H 0.1623 1.1369 0.6430
H110 H 0.1747 1.0160 0.6310
H111 H 0.2600 0.8670 0.6344
H112 H 0.3727 0.7561 0.6549
H113 H 0.4652 0.7658 0.6947
H114 H 0.5043 0.8540 0.7312
H115 H 0.4881 0.9752 0.7467
H116 H 0.4016 1.1240 0.7447
N31 N 0.0723(2) 0.0968(2) 0.42755(15)
O1 O 0.05806(19) 0.04811(18) 0.46320(13)
O2 O 0.1361(2) 0.07294(19) 0.38514(13)
O3 O 0.0235(2) 0.16854(18) 0.43351(15)
N32 N 0.5727(2) 0.7508(2) 0.23618(14)
O4 O 0.5548(2) 0.7436(2) 0.28670(12)
O5 O 0.62625(18) 0.69239(17) 0.20659(12)
O6 O 0.5378(2) 0.81737(18) 0.21478(13)
N33 N 0.4482(3) 0.9149(2) 0.99208(16)
O7 O 0.4241(2) 0.8668(2) 1.02368(14)
O8 O 0.5112(3) 0.8902(3) 0.95119(15)
O9 O 0.4084(4) 0.9856(2) 1.0029(2)
N34 N 0.2024(2) 0.62080(19) 0.72440(14)
O10 O 0.1763(2) 0.5842(2) 0.70498(14)
O11 O 0.2588(2) 0.6420(2) 0.69316(14)
O12 O 0.1741(2) 0.63590(18) 0.77368(12)
N35 N 0.5473(3) 0.6329(2) 0.60808(16)
O13 O 0.5599(2) 0.6306(2) 0.65194(15)
O14 O 0.4870(3) 0.6213(3) 0.60571(16)
O15 O 0.5966(3) 0.6490(3) 0.56454(15)
N36 N 0.1368(9) 0.6552(8) 0.5033(6)
O16 O 0.1359(12) 0.6032(12) 0.5388(7)
O17 O 0.0794(6) 0.6953(6) 0.4800(4)
O18 O 0.2041(9) 0.6684(7) 0.4875(8)
N37 N 0.4725(2) 0.4787(2) 0.17062(17)
O19 O 0.4748(2) 0.54482(19) 0.16075(17)
O20 O 0.4332(2) 0.4619(2) 0.21649(14)
O21 O 0.5122(2) 0.42763(19) 0.13440(14)
N38 N 0.8016(2) 0.5634(2) 0.10003(15)
O22 O 0.7927(2) 0.53080(19) 0.14538(13)
O23 O 0.7400(3) 0.5931(2) 0.08132(17)
O24 O 0.8707(3) 0.5675(3) 0.0757(2)
N39 N 0.1425(3) 0.9876(2) 0.22087(18)
O25 O 0.0973(3) 0.9921(2) 0.26808(16)
O26 O 0.1526(3) 0.9374(3) 0.1908(2)
O27 O 0.1749(3) 1.0350(2) 0.19978(15)
N40 N 0.4306(3) 0.6578(2) 0.40650(17)
O28 O 0.3760(3) 0.6982(4) 0.3834(2)
O29 O 0.5027(3) 0.6106(2) 0.37997(16)
O30 O 0.4185(2) 0.66347(18) 0.45620(14)
N41 N 0.0861(4) 0.1612(4) 0.5567(3)
O31 O 0.1458(4) 0.1743(4) 0.5216(3)
O32 O 0.0235(4) 0.2158(3) 0.5868(4)
O33 O 0.0878(3) 0.0973(3) 0.5633(2)
N42 N 0.6869(7) 0.5680(7) 0.9185(4)
O34 O 0.7197(8) 0.5180(6) 0.8857(4)
O35 O 0.7189(16) 0.6143(14) 0.9181(12)
O36 O 0.6284(6) 0.5642(5) 0.9601(4)
N43 N 0.8262(5) 0.5015(5) 0.7575(4)
O37 O 0.8698(5) 0.5271(6) 0.7197(5)
O38 O 0.7662(5) 0.4931(4) 0.7534(4)
O39 O 0.8477(9) 0.4780(7) 0.7993(5)
N44 N 0.9256(9) 0.5373(7) 0.5800(9)
O40 O 0.9843(7) 0.5250(6) 0.5987(5)
O41 O 0.8791(9) 0.6050(7) 0.5659(7)
O42 O 0.9256(13) 0.4872(9) 0.5523(11)
O43 O 0.1802(2) 0.1212(2) 0.27271(15)
O44 O 0.4131(2) 0.0255(2) 0.13566(15)
O45 O 0.4074(2) 0.6927(2) 0.26782(17)
O46 O 0.1236(3) 0.4144(3) 0.16739(19)
O47 O 0.0225(5) 0.3523(5) 0.6304(3)
O48 O 0.8523(6) 0.6969(8) 0.4665(5)
O49 O 0.4050(2) 0.8877(2) 0.32883(13)
O50 O 0.9614(2) 0.4263(2) 0.16134(16)
O51 O 0.3340(3) 0.9327(2) 0.12541(16)
O52 O 0.3549(3) 0.8458(2) 0.2218(2)
O53 O 0.5109(7) 0.5112(7) 0.9644(4)
O54 O 0.3568(15) 0.0199(10) 0.2552(7)
O55 O 0.2294(9) 0.4409(6) 0.4878(5)
O56 O 0.9774(12) 0.5545(12) 0.9768(9)
O57 O -0.0751(17) 0.6842(16) 0.5189(9)
N45? N 0.1504(12) 0.6468(15) 1.3515(13)
C123? C 0.2133(5) 0.5666(4) 1.3632(4)
C124? C 0.3007(10) 0.5730(13) 1.3439(9)
N46? N 0.3160(19) 0.604(2) 1.2867(8)
O58? O 0.2090(5) 0.6937(4) 0.4357(4)
C125? C -0.2186(9) 0.9675(9) 0.9870(6)
C126? C -0.1632(9) 0.8977(11) 1.0005(5)
C127? C -0.1068(8) 0.8954(8) 1.0270(5)
C128? C -0.0464(11) 0.8233(11) 1.0422(8)
C129? C 0.0088(11) 0.8151(10) 1.0672(7)
C130? C 0.0113(11) 0.8847(10) 1.0815(7)
C131? C 0.0651(12) 0.8854(12) 1.1077(7)
C132? C 0.0605(11) 0.9571(11) 1.1192(7)
C133? C 0.0064(19) 1.0318(13) 1.1065(14)
C134? C -0.0491(10) 1.0315(9) 1.0785(7)
C135? C -0.1089(12) 1.1067(11) 1.0637(8)
C136? C -0.1656(12) 1.1109(10) 1.0382(9)
C137? C -0.1661(9) 1.0393(8) 1.0267(6)
C138? C -0.2212(10) 1.0372(9) 1.0014(6)
C139? C -0.1050(16) 0.9646(10) 1.0398(12)
C140? C -0.0481(10) 0.9613(10) 1.0672(7)
C141? C -0.0893(14) 0.8329(13) 1.0267(9)
C142? C -0.1408(14) 0.9062(13) 1.0161(8)
C143? C -0.1390(12) 0.9739(11) 1.0282(7)
C144? C -0.1915(18) 1.0535(13) 1.0169(14)
C145? C -0.189(3) 1.1164(15) 1.031(2)
C146? C -0.124(2) 1.1075(12) 1.0554(15)
C147? C -0.1148(19) 1.1695(14) 1.0701(13)
C148? C -0.0518(15) 1.1512(14) 1.0971(10)
C149? C 0.0012(18) 1.0765(14) 1.1093(12)
C150? C -0.0079(15) 1.0132(12) 1.0930(10)
C151? C 0.0475(14) 0.9338(12) 1.1054(9)
C152? C 0.0475(17) 0.8683(12) 1.0902(13)
C153? C -0.0201(12) 0.8822(10) 1.0665(8)
C154? C -0.0250(16) 0.8182(12) 1.0523(11)
C155? C -0.0750(15) 0.9606(10) 1.0543(11)
C156? C -0.0712(16) 1.0280(11) 1.0688(12)
C157? C 0.2240(9) 1.2042(9) 0.6862(6)
C158? C 0.2010(8) 1.1575(7) 0.6677(5)
C159? C 0.2451(8) 1.0755(8) 0.6697(5)
C160? C 0.2235(15) 1.0210(10) 0.6529(12)
C161? C 0.2687(12) 0.9428(9) 0.6554(10)
C162? C 0.3409(8) 0.9059(7) 0.6780(6)
C163? C 0.3905(11) 0.8248(9) 0.6804(8)
C164? C 0.4605(10) 0.7958(9) 0.7019(7)
C165? C 0.4818(9) 0.8445(7) 0.7212(6)
C166? C 0.4331(10) 0.9267(8) 0.7169(7)
C167? C 0.4556(16) 0.9790(9) 0.7365(12)
C168? C 0.4126(8) 1.0586(8) 0.7325(5)
C169? C 0.3396(9) 1.0931(8) 0.7107(6)
C170? C 0.2928(13) 1.1738(10) 0.7089(10)
C171? C 0.316(2) 1.0419(7) 0.692(2)
C172? C 0.3631(9) 0.9587(7) 0.6960(7)
C173? C 0.2715(11) 1.1977(10) 0.7049(7)
C174? C 0.3383(11) 1.1441(9) 0.7217(6)
C175? C 0.3632(9) 1.0631(8) 0.7151(6)
C176? C 0.4343(12) 0.9995(10) 0.7304(8)
C177? C 0.4551(13) 0.9228(11) 0.7258(9)
C178? C 0.4111(16) 0.8971(11) 0.7004(12)
C179? C 0.4288(16) 0.8200(12) 0.6910(11)
C180? C 0.3830(16) 0.8022(11) 0.6654(15)
C181? C 0.3128(14) 0.8586(10) 0.6513(11)
C182? C 0.2941(15) 0.9380(10) 0.6604(12)
C183? C 0.2226(15) 1.0002(10) 0.6440(11)
C184? C 0.1998(13) 1.0775(11) 0.6492(9)
C185? C 0.2467(12) 1.0996(10) 0.6736(8)
C186? C 0.2250(12) 1.1779(10) 0.6803(8)
C187? C 0.317(2) 1.0400(9) 0.691(2)
C188? C 0.340(2) 0.9589(9) 0.684(2)
O59? O 0.1810(5) 0.5850(8) 0.5198(5)
O60? O 0.0213(6) 0.6520(6) 0.5021(4)
O61? O 0.7141(7) 0.6172(5) 0.9212(3)
O62? O 0.7897(13) 0.5940(11) 0.9331(9)
O63? O 0.5827(7) 0.5401(5) 0.9450(4)
O64? O 0.8550(9) 0.4744(6) 0.7613(6)
O65? O 0.8758(19) 0.5379(11) 0.6479(8)
O66? O 0.9532(14) 0.5453(14) 0.9664(9)
O67? O 0.3654(13) -0.0007(11) 0.2449(8)
O68? O 0.2266(12) 0.4170(10) 0.4546(9)
H117? H 0.1438 0.6832 1.3741
H118? H 0.0972 0.6469 1.3577
H119? H 0.2155 0.5258 1.3426
H120? H 0.1977 0.5532 1.4026
H121? H 0.2996 0.6093 1.3678
H122? H 0.3482 0.5203 1.3462
H123? H 0.3465 0.5622 1.2628
H124? H 0.3475 0.6327 1.2807
H125? H -0.2561 0.9703 0.9678
H126? H -0.1620 0.8501 0.9921
H127? H -0.0456 0.7761 1.0334
H128? H 0.0471 0.7638 1.0759
H129? H 0.1058 0.8369 1.1181
H130? H 0.0990 0.9538 1.1378
H131? H 0.0059 1.0787 1.1154
H132? H -0.1092 1.1540 1.0717
H133? H -0.2045 1.1609 1.0281
H134? H -0.2638 1.0863 0.9932
H135? H -0.0951 0.7896 1.0172
H136? H -0.1822 0.9129 0.9988
H137? H -0.2314 1.0624 0.9978
H138? H -0.2305 1.1679 1.0254
H139? H -0.1497 1.2228 1.0623
H140? H -0.0463 1.1940 1.1073
H141? H 0.0422 1.0671 1.1277
H142? H 0.0860 0.9267 1.1252
H143? H 0.0892 0.8165 1.0949
H144? H 0.0130 0.7657 1.0593
H145? H 0.1927 1.2600 0.6838
H146? H 0.1535 1.1808 0.6530
H147? H 0.1750 1.0412 0.6394
H148? H 0.2529 0.9098 0.6418
H149? H 0.3770 0.7892 0.6675
H150? H 0.4941 0.7403 0.7030
H151? H 0.5279 0.8238 0.7370
H152? H 0.5015 0.9573 0.7525
H153? H 0.4303 1.0920 0.7440
H154? H 0.3068 1.2082 0.7227
H155? H 0.2545 1.2520 0.7098
H156? H 0.3683 1.1601 0.7377
H157? H 0.4686 1.0125 0.7446
H158? H 0.5000 0.8839 0.7396
H159? H 0.4741 0.7775 0.7026
H160? H 0.4016 0.7486 0.6574
H161? H 0.2788 0.8461 0.6365
H162? H 0.1902 0.9860 0.6289
H163? H 0.1533 1.1169 0.6369
H164? H 0.1788 1.2185 0.6683
loop_
_geom_bond_atom_site_label_1
_geom_bond_atom_site_label_2
_geom_bond_site_symmetry_1
_geom_bond_site_symmetry_2
Pd1 N1 1_555 1_555
Pd2 N2 1_555 1_555
Pd3 N3 1_555 1_555
Pd4 N7 1_555 1_555
Pd5 N8 1_555 1_555
Pd6 N9 1_555 1_555
N1 C1 1_555 1_555
N2 C6 1_555 1_555
N3 C11 1_555 1_555
N4 C17 1_555 1_555
N5 C16 1_555 1_555
N6 C16 1_555 1_555
C1 C2 1_555 1_555
C2 C5 1_555 1_555
C3 C4 1_555 1_555
C4 N1 1_555 1_555
C5 C3 1_555 1_555
C6 C7 1_555 1_555
C7 C8 1_555 1_555
C8 C9 1_555 1_555
C9 C10 1_555 1_555
C10 N2 1_555 1_555
C11 C12 1_555 1_555
C12 C13 1_555 1_555
C13 C14 1_555 1_555
C14 C15 1_555 1_555
C15 N3 1_555 1_555
C16 C5 1_555 1_555
C17 N6 1_555 1_555
C18 N4 1_555 1_555
N7 C19 1_555 1_555
N8 C24 1_555 1_555
N9 C29 1_555 1_555
N10 C35 1_555 1_555
N11 C34 1_555 1_555
N12 C34 1_555 1_555
C19 C20 1_555 1_555
C20 C21 1_555 1_555
C21 C22 1_555 1_555
C22 C23 1_555 1_555
C23 N7 1_555 1_555
C24 C25 1_555 1_555
C25 C26 1_555 1_555
C26 C27 1_555 1_555
C27 C28 1_555 1_555
C28 N8 1_555 1_555
C29 C30 1_555 1_555
C30 C31 1_555 1_555
C31 C32 1_555 1_555
C32 C33 1_555 1_555
C33 N9 1_555 1_555
C34 C21 1_555 1_555
C35 N12 1_555 1_555
C36 N10 1_555 1_555
N13 Pd1 1_555 1_555
N14 Pd4 1_555 1_555
N15 Pd3 1_555 1_555
N16 Pd6 1_555 1_555
N17 Pd2 1_555 1_555
N18 Pd5 1_555 1_555
C37 N13 1_555 1_555
C38 C37 1_555 1_555
C39 C38 1_555 1_555
C40 C39 1_555 1_555
C41 N13 1_555 1_555
C42 N14 1_555 1_555
C43 C42 1_555 1_555
C44 C43 1_555 1_555
C45 C44 1_555 1_555
C46 N14 1_555 1_555
C47 C39 1_555 1_555
C48 C47 1_555 1_555
C49 C44 1_555 1_555
C50 C48 1_555 1_555
C51 N15 1_555 1_555
C52 C51 1_555 1_555
C53 C52 1_555 1_555
C54 C53 1_555 1_555
C55 N15 1_555 1_555
C56 N16 1_555 1_555
C57 C56 1_555 1_555
C58 C57 1_555 1_555
C59 C58 1_555 1_555
C60 N16 1_555 1_555
C61 C53 1_555 1_555
C62 C61 1_555 1_555
C63 C58 1_555 1_555
C64 C62 1_555 1_555
C65 N17 1_555 1_555
C66 C65 1_555 1_555
C67 C66 1_555 1_555
C68 C67 1_555 1_555
C69 N17 1_555 1_555
C70 N18 1_555 1_555
C71 C70 1_555 1_555
C72 C71 1_555 1_555
C73 C72 1_555 1_555
C74 N18 1_555 1_555
C75 C67 1_555 1_555
C76 C75 1_555 1_555
C77 C72 1_555 1_555
C78 C76 1_555 1_555
N19 Pd1 1_555 1_555
C79 N19 1_555 1_555
C80 C79 1_555 1_555
N20 Pd1 1_555 1_555
N21 Pd2 1_555 1_555
N22 Pd2 1_555 1_555
N23 Pd5 1_555 1_555
N24 Pd5 1_555 1_555
N25 Pd6 1_555 1_555
N26 Pd6 1_555 1_555
C81 N21 1_555 1_555
C82 N22 1_555 1_555
N27 Pd4 1_555 1_555
C83 N27 1_555 1_555
C84 C83 1_555 1_555
N28 Pd4 1_555 1_555
N29 Pd3 1_555 1_555
C85 N29 1_555 1_555
C86 C85 1_555 1_555
N30 Pd3 1_555 1_555
C87 N23 1_555 1_555
C88 N24 1_555 1_555
C89 N25 1_555 1_555
C90 N26 1_555 1_555
H1 C1 1_555 1_555
H2 C2 1_555 1_555
H3 C3 1_555 1_555
H4 C4 1_555 1_555
H5 C6 1_555 1_555
H6 C7 1_555 1_555
H7 C9 1_555 1_555
H8 C10 1_555 1_555
H9 C11 1_555 1_555
H10 C12 1_555 1_555
H11 C14 1_555 1_555
H12 C15 1_555 1_555
H13 C19 1_555 1_555
H14 C20 1_555 1_555
H15 C22 1_555 1_555
H16 C23 1_555 1_555
H17 C24 1_555 1_555
H18 C25 1_555 1_555
H19 C27 1_555 1_555
H20 C28 1_555 1_555
H21 C29 1_555 1_555
H22 C30 1_555 1_555
H23 C32 1_555 1_555
H24 C33 1_555 1_555
H25 C37 1_555 1_555
H26 C38 1_555 1_555
H27 C40 1_555 1_555
H28 C41 1_555 1_555
H29 C42 1_555 1_555
H30 C43 1_555 1_555
H31 C45 1_555 1_555
H32 C46 1_555 1_555
H33 C51 1_555 1_555
H34 C52 1_555 1_555
H35 C54 1_555 1_555
H36 C55 1_555 1_555
H37 C56 1_555 1_555
H38 C57 1_555 1_555
H39 C59 1_555 1_555
H40 C60 1_555 1_555
H41 C65 1_555 1_555
H42 C66 1_555 1_555
H43 C68 1_555 1_555
H44 C69 1_555 1_555
H45 C70 1_555 1_555
H46 C71 1_555 1_555
H47 C73 1_555 1_555
H48 C74 1_555 1_555
H49 N19 1_555 1_555
H50 N19 1_555 1_555
H51 C79 1_555 1_555
H52 C79 1_555 1_555
H53 C80 1_555 1_555
H54 C80 1_555 1_555
H55 N20 1_555 1_555
H56 N20 1_555 1_555
H57 N21 1_555 1_555
H58 N21 1_555 1_555
H59 N22 1_555 1_555
H60 N22 1_555 1_555
H61 N23 1_555 1_555
H62 N23 1_555 1_555
H63 N24 1_555 1_555
H64 N24 1_555 1_555
H65 N25 1_555 1_555
H66 N25 1_555 1_555
H67 N26 1_555 1_555
H68 N26 1_555 1_555
H69 C81 1_555 1_555
H70 C81 1_555 1_555
H71 C82 1_555 1_555
H72 C82 1_555 1_555
H73 N27 1_555 1_555
H74 N27 1_555 1_555
H75 C83 1_555 1_555
H76 C83 1_555 1_555
H77 C84 1_555 1_555
H78 C84 1_555 1_555
H79 N28 1_555 1_555
H80 N28 1_555 1_555
H81 N29 1_555 1_555
H82 N29 1_555 1_555
H83 C85 1_555 1_555
H84 C85 1_555 1_555
H85 C86 1_555 1_555
H86 C86 1_555 1_555
H87 N30 1_555 1_555
H88 N30 1_555 1_555
H89 C87 1_555 1_555
H90 C87 1_555 1_555
H91 C88 1_555 1_555
H92 C88 1_555 1_555
H93 C89 1_555 1_555
H94 C89 1_555 1_555
H95 C90 1_555 1_555
H96 C90 1_555 1_555
C91 C92 1_555 1_555
C92 C93 1_555 1_555
C93 C94 1_555 1_555
C94 C95 1_555 1_555
C95 C96 1_555 1_555
C96 C97 1_555 1_555
C97 C98 1_555 1_555
C98 C99 1_555 1_555
C99 C100 1_555 1_555
C100 C101 1_555 1_555
C101 C102 1_555 1_555
C102 C103 1_555 1_555
C103 C104 1_555 1_555
C104 C91 1_555 1_555
C105 C93 1_555 1_555
C106 C96 1_555 1_555
H97 C91 1_555 1_555
H98 C92 1_555 1_555
H99 C94 1_555 1_555
H100 C95 1_555 1_555
H101 C97 1_555 1_555
H102 C98 1_555 1_555
H103 C99 1_555 1_555
H104 C101 1_555 1_555
H105 C102 1_555 1_555
H106 C104 1_555 1_555
C107 C108 1_555 1_555
C108 C109 1_555 1_555
C109 C110 1_555 1_555
C110 C111 1_555 1_555
C111 C112 1_555 1_555
C112 C113 1_555 1_555
C113 C114 1_555 1_555
C114 C115 1_555 1_555
C115 C116 1_555 1_555
C116 C117 1_555 1_555
C117 C118 1_555 1_555
C118 C119 1_555 1_555
C119 C120 1_555 1_555
C120 C107 1_555 1_555
C121 C109 1_555 1_555
C122 C112 1_555 1_555
H107 C107 1_555 1_555
H108 C108 1_555 1_555
H109 C110 1_555 1_555
H110 C111 1_555 1_555
H111 C113 1_555 1_555
H112 C114 1_555 1_555
H113 C115 1_555 1_555
H114 C117 1_555 1_555
H115 C118 1_555 1_555
H116 C120 1_555 1_555
N31 O1 1_555 1_555
O2 N31 1_555 1_555
O3 N31 1_555 1_555
N32 O4 1_555 1_555
O5 N32 1_555 1_555
O6 N32 1_555 1_555
N33 O7 1_555 1_555
O8 N33 1_555 1_555
O9 N33 1_555 1_555
N34 O10 1_555 1_555
O11 N34 1_555 1_555
O12 N34 1_555 1_555
N35 O13 1_555 1_555
O14 N35 1_555 1_555
O15 N35 1_555 1_555
N36 O16 1_555 1_555
O17 N36 1_555 1_555
O18 N36 1_555 1_555
N37 O19 1_555 1_555
O20 N37 1_555 1_555
O21 N37 1_555 1_555
N38 O22 1_555 1_555
O23 N38 1_555 1_555
O24 N38 1_555 1_555
N39 O25 1_555 1_555
O26 N39 1_555 1_555
O27 N39 1_555 1_555
N40 O28 1_555 1_555
O29 N40 1_555 1_555
O30 N40 1_555 1_555
N41 O31 1_555 1_555
O32 N41 1_555 1_555
O33 N41 1_555 1_555
N42 O34 1_555 1_555
O35 N42 1_555 1_555
O36 N42 1_555 1_555
N43 O37 1_555 1_555
O38 N43 1_555 1_555
O39 N43 1_555 1_555
N44 O40 1_555 1_555
O41 N44 1_555 1_555
O42 N44 1_555 1_555
N5 C18 1_555 1_555
C8 C17 1_555 1_555
C13 C18 1_555 1_555
N11 C36 1_555 1_555
C26 C35 1_555 1_555
C31 C36 1_555 1_555
C40 C41 1_555 1_555
C45 C46 1_555 1_555
C49 C50 1_555 1_555
C54 C55 1_555 1_555
C59 C60 1_555 1_555
C63 C64 1_555 1_555
C68 C69 1_555 1_555
C73 C74 1_555 1_555
C77 C78 1_555 1_555
C80 N20 1_555 1_555
C81 C82 1_555 1_555
C84 N28 1_555 1_555
C86 N30 1_555 1_555
C87 C88 1_555 1_555
C89 C90 1_555 1_555
C100 C106 1_555 1_555
C103 C105 1_555 1_555
C105 C106 1_555 1_555
C116 C122 1_555 1_555
C119 C121 1_555 1_555
C121 C122 1_555 1_555

#END
