
#######################################################################
#
#                 Cambridge Crystallographic Data Centre
#                                CCDC 
#
#######################################################################
#
# If this CIF has been generated from an entry in the Cambridge 
# Structural Database, then it will include bibliographic, chemical, 
# crystal, experimental, refinement or atomic coordinate data resulting 
# from the CCDC's data processing and validation procedures.
#
#######################################################################

data_BOBRIU
_chemical_formula_moiety         
'C108 H150 N30 Pd6 12+,1.5(C16 H10),12(N1 O3 1-),14(H2 O1)'
_chemical_name_systematic        
"bis(\m~3~-2,4,6-tris(4-Pyridyl)-1,3,5-triazine)-tris(\m~2~-1,2-bis(4-pyridyl)ethene)-hexakis(N,N,N',N'-tetramethylethylenediamine)-hexa-palladium sesquikis(pyrene) clathrate dodecanitrate tetradecahydrate"
_symmetry_cell_setting           triclinic
_symmetry_space_group_name_H-M   'P -1'
_symmetry_Int_Tables_number      2
_space_group_name_Hall           '-P 1'
loop_
_symmetry_equiv_pos_site_id
_symmetry_equiv_pos_as_xyz
1 x,y,z
2 -x,-y,-z
_cell_length_a                   22.152(3)
_cell_length_b                   22.625(3)
_cell_length_c                   25.961(3)
_cell_angle_alpha                106.748(2)
_cell_angle_beta                 110.284(2)
_cell_angle_gamma                101.930(2)
_cell_volume                     10984.8
_exptl_crystal_colour            orange
_exptl_crystal_description       plate
_cell_formula_units_Z            2
loop_
_atom_site_label
_atom_site_type_symbol
_atom_site_fract_x
_atom_site_fract_y
_atom_site_fract_z
Pd1 Pd 0.33620(7) 0.58740(5) -0.27093(4)
Pd2 Pd 0.87420(4) 1.14610(4) 0.02129(4)
Pd3 Pd 0.26292(4) 1.16715(4) -0.14895(4)
Pd4 Pd 0.33511(5) 0.60000(4) 0.24823(4)
Pd5 Pd 0.80635(4) 1.18597(4) 0.52208(4)
Pd6 Pd 0.16844(4) 1.13879(4) 0.32601(3)
N1 N 0.3806(6) 0.6870(5) -0.2300(4)
N2 N 0.7730(4) 1.0927(4) -0.0300(4)
N3 N 0.3223(4) 1.1096(4) -0.1496(4)
N4 N 0.5347(4) 0.9228(4) -0.1352(4)
N5 N 0.5198(4) 1.0272(4) -0.1170(3)
N6 N 0.4232(4) 0.9291(4) -0.1630(3)
C1 C 0.4463(7) 0.7146(6) -0.2061(5)
C2 C 0.4804(7) 0.7853(6) -0.1800(5)
C3 C 0.4373(6) 0.8239(5) -0.1824(4)
C4 C 0.3674(7) 0.7930(6) -0.2067(6)
C5 C 0.3400(7) 0.7250(6) -0.2293(6)
C6 C 0.7290(5) 1.1249(5) -0.0358(4)
C7 C 0.6577(5) 1.0916(5) -0.0651(4)
C8 C 0.6331(5) 1.0239(5) -0.0874(4)
C9 C 0.6791(5) 0.9904(5) -0.0817(4)
C10 C 0.7476(5) 1.0251(5) -0.0526(4)
C11 C 0.2947(6) 1.0411(6) -0.1734(5)
C12 C 0.3334(5) 1.0042(5) -0.1719(5)
C13 C 0.4068(5) 1.0337(5) -0.1443(4)
C14 C 0.4348(5) 1.1020(5) -0.1198(4)
C15 C 0.3912(5) 1.1403(5) -0.1215(4)
C16 C 0.4664(5) 0.8947(5) -0.1595(4)
C17 C 0.5583(5) 0.9896(4) -0.1154(4)
C18 C 0.4513(5) 0.9931(5) -0.1425(4)
N7 N 0.3626(5) 0.7008(4) 0.2782(4)
N8 N 0.7068(5) 1.1273(5) 0.4749(4)
N9 N 0.2367(4) 1.0916(4) 0.3396(4)
N10 N 0.4819(4) 0.9421(4) 0.3641(3)
N11 N 0.4509(4) 1.0374(4) 0.3781(3)
N12 N 0.3641(4) 0.9313(4) 0.3320(3)
C19 C 0.4272(6) 0.7388(5) 0.3042(5)
C20 C 0.4468(6) 0.8055(6) 0.3240(5)
C21 C 0.3966(5) 0.8347(4) 0.3164(4)
C22 C 0.3306(6) 0.7951(5) 0.2877(5)
C23 C 0.3141(6) 0.7260(5) 0.2684(5)
C24 C 0.6561(5) 1.1560(5) 0.4639(4)
C25 C 0.5879(5) 1.1164(5) 0.4323(4)
C26 C 0.5709(5) 1.0503(5) 0.4132(4)
C27 C 0.6224(5) 1.0233(5) 0.4225(4)
C28 C 0.6894(5) 1.0630(5) 0.4539(4)
C29 C 0.2171(5) 1.0237(5) 0.3134(5)
C30 C 0.2662(5) 0.9939(5) 0.3193(4)
C31 C 0.3323(5) 1.0285(4) 0.3501(4)
C32 C 0.3530(6) 1.0967(5) 0.3769(4)
C33 C 0.3031(5) 1.1258(5) 0.3700(4)
C34 C 0.4155(5) 0.9062(4) 0.3387(4)
C35 C 0.4965(5) 1.0073(5) 0.3830(4)
C36 C 0.3861(5) 0.9980(5) 0.3535(4)
N13 N 0.2638(4) 1.1603(4) -0.0722(4)
N14 N 0.1791(4) 1.1348(4) 0.2497(3)
C37 C 0.3157(5) 1.1993(5) -0.0189(5)
C38 C 0.3160(6) 1.1991(6) 0.0336(5)
C39 C 0.2625(5) 1.1579(5) 0.0341(4)
C40 C 0.2092(5) 1.1131(5) -0.0210(4)
C41 C 0.2116(5) 1.1153(5) -0.0737(5)
C42 C 0.2626(6) 1.1607(5) 0.0910(4)
C43 C 0.1336(5) 1.0921(5) 0.1970(4)
C44 C 0.1418(5) 1.0911(5) 0.1461(4)
C45 C 0.1986(5) 1.1328(5) 0.1496(4)
C46 C 0.2459(5) 1.1783(6) 0.2061(4)
C47 C 0.2359(5) 1.1784(5) 0.2559(4)
C48 C 0.2032(5) 1.1281(5) 0.0941(4)
N15 N 0.8574(4) 1.1444(5) 0.0941(4)
N16 N 0.8102(5) 1.1795(6) 0.4438(5)
C49 C 0.8693(6) 1.0967(6) 0.1147(5)
C50 C 0.8579(6) 1.0959(8) 0.1630(5)
C51 C 0.8325(6) 1.1416(8) 0.1906(6)
C52 C 0.8185(6) 1.1845(7) 0.1676(6)
C53 C 0.8336(7) 1.1870(7) 0.1183(5)
C54 C 0.8273(7) 1.1365(10) 0.2445(7)
C55 C 0.7990(8) 1.2312(9) 0.4221(7)
C56 C 0.8001(10) 1.2294(9) 0.3704(7)
C57 C 0.8122(8) 1.1760(10) 0.3374(7)
C58 C 0.8173(7) 1.1264(8) 0.3549(7)
C59 C 0.8164(8) 1.1269(9) 0.4103(6)
C60 C 0.8181(9) 1.1809(8) 0.2802(8)
N17 N 0.3253(12) 0.5877(15) -0.1938(10)
N18 N 0.3478(14) 0.601(2) 0.1740(12)
C61 C 0.2683(13) 0.586(2) -0.1878(12)
C62 C 0.2650(12) 0.5849(18) -0.1364(10)
C63 C 0.3171(12) 0.5825(16) -0.0917(9)
C64 C 0.3776(12) 0.5842(16) -0.0972(11)
C65 C 0.3780(14) 0.581(2) -0.1529(12)
C66 C 0.3118(12) 0.5877(11) -0.0361(8)
C67 C 0.4054(14) 0.599(2) 0.1697(12)
C68 C 0.4119(13) 0.6036(16) 0.1185(10)
C69 C 0.3575(12) 0.6002(13) 0.0697(9)
C70 C 0.2977(12) 0.5960(17) 0.0744(10)
C71 C 0.2952(13) 0.604(2) 0.1294(11)
C72 C 0.3683(12) 0.5950(12) 0.0157(8)
N19 N 0.8909(5) 1.1473(5) -0.0528(4)
N20 N 0.9761(5) 1.2061(5) 0.0724(5)
N21 N 0.3320(6) 0.5977(5) 0.3270(5)
N22 N 0.3077(6) 0.4981(5) 0.2186(5)
N23 N 0.8048(5) 1.1926(5) 0.6026(4)
N24 N 0.9098(5) 1.2417(5) 0.5708(4)
N25 N 0.1584(5) 1.1430(6) 0.4028(5)
N26 N 0.1019(4) 1.1910(5) 0.3135(4)
C73 C 0.3024(11) 0.5178(11) -0.3925(10)
C74 C 0.2734(15) 0.4749(15) -0.3793(13)
C75 C 0.9629(8) 1.1945(8) -0.0288(7)
C76 C 1.0027(12) 1.2021(12) 0.0256(10)
C77 C 0.8462(8) 1.1751(8) -0.0870(7)
C78 C 0.8837(7) 1.0838(6) -0.0892(6)
C79 C 0.9776(11) 1.2707(11) 0.0948(10)
C80 C 1.0137(9) 1.1852(9) 0.1175(8)
C81 C 0.2111(12) 1.2075(12) -0.2440(11)
C82 C 0.2039(9) 1.2509(9) -0.1960(8)
C83 C 0.3121(12) 0.4836(11) 0.2709(10)
C84 C 0.3110(15) 0.5269(14) 0.3148(13)
C85 C 0.3996(10) 0.6235(10) 0.3734(9)
C86 C 0.2866(9) 0.6305(10) 0.3452(8)
C87 C 0.3548(10) 0.4762(10) 0.1965(9)
C88 C 0.2397(11) 0.4704(12) 0.1743(10)
C89 C 0.9212(8) 1.2695(8) 0.6353(7)
C90 C 0.8791(6) 1.2186(7) 0.6472(6)
C91 C 0.9311(8) 1.2932(8) 0.5536(7)
C92 C 0.9531(10) 1.2052(10) 0.5648(9)
C93 C 0.7705(7) 1.2420(7) 0.6183(6)
C94 C 0.7680(7) 1.1323(7) 0.6044(6)
C95 C 0.1085(10) 1.1777(10) 0.4050(9)
C96 C 0.0853(11) 1.2040(12) 0.3671(10)
C97 C 0.0416(9) 1.1586(9) 0.2600(8)
C98 C 0.1370(11) 1.2530(11) 0.3188(10)
C99 C 0.1256(9) 1.0766(8) 0.3992(8)
C100 C 0.2282(7) 1.1825(8) 0.4581(7)
C101 C 0.2309(10) 1.2857(10) -0.0918(9)
N27 N 0.2052(5) 1.2273(6) -0.1488(6)
C102 C 0.1355(10) 1.1925(10) -0.1590(9)
C103 C 0.3270(13) 1.2138(14) -0.2171(12)
N28 N 0.2613(5) 1.1774(6) -0.2248(5)
C104 C 0.2578(13) 1.1011(13) -0.2827(12)
C105 C 0.4049(12) 0.6214(12) -0.3451(11)
N29 N 0.3341(7) 0.5869(7) -0.3515(6)
C106 C 0.2833(11) 0.6149(11) -0.3764(10)
C107 C 0.3353(15) 0.4553(16) -0.2980(14)
N30 N 0.2930(9) 0.4873(9) -0.3158(8)
C108 C 0.2206(16) 0.4566(18) -0.3109(16)
H1 H 0.4737 0.6873 -0.2055
H2 H 0.5289 0.8047 -0.1623
H3 H 0.3380 0.8183 -0.2080
H4 H 0.2919 0.7044 -0.2446
H5 H 0.7459 1.1715 -0.0198
H6 H 0.6270 1.1154 -0.0694
H7 H 0.6631 0.9438 -0.0979
H8 H 0.7789 1.0018 -0.0478
H9 H 0.2464 1.0205 -0.1913
H10 H 0.3128 0.9577 -0.1891
H11 H 0.4831 1.1231 -0.1021
H12 H 0.4102 1.1869 -0.1031
H13 H 0.4615 0.7190 0.3094
H14 H 0.4940 0.8316 0.3426
H15 H 0.2951 0.8134 0.2804
H16 H 0.2675 0.6981 0.2484
H17 H 0.6684 1.2024 0.4781
H18 H 0.5531 1.1355 0.4241
H19 H 0.6111 0.9769 0.4070
H20 H 0.7242 1.0438 0.4608
H21 H 0.1700 0.9978 0.2913
H22 H 0.2522 0.9475 0.3007
H23 H 0.4002 1.1227 0.3992
H24 H 0.3170 1.1723 0.3880
H25 H 0.3542 1.2285 -0.0176
H26 H 0.3540 1.2282 0.0703
H27 H 0.1719 1.0818 -0.0226
H28 H 0.1759 1.0847 -0.1111
H29 H 0.3036 1.1850 0.1268
H30 H 0.0944 1.0613 0.1934
H31 H 0.1071 1.0608 0.1080
H32 H 0.2853 1.2096 0.2107
H33 H 0.2689 1.2091 0.2945
H34 H 0.1638 1.1014 0.0577
H35 H 0.8852 1.0648 0.0959
H36 H 0.8673 1.0638 0.1784
H37 H 0.7985 1.2140 0.1835
H38 H 0.8260 1.2199 0.1034
H39 H 0.8311 1.0987 0.2525
H40 H 0.7908 1.2668 0.4453
H41 H 0.7929 1.2631 0.3566
H42 H 0.8217 1.0892 0.3298
H43 H 0.8200 1.0912 0.4221
H44 H 0.8147 1.2188 0.2721
H45 H 0.2298 0.5862 -0.2190
H46 H 0.2243 0.5858 -0.1321
H47 H 0.4174 0.5877 -0.0650
H48 H 0.4149 0.5733 -0.1612
H49 H 0.2693 0.5863 -0.0345
H50 H 0.4414 0.5952 0.2001
H51 H 0.4551 0.6090 0.1176
H52 H 0.2572 0.5875 0.0404
H53 H 0.2571 0.6119 0.1353
H54 H 0.4114 0.5964 0.0156
H55 H 0.2681 0.5158 -0.4302
H56 H 0.3384 0.5042 -0.4017
H57 H 0.2811 0.4339 -0.3975
H58 H 0.2236 0.4663 -0.3986
H59 H 0.9835 1.1782 -0.0558
H60 H 0.9606 1.2378 -0.0287
H61 H 1.0424 1.2427 0.0420
H62 H 1.0206 1.1652 0.0216
H63 H 0.8556 1.1751 -0.1212
H64 H 0.8549 1.2203 -0.0615
H65 H 0.7983 1.1487 -0.1012
H66 H 0.8917 1.0856 -0.1236
H67 H 0.8373 1.0539 -0.1031
H68 H 0.9170 1.0680 -0.0660
H69 H 1.0251 1.3002 0.1195
H70 H 0.9521 1.2740 0.1192
H71 H 0.9565 1.2833 0.0616
H72 H 1.0612 1.2153 0.1397
H73 H 1.0129 1.1406 0.0983
H74 H 0.9925 1.1855 0.1449
H75 H 0.2242 1.2324 -0.2665
H76 H 0.1662 1.1726 -0.2716
H77 H 0.1601 1.2586 -0.2124
H78 H 0.2414 1.2936 -0.1780
H79 H 0.2736 0.4428 0.2572
H80 H 0.3549 0.4740 0.2864
H81 H 0.3398 0.5225 0.3514
H82 H 0.2635 0.5137 0.3106
H83 H 0.3979 0.6222 0.4103
H84 H 0.4210 0.6690 0.3796
H85 H 0.4264 0.5970 0.3622
H86 H 0.2877 0.6269 0.3822
H87 H 0.2396 0.6091 0.3136
H88 H 0.3026 0.6769 0.3517
H89 H 0.3410 0.4282 0.1822
H90 H 0.4013 0.4959 0.2288
H91 H 0.3536 0.4896 0.1635
H92 H 0.2257 0.4224 0.1593
H93 H 0.2364 0.4844 0.1413
H94 H 0.2096 0.4851 0.1913
H95 H 0.9703 1.2824 0.6622
H96 H 0.9076 1.3091 0.6432
H97 H 0.8828 1.2380 0.6880
H98 H 0.8972 1.1818 0.6449
H99 H 0.9802 1.3172 0.5783
H100 H 0.9057 1.3233 0.5591
H101 H 0.9222 1.2749 0.5115
H102 H 1.0010 1.2341 0.5886
H103 H 0.9441 1.1862 0.5227
H104 H 0.9444 1.1700 0.5788
H105 H 0.7694 1.2466 0.6566
H106 H 0.7236 1.2267 0.5871
H107 H 0.7962 1.2846 0.6212
H108 H 0.7713 1.1410 0.6447
H109 H 0.7882 1.0986 0.5939
H110 H 0.7197 1.1167 0.5759
H111 H 0.0681 1.1460 0.4022
H112 H 0.1295 1.2131 0.4453
H113 H 0.1025 1.2521 0.3896
H114 H 0.0348 1.1891 0.3518
H115 H 0.0129 1.1862 0.2574
H116 H 0.0166 1.1169 0.2591
H117 H 0.0533 1.1500 0.2260
H118 H 0.1056 1.2779 0.3127
H119 H 0.1547 1.2481 0.2886
H120 H 0.1751 1.2766 0.3587
H121 H 0.1217 1.0805 0.4364
H122 H 0.1537 1.0494 0.3932
H123 H 0.0800 1.0561 0.3656
H124 H 0.2227 1.1845 0.4943
H125 H 0.2445 1.2271 0.4600
H126 H 0.2615 1.1609 0.4549
H127 H 0.1999 1.3111 -0.0963
H128 H 0.2768 1.3134 -0.0822
H129 H 0.2328 1.2710 -0.0595
H130 H 0.1098 1.2229 -0.1579
H131 H 0.1380 1.1757 -0.1278
H132 H 0.1123 1.1558 -0.1981
H133 H 0.3235 1.2163 -0.2550
H134 H 0.3597 1.1918 -0.2042
H135 H 0.3429 1.2583 -0.1867
H136 H 0.2572 1.1100 -0.3176
H137 H 0.2163 1.0648 -0.2948
H138 H 0.2982 1.0893 -0.2655
H139 H 0.4016 0.6201 -0.3841
H140 H 0.4363 0.5992 -0.3302
H141 H 0.4221 0.6672 -0.3169
H142 H 0.2820 0.6153 -0.4145
H143 H 0.2955 0.6599 -0.3485
H144 H 0.2382 0.5883 -0.3832
H145 H 0.3114 0.4079 -0.3203
H146 H 0.3501 0.4659 -0.2552
H147 H 0.3754 0.4687 -0.3055
H148 H 0.2023 0.4088 -0.3326
H149 H 0.1870 0.4757 -0.3284
H150 H 0.2302 0.4673 -0.2689
C109 C 0.6022(6) 1.1039(6) 0.0481(5)
C110 C 0.5938(6) 1.0324(6) 0.0300(6)
C111 C 0.5292(5) 0.9896(5) 0.0050(5)
C112 C 0.5184(5) 0.9186(5) -0.0143(5)
C113 C 0.5485(5) 1.1229(6) 0.0382(5)
C114 C 0.5720(6) 0.9001(6) -0.0052(6)
C115 C 0.6400(6) 0.9450(6) 0.0223(6)
C116 C 0.6528(6) 1.0156(6) 0.0414(6)
H151 H 0.6468 1.1358 0.0669
H152 H 0.5562 1.1685 0.0483
H153 H 0.5650 0.8545 -0.0176
H154 H 0.6773 0.9290 0.0284
H155 H 0.6975 1.0473 0.0599
C109A C 0.3978(6) 0.8961(6) -0.0481(5)
C110A C 0.4062(6) 0.9676(6) -0.0300(6)
C111A C 0.4708(5) 1.0104(5) -0.0050(5)
C112A C 0.4816(5) 1.0814(5) 0.0143(5)
C113A C 0.4515(5) 0.8771(6) -0.0382(5)
C114A C 0.4280(6) 1.0999(6) 0.0052(6)
C115A C 0.3600(6) 1.0550(6) -0.0223(6)
C116A C 0.3472(6) 0.9844(6) -0.0414(6)
H151A H 0.3532 0.8642 -0.0669
H152A H 0.4438 0.8315 -0.0483
H153A H 0.4350 1.1455 0.0176
H154A H 0.3227 1.0710 -0.0284
H155A H 0.3025 0.9527 -0.0599
C117 C 0.6086(8) 1.0810(8) -0.2111(9)
C118 C 0.6154(7) 1.0139(7) -0.2228(8)
C119 C 0.5583(5) 0.9636(6) -0.2492(7)
C120 C 0.5619(7) 0.8964(7) -0.2654(7)
C121 C 0.5028(7) 0.8451(9) -0.2914(9)
C122 C 0.6206(8) 0.8904(9) -0.2540(9)
C123 C 0.6858(9) 0.9478(8) -0.2207(9)
C124 C 0.6820(9) 1.0150(9) -0.2065(10)
C125 C 0.4356(8) 0.8463(8) -0.3088(8)
C126 C 0.4328(9) 0.9159(8) -0.2914(8)
C127 C 0.4924(6) 0.9673(7) -0.2645(6)
C128 C 0.4839(8) 1.0335(7) -0.2527(7)
C129 C 0.5439(6) 1.0841(7) -0.2241(7)
C130 C 0.4250(9) 1.0401(10) -0.2675(10)
C131 C 0.3624(11) 0.9825(10) -0.2980(12)
C132 C 0.3664(8) 0.9151(8) -0.3084(7)
H156 H 0.6473 1.1195 -0.1953
H157 H 0.5072 0.8029 -0.2988
H158 H 0.6230 0.8475 -0.2672
H159 H 0.7288 0.9415 -0.2088
H160 H 0.7207 1.0540 -0.1884
H161 H 0.3961 0.8079 -0.3293
H162 H 0.5410 1.1268 -0.2115
H163 H 0.4218 1.0828 -0.2586
H164 H 0.3190 0.9879 -0.3114
H165 H 0.3278 0.8764 -0.3247
N31 N 0.7215(11) 1.3378(11) 0.5037(10)
O1 O 0.7665(7) 1.3233(7) 0.5264(6)
O2 O 0.7065(8) 1.3898(8) 0.5260(7)
O3 O 0.6675(9) 1.2988(9) 0.4593(8)
N32 N 0.9468(5) 0.9955(5) 0.0376(4)
O4 O 0.9069(4) 1.0188(4) 0.0095(3)
O5 O 0.9541(4) 0.9443(4) 0.0091(4)
O6 O 0.9760(4) 1.0211(4) 0.0920(4)
N33 N 0.0942(8) 1.0029(7) -0.2624(7)
O7 O 0.1199(11) 0.9802(11) -0.2942(10)
O8 O 0.1285(8) 1.0323(8) -0.2146(8)
O9 O 0.0350(10) 1.0055(10) -0.2929(9)
N34 N 0.5626(6) 1.1540(5) 0.5477(5)
O10 O 0.5996(6) 1.1168(6) 0.5566(6)
O11 O 0.5962(5) 1.2095(5) 0.5615(5)
O12 O 0.4977(7) 1.1319(7) 0.5239(6)
N35 N 0.2061(8) 0.3072(8) 0.1876(7)
O13 O 0.1902(7) 0.3083(7) 0.2306(6)
O14 O 0.2619(7) 0.3132(8) 0.1888(7)
O15 O 0.1563(11) 0.3001(12) 0.1393(9)
N36 N 0.319(2) 0.734(2) -0.0940(19)
O16 O 0.276(2) 0.730(2) -0.1347(14)
O17 O 0.3658(17) 0.7253(18) -0.1039(15)
O18 O 0.3305(13) 0.7509(13) -0.0299(11)
O19 O 0.4833(11) 0.4702(11) 0.5558(10)
O20 O 0.1838(11) 0.5931(11) -0.3125(10)
O21 O 0.5862(19) 0.696(2) 0.0691(17)
O22 O 0.6185(15) 0.8426(16) 0.4594(14)
O23 O 0.4871(14) 1.2836(14) 0.0670(13)
O24 O 0.1790(12) 0.4641(13) 0.3659(11)
O25 O 0.4198(12) 0.5496(12) 0.4936(11)
O26 O 0.0991(8) 0.3700(9) 0.2504(8)
O27 O 0.3998(5) 1.0096(5) 0.4743(4)
O28 O 0.2902(6) 1.0523(6) 0.4741(5)
O29 O 1.0422(8) 1.1078(8) -0.1039(7)
O30 O 0.3108(8) 0.2881(9) 0.4037(7)
O31 O 1.1205(10) 1.2294(10) -0.0368(9)
O32 O 0.2778(10) 0.4129(10) -0.1859(9)
O33 O 0.1496(13) 0.2557(13) -0.3901(11)
O34 O 0.9827(10) 1.3081(10) 0.2449(9)
O35 O 0.5304(17) 0.5950(18) -0.1970(16)
O36 O 0.5125(8) 0.6238(8) 0.3090(7)
O37 O 0.8356(10) 1.0308(11) 0.5264(9)
O38 O 0.1706(9) 0.8182(9) 0.2342(8)
O39 O 0.5356(11) 0.7578(11) 0.2471(10)
O40 O 0.5952(16) 0.7183(16) 0.4259(14)
O41 O 0.342(2) 1.247(2) -0.358(2)
O42 O 0.4835(13) 0.4832(13) 0.6699(11)
O43 O 0.1618(12) 0.5959(12) 0.1804(11)
O44 O 0.9827(8) 1.2382(8) 0.4391(7)
O45 O 0.3141(8) 0.3636(8) 0.3390(7)
O46 O 0.9744(11) 1.3046(11) 0.3560(10)
O47 O 0.0371(12) 0.9677(13) 0.2224(11)
O48 O 0.1987(19) 0.354(2) -0.5033(18)
O49 O 0.4002(15) 1.3342(15) -0.2589(13)
O50 O 0.2938(10) 0.4535(10) 0.4231(9)
O51 O 0.0951(12) 0.3169(13) -0.4616(11)
O52 O 0.1409(12) 0.5773(13) 0.3802(11)
O53 O 0.4993(12) 0.7493(13) 0.1404(11)
O54 O 0.6382(16) 1.2461(17) -0.1670(15)
O55 O 0.8851(17) 1.3646(17) 0.2000(15)
N37? N 0.3298(13) 0.601(2) 0.1682(11)
N38? N 0.3470(14) 0.5850(16) -0.1924(10)
C133? C 0.2716(12) 0.5950(18) 0.1245(11)
C134? C 0.2679(13) 0.5981(15) 0.0721(10)
C135? C 0.3209(12) 0.5990(13) 0.0573(8)
C136? C 0.3804(12) 0.5998(14) 0.0993(9)
C137? C 0.3850(13) 0.6019(18) 0.1563(10)
C138? C 0.3119(12) 0.5975(12) -0.0014(8)
C139? C 0.4014(16) 0.581(2) -0.1529(12)
C140? C 0.4019(15) 0.5772(19) -0.1000(11)
C141? C 0.3506(13) 0.5853(15) -0.0834(9)
C142? C 0.2943(13) 0.5860(18) -0.1268(11)
C143? C 0.2928(15) 0.588(2) -0.1812(12)
C144? C 0.3610(13) 0.5873(11) -0.0237(8)
N39? N 0.2314(14) 0.2972(12) 0.1213(12)
O56? O 0.2445(15) 0.3019(15) 0.0781(12)
O57? O 0.2764(14) 0.3101(16) 0.1684(12)
O58? O 0.1714(13) 0.2828(17) 0.1216(14)
O59? O 0.270(3) 0.730(3) -0.077(3)
O60? O 0.5036(17) 0.7213(18) -0.0305(16)
H166? H 0.2312 0.5882 0.1305
H167? H 0.2269 0.5997 0.0451
H168? H 0.4184 0.5989 0.0904
H169? H 0.4264 0.6038 0.1855
H170? H 0.2721 0.6034 -0.0256
H171? H 0.4404 0.5815 -0.1604
H172? H 0.4387 0.5685 -0.0748
H173? H 0.2546 0.5851 -0.1202
H174? H 0.2540 0.5917 -0.2093
H175? H 0.4011 0.5817 0.0003
loop_
_geom_bond_atom_site_label_1
_geom_bond_atom_site_label_2
_geom_bond_site_symmetry_1
_geom_bond_site_symmetry_2
Pd1 N1 1_555 1_555
Pd2 N2 1_555 1_555
Pd3 N3 1_555 1_555
Pd4 N7 1_555 1_555
Pd5 N8 1_555 1_555
Pd6 N9 1_555 1_555
N1 C1 1_555 1_555
N2 C6 1_555 1_555
N3 C11 1_555 1_555
N4 C16 1_555 1_555
N5 C17 1_555 1_555
N6 C16 1_555 1_555
C1 C2 1_555 1_555
C2 C3 1_555 1_555
C3 C4 1_555 1_555
C4 C5 1_555 1_555
C5 N1 1_555 1_555
C6 C7 1_555 1_555
C7 C8 1_555 1_555
C8 C9 1_555 1_555
C9 C10 1_555 1_555
C10 N2 1_555 1_555
C11 C12 1_555 1_555
C12 C13 1_555 1_555
C13 C14 1_555 1_555
C14 C15 1_555 1_555
C15 N3 1_555 1_555
C16 C3 1_555 1_555
C17 N4 1_555 1_555
C18 N5 1_555 1_555
N7 C19 1_555 1_555
N8 C24 1_555 1_555
N9 C29 1_555 1_555
N10 C34 1_555 1_555
N11 C35 1_555 1_555
N12 C34 1_555 1_555
C19 C20 1_555 1_555
C20 C21 1_555 1_555
C21 C22 1_555 1_555
C22 C23 1_555 1_555
C23 N7 1_555 1_555
C24 C25 1_555 1_555
C25 C26 1_555 1_555
C26 C27 1_555 1_555
C27 C28 1_555 1_555
C28 N8 1_555 1_555
C29 C30 1_555 1_555
C30 C31 1_555 1_555
C31 C32 1_555 1_555
C32 C33 1_555 1_555
C33 N9 1_555 1_555
C34 C21 1_555 1_555
C35 N10 1_555 1_555
C36 N11 1_555 1_555
N13 Pd3 1_555 1_555
N14 Pd6 1_555 1_555
C37 N13 1_555 1_555
C38 C37 1_555 1_555
C39 C38 1_555 1_555
C40 C39 1_555 1_555
C41 N13 1_555 1_555
C42 C39 1_555 1_555
C43 N14 1_555 1_555
C44 C43 1_555 1_555
C45 C44 1_555 1_555
C46 C45 1_555 1_555
C47 N14 1_555 1_555
C48 C42 1_555 1_555
N15 Pd2 1_555 1_555
N16 Pd5 1_555 1_555
C49 N15 1_555 1_555
C50 C49 1_555 1_555
C51 C50 1_555 1_555
C52 C51 1_555 1_555
C53 N15 1_555 1_555
C54 C51 1_555 1_555
C55 N16 1_555 1_555
C56 C55 1_555 1_555
C57 C56 1_555 1_555
C58 C57 1_555 1_555
C59 N16 1_555 1_555
C60 C54 1_555 1_555
N17 Pd1 1_555 1_555
N18 Pd4 1_555 1_555
C61 N17 1_555 1_555
C62 C61 1_555 1_555
C63 C62 1_555 1_555
C64 C63 1_555 1_555
C65 N17 1_555 1_555
C66 C63 1_555 1_555
C67 N18 1_555 1_555
C68 C67 1_555 1_555
C69 C68 1_555 1_555
C70 C69 1_555 1_555
C71 N18 1_555 1_555
C72 C66 1_555 1_555
N19 Pd2 1_555 1_555
N20 Pd2 1_555 1_555
N21 Pd4 1_555 1_555
N22 Pd4 1_555 1_555
N23 Pd5 1_555 1_555
N24 Pd5 1_555 1_555
N25 Pd6 1_555 1_555
N26 Pd6 1_555 1_555
C73 C74 1_555 1_555
C74 N30 1_555 1_555
C75 N19 1_555 1_555
C76 N20 1_555 1_555
C77 N19 1_555 1_555
C78 N19 1_555 1_555
C79 N20 1_555 1_555
C80 N20 1_555 1_555
C81 C82 1_555 1_555
C82 N27 1_555 1_555
C83 N22 1_555 1_555
C84 N21 1_555 1_555
C85 N21 1_555 1_555
C86 N21 1_555 1_555
C87 N22 1_555 1_555
C88 N22 1_555 1_555
C89 N24 1_555 1_555
C90 N23 1_555 1_555
C91 N24 1_555 1_555
C92 N24 1_555 1_555
C93 N23 1_555 1_555
C94 N23 1_555 1_555
C95 N25 1_555 1_555
C96 N26 1_555 1_555
C97 N26 1_555 1_555
C98 N26 1_555 1_555
C99 N25 1_555 1_555
C100 N25 1_555 1_555
C101 N27 1_555 1_555
N27 Pd3 1_555 1_555
C102 N27 1_555 1_555
C103 N28 1_555 1_555
N28 Pd3 1_555 1_555
C104 N28 1_555 1_555
C105 N29 1_555 1_555
N29 Pd1 1_555 1_555
C106 N29 1_555 1_555
C107 N30 1_555 1_555
N30 Pd1 1_555 1_555
C108 N30 1_555 1_555
H1 C1 1_555 1_555
H2 C2 1_555 1_555
H3 C4 1_555 1_555
H4 C5 1_555 1_555
H5 C6 1_555 1_555
H6 C7 1_555 1_555
H7 C9 1_555 1_555
H8 C10 1_555 1_555
H9 C11 1_555 1_555
H10 C12 1_555 1_555
H11 C14 1_555 1_555
H12 C15 1_555 1_555
H13 C19 1_555 1_555
H14 C20 1_555 1_555
H15 C22 1_555 1_555
H16 C23 1_555 1_555
H17 C24 1_555 1_555
H18 C25 1_555 1_555
H19 C27 1_555 1_555
H20 C28 1_555 1_555
H21 C29 1_555 1_555
H22 C30 1_555 1_555
H23 C32 1_555 1_555
H24 C33 1_555 1_555
H25 C37 1_555 1_555
H26 C38 1_555 1_555
H27 C40 1_555 1_555
H28 C41 1_555 1_555
H29 C42 1_555 1_555
H30 C43 1_555 1_555
H31 C44 1_555 1_555
H32 C46 1_555 1_555
H33 C47 1_555 1_555
H34 C48 1_555 1_555
H35 C49 1_555 1_555
H36 C50 1_555 1_555
H37 C52 1_555 1_555
H38 C53 1_555 1_555
H39 C54 1_555 1_555
H40 C55 1_555 1_555
H41 C56 1_555 1_555
H42 C58 1_555 1_555
H43 C59 1_555 1_555
H44 C60 1_555 1_555
H45 C61 1_555 1_555
H46 C62 1_555 1_555
H47 C64 1_555 1_555
H48 C65 1_555 1_555
H49 C66 1_555 1_555
H50 C67 1_555 1_555
H51 C68 1_555 1_555
H52 C70 1_555 1_555
H53 C71 1_555 1_555
H54 C72 1_555 1_555
H55 C73 1_555 1_555
H56 C73 1_555 1_555
H57 C74 1_555 1_555
H58 C74 1_555 1_555
H59 C75 1_555 1_555
H60 C75 1_555 1_555
H61 C76 1_555 1_555
H62 C76 1_555 1_555
H63 C77 1_555 1_555
H64 C77 1_555 1_555
H65 C77 1_555 1_555
H66 C78 1_555 1_555
H67 C78 1_555 1_555
H68 C78 1_555 1_555
H69 C79 1_555 1_555
H70 C79 1_555 1_555
H71 C79 1_555 1_555
H72 C80 1_555 1_555
H73 C80 1_555 1_555
H74 C80 1_555 1_555
H75 C81 1_555 1_555
H76 C81 1_555 1_555
H77 C82 1_555 1_555
H78 C82 1_555 1_555
H79 C83 1_555 1_555
H80 C83 1_555 1_555
H81 C84 1_555 1_555
H82 C84 1_555 1_555
H83 C85 1_555 1_555
H84 C85 1_555 1_555
H85 C85 1_555 1_555
H86 C86 1_555 1_555
H87 C86 1_555 1_555
H88 C86 1_555 1_555
H89 C87 1_555 1_555
H90 C87 1_555 1_555
H91 C87 1_555 1_555
H92 C88 1_555 1_555
H93 C88 1_555 1_555
H94 C88 1_555 1_555
H95 C89 1_555 1_555
H96 C89 1_555 1_555
H97 C90 1_555 1_555
H98 C90 1_555 1_555
H99 C91 1_555 1_555
H100 C91 1_555 1_555
H101 C91 1_555 1_555
H102 C92 1_555 1_555
H103 C92 1_555 1_555
H104 C92 1_555 1_555
H105 C93 1_555 1_555
H106 C93 1_555 1_555
H107 C93 1_555 1_555
H108 C94 1_555 1_555
H109 C94 1_555 1_555
H110 C94 1_555 1_555
H111 C95 1_555 1_555
H112 C95 1_555 1_555
H113 C96 1_555 1_555
H114 C96 1_555 1_555
H115 C97 1_555 1_555
H116 C97 1_555 1_555
H117 C97 1_555 1_555
H118 C98 1_555 1_555
H119 C98 1_555 1_555
H120 C98 1_555 1_555
H121 C99 1_555 1_555
H122 C99 1_555 1_555
H123 C99 1_555 1_555
H124 C100 1_555 1_555
H125 C100 1_555 1_555
H126 C100 1_555 1_555
H127 C101 1_555 1_555
H128 C101 1_555 1_555
H129 C101 1_555 1_555
H130 C102 1_555 1_555
H131 C102 1_555 1_555
H132 C102 1_555 1_555
H133 C103 1_555 1_555
H134 C103 1_555 1_555
H135 C103 1_555 1_555
H136 C104 1_555 1_555
H137 C104 1_555 1_555
H138 C104 1_555 1_555
H139 C105 1_555 1_555
H140 C105 1_555 1_555
H141 C105 1_555 1_555
H142 C106 1_555 1_555
H143 C106 1_555 1_555
H144 C106 1_555 1_555
H145 C107 1_555 1_555
H146 C107 1_555 1_555
H147 C107 1_555 1_555
H148 C108 1_555 1_555
H149 C108 1_555 1_555
H150 C108 1_555 1_555
C109 C110 1_555 1_555
C110 C111 1_555 1_555
C111 C112 1_555 1_555
C112 C114 1_555 1_555
C113 C109 1_555 1_555
C114 C115 1_555 1_555
C115 C116 1_555 1_555
C116 C110 1_555 1_555
H151 C109 1_555 1_555
H152 C113 1_555 1_555
H153 C114 1_555 1_555
H154 C115 1_555 1_555
H155 C116 1_555 1_555
C117 C118 1_555 1_555
C118 C119 1_555 1_555
C119 C120 1_555 1_555
C120 C121 1_555 1_555
C121 C125 1_555 1_555
C122 C120 1_555 1_555
C123 C122 1_555 1_555
C124 C118 1_555 1_555
C125 C126 1_555 1_555
C126 C127 1_555 1_555
C127 C119 1_555 1_555
C128 C127 1_555 1_555
C129 C117 1_555 1_555
C130 C128 1_555 1_555
C131 C130 1_555 1_555
C132 C126 1_555 1_555
H156 C117 1_555 1_555
H157 C121 1_555 1_555
H158 C122 1_555 1_555
H159 C123 1_555 1_555
H160 C124 1_555 1_555
H161 C125 1_555 1_555
H162 C129 1_555 1_555
H163 C130 1_555 1_555
H164 C131 1_555 1_555
H165 C132 1_555 1_555
N31 O1 1_555 1_555
O2 N31 1_555 1_555
O3 N31 1_555 1_555
N32 O4 1_555 1_555
O5 N32 1_555 1_555
O6 N32 1_555 1_555
N33 O7 1_555 1_555
O8 N33 1_555 1_555
O9 N33 1_555 1_555
N34 O10 1_555 1_555
O11 N34 1_555 1_555
O12 N34 1_555 1_555
N35 O13 1_555 1_555
O14 N35 1_555 1_555
O15 N35 1_555 1_555
N36 O16 1_555 1_555
O17 N36 1_555 1_555
O18 N36 1_555 1_555
C109A C110A 1_555 1_555
C110A C111A 1_555 1_555
C111A C111 1_555 1_555
C112A C113 1_555 1_555
C113A C112 1_555 1_555
C114A C112A 1_555 1_555
C115A C114A 1_555 1_555
C116A C110A 1_555 1_555
H151A C109A 1_555 1_555
H152A C113A 1_555 1_555
H153A C114A 1_555 1_555
H154A C115A 1_555 1_555
H155A C116A 1_555 1_555
N6 C18 1_555 1_555
C8 C17 1_555 1_555
C13 C18 1_555 1_555
N12 C36 1_555 1_555
C26 C35 1_555 1_555
C31 C36 1_555 1_555
C40 C41 1_555 1_555
C45 C48 1_555 1_555
C46 C47 1_555 1_555
C52 C53 1_555 1_555
C57 C60 1_555 1_555
C58 C59 1_555 1_555
C64 C65 1_555 1_555
C69 C72 1_555 1_555
C70 C71 1_555 1_555
C73 N29 1_555 1_555
C75 C76 1_555 1_555
C81 N28 1_555 1_555
C83 C84 1_555 1_555
C89 C90 1_555 1_555
C95 C96 1_555 1_555
C123 C124 1_555 1_555
C128 C129 1_555 1_555
C131 C132 1_555 1_555
C109A C113A 1_555 1_555
C111A C112A 1_555 1_555
C115A C116A 1_555 1_555

#END
