
#######################################################################
#
#                 Cambridge Crystallographic Data Centre
#                                CCDC 
#
#######################################################################
#
# If this CIF has been generated from an entry in the Cambridge 
# Structural Database, then it will include bibliographic, chemical, 
# crystal, experimental, refinement or atomic coordinate data resulting 
# from the CCDC's data processing and validation procedures.
#
#######################################################################

data_BOBZUP
_chemical_formula_moiety         
'C228 H240 Ga4 N24 O48 12-,12(K1 1+),54(C4 H8 O1)'
_chemical_name_systematic        
"dodeca-potassium hexakis(\m~2~-3,3'-(naphthalene-1,5-diyldicarbamoyl)bis(6-((3,3-dimethylbutan-2-yl)carbamoyl)benzene-1,2-diolato))-tetra-gallium tetrahydrofuran solvate"
_symmetry_cell_setting           rhombohedral
_symmetry_space_group_name_H-M   'R 3'
_symmetry_Int_Tables_number      146
_space_group_name_Hall           'R 3'
loop_
_symmetry_equiv_pos_site_id
_symmetry_equiv_pos_as_xyz
1 x,y,z
2 -y,x-y,z
3 -x+y,-x,z
4 2/3+x,1/3+y,1/3+z
5 2/3-y,1/3+x-y,1/3+z
6 2/3-x+y,1/3-x,1/3+z
7 1/3+x,2/3+y,2/3+z
8 1/3-y,2/3+x-y,2/3+z
9 1/3-x+y,2/3-x,2/3+z
_cell_length_a                   25.5125(13)
_cell_length_b                   25.5125(13)
_cell_length_c                   67.262(4)
_cell_angle_alpha                90
_cell_angle_beta                 90
_cell_angle_gamma                120
_cell_volume                     37914.6
_exptl_crystal_colour            yellow
_exptl_crystal_description       prism
_cell_formula_units_Z            3
loop_
_atom_site_label
_atom_site_type_symbol
_atom_site_fract_x
_atom_site_fract_y
_atom_site_fract_z
C1 C 0.9838(2) 0.4720(2) 0.27487(8)
C2 C 0.9858(2) 0.4258(3) 0.28521(10)
C3 C 0.9382(3) 0.3878(3) 0.29758(10)
H1 H 0.9395 0.3563 0.3046
C4 C 0.8885(3) 0.3960(3) 0.29961(9)
H2 H 0.8559 0.3700 0.3081
C5 C 0.8865(2) 0.4421(3) 0.28927(10)
C6 C 0.9341(3) 0.4801(2) 0.27690(9)
C7 C 1.0368(6) 0.4137(6) 0.28588(19)
C8 C 1.1320(3) 0.4405(3) 0.26688(9)
C9 C 1.1405(3) 0.3953(3) 0.27513(10)
H3 H 1.1134 0.3693 0.2850
C10 C 1.1884(4) 0.3881(3) 0.26888(12)
H4 H 1.1942 0.3572 0.2745
C11 C 1.2280(3) 0.4261(3) 0.25437(11)
H5 H 1.2607 0.4212 0.2501
C12 C 1.2195(2) 0.4713(2) 0.24611(8)
C13 C 1.1715(2) 0.4785(2) 0.25237(8)
C14 C 1.1631(3) 0.5237(3) 0.24411(11)
H6 H 1.1303 0.5286 0.2484
C15 C 1.2026(4) 0.5617(3) 0.22960(11)
H7 H 1.1968 0.5926 0.2240
C16 C 1.2506(3) 0.5545(3) 0.22335(10)
H8 H 1.2776 0.5805 0.2134
C17 C 1.2590(3) 0.5093(3) 0.23161(9)
C18 C 0.8333(5) 0.4544(5) 0.29052(16)
C19 C 0.7841(5) 0.5087(5) 0.28584(18)
H9 H 0.7754 0.5047 0.3004
C20 C 0.7354(7) 0.4684(7) 0.2754(2)
H10 H 0.7213 0.4276 0.2805
H11 H 0.7465 0.4702 0.2613
H12 H 0.7030 0.4783 0.2766
C21 C 0.8140(5) 0.5776(6) 0.27874(16)
C22 C 0.8691(6) 0.6162(6) 0.2920(2)
H13 H 0.9000 0.6047 0.2898
H14 H 0.8566 0.6095 0.3060
H15 H 0.8858 0.6591 0.2887
C23 C 0.8300(7) 0.5884(7) 0.25649(17)
H16 H 0.7938 0.5626 0.2486
H17 H 0.8616 0.5784 0.2535
H18 H 0.8446 0.6310 0.2533
C24 C 0.7738(7) 0.6039(8) 0.2851(3)
H19 H 0.7349 0.5825 0.2781
H20 H 0.7941 0.6471 0.2817
H21 H 0.7669 0.5990 0.2995
C25 C 1.4079(3) 0.4830(4) 0.21732(9)
C26 C 1.3788(3) 0.4969(4) 0.20253(12)
C27 C 1.3979(4) 0.5024(6) 0.18289(10)
H22 H 1.3780 0.5119 0.1728
C28 C 1.4460(4) 0.4937(6) 0.17805(8)
H23 H 1.4591 0.4975 0.1646
C29 C 1.4751(3) 0.4798(4) 0.19284(11)
C30 C 1.4561(3) 0.4744(4) 0.21248(10)
C31 C 1.3213(5) 0.5018(7) 0.2073(2)
C32 C 1.5247(6) 0.4678(8) 0.1883(2)
C33 C 1.6067(5) 0.4524(7) 0.19933(16)
H24 H 1.6372 0.4865 0.1910
C34 C 1.5903(9) 0.3932(10) 0.1883(3)
H25 H 1.5725 0.3929 0.1754
H26 H 1.5611 0.3587 0.1962
H27 H 1.6270 0.3905 0.1864
C35 C 1.6337(8) 0.4570(12) 0.2184(3)
C36 C 1.5932(7) 0.4017(11) 0.2343(2)
H28 H 1.6165 0.4081 0.2465
H29 H 1.5835 0.3628 0.2284
H30 H 1.5556 0.4016 0.2374
C37 C 1.6954(7) 0.4445(10) 0.2167(2)
H31 H 1.7120 0.4464 0.2299
H32 H 1.7267 0.4757 0.2082
H33 H 1.6818 0.4045 0.2108
C38 C 1.6627(8) 0.5165(11) 0.2304(3)
H34 H 1.6781 0.5106 0.2430
H35 H 1.6323 0.5284 0.2330
H36 H 1.6962 0.5484 0.2227
C39 C 1.0059(3) 0.6743(3) 0.25598(10)
C40 C 0.9939(4) 0.7215(4) 0.25416(11)
C41 C 1.0101(5) 0.7638(3) 0.26934(15)
H37 H 1.0019 0.7961 0.2681
C42 C 1.0383(5) 0.7589(4) 0.28633(13)
H38 H 1.0494 0.7878 0.2967
C43 C 1.0504(4) 0.7117(4) 0.28815(10)
C44 C 1.0342(3) 0.6694(3) 0.27298(11)
C45 C 0.9656(9) 0.7259(10) 0.2381(3)
C46 C 0.9180(8) 0.6816(8) 0.2000(2)
H39 H 0.9387 0.7231 0.1940
C47 C 0.9281(5) 0.6415(5) 0.1872(2)
C48 C 0.8863(9) 0.6468(10) 0.1719(3)
H40 H 0.8775 0.6176 0.1612
H41 H 0.9063 0.6878 0.1664
H42 H 0.8484 0.6382 0.1784
C49 C 0.8925(7) 0.5780(6) 0.1964(2)
H43 H 0.8982 0.5493 0.1882
H44 H 0.8494 0.5654 0.1968
H45 H 0.9072 0.5787 0.2099
C50 C 0.9947(5) 0.6639(6) 0.1820(2)
H46 H 0.9972 0.6340 0.1736
H47 H 1.0176 0.6693 0.1943
H48 H 1.0116 0.7025 0.1750
C51 C 1.0938(7) 0.7092(7) 0.3054(2)
C52 C 1.1379(4) 0.5392(3) 0.35093(11)
C53 C 1.0857(4) 0.4897(3) 0.34354(13)
H49 H 1.0731 0.4503 0.3485
C54 C 1.0521(3) 0.4978(3) 0.32886(13)
H50 H 1.0164 0.4640 0.3238
C55 C 1.0706(3) 0.5555(4) 0.32158(11)
H51 H 1.0476 0.5610 0.3115
C56 C 1.1227(3) 0.6050(3) 0.32897(9)
C57 C 1.1564(3) 0.5969(3) 0.34364(8)
C58 C 1.2085(3) 0.6464(4) 0.35104(12)
H52 H 1.2315 0.6408 0.3611
C59 C 1.2270(4) 0.7040(3) 0.34375(16)
H53 H 1.2627 0.7379 0.3488
C60 C 1.1934(5) 0.7122(3) 0.32907(17)
H54 H 1.2061 0.7516 0.3241
C61 C 1.1413(4) 0.6627(3) 0.32168(13)
C62 C 1.1650(8) 0.4858(8) 0.3747(3)
C63 C 1.2077(4) 0.4914(4) 0.39143(13)
C64 C 1.2567(4) 0.5463(3) 0.39738(12)
C65 C 1.2909(3) 0.5487(3) 0.41378(12)
C66 C 1.2763(4) 0.4961(4) 0.42423(11)
C67 C 1.2273(5) 0.4412(3) 0.41828(15)
H55 H 1.2173 0.4052 0.4254
C68 C 1.1931(4) 0.4388(3) 0.40188(16)
H56 H 1.1597 0.4013 0.3978
C69 C 1.3304(8) 0.5088(8) 0.4407(2)
C70 C 1.4023(7) 0.5658(7) 0.4656(2)
H57 H 1.4116 0.5322 0.4660
C71 C 1.3717(7) 0.5628(8) 0.48564(15)
H58 H 1.3368 0.5222 0.4875
H59 H 1.3583 0.5926 0.4858
H60 H 1.4008 0.5716 0.4964
C72 C 1.4613(6) 0.6211(6) 0.46174(19)
C73 C 1.4410(9) 0.6684(10) 0.4640(3)
H61 H 1.4754 0.7088 0.4614
H62 H 1.4262 0.6668 0.4776
H63 H 1.4085 0.6596 0.4545
C74 C 1.5007(9) 0.6394(10) 0.44293(18)
H64 H 1.5326 0.6819 0.4439
H65 H 1.4755 0.6341 0.4313
H66 H 1.5191 0.6138 0.4416
C75 C 1.5050(8) 0.6328(8) 0.47917(19)
H67 H 1.5413 0.6726 0.4776
H68 H 1.5165 0.6015 0.4793
H69 H 1.4850 0.6317 0.4917
N1 N 1.0819(4) 0.4469(4) 0.27178(13)
H70 H 1.0785 0.4750 0.2653
N2 N 0.8296(3) 0.4929(3) 0.28095(12)
H71 H 0.8548 0.5111 0.2710
N3 N 1.3083(4) 0.5037(6) 0.22277(15)
H72 H 1.3324 0.5012 0.2316
N4 N 1.5554(3) 0.4621(4) 0.20214(11)
H73 H 1.5449 0.4642 0.2144
N5 N 0.9463(5) 0.6840(5) 0.22096(17)
H74 H 0.9521 0.6532 0.2230
N6 N 1.1048(4) 0.6744(5) 0.30860(13)
H75 H 1.0849 0.6436 0.3005
N7 N 1.1750(4) 0.5360(4) 0.36579(13)
H76 H 1.2073 0.5700 0.3694
N8 N 1.3595(5) 0.5506(6) 0.44856(14)
H77 H 1.3573 0.5818 0.4440
O1 O 1.0299(3) 0.5102(3) 0.26396(9)
O2 O 0.9360(3) 0.5223(3) 0.26611(9)
O3 O 1.3912(3) 0.4807(4) 0.23543(9)
O4 O 1.4786(2) 0.4569(3) 0.22726(8)
O5 O 0.9890(3) 0.6283(3) 0.24298(10)
O6 O 1.0510(3) 0.6287(3) 0.27355(9)
O7 O 1.2701(3) 0.5971(3) 0.38733(9)
O8 O 1.3335(4) 0.6037(4) 0.41911(12)
O9 O 1.0358(4) 0.3765(4) 0.29598(14)
O10 O 0.7941(3) 0.4176(3) 0.30602(12)
O11 O 1.2983(6) 0.5096(9) 0.1925(2)
O12 O 1.5587(5) 0.4906(7) 0.17005(18)
O13 O 0.9546(5) 0.7744(5) 0.23265(17)
O14 O 1.0874(7) 0.7571(7) 0.3181(2)
O15 O 1.1192(6) 0.4292(5) 0.3712(2)
O16 O 1.2936(8) 0.4419(8) 0.4484(3)
Ga1 Ga 1.01167(5) 0.56902(7) 0.25145(3)
Ga2 Ga 1.3333 0.6667 0.40291(4)
C76 C 0.8350(12) 0.6523(12) 0.2005(4)
H78 H 0.8265 0.6790 0.2087
H79 H 0.8143 0.6114 0.2062
H80 H 0.8202 0.6510 0.1870
C1A C 1.5280(2) 0.5118(3) 0.27487(8)
C2A C 1.5742(3) 0.5600(4) 0.28521(10)
C3A C 1.6122(3) 0.5504(4) 0.29758(10)
H1A H 1.6437 0.5832 0.3046
C4A C 1.6040(3) 0.4925(4) 0.29961(9)
H2A H 1.6300 0.4859 0.3081
C5A C 1.5579(3) 0.4444(4) 0.28927(10)
C6A C 1.5199(2) 0.4540(4) 0.27690(9)
C7A C 1.5863(6) 0.6231(8) 0.28588(19)
C8A C 1.5595(3) 0.6915(4) 0.26688(9)
C9A C 1.6047(3) 0.7452(4) 0.27513(10)
H3A H 1.6307 0.7441 0.2850
C10A C 1.6119(3) 0.8003(5) 0.26888(12)
H4A H 1.6428 0.8370 0.2745
C11A C 1.5739(3) 0.8019(4) 0.25437(11)
H5A H 1.5788 0.8395 0.2501
C12A C 1.5287(2) 0.7482(3) 0.24611(8)
C13A C 1.5215(2) 0.6930(3) 0.25237(8)
C14A C 1.4763(3) 0.6394(4) 0.24411(11)
H6A H 1.4714 0.6017 0.2484
C15A C 1.4383(3) 0.6409(5) 0.22960(11)
H7A H 1.4074 0.6042 0.2240
C16A C 1.4455(3) 0.6961(4) 0.22335(10)
H8A H 1.4195 0.6971 0.2134
C17A C 1.4907(3) 0.7497(4) 0.23161(9)
C18A C 1.5456(5) 0.3789(7) 0.29052(16)
C19A C 1.4913(5) 0.2754(7) 0.28584(18)
H9A H 1.4953 0.2707 0.3004
C20A C 1.5316(7) 0.2670(10) 0.2754(2)
H10A H 1.5724 0.2937 0.2805
H11A H 1.5298 0.2763 0.2613
H12A H 1.5217 0.2247 0.2766
C21A C 1.4224(6) 0.2364(8) 0.27874(16)
C22A C 1.3838(6) 0.2529(8) 0.2920(2)
H13A H 1.3953 0.2953 0.2898
H14A H 1.3905 0.2471 0.3060
H15A H 1.3409 0.2267 0.2887
C23A C 1.4116(7) 0.2416(10) 0.25649(17)
H16A H 1.4374 0.2312 0.2486
H17A H 1.4216 0.2832 0.2535
H18A H 1.3690 0.2136 0.2533
C24A C 1.3961(8) 0.1699(11) 0.2851(3)
H19A H 1.4175 0.1524 0.2781
H20A H 1.3529 0.1470 0.2817
H21A H 1.4010 0.1679 0.2995
C25A C 1.5170(4) 0.9249(5) 0.21732(9)
C26A C 1.5031(4) 0.8819(5) 0.20253(12)
C27A C 1.4976(6) 0.8955(7) 0.18289(10)
H22A H 1.4881 0.8661 0.1728
C28A C 1.5063(6) 0.9523(7) 0.17805(8)
H23A H 1.5025 0.9616 0.1646
C29A C 1.5202(4) 0.9953(5) 0.19284(11)
C30A C 1.5256(4) 0.9817(5) 0.21248(10)
C31A C 1.4982(7) 0.8195(9) 0.2073(2)
C32A C 1.5322(8) 1.0569(10) 0.1883(2)
C33A C 1.5476(7) 1.1543(9) 0.19933(16)
H24A H 1.5135 1.1507 0.1910
C34A C 1.6068(10) 1.1971(13) 0.1883(3)
H25A H 1.6071 1.1796 0.1754
H26A H 1.6413 1.2024 0.1962
H27A H 1.6095 1.2365 0.1864
C35A C 1.5430(12) 1.1767(14) 0.2184(3)
C36A C 1.5983(11) 1.1915(13) 0.2343(2)
H28A H 1.5919 1.2084 0.2465
H29A H 1.6372 1.2207 0.2284
H30A H 1.5984 1.1540 0.2374
C37A C 1.5555(10) 1.2509(12) 0.2167(2)
H31A H 1.5536 1.2656 0.2299
H32A H 1.5243 1.2510 0.2082
H33A H 1.5955 1.2773 0.2108
C38A C 1.4835(11) 1.1462(14) 0.2304(3)
H34A H 1.4894 1.1675 0.2430
H35A H 1.4716 1.1039 0.2330
H36A H 1.4516 1.1478 0.2227
C39A C 1.3257(3) 0.3316(4) 0.25598(10)
C40A C 1.2785(4) 0.2724(6) 0.25416(11)
C41A C 1.2362(3) 0.2463(6) 0.26934(15)
H37A H 1.2039 0.2058 0.2681
C42A C 1.2411(4) 0.2794(6) 0.28633(13)
H38A H 1.2122 0.2616 0.2967
C43A C 1.2883(4) 0.3387(6) 0.28815(10)
C44A C 1.3306(3) 0.3648(4) 0.27298(11)
C45A C 1.2741(10) 0.2397(13) 0.2381(3)
C46A C 1.3184(8) 0.2364(11) 0.2000(2)
H39A H 1.2769 0.2156 0.1940
C47A C 1.3585(5) 0.2866(7) 0.1872(2)
C48A C 1.3532(10) 0.2395(13) 0.1719(3)
H40A H 1.3824 0.2599 0.1612
H41A H 1.3122 0.2185 0.1664
H42A H 1.3618 0.2102 0.1784
C49A C 1.4220(6) 0.3145(9) 0.1964(2)
H43A H 1.4507 0.3489 0.1882
H44A H 1.4346 0.2840 0.1968
H45A H 1.4213 0.3285 0.2099
C50A C 1.3361(6) 0.3308(8) 0.1820(2)
H46A H 1.3660 0.3632 0.1736
H47A H 1.3307 0.3483 0.1943
H48A H 1.2975 0.3091 0.1750
C51A C 1.2908(7) 0.3846(10) 0.3054(2)
C52A C 1.4608(3) 0.5987(5) 0.35093(11)
C53A C 1.5103(3) 0.5960(5) 0.34354(13)
H49A H 1.5497 0.6228 0.3485
C54A C 1.5022(3) 0.5543(4) 0.32886(13)
H50A H 1.5360 0.5524 0.3238
C55A C 1.4445(4) 0.5151(5) 0.32158(11)
H51A H 1.4390 0.4866 0.3115
C56A C 1.3950(3) 0.5177(4) 0.32897(9)
C57A C 1.4031(3) 0.5595(4) 0.34364(8)
C58A C 1.3536(4) 0.5621(5) 0.35104(12)
H52A H 1.3592 0.5907 0.3611
C59A C 1.2960(3) 0.5230(5) 0.34375(16)
H53A H 1.2621 0.5248 0.3488
C60A C 1.2878(3) 0.4812(6) 0.32907(17)
H54A H 1.2484 0.4545 0.3241
C61A C 1.3373(3) 0.4786(5) 0.32168(13)
C62A C 1.5142(8) 0.6792(11) 0.3747(3)
C63A C 1.5086(4) 0.7163(6) 0.39143(13)
C64A C 1.4537(3) 0.7104(5) 0.39738(12)
C65A C 1.4513(3) 0.7422(4) 0.41378(12)
C66A C 1.5039(4) 0.7802(6) 0.42423(11)
C67A C 1.5588(3) 0.7861(6) 0.41828(15)
H55A H 1.5948 0.8121 0.4254
C68A C 1.5612(3) 0.7543(5) 0.40188(16)
H56A H 1.5987 0.7584 0.3978
C69A C 1.4912(8) 0.8216(11) 0.4407(2)
C70A C 1.4342(7) 0.8365(10) 0.4656(2)
H57A H 1.4678 0.8794 0.4660
C71A C 1.4372(8) 0.8089(11) 0.48564(15)
H58A H 1.4778 0.8146 0.4875
H59A H 1.4074 0.7657 0.4858
H60A H 1.4284 0.8292 0.4964
C72A C 1.3789(6) 0.8402(8) 0.46174(19)
C73A C 1.3316(10) 0.7726(13) 0.4640(3)
H61A H 1.2912 0.7666 0.4614
H62A H 1.3332 0.7594 0.4776
H63A H 1.3404 0.7489 0.4545
C74A C 1.3606(10) 0.8613(13) 0.44293(18)
H64A H 1.3181 0.8507 0.4439
H65A H 1.3659 0.8414 0.4313
H66A H 1.3862 0.9053 0.4416
C75A C 1.3672(8) 0.8722(11) 0.47917(19)
H67A H 1.3274 0.8687 0.4776
H68A H 1.3985 0.9150 0.4793
H69A H 1.3683 0.8533 0.4917
N1A N 1.5531(4) 0.6350(6) 0.27178(13)
H70A H 1.5250 0.6035 0.2653
N2A N 1.5071(3) 0.3367(4) 0.28095(12)
H71A H 1.4889 0.3437 0.2710
N3A N 1.4963(6) 0.8046(7) 0.22277(15)
H72A H 1.4988 0.8312 0.2316
N4A N 1.5379(4) 1.0933(5) 0.20214(11)
H73A H 1.5358 1.0807 0.2144
N5A N 1.3160(5) 0.2623(7) 0.22096(17)
H74A H 1.3468 0.2989 0.2230
N6A N 1.3256(5) 0.4304(6) 0.30860(13)
H75A H 1.3564 0.4413 0.3005
N7A N 1.4640(4) 0.6390(6) 0.36579(13)
H76A H 1.4300 0.6373 0.3694
N8A N 1.4494(6) 0.8089(8) 0.44856(14)
H77A H 1.4182 0.7755 0.4440
O1A O 1.4898(3) 0.5197(4) 0.26396(9)
O2A O 1.4777(3) 0.4137(4) 0.26611(9)
O3A O 1.5193(4) 0.9105(5) 0.23543(9)
O4A O 1.5431(3) 1.0217(4) 0.22726(8)
O5A O 1.3717(3) 0.3607(4) 0.24298(10)
O6A O 1.3713(3) 0.4223(4) 0.27355(9)
O7A O 1.4029(3) 0.6730(4) 0.38733(9)
O8A O 1.3963(4) 0.7298(6) 0.41911(12)
O9A O 1.6235(4) 0.6593(6) 0.29598(14)
O10A O 1.5824(3) 0.3765(4) 0.30602(12)
O11A O 1.4904(9) 0.7887(11) 0.1925(2)
O12A O 1.5094(7) 1.0681(9) 0.17005(18)
O13A O 1.2256(5) 0.1802(7) 0.23265(17)
O14A O 1.2429(7) 0.3303(10) 0.3181(2)
O15A O 1.5708(5) 0.6900(8) 0.3712(2)
O16A O 1.5581(8) 0.8517(11) 0.4484(3)
Ga1A Ga 1.43098(7) 0.44265(9) 0.25145(3)
C76A C 1.3477(12) 0.1827(17) 0.2005(4)
H78A H 1.3210 0.1475 0.2087
H79A H 1.3886 0.2029 0.2062
H80A H 1.3490 0.1692 0.1870
C1B C 1.4882(3) 1.0162(2) 0.27487(8)
C2B C 1.4400(4) 1.0142(2) 0.28521(10)
C3B C 1.4496(4) 1.0618(3) 0.29758(10)
H1B H 1.4168 1.0605 0.3046
C4B C 1.5075(4) 1.1115(3) 0.29961(9)
H2B H 1.5141 1.1441 0.3081
C5B C 1.5556(4) 1.1135(2) 0.28927(10)
C6B C 1.5460(4) 1.0659(3) 0.27690(9)
C7B C 1.3769(8) 0.9632(6) 0.28588(19)
C8B C 1.3085(4) 0.8680(3) 0.26688(9)
C9B C 1.2548(4) 0.8595(3) 0.27513(10)
H3B H 1.2559 0.8866 0.2850
C10B C 1.1997(5) 0.8116(4) 0.26888(12)
H4B H 1.1630 0.8058 0.2745
C11B C 1.1981(4) 0.7720(3) 0.25437(11)
H5B H 1.1605 0.7393 0.2501
C12B C 1.2518(3) 0.7805(2) 0.24611(8)
C13B C 1.3070(3) 0.8285(2) 0.25237(8)
C14B C 1.3606(4) 0.8369(3) 0.24411(11)
H6B H 1.3983 0.8697 0.2484
C15B C 1.3591(5) 0.7974(4) 0.22960(11)
H7B H 1.3958 0.8032 0.2240
C16B C 1.3039(4) 0.7494(3) 0.22335(10)
H8B H 1.3029 0.7224 0.2134
C17B C 1.2503(4) 0.7410(3) 0.23161(9)
C18B C 1.6211(7) 1.1667(5) 0.29052(16)
C19B C 1.7246(7) 1.2159(5) 0.28584(18)
H9B H 1.7293 1.2246 0.3004
C20B C 1.7330(10) 1.2646(7) 0.2754(2)
H10B H 1.7063 1.2787 0.2805
H11B H 1.7237 1.2535 0.2613
H12B H 1.7753 1.2970 0.2766
C21B C 1.7636(8) 1.1860(5) 0.27874(16)
C22B C 1.7471(8) 1.1309(6) 0.2920(2)
H13B H 1.7047 1.1000 0.2898
H14B H 1.7529 1.1434 0.3060
H15B H 1.7733 1.1142 0.2887
C23B C 1.7584(10) 1.1700(7) 0.25649(17)
H16B H 1.7688 1.2062 0.2486
H17B H 1.7168 1.1384 0.2535
H18B H 1.7864 1.1554 0.2533
C24B C 1.8301(11) 1.2262(7) 0.2851(3)
H19B H 1.8476 1.2651 0.2781
H20B H 1.8530 1.2059 0.2817
H21B H 1.8321 1.2331 0.2995
C25B C 1.0751(5) 0.5921(3) 0.21732(9)
C26B C 1.1181(5) 0.6212(3) 0.20253(12)
C27B C 1.1045(7) 0.6021(4) 0.18289(10)
H22B H 1.1339 0.6220 0.1728
C28B C 1.0477(7) 0.5540(4) 0.17805(8)
H23B H 1.0384 0.5409 0.1646
C29B C 1.0047(5) 0.5249(3) 0.19284(11)
C30B C 1.0183(5) 0.5439(3) 0.21248(10)
C31B C 1.1805(9) 0.6787(5) 0.2073(2)
C32B C 0.9431(10) 0.4753(6) 0.1883(2)
C33B C 0.8457(9) 0.3933(5) 0.19933(16)
H24B H 0.8493 0.3628 0.1910
C34B C 0.8029(13) 0.4097(9) 0.1883(3)
H25B H 0.8204 0.4275 0.1754
H26B H 0.7976 0.4389 0.1962
H27B H 0.7635 0.3730 0.1864
C35B C 0.8233(14) 0.3663(8) 0.2184(3)
C36B C 0.8085(13) 0.4068(7) 0.2343(2)
H28B H 0.7916 0.3835 0.2465
H29B H 0.7793 0.4165 0.2284
H30B H 0.8460 0.4444 0.2374
C37B C 0.7491(12) 0.3046(7) 0.2167(2)
H31B H 0.7344 0.2880 0.2299
H32B H 0.7490 0.2733 0.2082
H33B H 0.7227 0.3182 0.2108
C38B C 0.8538(14) 0.3373(8) 0.2304(3)
H34B H 0.8325 0.3219 0.2430
H35B H 0.8961 0.3677 0.2330
H36B H 0.8522 0.3038 0.2227
C39B C 1.6684(4) 0.9941(3) 0.25598(10)
C40B C 1.7276(6) 1.0061(4) 0.25416(11)
C41B C 1.7537(6) 0.9899(5) 0.26934(15)
H37B H 1.7942 0.9981 0.2681
C42B C 1.7206(6) 0.9617(5) 0.28633(13)
H38B H 1.7384 0.9506 0.2967
C43B C 1.6613(6) 0.9496(4) 0.28815(10)
C44B C 1.6352(4) 0.9658(3) 0.27298(11)
C45B C 1.7603(13) 1.0344(9) 0.2381(3)
C46B C 1.7636(11) 1.0820(8) 0.2000(2)
H39B H 1.7844 1.0613 0.1940
C47B C 1.7134(7) 1.0719(5) 0.1872(2)
C48B C 1.7605(13) 1.1137(9) 0.1719(3)
H40B H 1.7401 1.1225 0.1612
H41B H 1.7815 1.0937 0.1664
H42B H 1.7898 1.1516 0.1784
C49B C 1.6855(9) 1.1075(7) 0.1964(2)
H43B H 1.6511 1.1018 0.1882
H44B H 1.7160 1.1506 0.1968
H45B H 1.6715 1.0928 0.2099
C50B C 1.6692(8) 1.0053(5) 0.1820(2)
H46B H 1.6368 1.0028 0.1736
H47B H 1.6517 0.9824 0.1943
H48B H 1.6909 0.9884 0.1750
C51B C 1.6154(10) 0.9062(7) 0.3054(2)
C52B C 1.4013(5) 0.8621(4) 0.35093(11)
C53B C 1.4040(5) 0.9143(4) 0.34354(13)
H49B H 1.3772 0.9269 0.3485
C54B C 1.4457(4) 0.9479(3) 0.32886(13)
H50B H 1.4476 0.9836 0.3238
C55B C 1.4849(5) 0.9294(3) 0.32158(11)
H51B H 1.5134 0.9524 0.3115
C56B C 1.4823(4) 0.8773(3) 0.32897(9)
C57B C 1.4405(4) 0.8436(3) 0.34364(8)
C58B C 1.4379(5) 0.7915(3) 0.35104(12)
H52B H 1.4093 0.7685 0.3611
C59B C 1.4770(5) 0.7730(4) 0.34375(16)
H53B H 1.4752 0.7373 0.3488
C60B C 1.5188(6) 0.8066(5) 0.32907(17)
H54B H 1.5455 0.7939 0.3241
C61B C 1.5214(5) 0.8587(4) 0.32168(13)
C62B C 1.3208(11) 0.8350(8) 0.3747(3)
C63B C 1.2837(6) 0.7923(4) 0.39143(13)
C64B C 1.2896(5) 0.7433(4) 0.39738(12)
C65B C 1.2578(4) 0.7091(3) 0.41378(12)
C66B C 1.2198(6) 0.7237(4) 0.42423(11)
C67B C 1.2139(6) 0.7727(5) 0.41828(15)
H55B H 1.1879 0.7827 0.4254
C68B C 1.2457(5) 0.8069(4) 0.40188(16)
H56B H 1.2416 0.8403 0.3978
C69B C 1.1784(11) 0.6696(8) 0.4407(2)
C70B C 1.1635(10) 0.5977(7) 0.4656(2)
H57B H 1.1206 0.5884 0.4660
C71B C 1.1911(11) 0.6283(7) 0.48564(15)
H58B H 1.1854 0.6632 0.4875
H59B H 1.2343 0.6417 0.4858
H60B H 1.1708 0.5992 0.4964
C72B C 1.1598(8) 0.5387(6) 0.46174(19)
C73B C 1.2274(13) 0.5590(9) 0.4640(3)
H61B H 1.2334 0.5246 0.4614
H62B H 1.2406 0.5738 0.4776
H63B H 1.2511 0.5915 0.4545
C74B C 1.1387(13) 0.4993(9) 0.44293(18)
H64B H 1.1493 0.4674 0.4439
H65B H 1.1586 0.5245 0.4313
H66B H 1.0947 0.4809 0.4416
C75B C 1.1278(11) 0.4950(8) 0.47917(19)
H67B H 1.1313 0.4587 0.4776
H68B H 1.0850 0.4835 0.4793
H69B H 1.1467 0.5150 0.4917
N1B N 1.3650(6) 0.9181(4) 0.27178(13)
H70B H 1.3965 0.9215 0.2653
N2B N 1.6633(4) 1.1704(3) 0.28095(12)
H71B H 1.6563 1.1452 0.2710
N3B N 1.1954(7) 0.6917(4) 0.22277(15)
H72B H 1.1688 0.6676 0.2316
N4B N 0.9067(5) 0.4446(3) 0.20214(11)
H73B H 0.9193 0.4551 0.2144
N5B N 1.7377(7) 1.0537(5) 0.22096(17)
H74B H 1.7011 1.0479 0.2230
N6B N 1.5696(6) 0.8952(4) 0.30860(13)
H75B H 1.5587 0.9151 0.3005
N7B N 1.3610(6) 0.8250(4) 0.36579(13)
H76B H 1.3627 0.7927 0.3694
N8B N 1.1911(8) 0.6405(5) 0.44856(14)
H77B H 1.2245 0.6427 0.4440
O1B O 1.4803(4) 0.9701(3) 0.26396(9)
O2B O 1.5863(4) 1.0640(3) 0.26611(9)
O3B O 1.0895(5) 0.6088(3) 0.23543(9)
O4B O 0.9783(4) 0.5214(2) 0.22726(8)
O5B O 1.6393(4) 1.0110(3) 0.24298(10)
O6B O 1.5777(4) 0.9490(3) 0.27355(9)
O7B O 1.3270(4) 0.7299(3) 0.38733(9)
O8B O 1.2702(6) 0.6665(4) 0.41911(12)
O9B O 1.3407(6) 0.9642(4) 0.29598(14)
O10B O 1.6235(4) 1.2059(3) 0.30602(12)
O11B O 1.2113(11) 0.7017(6) 0.1925(2)
O12B O 0.9319(9) 0.4413(5) 0.17005(18)
O13B O 1.8198(7) 1.0454(5) 0.23265(17)
O14B O 1.6697(10) 0.9126(7) 0.3181(2)
O15B O 1.3100(8) 0.8808(6) 0.3712(2)
O16B O 1.1483(11) 0.7064(8) 0.4484(3)
Ga1B Ga 1.55735(9) 0.98833(5) 0.25145(3)
C76B C 1.8173(17) 1.1650(12) 0.2005(4)
H78B H 1.8525 1.1735 0.2087
H79B H 1.7971 1.1857 0.2062
H80B H 1.8308 1.1798 0.1870
loop_
_geom_bond_atom_site_label_1
_geom_bond_atom_site_label_2
_geom_bond_site_symmetry_1
_geom_bond_site_symmetry_2
C1 C2 1_555 1_555
C2 C3 1_555 1_555
C3 H1 1_555 1_555
C4 C3 1_555 1_555
H2 C4 1_555 1_555
C5 C4 1_555 1_555
C6 C1 1_555 1_555
C7 C2 1_555 1_555
C8 C9 1_555 1_555
C9 H3 1_555 1_555
C10 C9 1_555 1_555
H4 C10 1_555 1_555
C11 C10 1_555 1_555
H5 C11 1_555 1_555
C12 C11 1_555 1_555
C13 C8 1_555 1_555
C14 C13 1_555 1_555
H6 C14 1_555 1_555
C15 C14 1_555 1_555
H7 C15 1_555 1_555
C16 C15 1_555 1_555
H8 C16 1_555 1_555
C17 C12 1_555 1_555
C18 C5 1_555 1_555
C19 H9 1_555 1_555
C20 C19 1_555 1_555
H10 C20 1_555 1_555
H11 C20 1_555 1_555
H12 C20 1_555 1_555
C21 C19 1_555 1_555
C22 C21 1_555 1_555
H13 C22 1_555 1_555
H14 C22 1_555 1_555
H15 C22 1_555 1_555
C23 C21 1_555 1_555
H16 C23 1_555 1_555
H17 C23 1_555 1_555
H18 C23 1_555 1_555
C24 C21 1_555 1_555
H19 C24 1_555 1_555
H20 C24 1_555 1_555
H21 C24 1_555 1_555
C25 C26 1_555 1_555
C26 C27 1_555 1_555
C27 H22 1_555 1_555
C28 C27 1_555 1_555
H23 C28 1_555 1_555
C29 C28 1_555 1_555
C30 C25 1_555 1_555
C31 C26 1_555 1_555
C32 C29 1_555 1_555
C33 H24 1_555 1_555
C34 C33 1_555 1_555
H25 C34 1_555 1_555
H26 C34 1_555 1_555
H27 C34 1_555 1_555
C35 C33 1_555 1_555
C36 C35 1_555 1_555
H28 C36 1_555 1_555
H29 C36 1_555 1_555
H30 C36 1_555 1_555
C37 C35 1_555 1_555
H31 C37 1_555 1_555
H32 C37 1_555 1_555
H33 C37 1_555 1_555
C38 C35 1_555 1_555
H34 C38 1_555 1_555
H35 C38 1_555 1_555
H36 C38 1_555 1_555
C39 C40 1_555 1_555
C40 C41 1_555 1_555
C41 H37 1_555 1_555
C42 C41 1_555 1_555
H38 C42 1_555 1_555
C43 C42 1_555 1_555
C44 C39 1_555 1_555
C45 C40 1_555 1_555
C46 H39 1_555 1_555
C47 C46 1_555 1_555
C48 C47 1_555 1_555
H40 C48 1_555 1_555
H41 C48 1_555 1_555
H42 C48 1_555 1_555
C49 C47 1_555 1_555
H43 C49 1_555 1_555
H44 C49 1_555 1_555
H45 C49 1_555 1_555
C50 C47 1_555 1_555
H46 C50 1_555 1_555
H47 C50 1_555 1_555
H48 C50 1_555 1_555
C51 C43 1_555 1_555
C52 C53 1_555 1_555
C53 H49 1_555 1_555
C54 C53 1_555 1_555
H50 C54 1_555 1_555
C55 C54 1_555 1_555
H51 C55 1_555 1_555
C56 C55 1_555 1_555
C57 C52 1_555 1_555
C58 C57 1_555 1_555
H52 C58 1_555 1_555
C59 C58 1_555 1_555
H53 C59 1_555 1_555
C60 C59 1_555 1_555
H54 C60 1_555 1_555
C61 C56 1_555 1_555
C62 C63 1_555 1_555
C63 C64 1_555 1_555
C64 C65 1_555 1_555
C65 C66 1_555 1_555
C66 C67 1_555 1_555
C67 H55 1_555 1_555
C68 C63 1_555 1_555
H56 C68 1_555 1_555
C69 C66 1_555 1_555
C70 H57 1_555 1_555
C71 C70 1_555 1_555
H58 C71 1_555 1_555
H59 C71 1_555 1_555
H60 C71 1_555 1_555
C72 C70 1_555 1_555
C73 C72 1_555 1_555
H61 C73 1_555 1_555
H62 C73 1_555 1_555
H63 C73 1_555 1_555
C74 C72 1_555 1_555
H64 C74 1_555 1_555
H65 C74 1_555 1_555
H66 C74 1_555 1_555
C75 C72 1_555 1_555
H67 C75 1_555 1_555
H68 C75 1_555 1_555
H69 C75 1_555 1_555
N1 C7 1_555 1_555
H70 N1 1_555 1_555
N2 C18 1_555 1_555
H71 N2 1_555 1_555
N3 C17 1_555 1_555
H72 N3 1_555 1_555
N4 C32 1_555 1_555
H73 N4 1_555 1_555
N5 C45 1_555 1_555
H74 N5 1_555 1_555
N6 C51 1_555 1_555
H75 N6 1_555 1_555
N7 C52 1_555 1_555
H76 N7 1_555 1_555
N8 C69 1_555 1_555
H77 N8 1_555 1_555
O1 C1 1_555 1_555
O2 C6 1_555 1_555
O3 C25 1_555 1_555
O4 C30 1_555 1_555
O5 C39 1_555 1_555
O6 C44 1_555 1_555
O7 C64 1_555 1_555
O8 C65 1_555 1_555
O9 C7 1_555 1_555
O10 C18 1_555 1_555
O11 C31 1_555 1_555
O12 C32 1_555 1_555
O13 C45 1_555 1_555
O14 C51 1_555 1_555
O15 C62 1_555 1_555
O16 C69 1_555 1_555
Ga1 O1 1_555 1_555
Ga2 O7 1_555 1_555
C76 C46 1_555 1_555
H78 C76 1_555 1_555
H79 C76 1_555 1_555
H80 C76 1_555 1_555
C1A C2A 1_555 1_555
C2A C3A 1_555 1_555
C3A H1A 1_555 1_555
C4A C3A 1_555 1_555
H2A C4A 1_555 1_555
C5A C4A 1_555 1_555
C6A C1A 1_555 1_555
C7A C2A 1_555 1_555
C8A C9A 1_555 1_555
C9A H3A 1_555 1_555
C10A C9A 1_555 1_555
H4A C10A 1_555 1_555
C11A C10A 1_555 1_555
H5A C11A 1_555 1_555
C12A C11A 1_555 1_555
C13A C8A 1_555 1_555
C14A C13A 1_555 1_555
H6A C14A 1_555 1_555
C15A C14A 1_555 1_555
H7A C15A 1_555 1_555
C16A C15A 1_555 1_555
H8A C16A 1_555 1_555
C17A C12A 1_555 1_555
C18A C5A 1_555 1_555
C19A H9A 1_555 1_555
C20A C19A 1_555 1_555
H10A C20A 1_555 1_555
H11A C20A 1_555 1_555
H12A C20A 1_555 1_555
C21A C19A 1_555 1_555
C22A C21A 1_555 1_555
H13A C22A 1_555 1_555
H14A C22A 1_555 1_555
H15A C22A 1_555 1_555
C23A C21A 1_555 1_555
H16A C23A 1_555 1_555
H17A C23A 1_555 1_555
H18A C23A 1_555 1_555
C24A C21A 1_555 1_555
H19A C24A 1_555 1_555
H20A C24A 1_555 1_555
H21A C24A 1_555 1_555
C25A C26A 1_555 1_555
C26A C27A 1_555 1_555
C27A H22A 1_555 1_555
C28A C27A 1_555 1_555
H23A C28A 1_555 1_555
C29A C28A 1_555 1_555
C30A C25A 1_555 1_555
C31A C26A 1_555 1_555
C32A C29A 1_555 1_555
C33A H24A 1_555 1_555
C34A C33A 1_555 1_555
H25A C34A 1_555 1_555
H26A C34A 1_555 1_555
H27A C34A 1_555 1_555
C35A C33A 1_555 1_555
C36A C35A 1_555 1_555
H28A C36A 1_555 1_555
H29A C36A 1_555 1_555
H30A C36A 1_555 1_555
C37A C35A 1_555 1_555
H31A C37A 1_555 1_555
H32A C37A 1_555 1_555
H33A C37A 1_555 1_555
C38A C35A 1_555 1_555
H34A C38A 1_555 1_555
H35A C38A 1_555 1_555
H36A C38A 1_555 1_555
C39A C40A 1_555 1_555
C40A C41A 1_555 1_555
C41A H37A 1_555 1_555
C42A C41A 1_555 1_555
H38A C42A 1_555 1_555
C43A C42A 1_555 1_555
C44A C39A 1_555 1_555
C45A C40A 1_555 1_555
C46A H39A 1_555 1_555
C47A C46A 1_555 1_555
C48A C47A 1_555 1_555
H40A C48A 1_555 1_555
H41A C48A 1_555 1_555
H42A C48A 1_555 1_555
C49A C47A 1_555 1_555
H43A C49A 1_555 1_555
H44A C49A 1_555 1_555
H45A C49A 1_555 1_555
C50A C47A 1_555 1_555
H46A C50A 1_555 1_555
H47A C50A 1_555 1_555
H48A C50A 1_555 1_555
C51A C43A 1_555 1_555
C52A C53A 1_555 1_555
C53A H49A 1_555 1_555
C54A C53A 1_555 1_555
H50A C54A 1_555 1_555
C55A C54A 1_555 1_555
H51A C55A 1_555 1_555
C56A C55A 1_555 1_555
C57A C52A 1_555 1_555
C58A C57A 1_555 1_555
H52A C58A 1_555 1_555
C59A C58A 1_555 1_555
H53A C59A 1_555 1_555
C60A C59A 1_555 1_555
H54A C60A 1_555 1_555
C61A C56A 1_555 1_555
C62A C63A 1_555 1_555
C63A C64A 1_555 1_555
C64A C65A 1_555 1_555
C65A C66A 1_555 1_555
C66A C67A 1_555 1_555
C67A H55A 1_555 1_555
C68A C63A 1_555 1_555
H56A C68A 1_555 1_555
C69A C66A 1_555 1_555
C70A H57A 1_555 1_555
C71A C70A 1_555 1_555
H58A C71A 1_555 1_555
H59A C71A 1_555 1_555
H60A C71A 1_555 1_555
C72A C70A 1_555 1_555
C73A C72A 1_555 1_555
H61A C73A 1_555 1_555
H62A C73A 1_555 1_555
H63A C73A 1_555 1_555
C74A C72A 1_555 1_555
H64A C74A 1_555 1_555
H65A C74A 1_555 1_555
H66A C74A 1_555 1_555
C75A C72A 1_555 1_555
H67A C75A 1_555 1_555
H68A C75A 1_555 1_555
H69A C75A 1_555 1_555
N1A C7A 1_555 1_555
H70A N1A 1_555 1_555
N2A C18A 1_555 1_555
H71A N2A 1_555 1_555
N3A C17A 1_555 1_555
H72A N3A 1_555 1_555
N4A C32A 1_555 1_555
H73A N4A 1_555 1_555
N5A C45A 1_555 1_555
H74A N5A 1_555 1_555
N6A C51A 1_555 1_555
H75A N6A 1_555 1_555
N7A C52A 1_555 1_555
H76A N7A 1_555 1_555
N8A C69A 1_555 1_555
H77A N8A 1_555 1_555
O1A C1A 1_555 1_555
O2A C6A 1_555 1_555
O3A C25A 1_555 1_555
O4A C30A 1_555 1_555
O5A C39A 1_555 1_555
O6A C44A 1_555 1_555
O7A Ga2 1_555 1_555
O8A Ga2 1_555 1_555
O9A C7A 1_555 1_555
O10A C18A 1_555 1_555
O11A C31A 1_555 1_555
O12A C32A 1_555 1_555
O13A C45A 1_555 1_555
O14A C51A 1_555 1_555
O15A C62A 1_555 1_555
O16A C69A 1_555 1_555
Ga1A O3 1_555 1_555
C76A C46A 1_555 1_555
H78A C76A 1_555 1_555
H79A C76A 1_555 1_555
H80A C76A 1_555 1_555
C1B C2B 1_555 1_555
C2B C3B 1_555 1_555
C3B H1B 1_555 1_555
C4B C3B 1_555 1_555
H2B C4B 1_555 1_555
C5B C4B 1_555 1_555
C6B C1B 1_555 1_555
C7B C2B 1_555 1_555
C8B C9B 1_555 1_555
C9B H3B 1_555 1_555
C10B C9B 1_555 1_555
H4B C10B 1_555 1_555
C11B C10B 1_555 1_555
H5B C11B 1_555 1_555
C12B C11B 1_555 1_555
C13B C8B 1_555 1_555
C14B C13B 1_555 1_555
H6B C14B 1_555 1_555
C15B C14B 1_555 1_555
H7B C15B 1_555 1_555
C16B C15B 1_555 1_555
H8B C16B 1_555 1_555
C17B C12B 1_555 1_555
C18B C5B 1_555 1_555
C19B H9B 1_555 1_555
C20B C19B 1_555 1_555
H10B C20B 1_555 1_555
H11B C20B 1_555 1_555
H12B C20B 1_555 1_555
C21B C19B 1_555 1_555
C22B C21B 1_555 1_555
H13B C22B 1_555 1_555
H14B C22B 1_555 1_555
H15B C22B 1_555 1_555
C23B C21B 1_555 1_555
H16B C23B 1_555 1_555
H17B C23B 1_555 1_555
H18B C23B 1_555 1_555
C24B C21B 1_555 1_555
H19B C24B 1_555 1_555
H20B C24B 1_555 1_555
H21B C24B 1_555 1_555
C25B C26B 1_555 1_555
C26B C27B 1_555 1_555
C27B H22B 1_555 1_555
C28B C27B 1_555 1_555
H23B C28B 1_555 1_555
C29B C28B 1_555 1_555
C30B C25B 1_555 1_555
C31B C26B 1_555 1_555
C32B C29B 1_555 1_555
C33B H24B 1_555 1_555
C34B C33B 1_555 1_555
H25B C34B 1_555 1_555
H26B C34B 1_555 1_555
H27B C34B 1_555 1_555
C35B C33B 1_555 1_555
C36B C35B 1_555 1_555
H28B C36B 1_555 1_555
H29B C36B 1_555 1_555
H30B C36B 1_555 1_555
C37B C35B 1_555 1_555
H31B C37B 1_555 1_555
H32B C37B 1_555 1_555
H33B C37B 1_555 1_555
C38B C35B 1_555 1_555
H34B C38B 1_555 1_555
H35B C38B 1_555 1_555
H36B C38B 1_555 1_555
C39B C40B 1_555 1_555
C40B C41B 1_555 1_555
C41B H37B 1_555 1_555
C42B C41B 1_555 1_555
H38B C42B 1_555 1_555
C43B C42B 1_555 1_555
C44B C39B 1_555 1_555
C45B C40B 1_555 1_555
C46B H39B 1_555 1_555
C47B C46B 1_555 1_555
C48B C47B 1_555 1_555
H40B C48B 1_555 1_555
H41B C48B 1_555 1_555
H42B C48B 1_555 1_555
C49B C47B 1_555 1_555
H43B C49B 1_555 1_555
H44B C49B 1_555 1_555
H45B C49B 1_555 1_555
C50B C47B 1_555 1_555
H46B C50B 1_555 1_555
H47B C50B 1_555 1_555
H48B C50B 1_555 1_555
C51B C43B 1_555 1_555
C52B C53B 1_555 1_555
C53B H49B 1_555 1_555
C54B C53B 1_555 1_555
H50B C54B 1_555 1_555
C55B C54B 1_555 1_555
H51B C55B 1_555 1_555
C56B C55B 1_555 1_555
C57B C52B 1_555 1_555
C58B C57B 1_555 1_555
H52B C58B 1_555 1_555
C59B C58B 1_555 1_555
H53B C59B 1_555 1_555
C60B C59B 1_555 1_555
H54B C60B 1_555 1_555
C61B C56B 1_555 1_555
C62B C63B 1_555 1_555
C63B C64B 1_555 1_555
C64B C65B 1_555 1_555
C65B C66B 1_555 1_555
C66B C67B 1_555 1_555
C67B H55B 1_555 1_555
C68B C63B 1_555 1_555
H56B C68B 1_555 1_555
C69B C66B 1_555 1_555
C70B H57B 1_555 1_555
C71B C70B 1_555 1_555
H58B C71B 1_555 1_555
H59B C71B 1_555 1_555
H60B C71B 1_555 1_555
C72B C70B 1_555 1_555
C73B C72B 1_555 1_555
H61B C73B 1_555 1_555
H62B C73B 1_555 1_555
H63B C73B 1_555 1_555
C74B C72B 1_555 1_555
H64B C74B 1_555 1_555
H65B C74B 1_555 1_555
H66B C74B 1_555 1_555
C75B C72B 1_555 1_555
H67B C75B 1_555 1_555
H68B C75B 1_555 1_555
H69B C75B 1_555 1_555
N1B C7B 1_555 1_555
H70B N1B 1_555 1_555
N2B C18B 1_555 1_555
H71B N2B 1_555 1_555
N3B C17B 1_555 1_555
H72B N3B 1_555 1_555
N4B C32B 1_555 1_555
H73B N4B 1_555 1_555
N5B C45B 1_555 1_555
H74B N5B 1_555 1_555
N6B C51B 1_555 1_555
H75B N6B 1_555 1_555
N7B C52B 1_555 1_555
H76B N7B 1_555 1_555
N8B C69B 1_555 1_555
H77B N8B 1_555 1_555
O1B C1B 1_555 1_555
O2B C6B 1_555 1_555
O3B Ga1 1_555 1_555
O4B Ga1 1_555 1_555
O5B C39B 1_555 1_555
O6B C44B 1_555 1_555
O7B Ga2 1_555 1_555
O8B Ga2 1_555 1_555
O9B C7B 1_555 1_555
O10B C18B 1_555 1_555
O11B C31B 1_555 1_555
O12B C32B 1_555 1_555
O13B C45B 1_555 1_555
O14B C51B 1_555 1_555
O15B C62B 1_555 1_555
O16B C69B 1_555 1_555
Ga1B O3A 1_555 1_555
C76B C46B 1_555 1_555
H78B C76B 1_555 1_555
H79B C76B 1_555 1_555
H80B C76B 1_555 1_555
C5 C6 1_555 1_555
C8 N1 1_555 1_555
C12 C13 1_555 1_555
C16 C17 1_555 1_555
C19 N2 1_555 1_555
C29 C30 1_555 1_555
C31 N3 1_555 1_555
C33 N4 1_555 1_555
C43 C44 1_555 1_555
C46 N5 1_555 1_555
C56 C57 1_555 1_555
C60 C61 1_555 1_555
C61 N6 1_555 1_555
C62 N7 1_555 1_555
C67 C68 1_555 1_555
C70 N8 1_555 1_555
O2 Ga1 1_555 1_555
O4 Ga1A 1_555 1_555
O5 Ga1 1_555 1_555
O6 Ga1 1_555 1_555
O8 Ga2 1_555 1_555
C5A C6A 1_555 1_555
C8A N1A 1_555 1_555
C12A C13A 1_555 1_555
C16A C17A 1_555 1_555
C19A N2A 1_555 1_555
C29A C30A 1_555 1_555
C31A N3A 1_555 1_555
C33A N4A 1_555 1_555
C43A C44A 1_555 1_555
C46A N5A 1_555 1_555
C56A C57A 1_555 1_555
C60A C61A 1_555 1_555
C61A N6A 1_555 1_555
C62A N7A 1_555 1_555
C64A O7A 1_555 1_555
C65A O8A 1_555 1_555
C67A C68A 1_555 1_555
C70A N8A 1_555 1_555
O1A Ga1A 1_555 1_555
O2A Ga1A 1_555 1_555
O4A Ga1B 1_555 1_555
O5A Ga1A 1_555 1_555
O6A Ga1A 1_555 1_555
C5B C6B 1_555 1_555
C8B N1B 1_555 1_555
C12B C13B 1_555 1_555
C16B C17B 1_555 1_555
C19B N2B 1_555 1_555
C25B O3B 1_555 1_555
C29B C30B 1_555 1_555
C30B O4B 1_555 1_555
C31B N3B 1_555 1_555
C33B N4B 1_555 1_555
C43B C44B 1_555 1_555
C46B N5B 1_555 1_555
C56B C57B 1_555 1_555
C60B C61B 1_555 1_555
C61B N6B 1_555 1_555
C62B N7B 1_555 1_555
C64B O7B 1_555 1_555
C65B O8B 1_555 1_555
C67B C68B 1_555 1_555
C70B N8B 1_555 1_555
O1B Ga1B 1_555 1_555
O2B Ga1B 1_555 1_555
O5B Ga1B 1_555 1_555
O6B Ga1B 1_555 1_555

#END
