
#######################################################################
#
#                 Cambridge Crystallographic Data Centre
#                                CCDC 
#
#######################################################################
#
# If this CIF has been generated from an entry in the Cambridge 
# Structural Database, then it will include bibliographic, chemical, 
# crystal, experimental, refinement or atomic coordinate data resulting 
# from the CCDC's data processing and validation procedures.
#
#######################################################################

data_BOGYUT
_chemical_formula_moiety         
'C84 H96 N36 Pd6 12+,C28 H24 O4,12(N1 O3 1-),32(H2 O1)'
_chemical_name_systematic        
'tetrakis(\m~3~-2,4,6-tris(Pyridin-3-yl)-1,3,5-triazine)-hexakis(1,2-diaminoethane)-hexa-palladium 25,26,27,28-tetrahydroxycalix(4)arene clathrate dodecanitrate hydrate'
_symmetry_cell_setting           monoclinic
_symmetry_space_group_name_H-M   'P 21/c'
_symmetry_Int_Tables_number      14
_space_group_name_Hall           '-P 2ybc'
loop_
_symmetry_equiv_pos_site_id
_symmetry_equiv_pos_as_xyz
1 x,y,z
2 -x,1/2+y,1/2-z
3 -x,-y,-z
4 x,1/2-y,1/2+z
_cell_length_a                   24.240(4)
_cell_length_b                   29.125(5)
_cell_length_c                   24.225(4)
_cell_angle_alpha                90
_cell_angle_beta                 91.047(2)
_cell_angle_gamma                90
_cell_volume                     17099.8
_exptl_crystal_colour            yellow
_exptl_crystal_description       plate
_chemical_melting_point          '200 deg.C (dec.)'
_cell_formula_units_Z            4
loop_
_atom_site_label
_atom_site_type_symbol
_atom_site_fract_x
_atom_site_fract_y
_atom_site_fract_z
Pd1 Pd 0.15490(3) 1.05115(2) -0.00333(3)
Pd2 Pd -0.00472(3) 0.91540(3) 0.39982(3)
Pd3 Pd 0.36072(3) 0.71156(3) 0.56168(4)
Pd4 Pd 0.61289(3) 1.02548(3) 0.27974(3)
Pd5 Pd 0.35069(4) 1.07304(3) 0.41488(3)
Pd6 Pd -0.08817(3) 0.72008(3) 0.26338(4)
C1 C -0.0079(5) 0.6438(4) 0.2648(5)
H1 H -0.0363 0.6286 0.2444
C2 C 0.0404(5) 0.6204(4) 0.2768(5)
H2 H 0.0456 0.5897 0.2646
C3 C 0.0813(4) 0.6431(4) 0.3074(4)
H3 H 0.1146 0.6277 0.3169
C4 C 0.0734(4) 0.6872(3) 0.3234(4)
C5 C 0.0237(4) 0.7094(3) 0.3094(4)
H4 H 0.0182 0.7404 0.3202
C6 C 0.3302(4) 0.6438(3) 0.4767(5)
H5 H 0.3629 0.6294 0.4904
C7 C 0.3009(5) 0.6227(4) 0.4345(5)
H6 H 0.3133 0.5944 0.4195
C8 C 0.2522(4) 0.6435(4) 0.4138(5)
H7 H 0.2306 0.6292 0.3855
C9 C 0.2370(4) 0.6850(3) 0.4356(4)
C10 C 0.2690(4) 0.7048(3) 0.4804(4)
H8 H 0.2578 0.7329 0.4967
C11 C 0.1132(5) 0.9155(4) 0.4378(5)
H9 H 0.1067 0.9472 0.4444
C12 C 0.1617(5) 0.8983(5) 0.4502(6)
H10 H 0.1891 0.9173 0.4671
C13 C 0.1738(5) 0.8519(4) 0.4387(5)
H11 H 0.2094 0.8395 0.4465
C14 C 0.1323(4) 0.8250(4) 0.4158(4)
C15 C 0.0822(4) 0.8449(3) 0.4039(4)
H12 H 0.0540 0.8269 0.3868
C16 C 0.1130(4) 0.7117(3) 0.3589(4)
C17 C 0.1892(4) 0.7115(4) 0.4147(4)
C18 C 0.1421(4) 0.7758(3) 0.4032(4)
C19 C -0.0604(5) 0.7214(4) 0.1460(5)
H13 H -0.0790 0.6927 0.1470
C20 C -0.0392(6) 0.7360(4) 0.0972(5)
H14 H -0.0435 0.7182 0.0646
C21 C -0.0116(5) 0.7770(4) 0.0967(4)
H15 H 0.0047 0.7872 0.0635
C22 C -0.0071(4) 0.8032(3) 0.1431(4)
C23 C -0.0295(3) 0.7853(3) 0.1908(4)
H16 H -0.0256 0.8024 0.2241
C24 C 0.1302(4) 0.9590(3) -0.0493(4)
H17 H 0.1457 0.9715 -0.0818
C25 C 0.1106(4) 0.9137(3) -0.0501(4)
H18 H 0.1128 0.8956 -0.0826
C26 C 0.0879(3) 0.8958(3) -0.0025(4)
H19 H 0.0742 0.8652 -0.0020
C27 C 0.0857(3) 0.9229(3) 0.0440(3)
C28 C 0.1059(3) 0.9678(3) 0.0426(3)
H20 H 0.1043 0.9863 0.0749
C29 C 0.0288(4) 0.9229(3) 0.2867(4)
H21 H 0.0163 0.8920 0.2872
C30 C 0.0492(4) 0.9407(3) 0.2376(4)
C31 C 0.0684(4) 0.9871(3) 0.2376(4)
H22 H 0.0822 1.0008 0.2050
C32 C 0.0663(5) 1.0113(4) 0.2860(4)
H23 H 0.0796 1.0420 0.2873
C33 C 0.0449(5) 0.9913(4) 0.3336(4)
H24 H 0.0433 1.0088 0.3666
C34 C 0.0213(4) 0.8478(3) 0.1435(4)
C35 C 0.0634(3) 0.9051(3) 0.0963(3)
C36 C 0.0484(3) 0.9124(3) 0.1877(3)
C37 C 0.5973(4) 0.9852(4) 0.1680(4)
H25 H 0.6355 0.9783 0.1719
C38 C 0.5692(4) 0.9709(4) 0.1214(5)
H26 H 0.5871 0.9535 0.0938
C39 C 0.5127(4) 0.9826(4) 0.1156(4)
H27 H 0.4925 0.9744 0.0831
C40 C 0.4878(4) 1.0054(3) 0.1565(4)
C41 C 0.5182(4) 1.0177(3) 0.2036(4)
H28 H 0.4999 1.0327 0.2329
C42 C 0.2585(4) 1.0129(3) -0.0471(4)
H29 H 0.2373 1.0103 -0.0803
C43 C 0.3130(4) 0.9995(3) -0.0460(4)
H30 H 0.3294 0.9883 -0.0786
C44 C 0.3445(4) 1.0023(3) 0.0032(4)
H31 H 0.3820 0.9926 0.0046
C45 C 0.3195(3) 1.0193(3) 0.0488(4)
C46 C 0.2641(3) 1.0334(3) 0.0456(4)
H32 H 0.2472 1.0456 0.0775
C47 C 0.2573(4) 1.0554(4) 0.3388(4)
H33 H 0.2370 1.0597 0.3716
C48 C 0.2291(5) 1.0483(5) 0.2904(5)
H34 H 0.1899 1.0489 0.2896
C49 C 0.2574(5) 1.0404(4) 0.2425(4)
H35 H 0.2380 1.0346 0.2088
C50 C 0.3155(4) 1.0412(3) 0.2443(4)
C51 C 0.3421(4) 1.0489(3) 0.2961(3)
H36 H 0.3813 1.0489 0.2985
C52 C 0.4275(4) 1.0163(3) 0.1545(4)
C53 C 0.3495(3) 1.0228(3) 0.1033(4)
C54 C 0.3477(3) 1.0330(3) 0.1948(3)
C55 C 0.6437(5) 0.9300(5) 0.2934(7)
H37 H 0.6744 0.9401 0.2730
C56 C 0.6412(7) 0.8852(6) 0.3088(8)
H38 H 0.6716 0.8656 0.3016
C57 C 0.5961(5) 0.8675(4) 0.3344(6)
H39 H 0.5915 0.8355 0.3402
C58 C 0.5563(4) 0.9003(4) 0.3517(4)
C59 C 0.5613(4) 0.9443(4) 0.3351(4)
H40 H 0.5329 0.9652 0.3444
C60 C 0.4612(5) 0.6929(4) 0.4910(7)
H41 H 0.4586 0.6622 0.5040
C61 C 0.5030(6) 0.7038(4) 0.4565(7)
H42 H 0.5301 0.6816 0.4472
C62 C 0.5051(5) 0.7484(4) 0.4348(6)
H43 H 0.5328 0.7570 0.4096
C63 C 0.4652(4) 0.7798(3) 0.4514(5)
C64 C 0.4250(4) 0.7671(3) 0.4865(4)
H44 H 0.3976 0.7888 0.4963
C65 C 0.3861(4) 0.9760(3) 0.4238(4)
H45 H 0.4148 0.9858 0.4004
C66 C 0.3842(4) 0.9299(3) 0.4422(4)
C67 C 0.3418(4) 0.9161(3) 0.4768(4)
H46 H 0.3398 0.8852 0.4890
C68 C 0.3031(4) 0.9473(4) 0.4931(4)
H47 H 0.2738 0.9389 0.5166
C69 C 0.3090(4) 0.9925(4) 0.4730(4)
H48 H 0.2832 1.0149 0.4848
C70 C 0.5094(4) 0.8849(3) 0.3851(4)
C71 C 0.4671(4) 0.8284(3) 0.4306(4)
C72 C 0.4281(4) 0.8975(3) 0.4260(4)
N1 N -0.0162(3) 0.6873(3) 0.2808(3)
N2 N 0.3148(3) 0.6833(3) 0.4990(3)
N3 N 0.0716(3) 0.8891(3) 0.4157(3)
N4 N 0.1549(3) 0.6869(3) 0.3807(3)
N5 N 0.1052(3) 0.7565(3) 0.3680(3)
N6 N 0.1844(3) 0.7551(3) 0.4272(3)
N7 N -0.0558(3) 0.7460(3) 0.1923(3)
N8 N 0.1275(3) 0.9853(2) -0.0035(3)
N9 N 0.0263(3) 0.9478(3) 0.3330(3)
N10 N 0.0377(3) 0.8641(2) 0.0940(3)
N11 N 0.0253(3) 0.8711(2) 0.1914(3)
N12 N 0.0693(3) 0.9302(2) 0.1414(3)
N13 N 0.2349(3) 1.0299(2) -0.0009(3)
N14 N 0.5720(3) 1.0092(3) 0.2090(3)
N15 N 0.3127(4) 1.0564(3) 0.3420(3)
N16 N 0.4037(3) 1.0148(3) 0.1037(3)
N17 N 0.4025(3) 1.0255(2) 0.2007(3)
N18 N 0.3200(3) 1.0326(2) 0.1476(3)
N19 N 0.6045(3) 0.9606(3) 0.3059(3)
N20 N 0.4230(3) 0.7240(3) 0.5080(4)
N21 N 0.3477(3) 1.0058(3) 0.4393(3)
N22 N 0.5108(3) 0.8408(3) 0.4024(3)
N23 N 0.4702(3) 0.9144(2) 0.3947(3)
N24 N 0.4241(3) 0.8554(3) 0.4434(3)
N25 N 0.0767(3) 1.0771(3) -0.0068(3)
H49 H 0.0559 1.0618 -0.0330
H50 H 0.0601 1.0737 0.0268
N26 N 0.1761(4) 1.1183(3) -0.0021(4)
H51 H 0.2031 1.1231 0.0244
H52 H 0.1902 1.1264 -0.0358
N27 N -0.0819(3) 0.9405(3) 0.3880(4)
H53 H -0.0839 0.9700 0.4016
H54 H -0.0906 0.9413 0.3509
N28 N -0.0382(4) 0.8796(3) 0.4619(4)
H55 H -0.0430 0.8494 0.4518
H56 H -0.0156 0.8807 0.4928
N29 N 0.4032(3) 0.7384(3) 0.6263(4)
H57 H 0.4287 0.7173 0.6390
H58 H 0.4220 0.7641 0.6150
N30 N 0.2993(3) 0.7066(3) 0.6172(3)
H59 H 0.2732 0.7289 0.6105
H60 H 0.2824 0.6784 0.6143
N31 N 0.6317(4) 1.0891(3) 0.2535(4)
H61 H 0.6618 1.0882 0.2310
H62 H 0.6024 1.1014 0.2338
N32 N 0.6503(4) 1.0466(4) 0.3511(4)
H63 H 0.6242 1.0508 0.3778
H64 H 0.6747 1.0245 0.3634
N33 N 0.3522(6) 1.1404(3) 0.3956(4)
H65 H 0.3803 1.1463 0.3715
H66 H 0.3193 1.1490 0.3791
N34 N 0.3853(5) 1.0939(3) 0.4865(4)
H67 H 0.3619 1.0876 0.5150
H68 H 0.4177 1.0782 0.4928
N35 N -0.1624(4) 0.7507(4) 0.2509(5)
H69 H -0.1584 0.7821 0.2511
H70 H -0.1772 0.7421 0.2172
N36 N -0.1228(4) 0.6971(4) 0.3326(6)
H71 H -0.1231 0.6655 0.3325
H72 H -0.1023 0.7067 0.3628
C73 C -0.1979(6) 0.7368(7) 0.2943(9)
H73 H -0.2155 0.7648 0.3089
H74 H -0.2276 0.7179 0.2774
C74 C -0.1780(9) 0.7139(10) 0.3366(13)
H75 H -0.2026 0.6874 0.3432
H76 H -0.1797 0.7340 0.3695
C75 C 0.0804(4) 1.1254(4) -0.0208(4)
H77 H 0.0460 1.1413 -0.0104
H78 H 0.0849 1.1289 -0.0611
C76 C 0.1289(5) 1.1465(3) 0.0094(5)
H79 H 0.1350 1.1783 -0.0035
H80 H 0.1222 1.1473 0.0496
C77 C -0.1209(5) 0.9106(5) 0.4170(5)
H81 H -0.1266 0.8815 0.3967
H82 H -0.1569 0.9261 0.4211
C78 C -0.0935(5) 0.9018(6) 0.4735(5)
H83 H -0.0882 0.9310 0.4939
H84 H -0.1166 0.8811 0.4959
C79 C 0.3668(5) 0.7507(4) 0.6706(5)
H85 H 0.3487 0.7805 0.6626
H86 H 0.3878 0.7533 0.7059
C80 C 0.3238(5) 0.7125(4) 0.6742(5)
H87 H 0.3414 0.6836 0.6868
H88 H 0.2948 0.7210 0.7005
C81 C 0.6439(6) 1.1172(5) 0.3030(6)
H89 H 0.6092 1.1261 0.3210
H90 H 0.6636 1.1456 0.2923
C82 C 0.6794(6) 1.0893(5) 0.3422(6)
H91 H 0.7159 1.0833 0.3260
H92 H 0.6850 1.1059 0.3775
C83 C 0.3610(10) 1.1648(5) 0.4456(8)
H93 H 0.3770 1.1952 0.4368
H94 H 0.3248 1.1702 0.4627
C84 C 0.3963(9) 1.1424(5) 0.4850(7)
H95 H 0.3906 1.1558 0.5220
H96 H 0.4353 1.1476 0.4752
O1 O 0.2192(5) 0.8215(3) 0.3169(3)
H97 H 0.2504 0.8340 0.3195
O2 O 0.1880(6) 0.8792(3) 0.2351(4)
H98 H 0.1988 0.8596 0.2583
O3 O 0.2893(8) 0.9264(3) 0.2471(4)
H99 H 0.2598 0.9116 0.2426
O4 O 0.3222(6) 0.8638(3) 0.3280(4)
H100 H 0.3151 0.8818 0.3017
C85 C 0.2407(4) 0.6895(4) 0.2577(5)
H101 H 0.2460 0.6592 0.2442
C86 C 0.1958(5) 0.7158(5) 0.2386(5)
H102 H 0.1705 0.7032 0.2124
C87 C 0.1883(5) 0.7589(5) 0.2571(5)
C88 C 0.2251(7) 0.7764(4) 0.2966(5)
C89 C 0.2723(5) 0.7512(4) 0.3170(5)
C90 C 0.2764(5) 0.7075(4) 0.2957(4)
H103 H 0.3062 0.6888 0.3083
C91 C 0.1401(7) 0.7880(6) 0.2349(6)
H104 H 0.1272 0.8089 0.2641
H105 H 0.1090 0.7677 0.2238
C92 C 0.1656(4) 0.8164(5) 0.0839(5)
H106 H 0.1602 0.8020 0.0490
C93 C 0.1911(5) 0.8595(5) 0.0882(5)
H107 H 0.2029 0.8743 0.0555
C94 C 0.1995(6) 0.8808(5) 0.1375(5)
C95 C 0.1825(7) 0.8587(5) 0.1834(6)
C96 C 0.1596(5) 0.8172(6) 0.1830(6)
C97 C 0.1491(4) 0.7960(6) 0.1309(6)
H108 H 0.1303 0.7673 0.1291
C98 C 0.2333(9) 0.9261(5) 0.1415(7)
H109 H 0.2267 0.9442 0.1073
H110 H 0.2197 0.9445 0.1728
C99 C 0.3832(8) 0.9009(5) 0.1096(6)
H111 H 0.4049 0.8940 0.0785
C100 C 0.4065(9) 0.9017(6) 0.1616(7)
H112 H 0.4452 0.8966 0.1646
C101 C 0.3803(11) 0.9087(6) 0.2069(7)
C102 C 0.3233(11) 0.9188(4) 0.2026(7)
C103 C 0.2947(10) 0.9187(4) 0.1492(6)
C104 C 0.3302(8) 0.9100(4) 0.1033(6)
H113 H 0.3147 0.9108 0.0670
C105 C 0.4043(11) 0.9079(6) 0.2649(7)
H114 H 0.3792 0.9242 0.2901
H115 H 0.4402 0.9241 0.2657
C106 C 0.4567(8) 0.7849(6) 0.2894(7)
H116 H 0.4886 0.7672 0.2820
C107 C 0.4094(8) 0.7642(6) 0.3186(6)
H117 H 0.4101 0.7328 0.3289
C108 C 0.3644(7) 0.7914(5) 0.3305(5)
C109 C 0.3649(9) 0.8366(5) 0.3147(6)
C110 C 0.4128(10) 0.8561(5) 0.2854(6)
C111 C 0.4532(10) 0.8311(8) 0.2730(9)
H118 H 0.4821 0.8438 0.2520
C112 C 0.3139(7) 0.7687(5) 0.3582(5)
H119 H 0.3269 0.7428 0.3816
H120 H 0.2961 0.7914 0.3825
N37 N 0.2376(4) 0.5608(4) 0.3094(4)
O5 O 0.2828(5) 0.5566(5) 0.3310(5)
O6 O 0.2374(5) 0.5732(4) 0.2627(5)
O7 O 0.1940(5) 0.5540(4) 0.3323(5)
N38 N 0.8258(5) 0.9679(4) 0.5437(5)
O8 O 0.7936(6) 0.9303(5) 0.5397(6)
O9 O 0.8525(6) 0.9760(5) 0.5818(6)
O10 O 0.8238(6) 0.9971(5) 0.5029(6)
N39 N 0.1540(4) 0.0754(3) 0.1523(4)
O11 O 0.1577(3) 0.0360(3) 0.1376(3)
O12 O 0.1217(4) 0.0835(3) 0.1916(4)
O13 O 0.1830(4) 0.1052(4) 0.1328(4)
N40 N 0.2651(4) 0.8179(3) 0.5570(4)
O14 O 0.2504(3) 0.8583(3) 0.5478(3)
O15 O 0.2358(3) 0.7883(3) 0.5781(3)
O16 O 0.3105(6) 0.8064(5) 0.5424(6)
O17 O 0.1014(11) -0.0136(9) 0.7847(11)
N41 N 0.0511(9) 0.0256(7) 0.8603(8)
O18 O 0.0690(8) 0.0640(6) 0.8458(8)
O19 O 0.0487(8) -0.0048(6) 0.8251(7)
O20 O 0.0319(8) 0.0169(7) 0.9054(6)
O21 O 0.1094(8) 0.0040(7) 0.7188(8)
N42 N 0.0299(6) 0.7385(5) 0.4698(6)
O22 O 0.0171(4) 0.7754(4) 0.4780(4)
O23 O 0.0797(6) 0.7289(4) 0.4893(5)
O24 O 0.0083(5) 0.7098(4) 0.4487(5)
N43 N 0.4543(8) 0.9179(5) 0.9437(8)
O25 O 0.4470(5) 0.9231(4) 0.9908(6)
O26 O 0.4165(7) 0.9194(5) 0.9104(7)
O27 O 0.5011(6) 0.9055(5) 0.9213(6)
N44 N 0.8282(9) 0.7937(9) 0.1257(9)
O28 O 0.8492(7) 0.8258(6) 0.1556(8)
O29 O 0.8085(9) 0.7534(8) 0.1409(9)
O30 O 0.7981(10) 0.8263(9) 0.0954(10)
N45 N 0.0747(8) 0.1737(8) 0.6795(9)
O31 O 0.0995(10) 0.1549(10) 0.7198(10)
O32 O 0.0273(8) 0.1853(10) 0.6798(10)
O33 O 0.0998(11) 0.1854(11) 0.6381(11)
N46 N 0.4873(11) 0.0786(10) 0.3373(11)
O34 O 0.4763(10) 0.0358(8) 0.3418(10)
O35 O 0.4619(15) 0.1082(12) 0.3561(14)
O36 O 0.5207(8) 0.0934(6) 0.3033(8)
O37 O 0.0817(8) 0.9616(6) 0.5672(8)
O38 O 0.1163(5) 0.8032(4) 0.5622(5)
O39 O 0.7410(5) 0.9893(5) 0.3825(5)
O40 O 0.8866(5) 0.8998(4) 0.6281(5)
O41 O 0.7898(6) 0.8547(5) 0.2950(5)
O42 O 0.7231(6) 0.9168(5) 0.4444(6)
O43 O 0.1472(6) 0.5887(5) 0.1970(6)
O44 O 0.2625(5) 0.4501(5) 0.3151(6)
O45 O 0.7282(5) 0.8231(4) 0.2111(5)
O46 O 0.0767(6) 0.8308(5) 0.6639(6)
O47 O 0.1779(6) 0.9246(5) 0.5913(6)
O48 O 0.2155(6) 0.4515(5) 0.2118(6)
O49 O 0.3269(6) 0.3885(5) 0.3555(6)
O50 O 0.8526(9) 0.8635(7) 0.7116(9)
O51 O 0.2690(7) 0.1491(6) 0.0731(7)
O52 O 0.7524(6) 0.8334(5) 0.3959(6)
O53 O 0.3109(7) 0.3745(6) 0.4680(7)
O54 O 0.5713(7) 0.8991(6) 0.0181(7)
O55 O 0.5723(7) 0.1450(6) 0.1772(7)
O56 O 0.8162(9) 0.7911(7) 0.4761(9)
O57 O 0.5109(11) 0.6647(9) 0.6208(11)
O58 O 0.5717(8) 0.8593(7) 0.1847(8)
O59 O 0.4679(13) 1.2476(11) 0.4324(13)
O60 O 0.6794(10) 0.7470(9) 0.1786(10)
O61 O -0.0830(12) 0.7758(9) 0.4211(12)
O62 O 0.6056(14) 0.7669(12) 0.2232(14)
O63 O 0.6963(9) 0.7783(7) 0.0689(9)
O64 O 0.7411(17) 0.7318(13) 0.4670(16)
O65 O 0.1707(8) 0.4107(7) 0.3661(8)
O66 O 0.3209(15) 0.1493(12) 0.1630(15)
O67 O 0.6806(10) 0.6622(9) 0.2302(10)
O68 O 0.7266(8) 0.6638(7) 0.1991(8)
O69 O -0.0005(9) 0.8944(7) 0.6439(9)
O70 O 0.0481(8) 0.8789(7) 0.5437(8)
O71 O 0.6069(9) 0.7440(8) 0.3349(9)
O72 O 0.5629(10) 0.0173(8) 0.4420(10)
O73 O 0.5500(12) 0.1640(10) 0.4053(12)
loop_
_geom_bond_atom_site_label_1
_geom_bond_atom_site_label_2
_geom_bond_site_symmetry_1
_geom_bond_site_symmetry_2
Pd1 N8 1_555 1_555
Pd2 N3 1_555 1_555
Pd3 N2 1_555 1_555
Pd4 N14 1_555 1_555
Pd5 N15 1_555 1_555
Pd6 N1 1_555 1_555
C1 H1 1_555 1_555
C2 C1 1_555 1_555
H2 C2 1_555 1_555
C3 C2 1_555 1_555
H3 C3 1_555 1_555
C4 C3 1_555 1_555
C5 C4 1_555 1_555
H4 C5 1_555 1_555
C6 H5 1_555 1_555
C7 C6 1_555 1_555
H6 C7 1_555 1_555
C8 C7 1_555 1_555
H7 C8 1_555 1_555
C9 C8 1_555 1_555
C10 C9 1_555 1_555
H8 C10 1_555 1_555
C11 H9 1_555 1_555
C12 C11 1_555 1_555
H10 C12 1_555 1_555
C13 C12 1_555 1_555
H11 C13 1_555 1_555
C14 C13 1_555 1_555
C15 C14 1_555 1_555
H12 C15 1_555 1_555
C16 C4 1_555 1_555
C17 C9 1_555 1_555
C18 C14 1_555 1_555
C19 H13 1_555 1_555
C20 C19 1_555 1_555
H14 C20 1_555 1_555
C21 C20 1_555 1_555
H15 C21 1_555 1_555
C22 C21 1_555 1_555
C23 C22 1_555 1_555
H16 C23 1_555 1_555
C24 H17 1_555 1_555
C25 C24 1_555 1_555
H18 C25 1_555 1_555
C26 C25 1_555 1_555
H19 C26 1_555 1_555
C27 C26 1_555 1_555
C28 C27 1_555 1_555
H20 C28 1_555 1_555
C29 H21 1_555 1_555
C30 C29 1_555 1_555
C31 C30 1_555 1_555
H22 C31 1_555 1_555
C32 C31 1_555 1_555
H23 C32 1_555 1_555
C33 C32 1_555 1_555
H24 C33 1_555 1_555
C34 C22 1_555 1_555
C35 C27 1_555 1_555
C36 C30 1_555 1_555
C37 H25 1_555 1_555
C38 C37 1_555 1_555
H26 C38 1_555 1_555
C39 C38 1_555 1_555
H27 C39 1_555 1_555
C40 C39 1_555 1_555
C41 C40 1_555 1_555
H28 C41 1_555 1_555
C42 H29 1_555 1_555
C43 C42 1_555 1_555
H30 C43 1_555 1_555
C44 C43 1_555 1_555
H31 C44 1_555 1_555
C45 C44 1_555 1_555
C46 C45 1_555 1_555
H32 C46 1_555 1_555
C47 H33 1_555 1_555
C48 C47 1_555 1_555
H34 C48 1_555 1_555
C49 C48 1_555 1_555
H35 C49 1_555 1_555
C50 C49 1_555 1_555
C51 C50 1_555 1_555
H36 C51 1_555 1_555
C52 C40 1_555 1_555
C53 C45 1_555 1_555
C54 C50 1_555 1_555
C55 H37 1_555 1_555
C56 C55 1_555 1_555
H38 C56 1_555 1_555
C57 C56 1_555 1_555
H39 C57 1_555 1_555
C58 C57 1_555 1_555
C59 C58 1_555 1_555
H40 C59 1_555 1_555
C60 H41 1_555 1_555
C61 C60 1_555 1_555
H42 C61 1_555 1_555
C62 C61 1_555 1_555
H43 C62 1_555 1_555
C63 C62 1_555 1_555
C64 C63 1_555 1_555
H44 C64 1_555 1_555
C65 H45 1_555 1_555
C66 C65 1_555 1_555
C67 C66 1_555 1_555
H46 C67 1_555 1_555
C68 C67 1_555 1_555
H47 C68 1_555 1_555
C69 C68 1_555 1_555
H48 C69 1_555 1_555
C70 C58 1_555 1_555
C71 C63 1_555 1_555
C72 C66 1_555 1_555
N1 C1 1_555 1_555
N2 C6 1_555 1_555
N3 C11 1_555 1_555
N4 C16 1_555 1_555
N5 C16 1_555 1_555
N6 C17 1_555 1_555
N7 Pd6 1_555 1_555
N8 C24 1_555 1_555
N9 Pd2 1_555 1_555
N10 C34 1_555 1_555
N11 C34 1_555 1_555
N12 C35 1_555 1_555
N13 Pd1 1_555 1_555
N14 C37 1_555 1_555
N15 C47 1_555 1_555
N16 C52 1_555 1_555
N17 C52 1_555 1_555
N18 C53 1_555 1_555
N19 Pd4 1_555 1_555
N20 Pd3 1_555 1_555
N21 Pd5 1_555 1_555
N22 C70 1_555 1_555
N23 C70 1_555 1_555
N24 C71 1_555 1_555
N25 Pd1 1_555 1_555
H49 N25 1_555 1_555
H50 N25 1_555 1_555
N26 Pd1 1_555 1_555
H51 N26 1_555 1_555
H52 N26 1_555 1_555
N27 Pd2 1_555 1_555
H53 N27 1_555 1_555
H54 N27 1_555 1_555
N28 Pd2 1_555 1_555
H55 N28 1_555 1_555
H56 N28 1_555 1_555
N29 Pd3 1_555 1_555
H57 N29 1_555 1_555
H58 N29 1_555 1_555
N30 Pd3 1_555 1_555
H59 N30 1_555 1_555
H60 N30 1_555 1_555
N31 Pd4 1_555 1_555
H61 N31 1_555 1_555
H62 N31 1_555 1_555
N32 Pd4 1_555 1_555
H63 N32 1_555 1_555
H64 N32 1_555 1_555
N33 Pd5 1_555 1_555
H65 N33 1_555 1_555
H66 N33 1_555 1_555
N34 Pd5 1_555 1_555
H67 N34 1_555 1_555
H68 N34 1_555 1_555
N35 Pd6 1_555 1_555
H69 N35 1_555 1_555
H70 N35 1_555 1_555
N36 Pd6 1_555 1_555
H71 N36 1_555 1_555
H72 N36 1_555 1_555
C73 N35 1_555 1_555
H73 C73 1_555 1_555
H74 C73 1_555 1_555
C74 N36 1_555 1_555
H75 C74 1_555 1_555
H76 C74 1_555 1_555
C75 N25 1_555 1_555
H77 C75 1_555 1_555
H78 C75 1_555 1_555
C76 N26 1_555 1_555
H79 C76 1_555 1_555
H80 C76 1_555 1_555
C77 N27 1_555 1_555
H81 C77 1_555 1_555
H82 C77 1_555 1_555
C78 N28 1_555 1_555
H83 C78 1_555 1_555
H84 C78 1_555 1_555
C79 N29 1_555 1_555
H85 C79 1_555 1_555
H86 C79 1_555 1_555
C80 N30 1_555 1_555
H87 C80 1_555 1_555
H88 C80 1_555 1_555
C81 N31 1_555 1_555
H89 C81 1_555 1_555
H90 C81 1_555 1_555
C82 N32 1_555 1_555
H91 C82 1_555 1_555
H92 C82 1_555 1_555
C83 N33 1_555 1_555
H93 C83 1_555 1_555
H94 C83 1_555 1_555
C84 N34 1_555 1_555
H95 C84 1_555 1_555
H96 C84 1_555 1_555
O1 H97 1_555 1_555
O2 H98 1_555 1_555
O3 H99 1_555 1_555
O4 H100 1_555 1_555
C85 H101 1_555 1_555
C86 C85 1_555 1_555
H102 C86 1_555 1_555
C87 C86 1_555 1_555
C88 O1 1_555 1_555
C89 C88 1_555 1_555
C90 C85 1_555 1_555
H103 C90 1_555 1_555
C91 C87 1_555 1_555
H104 C91 1_555 1_555
H105 C91 1_555 1_555
C92 H106 1_555 1_555
C93 C92 1_555 1_555
H107 C93 1_555 1_555
C94 C93 1_555 1_555
C95 O2 1_555 1_555
C96 C91 1_555 1_555
C97 C92 1_555 1_555
H108 C97 1_555 1_555
C98 C94 1_555 1_555
H109 C98 1_555 1_555
H110 C98 1_555 1_555
C99 H111 1_555 1_555
C100 C99 1_555 1_555
H112 C100 1_555 1_555
C101 C100 1_555 1_555
C102 O3 1_555 1_555
C103 C98 1_555 1_555
C104 C99 1_555 1_555
H113 C104 1_555 1_555
C105 C101 1_555 1_555
H114 C105 1_555 1_555
H115 C105 1_555 1_555
C106 H116 1_555 1_555
C107 C106 1_555 1_555
H117 C107 1_555 1_555
C108 C107 1_555 1_555
C109 O4 1_555 1_555
C110 C105 1_555 1_555
C111 C106 1_555 1_555
H118 C111 1_555 1_555
C112 C89 1_555 1_555
H119 C112 1_555 1_555
H120 C112 1_555 1_555
N37 O5 1_555 1_555
O6 N37 1_555 1_555
O7 N37 1_555 1_555
N38 O8 1_555 1_555
O9 N38 1_555 1_555
O10 N38 1_555 1_555
N39 O11 1_555 1_555
O12 N39 1_555 1_555
O13 N39 1_555 1_555
N40 O14 1_555 1_555
O15 N40 1_555 1_555
O16 N40 1_555 1_555
N41 O18 1_555 1_555
O19 N41 1_555 1_555
O20 N41 1_555 1_555
N42 O22 1_555 1_555
O23 N42 1_555 1_555
O24 N42 1_555 1_555
N43 O25 1_555 1_555
O26 N43 1_555 1_555
O27 N43 1_555 1_555
N44 O28 1_555 1_555
O29 N44 1_555 1_555
O30 N44 1_555 1_555
N45 O31 1_555 1_555
O32 N45 1_555 1_555
O33 N45 1_555 1_555
N46 O34 1_555 1_555
O35 N46 1_555 1_555
O36 N46 1_555 1_555
C5 N1 1_555 1_555
C10 N2 1_555 1_555
C15 N3 1_555 1_555
C17 N4 1_555 1_555
C18 N5 1_555 1_555
C18 N6 1_555 1_555
C19 N7 1_555 1_555
C23 N7 1_555 1_555
C28 N8 1_555 1_555
C29 N9 1_555 1_555
C33 N9 1_555 1_555
C35 N10 1_555 1_555
C36 N11 1_555 1_555
C36 N12 1_555 1_555
C41 N14 1_555 1_555
C42 N13 1_555 1_555
C46 N13 1_555 1_555
C51 N15 1_555 1_555
C53 N16 1_555 1_555
C54 N17 1_555 1_555
C54 N18 1_555 1_555
C55 N19 1_555 1_555
C59 N19 1_555 1_555
C60 N20 1_555 1_555
C64 N20 1_555 1_555
C65 N21 1_555 1_555
C69 N21 1_555 1_555
C71 N22 1_555 1_555
C72 N23 1_555 1_555
C72 N24 1_555 1_555
C73 C74 1_555 1_555
C75 C76 1_555 1_555
C77 C78 1_555 1_555
C79 C80 1_555 1_555
C81 C82 1_555 1_555
C83 C84 1_555 1_555
C87 C88 1_555 1_555
C89 C90 1_555 1_555
C94 C95 1_555 1_555
C95 C96 1_555 1_555
C96 C97 1_555 1_555
C101 C102 1_555 1_555
C102 C103 1_555 1_555
C103 C104 1_555 1_555
C108 C109 1_555 1_555
C108 C112 1_555 1_555
C109 C110 1_555 1_555
C110 C111 1_555 1_555

#END
