# generated using pymatgen
data_H60Pd3C56(N12O23)2
_symmetry_space_group_name_H-M   'P 1'
_cell_length_a   24.22500000
_cell_length_b   24.24000000
_cell_length_c   29.12500000
_cell_angle_alpha   90.00000000
_cell_angle_beta   90.00000000
_cell_angle_gamma   91.04700000
_symmetry_Int_Tables_number   1
_chemical_formula_structural   H60Pd3C56(N12O23)2
_chemical_formula_sum   'H480 Pd24 C448 N192 O368'
_cell_volume   17099.75234081
_cell_formula_units_Z   8
loop_
 _symmetry_equiv_pos_site_id
 _symmetry_equiv_pos_as_xyz
  1  'x, y, z'
loop_
 _atom_site_type_symbol
 _atom_site_label
 _atom_site_symmetry_multiplicity
 _atom_site_fract_x
 _atom_site_fract_y
 _atom_site_fract_z
 _atom_site_occupancy
  H  H1  1  0.244400  0.963700  0.628600  1
  H  H2  1  0.255600  0.036300  0.128600  1
  H  H3  1  0.755600  0.036300  0.371400  1
  H  H4  1  0.744400  0.963700  0.871400  1
  H  H5  1  0.264600  0.045600  0.589700  1
  H  H6  1  0.235400  0.954400  0.089700  1
  H  H7  1  0.735400  0.954400  0.410300  1
  H  H8  1  0.764600  0.045600  0.910300  1
  H  H9  1  0.316900  0.114600  0.627700  1
  H  H10  1  0.183100  0.885400  0.127700  1
  H  H11  1  0.683100  0.885400  0.372300  1
  H  H12  1  0.816900  0.114600  0.872300  1
  H  H13  1  0.320200  0.018200  0.740400  1
  H  H14  1  0.179800  0.981800  0.240400  1
  H  H15  1  0.679800  0.981800  0.259600  1
  H  H16  1  0.820200  0.018200  0.759600  1
  H  H17  1  0.490400  0.362900  0.629400  1
  H  H18  1  0.009600  0.637100  0.129400  1
  H  H19  1  0.509600  0.637100  0.370600  1
  H  H20  1  0.990400  0.362900  0.870600  1
  H  H21  1  0.419500  0.313300  0.594400  1
  H  H22  1  0.080500  0.686700  0.094400  1
  H  H23  1  0.580500  0.686700  0.405600  1
  H  H24  1  0.919500  0.313300  0.905600  1
  H  H25  1  0.385500  0.230600  0.629200  1
  H  H26  1  0.114500  0.769400  0.129200  1
  H  H27  1  0.614500  0.769400  0.370800  1
  H  H28  1  0.885500  0.230600  0.870800  1
  H  H29  1  0.496700  0.257800  0.732900  1
  H  H30  1  0.003300  0.742200  0.232900  1
  H  H31  1  0.503300  0.742200  0.267100  1
  H  H32  1  0.996700  0.257800  0.767100  1
  H  H33  1  0.444400  0.106700  0.947200  1
  H  H34  1  0.055600  0.893300  0.447200  1
  H  H35  1  0.555600  0.893300  0.052800  1
  H  H36  1  0.944400  0.106700  0.552800  1
  H  H37  1  0.467100  0.189100  0.917300  1
  H  H38  1  0.032900  0.810900  0.417300  1
  H  H39  1  0.532900  0.810900  0.082700  1
  H  H40  1  0.967100  0.189100  0.582700  1
  H  H41  1  0.446500  0.209400  0.839500  1
  H  H42  1  0.053500  0.790600  0.339500  1
  H  H43  1  0.553500  0.790600  0.160500  1
  H  H44  1  0.946500  0.209400  0.660500  1
  H  H45  1  0.386800  0.054000  0.826900  1
  H  H46  1  0.113200  0.946000  0.326900  1
  H  H47  1  0.613200  0.946000  0.173100  1
  H  H48  1  0.886800  0.054000  0.673100  1
  H  H49  1  0.147000  0.921000  0.692700  1
  H  H50  1  0.353000  0.079000  0.192700  1
  H  H51  1  0.853000  0.079000  0.307300  1
  H  H52  1  0.647000  0.921000  0.807300  1
  H  H53  1  0.064600  0.956500  0.718200  1
  H  H54  1  0.435400  0.043500  0.218200  1
  H  H55  1  0.935400  0.043500  0.281800  1
  H  H56  1  0.564600  0.956500  0.781800  1
  H  H57  1  0.063500  0.004700  0.787200  1
  H  H58  1  0.436500  0.995300  0.287200  1
  H  H59  1  0.936500  0.995300  0.212800  1
  H  H60  1  0.563500  0.004700  0.712800  1
  H  H61  1  0.224100  0.974400  0.802400  1
  H  H62  1  0.275900  0.025600  0.302400  1
  H  H63  1  0.775900  0.025600  0.197600  1
  H  H64  1  0.724100  0.974400  0.697600  1
  H  H65  1  0.918200  0.145700  0.971500  1
  H  H66  1  0.581800  0.854300  0.471500  1
  H  H67  1  0.081800  0.854300  0.028500  1
  H  H68  1  0.418200  0.145700  0.528500  1
  H  H69  1  0.917400  0.112800  0.895600  1
  H  H70  1  0.582600  0.887200  0.395600  1
  H  H71  1  0.082600  0.887200  0.104400  1
  H  H72  1  0.417400  0.112800  0.604400  1
  H  H73  1  0.998000  0.074200  0.865200  1
  H  H74  1  0.502000  0.925800  0.365200  1
  H  H75  1  0.002000  0.925800  0.134800  1
  H  H76  1  0.498000  0.074200  0.634800  1
  H  H77  1  0.074900  0.104300  0.986300  1
  H  H78  1  0.425100  0.895700  0.486300  1
  H  H79  1  0.925100  0.895700  0.013700  1
  H  H80  1  0.574900  0.104300  0.513700  1
  H  H81  1  0.287200  0.016300  0.892000  1
  H  H82  1  0.212800  0.983700  0.392000  1
  H  H83  1  0.712800  0.983700  0.108000  1
  H  H84  1  0.787200  0.016300  0.608000  1
  H  H85  1  0.205000  0.082200  0.000800  1
  H  H86  1  0.295000  0.917800  0.500800  1
  H  H87  1  0.795000  0.917800  0.999200  1
  H  H88  1  0.705000  0.082200  0.499200  1
  H  H89  1  0.287300  0.079600  0.042000  1
  H  H90  1  0.212700  0.920400  0.542000  1
  H  H91  1  0.712700  0.920400  0.958000  1
  H  H92  1  0.787300  0.079600  0.458000  1
  H  H93  1  0.366600  0.043300  0.008800  1
  H  H94  1  0.133400  0.956700  0.508800  1
  H  H95  1  0.633400  0.956700  0.991200  1
  H  H96  1  0.866600  0.043300  0.491200  1
  H  H97  1  0.171900  0.635500  0.978300  1
  H  H98  1  0.328100  0.364500  0.478300  1
  H  H99  1  0.828100  0.364500  0.021700  1
  H  H100  1  0.671900  0.635500  0.521700  1
  H  H101  1  0.093800  0.587100  0.953500  1
  H  H102  1  0.406200  0.412900  0.453500  1
  H  H103  1  0.906200  0.412900  0.046500  1
  H  H104  1  0.593800  0.587100  0.546500  1
  H  H105  1  0.083100  0.492500  0.974400  1
  H  H106  1  0.416900  0.507500  0.474400  1
  H  H107  1  0.916900  0.507500  0.025600  1
  H  H108  1  0.583100  0.492500  0.525600  1
  H  H109  1  0.232900  0.499900  0.032700  1
  H  H110  1  0.267100  0.500100  0.532700  1
  H  H111  1  0.767100  0.500100  0.967300  1
  H  H112  1  0.732900  0.499900  0.467300  1
  H  H113  1  0.919700  0.237300  0.010300  1
  H  H114  1  0.580300  0.762700  0.510300  1
  H  H115  1  0.080300  0.762700  0.989700  1
  H  H116  1  0.419700  0.237300  0.489700  1
  H  H117  1  0.921400  0.329400  0.988300  1
  H  H118  1  0.578600  0.670600  0.488300  1
  H  H119  1  0.078600  0.670600  0.011700  1
  H  H120  1  0.421400  0.329400  0.511700  1
  H  H121  1  0.004600  0.382000  0.992600  1
  H  H122  1  0.495400  0.618000  0.492600  1
  H  H123  1  0.995400  0.618000  0.007400  1
  H  H124  1  0.504600  0.382000  0.507400  1
  H  H125  1  0.077500  0.247200  0.045600  1
  H  H126  1  0.422500  0.752800  0.545600  1
  H  H127  1  0.922500  0.752800  0.954400  1
  H  H128  1  0.577500  0.247200  0.454400  1
  H  H129  1  0.371600  0.237000  0.059700  1
  H  H130  1  0.128400  0.763000  0.559700  1
  H  H131  1  0.628400  0.763000  0.940300  1
  H  H132  1  0.871600  0.237000  0.440300  1
  H  H133  1  0.289600  0.189900  0.048900  1
  H  H134  1  0.210400  0.810100  0.548900  1
  H  H135  1  0.710400  0.810100  0.951100  1
  H  H136  1  0.789600  0.189900  0.451100  1
  H  H137  1  0.208800  0.238000  0.034600  1
  H  H138  1  0.291200  0.762000  0.534600  1
  H  H139  1  0.791200  0.762000  0.965400  1
  H  H140  1  0.708800  0.238000  0.465400  1
  H  H141  1  0.298500  0.381300  0.048900  1
  H  H142  1  0.201500  0.618700  0.548900  1
  H  H143  1  0.701500  0.618700  0.951100  1
  H  H144  1  0.798500  0.381300  0.451100  1
  H  H145  1  0.273000  0.674400  0.940100  1
  H  H146  1  0.227000  0.325600  0.440100  1
  H  H147  1  0.727000  0.325600  0.059900  1
  H  H148  1  0.773000  0.674400  0.559900  1
  H  H149  1  0.301600  0.671600  0.865600  1
  H  H150  1  0.198400  0.328400  0.365600  1
  H  H151  1  0.698400  0.328400  0.134400  1
  H  H152  1  0.801600  0.671600  0.634400  1
  H  H153  1  0.340200  0.591500  0.835500  1
  H  H154  1  0.159800  0.408500  0.335500  1
  H  H155  1  0.659800  0.408500  0.164500  1
  H  H156  1  0.840200  0.591500  0.664500  1
  H  H157  1  0.344400  0.532900  0.965200  1
  H  H158  1  0.155600  0.467100  0.465200  1
  H  H159  1  0.655600  0.467100  0.034800  1
  H  H160  1  0.844400  0.532900  0.534800  1
  H  H161  1  0.504000  0.458600  0.662200  1
  H  H162  1  0.996000  0.541400  0.162200  1
  H  H163  1  0.496000  0.541400  0.337800  1
  H  H164  1  0.004000  0.458600  0.837800  1
  H  H165  1  0.447200  0.530100  0.681600  1
  H  H166  1  0.052800  0.469900  0.181600  1
  H  H167  1  0.552800  0.469900  0.318400  1
  H  H168  1  0.947200  0.530100  0.818400  1
  H  H169  1  0.409600  0.532800  0.757000  1
  H  H170  1  0.090400  0.467200  0.257000  1
  H  H171  1  0.590400  0.467200  0.243000  1
  H  H172  1  0.909600  0.532800  0.743000  1
  H  H173  1  0.496300  0.397600  0.788800  1
  H  H174  1  0.003700  0.602400  0.288800  1
  H  H175  1  0.503700  0.602400  0.211200  1
  H  H176  1  0.996300  0.397600  0.711200  1
  H  H177  1  0.400400  0.414800  0.985800  1
  H  H178  1  0.099600  0.585200  0.485800  1
  H  H179  1  0.599600  0.585200  0.014200  1
  H  H180  1  0.900400  0.414800  0.514200  1
  H  H181  1  0.489000  0.339800  0.885200  1
  H  H182  1  0.011000  0.660200  0.385200  1
  H  H183  1  0.511000  0.660200  0.114800  1
  H  H184  1  0.989000  0.339800  0.614800  1
  H  H185  1  0.516600  0.273800  0.938900  1
  H  H186  1  0.983400  0.726200  0.438900  1
  H  H187  1  0.483400  0.726200  0.061100  1
  H  H188  1  0.016600  0.273800  0.561100  1
  H  H189  1  0.484800  0.283200  0.014900  1
  H  H190  1  0.015200  0.716800  0.514900  1
  H  H191  1  0.515200  0.716800  0.985100  1
  H  H192  1  0.984800  0.283200  0.485100  1
  H  H193  1  0.967000  0.055900  0.061800  1
  H  H194  1  0.533000  0.944100  0.561800  1
  H  H195  1  0.033000  0.944100  0.938200  1
  H  H196  1  0.467000  0.055900  0.438200  1
  H  H197  1  0.026800  0.060100  0.073700  1
  H  H198  1  0.473200  0.939900  0.573700  1
  H  H199  1  0.973200  0.939900  0.926300  1
  H  H200  1  0.526800  0.060100  0.426300  1
  H  H201  1  0.024400  0.203100  0.123100  1
  H  H202  1  0.475600  0.796900  0.623100  1
  H  H203  1  0.975600  0.796900  0.876900  1
  H  H204  1  0.524400  0.203100  0.376900  1
  H  H205  1  0.964200  0.190200  0.126400  1
  H  H206  1  0.535800  0.809800  0.626400  1
  H  H207  1  0.035800  0.809800  0.873600  1
  H  H208  1  0.464200  0.190200  0.373600  1
  H  H209  1  0.401600  0.916100  0.970000  1
  H  H210  1  0.098400  0.083900  0.470000  1
  H  H211  1  0.598400  0.083900  0.030000  1
  H  H212  1  0.901600  0.916100  0.530000  1
  H  H213  1  0.350900  0.909400  0.941300  1
  H  H214  1  0.149100  0.090600  0.441300  1
  H  H215  1  0.649100  0.090600  0.058700  1
  H  H216  1  0.850900  0.909400  0.558700  1
  H  H217  1  0.451800  0.957000  0.849400  1
  H  H218  1  0.048200  0.043000  0.349400  1
  H  H219  1  0.548200  0.043000  0.150600  1
  H  H220  1  0.951800  0.957000  0.650600  1
  H  H221  1  0.492800  0.984400  0.880700  1
  H  H222  1  0.007200  0.015600  0.380700  1
  H  H223  1  0.507200  0.015600  0.119300  1
  H  H224  1  0.992800  0.984400  0.619300  1
  H  H225  1  0.639000  0.428700  0.717300  1
  H  H226  1  0.861000  0.571300  0.217300  1
  H  H227  1  0.361000  0.571300  0.282700  1
  H  H228  1  0.139000  0.428700  0.782700  1
  H  H229  1  0.615000  0.422000  0.764100  1
  H  H230  1  0.885000  0.578000  0.264100  1
  H  H231  1  0.385000  0.578000  0.235900  1
  H  H232  1  0.115000  0.422000  0.735900  1
  H  H233  1  0.610500  0.273200  0.728900  1
  H  H234  1  0.889500  0.726800  0.228900  1
  H  H235  1  0.389500  0.726800  0.271100  1
  H  H236  1  0.110500  0.273200  0.771100  1
  H  H237  1  0.614300  0.282400  0.678400  1
  H  H238  1  0.885700  0.717600  0.178400  1
  H  H239  1  0.385700  0.717600  0.321600  1
  H  H240  1  0.114300  0.282400  0.821600  1
  H  H241  1  0.231000  0.661800  0.088200  1
  H  H242  1  0.269000  0.338200  0.588200  1
  H  H243  1  0.769000  0.338200  0.911800  1
  H  H244  1  0.731000  0.661800  0.411800  1
  H  H245  1  0.233800  0.602400  0.101400  1
  H  H246  1  0.266200  0.397600  0.601400  1
  H  H247  1  0.766200  0.397600  0.898600  1
  H  H248  1  0.733800  0.602400  0.398600  1
  H  H249  1  0.377800  0.624200  0.050800  1
  H  H250  1  0.122200  0.375800  0.550800  1
  H  H251  1  0.622200  0.375800  0.949200  1
  H  H252  1  0.877800  0.624200  0.449200  1
  H  H253  1  0.363400  0.674700  0.024500  1
  H  H254  1  0.136600  0.325300  0.524500  1
  H  H255  1  0.636600  0.325300  0.975500  1
  H  H256  1  0.863400  0.674700  0.475500  1
  H  H257  1  0.371500  0.380300  0.146300  1
  H  H258  1  0.128500  0.619700  0.646300  1
  H  H259  1  0.628500  0.619700  0.853700  1
  H  H260  1  0.871500  0.380300  0.353700  1
  H  H261  1  0.379100  0.319300  0.149000  1
  H  H262  1  0.120900  0.680700  0.649000  1
  H  H263  1  0.620900  0.680700  0.851000  1
  H  H264  1  0.879100  0.319300  0.351000  1
  H  H265  1  0.515000  0.361900  0.087600  1
  H  H266  1  0.985000  0.638100  0.587600  1
  H  H267  1  0.485000  0.638100  0.912400  1
  H  H268  1  0.015000  0.361900  0.412400  1
  H  H269  1  0.492800  0.417700  0.078200  1
  H  H270  1  0.007200  0.582300  0.578200  1
  H  H271  1  0.507200  0.582300  0.921800  1
  H  H272  1  0.992800  0.417700  0.421800  1
  H  H273  1  0.251100  0.841600  0.782100  1
  H  H274  1  0.248900  0.158400  0.282100  1
  H  H275  1  0.748900  0.158400  0.217900  1
  H  H276  1  0.751100  0.841600  0.717900  1
  H  H277  1  0.217200  0.822800  0.742100  1
  H  H278  1  0.282800  0.177200  0.242100  1
  H  H279  1  0.782800  0.177200  0.257900  1
  H  H280  1  0.717200  0.822800  0.757900  1
  H  H281  1  0.332500  0.876900  0.665500  1
  H  H282  1  0.167500  0.123100  0.165500  1
  H  H283  1  0.667500  0.123100  0.334500  1
  H  H284  1  0.832500  0.876900  0.834500  1
  H  H285  1  0.362800  0.897700  0.706700  1
  H  H286  1  0.137200  0.102300  0.206700  1
  H  H287  1  0.637200  0.102300  0.293300  1
  H  H288  1  0.862800  0.897700  0.793300  1
  H  H289  1  0.308900  0.784500  0.764800  1
  H  H290  1  0.191100  0.215500  0.264800  1
  H  H291  1  0.691100  0.215500  0.235200  1
  H  H292  1  0.808900  0.784500  0.735200  1
  H  H293  1  0.277400  0.772400  0.717900  1
  H  H294  1  0.222600  0.227600  0.217900  1
  H  H295  1  0.722600  0.227600  0.282100  1
  H  H296  1  0.777400  0.772400  0.782100  1
  H  H297  1  0.343200  0.797400  0.687400  1
  H  H298  1  0.156800  0.202600  0.187400  1
  H  H299  1  0.656800  0.202600  0.312600  1
  H  H300  1  0.843200  0.797400  0.812600  1
  H  H301  1  0.369500  0.820300  0.734000  1
  H  H302  1  0.130500  0.179700  0.234000  1
  H  H303  1  0.630500  0.179700  0.266000  1
  H  H304  1  0.869500  0.820300  0.766000  1
  H  H305  1  0.989600  0.046000  0.141300  1
  H  H306  1  0.510400  0.954000  0.641300  1
  H  H307  1  0.010400  0.954000  0.858700  1
  H  H308  1  0.489600  0.046000  0.358700  1
  H  H309  1  0.938900  0.084900  0.128900  1
  H  H310  1  0.561100  0.915100  0.628900  1
  H  H311  1  0.061100  0.915100  0.871100  1
  H  H312  1  0.438900  0.084900  0.371100  1
  H  H313  1  0.996500  0.135000  0.178300  1
  H  H314  1  0.503500  0.865000  0.678300  1
  H  H315  1  0.003500  0.865000  0.821700  1
  H  H316  1  0.496500  0.135000  0.321700  1
  H  H317  1  0.049600  0.122200  0.147300  1
  H  H318  1  0.450400  0.877800  0.647300  1
  H  H319  1  0.950400  0.877800  0.852700  1
  H  H320  1  0.549600  0.122200  0.352700  1
  H  H321  1  0.396700  0.873400  0.881500  1
  H  H322  1  0.103300  0.126600  0.381500  1
  H  H323  1  0.603300  0.126600  0.118500  1
  H  H324  1  0.896700  0.873400  0.618500  1
  H  H325  1  0.421100  0.843100  0.926100  1
  H  H326  1  0.078900  0.156900  0.426100  1
  H  H327  1  0.578900  0.156900  0.073900  1
  H  H328  1  0.921100  0.843100  0.573900  1
  H  H329  1  0.493900  0.911800  0.931000  1
  H  H330  1  0.006100  0.088200  0.431000  1
  H  H331  1  0.506100  0.088200  0.069000  1
  H  H332  1  0.993900  0.911800  0.569000  1
  H  H333  1  0.495900  0.883400  0.881100  1
  H  H334  1  0.004100  0.116600  0.381100  1
  H  H335  1  0.504100  0.116600  0.118900  1
  H  H336  1  0.995900  0.883400  0.618900  1
  H  H337  1  0.662600  0.348700  0.780500  1
  H  H338  1  0.837400  0.651300  0.280500  1
  H  H339  1  0.337400  0.651300  0.219500  1
  H  H340  1  0.162600  0.348700  0.719500  1
  H  H341  1  0.705900  0.387800  0.753300  1
  H  H342  1  0.794100  0.612200  0.253300  1
  H  H343  1  0.294100  0.612200  0.246700  1
  H  H344  1  0.205900  0.387800  0.746700  1
  H  H345  1  0.686800  0.341400  0.683600  1
  H  H346  1  0.813200  0.658600  0.183600  1
  H  H347  1  0.313200  0.658600  0.316400  1
  H  H348  1  0.186800  0.341400  0.816400  1
  H  H349  1  0.700500  0.294800  0.721000  1
  H  H350  1  0.799500  0.705200  0.221000  1
  H  H351  1  0.299500  0.705200  0.279000  1
  H  H352  1  0.200500  0.294800  0.779000  1
  H  H353  1  0.321000  0.609200  0.126100  1
  H  H354  1  0.179000  0.390800  0.626100  1
  H  H355  1  0.679000  0.390800  0.873900  1
  H  H356  1  0.821000  0.609200  0.373900  1
  H  H357  1  0.292300  0.663600  0.145600  1
  H  H358  1  0.207700  0.336400  0.645600  1
  H  H359  1  0.707700  0.336400  0.854400  1
  H  H360  1  0.792300  0.663600  0.354400  1
  H  H361  1  0.326000  0.715900  0.083300  1
  H  H362  1  0.174000  0.284100  0.583300  1
  H  H363  1  0.674000  0.284100  0.916700  1
  H  H364  1  0.826000  0.715900  0.416700  1
  H  H365  1  0.377500  0.685000  0.105900  1
  H  H366  1  0.122500  0.315000  0.605900  1
  H  H367  1  0.622500  0.315000  0.894100  1
  H  H368  1  0.877500  0.685000  0.394100  1
  H  H369  1  0.436800  0.377000  0.195200  1
  H  H370  1  0.063200  0.623000  0.695200  1
  H  H371  1  0.563200  0.623000  0.804800  1
  H  H372  1  0.936800  0.377000  0.304800  1
  H  H373  1  0.462700  0.324800  0.170200  1
  H  H374  1  0.037300  0.675200  0.670200  1
  H  H375  1  0.537300  0.675200  0.829800  1
  H  H376  1  0.962700  0.324800  0.329800  1
  H  H377  1  0.522000  0.390600  0.155800  1
  H  H378  1  0.978000  0.609400  0.655800  1
  H  H379  1  0.478000  0.609400  0.844200  1
  H  H380  1  0.022000  0.390600  0.344200  1
  H  H381  1  0.475200  0.435300  0.147600  1
  H  H382  1  0.024800  0.564700  0.647600  1
  H  H383  1  0.524800  0.564700  0.852400  1
  H  H384  1  0.975200  0.435300  0.352400  1
  H  H385  1  0.319500  0.250400  0.834000  1
  H  H386  1  0.180500  0.749600  0.334000  1
  H  H387  1  0.680500  0.749600  0.166000  1
  H  H388  1  0.819500  0.250400  0.666000  1
  H  H389  1  0.258300  0.198800  0.859600  1
  H  H390  1  0.241700  0.801200  0.359600  1
  H  H391  1  0.741700  0.801200  0.140400  1
  H  H392  1  0.758300  0.198800  0.640400  1
  H  H393  1  0.242600  0.259800  0.911600  1
  H  H394  1  0.257400  0.740200  0.411600  1
  H  H395  1  0.757400  0.740200  0.088400  1
  H  H396  1  0.742600  0.259800  0.588400  1
  H  H397  1  0.301700  0.315100  0.881800  1
  H  H398  1  0.198300  0.684900  0.381800  1
  H  H399  1  0.698300  0.684900  0.118200  1
  H  H400  1  0.801700  0.315100  0.618200  1
  H  H401  1  0.244200  0.246000  0.659200  1
  H  H402  1  0.255800  0.754000  0.159200  1
  H  H403  1  0.755800  0.754000  0.340800  1
  H  H404  1  0.744200  0.246000  0.840800  1
  H  H405  1  0.212400  0.170500  0.703200  1
  H  H406  1  0.287600  0.829500  0.203200  1
  H  H407  1  0.787600  0.829500  0.296800  1
  H  H408  1  0.712400  0.170500  0.796800  1
  H  H409  1  0.308300  0.306200  0.688800  1
  H  H410  1  0.191700  0.693800  0.188800  1
  H  H411  1  0.691700  0.693800  0.311200  1
  H  H412  1  0.808300  0.306200  0.811200  1
  H  H413  1  0.264100  0.127200  0.808900  1
  H  H414  1  0.235900  0.872800  0.308900  1
  H  H415  1  0.735900  0.872800  0.191100  1
  H  H416  1  0.764100  0.127200  0.691100  1
  H  H417  1  0.223800  0.109000  0.767700  1
  H  H418  1  0.276200  0.891000  0.267700  1
  H  H419  1  0.776200  0.891000  0.232300  1
  H  H420  1  0.723800  0.109000  0.732300  1
  H  H421  1  0.049000  0.160200  0.802000  1
  H  H422  1  0.451000  0.839800  0.302000  1
  H  H423  1  0.951000  0.839800  0.198000  1
  H  H424  1  0.549000  0.160200  0.698000  1
  H  H425  1  0.055500  0.202900  0.874300  1
  H  H426  1  0.444500  0.797100  0.374300  1
  H  H427  1  0.944500  0.797100  0.125700  1
  H  H428  1  0.555500  0.202900  0.625700  1
  H  H429  1  0.129100  0.130300  0.767300  1
  H  H430  1  0.370900  0.869700  0.267300  1
  H  H431  1  0.870900  0.869700  0.232700  1
  H  H432  1  0.629100  0.130300  0.732700  1
  H  H433  1  0.107300  0.226700  0.944200  1
  H  H434  1  0.392700  0.773300  0.444200  1
  H  H435  1  0.892700  0.773300  0.055800  1
  H  H436  1  0.607300  0.226700  0.555800  1
  H  H437  1  0.172800  0.219700  0.944500  1
  H  H438  1  0.327200  0.780300  0.444500  1
  H  H439  1  0.827200  0.780300  0.055500  1
  H  H440  1  0.672800  0.219700  0.555500  1
  H  H441  1  0.078500  0.404900  0.894000  1
  H  H442  1  0.421500  0.595100  0.394000  1
  H  H443  1  0.921500  0.595100  0.106000  1
  H  H444  1  0.578500  0.404900  0.606000  1
  H  H445  1  0.164600  0.445200  0.896600  1
  H  H446  1  0.335400  0.554800  0.396600  1
  H  H447  1  0.835400  0.554800  0.103400  1
  H  H448  1  0.664600  0.445200  0.603400  1
  H  H449  1  0.067000  0.314700  0.910800  1
  H  H450  1  0.433000  0.685300  0.410800  1
  H  H451  1  0.933000  0.685300  0.089200  1
  H  H452  1  0.567000  0.314700  0.589200  1
  H  H453  1  0.290100  0.379200  0.924200  1
  H  H454  1  0.209900  0.620800  0.424200  1
  H  H455  1  0.709900  0.620800  0.075800  1
  H  H456  1  0.790100  0.379200  0.575800  1
  H  H457  1  0.265700  0.440200  0.924100  1
  H  H458  1  0.234300  0.559800  0.424100  1
  H  H459  1  0.734300  0.559800  0.075900  1
  H  H460  1  0.765700  0.440200  0.575900  1
  H  H461  1  0.282000  0.488600  0.767200  1
  H  H462  1  0.218000  0.511400  0.267200  1
  H  H463  1  0.718000  0.511400  0.232800  1
  H  H464  1  0.782000  0.488600  0.732800  1
  H  H465  1  0.328900  0.410100  0.732800  1
  H  H466  1  0.171100  0.589900  0.232800  1
  H  H467  1  0.671100  0.589900  0.267200  1
  H  H468  1  0.828900  0.410100  0.767200  1
  H  H469  1  0.252000  0.482100  0.843800  1
  H  H470  1  0.248000  0.517900  0.343800  1
  H  H471  1  0.748000  0.517900  0.156200  1
  H  H472  1  0.752000  0.482100  0.656200  1
  H  H473  1  0.381600  0.326900  0.742800  1
  H  H474  1  0.118400  0.673100  0.242800  1
  H  H475  1  0.618400  0.673100  0.257200  1
  H  H476  1  0.881600  0.326900  0.757200  1
  H  H477  1  0.382500  0.296100  0.791400  1
  H  H478  1  0.117500  0.703900  0.291400  1
  H  H479  1  0.617500  0.703900  0.208600  1
  H  H480  1  0.882500  0.296100  0.708600  1
  Pd  Pd481  1  0.996670  0.154900  0.051150  1
  Pd  Pd482  1  0.503330  0.845100  0.551150  1
  Pd  Pd483  1  0.003330  0.845100  0.948850  1
  Pd  Pd484  1  0.496670  0.154900  0.448850  1
  Pd  Pd485  1  0.399820  0.995280  0.915400  1
  Pd  Pd486  1  0.100180  0.004720  0.415400  1
  Pd  Pd487  1  0.600180  0.004720  0.084600  1
  Pd  Pd488  1  0.899820  0.995280  0.584600  1
  Pd  Pd489  1  0.561680  0.360720  0.711560  1
  Pd  Pd490  1  0.938320  0.639280  0.211560  1
  Pd  Pd491  1  0.438320  0.639280  0.288440  1
  Pd  Pd492  1  0.061680  0.360720  0.788440  1
  Pd  Pd493  1  0.279740  0.612890  0.025480  1
  Pd  Pd494  1  0.220260  0.387110  0.525480  1
  Pd  Pd495  1  0.720260  0.387110  0.974520  1
  Pd  Pd496  1  0.779740  0.612890  0.474520  1
  Pd  Pd497  1  0.414880  0.350690  0.073040  1
  Pd  Pd498  1  0.085120  0.649310  0.573040  1
  Pd  Pd499  1  0.585120  0.649310  0.926960  1
  Pd  Pd500  1  0.914880  0.350690  0.426960  1
  Pd  Pd501  1  0.263380  0.911830  0.720080  1
  Pd  Pd502  1  0.236620  0.088170  0.220080  1
  Pd  Pd503  1  0.736620  0.088170  0.279920  1
  Pd  Pd504  1  0.763380  0.911830  0.779920  1
  C  C505  1  0.264800  0.992100  0.643800  1
  C  C506  1  0.235200  0.007900  0.143800  1
  C  C507  1  0.735200  0.007900  0.356200  1
  C  C508  1  0.764800  0.992100  0.856200  1
  C  C509  1  0.276800  0.040400  0.620400  1
  C  C510  1  0.223200  0.959600  0.120400  1
  C  C511  1  0.723200  0.959600  0.379600  1
  C  C512  1  0.776800  0.040400  0.879600  1
  C  C513  1  0.307400  0.081300  0.643100  1
  C  C514  1  0.192600  0.918700  0.143100  1
  C  C515  1  0.692600  0.918700  0.356900  1
  C  C516  1  0.807400  0.081300  0.856900  1
  C  C517  1  0.323400  0.073400  0.687200  1
  C  C518  1  0.176600  0.926600  0.187200  1
  C  C519  1  0.676600  0.926600  0.312800  1
  C  C520  1  0.823400  0.073400  0.812800  1
  C  C521  1  0.309400  0.023700  0.709400  1
  C  C522  1  0.190600  0.976300  0.209400  1
  C  C523  1  0.690600  0.976300  0.290600  1
  C  C524  1  0.809400  0.023700  0.790600  1
  C  C525  1  0.476700  0.330200  0.643800  1
  C  C526  1  0.023300  0.669800  0.143800  1
  C  C527  1  0.523300  0.669800  0.356200  1
  C  C528  1  0.976700  0.330200  0.856200  1
  C  C529  1  0.434500  0.300900  0.622700  1
  C  C530  1  0.065500  0.699100  0.122700  1
  C  C531  1  0.565500  0.699100  0.377300  1
  C  C532  1  0.934500  0.300900  0.877300  1
  C  C533  1  0.413800  0.252200  0.643500  1
  C  C534  1  0.086200  0.747800  0.143500  1
  C  C535  1  0.586200  0.747800  0.356500  1
  C  C536  1  0.913800  0.252200  0.856500  1
  C  C537  1  0.435600  0.237000  0.685000  1
  C  C538  1  0.064400  0.763000  0.185000  1
  C  C539  1  0.564400  0.763000  0.315000  1
  C  C540  1  0.935600  0.237000  0.815000  1
  C  C541  1  0.480400  0.269000  0.704800  1
  C  C542  1  0.019600  0.731000  0.204800  1
  C  C543  1  0.519600  0.731000  0.295200  1
  C  C544  1  0.980400  0.269000  0.795200  1
  C  C545  1  0.437800  0.113200  0.915500  1
  C  C546  1  0.062200  0.886800  0.415500  1
  C  C547  1  0.562200  0.886800  0.084500  1
  C  C548  1  0.937800  0.113200  0.584500  1
  C  C549  1  0.450200  0.161700  0.898300  1
  C  C550  1  0.049800  0.838300  0.398300  1
  C  C551  1  0.549800  0.838300  0.101700  1
  C  C552  1  0.950200  0.161700  0.601700  1
  C  C553  1  0.438700  0.173800  0.851900  1
  C  C554  1  0.061300  0.826200  0.351900  1
  C  C555  1  0.561300  0.826200  0.148100  1
  C  C556  1  0.938700  0.173800  0.648100  1
  C  C557  1  0.415800  0.132300  0.825000  1
  C  C558  1  0.084200  0.867700  0.325000  1
  C  C559  1  0.584200  0.867700  0.175000  1
  C  C560  1  0.915800  0.132300  0.675000  1
  C  C561  1  0.403900  0.082200  0.844900  1
  C  C562  1  0.096100  0.917800  0.344900  1
  C  C563  1  0.596100  0.917800  0.155100  1
  C  C564  1  0.903900  0.082200  0.655100  1
  C  C565  1  0.358900  0.113000  0.711700  1
  C  C566  1  0.141100  0.887000  0.211700  1
  C  C567  1  0.641100  0.887000  0.288300  1
  C  C568  1  0.858900  0.113000  0.788300  1
  C  C569  1  0.414700  0.189200  0.711500  1
  C  C570  1  0.085300  0.810800  0.211500  1
  C  C571  1  0.585300  0.810800  0.288500  1
  C  C572  1  0.914700  0.189200  0.788500  1
  C  C573  1  0.403200  0.142100  0.775800  1
  C  C574  1  0.096800  0.857900  0.275800  1
  C  C575  1  0.596800  0.857900  0.224200  1
  C  C576  1  0.903200  0.142100  0.724200  1
  C  C577  1  0.146000  0.939600  0.721400  1
  C  C578  1  0.354000  0.060400  0.221400  1
  C  C579  1  0.854000  0.060400  0.278600  1
  C  C580  1  0.646000  0.939600  0.778600  1
  C  C581  1  0.097200  0.960800  0.736000  1
  C  C582  1  0.402800  0.039200  0.236000  1
  C  C583  1  0.902800  0.039200  0.264000  1
  C  C584  1  0.597200  0.960800  0.764000  1
  C  C585  1  0.096700  0.988400  0.777000  1
  C  C586  1  0.403300  0.011600  0.277000  1
  C  C587  1  0.903300  0.011600  0.223000  1
  C  C588  1  0.596700  0.988400  0.723000  1
  C  C589  1  0.143100  0.992900  0.803200  1
  C  C590  1  0.356900  0.007100  0.303200  1
  C  C591  1  0.856900  0.007100  0.196800  1
  C  C592  1  0.643100  0.992900  0.696800  1
  C  C593  1  0.190800  0.970500  0.785300  1
  C  C594  1  0.309200  0.029500  0.285300  1
  C  C595  1  0.809200  0.029500  0.214700  1
  C  C596  1  0.690800  0.970500  0.714700  1
  C  C597  1  0.950700  0.130200  0.959000  1
  C  C598  1  0.549300  0.869800  0.459000  1
  C  C599  1  0.049300  0.869800  0.041000  1
  C  C600  1  0.450700  0.130200  0.541000  1
  C  C601  1  0.949900  0.110600  0.913700  1
  C  C602  1  0.550100  0.889400  0.413700  1
  C  C603  1  0.050100  0.889400  0.086300  1
  C  C604  1  0.449900  0.110600  0.586300  1
  C  C605  1  0.997500  0.087900  0.895800  1
  C  C606  1  0.502500  0.912100  0.395800  1
  C  C607  1  0.002500  0.912100  0.104200  1
  C  C608  1  0.497500  0.087900  0.604200  1
  C  C609  1  0.044000  0.085700  0.922900  1
  C  C610  1  0.456000  0.914300  0.422900  1
  C  C611  1  0.956000  0.914300  0.077100  1
  C  C612  1  0.544000  0.085700  0.577100  1
  C  C613  1  0.042600  0.105900  0.967800  1
  C  C614  1  0.457400  0.894100  0.467800  1
  C  C615  1  0.957400  0.894100  0.032200  1
  C  C616  1  0.542600  0.105900  0.532200  1
  C  C617  1  0.286700  0.028800  0.922900  1
  C  C618  1  0.213300  0.971200  0.422900  1
  C  C619  1  0.713300  0.971200  0.077100  1
  C  C620  1  0.786700  0.028800  0.577100  1
  C  C621  1  0.237600  0.049200  0.940700  1
  C  C622  1  0.262400  0.950800  0.440700  1
  C  C623  1  0.762400  0.950800  0.059300  1
  C  C624  1  0.737600  0.049200  0.559300  1
  C  C625  1  0.237600  0.068400  0.987100  1
  C  C626  1  0.262400  0.931600  0.487100  1
  C  C627  1  0.762400  0.931600  0.012900  1
  C  C628  1  0.737600  0.068400  0.512900  1
  C  C629  1  0.286000  0.066300  0.011300  1
  C  C630  1  0.214000  0.933700  0.511300  1
  C  C631  1  0.714000  0.933700  0.988700  1
  C  C632  1  0.786000  0.066300  0.488700  1
  C  C633  1  0.333600  0.044900  0.991300  1
  C  C634  1  0.166400  0.955100  0.491300  1
  C  C635  1  0.666400  0.955100  0.008700  1
  C  C636  1  0.833600  0.044900  0.508700  1
  C  C637  1  0.143500  0.021300  0.847800  1
  C  C638  1  0.356500  0.978700  0.347800  1
  C  C639  1  0.856500  0.978700  0.152200  1
  C  C640  1  0.643500  0.021300  0.652200  1
  C  C641  1  0.096300  0.063400  0.905100  1
  C  C642  1  0.403700  0.936600  0.405100  1
  C  C643  1  0.903700  0.936600  0.094900  1
  C  C644  1  0.596300  0.063400  0.594900  1
  C  C645  1  0.187700  0.048400  0.912400  1
  C  C646  1  0.312300  0.951600  0.412400  1
  C  C647  1  0.812300  0.951600  0.087600  1
  C  C648  1  0.687700  0.048400  0.587600  1
  C  C649  1  0.168000  0.597300  0.985200  1
  C  C650  1  0.332000  0.402700  0.485200  1
  C  C651  1  0.832000  0.402700  0.014800  1
  C  C652  1  0.668000  0.597300  0.514800  1
  C  C653  1  0.121400  0.569200  0.970900  1
  C  C654  1  0.378600  0.430800  0.470900  1
  C  C655  1  0.878600  0.430800  0.029100  1
  C  C656  1  0.621400  0.569200  0.529100  1
  C  C657  1  0.115600  0.512700  0.982600  1
  C  C658  1  0.384400  0.487300  0.482600  1
  C  C659  1  0.884400  0.487300  0.017400  1
  C  C660  1  0.615600  0.512700  0.517400  1
  C  C661  1  0.156500  0.487800  0.005400  1
  C  C662  1  0.343500  0.512200  0.505400  1
  C  C663  1  0.843500  0.512200  0.994600  1
  C  C664  1  0.656500  0.487800  0.494600  1
  C  C665  1  0.203600  0.518200  0.017700  1
  C  C666  1  0.296400  0.481800  0.517700  1
  C  C667  1  0.796400  0.481800  0.982300  1
  C  C668  1  0.703600  0.518200  0.482300  1
  C  C669  1  0.952900  0.258500  0.012900  1
  C  C670  1  0.547100  0.741500  0.512900  1
  C  C671  1  0.047100  0.741500  0.987100  1
  C  C672  1  0.452900  0.258500  0.487100  1
  C  C673  1  0.954000  0.313000  0.999500  1
  C  C674  1  0.546000  0.687000  0.499500  1
  C  C675  1  0.046000  0.687000  0.000500  1
  C  C676  1  0.454000  0.313000  0.500500  1
  C  C677  1  0.003200  0.344500  0.002300  1
  C  C678  1  0.496800  0.655500  0.502300  1
  C  C679  1  0.996800  0.655500  0.997700  1
  C  C680  1  0.503200  0.344500  0.497700  1
  C  C681  1  0.048800  0.319500  0.019300  1
  C  C682  1  0.451200  0.680500  0.519300  1
  C  C683  1  0.951200  0.680500  0.980700  1
  C  C684  1  0.548800  0.319500  0.480700  1
  C  C685  1  0.045600  0.264100  0.033400  1
  C  C686  1  0.454400  0.735900  0.533400  1
  C  C687  1  0.954400  0.735900  0.966600  1
  C  C688  1  0.545600  0.264100  0.466600  1
  C  C689  1  0.338800  0.257300  0.055400  1
  C  C690  1  0.161200  0.742700  0.555400  1
  C  C691  1  0.661200  0.742700  0.944600  1
  C  C692  1  0.838800  0.257300  0.444600  1
  C  C693  1  0.290400  0.229100  0.048300  1
  C  C694  1  0.209600  0.770900  0.548300  1
  C  C695  1  0.709600  0.770900  0.951700  1
  C  C696  1  0.790400  0.229100  0.451700  1
  C  C697  1  0.242500  0.257400  0.040400  1
  C  C698  1  0.257500  0.742600  0.540400  1
  C  C699  1  0.757500  0.742600  0.959600  1
  C  C700  1  0.742500  0.257400  0.459600  1
  C  C701  1  0.244300  0.315500  0.041200  1
  C  C702  1  0.255700  0.684500  0.541200  1
  C  C703  1  0.755700  0.684500  0.958800  1
  C  C704  1  0.744300  0.315500  0.458800  1
  C  C705  1  0.296100  0.342100  0.048900  1
  C  C706  1  0.203900  0.657900  0.548900  1
  C  C707  1  0.703900  0.657900  0.951100  1
  C  C708  1  0.796100  0.342100  0.451100  1
  C  C709  1  0.154500  0.427500  0.016300  1
  C  C710  1  0.345500  0.572500  0.516300  1
  C  C711  1  0.845500  0.572500  0.983700  1
  C  C712  1  0.654500  0.427500  0.483700  1
  C  C713  1  0.103300  0.349500  0.022800  1
  C  C714  1  0.396700  0.650500  0.522800  1
  C  C715  1  0.896700  0.650500  0.977200  1
  C  C716  1  0.603300  0.349500  0.477200  1
  C  C717  1  0.194800  0.347700  0.033000  1
  C  C718  1  0.305200  0.652300  0.533000  1
  C  C719  1  0.805200  0.652300  0.967000  1
  C  C720  1  0.694800  0.347700  0.467000  1
  C  C721  1  0.293400  0.643700  0.930000  1
  C  C722  1  0.206600  0.356300  0.430000  1
  C  C723  1  0.706600  0.356300  0.070000  1
  C  C724  1  0.793400  0.643700  0.570000  1
  C  C725  1  0.308800  0.641200  0.885200  1
  C  C726  1  0.191200  0.358800  0.385200  1
  C  C727  1  0.691200  0.358800  0.114800  1
  C  C728  1  0.808800  0.641200  0.614800  1
  C  C729  1  0.334400  0.596100  0.867500  1
  C  C730  1  0.165600  0.403900  0.367500  1
  C  C731  1  0.665600  0.403900  0.132500  1
  C  C732  1  0.834400  0.596100  0.632500  1
  C  C733  1  0.351700  0.556300  0.900300  1
  C  C734  1  0.148300  0.443700  0.400300  1
  C  C735  1  0.648300  0.443700  0.099700  1
  C  C736  1  0.851700  0.556300  0.599700  1
  C  C737  1  0.335100  0.561300  0.944300  1
  C  C738  1  0.164900  0.438700  0.444300  1
  C  C739  1  0.664900  0.438700  0.055700  1
  C  C740  1  0.835100  0.561300  0.555700  1
  C  C741  1  0.491000  0.461200  0.692900  1
  C  C742  1  0.009000  0.538800  0.192900  1
  C  C743  1  0.509000  0.538800  0.307100  1
  C  C744  1  0.991000  0.461200  0.807100  1
  C  C745  1  0.456500  0.503000  0.703800  1
  C  C746  1  0.043500  0.497000  0.203800  1
  C  C747  1  0.543500  0.497000  0.296200  1
  C  C748  1  0.956500  0.503000  0.796200  1
  C  C749  1  0.434800  0.505100  0.748400  1
  C  C750  1  0.065200  0.494900  0.248400  1
  C  C751  1  0.565200  0.494900  0.251600  1
  C  C752  1  0.934800  0.505100  0.751600  1
  C  C753  1  0.451400  0.465200  0.779800  1
  C  C754  1  0.048600  0.534800  0.279800  1
  C  C755  1  0.548600  0.534800  0.220200  1
  C  C756  1  0.951400  0.465200  0.720200  1
  C  C757  1  0.486500  0.425000  0.767100  1
  C  C758  1  0.013500  0.575000  0.267100  1
  C  C759  1  0.513500  0.575000  0.232900  1
  C  C760  1  0.986500  0.425000  0.732900  1
  C  C761  1  0.423800  0.386100  0.976000  1
  C  C762  1  0.076200  0.613900  0.476000  1
  C  C763  1  0.576200  0.613900  0.024000  1
  C  C764  1  0.923800  0.386100  0.524000  1
  C  C765  1  0.442200  0.384200  0.929900  1
  C  C766  1  0.057800  0.615800  0.429900  1
  C  C767  1  0.557800  0.615800  0.070100  1
  C  C768  1  0.942200  0.384200  0.570100  1
  C  C769  1  0.476800  0.341800  0.916100  1
  C  C770  1  0.023200  0.658200  0.416100  1
  C  C771  1  0.523200  0.658200  0.083900  1
  C  C772  1  0.976800  0.341800  0.583900  1
  C  C773  1  0.493100  0.303100  0.947300  1
  C  C774  1  0.006900  0.696900  0.447300  1
  C  C775  1  0.506900  0.696900  0.052700  1
  C  C776  1  0.993100  0.303100  0.552700  1
  C  C777  1  0.473000  0.309000  0.992500  1
  C  C778  1  0.027000  0.691000  0.492500  1
  C  C779  1  0.527000  0.691000  0.007500  1
  C  C780  1  0.973000  0.309000  0.507500  1
  C  C781  1  0.385100  0.509400  0.884900  1
  C  C782  1  0.114900  0.490600  0.384900  1
  C  C783  1  0.614900  0.490600  0.115100  1
  C  C784  1  0.885100  0.509400  0.615100  1
  C  C785  1  0.430600  0.467100  0.828400  1
  C  C786  1  0.069400  0.532900  0.328400  1
  C  C787  1  0.569400  0.532900  0.171600  1
  C  C788  1  0.930600  0.467100  0.671600  1
  C  C789  1  0.426000  0.428100  0.897500  1
  C  C790  1  0.074000  0.571900  0.397500  1
  C  C791  1  0.574000  0.571900  0.102500  1
  C  C792  1  0.926000  0.428100  0.602500  1
  C  C793  1  0.294300  0.802100  0.736800  1
  C  C794  1  0.205700  0.197900  0.236800  1
  C  C795  1  0.705700  0.197900  0.263200  1
  C  C796  1  0.794300  0.802100  0.763200  1
  C  C797  1  0.336600  0.822000  0.713900  1
  C  C798  1  0.163400  0.178000  0.213900  1
  C  C799  1  0.663400  0.178000  0.286100  1
  C  C800  1  0.836600  0.822000  0.786100  1
  C  C801  1  0.979200  0.080400  0.125400  1
  C  C802  1  0.520800  0.919600  0.625400  1
  C  C803  1  0.020800  0.919600  0.874600  1
  C  C804  1  0.479200  0.080400  0.374600  1
  C  C805  1  0.009400  0.128900  0.146500  1
  C  C806  1  0.490600  0.871100  0.646500  1
  C  C807  1  0.990600  0.871100  0.853500  1
  C  C808  1  0.509400  0.128900  0.353500  1
  C  C809  1  0.417000  0.879100  0.910600  1
  C  C810  1  0.083000  0.120900  0.410600  1
  C  C811  1  0.583000  0.120900  0.089400  1
  C  C812  1  0.917000  0.879100  0.589400  1
  C  C813  1  0.473500  0.906500  0.901800  1
  C  C814  1  0.026500  0.093500  0.401800  1
  C  C815  1  0.526500  0.093500  0.098200  1
  C  C816  1  0.973500  0.906500  0.598200  1
  C  C817  1  0.670600  0.366800  0.750700  1
  C  C818  1  0.829400  0.633200  0.250700  1
  C  C819  1  0.329400  0.633200  0.249300  1
  C  C820  1  0.170600  0.366800  0.749300  1
  C  C821  1  0.674200  0.323800  0.712500  1
  C  C822  1  0.825800  0.676200  0.212500  1
  C  C823  1  0.325800  0.676200  0.287500  1
  C  C824  1  0.174200  0.323800  0.787500  1
  C  C825  1  0.303000  0.643900  0.117200  1
  C  C826  1  0.197000  0.356100  0.617200  1
  C  C827  1  0.697000  0.356100  0.882800  1
  C  C828  1  0.803000  0.643900  0.382800  1
  C  C829  1  0.342200  0.679400  0.089300  1
  C  C830  1  0.157800  0.320600  0.589300  1
  C  C831  1  0.657800  0.320600  0.910700  1
  C  C832  1  0.842200  0.679400  0.410700  1
  C  C833  1  0.445600  0.361000  0.164800  1
  C  C834  1  0.054400  0.639000  0.664800  1
  C  C835  1  0.554400  0.639000  0.835200  1
  C  C836  1  0.945600  0.361000  0.335200  1
  C  C837  1  0.485000  0.396300  0.142400  1
  C  C838  1  0.015000  0.603700  0.642400  1
  C  C839  1  0.515000  0.603700  0.857600  1
  C  C840  1  0.985000  0.396300  0.357600  1
  C  C841  1  0.257700  0.240700  0.689500  1
  C  C842  1  0.242300  0.759300  0.189500  1
  C  C843  1  0.742300  0.759300  0.310500  1
  C  C844  1  0.757700  0.240700  0.810500  1
  C  C845  1  0.238600  0.195800  0.715800  1
  C  C846  1  0.261400  0.804200  0.215800  1
  C  C847  1  0.761400  0.804200  0.284200  1
  C  C848  1  0.738600  0.195800  0.784200  1
  C  C849  1  0.257100  0.188300  0.758900  1
  C  C850  1  0.242900  0.811700  0.258900  1
  C  C851  1  0.742900  0.811700  0.241100  1
  C  C852  1  0.757100  0.188300  0.741100  1
  C  C853  1  0.296600  0.225100  0.776400  1
  C  C854  1  0.203400  0.774900  0.276400  1
  C  C855  1  0.703400  0.774900  0.223600  1
  C  C856  1  0.796600  0.225100  0.723600  1
  C  C857  1  0.317000  0.272300  0.751200  1
  C  C858  1  0.183000  0.727700  0.251200  1
  C  C859  1  0.683000  0.727700  0.248800  1
  C  C860  1  0.817000  0.272300  0.748800  1
  C  C861  1  0.295700  0.276400  0.707500  1
  C  C862  1  0.204300  0.723600  0.207500  1
  C  C863  1  0.704300  0.723600  0.292500  1
  C  C864  1  0.795700  0.276400  0.792500  1
  C  C865  1  0.234900  0.140100  0.788000  1
  C  C866  1  0.265100  0.859900  0.288000  1
  C  C867  1  0.765100  0.859900  0.212000  1
  C  C868  1  0.734900  0.140100  0.712000  1
  C  C869  1  0.083900  0.165600  0.816400  1
  C  C870  1  0.416100  0.834400  0.316400  1
  C  C871  1  0.916100  0.834400  0.183600  1
  C  C872  1  0.583900  0.165600  0.683600  1
  C  C873  1  0.088200  0.191100  0.859500  1
  C  C874  1  0.411800  0.808900  0.359500  1
  C  C875  1  0.911800  0.808900  0.140500  1
  C  C876  1  0.588200  0.191100  0.640500  1
  C  C877  1  0.137500  0.199500  0.880800  1
  C  C878  1  0.362500  0.800500  0.380800  1
  C  C879  1  0.862500  0.800500  0.119200  1
  C  C880  1  0.637500  0.199500  0.619200  1
  C  C881  1  0.183400  0.182500  0.858700  1
  C  C882  1  0.316600  0.817500  0.358700  1
  C  C883  1  0.816600  0.817500  0.141300  1
  C  C884  1  0.683400  0.182500  0.641300  1
  C  C885  1  0.183000  0.159600  0.817200  1
  C  C886  1  0.317000  0.840400  0.317200  1
  C  C887  1  0.817000  0.840400  0.182800  1
  C  C888  1  0.683000  0.159600  0.682800  1
  C  C889  1  0.130900  0.149100  0.796000  1
  C  C890  1  0.369100  0.850900  0.296000  1
  C  C891  1  0.869100  0.850900  0.204000  1
  C  C892  1  0.630900  0.149100  0.704000  1
  C  C893  1  0.141500  0.233300  0.926100  1
  C  C894  1  0.358500  0.766700  0.426100  1
  C  C895  1  0.858500  0.766700  0.073900  1
  C  C896  1  0.641500  0.233300  0.573900  1
  C  C897  1  0.109600  0.383200  0.900900  1
  C  C898  1  0.390400  0.616800  0.400900  1
  C  C899  1  0.890400  0.616800  0.099100  1
  C  C900  1  0.609600  0.383200  0.599100  1
  C  C901  1  0.161600  0.406500  0.901700  1
  C  C902  1  0.338400  0.593500  0.401700  1
  C  C903  1  0.838400  0.593500  0.098300  1
  C  C904  1  0.661600  0.406500  0.598300  1
  C  C905  1  0.206900  0.380300  0.908700  1
  C  C906  1  0.293100  0.619700  0.408700  1
  C  C907  1  0.793100  0.619700  0.091300  1
  C  C908  1  0.706900  0.380300  0.591300  1
  C  C909  1  0.202600  0.323300  0.918800  1
  C  C910  1  0.297400  0.676700  0.418800  1
  C  C911  1  0.797400  0.676700  0.081200  1
  C  C912  1  0.702600  0.323300  0.581200  1
  C  C913  1  0.149200  0.294700  0.918700  1
  C  C914  1  0.350800  0.705300  0.418700  1
  C  C915  1  0.850800  0.705300  0.081300  1
  C  C916  1  0.649200  0.294700  0.581300  1
  C  C917  1  0.103300  0.330200  0.910000  1
  C  C918  1  0.396700  0.669800  0.410000  1
  C  C919  1  0.896700  0.669800  0.090000  1
  C  C920  1  0.603300  0.330200  0.590000  1
  C  C921  1  0.264900  0.404300  0.907900  1
  C  C922  1  0.235100  0.595700  0.407900  1
  C  C923  1  0.735100  0.595700  0.092100  1
  C  C924  1  0.764900  0.404300  0.592100  1
  C  C925  1  0.289400  0.456700  0.784900  1
  C  C926  1  0.210600  0.543300  0.284900  1
  C  C927  1  0.710600  0.543300  0.215100  1
  C  C928  1  0.789400  0.456700  0.715100  1
  C  C929  1  0.318600  0.409400  0.764200  1
  C  C930  1  0.181400  0.590600  0.264200  1
  C  C931  1  0.681400  0.590600  0.235800  1
  C  C932  1  0.818600  0.409400  0.735800  1
  C  C933  1  0.330500  0.364400  0.791400  1
  C  C934  1  0.169500  0.635600  0.291400  1
  C  C935  1  0.669500  0.635600  0.208600  1
  C  C936  1  0.830500  0.364400  0.708600  1
  C  C937  1  0.314700  0.364900  0.836600  1
  C  C938  1  0.185300  0.635100  0.336600  1
  C  C939  1  0.685300  0.635100  0.163400  1
  C  C940  1  0.814700  0.364900  0.663400  1
  C  C941  1  0.285400  0.412800  0.856100  1
  C  C942  1  0.214600  0.587200  0.356100  1
  C  C943  1  0.714600  0.587200  0.143900  1
  C  C944  1  0.785400  0.412800  0.643900  1
  C  C945  1  0.273000  0.453200  0.831100  1
  C  C946  1  0.227000  0.546800  0.331100  1
  C  C947  1  0.727000  0.546800  0.168900  1
  C  C948  1  0.773000  0.453200  0.668900  1
  C  C949  1  0.358200  0.313900  0.768700  1
  C  C950  1  0.141800  0.686100  0.268700  1
  C  C951  1  0.641800  0.686100  0.231300  1
  C  C952  1  0.858200  0.313900  0.731300  1
  N  N953  1  0.280800  0.983800  0.687300  1
  N  N954  1  0.219200  0.016200  0.187300  1
  N  N955  1  0.719200  0.016200  0.312700  1
  N  N956  1  0.780800  0.983800  0.812700  1
  N  N957  1  0.499000  0.314800  0.683300  1
  N  N958  1  0.001000  0.685200  0.183300  1
  N  N959  1  0.501000  0.685200  0.316700  1
  N  N960  1  0.999000  0.314800  0.816700  1
  N  N961  1  0.415700  0.071600  0.889100  1
  N  N962  1  0.084300  0.928400  0.389100  1
  N  N963  1  0.584300  0.928400  0.110900  1
  N  N964  1  0.915700  0.071600  0.610900  1
  N  N965  1  0.380700  0.154900  0.686900  1
  N  N966  1  0.119300  0.845100  0.186900  1
  N  N967  1  0.619300  0.845100  0.313100  1
  N  N968  1  0.880700  0.154900  0.813100  1
  N  N969  1  0.368000  0.105200  0.756500  1
  N  N970  1  0.132000  0.894800  0.256500  1
  N  N971  1  0.632000  0.894800  0.243500  1
  N  N972  1  0.868000  0.105200  0.743500  1
  N  N973  1  0.427200  0.184400  0.755100  1
  N  N974  1  0.072800  0.815600  0.255100  1
  N  N975  1  0.572800  0.815600  0.244900  1
  N  N976  1  0.927200  0.184400  0.744900  1
  N  N977  1  0.192300  0.944200  0.746000  1
  N  N978  1  0.307700  0.055800  0.246000  1
  N  N979  1  0.807700  0.055800  0.254000  1
  N  N980  1  0.692300  0.944200  0.754000  1
  N  N981  1  0.996500  0.127500  0.985300  1
  N  N982  1  0.503500  0.872500  0.485300  1
  N  N983  1  0.003500  0.872500  0.014700  1
  N  N984  1  0.496500  0.127500  0.514700  1
  N  N985  1  0.333000  0.026300  0.947800  1
  N  N986  1  0.167000  0.973700  0.447800  1
  N  N987  1  0.667000  0.973700  0.052200  1
  N  N988  1  0.833000  0.026300  0.552200  1
  N  N989  1  0.094000  0.037700  0.864100  1
  N  N990  1  0.406000  0.962300  0.364100  1
  N  N991  1  0.906000  0.962300  0.135900  1
  N  N992  1  0.594000  0.037700  0.635900  1
  N  N993  1  0.191400  0.025300  0.871100  1
  N  N994  1  0.308600  0.974700  0.371100  1
  N  N995  1  0.808600  0.974700  0.128900  1
  N  N996  1  0.691400  0.025300  0.628900  1
  N  N997  1  0.141400  0.069300  0.930200  1
  N  N998  1  0.358600  0.930700  0.430200  1
  N  N999  1  0.858600  0.930700  0.069800  1
  N  N1000  1  0.641400  0.069300  0.569800  1
  N  N1001  1  0.999100  0.234900  0.029900  1
  N  N1002  1  0.500900  0.765100  0.529900  1
  N  N1003  1  0.000900  0.765100  0.970100  1
  N  N1004  1  0.499100  0.234900  0.470100  1
  N  N1005  1  0.209000  0.572000  0.009200  1
  N  N1006  1  0.291000  0.428000  0.509200  1
  N  N1007  1  0.791000  0.428000  0.990800  1
  N  N1008  1  0.709000  0.572000  0.490800  1
  N  N1009  1  0.342000  0.312700  0.056400  1
  N  N1010  1  0.158000  0.687300  0.556400  1
  N  N1011  1  0.658000  0.687300  0.943600  1
  N  N1012  1  0.842000  0.312700  0.443600  1
  N  N1013  1  0.103700  0.403700  0.014800  1
  N  N1014  1  0.396300  0.596300  0.514800  1
  N  N1015  1  0.896300  0.596300  0.985200  1
  N  N1016  1  0.603700  0.403700  0.485200  1
  N  N1017  1  0.200700  0.402500  0.025500  1
  N  N1018  1  0.299300  0.597500  0.525500  1
  N  N1019  1  0.799300  0.597500  0.974500  1
  N  N1020  1  0.700700  0.402500  0.474500  1
  N  N1021  1  0.147600  0.320000  0.032600  1
  N  N1022  1  0.352400  0.680000  0.532600  1
  N  N1023  1  0.852400  0.680000  0.967400  1
  N  N1024  1  0.647600  0.320000  0.467400  1
  N  N1025  1  0.305900  0.604500  0.960600  1
  N  N1026  1  0.194100  0.395500  0.460600  1
  N  N1027  1  0.694100  0.395500  0.039400  1
  N  N1028  1  0.805900  0.604500  0.539400  1
  N  N1029  1  0.508000  0.423000  0.724000  1
  N  N1030  1  0.992000  0.577000  0.224000  1
  N  N1031  1  0.492000  0.577000  0.276000  1
  N  N1032  1  0.008000  0.423000  0.776000  1
  N  N1033  1  0.439300  0.347700  0.005800  1
  N  N1034  1  0.060700  0.652300  0.505800  1
  N  N1035  1  0.560700  0.652300  0.994200  1
  N  N1036  1  0.939300  0.347700  0.494200  1
  N  N1037  1  0.402400  0.510800  0.840800  1
  N  N1038  1  0.097600  0.489200  0.340800  1
  N  N1039  1  0.597600  0.489200  0.159200  1
  N  N1040  1  0.902400  0.510800  0.659200  1
  N  N1041  1  0.394700  0.470200  0.914400  1
  N  N1042  1  0.105300  0.529800  0.414400  1
  N  N1043  1  0.605300  0.529800  0.085600  1
  N  N1044  1  0.894700  0.470200  0.585600  1
  N  N1045  1  0.443400  0.424100  0.855400  1
  N  N1046  1  0.056600  0.575900  0.355400  1
  N  N1047  1  0.556600  0.575900  0.144600  1
  N  N1048  1  0.943400  0.424100  0.644600  1
  N  N1049  1  0.993200  0.076700  0.077100  1
  N  N1050  1  0.506800  0.923300  0.577100  1
  N  N1051  1  0.006800  0.923300  0.922900  1
  N  N1052  1  0.493200  0.076700  0.422900  1
  N  N1053  1  0.997900  0.176100  0.118300  1
  N  N1054  1  0.502100  0.823900  0.618300  1
  N  N1055  1  0.002100  0.823900  0.881700  1
  N  N1056  1  0.497900  0.176100  0.381700  1
  N  N1057  1  0.388000  0.918100  0.940500  1
  N  N1058  1  0.112000  0.081900  0.440500  1
  N  N1059  1  0.612000  0.081900  0.059500  1
  N  N1060  1  0.888000  0.918100  0.559500  1
  N  N1061  1  0.461900  0.961800  0.879600  1
  N  N1062  1  0.038100  0.038200  0.379600  1
  N  N1063  1  0.538100  0.038200  0.120400  1
  N  N1064  1  0.961900  0.961800  0.620400  1
  N  N1065  1  0.626300  0.403200  0.738400  1
  N  N1066  1  0.873700  0.596800  0.238400  1
  N  N1067  1  0.373700  0.596800  0.261600  1
  N  N1068  1  0.126300  0.403200  0.761600  1
  N  N1069  1  0.617200  0.299300  0.706600  1
  N  N1070  1  0.882800  0.700700  0.206600  1
  N  N1071  1  0.382800  0.700700  0.293400  1
  N  N1072  1  0.117200  0.299300  0.793400  1
  N  N1073  1  0.253500  0.631700  0.089100  1
  N  N1074  1  0.246500  0.368300  0.589100  1
  N  N1075  1  0.746500  0.368300  0.910900  1
  N  N1076  1  0.753500  0.631700  0.410900  1
  N  N1077  1  0.351100  0.650300  0.046600  1
  N  N1078  1  0.148900  0.349700  0.546600  1
  N  N1079  1  0.648900  0.349700  0.953400  1
  N  N1080  1  0.851100  0.650300  0.453400  1
  N  N1081  1  0.395600  0.352200  0.140400  1
  N  N1082  1  0.104400  0.647800  0.640400  1
  N  N1083  1  0.604400  0.647800  0.859600  1
  N  N1084  1  0.895600  0.352200  0.359600  1
  N  N1085  1  0.486500  0.385300  0.093900  1
  N  N1086  1  0.013500  0.614700  0.593900  1
  N  N1087  1  0.513500  0.614700  0.906100  1
  N  N1088  1  0.986500  0.385300  0.406100  1
  N  N1089  1  0.250900  0.837600  0.750700  1
  N  N1090  1  0.249100  0.162400  0.250700  1
  N  N1091  1  0.749100  0.162400  0.249300  1
  N  N1092  1  0.750900  0.837600  0.749300  1
  N  N1093  1  0.332600  0.877200  0.697100  1
  N  N1094  1  0.167400  0.122800  0.197100  1
  N  N1095  1  0.667400  0.122800  0.302900  1
  N  N1096  1  0.832600  0.877200  0.802900  1
  N  N1097  1  0.309400  0.237600  0.560800  1
  N  N1098  1  0.190600  0.762400  0.060800  1
  N  N1099  1  0.690600  0.762400  0.439200  1
  N  N1100  1  0.809400  0.237600  0.939200  1
  N  N1101  1  0.543700  0.825800  0.967900  1
  N  N1102  1  0.956300  0.174200  0.467900  1
  N  N1103  1  0.456300  0.174200  0.032100  1
  N  N1104  1  0.043700  0.825800  0.532100  1
  N  N1105  1  0.152300  0.154000  0.075400  1
  N  N1106  1  0.347700  0.846000  0.575400  1
  N  N1107  1  0.847700  0.846000  0.924600  1
  N  N1108  1  0.652300  0.154000  0.424600  1
  N  N1109  1  0.557000  0.265100  0.817900  1
  N  N1110  1  0.943000  0.734900  0.317900  1
  N  N1111  1  0.443000  0.734900  0.182100  1
  N  N1112  1  0.057000  0.265100  0.682100  1
  N  N1113  1  0.860300  0.051100  0.025600  1
  N  N1114  1  0.639700  0.948900  0.525600  1
  N  N1115  1  0.139700  0.948900  0.974400  1
  N  N1116  1  0.360300  0.051100  0.474400  1
  N  N1117  1  0.469800  0.029900  0.738500  1
  N  N1118  1  0.030200  0.970100  0.238500  1
  N  N1119  1  0.530200  0.970100  0.261500  1
  N  N1120  1  0.969800  0.029900  0.761500  1
  N  N1121  1  0.943700  0.454300  0.917900  1
  N  N1122  1  0.556300  0.545700  0.417900  1
  N  N1123  1  0.056300  0.545700  0.082100  1
  N  N1124  1  0.443700  0.454300  0.582100  1
  N  N1125  1  0.125700  0.828200  0.793700  1
  N  N1126  1  0.374300  0.171800  0.293700  1
  N  N1127  1  0.874300  0.171800  0.206300  1
  N  N1128  1  0.625700  0.828200  0.706300  1
  N  N1129  1  0.679500  0.074700  0.173700  1
  N  N1130  1  0.820500  0.925300  0.673700  1
  N  N1131  1  0.320500  0.925300  0.826300  1
  N  N1132  1  0.179500  0.074700  0.326300  1
  N  N1133  1  0.337300  0.487300  0.078600  1
  N  N1134  1  0.162700  0.512700  0.578600  1
  N  N1135  1  0.662700  0.512700  0.921400  1
  N  N1136  1  0.837300  0.487300  0.421400  1
  N  N1137  1  0.900500  0.021600  0.991300  1
  N  N1138  1  0.599500  0.978400  0.491300  1
  N  N1139  1  0.099500  0.978400  0.008700  1
  N  N1140  1  0.400500  0.021600  0.508700  1
  N  N1141  1  0.512700  0.021400  0.995000  1
  N  N1142  1  0.987300  0.978600  0.495000  1
  N  N1143  1  0.487300  0.978600  0.005000  1
  N  N1144  1  0.012700  0.021400  0.505000  1
  O  O1145  1  0.316900  0.219200  0.821500  1
  O  O1146  1  0.183100  0.780800  0.321500  1
  O  O1147  1  0.683100  0.780800  0.178500  1
  O  O1148  1  0.816900  0.219200  0.678500  1
  O  O1149  1  0.235100  0.188000  0.879200  1
  O  O1150  1  0.264900  0.812000  0.379200  1
  O  O1151  1  0.764900  0.812000  0.120800  1
  O  O1152  1  0.735100  0.188000  0.620800  1
  O  O1153  1  0.247100  0.289300  0.926400  1
  O  O1154  1  0.252900  0.710700  0.426400  1
  O  O1155  1  0.752900  0.710700  0.073600  1
  O  O1156  1  0.747100  0.289300  0.573600  1
  O  O1157  1  0.328000  0.322200  0.863800  1
  O  O1158  1  0.172000  0.677800  0.363800  1
  O  O1159  1  0.672000  0.677800  0.136200  1
  O  O1160  1  0.828000  0.322200  0.636200  1
  O  O1161  1  0.331000  0.282800  0.556600  1
  O  O1162  1  0.169000  0.717200  0.056600  1
  O  O1163  1  0.669000  0.717200  0.443400  1
  O  O1164  1  0.831000  0.282800  0.943400  1
  O  O1165  1  0.262700  0.237400  0.573200  1
  O  O1166  1  0.237300  0.762600  0.073200  1
  O  O1167  1  0.737300  0.762600  0.426800  1
  O  O1168  1  0.762700  0.237400  0.926800  1
  O  O1169  1  0.332300  0.194000  0.554000  1
  O  O1170  1  0.167700  0.806000  0.054000  1
  O  O1171  1  0.667700  0.806000  0.446000  1
  O  O1172  1  0.832300  0.194000  0.946000  1
  O  O1173  1  0.539700  0.793600  0.930300  1
  O  O1174  1  0.960300  0.206400  0.430300  1
  O  O1175  1  0.460300  0.206400  0.069700  1
  O  O1176  1  0.039700  0.793600  0.569700  1
  O  O1177  1  0.581800  0.852500  0.976000  1
  O  O1178  1  0.918200  0.147500  0.476000  1
  O  O1179  1  0.418200  0.147500  0.024000  1
  O  O1180  1  0.081800  0.852500  0.524000  1
  O  O1181  1  0.502900  0.823800  0.997100  1
  O  O1182  1  0.997100  0.176200  0.497100  1
  O  O1183  1  0.497100  0.176200  0.002900  1
  O  O1184  1  0.002900  0.823800  0.502900  1
  O  O1185  1  0.137600  0.157700  0.036000  1
  O  O1186  1  0.362400  0.842300  0.536000  1
  O  O1187  1  0.862400  0.842300  0.964000  1
  O  O1188  1  0.637600  0.157700  0.464000  1
  O  O1189  1  0.191600  0.121700  0.083500  1
  O  O1190  1  0.308400  0.878300  0.583500  1
  O  O1191  1  0.808400  0.878300  0.916500  1
  O  O1192  1  0.691600  0.121700  0.416500  1
  O  O1193  1  0.132800  0.183000  0.105200  1
  O  O1194  1  0.367200  0.817000  0.605200  1
  O  O1195  1  0.867200  0.817000  0.894800  1
  O  O1196  1  0.632800  0.183000  0.394800  1
  O  O1197  1  0.547800  0.250400  0.858300  1
  O  O1198  1  0.952200  0.749600  0.358300  1
  O  O1199  1  0.452200  0.749600  0.141700  1
  O  O1200  1  0.047800  0.250400  0.641700  1
  O  O1201  1  0.578100  0.235800  0.788300  1
  O  O1202  1  0.921900  0.764200  0.288300  1
  O  O1203  1  0.421900  0.764200  0.211700  1
  O  O1204  1  0.078100  0.235800  0.711700  1
  O  O1205  1  0.542400  0.310500  0.806400  1
  O  O1206  1  0.957600  0.689500  0.306400  1
  O  O1207  1  0.457600  0.689500  0.193600  1
  O  O1208  1  0.042400  0.310500  0.693600  1
  O  O1209  1  0.784700  0.101400  0.986400  1
  O  O1210  1  0.715300  0.898600  0.486400  1
  O  O1211  1  0.215300  0.898600  0.013600  1
  O  O1212  1  0.284700  0.101400  0.513600  1
  O  O1213  1  0.845800  0.069000  0.064000  1
  O  O1214  1  0.654200  0.931000  0.564000  1
  O  O1215  1  0.154200  0.931000  0.936000  1
  O  O1216  1  0.345800  0.069000  0.436000  1
  O  O1217  1  0.825100  0.048700  0.995200  1
  O  O1218  1  0.674900  0.951300  0.495200  1
  O  O1219  1  0.174900  0.951300  0.004800  1
  O  O1220  1  0.325100  0.048700  0.504800  1
  O  O1221  1  0.905400  0.031900  0.016900  1
  O  O1222  1  0.594600  0.968100  0.516900  1
  O  O1223  1  0.094600  0.968100  0.983100  1
  O  O1224  1  0.405400  0.031900  0.483100  1
  O  O1225  1  0.718800  0.109400  0.004000  1
  O  O1226  1  0.781200  0.890600  0.504000  1
  O  O1227  1  0.281200  0.890600  0.996000  1
  O  O1228  1  0.218800  0.109400  0.496000  1
  O  O1229  1  0.478000  0.017100  0.775400  1
  O  O1230  1  0.022000  0.982900  0.275400  1
  O  O1231  1  0.522000  0.982900  0.224600  1
  O  O1232  1  0.978000  0.017100  0.724600  1
  O  O1233  1  0.489300  0.079700  0.728900  1
  O  O1234  1  0.010700  0.920300  0.228900  1
  O  O1235  1  0.510700  0.920300  0.271100  1
  O  O1236  1  0.989300  0.079700  0.771100  1
  O  O1237  1  0.448700  0.008300  0.709800  1
  O  O1238  1  0.051300  0.991700  0.209800  1
  O  O1239  1  0.551300  0.991700  0.290200  1
  O  O1240  1  0.948700  0.008300  0.790200  1
  O  O1241  1  0.990800  0.447000  0.923100  1
  O  O1242  1  0.509200  0.553000  0.423100  1
  O  O1243  1  0.009200  0.553000  0.076900  1
  O  O1244  1  0.490800  0.447000  0.576900  1
  O  O1245  1  0.910400  0.416500  0.919400  1
  O  O1246  1  0.589600  0.583500  0.419400  1
  O  O1247  1  0.089600  0.583500  0.080600  1
  O  O1248  1  0.410400  0.416500  0.580600  1
  O  O1249  1  0.921300  0.501100  0.905500  1
  O  O1250  1  0.578700  0.498900  0.405500  1
  O  O1251  1  0.078700  0.498900  0.094500  1
  O  O1252  1  0.421300  0.501100  0.594500  1
  O  O1253  1  0.155600  0.849200  0.825800  1
  O  O1254  1  0.344400  0.150800  0.325800  1
  O  O1255  1  0.844400  0.150800  0.174200  1
  O  O1256  1  0.655600  0.849200  0.674200  1
  O  O1257  1  0.140900  0.808500  0.753400  1
  O  O1258  1  0.359100  0.191500  0.253400  1
  O  O1259  1  0.859100  0.191500  0.246600  1
  O  O1260  1  0.640900  0.808500  0.746600  1
  O  O1261  1  0.095400  0.798100  0.826300  1
  O  O1262  1  0.404600  0.201900  0.326300  1
  O  O1263  1  0.904600  0.201900  0.173700  1
  O  O1264  1  0.595400  0.798100  0.673700  1
  O  O1265  1  0.719800  0.099500  0.154900  1
  O  O1266  1  0.780200  0.900500  0.654900  1
  O  O1267  1  0.280200  0.900500  0.845100  1
  O  O1268  1  0.219800  0.099500  0.345100  1
  O  O1269  1  0.679800  0.027300  0.185300  1
  O  O1270  1  0.820200  0.972700  0.685300  1
  O  O1271  1  0.320200  0.972700  0.814700  1
  O  O1272  1  0.179800  0.027300  0.314700  1
  O  O1273  1  0.638100  0.099800  0.185400  1
  O  O1274  1  0.861900  0.900200  0.685400  1
  O  O1275  1  0.361900  0.900200  0.814600  1
  O  O1276  1  0.138100  0.099800  0.314600  1
  O  O1277  1  0.341800  0.476300  0.035800  1
  O  O1278  1  0.158200  0.523700  0.535800  1
  O  O1279  1  0.658200  0.523700  0.964200  1
  O  O1280  1  0.841800  0.476300  0.464200  1
  O  O1281  1  0.356100  0.461900  0.108200  1
  O  O1282  1  0.143900  0.538100  0.608200  1
  O  O1283  1  0.643900  0.538100  0.891800  1
  O  O1284  1  0.856100  0.461900  0.391800  1
  O  O1285  1  0.303300  0.520700  0.093400  1
  O  O1286  1  0.196700  0.479300  0.593400  1
  O  O1287  1  0.696700  0.479300  0.906600  1
  O  O1288  1  0.803300  0.520700  0.406600  1
  O  O1289  1  0.567200  0.081700  0.961600  1
  O  O1290  1  0.932800  0.918300  0.461600  1
  O  O1291  1  0.432800  0.918300  0.038400  1
  O  O1292  1  0.067200  0.081700  0.538400  1
  O  O1293  1  0.562200  0.116300  0.803200  1
  O  O1294  1  0.937800  0.883700  0.303200  1
  O  O1295  1  0.437800  0.883700  0.196800  1
  O  O1296  1  0.062200  0.116300  0.696800  1
  O  O1297  1  0.382500  0.741000  0.989300  1
  O  O1298  1  0.117500  0.259000  0.489300  1
  O  O1299  1  0.617500  0.259000  0.010700  1
  O  O1300  1  0.882500  0.741000  0.510700  1
  O  O1301  1  0.628100  0.886600  0.899800  1
  O  O1302  1  0.871900  0.113400  0.399800  1
  O  O1303  1  0.371900  0.113400  0.100200  1
  O  O1304  1  0.128100  0.886600  0.600200  1
  O  O1305  1  0.295000  0.789800  0.854700  1
  O  O1306  1  0.205000  0.210200  0.354700  1
  O  O1307  1  0.705000  0.210200  0.145300  1
  O  O1308  1  0.795000  0.789800  0.645300  1
  O  O1309  1  0.444400  0.723100  0.916800  1
  O  O1310  1  0.055600  0.276900  0.416800  1
  O  O1311  1  0.555600  0.276900  0.083200  1
  O  O1312  1  0.944400  0.723100  0.583200  1
  O  O1313  1  0.197000  0.147200  0.588700  1
  O  O1314  1  0.303000  0.852800  0.088700  1
  O  O1315  1  0.803000  0.852800  0.411300  1
  O  O1316  1  0.697000  0.147200  0.911300  1
  O  O1317  1  0.315100  0.262500  0.450100  1
  O  O1318  1  0.184900  0.737500  0.950100  1
  O  O1319  1  0.684900  0.737500  0.549900  1
  O  O1320  1  0.815100  0.262500  0.049900  1
  O  O1321  1  0.211100  0.728200  0.823100  1
  O  O1322  1  0.288900  0.271800  0.323100  1
  O  O1323  1  0.788900  0.271800  0.176900  1
  O  O1324  1  0.711100  0.728200  0.676900  1
  O  O1325  1  0.663900  0.076700  0.830800  1
  O  O1326  1  0.836100  0.923300  0.330800  1
  O  O1327  1  0.336100  0.923300  0.169200  1
  O  O1328  1  0.163900  0.076700  0.669200  1
  O  O1329  1  0.591300  0.177900  0.924600  1
  O  O1330  1  0.908700  0.822100  0.424600  1
  O  O1331  1  0.408700  0.822100  0.075400  1
  O  O1332  1  0.091300  0.177900  0.575400  1
  O  O1333  1  0.211800  0.215500  0.451500  1
  O  O1334  1  0.288200  0.784500  0.951500  1
  O  O1335  1  0.788200  0.784500  0.548500  1
  O  O1336  1  0.711800  0.215500  0.048500  1
  O  O1337  1  0.355500  0.326900  0.388500  1
  O  O1338  1  0.144500  0.673100  0.888500  1
  O  O1339  1  0.644500  0.673100  0.611500  1
  O  O1340  1  0.855500  0.326900  0.111500  1
  O  O1341  1  0.711600  0.852600  0.863500  1
  O  O1342  1  0.788400  0.147400  0.363500  1
  O  O1343  1  0.288400  0.147400  0.136500  1
  O  O1344  1  0.211600  0.852600  0.636500  1
  O  O1345  1  0.073100  0.269000  0.149100  1
  O  O1346  1  0.426900  0.731000  0.649100  1
  O  O1347  1  0.926900  0.731000  0.850900  1
  O  O1348  1  0.573100  0.269000  0.350900  1
  O  O1349  1  0.395900  0.752400  0.833400  1
  O  O1350  1  0.104100  0.247600  0.333400  1
  O  O1351  1  0.604100  0.247600  0.166600  1
  O  O1352  1  0.895900  0.752400  0.666600  1
  O  O1353  1  0.468000  0.310900  0.374500  1
  O  O1354  1  0.032000  0.689100  0.874500  1
  O  O1355  1  0.532000  0.689100  0.625500  1
  O  O1356  1  0.968000  0.310900  0.125500  1
  O  O1357  1  0.018100  0.571300  0.899100  1
  O  O1358  1  0.481900  0.428700  0.399100  1
  O  O1359  1  0.981900  0.428700  0.100900  1
  O  O1360  1  0.518100  0.571300  0.600900  1
  O  O1361  1  0.177200  0.572300  0.145000  1
  O  O1362  1  0.322800  0.427700  0.645000  1
  O  O1363  1  0.822800  0.427700  0.855000  1
  O  O1364  1  0.677200  0.572300  0.355000  1
  O  O1365  1  0.476100  0.816200  0.791100  1
  O  O1366  1  0.023900  0.183800  0.291100  1
  O  O1367  1  0.523900  0.183800  0.208900  1
  O  O1368  1  0.976100  0.816200  0.708900  1
  O  O1369  1  0.620800  0.510900  0.664700  1
  O  O1370  1  0.879200  0.489100  0.164700  1
  O  O1371  1  0.379200  0.489100  0.335300  1
  O  O1372  1  0.120800  0.510900  0.835300  1
  O  O1373  1  0.184700  0.571700  0.859300  1
  O  O1374  1  0.315300  0.428300  0.359300  1
  O  O1375  1  0.815300  0.428300  0.140700  1
  O  O1376  1  0.684700  0.571700  0.640700  1
  O  O1377  1  0.432400  0.467900  0.247600  1
  O  O1378  1  0.067600  0.532100  0.747600  1
  O  O1379  1  0.567600  0.532100  0.752400  1
  O  O1380  1  0.932400  0.467900  0.252400  1
  O  O1381  1  0.178600  0.679400  0.747000  1
  O  O1382  1  0.321400  0.320600  0.247000  1
  O  O1383  1  0.821400  0.320600  0.253000  1
  O  O1384  1  0.678600  0.679400  0.753000  1
  O  O1385  1  0.421100  0.917000  0.775800  1
  O  O1386  1  0.078900  0.083000  0.275800  1
  O  O1387  1  0.578900  0.083000  0.224200  1
  O  O1388  1  0.921100  0.917000  0.724200  1
  O  O1389  1  0.223200  0.605600  0.766900  1
  O  O1390  1  0.276800  0.394400  0.266900  1
  O  O1391  1  0.776800  0.394400  0.233100  1
  O  O1392  1  0.723200  0.605600  0.733100  1
  O  O1393  1  0.068900  0.696300  0.778300  1
  O  O1394  1  0.431100  0.303700  0.278300  1
  O  O1395  1  0.931100  0.303700  0.221700  1
  O  O1396  1  0.568900  0.696300  0.721700  1
  O  O1397  1  0.467000  0.741100  0.731800  1
  O  O1398  1  0.033000  0.258900  0.231800  1
  O  O1399  1  0.533000  0.258900  0.268200  1
  O  O1400  1  0.967000  0.741100  0.768200  1
  O  O1401  1  0.366100  0.170700  0.410700  1
  O  O1402  1  0.133900  0.829300  0.910700  1
  O  O1403  1  0.633900  0.829300  0.589300  1
  O  O1404  1  0.866100  0.170700  0.089300  1
  O  O1405  1  0.163000  0.320900  0.149300  1
  O  O1406  1  0.337000  0.679100  0.649300  1
  O  O1407  1  0.837000  0.679100  0.850700  1
  O  O1408  1  0.663000  0.320900  0.350700  1
  O  O1409  1  0.230200  0.680600  0.662200  1
  O  O1410  1  0.269800  0.319400  0.162200  1
  O  O1411  1  0.769800  0.319400  0.337800  1
  O  O1412  1  0.730200  0.680600  0.837800  1
  O  O1413  1  0.199100  0.726600  0.663800  1
  O  O1414  1  0.300900  0.273400  0.163800  1
  O  O1415  1  0.800900  0.273400  0.336200  1
  O  O1416  1  0.699100  0.726600  0.836200  1
  O  O1417  1  0.643900  0.999500  0.894400  1
  O  O1418  1  0.856100  0.000500  0.394400  1
  O  O1419  1  0.356100  0.000500  0.105600  1
  O  O1420  1  0.143900  0.999500  0.605600  1
  O  O1421  1  0.543700  0.048100  0.878900  1
  O  O1422  1  0.956300  0.951900  0.378900  1
  O  O1423  1  0.456300  0.951900  0.121100  1
  O  O1424  1  0.043700  0.048100  0.621100  1
  O  O1425  1  0.334900  0.606900  0.744000  1
  O  O1426  1  0.165100  0.393100  0.244000  1
  O  O1427  1  0.665100  0.393100  0.256000  1
  O  O1428  1  0.834900  0.606900  0.756000  1
  O  O1429  1  0.442000  0.562900  0.017300  1
  O  O1430  1  0.058000  0.437100  0.517300  1
  O  O1431  1  0.558000  0.437100  0.982700  1
  O  O1432  1  0.942000  0.562900  0.482700  1
  O  O1433  1  0.405300  0.550000  0.164000  1
  O  O1434  1  0.094700  0.450000  0.664000  1
  O  O1435  1  0.594700  0.450000  0.836000  1
  O  O1436  1  0.905300  0.550000  0.336000  1
  O  O1437  1  0.890400  0.044500  0.029000  1
  O  O1438  1  0.609600  0.955500  0.529000  1
  O  O1439  1  0.109600  0.955500  0.971000  1
  O  O1440  1  0.390400  0.044500  0.471000  1
  O  O1441  1  0.861800  0.019000  0.964200  1
  O  O1442  1  0.638200  0.981000  0.464200  1
  O  O1443  1  0.138200  0.981000  0.035800  1
  O  O1444  1  0.361800  0.019000  0.535800  1
  O  O1445  1  0.944300  0.000300  0.985500  1
  O  O1446  1  0.555700  0.999700  0.485500  1
  O  O1447  1  0.055700  0.999700  0.014500  1
  O  O1448  1  0.444300  0.000300  0.514500  1
  O  O1449  1  0.900000  0.963700  0.880700  1
  O  O1450  1  0.600000  0.036300  0.380700  1
  O  O1451  1  0.100000  0.036300  0.119300  1
  O  O1452  1  0.400000  0.963700  0.619300  1
  O  O1453  1  0.898500  0.972400  0.929900  1
  O  O1454  1  0.601500  0.027600  0.429900  1
  O  O1455  1  0.101500  0.027600  0.070100  1
  O  O1456  1  0.398500  0.972400  0.570100  1
  O  O1457  1  0.668300  0.033800  0.181200  1
  O  O1458  1  0.831700  0.966200  0.681200  1
  O  O1459  1  0.331700  0.966200  0.818800  1
  O  O1460  1  0.168300  0.033800  0.318800  1
  O  O1461  1  0.726600  0.093800  0.113000  1
  O  O1462  1  0.773400  0.906200  0.613000  1
  O  O1463  1  0.273400  0.906200  0.887000  1
  O  O1464  1  0.226600  0.093800  0.387000  1
  O  O1465  1  0.351600  0.468300  0.044500  1
  O  O1466  1  0.148400  0.531700  0.544500  1
  O  O1467  1  0.648400  0.531700  0.955500  1
  O  O1468  1  0.851600  0.468300  0.455500  1
  O  O1469  1  0.361500  0.169500  0.449200  1
  O  O1470  1  0.138500  0.830500  0.949200  1
  O  O1471  1  0.638500  0.830500  0.550800  1
  O  O1472  1  0.861500  0.169500  0.050800  1
  O  O1473  1  0.199100  0.290500  0.139100  1
  O  O1474  1  0.300900  0.709500  0.639100  1
  O  O1475  1  0.800900  0.709500  0.860900  1
  O  O1476  1  0.699100  0.290500  0.360900  1
  O  O1477  1  0.145000  0.770000  0.680800  1
  O  O1478  1  0.355000  0.230000  0.180800  1
  O  O1479  1  0.855000  0.230000  0.319200  1
  O  O1480  1  0.645000  0.770000  0.819200  1
  O  O1481  1  0.077800  0.789500  0.667700  1
  O  O1482  1  0.422200  0.210500  0.167700  1
  O  O1483  1  0.922200  0.210500  0.332300  1
  O  O1484  1  0.577800  0.789500  0.832300  1
  O  O1485  1  0.583100  0.999200  0.892700  1
  O  O1486  1  0.916900  0.000800  0.392700  1
  O  O1487  1  0.416900  0.000800  0.107300  1
  O  O1488  1  0.083100  0.999200  0.607300  1
  O  O1489  1  0.397000  0.667900  0.780300  1
  O  O1490  1  0.103000  0.332100  0.280300  1
  O  O1491  1  0.603000  0.332100  0.219700  1
  O  O1492  1  0.897000  0.667900  0.719700  1
  O  O1493  1  0.429700  0.568200  0.090900  1
  O  O1494  1  0.070300  0.431800  0.590900  1
  O  O1495  1  0.570300  0.431800  0.909100  1
  O  O1496  1  0.929700  0.568200  0.409100  1
  O  O1497  1  0.478300  0.497800  0.048300  1
  O  O1498  1  0.021700  0.502200  0.548300  1
  O  O1499  1  0.521700  0.502200  0.951700  1
  O  O1500  1  0.978300  0.497800  0.451700  1
  O  O1501  1  0.469400  0.035700  0.013200  1
  O  O1502  1  0.030600  0.964300  0.513200  1
  O  O1503  1  0.530600  0.964300  0.986800  1
  O  O1504  1  0.969400  0.035700  0.486800  1
  O  O1505  1  0.527300  0.974700  0.999900  1
  O  O1506  1  0.972700  0.025300  0.499900  1
  O  O1507  1  0.472700  0.025300  0.000100  1
  O  O1508  1  0.027300  0.974700  0.500100  1
  O  O1509  1  0.542700  0.056500  0.978000  1
  O  O1510  1  0.957300  0.943500  0.478000  1
  O  O1511  1  0.457300  0.943500  0.022000  1
  O  O1512  1  0.042700  0.056500  0.522000  1
