# generated using pymatgen
data_H92Pd4C74(N9O13)3
_symmetry_space_group_name_H-M   'P 1'
_cell_length_a   20.21260000
_cell_length_b   20.21260000
_cell_length_c   45.41000000
_cell_angle_alpha   90.00000000
_cell_angle_beta   90.00000000
_cell_angle_gamma   120.00000000
_symmetry_Int_Tables_number   1
_chemical_formula_structural   H92Pd4C74(N9O13)3
_chemical_formula_sum   'H552 Pd24 C444 N162 O234'
_cell_volume   16066.69305076
_cell_formula_units_Z   6
loop_
 _symmetry_equiv_pos_site_id
 _symmetry_equiv_pos_as_xyz
  1  'x, y, z'
loop_
 _atom_site_type_symbol
 _atom_site_label
 _atom_site_symmetry_multiplicity
 _atom_site_fract_x
 _atom_site_fract_y
 _atom_site_fract_z
 _atom_site_occupancy
  H  H1  1  0.805600  0.567200  0.714700  1
  H  H2  1  0.761600  0.194400  0.048033  1
  H  H3  1  0.432800  0.238400  0.381367  1
  H  H4  1  0.698500  0.607300  0.652900  1
  H  H5  1  0.908800  0.301500  0.986233  1
  H  H6  1  0.392700  0.091200  0.319567  1
  H  H7  1  0.838800  0.776000  0.708200  1
  H  H8  1  0.937200  0.161200  0.041533  1
  H  H9  1  0.224000  0.062800  0.374867  1
  H  H10  1  0.711600  0.895800  0.627800  1
  H  H11  1  0.184200  0.288400  0.961133  1
  H  H12  1  0.104200  0.815800  0.294467  1
  H  H13  1  0.599300  0.646000  0.607600  1
  H  H14  1  0.046700  0.400700  0.940933  1
  H  H15  1  0.354000  0.953300  0.274267  1
  H  H16  1  0.648300  0.862700  0.589100  1
  H  H17  1  0.214400  0.351700  0.922433  1
  H  H18  1  0.137300  0.785600  0.255767  1
  H  H19  1  0.552900  0.805900  0.551400  1
  H  H20  1  0.253000  0.447100  0.884733  1
  H  H21  1  0.194100  0.747000  0.218067  1
  H  H22  1  0.492500  0.683600  0.546600  1
  H  H23  1  0.191100  0.507500  0.879933  1
  H  H24  1  0.316400  0.808900  0.213267  1
  H  H25  1  0.859300  0.934600  0.708500  1
  H  H26  1  0.075300  0.140700  0.041833  1
  H  H27  1  0.065400  0.924700  0.375167  1
  H  H28  1  0.721100  0.986900  0.658300  1
  H  H29  1  0.265800  0.278900  0.991633  1
  H  H30  1  0.013100  0.734200  0.324967  1
  H  H31  1  0.768300  0.100200  0.689200  1
  H  H32  1  0.331900  0.231700  0.022533  1
  H  H33  1  0.899800  0.668100  0.355867  1
  H  H34  1  0.854100  0.123700  0.726100  1
  H  H35  1  0.269600  0.145900  0.059433  1
  H  H36  1  0.876300  0.730400  0.392767  1
  H  H37  1  0.007200  0.655000  0.730500  1
  H  H38  1  0.647800  0.992800  0.063833  1
  H  H39  1  0.345000  0.352200  0.397167  1
  H  H40  1  0.017100  0.850400  0.722100  1
  H  H41  1  0.833300  0.982900  0.055433  1
  H  H42  1  0.149600  0.166700  0.388767  1
  H  H43  1  0.180400  0.820100  0.690100  1
  H  H44  1  0.639700  0.819600  0.023433  1
  H  H45  1  0.179900  0.360300  0.356767  1
  H  H46  1  0.255000  0.129100  0.671200  1
  H  H47  1  0.874100  0.745000  0.004533  1
  H  H48  1  0.870900  0.125900  0.337867  1
  H  H49  1  0.034900  0.008300  0.722800  1
  H  H50  1  0.973400  0.965100  0.056133  1
  H  H51  1  0.991700  0.026600  0.389467  1
  H  H52  1  0.191300  0.194200  0.678500  1
  H  H53  1  0.002900  0.808700  0.011833  1
  H  H54  1  0.805800  0.997100  0.345167  1
  H  H55  1  0.132700  0.255100  0.694200  1
  H  H56  1  0.122400  0.867300  0.027533  1
  H  H57  1  0.744900  0.877600  0.360867  1
  H  H58  1  0.031000  0.203400  0.720200  1
  H  H59  1  0.172400  0.969000  0.053533  1
  H  H60  1  0.796600  0.827600  0.386867  1
  H  H61  1  0.335900  0.963100  0.667600  1
  H  H62  1  0.627200  0.664100  0.000933  1
  H  H63  1  0.036900  0.372800  0.334267  1
  H  H64  1  0.338300  0.153800  0.638100  1
  H  H65  1  0.815500  0.661700  0.971433  1
  H  H66  1  0.846200  0.184500  0.304767  1
  H  H67  1  0.447300  0.183600  0.609900  1
  H  H68  1  0.736300  0.552700  0.943233  1
  H  H69  1  0.816400  0.263700  0.276567  1
  H  H70  1  0.500700  0.106100  0.615200  1
  H  H71  1  0.605400  0.499300  0.948533  1
  H  H72  1  0.893900  0.394600  0.281867  1
  H  H73  1  0.011900  0.528900  0.679700  1
  H  H74  1  0.517000  0.988100  0.013033  1
  H  H75  1  0.471100  0.483000  0.346367  1
  H  H76  1  0.190300  0.699700  0.638600  1
  H  H77  1  0.509400  0.809700  0.971933  1
  H  H78  1  0.300300  0.490600  0.305267  1
  H  H79  1  0.037900  0.520500  0.593600  1
  H  H80  1  0.482600  0.962100  0.926933  1
  H  H81  1  0.479500  0.517400  0.260267  1
  H  H82  1  0.284300  0.735100  0.521400  1
  H  H83  1  0.450800  0.715700  0.854733  1
  H  H84  1  0.264900  0.549200  0.188067  1
  H  H85  1  0.344100  0.819600  0.611800  1
  H  H86  1  0.475500  0.655900  0.945133  1
  H  H87  1  0.180400  0.524500  0.278467  1
  H  H88  1  0.355700  0.856500  0.524300  1
  H  H89  1  0.500800  0.644300  0.857633  1
  H  H90  1  0.143500  0.499200  0.190967  1
  H  H91  1  0.442800  0.983500  0.530600  1
  H  H92  1  0.540700  0.557200  0.863933  1
  H  H93  1  0.016500  0.459300  0.197267  1
  H  H94  1  0.515700  0.017900  0.576200  1
  H  H95  1  0.502200  0.484300  0.909533  1
  H  H96  1  0.982100  0.497800  0.242867  1
  H  H97  1  0.081700  0.501000  0.526500  1
  H  H98  1  0.419300  0.918300  0.859833  1
  H  H99  1  0.499000  0.580700  0.193167  1
  H  H100  1  0.200500  0.685600  0.478000  1
  H  H101  1  0.485100  0.799500  0.811333  1
  H  H102  1  0.314400  0.514900  0.144667  1
  H  H103  1  0.151600  0.611200  0.433900  1
  H  H104  1  0.459600  0.848400  0.767233  1
  H  H105  1  0.388800  0.540400  0.100567  1
  H  H106  1  0.079200  0.477900  0.443000  1
  H  H107  1  0.398700  0.920800  0.776333  1
  H  H108  1  0.522100  0.601300  0.109667  1
  H  H109  1  0.821700  0.443800  0.665600  1
  H  H110  1  0.622100  0.178300  0.998933  1
  H  H111  1  0.556200  0.377900  0.332267  1
  H  H112  1  0.866300  0.436100  0.584900  1
  H  H113  1  0.569800  0.133700  0.918233  1
  H  H114  1  0.563900  0.430200  0.251567  1
  H  H115  1  0.705600  0.485100  0.610200  1
  H  H116  1  0.779500  0.294400  0.943533  1
  H  H117  1  0.514900  0.220500  0.276867  1
  H  H118  1  0.726600  0.484200  0.482800  1
  H  H119  1  0.757600  0.273400  0.816133  1
  H  H120  1  0.515800  0.242400  0.149467  1
  H  H121  1  0.886500  0.411400  0.515100  1
  H  H122  1  0.524900  0.113500  0.848433  1
  H  H123  1  0.588600  0.475100  0.181767  1
  H  H124  1  0.786300  0.460700  0.448600  1
  H  H125  1  0.674400  0.213700  0.781933  1
  H  H126  1  0.539300  0.325600  0.115267  1
  H  H127  1  0.835100  0.400800  0.417900  1
  H  H128  1  0.565700  0.164900  0.751233  1
  H  H129  1  0.599200  0.434300  0.084567  1
  H  H130  1  0.941000  0.393600  0.434200  1
  H  H131  1  0.452600  0.059000  0.767533  1
  H  H132  1  0.606400  0.547400  0.100867  1
  H  H133  1  0.598700  0.507700  0.560400  1
  H  H134  1  0.909000  0.401300  0.893733  1
  H  H135  1  0.492300  0.091000  0.227067  1
  H  H136  1  0.666100  0.545400  0.473300  1
  H  H137  1  0.879300  0.333900  0.806633  1
  H  H138  1  0.454600  0.120700  0.139967  1
  H  H139  1  0.586700  0.594000  0.471200  1
  H  H140  1  0.007300  0.413300  0.804533  1
  H  H141  1  0.406000  0.992700  0.137867  1
  H  H142  1  0.499600  0.584900  0.505300  1
  H  H143  1  0.085300  0.500400  0.838633  1
  H  H144  1  0.415100  0.914700  0.171967  1
  H  H145  1  0.617500  0.335400  0.651400  1
  H  H146  1  0.717900  0.382500  0.984733  1
  H  H147  1  0.664600  0.282100  0.318067  1
  H  H148  1  0.658000  0.328700  0.677500  1
  H  H149  1  0.670700  0.342000  0.010833  1
  H  H150  1  0.671300  0.329300  0.344167  1
  H  H151  1  0.637000  0.480100  0.721100  1
  H  H152  1  0.843100  0.363000  0.054433  1
  H  H153  1  0.519900  0.156900  0.387767  1
  H  H154  1  0.575400  0.455100  0.698500  1
  H  H155  1  0.879700  0.424600  0.031833  1
  H  H156  1  0.544900  0.120300  0.365167  1
  H  H157  1  0.518000  0.319500  0.676100  1
  H  H158  1  0.801500  0.482000  0.009433  1
  H  H159  1  0.680500  0.198500  0.342767  1
  H  H160  1  0.615200  0.358700  0.729200  1
  H  H161  1  0.743500  0.384800  0.062533  1
  H  H162  1  0.641300  0.256500  0.395867  1
  H  H163  1  0.515200  0.372600  0.754400  1
  H  H164  1  0.857400  0.484800  0.087733  1
  H  H165  1  0.627400  0.142600  0.421067  1
  H  H166  1  0.468800  0.359600  0.724200  1
  H  H167  1  0.890800  0.531200  0.057533  1
  H  H168  1  0.640400  0.109200  0.390867  1
  H  H169  1  0.483000  0.245700  0.757100  1
  H  H170  1  0.762700  0.517000  0.090433  1
  H  H171  1  0.754300  0.237300  0.423767  1
  H  H172  1  0.404900  0.242200  0.748000  1
  H  H173  1  0.837300  0.595100  0.081333  1
  H  H174  1  0.757800  0.162700  0.414667  1
  H  H175  1  0.431300  0.156100  0.720300  1
  H  H176  1  0.724800  0.568700  0.053633  1
  H  H177  1  0.843900  0.275200  0.386967  1
  H  H178  1  0.412900  0.209800  0.700400  1
  H  H179  1  0.796900  0.587100  0.033733  1
  H  H180  1  0.790200  0.203100  0.367067  1
  H  H181  1  0.561600  0.226900  0.707900  1
  H  H182  1  0.665300  0.438400  0.041233  1
  H  H183  1  0.773100  0.334700  0.374567  1
  H  H184  1  0.512300  0.201400  0.678100  1
  H  H185  1  0.689100  0.487700  0.011433  1
  H  H186  1  0.798600  0.310900  0.344767  1
  H  H187  1  0.777000  0.689300  0.768400  1
  H  H188  1  0.912300  0.223000  0.101733  1
  H  H189  1  0.310700  0.087700  0.435067  1
  H  H190  1  0.780200  0.620100  0.777300  1
  H  H191  1  0.839900  0.219800  0.110633  1
  H  H192  1  0.379900  0.160100  0.443967  1
  H  H193  1  0.001400  0.724700  0.789400  1
  H  H194  1  0.723300  0.998600  0.122733  1
  H  H195  1  0.275300  0.276700  0.456067  1
  H  H196  1  0.992100  0.793900  0.790800  1
  H  H197  1  0.801800  0.007900  0.124133  1
  H  H198  1  0.206100  0.198200  0.457467  1
  H  H199  1  0.843400  0.757900  0.805500  1
  H  H200  1  0.914500  0.156600  0.138833  1
  H  H201  1  0.242100  0.085500  0.472167  1
  H  H202  1  0.890200  0.646700  0.814200  1
  H  H203  1  0.756500  0.109800  0.147533  1
  H  H204  1  0.353300  0.243500  0.480867  1
  H  H205  1  0.931600  0.787300  0.843700  1
  H  H206  1  0.855700  0.068400  0.177033  1
  H  H207  1  0.212700  0.144300  0.510367  1
  H  H208  1  0.972800  0.738700  0.849900  1
  H  H209  1  0.765900  0.027200  0.183233  1
  H  H210  1  0.261300  0.234100  0.516567  1
  H  H211  1  0.848100  0.632400  0.866900  1
  H  H212  1  0.784300  0.151900  0.200233  1
  H  H213  1  0.367600  0.215700  0.533567  1
  H  H214  1  0.879600  0.707100  0.887700  1
  H  H215  1  0.827500  0.120400  0.221033  1
  H  H216  1  0.292900  0.172500  0.554367  1
  H  H217  1  0.814000  0.751600  0.858300  1
  H  H218  1  0.937600  0.186000  0.191633  1
  H  H219  1  0.248400  0.062400  0.524967  1
  H  H220  1  0.756300  0.672400  0.873700  1
  H  H221  1  0.916100  0.243700  0.207033  1
  H  H222  1  0.327600  0.083900  0.540367  1
  H  H223  1  0.721500  0.673500  0.825100  1
  H  H224  1  0.952000  0.278500  0.158433  1
  H  H225  1  0.326500  0.048000  0.491767  1
  H  H226  1  0.743100  0.607800  0.829900  1
  H  H227  1  0.864700  0.256900  0.163233  1
  H  H228  1  0.392200  0.135300  0.496567  1
  H  H229  1  0.232500  0.762600  0.740600  1
  H  H230  1  0.530100  0.767500  0.073933  1
  H  H231  1  0.237400  0.469900  0.407267  1
  H  H232  1  0.177600  0.692300  0.757100  1
  H  H233  1  0.514700  0.822400  0.090433  1
  H  H234  1  0.307700  0.485300  0.423767  1
  H  H235  1  0.193800  0.568900  0.690000  1
  H  H236  1  0.375100  0.806200  0.023333  1
  H  H237  1  0.431100  0.624900  0.356667  1
  H  H238  1  0.260700  0.647300  0.684300  1
  H  H239  1  0.386600  0.739300  0.017633  1
  H  H240  1  0.352700  0.613400  0.350967  1
  H  H241  1  0.313700  0.727100  0.731900  1
  H  H242  1  0.413400  0.686300  0.065233  1
  H  H243  1  0.272900  0.586600  0.398567  1
  H  H244  1  0.207900  0.578800  0.741100  1
  H  H245  1  0.370900  0.792100  0.074433  1
  H  H246  1  0.421200  0.629100  0.407767  1
  H  H247  1  0.354400  0.629500  0.709200  1
  H  H248  1  0.275100  0.645600  0.042533  1
  H  H249  1  0.370500  0.724900  0.375867  1
  H  H250  1  0.292300  0.542000  0.717000  1
  H  H251  1  0.249700  0.707700  0.050333  1
  H  H252  1  0.458000  0.750300  0.383667  1
  H  H253  1  0.321100  0.565300  0.772300  1
  H  H254  1  0.244200  0.678900  0.105633  1
  H  H255  1  0.434700  0.755800  0.438967  1
  H  H256  1  0.403900  0.601500  0.757500  1
  H  H257  1  0.197600  0.596100  0.090833  1
  H  H258  1  0.398500  0.802400  0.424167  1
  H  H259  1  0.419800  0.719000  0.760500  1
  H  H260  1  0.299200  0.580200  0.093833  1
  H  H261  1  0.281000  0.700800  0.427167  1
  H  H262  1  0.396600  0.679400  0.792300  1
  H  H263  1  0.282800  0.603400  0.125633  1
  H  H264  1  0.320600  0.717200  0.458967  1
  H  H265  1  0.260100  0.646700  0.784200  1
  H  H266  1  0.386600  0.739900  0.117533  1
  H  H267  1  0.353300  0.613400  0.450867  1
  H  H268  1  0.314200  0.737200  0.781900  1
  H  H269  1  0.423000  0.685800  0.115233  1
  H  H270  1  0.262800  0.577000  0.448567  1
  H  H271  1  0.047100  0.393700  0.639600  1
  H  H272  1  0.346600  0.952900  0.972933  1
  H  H273  1  0.606300  0.653400  0.306267  1
  H  H274  1  0.997300  0.352300  0.665200  1
  H  H275  1  0.355000  0.002700  0.998533  1
  H  H276  1  0.647700  0.645000  0.331867  1
  H  H277  1  0.815400  0.283400  0.645700  1
  H  H278  1  0.468000  0.184600  0.979033  1
  H  H279  1  0.716600  0.532000  0.312367  1
  H  H280  1  0.837300  0.283200  0.614400  1
  H  H281  1  0.445900  0.162700  0.947733  1
  H  H282  1  0.716800  0.554100  0.281067  1
  H  H283  1  0.974300  0.297600  0.608400  1
  H  H284  1  0.323300  0.025700  0.941733  1
  H  H285  1  0.702400  0.676700  0.275067  1
  H  H286  1  0.887100  0.243500  0.662900  1
  H  H287  1  0.356400  0.112900  0.996233  1
  H  H288  1  0.756500  0.643600  0.329567  1
  H  H289  1  0.801600  0.139100  0.628500  1
  H  H290  1  0.337500  0.198400  0.961833  1
  H  H291  1  0.860900  0.662500  0.295167  1
  H  H292  1  0.866500  0.178500  0.603800  1
  H  H293  1  0.312000  0.133500  0.937133  1
  H  H294  1  0.821500  0.688000  0.270467  1
  H  H295  1  0.891800  0.121600  0.659000  1
  H  H296  1  0.229800  0.108200  0.992333  1
  H  H297  1  0.878400  0.770200  0.325667  1
  H  H298  1  0.874500  0.075500  0.628400  1
  H  H299  1  0.201000  0.125500  0.961733  1
  H  H300  1  0.924500  0.799000  0.295067  1
  H  H301  1  0.980800  0.178200  0.607300  1
  H  H302  1  0.197400  0.019200  0.940633  1
  H  H303  1  0.821800  0.802600  0.273967  1
  H  H304  1  0.005000  0.147100  0.635200  1
  H  H305  1  0.142100  0.995000  0.968533  1
  H  H306  1  0.852900  0.857900  0.301867  1
  H  H307  1  0.017300  0.254800  0.664500  1
  H  H308  1  0.237500  0.982700  0.997833  1
  H  H309  1  0.745200  0.762500  0.331167  1
  H  H310  1  0.072600  0.286400  0.636100  1
  H  H311  1  0.213800  0.927400  0.969433  1
  H  H312  1  0.713600  0.786200  0.302767  1
  H  H313  1  0.387100  0.415000  0.543800  1
  H  H314  1  0.027900  0.612900  0.877133  1
  H  H315  1  0.585000  0.972100  0.210467  1
  H  H316  1  0.421800  0.398100  0.569600  1
  H  H317  1  0.976300  0.578200  0.902933  1
  H  H318  1  0.601900  0.023700  0.236267  1
  H  H319  1  0.428900  0.555500  0.618300  1
  H  H320  1  0.126600  0.571100  0.951633  1
  H  H321  1  0.444500  0.873400  0.284967  1
  H  H322  1  0.370500  0.547900  0.596400  1
  H  H323  1  0.177400  0.629500  0.929733  1
  H  H324  1  0.452100  0.822600  0.263067  1
  H  H325  1  0.294300  0.418900  0.570500  1
  H  H326  1  0.124600  0.705700  0.903833  1
  H  H327  1  0.581100  0.875400  0.237167  1
  H  H328  1  0.389700  0.434600  0.619600  1
  H  H329  1  0.044900  0.610300  0.952933  1
  H  H330  1  0.565400  0.955100  0.286267  1
  H  H331  1  0.258500  0.458500  0.621100  1
  H  H332  1  0.200000  0.741500  0.954433  1
  H  H333  1  0.541500  0.800000  0.287767  1
  H  H334  1  0.306200  0.458200  0.649300  1
  H  H335  1  0.152000  0.693800  0.982633  1
  H  H336  1  0.541800  0.848000  0.315967  1
  H  H337  1  0.254500  0.322400  0.645800  1
  H  H338  1  0.067900  0.745500  0.979133  1
  H  H339  1  0.677600  0.932100  0.312467  1
  H  H340  1  0.183100  0.336000  0.644300  1
  H  H341  1  0.152900  0.816900  0.977633  1
  H  H342  1  0.664000  0.847100  0.310967  1
  H  H343  1  0.172800  0.317300  0.593800  1
  H  H344  1  0.144500  0.827200  0.927133  1
  H  H345  1  0.682700  0.855500  0.260467  1
  H  H346  1  0.174600  0.246300  0.608500  1
  H  H347  1  0.071700  0.825400  0.941833  1
  H  H348  1  0.753700  0.928300  0.275167  1
  H  H349  1  0.307500  0.297800  0.594400  1
  H  H350  1  0.990300  0.692500  0.927733  1
  H  H351  1  0.702200  0.009700  0.261067  1
  H  H352  1  0.260800  0.294400  0.565200  1
  H  H353  1  0.033600  0.739200  0.898533  1
  H  H354  1  0.705600  0.966400  0.231867  1
  H  H355  1  0.811300  0.019600  0.781900  1
  H  H356  1  0.208300  0.188700  0.115233  1
  H  H357  1  0.980400  0.791700  0.448567  1
  H  H358  1  0.818600  0.949500  0.781400  1
  H  H359  1  0.130900  0.181400  0.114733  1
  H  H360  1  0.050500  0.869100  0.448067  1
  H  H361  1  0.041300  0.067400  0.785000  1
  H  H362  1  0.026100  0.958700  0.118333  1
  H  H363  1  0.932600  0.973900  0.451667  1
  H  H364  1  0.020100  0.124200  0.795700  1
  H  H365  1  0.104100  0.979900  0.129033  1
  H  H366  1  0.875800  0.895900  0.462367  1
  H  H367  1  0.892700  0.074400  0.819100  1
  H  H368  1  0.181700  0.107300  0.152433  1
  H  H369  1  0.925600  0.818300  0.485767  1
  H  H370  1  0.944200  0.969100  0.807700  1
  H  H371  1  0.024900  0.055800  0.141033  1
  H  H372  1  0.030900  0.975100  0.474367  1
  H  H373  1  0.002500  0.099500  0.847800  1
  H  H374  1  0.097000  0.997500  0.181133  1
  H  H375  1  0.900500  0.903000  0.514467  1
  H  H376  1  0.042600  0.048700  0.843200  1
  H  H377  1  0.006100  0.957400  0.176533  1
  H  H378  1  0.951300  0.993900  0.509867  1
  H  H379  1  0.927800  0.936400  0.861200  1
  H  H380  1  0.008600  0.072200  0.194533  1
  H  H381  1  0.063600  0.991400  0.527867  1
  H  H382  1  0.959100  0.001600  0.886000  1
  H  H383  1  0.042500  0.040900  0.219333  1
  H  H384  1  0.998400  0.957500  0.552667  1
  H  H385  1  0.826500  0.951200  0.880100  1
  H  H386  1  0.124700  0.173500  0.213433  1
  H  H387  1  0.048800  0.875300  0.546767  1
  H  H388  1  0.871100  0.039500  0.870700  1
  H  H389  1  0.168400  0.128900  0.204033  1
  H  H390  1  0.960500  0.831600  0.537367  1
  H  H391  1  0.779400  0.970800  0.837100  1
  H  H392  1  0.191400  0.220600  0.170433  1
  H  H393  1  0.029200  0.808600  0.503767  1
  H  H394  1  0.813200  0.914800  0.832300  1
  H  H395  1  0.101600  0.186800  0.165633  1
  H  H396  1  0.085200  0.898400  0.498967  1
  H  H397  1  0.477800  0.979000  0.690200  1
  H  H398  1  0.501200  0.522200  0.023533  1
  H  H399  1  0.021000  0.498800  0.356867  1
  H  H400  1  0.436100  0.894400  0.686200  1
  H  H401  1  0.458300  0.563900  0.019533  1
  H  H402  1  0.105600  0.541700  0.352867  1
  H  H403  1  0.484100  0.843000  0.623600  1
  H  H404  1  0.358900  0.515900  0.956933  1
  H  H405  1  0.157000  0.641100  0.290267  1
  H  H406  1  0.561500  0.912900  0.625400  1
  H  H407  1  0.351400  0.438500  0.958733  1
  H  H408  1  0.087100  0.648600  0.292067  1
  H  H409  1  0.594300  0.982900  0.675100  1
  H  H410  1  0.388600  0.405700  0.008433  1
  H  H411  1  0.017100  0.611400  0.341767  1
  H  H412  1  0.470800  0.835700  0.673900  1
  H  H413  1  0.364900  0.529200  0.007233  1
  H  H414  1  0.164300  0.635100  0.340567  1
  H  H415  1  0.583700  0.804500  0.675600  1
  H  H416  1  0.220800  0.416300  0.008933  1
  H  H417  1  0.195500  0.779200  0.342267  1
  H  H418  1  0.496200  0.756500  0.684600  1
  H  H419  1  0.260300  0.503800  0.017933  1
  H  H420  1  0.243500  0.739700  0.351267  1
  H  H421  1  0.517000  0.795200  0.729900  1
  H  H422  1  0.278200  0.483000  0.063233  1
  H  H423  1  0.204800  0.721800  0.396567  1
  H  H424  1  0.594800  0.796400  0.722500  1
  H  H425  1  0.201600  0.405200  0.055833  1
  H  H426  1  0.203600  0.798400  0.389167  1
  H  H427  1  0.659100  0.931200  0.717100  1
  H  H428  1  0.272100  0.340900  0.050433  1
  H  H429  1  0.068800  0.727900  0.383767  1
  H  H430  1  0.619500  0.908100  0.749000  1
  H  H431  1  0.288600  0.380500  0.082333  1
  H  H432  1  0.091900  0.711400  0.415667  1
  H  H433  1  0.508300  0.910200  0.728900  1
  H  H434  1  0.401900  0.491700  0.062233  1
  H  H435  1  0.089800  0.598100  0.395567  1
  H  H436  1  0.583300  0.993100  0.726800  1
  H  H437  1  0.409800  0.416700  0.060133  1
  H  H438  1  0.006900  0.590200  0.393467  1
  H  H439  1  0.122400  0.371500  0.492800  1
  H  H440  1  0.249100  0.877600  0.826133  1
  H  H441  1  0.628500  0.750900  0.159467  1
  H  H442  1  0.097600  0.373700  0.523500  1
  H  H443  1  0.276100  0.902400  0.856833  1
  H  H444  1  0.626300  0.723900  0.190167  1
  H  H445  1  0.890600  0.235600  0.510100  1
  H  H446  1  0.345000  0.109400  0.843433  1
  H  H447  1  0.764400  0.655000  0.176767  1
  H  H448  1  0.921200  0.219700  0.482900  1
  H  H449  1  0.298500  0.078800  0.816233  1
  H  H450  1  0.780300  0.701500  0.149567  1
  H  H451  1  0.053900  0.240600  0.489300  1
  H  H452  1  0.186700  0.946100  0.822633  1
  H  H453  1  0.759400  0.813300  0.155967  1
  H  H454  1  0.987100  0.247400  0.539100  1
  H  H455  1  0.260300  0.012900  0.872433  1
  H  H456  1  0.752600  0.739700  0.205767  1
  H  H457  1  0.899100  0.118900  0.536400  1
  H  H458  1  0.219800  0.100900  0.869733  1
  H  H459  1  0.881100  0.780200  0.203067  1
  H  H460  1  0.934300  0.109100  0.506200  1
  H  H461  1  0.174800  0.065700  0.839533  1
  H  H462  1  0.890900  0.825200  0.172867  1
  H  H463  1  0.998400  0.130400  0.563600  1
  H  H464  1  0.132000  0.001600  0.896933  1
  H  H465  1  0.869600  0.868000  0.230267  1
  H  H466  1  0.987900  0.067200  0.539900  1
  H  H467  1  0.079300  0.012100  0.873233  1
  H  H468  1  0.932800  0.920700  0.206567  1
  H  H469  1  0.077400  0.146500  0.513900  1
  H  H470  1  0.069100  0.922600  0.847233  1
  H  H471  1  0.853500  0.930900  0.180567  1
  H  H472  1  0.106600  0.159200  0.547100  1
  H  H473  1  0.052600  0.893400  0.880433  1
  H  H474  1  0.840800  0.947400  0.213767  1
  H  H475  1  0.153000  0.269400  0.523800  1
  H  H476  1  0.116400  0.847000  0.857133  1
  H  H477  1  0.730600  0.883600  0.190467  1
  H  H478  1  0.098100  0.264800  0.550100  1
  H  H479  1  0.166700  0.901900  0.883433  1
  H  H480  1  0.735200  0.833300  0.216767  1
  H  H481  1  0.895200  0.759200  0.620700  1
  H  H482  1  0.864000  0.104800  0.954033  1
  H  H483  1  0.240800  0.136000  0.287367  1
  H  H484  1  0.999100  0.835600  0.635300  1
  H  H485  1  0.836500  0.000900  0.968633  1
  H  H486  1  0.164400  0.163500  0.301967  1
  H  H487  1  0.056700  0.775500  0.619800  1
  H  H488  1  0.718800  0.943300  0.953133  1
  H  H489  1  0.224500  0.281200  0.286467  1
  H  H490  1  0.903100  0.652700  0.604500  1
  H  H491  1  0.749600  0.096900  0.937833  1
  H  H492  1  0.347300  0.250400  0.271167  1
  H  H493  1  0.777400  0.826000  0.552300  1
  H  H494  1  0.048600  0.222600  0.885633  1
  H  H495  1  0.174000  0.951400  0.218967  1
  H  H496  1  0.827200  0.955600  0.564300  1
  H  H497  1  0.128400  0.172800  0.897633  1
  H  H498  1  0.044400  0.871600  0.230967  1
  H  H499  1  0.918300  0.010400  0.599900  1
  H  H500  1  0.092100  0.081700  0.933233  1
  H  H501  1  0.989600  0.907900  0.266567  1
  H  H502  1  0.964600  0.910400  0.654200  1
  H  H503  1  0.945800  0.035400  0.987533  1
  H  H504  1  0.089600  0.054200  0.320867  1
  H  H505  1  0.970400  0.991100  0.648300  1
  H  H506  1  0.020700  0.029600  0.981633  1
  H  H507  1  0.008900  0.979300  0.314967  1
  H  H508  1  0.084700  0.090800  0.617300  1
  H  H509  1  0.006100  0.915300  0.950633  1
  H  H510  1  0.909200  0.993900  0.283967  1
  H  H511  1  0.194500  0.124100  0.595000  1
  H  H512  1  0.929600  0.805500  0.928333  1
  H  H513  1  0.875900  0.070400  0.261667  1
  H  H514  1  0.248400  0.049100  0.590000  1
  H  H515  1  0.800700  0.751600  0.923333  1
  H  H516  1  0.950900  0.199300  0.256667  1
  H  H517  1  0.247000  0.928700  0.609500  1
  H  H518  1  0.681700  0.753000  0.942833  1
  H  H519  1  0.071300  0.318300  0.276167  1
  H  H520  1  0.175800  0.869500  0.628900  1
  H  H521  1  0.693700  0.824200  0.962233  1
  H  H522  1  0.130500  0.306300  0.295567  1
  H  H523  1  0.241100  0.923400  0.553200  1
  H  H524  1  0.682300  0.758900  0.886533  1
  H  H525  1  0.076600  0.317700  0.219867  1
  H  H526  1  0.192000  0.836500  0.512800  1
  H  H527  1  0.644500  0.808000  0.846133  1
  H  H528  1  0.163500  0.355500  0.179467  1
  H  H529  1  0.085600  0.723700  0.517100  1
  H  H530  1  0.638100  0.914400  0.850433  1
  H  H531  1  0.276300  0.361900  0.183767  1
  H  H532  1  0.984600  0.632400  0.581300  1
  H  H533  1  0.647800  0.015400  0.914633  1
  H  H534  1  0.367600  0.352200  0.247967  1
  H  H535  1  0.001800  0.618400  0.548000  1
  H  H536  1  0.616600  0.998200  0.881333  1
  H  H537  1  0.381600  0.383400  0.214667  1
  H  H538  1  0.934800  0.638000  0.509200  1
  H  H539  1  0.703200  0.065200  0.842533  1
  H  H540  1  0.362000  0.296800  0.175867  1
  H  H541  1  0.839300  0.664800  0.489400  1
  H  H542  1  0.825500  0.160700  0.822733  1
  H  H543  1  0.335200  0.174500  0.156067  1
  H  H544  1  0.776900  0.703200  0.521900  1
  H  H545  1  0.926300  0.223100  0.855233  1
  H  H546  1  0.296800  0.073700  0.188567  1
  H  H547  1  0.768800  0.686800  0.597500  1
  H  H548  1  0.918000  0.231200  0.930833  1
  H  H549  1  0.313200  0.082000  0.264167  1
  H  H550  1  0.732000  0.704300  0.569500  1
  H  H551  1  0.972300  0.268000  0.902833  1
  H  H552  1  0.295700  0.027700  0.236167  1
  Pd  Pd553  1  0.687670  0.461590  0.674380  1
  Pd  Pd554  1  0.773920  0.312330  0.007713  1
  Pd  Pd555  1  0.538410  0.226080  0.341047  1
  Pd  Pd556  1  0.899400  0.705260  0.750850  1
  Pd  Pd557  1  0.805860  0.100600  0.084183  1
  Pd  Pd558  1  0.294740  0.194140  0.417517  1
  Pd  Pd559  1  0.152680  0.664860  0.704100  1
  Pd  Pd560  1  0.512180  0.847320  0.037433  1
  Pd  Pd561  1  0.335140  0.487820  0.370767  1
  Pd  Pd562  1  0.930140  0.405670  0.635910  1
  Pd  Pd563  1  0.475530  0.069860  0.969243  1
  Pd  Pd564  1  0.594330  0.524470  0.302577  1
  Pd  Pd565  1  0.472870  0.538740  0.568760  1
  Pd  Pd566  1  0.065870  0.527130  0.902093  1
  Pd  Pd567  1  0.461260  0.934130  0.235427  1
  Pd  Pd568  1  0.934380  0.054100  0.753840  1
  Pd  Pd569  1  0.119720  0.065620  0.087173  1
  Pd  Pd570  1  0.945900  0.880280  0.420507  1
  Pd  Pd571  1  0.465110  0.951800  0.640560  1
  Pd  Pd572  1  0.486690  0.534890  0.973893  1
  Pd  Pd573  1  0.048200  0.513310  0.307227  1
  Pd  Pd574  1  0.994320  0.369490  0.489070  1
  Pd  Pd575  1  0.375170  0.005680  0.822403  1
  Pd  Pd576  1  0.630510  0.624830  0.155737  1
  C  C577  1  0.797300  0.603600  0.704600  1
  C  C578  1  0.806300  0.202700  0.037933  1
  C  C579  1  0.396400  0.193700  0.371267  1
  C  C580  1  0.733900  0.626000  0.668700  1
  C  C581  1  0.892100  0.266100  0.002033  1
  C  C582  1  0.374000  0.107900  0.335367  1
  C  C583  1  0.766300  0.701500  0.676600  1
  C  C584  1  0.935200  0.233700  0.009933  1
  C  C585  1  0.298500  0.064800  0.343267  1
  C  C586  1  0.817100  0.725200  0.701100  1
  C  C587  1  0.908100  0.182900  0.034433  1
  C  C588  1  0.274800  0.091900  0.367767  1
  C  C589  1  0.748100  0.758200  0.663900  1
  C  C590  1  0.010100  0.251900  0.997233  1
  C  C591  1  0.241800  0.989900  0.330567  1
  C  C592  1  0.687700  0.786000  0.628900  1
  C  C593  1  0.098300  0.312300  0.962233  1
  C  C594  1  0.214000  0.901700  0.295567  1
  C  C595  1  0.718700  0.859100  0.638300  1
  C  C596  1  0.140400  0.281300  0.971633  1
  C  C597  1  0.140900  0.859600  0.304967  1
  C  C598  1  0.762500  0.878200  0.664600  1
  C  C599  1  0.115700  0.237500  0.997933  1
  C  C600  1  0.121800  0.884300  0.331267  1
  C  C601  1  0.590600  0.680700  0.596500  1
  C  C602  1  0.090100  0.409400  0.929833  1
  C  C603  1  0.319300  0.909900  0.263167  1
  C  C604  1  0.634600  0.762500  0.601900  1
  C  C605  1  0.127900  0.365400  0.935233  1
  C  C606  1  0.237500  0.872100  0.268567  1
  C  C607  1  0.621100  0.809100  0.585900  1
  C  C608  1  0.188000  0.378900  0.919233  1
  C  C609  1  0.190900  0.812000  0.252567  1
  C  C610  1  0.564600  0.775500  0.563900  1
  C  C611  1  0.210900  0.435400  0.897233  1
  C  C612  1  0.224500  0.789100  0.230567  1
  C  C613  1  0.530500  0.704800  0.561500  1
  C  C614  1  0.174300  0.469500  0.894833  1
  C  C615  1  0.295200  0.825700  0.228167  1
  C  C616  1  0.838700  0.966700  0.704300  1
  C  C617  1  0.128000  0.161300  0.037633  1
  C  C618  1  0.033300  0.872000  0.370967  1
  C  C619  1  0.783300  0.946700  0.680700  1
  C  C620  1  0.163400  0.216700  0.014033  1
  C  C621  1  0.053300  0.836600  0.347367  1
  C  C622  1  0.756100  0.996600  0.673900  1
  C  C623  1  0.240500  0.243900  0.007233  1
  C  C624  1  0.003400  0.759500  0.340567  1
  C  C625  1  0.785300  0.064700  0.692600  1
  C  C626  1  0.279400  0.214700  0.025933  1
  C  C627  1  0.935300  0.720600  0.359267  1
  C  C628  1  0.836300  0.078600  0.714600  1
  C  C629  1  0.242300  0.163700  0.047933  1
  C  C630  1  0.921400  0.757700  0.381267  1
  C  C631  1  0.032900  0.705700  0.723000  1
  C  C632  1  0.672800  0.967100  0.056333  1
  C  C633  1  0.294300  0.327200  0.389667  1
  C  C634  1  0.037700  0.818100  0.718300  1
  C  C635  1  0.780400  0.962300  0.051633  1
  C  C636  1  0.181900  0.219600  0.384967  1
  C  C637  1  0.108600  0.849300  0.703800  1
  C  C638  1  0.740700  0.891400  0.037133  1
  C  C639  1  0.150700  0.259300  0.370467  1
  C  C640  1  0.133400  0.801900  0.700300  1
  C  C641  1  0.668500  0.866600  0.033633  1
  C  C642  1  0.198100  0.331500  0.366967  1
  C  C643  1  0.146600  0.929200  0.695400  1
  C  C644  1  0.782600  0.853400  0.028733  1
  C  C645  1  0.070800  0.217400  0.362067  1
  C  C646  1  0.155800  0.044700  0.692900  1
  C  C647  1  0.888900  0.844200  0.026233  1
  C  C648  1  0.955300  0.111100  0.359567  1
  C  C649  1  0.227700  0.077400  0.677500  1
  C  C650  1  0.849700  0.772300  0.010833  1
  C  C651  1  0.922600  0.150300  0.344167  1
  C  C652  1  0.252000  0.027400  0.672900  1
  C  C653  1  0.775400  0.748000  0.006233  1
  C  C654  1  0.972600  0.224600  0.339567  1
  C  C655  1  0.057200  0.060400  0.717100  1
  C  C656  1  0.003200  0.942800  0.050433  1
  C  C657  1  0.939600  0.996800  0.383767  1
  C  C658  1  0.124600  0.093300  0.700000  1
  C  C659  1  0.968700  0.875400  0.033333  1
  C  C660  1  0.906700  0.031300  0.366667  1
  C  C661  1  0.148300  0.168300  0.691200  1
  C  C662  1  0.020000  0.851700  0.024533  1
  C  C663  1  0.831700  0.980000  0.357867  1
  C  C664  1  0.112600  0.203300  0.700000  1
  C  C665  1  0.090700  0.887400  0.033333  1
  C  C666  1  0.796700  0.909300  0.366667  1
  C  C667  1  0.054200  0.173800  0.715500  1
  C  C668  1  0.119600  0.945800  0.048833  1
  C  C669  1  0.826200  0.880400  0.382167  1
  C  C670  1  0.358900  0.008400  0.656100  1
  C  C671  1  0.649500  0.641100  0.989433  1
  C  C672  1  0.991600  0.350500  0.322767  1
  C  C673  1  0.323400  0.052500  0.654900  1
  C  C674  1  0.729100  0.676600  0.988233  1
  C  C675  1  0.947500  0.270900  0.321567  1
  C  C676  1  0.359200  0.120900  0.638300  1
  C  C677  1  0.761700  0.640800  0.971633  1
  C  C678  1  0.879100  0.238300  0.304967  1
  C  C679  1  0.424400  0.140000  0.622300  1
  C  C680  1  0.715600  0.575600  0.955633  1
  C  C681  1  0.860000  0.284400  0.288967  1
  C  C682  1  0.454600  0.091900  0.625500  1
  C  C683  1  0.637300  0.545400  0.958833  1
  C  C684  1  0.908100  0.362700  0.292167  1
  C  C685  1  0.040800  0.550900  0.662300  1
  C  C686  1  0.510100  0.959200  0.995633  1
  C  C687  1  0.449100  0.489900  0.328967  1
  C  C688  1  0.143700  0.652400  0.638800  1
  C  C689  1  0.508700  0.856300  0.972133  1
  C  C690  1  0.347600  0.491300  0.305467  1
  C  C691  1  0.118100  0.616600  0.612200  1
  C  C692  1  0.498500  0.881900  0.945533  1
  C  C693  1  0.383400  0.501500  0.278867  1
  C  C694  1  0.056400  0.547100  0.611700  1
  C  C695  1  0.490700  0.943600  0.945033  1
  C  C696  1  0.452900  0.509300  0.278367  1
  C  C697  1  0.162300  0.648300  0.583300  1
  C  C698  1  0.486000  0.837700  0.916633  1
  C  C699  1  0.351700  0.514000  0.249967  1
  C  C700  1  0.269700  0.748300  0.561500  1
  C  C701  1  0.478600  0.730300  0.894833  1
  C  C702  1  0.251700  0.521400  0.228167  1
  C  C703  1  0.250700  0.714700  0.537800  1
  C  C704  1  0.464000  0.749300  0.871133  1
  C  C705  1  0.285300  0.536000  0.204467  1
  C  C706  1  0.179300  0.645600  0.534200  1
  C  C707  1  0.466300  0.820700  0.867533  1
  C  C708  1  0.354400  0.533700  0.200867  1
  C  C709  1  0.367000  0.849300  0.594700  1
  C  C710  1  0.482300  0.633000  0.928033  1
  C  C711  1  0.150700  0.517700  0.261367  1
  C  C712  1  0.336700  0.814700  0.568900  1
  C  C713  1  0.478000  0.663300  0.902233  1
  C  C714  1  0.185300  0.522000  0.235567  1
  C  C715  1  0.373700  0.874000  0.543700  1
  C  C716  1  0.500300  0.626300  0.877033  1
  C  C717  1  0.126000  0.499700  0.210367  1
  C  C718  1  0.429700  0.948700  0.546600  1
  C  C719  1  0.519000  0.570300  0.879933  1
  C  C720  1  0.051300  0.481000  0.213267  1
  C  C721  1  0.468000  0.973000  0.574100  1
  C  C722  1  0.505000  0.532000  0.907433  1
  C  C723  1  0.027000  0.495000  0.240767  1
  C  C724  1  0.097600  0.524200  0.507700  1
  C  C725  1  0.426600  0.902400  0.841033  1
  C  C726  1  0.475800  0.573400  0.174367  1
  C  C727  1  0.150000  0.602400  0.509000  1
  C  C728  1  0.452400  0.850000  0.842333  1
  C  C729  1  0.397600  0.547600  0.175667  1
  C  C730  1  0.167300  0.632000  0.479900  1
  C  C731  1  0.464700  0.832700  0.813233  1
  C  C732  1  0.368000  0.535300  0.146567  1
  C  C733  1  0.140000  0.590000  0.453100  1
  C  C734  1  0.450000  0.860000  0.786433  1
  C  C735  1  0.410000  0.550000  0.119767  1
  C  C736  1  0.093400  0.511400  0.459600  1
  C  C737  1  0.418000  0.906600  0.792933  1
  C  C738  1  0.488600  0.582000  0.126267  1
  C  C739  1  0.811500  0.448200  0.645500  1
  C  C740  1  0.636700  0.188500  0.978833  1
  C  C741  1  0.551800  0.363300  0.312167  1
  C  C742  1  0.837700  0.445200  0.599300  1
  C  C743  1  0.607500  0.162300  0.932633  1
  C  C744  1  0.554800  0.392500  0.265967  1
  C  C745  1  0.784300  0.465500  0.589100  1
  C  C746  1  0.681200  0.215700  0.922433  1
  C  C747  1  0.534500  0.318800  0.255767  1
  C  C748  1  0.744500  0.472900  0.613900  1
  C  C749  1  0.728400  0.255500  0.947233  1
  C  C750  1  0.527100  0.271600  0.280567  1
  C  C751  1  0.766500  0.470700  0.560000  1
  C  C752  1  0.704200  0.233500  0.893333  1
  C  C753  1  0.529300  0.295800  0.226667  1
  C  C754  1  0.781600  0.454300  0.511300  1
  C  C755  1  0.672700  0.218400  0.844633  1
  C  C756  1  0.545700  0.327300  0.177967  1
  C  C757  1  0.735500  0.477100  0.502800  1
  C  C758  1  0.741600  0.264500  0.836133  1
  C  C759  1  0.522900  0.258400  0.169467  1
  C  C760  1  0.700100  0.490200  0.527100  1
  C  C761  1  0.790100  0.299900  0.860433  1
  C  C762  1  0.509800  0.209900  0.193767  1
  C  C763  1  0.876800  0.413600  0.494700  1
  C  C764  1  0.536800  0.123200  0.828033  1
  C  C765  1  0.586400  0.463200  0.161367  1
  C  C766  1  0.823700  0.438100  0.489600  1
  C  C767  1  0.614400  0.176300  0.822933  1
  C  C768  1  0.561900  0.385600  0.156267  1
  C  C769  1  0.815000  0.440000  0.456700  1
  C  C770  1  0.625000  0.185000  0.790033  1
  C  C771  1  0.560000  0.375000  0.123367  1
  C  C772  1  0.851000  0.411500  0.437800  1
  C  C773  1  0.560500  0.149000  0.771133  1
  C  C774  1  0.588500  0.439500  0.104467  1
  C  C775  1  0.908000  0.399000  0.447800  1
  C  C776  1  0.491000  0.092000  0.781133  1
  C  C777  1  0.601000  0.509000  0.114467  1
  C  C778  1  0.592900  0.521400  0.541000  1
  C  C779  1  0.928500  0.407100  0.874333  1
  C  C780  1  0.478600  0.071500  0.207667  1
  C  C781  1  0.642000  0.518200  0.517900  1
  C  C782  1  0.876200  0.358000  0.851233  1
  C  C783  1  0.481800  0.123800  0.184567  1
  C  C784  1  0.637200  0.545100  0.489900  1
  C  C785  1  0.907900  0.362800  0.823233  1
  C  C786  1  0.454900  0.092100  0.156567  1
  C  C787  1  0.586900  0.569900  0.489200  1
  C  C788  1  0.983000  0.413100  0.822533  1
  C  C789  1  0.430100  0.017000  0.155867  1
  C  C790  1  0.535000  0.568600  0.510000  1
  C  C791  1  0.033600  0.465000  0.843333  1
  C  C792  1  0.431400  0.966400  0.176667  1
  C  C793  1  0.557000  0.313600  0.687600  1
  C  C794  1  0.756600  0.443000  0.020933  1
  C  C795  1  0.686400  0.243400  0.354267  1
  C  C796  1  0.578000  0.365100  0.716800  1
  C  C797  1  0.787100  0.422000  0.050133  1
  C  C798  1  0.634900  0.212900  0.383467  1
  C  C799  1  0.501200  0.344600  0.735500  1
  C  C800  1  0.843400  0.498800  0.068833  1
  C  C801  1  0.655400  0.156600  0.402167  1
  C  C802  1  0.457100  0.257400  0.741100  1
  C  C803  1  0.800300  0.542900  0.074433  1
  C  C804  1  0.742600  0.199700  0.407767  1
  C  C805  1  0.451400  0.209600  0.713800  1
  C  C806  1  0.758200  0.548600  0.047133  1
  C  C807  1  0.790400  0.241800  0.380467  1
  C  C808  1  0.524400  0.233500  0.695900  1
  C  C809  1  0.709100  0.475600  0.029233  1
  C  C810  1  0.766500  0.290900  0.362567  1
  C  C811  1  0.829300  0.703000  0.806400  1
  C  C812  1  0.873700  0.170700  0.139733  1
  C  C813  1  0.297000  0.126300  0.473067  1
  C  C814  1  0.903500  0.701500  0.813100  1
  C  C815  1  0.798000  0.096500  0.146433  1
  C  C816  1  0.298500  0.202000  0.479767  1
  C  C817  1  0.924000  0.735000  0.844000  1
  C  C818  1  0.811000  0.076000  0.177333  1
  C  C819  1  0.265000  0.189000  0.510667  1
  C  C820  1  0.861900  0.686900  0.867600  1
  C  C821  1  0.825000  0.138100  0.200933  1
  C  C822  1  0.313100  0.175000  0.534267  1
  C  C823  1  0.797000  0.697000  0.858600  1
  C  C824  1  0.900000  0.203000  0.191933  1
  C  C825  1  0.303000  0.100000  0.525267  1
  C  C826  1  0.763600  0.663600  0.829800  1
  C  C827  1  0.900000  0.236400  0.163133  1
  C  C828  1  0.336400  0.100000  0.496467  1
  C  C829  1  0.269300  0.687300  0.743400  1
  C  C830  1  0.418000  0.730700  0.076733  1
  C  C831  1  0.312700  0.582000  0.410067  1
  C  C832  1  0.250600  0.620900  0.729700  1
  C  C833  1  0.370300  0.749400  0.063033  1
  C  C834  1  0.379100  0.629700  0.396367  1
  C  C835  1  0.316100  0.595700  0.723800  1
  C  C836  1  0.279600  0.683900  0.057133  1
  C  C837  1  0.404300  0.720400  0.390467  1
  C  C838  1  0.358000  0.607000  0.759300  1
  C  C839  1  0.249000  0.642000  0.092633  1
  C  C840  1  0.393000  0.751000  0.425967  1
  C  C841  1  0.378200  0.677300  0.772000  1
  C  C842  1  0.299100  0.621800  0.105333  1
  C  C843  1  0.322700  0.700900  0.438667  1
  C  C844  1  0.300400  0.688100  0.772200  1
  C  C845  1  0.387700  0.699600  0.105533  1
  C  C846  1  0.311900  0.612300  0.438867  1
  C  C847  1  0.970200  0.291100  0.630200  1
  C  C848  1  0.320900  0.029800  0.963533  1
  C  C849  1  0.708900  0.679100  0.296867  1
  C  C850  1  0.888400  0.250100  0.641000  1
  C  C851  1  0.361700  0.111600  0.974333  1
  C  C852  1  0.749900  0.638300  0.307667  1
  C  C853  1  0.857000  0.170000  0.625300  1
  C  C854  1  0.313000  0.143000  0.958633  1
  C  C855  1  0.830000  0.687000  0.291967  1
  C  C856  1  0.897000  0.127000  0.637300  1
  C  C857  1  0.230000  0.103000  0.970633  1
  C  C858  1  0.873000  0.770000  0.303967  1
  C  C859  1  0.977400  0.173400  0.629000  1
  C  C860  1  0.196000  0.022600  0.962333  1
  C  C861  1  0.826600  0.804000  0.295667  1
  C  C862  1  0.018800  0.256700  0.642700  1
  C  C863  1  0.237900  0.981200  0.976033  1
  C  C864  1  0.743300  0.762100  0.309367  1
  C  C865  1  0.325200  0.400800  0.581400  1
  C  C866  1  0.075600  0.674800  0.914733  1
  C  C867  1  0.599200  0.924400  0.248067  1
  C  C868  1  0.356700  0.450500  0.608800  1
  C  C869  1  0.093800  0.643300  0.942133  1
  C  C870  1  0.549500  0.906200  0.275467  1
  C  C871  1  0.286600  0.434700  0.629800  1
  C  C872  1  0.148100  0.713400  0.963133  1
  C  C873  1  0.565300  0.851900  0.296467  1
  C  C874  1  0.229200  0.344100  0.633600  1
  C  C875  1  0.114900  0.770800  0.966933  1
  C  C876  1  0.655900  0.885100  0.300267  1
  C  C877  1  0.205300  0.301800  0.604700  1
  C  C878  1  0.096500  0.794700  0.938033  1
  C  C879  1  0.698200  0.903500  0.271367  1
  C  C880  1  0.278000  0.318900  0.584800  1
  C  C881  1  0.040900  0.722000  0.918133  1
  C  C882  1  0.681100  0.959100  0.251467  1
  C  C883  1  0.881100  0.021500  0.814200  1
  C  C884  1  0.140400  0.118900  0.147533  1
  C  C885  1  0.978500  0.859600  0.480867  1
  C  C886  1  0.954000  0.021600  0.812300  1
  C  C887  1  0.067600  0.046000  0.145633  1
  C  C888  1  0.978400  0.932400  0.478967  1
  C  C889  1  0.993100  0.047700  0.843100  1
  C  C890  1  0.054600  0.006900  0.176433  1
  C  C891  1  0.952300  0.945400  0.509767  1
  C  C892  1  0.936700  0.988000  0.866000  1
  C  C893  1  0.051300  0.063300  0.199333  1
  C  C894  1  0.012000  0.948700  0.532667  1
  C  C895  1  0.861800  0.988000  0.865300  1
  C  C896  1  0.126200  0.138200  0.198633  1
  C  C897  1  0.012000  0.873800  0.531967  1
  C  C898  1  0.826800  0.967800  0.837000  1
  C  C899  1  0.141000  0.173200  0.170333  1
  C  C900  1  0.032200  0.859000  0.503667  1
  C  C901  1  0.550000  0.939000  0.684800  1
  C  C902  1  0.389000  0.450000  0.018133  1
  C  C903  1  0.061000  0.611000  0.351467  1
  C  C904  1  0.526000  0.860700  0.668500  1
  C  C905  1  0.334700  0.474000  0.001833  1
  C  C906  1  0.139300  0.665300  0.335167  1
  C  C907  1  0.542000  0.807000  0.686000  1
  C  C908  1  0.265000  0.458000  0.019333  1
  C  C909  1  0.193000  0.735000  0.352667  1
  C  C910  1  0.564000  0.821000  0.717900  1
  C  C911  1  0.257000  0.436000  0.051233  1
  C  C912  1  0.179000  0.743000  0.384567  1
  C  C913  1  0.610000  0.905000  0.727600  1
  C  C914  1  0.295000  0.390000  0.060933  1
  C  C915  1  0.095000  0.705000  0.394267  1
  C  C916  1  0.559000  0.940000  0.719500  1
  C  C917  1  0.381000  0.441000  0.052833  1
  C  C918  1  0.060000  0.619000  0.386167  1
  C  C919  1  0.053000  0.262200  0.509000  1
  C  C920  1  0.209200  0.947000  0.842333  1
  C  C921  1  0.737800  0.790800  0.175667  1
  C  C922  1  0.984000  0.224000  0.519300  1
  C  C923  1  0.240000  0.016000  0.852633  1
  C  C924  1  0.776000  0.760000  0.185967  1
  C  C925  1  0.947000  0.137000  0.525100  1
  C  C926  1  0.190000  0.053000  0.858433  1
  C  C927  1  0.863000  0.810000  0.191767  1
  C  C928  1  0.002000  0.121000  0.542400  1
  C  C929  1  0.119000  0.998000  0.875733  1
  C  C930  1  0.879000  0.881000  0.209067  1
  C  C931  1  0.072300  0.165700  0.533300  1
  C  C932  1  0.093400  0.927700  0.866633  1
  C  C933  1  0.834300  0.906600  0.199967  1
  C  C934  1  0.099000  0.244000  0.530500  1
  C  C935  1  0.145000  0.901000  0.863833  1
  C  C936  1  0.756000  0.855000  0.197167  1
  C  C937  1  0.879400  0.837500  0.610700  1
  C  C938  1  0.958100  0.120600  0.944033  1
  C  C939  1  0.162500  0.041900  0.277367  1
  C  C940  1  0.825300  0.802400  0.586500  1
  C  C941  1  0.977100  0.174700  0.919833  1
  C  C942  1  0.197600  0.022900  0.253167  1
  C  C943  1  0.809900  0.847300  0.568900  1
  C  C944  1  0.037400  0.190100  0.902233  1
  C  C945  1  0.152700  0.962600  0.235567  1
  C  C946  1  0.841900  0.925100  0.575300  1
  C  C947  1  0.083200  0.158100  0.908633  1
  C  C948  1  0.074900  0.916800  0.241967  1
  C  C949  1  0.893400  0.956600  0.597100  1
  C  C950  1  0.063200  0.106600  0.930433  1
  C  C951  1  0.043400  0.936800  0.263767  1
  C  C952  1  0.912100  0.912700  0.616100  1
  C  C953  1  0.000600  0.087900  0.949433  1
  C  C954  1  0.087300  0.999400  0.282767  1
  C  C955  1  0.973500  0.948600  0.638800  1
  C  C956  1  0.975100  0.026500  0.972133  1
  C  C957  1  0.051400  0.024900  0.305467  1
  C  C958  1  0.081900  0.932000  0.624400  1
  C  C959  1  0.850100  0.918100  0.957733  1
  C  C960  1  0.068000  0.149900  0.291067  1
  C  C961  1  0.052400  0.978900  0.626500  1
  C  C962  1  0.926500  0.947600  0.959833  1
  C  C963  1  0.021100  0.073500  0.293167  1
  C  C964  1  0.100500  0.054000  0.615500  1
  C  C965  1  0.953500  0.899500  0.948833  1
  C  C966  1  0.946000  0.046500  0.282167  1
  C  C967  1  0.167200  0.073800  0.602700  1
  C  C968  1  0.906600  0.832800  0.936033  1
  C  C969  1  0.926200  0.093400  0.269367  1
  C  C970  1  0.200600  0.030600  0.599500  1
  C  C971  1  0.830000  0.799400  0.932833  1
  C  C972  1  0.969400  0.170000  0.266167  1
  C  C973  1  0.159800  0.956600  0.611200  1
  C  C974  1  0.796800  0.840200  0.944533  1
  C  C975  1  0.043400  0.203200  0.277867  1
  C  C976  1  0.190500  0.899500  0.610400  1
  C  C977  1  0.709000  0.809500  0.943733  1
  C  C978  1  0.100500  0.291000  0.277067  1
  C  C979  1  0.097200  0.775100  0.584600  1
  C  C980  1  0.677900  0.902800  0.917933  1
  C  C981  1  0.224900  0.322100  0.251267  1
  C  C982  1  0.160800  0.845900  0.584800  1
  C  C983  1  0.685100  0.839200  0.918133  1
  C  C984  1  0.154100  0.314900  0.251467  1
  C  C985  1  0.198300  0.873700  0.555600  1
  C  C986  1  0.675400  0.801700  0.888933  1
  C  C987  1  0.126300  0.324600  0.222267  1
  C  C988  1  0.167000  0.822200  0.531400  1
  C  C989  1  0.655200  0.833000  0.864733  1
  C  C990  1  0.177800  0.344800  0.198067  1
  C  C991  1  0.104600  0.755500  0.534000  1
  C  C992  1  0.650900  0.895400  0.867333  1
  C  C993  1  0.244500  0.349100  0.200667  1
  C  C994  1  0.063900  0.728500  0.561000  1
  C  C995  1  0.664600  0.936100  0.894333  1
  C  C996  1  0.271500  0.335400  0.227667  1
  C  C997  1  0.995000  0.653800  0.561100  1
  C  C998  1  0.658800  0.005000  0.894433  1
  C  C999  1  0.346200  0.341200  0.227767  1
  C  C1000  1  0.876000  0.677500  0.570500  1
  C  C1001  1  0.801500  0.124000  0.903833  1
  C  C1002  1  0.322500  0.198500  0.237167  1
  C  C1003  1  0.929200  0.662400  0.550500  1
  C  C1004  1  0.733200  0.070800  0.883833  1
  C  C1005  1  0.337600  0.266800  0.217167  1
  C  C1006  1  0.909300  0.654400  0.522300  1
  C  C1007  1  0.745100  0.090700  0.855633  1
  C  C1008  1  0.345600  0.254900  0.188967  1
  C  C1009  1  0.850300  0.669300  0.509900  1
  C  C1010  1  0.819000  0.149700  0.843233  1
  C  C1011  1  0.330700  0.181000  0.176567  1
  C  C1012  1  0.812500  0.689800  0.529500  1
  C  C1013  1  0.877300  0.187500  0.862833  1
  C  C1014  1  0.310200  0.122700  0.196167  1
  C  C1015  1  0.822900  0.692400  0.559300  1
  C  C1016  1  0.869500  0.177100  0.892633  1
  C  C1017  1  0.307600  0.130500  0.225967  1
  C  C1018  1  0.781000  0.716600  0.579000  1
  C  C1019  1  0.935600  0.219000  0.912333  1
  C  C1020  1  0.283400  0.064400  0.245667  1
  N  N1021  1  0.750700  0.578400  0.682700  1
  N  N1022  1  0.827700  0.249300  0.016033  1
  N  N1023  1  0.421600  0.172300  0.349367  1
  N  N1024  1  0.835000  0.675100  0.714500  1
  N  N1025  1  0.840100  0.165000  0.047833  1
  N  N1026  1  0.324900  0.159900  0.381167  1
  N  N1027  1  0.703200  0.734200  0.639800  1
  N  N1028  1  0.031000  0.296800  0.973133  1
  N  N1029  1  0.265800  0.969000  0.306467  1
  N  N1030  1  0.783200  0.827700  0.676300  1
  N  N1031  1  0.044500  0.216800  0.009633  1
  N  N1032  1  0.172300  0.955500  0.342967  1
  N  N1033  1  0.540400  0.657400  0.576600  1
  N  N1034  1  0.117000  0.459600  0.909933  1
  N  N1035  1  0.342600  0.883000  0.243267  1
  N  N1036  1  0.861200  0.032100  0.720500  1
  N  N1037  1  0.170900  0.138800  0.053833  1
  N  N1038  1  0.967900  0.829100  0.387167  1
  N  N1039  1  0.998800  0.746800  0.726900  1
  N  N1040  1  0.748000  0.001200  0.060233  1
  N  N1041  1  0.253200  0.252000  0.393567  1
  N  N1042  1  0.098100  0.728300  0.710000  1
  N  N1043  1  0.630200  0.901900  0.043333  1
  N  N1044  1  0.271700  0.369800  0.376667  1
  N  N1045  1  0.114800  0.967900  0.700500  1
  N  N1046  1  0.853100  0.885200  0.033833  1
  N  N1047  1  0.032100  0.146900  0.367167  1
  N  N1048  1  0.217300  0.952500  0.680300  1
  N  N1049  1  0.735200  0.782700  0.013633  1
  N  N1050  1  0.047500  0.264800  0.346967  1
  N  N1051  1  0.022100  0.101900  0.726000  1
  N  N1052  1  0.079800  0.977900  0.059333  1
  N  N1053  1  0.898100  0.920200  0.392667  1
  N  N1054  1  0.425800  0.027700  0.641400  1
  N  N1055  1  0.601900  0.574200  0.974733  1
  N  N1056  1  0.972300  0.398100  0.308067  1
  N  N1057  1  0.112400  0.629500  0.663000  1
  N  N1058  1  0.517100  0.887600  0.996333  1
  N  N1059  1  0.370500  0.482900  0.329667  1
  N  N1060  1  0.020500  0.515000  0.637600  1
  N  N1061  1  0.494500  0.979500  0.970933  1
  N  N1062  1  0.485000  0.505500  0.304267  1
  N  N1063  1  0.231600  0.720300  0.587500  1
  N  N1064  1  0.488700  0.768400  0.920833  1
  N  N1065  1  0.279700  0.511300  0.254167  1
  N  N1066  1  0.141400  0.613700  0.560500  1
  N  N1067  1  0.472300  0.858600  0.893833  1
  N  N1068  1  0.386300  0.527700  0.227167  1
  N  N1069  1  0.426600  0.921600  0.599500  1
  N  N1070  1  0.495000  0.573400  0.932833  1
  N  N1071  1  0.078400  0.505000  0.266167  1
  N  N1072  1  0.065900  0.476300  0.485700  1
  N  N1073  1  0.410400  0.934100  0.819033  1
  N  N1074  1  0.523700  0.589600  0.152367  1
  N  N1075  1  0.851200  0.437900  0.626600  1
  N  N1076  1  0.586700  0.148800  0.959933  1
  N  N1077  1  0.562100  0.413300  0.293267  1
  N  N1078  1  0.757700  0.464300  0.640000  1
  N  N1079  1  0.706600  0.242300  0.973333  1
  N  N1080  1  0.535700  0.293400  0.306667  1
  N  N1081  1  0.799200  0.449600  0.539600  1
  N  N1082  1  0.650400  0.200800  0.872933  1
  N  N1083  1  0.550400  0.349600  0.206267  1
  N  N1084  1  0.712200  0.493700  0.552700  1
  N  N1085  1  0.781500  0.287800  0.886033  1
  N  N1086  1  0.506300  0.218500  0.219367  1
  N  N1087  1  0.916000  0.393000  0.477500  1
  N  N1088  1  0.477000  0.084000  0.810833  1
  N  N1089  1  0.607000  0.523000  0.144167  1
  N  N1090  1  0.538200  0.542900  0.536400  1
  N  N1091  1  0.004700  0.461800  0.869733  1
  N  N1092  1  0.457100  0.995300  0.203067  1
  N  N1093  1  0.628300  0.348300  0.670900  1
  N  N1094  1  0.720000  0.371700  0.004233  1
  N  N1095  1  0.651700  0.280000  0.337567  1
  N  N1096  1  0.612800  0.446500  0.705900  1
  N  N1097  1  0.833700  0.387200  0.039233  1
  N  N1098  1  0.553500  0.166300  0.372567  1
  N  N1099  1  0.807800  0.672600  0.776500  1
  N  N1100  1  0.864800  0.192200  0.109833  1
  N  N1101  1  0.327400  0.135200  0.443167  1
  N  N1102  1  0.966700  0.741500  0.788900  1
  N  N1103  1  0.774800  0.033300  0.122233  1
  N  N1104  1  0.258500  0.225200  0.455567  1
  N  N1105  1  0.210000  0.710200  0.741100  1
  N  N1106  1  0.500200  0.790000  0.074433  1
  N  N1107  1  0.289800  0.499800  0.407767  1
  N  N1108  1  0.221200  0.618200  0.697000  1
  N  N1109  1  0.397000  0.778800  0.030333  1
  N  N1110  1  0.381800  0.603000  0.363667  1
  N  N1111  1  0.997600  0.360300  0.645300  1
  N  N1112  1  0.362700  0.002400  0.978633  1
  N  N1113  1  0.639700  0.637300  0.311967  1
  N  N1114  1  0.855900  0.295000  0.633300  1
  N  N1115  1  0.439100  0.144100  0.966633  1
  N  N1116  1  0.705000  0.560900  0.299967  1
  N  N1117  1  0.399100  0.425400  0.563400  1
  N  N1118  1  0.026300  0.600900  0.896733  1
  N  N1119  1  0.574600  0.973700  0.230067  1
  N  N1120  1  0.401300  0.528800  0.602100  1
  N  N1121  1  0.127500  0.598700  0.935433  1
  N  N1122  1  0.471200  0.872500  0.268767  1
  N  N1123  1  0.844800  0.001600  0.784100  1
  N  N1124  1  0.156800  0.155200  0.117433  1
  N  N1125  1  0.998400  0.843200  0.450767  1
  N  N1126  1  0.001000  0.074600  0.789500  1
  N  N1127  1  0.073600  0.999000  0.122833  1
  N  N1128  1  0.925400  0.926400  0.456167  1
  N  N1129  1  0.476900  0.939600  0.679700  1
  N  N1130  1  0.462700  0.523100  0.013033  1
  N  N1131  1  0.060400  0.537300  0.346367  1
  N  N1132  1  0.515000  0.885500  0.634700  1
  N  N1133  1  0.370500  0.485000  0.968033  1
  N  N1134  1  0.114500  0.629500  0.301367  1
  N  N1135  1  0.081400  0.350100  0.505500  1
  N  N1136  1  0.268700  0.918600  0.838833  1
  N  N1137  1  0.649900  0.731300  0.172167  1
  N  N1138  1  0.934800  0.247700  0.500100  1
  N  N1139  1  0.312900  0.065200  0.833433  1
  N  N1140  1  0.752300  0.687100  0.166767  1
  N  N1141  1  0.933500  0.630500  0.659700  1
  N  N1142  1  0.697000  0.066500  0.993033  1
  N  N1143  1  0.369500  0.303000  0.326367  1
  N  N1144  1  0.092500  0.953500  0.778200  1
  N  N1145  1  0.861000  0.907500  0.111533  1
  N  N1146  1  0.046500  0.139000  0.444867  1
  N  N1147  1  0.342200  0.923200  0.732300  1
  N  N1148  1  0.581000  0.657800  0.065633  1
  N  N1149  1  0.076800  0.419000  0.398967  1
  N  N1150  1  0.126100  0.426400  0.574900  1
  N  N1151  1  0.300300  0.873900  0.908233  1
  N  N1152  1  0.573600  0.699700  0.241567  1
  N  N1153  1  0.673000  0.024000  0.781100  1
  N  N1154  1  0.351000  0.327000  0.114433  1
  N  N1155  1  0.976000  0.649000  0.447767  1
  N  N1156  1  0.328000  0.667600  0.634100  1
  N  N1157  1  0.339600  0.672000  0.967433  1
  N  N1158  1  0.332400  0.660400  0.300767  1
  N  N1159  1  0.657700  0.285100  0.604200  1
  N  N1160  1  0.627400  0.342300  0.937533  1
  N  N1161  1  0.714900  0.372600  0.270867  1
  N  N1162  1  0.756700  0.272500  0.704900  1
  N  N1163  1  0.515800  0.243300  0.038233  1
  N  N1164  1  0.727500  0.484200  0.371567  1
  N  N1165  1  0.496700  0.340200  0.512800  1
  N  N1166  1  0.843500  0.503300  0.846133  1
  N  N1167  1  0.659800  0.156500  0.179467  1
  N  N1168  1  0.515900  0.565600  0.677400  1
  N  N1169  1  0.049700  0.484100  0.010733  1
  N  N1170  1  0.434400  0.950300  0.344067  1
  N  N1171  1  0.150400  0.692600  0.837500  1
  N  N1172  1  0.542200  0.849600  0.170833  1
  N  N1173  1  0.307400  0.457800  0.504167  1
  N  N1174  1  0.672000  0.029000  0.596500  1
  N  N1175  1  0.357000  0.328000  0.929833  1
  N  N1176  1  0.971000  0.643000  0.263167  1
  N  N1177  1  0.729600  0.787100  0.768200  1
  N  N1178  1  0.057500  0.270400  0.101533  1
  N  N1179  1  0.212900  0.942500  0.434867  1
  N  N1180  1  0.340800  0.259900  0.658800  1
  N  N1181  1  0.919100  0.659200  0.992133  1
  N  N1182  1  0.740100  0.080900  0.325467  1
  O  O1183  1  0.895200  0.795300  0.629800  1
  O  O1184  1  0.900100  0.104800  0.963133  1
  O  O1185  1  0.204700  0.099900  0.296467  1
  O  O1186  1  0.046800  0.857000  0.637300  1
  O  O1187  1  0.810200  0.953200  0.970633  1
  O  O1188  1  0.143000  0.189800  0.303967  1
  O  O1189  1  0.064100  0.744200  0.610200  1
  O  O1190  1  0.680100  0.935900  0.943533  1
  O  O1191  1  0.255800  0.319900  0.276867  1
  O  O1192  1  0.892900  0.686300  0.598900  1
  O  O1193  1  0.793400  0.107100  0.932233  1
  O  O1194  1  0.313700  0.206600  0.265567  1
  O  O1195  1  0.927500  0.591200  0.681500  1
  O  O1196  1  0.663700  0.072500  0.014833  1
  O  O1197  1  0.408800  0.336300  0.348167  1
  O  O1198  1  0.942700  0.696600  0.661300  1
  O  O1199  1  0.753900  0.057300  0.994633  1
  O  O1200  1  0.303400  0.246100  0.327967  1
  O  O1201  1  0.929100  0.603600  0.633900  1
  O  O1202  1  0.674500  0.070900  0.967233  1
  O  O1203  1  0.396400  0.325500  0.300567  1
  O  O1204  1  0.129800  0.919000  0.771800  1
  O  O1205  1  0.789200  0.870200  0.105133  1
  O  O1206  1  0.081000  0.210800  0.438467  1
  O  O1207  1  0.117600  0.022900  0.778500  1
  O  O1208  1  0.905300  0.882400  0.111833  1
  O  O1209  1  0.977100  0.094700  0.445167  1
  O  O1210  1  0.018700  0.903200  0.782900  1
  O  O1211  1  0.884500  0.981300  0.116233  1
  O  O1212  1  0.096800  0.115500  0.449567  1
  O  O1213  1  0.376400  0.985500  0.732900  1
  O  O1214  1  0.609100  0.623600  0.066233  1
  O  O1215  1  0.014500  0.390900  0.399567  1
  O  O1216  1  0.259400  0.871200  0.746700  1
  O  O1217  1  0.611800  0.740600  0.080033  1
  O  O1218  1  0.128800  0.388200  0.413367  1
  O  O1219  1  0.343000  0.871000  0.718300  1
  O  O1220  1  0.528000  0.657000  0.051633  1
  O  O1221  1  0.129000  0.472000  0.384967  1
  O  O1222  1  0.138600  0.459600  0.601300  1
  O  O1223  1  0.321000  0.861400  0.934633  1
  O  O1224  1  0.540400  0.679000  0.267967  1
  O  O1225  1  0.182400  0.455000  0.558400  1
  O  O1226  1  0.272600  0.817600  0.891733  1
  O  O1227  1  0.545000  0.727400  0.225067  1
  O  O1228  1  0.072000  0.376000  0.569200  1
  O  O1229  1  0.304000  0.928000  0.902533  1
  O  O1230  1  0.624000  0.696000  0.235867  1
  O  O1231  1  0.746800  0.066500  0.771300  1
  O  O1232  1  0.319700  0.253200  0.104633  1
  O  O1233  1  0.933500  0.680300  0.437967  1
  O  O1234  1  0.636000  0.044000  0.779300  1
  O  O1235  1  0.408000  0.364000  0.112633  1
  O  O1236  1  0.956000  0.592000  0.445967  1
  O  O1237  1  0.647000  0.959000  0.798500  1
  O  O1238  1  0.312000  0.353000  0.131833  1
  O  O1239  1  0.041000  0.688000  0.465167  1
  O  O1240  1  0.273900  0.614300  0.630900  1
  O  O1241  1  0.340400  0.726100  0.964233  1
  O  O1242  1  0.385700  0.659600  0.297567  1
  O  O1243  1  0.389200  0.715800  0.619000  1
  O  O1244  1  0.326600  0.610800  0.952333  1
  O  O1245  1  0.284200  0.673400  0.285667  1
  O  O1246  1  0.339700  0.721100  0.655300  1
  O  O1247  1  0.381400  0.660300  0.988633  1
  O  O1248  1  0.278900  0.618600  0.321967  1
  O  O1249  1  0.603900  0.295900  0.609100  1
  O  O1250  1  0.692000  0.396100  0.942433  1
  O  O1251  1  0.704100  0.308000  0.275767  1
  O  O1252  1  0.701800  0.286700  0.623600  1
  O  O1253  1  0.584900  0.298200  0.956933  1
  O  O1254  1  0.713300  0.415100  0.290267  1
  O  O1255  1  0.674000  0.281100  0.577200  1
  O  O1256  1  0.607100  0.326000  0.910533  1
  O  O1257  1  0.718900  0.392900  0.243867  1
  O  O1258  1  0.746600  0.298100  0.681000  1
  O  O1259  1  0.551500  0.253400  0.014333  1
  O  O1260  1  0.701900  0.448500  0.347667  1
  O  O1261  1  0.805600  0.251000  0.706200  1
  O  O1262  1  0.445400  0.194400  0.039533  1
  O  O1263  1  0.749000  0.554600  0.372867  1
  O  O1264  1  0.719300  0.272700  0.727000  1
  O  O1265  1  0.553400  0.280700  0.060333  1
  O  O1266  1  0.727300  0.446600  0.393667  1
  O  O1267  1  0.452900  0.365900  0.513800  1
  O  O1268  1  0.913000  0.547100  0.847133  1
  O  O1269  1  0.634100  0.087000  0.180467  1
  O  O1270  1  0.527000  0.332700  0.535800  1
  O  O1271  1  0.805700  0.473000  0.869133  1
  O  O1272  1  0.667300  0.194300  0.202467  1
  O  O1273  1  0.515000  0.324000  0.488100  1
  O  O1274  1  0.809000  0.485000  0.821433  1
  O  O1275  1  0.676000  0.191000  0.154767  1
  O  O1276  1  0.572800  0.565000  0.687900  1
  O  O1277  1  0.992200  0.427200  0.021233  1
  O  O1278  1  0.435000  0.007800  0.354567  1
  O  O1279  1  0.511600  0.570800  0.650100  1
  O  O1280  1  0.059200  0.488400  0.983433  1
  O  O1281  1  0.429200  0.940800  0.316767  1
  O  O1282  1  0.466000  0.565000  0.693900  1
  O  O1283  1  0.099000  0.534000  0.027233  1
  O  O1284  1  0.435000  0.901000  0.360567  1
  O  O1285  1  0.196500  0.742100  0.820400  1
  O  O1286  1  0.545600  0.803500  0.153733  1
  O  O1287  1  0.257900  0.454400  0.487067  1
  O  O1288  1  0.091700  0.694000  0.845900  1
  O  O1289  1  0.602300  0.908300  0.179233  1
  O  O1290  1  0.306000  0.397700  0.512567  1
  O  O1291  1  0.161000  0.639200  0.845000  1
  O  O1292  1  0.478200  0.839000  0.178333  1
  O  O1293  1  0.360800  0.521800  0.511667  1
  O  O1294  1  0.596800  0.510300  0.622100  1
  O  O1295  1  0.913500  0.403200  0.955433  1
  O  O1296  1  0.489700  0.086500  0.288767  1
  O  O1297  1  0.959400  0.399400  0.564200  1
  O  O1298  1  0.440000  0.040600  0.897533  1
  O  O1299  1  0.600600  0.560000  0.230867  1
  O  O1300  1  0.695800  0.513600  0.766100  1
  O  O1301  1  0.817800  0.304200  0.099433  1
  O  O1302  1  0.486400  0.182200  0.432767  1
  O  O1303  1  0.032000  0.237000  0.794900  1
  O  O1304  1  0.205000  0.968000  0.128233  1
  O  O1305  1  0.763000  0.795000  0.461567  1
  O  O1306  1  0.111000  0.763000  0.776200  1
  O  O1307  1  0.652000  0.889000  0.109533  1
  O  O1308  1  0.237000  0.348000  0.442867  1
  O  O1309  1  0.280200  0.047900  0.760300  1
  O  O1310  1  0.767700  0.719800  0.093633  1
  O  O1311  1  0.952100  0.232300  0.426967  1
  O  O1312  1  0.313800  0.596100  0.572500  1
  O  O1313  1  0.282300  0.686200  0.905833  1
  O  O1314  1  0.403900  0.717700  0.239167  1
  O  O1315  1  0.095800  0.326600  0.840900  1
  O  O1316  1  0.230800  0.904200  0.174233  1
  O  O1317  1  0.673400  0.769200  0.507567  1
  O  O1318  1  0.160300  0.485500  0.664400  1
  O  O1319  1  0.325200  0.839700  0.997733  1
  O  O1320  1  0.514500  0.674800  0.331067  1
  O  O1321  1  0.293700  0.818400  0.665600  1
  O  O1322  1  0.524700  0.706300  0.998933  1
  O  O1323  1  0.181600  0.475300  0.332267  1
  O  O1324  1  0.171000  0.197700  0.776500  1
  O  O1325  1  0.026700  0.829000  0.109833  1
  O  O1326  1  0.802300  0.973300  0.443167  1
  O  O1327  1  0.919700  0.882800  0.740200  1
  O  O1328  1  0.963100  0.080300  0.073533  1
  O  O1329  1  0.117200  0.036900  0.406867  1
  O  O1330  1  0.807400  0.225500  0.770500  1
  O  O1331  1  0.418100  0.192600  0.103833  1
  O  O1332  1  0.774500  0.581900  0.437167  1
  O  O1333  1  0.093700  0.576800  0.781000  1
  O  O1334  1  0.483100  0.906300  0.114333  1
  O  O1335  1  0.423200  0.516900  0.447667  1
  O  O1336  1  0.948400  0.249200  0.753500  1
  O  O1337  1  0.300800  0.051600  0.086833  1
  O  O1338  1  0.750800  0.699200  0.420167  1
  O  O1339  1  0.200100  0.397000  0.701200  1
  O  O1340  1  0.196900  0.799900  0.034533  1
  O  O1341  1  0.603000  0.803100  0.367867  1
  O  O1342  1  0.980500  0.590500  0.792200  1
  O  O1343  1  0.610000  0.019500  0.125533  1
  O  O1344  1  0.409500  0.390000  0.458867  1
  O  O1345  1  0.814000  0.291000  0.577300  1
  O  O1346  1  0.477000  0.186000  0.910633  1
  O  O1347  1  0.709000  0.523000  0.243967  1
  O  O1348  1  0.196000  0.269000  0.842400  1
  O  O1349  1  0.073000  0.804000  0.175733  1
  O  O1350  1  0.731000  0.927000  0.509067  1
  O  O1351  1  0.488400  0.371400  0.592400  1
  O  O1352  1  0.883000  0.511600  0.925733  1
  O  O1353  1  0.628600  0.117000  0.259067  1
  O  O1354  1  0.320000  0.842000  0.470700  1
  O  O1355  1  0.522000  0.680000  0.804033  1
  O  O1356  1  0.158000  0.478000  0.137367  1
  O  O1357  1  0.647000  0.152000  0.644600  1
  O  O1358  1  0.505000  0.353000  0.977933  1
  O  O1359  1  0.848000  0.495000  0.311267  1
  O  O1360  1  0.271000  0.654000  0.847400  1
  O  O1361  1  0.383000  0.729000  0.180733  1
  O  O1362  1  0.346000  0.617000  0.514067  1
  O  O1363  1  0.178000  0.351000  0.759600  1
  O  O1364  1  0.173000  0.822000  0.092933  1
  O  O1365  1  0.649000  0.827000  0.426267  1
  O  O1366  1  0.982000  0.366000  0.714300  1
  O  O1367  1  0.384000  0.018000  0.047633  1
  O  O1368  1  0.634000  0.616000  0.380967  1
  O  O1369  1  0.620000  0.272000  0.466000  1
  O  O1370  1  0.652000  0.380000  0.799333  1
  O  O1371  1  0.728000  0.348000  0.132667  1
  O  O1372  1  0.652800  0.981900  0.616800  1
  O  O1373  1  0.329100  0.347200  0.950133  1
  O  O1374  1  0.018100  0.670900  0.283467  1
  O  O1375  1  0.663000  0.086000  0.599700  1
  O  O1376  1  0.423000  0.337000  0.933033  1
  O  O1377  1  0.914000  0.577000  0.266367  1
  O  O1378  1  0.701000  0.022000  0.573000  1
  O  O1379  1  0.321000  0.299000  0.906333  1
  O  O1380  1  0.978000  0.679000  0.239667  1
  O  O1381  1  0.757000  0.797100  0.749500  1
  O  O1382  1  0.040100  0.243000  0.082833  1
  O  O1383  1  0.202900  0.959900  0.416167  1
  O  O1384  1  0.434600  0.390000  0.665700  1
  O  O1385  1  0.955400  0.565400  0.999033  1
  O  O1386  1  0.610000  0.044600  0.332367  1
  O  O1387  1  0.879000  0.509000  0.739900  1
  O  O1388  1  0.630000  0.121000  0.073233  1
  O  O1389  1  0.491000  0.370000  0.406567  1
  O  O1390  1  0.670000  0.043000  0.544800  1
  O  O1391  1  0.373000  0.330000  0.878133  1
  O  O1392  1  0.957000  0.627000  0.211467  1
  O  O1393  1  0.717500  0.737500  0.748700  1
  O  O1394  1  0.020000  0.282500  0.082033  1
  O  O1395  1  0.262500  0.980000  0.415367  1
  O  O1396  1  0.795000  0.844000  0.770200  1
  O  O1397  1  0.049000  0.205000  0.103533  1
  O  O1398  1  0.156000  0.951000  0.436867  1
  O  O1399  1  0.679000  0.780000  0.786100  1
  O  O1400  1  0.101000  0.321000  0.119433  1
  O  O1401  1  0.220000  0.899000  0.452767  1
  O  O1402  1  0.290000  0.192000  0.652600  1
  O  O1403  1  0.902000  0.710000  0.985933  1
  O  O1404  1  0.808000  0.098000  0.319267  1
  O  O1405  1  0.338000  0.287000  0.683400  1
  O  O1406  1  0.949000  0.662000  0.016733  1
  O  O1407  1  0.713000  0.051000  0.350067  1
  O  O1408  1  0.391000  0.298000  0.640500  1
  O  O1409  1  0.907000  0.609000  0.973833  1
  O  O1410  1  0.702000  0.093000  0.307167  1
  O  O1411  1  0.887000  0.426000  0.710100  1
  O  O1412  1  0.539000  0.113000  0.043433  1
  O  O1413  1  0.574000  0.461000  0.376767  1
  O  O1414  1  0.992000  0.523000  0.729200  1
  O  O1415  1  0.531000  0.008000  0.062533  1
  O  O1416  1  0.477000  0.469000  0.395867  1
