
#######################################################################
#
#                 Cambridge Crystallographic Data Centre
#                                CCDC 
#
#######################################################################
#
# If this CIF has been generated from an entry in the Cambridge 
# Structural Database, then it will include bibliographic, chemical, 
# crystal, experimental, refinement or atomic coordinate data resulting 
# from the CCDC's data processing and validation procedures.
#
#######################################################################

data_BOGZEE
_chemical_formula_moiety         
'C120 H160 N40 Pd8 16+,C28 H24 O4,16(N1 O3 1-),11(H2 O1)'
_chemical_name_systematic        
"tetrakis(\m~4~-4,6-bis(Pyridin-3-yl)-2,5'-bipyrimidine)-octakis((S,S)-1,2-diaminocyclohexane)-octa-palladium 25,26,27,28-tetrahydroxycalix(4)arene clathrate hexadecanitrate undecahydrate"
_symmetry_cell_setting           trigonal
_symmetry_space_group_name_H-M   'P 32'
_symmetry_Int_Tables_number      145
_space_group_name_Hall           'P 32'
loop_
_symmetry_equiv_pos_site_id
_symmetry_equiv_pos_as_xyz
1 x,y,z
2 -y,x-y,2/3+z
3 -x+y,-x,1/3+z
_cell_length_a                   20.2126(14)
_cell_length_b                   20.2126(14)
_cell_length_c                   45.410(7)
_cell_angle_alpha                90
_cell_angle_beta                 90
_cell_angle_gamma                120
_cell_volume                     16066.7
_exptl_crystal_colour            colorless
_exptl_crystal_description       plate
_chemical_melting_point          '200 deg.C (dec.)'
_cell_formula_units_Z            3
loop_
_atom_site_label
_atom_site_type_symbol
_atom_site_fract_x
_atom_site_fract_y
_atom_site_fract_z
Pd1 Pd 0.31233(8) 0.77392(8) 0.32562(3)
Pd2 Pd 0.10060(8) 0.80586(8) 0.24915(3)
Pd3 Pd -0.15268(13) 0.51218(10) 0.29590(5)
Pd4 Pd 0.06986(10) 0.47553(9) 0.36409(4)
Pd5 Pd 0.52713(8) 1.06587(11) 0.43124(4)
Pd6 Pd 0.06562(7) 1.11972(7) 0.24616(2)
Pd7 Pd -0.46511(12) 0.48669(19) 0.35944(7)
Pd8 Pd 0.00568(16) 0.37517(19) 0.51093(7)
N1 N 0.2493(7) 0.8277(7) 0.3173(3)
N2 N 0.1650(8) 0.8401(8) 0.2855(3)
N3 N 0.2968(7) 1.0310(7) 0.3602(3)
N4 N 0.2168(7) 1.0445(7) 0.3237(3)
C1 C 0.2027(8) 0.8063(9) 0.2954(3)
H1 H 0.1944 0.7616 0.2853
C2 C 0.2661(10) 0.8921(10) 0.3313(4)
H2 H 0.3015 0.9088 0.3471
C3 C 0.2337(9) 0.9352(9) 0.3234(3)
C4 C 0.1829(9) 0.9081(9) 0.2989(3)
H3 H 0.1612 0.9372 0.2918
C5 C 0.2519(8) 1.0101(8) 0.3361(3)
C6 C 0.3123(9) 1.0983(9) 0.3711(3)
C7 C 0.2813(10) 1.1404(10) 0.3617(4)
H4 H 0.2884 1.1842 0.3722
C8 C 0.2375(8) 1.1157(8) 0.3354(3)
N5 N 0.4596(9) 1.1170(9) 0.4234(4)
C9 C 0.4094(9) 1.0901(9) 0.4035(3)
H5 H 0.4007 1.0467 0.3924
C10 C 0.3654(11) 1.1279(11) 0.3981(4)
C11 C 0.3789(12) 1.1880(13) 0.4141(5)
H6 H 0.3517 1.2144 0.4109
C12 C 0.4354(14) 1.2109(15) 0.4361(6)
H7 H 0.4471 1.2530 0.4486
C13 C 0.4695(18) 1.1743(18) 0.4385(7)
H8 H 0.5075 1.1911 0.4534
N6 N 0.1388(7) 1.1709(7) 0.2795(3)
C14 C 0.1613(8) 1.1280(9) 0.2957(3)
H9 H 0.1407 1.0753 0.2915
C15 C 0.2167(8) 1.1634(8) 0.3193(3)
C16 C 0.2439(12) 1.2405(11) 0.3261(4)
H10 H 0.2789 1.2658 0.3417
C17 C 0.2147(12) 1.2794(13) 0.3074(5)
H11 H 0.2317 1.3319 0.3108
C18 C 0.1637(10) 1.2423(10) 0.2854(4)
H12 H 0.1459 1.2696 0.2739
N7 N 0.0012(8) 0.7480(8) 0.2731(3)
N8 N -0.0981(11) 0.6302(11) 0.2900(4)
N9 N -0.1148(6) 0.8531(6) 0.2995(2)
N10 N -0.2173(10) 0.7352(10) 0.3197(4)
C19 C -0.0329(12) 0.6728(11) 0.2770(4)
H13 H -0.0072 0.6478 0.2695
C20 C -0.0377(9) 0.7804(10) 0.2817(4)
H14 H -0.0171 0.8333 0.2779
C21 C -0.1086(10) 0.7407(10) 0.2962(4)
C22 C -0.1334(11) 0.6685(10) 0.2997(4)
H15 H -0.1804 0.6397 0.3099
C23 C -0.1466(9) 0.7826(9) 0.3046(4)
C24 C -0.1558(10) 0.8889(9) 0.3071(4)
C25 C -0.2277(10) 0.8497(10) 0.3225(4)
H16 H -0.2550 0.8741 0.3288
C26 C -0.2520(11) 0.7754(11) 0.3271(4)
N11 N -0.0221(7) 1.0798(7) 0.2740(3)
C27 C -0.0572(7) 1.0032(7) 0.2829(3)
H17 H -0.0349 0.9734 0.2772
C28 C -0.1246(10) 0.9687(10) 0.3000(4)
C29 C -0.1483(11) 1.0200(11) 0.3088(4)
H18 H -0.1913 1.0029 0.3215
C30 C -0.1126(10) 1.0907(10) 0.3000(4)
H19 H -0.1327 1.1224 0.3058
C31 C -0.0542(9) 1.1196(9) 0.2845(3)
H20 H -0.0310 1.1724 0.2798
N12 N -0.4258(12) 0.6019(8) 0.3586(5)
C32 C -0.3589(11) 0.6495(11) 0.3439(4)
H21 H -0.3359 0.6272 0.3324
C33 C -0.3234(10) 0.7291(10) 0.3451(4)
C34 C -0.3592(12) 0.7617(10) 0.3617(5)
H22 H -0.3383 0.8155 0.3619
C35 C -0.4244(15) 0.7156(14) 0.3777(6)
H23 H -0.4473 0.7363 0.3901
C36 C -0.4546(15) 0.6373(14) 0.3745(7)
H24 H -0.5007 0.6054 0.3848
N13 N -0.1124(12) 0.5171(11) 0.3370(5)
N14 N -0.0205(9) 0.4945(9) 0.3624(4)
N15 N -0.2316(12) 0.4887(12) 0.4125(5)
N16 N -0.1414(10) 0.4723(10) 0.4395(4)
C37 C -0.0408(12) 0.5101(12) 0.3377(5)
H25 H -0.0119 0.5170 0.3203
C38 C -0.1437(11) 0.5087(11) 0.3612(4)
H26 H -0.1903 0.5094 0.3614
C39 C -0.1181(12) 0.4985(12) 0.3878(5)
C40 C -0.0564(12) 0.4907(12) 0.3883(5)
H27 H -0.0379 0.4826 0.4064
C41 C -0.1623(10) 0.4860(10) 0.4167(4)
C42 C -0.2697(11) 0.4786(12) 0.4385(5)
C43 C -0.2507(16) 0.4640(16) 0.4622(7)
H28 H -0.2843 0.4508 0.4786
C44 C -0.1793(9) 0.4663(9) 0.4658(4)
N17 N -0.4266(15) 0.4950(15) 0.4005(6)
C45 C -0.3670(19) 0.4823(18) 0.4053(8)
H29 H -0.3441 0.4755 0.3882
C46 C -0.3367(17) 0.478(2) 0.4311(9)
C47 C -0.3737(16) 0.5003(16) 0.4563(7)
H30 H -0.3557 0.5008 0.4757
C48 C -0.4297(18) 0.519(2) 0.4534(7)
H31 H -0.4428 0.5407 0.4694
C49 C -0.468(2) 0.5050(19) 0.4259(7)
H32 H -0.5157 0.5022 0.4238
N18 N -0.0659(12) 0.4104(14) 0.5143(6)
C50 C -0.0976(10) 0.4266(10) 0.4923(4)
H33 H -0.0817 0.4193 0.4735
C51 C -0.1500(12) 0.4524(13) 0.4910(5)
C52 C -0.1673(17) 0.4647(19) 0.5201(6)
H34 H -0.2005 0.4851 0.5220
C53 C -0.140(2) 0.450(2) 0.5469(5)
H35 H -0.1516 0.4596 0.5661
C54 C -0.0934(18) 0.418(2) 0.5404(5)
H36 H -0.0792 0.3987 0.5570
N19 N 0.1488(9) 0.5867(9) 0.3734(3)
N20 N 0.2423(8) 0.7066(8) 0.3600(3)
N21 N 0.2008(11) 0.6504(11) 0.4604(4)
N22 N 0.2878(9) 0.7815(9) 0.4473(3)
C55 C 0.1885(11) 0.6367(11) 0.3545(4)
H37 H 0.1783 0.6221 0.3344
C56 C 0.1623(10) 0.6075(10) 0.4007(4)
H38 H 0.1337 0.5698 0.4151
C57 C 0.2157(12) 0.6812(12) 0.4109(5)
C58 C 0.2555(9) 0.7284(10) 0.3861(4)
H39 H 0.2944 0.7795 0.3898
C59 C 0.2335(10) 0.7042(10) 0.4400(4)
C60 C 0.2184(12) 0.6727(13) 0.4887(5)
C61 C 0.2645(13) 0.7416(13) 0.4972(5)
H40 H 0.2734 0.7576 0.5172
C62 C 0.2999(11) 0.7901(11) 0.4729(4)
N23 N 0.0840(12) 0.4770(13) 0.5225(5)
C63 C 0.1232(15) 0.5368(17) 0.5053(7)
H41 H 0.1135 0.5249 0.4849
C64 C 0.1763(16) 0.6144(17) 0.5104(7)
C65 C 0.185(2) 0.625(2) 0.5433(8)
H42 H 0.2137 0.6744 0.5514
C66 C 0.149(2) 0.5605(19) 0.5622(9)
H43 H 0.1649 0.5657 0.5821
C67 C 0.092(2) 0.491(2) 0.5522(6)
H44 H 0.0590 0.4526 0.5658
N24 N 0.4618(11) 1.0047(11) 0.4636(4)
C68 C 0.4071(12) 0.9285(13) 0.4590(5)
H45 H 0.4013 0.9090 0.4396
C69 C 0.3580(13) 0.8762(13) 0.4821(5)
C70 C 0.3628(16) 0.9079(16) 0.5101(6)
H46 H 0.3339 0.8793 0.5267
C71 C 0.4131(19) 0.983(2) 0.5108(8)
H47 H 0.4133 1.0073 0.5288
C72 C 0.4650(15) 1.0336(15) 0.4900(6)
H48 H 0.5004 1.0853 0.4947
N25 N 0.3717(8) 0.7200(8) 0.3291(3)
H49 H 0.3825 0.7179 0.3486
H50 H 0.3420 0.6707 0.3225
N26 N 0.3872(9) 0.8337(9) 0.2941(3)
H51 H 0.3630 0.8431 0.2789
H52 H 0.4246 0.8797 0.3015
C73 C 0.4430(11) 0.7566(11) 0.3124(4)
H53 H 0.4820 0.8015 0.3239
C74 C 0.4220(14) 0.7871(14) 0.2832(6)
H54 H 0.3848 0.7435 0.2708
C75 C 0.4988(17) 0.8434(17) 0.2645(7)
H55 H 0.4848 0.8574 0.2456
H56 H 0.5312 0.8908 0.2758
C76 C 0.5429(17) 0.8003(17) 0.2589(6)
H57 H 0.5170 0.7627 0.2429
H58 H 0.5951 0.8373 0.2520
C77 C 0.5486(15) 0.7582(15) 0.2862(6)
H59 H 0.5687 0.7248 0.2797
H60 H 0.5871 0.7969 0.2996
C78 C 0.4756(13) 0.7091(14) 0.3041(5)
H61 H 0.4384 0.6653 0.2921
H62 H 0.4877 0.6891 0.3219
N27 N 0.1922(9) 0.8648(10) 0.2235(3)
H63 H 0.2230 0.9123 0.2316
H64 H 0.2198 0.8399 0.2227
N28 N 0.0333(11) 0.7748(11) 0.2111(4)
H65 H -0.0014 0.7233 0.2106
H66 H 0.0079 0.8018 0.2092
C79 C 0.1707(13) 0.8737(14) 0.1936(5)
H67 H 0.1566 0.9145 0.1945
C80 C 0.0965(14) 0.7980(14) 0.1869(5)
H68 H 0.1098 0.7565 0.1858
C81 C 0.076(2) 0.811(2) 0.1560(7)
H69 H 0.0684 0.8557 0.1563
H70 H 0.0272 0.7659 0.1501
C82 C 0.1381(19) 0.8250(19) 0.1324(7)
H71 H 0.1519 0.7843 0.1331
H72 H 0.1204 0.8275 0.1123
C83 C 0.203(2) 0.900(2) 0.1414(8)
H73 H 0.1860 0.9376 0.1417
H74 H 0.2437 0.9161 0.1263
C84 C 0.2364(14) 0.9000(14) 0.1702(5)
H75 H 0.2785 0.9520 0.1749
H76 H 0.2569 0.8647 0.1701
N29 N -0.2100(13) 0.5002(12) 0.2589(5)
H77 H -0.2325 0.5301 0.2594
H78 H -0.1776 0.5147 0.2429
N30 N -0.2212(13) 0.3970(13) 0.3030(5)
H79 H -0.1938 0.3751 0.3100
H80 H -0.2607 0.3866 0.3157
C85 C -0.2693(15) 0.4180(14) 0.2566(6)
H81 H -0.3137 0.4134 0.2681
C86 C -0.2506(17) 0.3703(15) 0.2703(6)
H82 H -0.2079 0.3709 0.2589
C87 C -0.3161(16) 0.2796(15) 0.2762(6)
H83 H -0.3544 0.2751 0.2908
H84 H -0.2923 0.2497 0.2830
C88 C -0.358(2) 0.249(2) 0.2407(8)
H85 H -0.3211 0.2442 0.2277
H86 H -0.4039 0.1976 0.2425
C89 C -0.3782(13) 0.2991(13) 0.2280(5)
H87 H -0.4198 0.2992 0.2395
H88 H -0.3966 0.2828 0.2077
C90 C -0.3004(16) 0.3877(16) 0.2278(6)
H89 H -0.2601 0.3866 0.2158
H90 H -0.3142 0.4230 0.2181
N31 N 0.0024(12) 0.3627(11) 0.3547(5)
H91 H -0.0471 0.3466 0.3604
H92 H 0.0027 0.3550 0.3348
N32 N 0.1441(11) 0.4391(11) 0.3667(4)
H93 H 0.1846 0.4680 0.3543
H94 H 0.1627 0.4459 0.3856
C91 C 0.0298(14) 0.3209(14) 0.3698(6)
H95 H 0.0257 0.3233 0.3916
C92 C 0.1116(16) 0.3617(16) 0.3590(7)
H96 H 0.1129 0.3564 0.3371
C93 C 0.143(2) 0.313(2) 0.3747(9)
H97 H 0.1984 0.3375 0.3715
H98 H 0.1335 0.3120 0.3962
C94 C 0.103(2) 0.230(2) 0.3627(8)
H99 H 0.1082 0.2298 0.3410
H100 H 0.1255 0.2010 0.3716
C95 C 0.0226(19) 0.196(2) 0.3710(8)
H101 H 0.0192 0.1974 0.3927
H102 H -0.0050 0.1421 0.3648
C96 C -0.0188(17) 0.2379(16) 0.3573(7)
H103 H -0.0173 0.2375 0.3355
H104 H -0.0726 0.2138 0.3639
N33 N 0.6009(10) 1.0263(10) 0.4366(4)
H105 H 0.6129 1.0279 0.4562
H106 H 0.5782 0.9763 0.4304
N34 N 0.5987(9) 1.1275(9) 0.3979(3)
H107 H 0.5711 1.1266 0.3817
H108 H 0.6295 1.1774 0.4036
C97 C 0.6748(11) 1.0756(12) 0.4186(4)
H109 H 0.7057 1.1246 0.4295
C98 C 0.6433(12) 1.0938(13) 0.3912(5)
H110 H 0.6103 1.0449 0.3804
C99 C 0.7134(13) 1.1481(14) 0.3702(5)
H111 H 0.7415 1.2000 0.3789
H112 H 0.6938 1.1520 0.3507
C100 C 0.7708(14) 1.1149(15) 0.3664(5)
H113 H 0.7455 1.0679 0.3542
H114 H 0.8169 1.1529 0.3557
C101 C 0.7947(14) 1.0965(14) 0.3953(5)
H115 H 0.8272 1.1445 0.4062
H116 H 0.8254 1.0717 0.3915
C102 C 0.7220(14) 1.0409(15) 0.4152(6)
H117 H 0.6925 0.9903 0.4056
H118 H 0.7392 1.0336 0.4348
N35 N 0.1552(8) 1.1568(9) 0.2159(3)
H119 H 0.1887 1.2083 0.2181
H120 H 0.1814 1.1309 0.2186
N36 N -0.0010(7) 1.0736(8) 0.2105(3)
H121 H -0.0413 1.0261 0.2150
H122 H -0.0201 1.1041 0.2043
C103 C 0.1189(9) 1.1404(9) 0.1858(3)
H123 H 0.1073 1.1817 0.1809
C104 C 0.0460(9) 1.0676(9) 0.1877(3)
H124 H 0.0558 1.0249 0.1923
C105 C 0.0069(12) 1.0546(12) 0.1569(4)
H125 H -0.0025 1.0970 0.1522
H126 H -0.0426 1.0061 0.1568
C106 C 0.0633(11) 1.0513(11) 0.1340(4)
H127 H 0.0722 1.0086 0.1388
H128 H 0.0409 1.0425 0.1140
C107 C 0.1382(10) 1.1262(10) 0.1347(4)
H129 H 0.1735 1.1247 0.1199
H130 H 0.1289 1.1684 0.1293
C108 C 0.1732(10) 1.1410(10) 0.1630(4)
H131 H 0.2206 1.1914 0.1629
H132 H 0.1868 1.1016 0.1677
N37 N -0.4769(10) 0.4627(9) 0.3203(4)
H133 H -0.4778 0.5012 0.3098
H134 H -0.4361 0.4583 0.3138
N38 N -0.515(2) 0.3705(18) 0.3653(6)
H135 H -0.4841 0.3589 0.3764
H136 H -0.5615 0.3514 0.3746
C109 C -0.550(2) 0.3890(19) 0.3152(7)
H137 H -0.5943 0.3886 0.3249
C110 C -0.526(3) 0.3347(16) 0.3315(8)
H138 H -0.4708 0.3649 0.3261
C111 C -0.542(4) 0.265(3) 0.3140(11)
H139 H -0.5837 0.2208 0.3244
H140 H -0.4962 0.2603 0.3154
C112 C -0.564(3) 0.257(3) 0.2821(10)
H141 H -0.5170 0.2782 0.2701
H142 H -0.5948 0.2016 0.2775
C113 C -0.610(2) 0.295(2) 0.2724(8)
H143 H -0.6591 0.2721 0.2829
H144 H -0.6195 0.2886 0.2510
C114 C -0.559(2) 0.381(2) 0.2805(8)
H145 H -0.5083 0.4019 0.2711
H146 H -0.5833 0.4098 0.2732
N39 N -0.0814(11) 0.2687(10) 0.4945(4)
H147 H -0.1224 0.2491 0.5072
H148 H -0.0976 0.2761 0.4765
N40 N 0.0652(17) 0.3129(16) 0.4999(6)
H149 H 0.1094 0.3450 0.4899
H150 H 0.0788 0.2985 0.5171
C115 C -0.053(2) 0.2092(19) 0.4910(8)
H151 H -0.0539 0.1867 0.5107
C116 C 0.016(2) 0.240(2) 0.4807(9)
H152 H 0.0129 0.2603 0.4609
C117 C 0.053(3) 0.190(2) 0.4749(11)
H153 H 0.1009 0.2198 0.4636
H154 H 0.0657 0.1748 0.4938
C118 C -0.002(2) 0.119(2) 0.4576(9)
H155 H 0.0016 0.1320 0.4364
H156 H 0.0121 0.0793 0.4601
C119 C -0.0723(19) 0.0934(19) 0.4667(7)
H157 H -0.0774 0.0691 0.4861
H158 H -0.1066 0.0526 0.4529
C120 C -0.099(2) 0.145(2) 0.4695(9)
H159 H -0.1530 0.1164 0.4762
H160 H -0.0981 0.1667 0.4499
O1 O 0.1048(6) 0.9001(6) 0.3702(2)
H161 H 0.1048 0.8640 0.3793
O2 O -0.0468(7) 0.8102(6) 0.3627(2)
H162 H 0.0009 0.8365 0.3647
O3 O -0.0641(8) 0.6801(8) 0.3898(3)
H163 H -0.0567 0.7188 0.3802
O4 O 0.1071(8) 0.7934(8) 0.4011(3)
H164 H 0.0969 0.7496 0.3955
C121 C 0.1206(10) 0.9581(10) 0.3893(4)
C122 C 0.1747(13) 0.9771(13) 0.4135(5)
C123 C 0.1901(12) 1.0374(12) 0.4311(5)
H165 H 0.2226 1.0486 0.4477
C124 C 0.1581(11) 1.0832(11) 0.4247(4)
H166 H 0.1728 1.1284 0.4357
C125 C 0.1066(10) 1.0632(10) 0.4029(4)
H167 H 0.0817 1.0921 0.4001
C126 C 0.0879(10) 1.0006(10) 0.3839(4)
C127 C 0.0265(11) 0.9751(12) 0.3612(5)
H168 H 0.0354 0.9458 0.3458
H169 H 0.0296 1.0207 0.3517
C128 C -0.0819(9) 0.8501(10) 0.3756(4)
C129 C -0.0524(10) 0.9265(10) 0.3735(4)
C130 C -0.1005(12) 0.9535(12) 0.3845(5)
H170 H -0.0847 1.0061 0.3827
C131 C -0.1672(12) 0.9066(12) 0.3973(5)
H171 H -0.1945 0.9296 0.4050
C132 C -0.2006(13) 0.8300(12) 0.4005(5)
H172 H -0.2484 0.8007 0.4100
C133 C -0.1598(10) 0.7968(10) 0.3888(4)
C134 C -0.1905(13) 0.7090(12) 0.3896(5)
H173 H -0.2470 0.6817 0.3905
H174 H -0.1758 0.6937 0.3711
C135 C -0.0972(9) 0.6779(9) 0.4154(4)
C136 C -0.1608(11) 0.6851(11) 0.4152(4)
C137 C -0.1983(12) 0.6754(12) 0.4444(5)
H175 H -0.2411 0.6823 0.4468
C138 C -0.1670(11) 0.6552(11) 0.4686(5)
H176 H -0.1920 0.6445 0.4872
C139 C -0.1046(12) 0.6509(12) 0.4660(5)
H177 H -0.0856 0.6381 0.4829
C140 C -0.0639(10) 0.6646(10) 0.4390(4)
C141 C 0.0050(10) 0.6588(11) 0.4389(4)
H178 H 0.0154 0.6478 0.4187
H179 H -0.0018 0.6166 0.4520
C142 C 0.1240(12) 0.8015(12) 0.4295(5)
C143 C 0.0708(12) 0.7332(11) 0.4495(4)
C144 C 0.0907(10) 0.7451(11) 0.4777(4)
H180 H 0.0652 0.7032 0.4908
C145 C 0.1497(11) 0.8190(11) 0.4901(4)
H181 H 0.1607 0.8255 0.5106
C146 C 0.1875(12) 0.8773(12) 0.4705(4)
H182 H 0.2231 0.9263 0.4781
C147 C 0.1771(10) 0.8695(10) 0.4407(4)
C148 C 0.2190(13) 0.9356(13) 0.4210(5)
H183 H 0.2312 0.9180 0.4025
H184 H 0.2680 0.9723 0.4305
N41 N 0.0665(7) 0.6970(8) 0.3403(3)
O5 O 0.0725(7) 0.6637(7) 0.3185(3)
O6 O 0.0573(7) 0.7539(8) 0.3387(3)
O7 O 0.0709(9) 0.6745(9) 0.3661(4)
N42 N 0.9075(13) 0.8610(13) 0.2218(5)
O8 O 0.8702(9) 0.7892(9) 0.2282(4)
O9 O 0.8824(9) 0.9053(9) 0.2215(3)
O10 O 0.9813(12) 0.8845(12) 0.2171(5)
N43 N 0.6578(19) 0.581(2) 0.2677(7)
O11 O 0.6236(19) 0.6091(19) 0.2671(7)
O12 O 0.7406(18) 0.6118(18) 0.2533(7)
O13 O 0.657(2) 0.528(3) 0.2817(6)
N44 N 0.8739(17) 0.3003(15) 0.4251(6)
O14 O 0.8614(11) 0.3210(11) 0.3987(4)
O15 O 0.8176(13) 0.2726(12) 0.4416(5)
O16 O 0.928(2) 0.304(2) 0.4308(9)
N45 N 0.327(2) 0.351(2) 0.2189(7)
O17 O 0.2532(14) 0.3197(13) 0.2287(5)
O18 O 0.364(3) 0.408(3) 0.2207(10)
O19 O 0.353(2) 0.312(2) 0.2015(8)
N46 N 0.672(2) 0.3396(18) 0.3659(7)
O20 O 0.7261(15) 0.3404(14) 0.3691(5)
O21 O 0.6108(14) 0.3266(13) 0.3810(5)
O22 O 0.6603(18) 0.3814(14) 0.3447(7)
N47 N 0.3423(13) 0.6274(12) 0.3958(5)
O23 O 0.3961(11) 0.6920(10) 0.3909(5)
O24 O 0.2982(14) 0.5849(14) 0.3764(5)
O25 O 0.326(2) 0.6071(19) 0.4228(5)
N48 N 0.2433(14) 0.5158(14) 0.2951(5)
O26 O 0.2534(13) 0.5515(12) 0.3190(4)
O27 O 0.1944(14) 0.4454(12) 0.2938(6)
O28 O 0.2807(16) 0.5534(15) 0.2730(5)
N49 N 0.5033(16) 0.8435(16) 0.4872(7)
O29 O 0.5471(14) 0.9130(14) 0.4862(5)
O30 O 0.473(2) 0.8057(18) 0.4642(7)
O31 O 0.485(3) 0.809(2) 0.5119(7)
N50 N 0.4841(16) 0.0497(16) 0.3226(6)
O32 O 0.4272(17) -0.0078(17) 0.3121(6)
O33 O 0.4884(16) 0.0592(16) 0.3499(5)
O34 O 0.534(3) 0.099(3) 0.3061(9)
N51 N 0.8496(15) 0.5422(16) 0.1625(5)
O35 O 0.8035(16) 0.5456(17) 0.1796(6)
O36 O 0.9083(18) 0.6023(17) 0.1541(8)
O37 O 0.839(2) 0.4782(16) 0.1550(8)
O38 O 0.4032(10) 0.9135(10) 0.3779(4)
O39 O 0.0406(16) 0.4400(16) 0.4358(6)
O40 O 0.3042(13) 0.8178(13) 0.2339(5)
O41 O 0.968(2) 0.205(2) 0.2051(7)
O42 O 0.8890(11) 0.6520(11) 0.2238(4)
O43 O 0.7198(18) 0.7677(18) 0.2397(7)
O44 O 0.6862(14) 0.2823(14) 0.4275(5)
O45 O 0.9042(18) 0.2308(18) 0.1591(6)
O46 O 0.8397(15) 0.3252(15) 0.3356(6)
O47 O 0.7063(15) 0.5247(13) 0.3344(5)
O48 O 0.829(2) 0.0267(19) 0.2235(7)
O49 O 0.0803(9) 0.9631(9) 0.2598(3)
O50 O 0.1926(17) 0.4181(17) 0.2295(7)
O51 O 0.9063(14) 0.4831(15) 0.2190(6)
O52 O 1.0516(19) 0.3008(19) 0.2465(7)
O53 O 0.7999(18) 0.1969(19) 0.2988(7)
O54 O 0.0195(19) 0.6100(19) 0.2078(7)
O55 O 0.186(2) 0.477(2) 0.4227(9)
O56 O 0.804(3) 0.073(2) 0.1576(10)
O57 O 0.5116(19) 0.8830(19) 0.4076(7)
O58 O 0.680(4) 0.522(4) 0.5293(15)
O59 O 0.353(3) 0.505(3) 0.3554(10)
O60 O 0.729(3) 0.383(3) 0.1526(12)
O61 O 0.822(3) 0.173(3) 0.2404(10)
O62 O 0.018(3) 0.384(2) 0.2857(10)
O63 O 0.380(3) 0.652(3) 0.5340(10)
N52 N 0.328(2) 0.357(2) 0.4035(7)
O64 O 0.3472(16) 0.3291(15) 0.3832(6)
O65 O 0.337(4) 0.423(2) 0.4003(12)
O66 O 0.299(4) 0.321(3) 0.4270(9)
O68 O 0.243(2) 1.0401(19) 0.2505(7)
O72 O 0.5654(16) 0.9554(16) 0.3343(6)
O76 O 0.121(3) 0.630(3) 0.2601(10)
O67? O 0.330(5) 0.373(5) 0.4552(19)
N53? N 0.2704(19) 1.0575(19) 0.2318(7)
O69? O 0.2825(13) 1.0200(13) 0.2513(5)
O70? O 0.205(2) 1.049(2) 0.2298(9)
O71? O 0.321(3) 1.101(4) 0.2139(12)
N54? N 0.6592(17) 0.9191(16) 0.3412(7)
O73? O 0.710(3) 0.902(4) 0.3474(12)
O74? O 0.662(2) 0.949(2) 0.3166(7)
O75? O 0.609(2) 0.907(2) 0.3595(8)
O77? O 0.113(2) 0.539(2) 0.2899(8)
O78? O 0.008(2) 0.531(2) 0.2708(9)
loop_
_geom_bond_atom_site_label_1
_geom_bond_atom_site_label_2
_geom_bond_site_symmetry_1
_geom_bond_site_symmetry_2
Pd1 N1 1_555 1_555
Pd2 N2 1_555 1_555
Pd3 N8 1_555 1_555
Pd4 N14 1_555 1_555
Pd5 N5 1_555 1_555
Pd6 N6 1_555 1_555
Pd7 N12 1_555 1_555
Pd8 N18 1_555 1_555
N1 C1 1_555 1_555
N2 C1 1_555 1_555
N3 C5 1_555 1_555
N4 C5 1_555 1_555
C1 H1 1_555 1_555
C2 N1 1_555 1_555
H2 C2 1_555 1_555
C3 C2 1_555 1_555
C4 N2 1_555 1_555
H3 C4 1_555 1_555
C5 C3 1_555 1_555
C6 N3 1_555 1_555
C7 C6 1_555 1_555
H4 C7 1_555 1_555
C8 N4 1_555 1_555
N5 C9 1_555 1_555
C9 H5 1_555 1_555
C10 C6 1_555 1_555
C11 C10 1_555 1_555
H6 C11 1_555 1_555
C12 C11 1_555 1_555
H7 C12 1_555 1_555
C13 N5 1_555 1_555
H8 C13 1_555 1_555
N6 C14 1_555 1_555
C14 H9 1_555 1_555
C15 C8 1_555 1_555
C16 C15 1_555 1_555
H10 C16 1_555 1_555
C17 C16 1_555 1_555
H11 C17 1_555 1_555
C18 N6 1_555 1_555
H12 C18 1_555 1_555
N7 Pd2 1_555 1_555
N8 C19 1_555 1_555
N9 C23 1_555 1_555
N10 C23 1_555 1_555
C19 N7 1_555 1_555
H13 C19 1_555 1_555
C20 N7 1_555 1_555
H14 C20 1_555 1_555
C21 C20 1_555 1_555
C22 N8 1_555 1_555
H15 C22 1_555 1_555
C23 C21 1_555 1_555
C24 N9 1_555 1_555
C25 C24 1_555 1_555
H16 C25 1_555 1_555
C26 N10 1_555 1_555
N11 Pd6 1_555 1_555
C27 N11 1_555 1_555
H17 C27 1_555 1_555
C28 C24 1_555 1_555
C29 C28 1_555 1_555
H18 C29 1_555 1_555
C30 C29 1_555 1_555
H19 C30 1_555 1_555
C31 N11 1_555 1_555
H20 C31 1_555 1_555
N12 C32 1_555 1_555
C32 H21 1_555 1_555
C33 C26 1_555 1_555
C34 C33 1_555 1_555
H22 C34 1_555 1_555
C35 C34 1_555 1_555
H23 C35 1_555 1_555
C36 N12 1_555 1_555
H24 C36 1_555 1_555
N13 Pd3 1_555 1_555
N14 C37 1_555 1_555
N15 C41 1_555 1_555
N16 C41 1_555 1_555
C37 N13 1_555 1_555
H25 C37 1_555 1_555
C38 N13 1_555 1_555
H26 C38 1_555 1_555
C39 C38 1_555 1_555
C40 N14 1_555 1_555
H27 C40 1_555 1_555
C41 C39 1_555 1_555
C42 N15 1_555 1_555
C43 C42 1_555 1_555
H28 C43 1_555 1_555
C44 N16 1_555 1_555
N17 Pd7 1_555 1_555
C45 N17 1_555 1_555
H29 C45 1_555 1_555
C46 C42 1_555 1_555
C47 C46 1_555 1_555
H30 C47 1_555 1_555
C48 C47 1_555 1_555
H31 C48 1_555 1_555
C49 N17 1_555 1_555
H32 C49 1_555 1_555
N18 C50 1_555 1_555
C50 H33 1_555 1_555
C51 C44 1_555 1_555
C52 C51 1_555 1_555
H34 C52 1_555 1_555
C53 C52 1_555 1_555
H35 C53 1_555 1_555
C54 N18 1_555 1_555
H36 C54 1_555 1_555
N19 Pd4 1_555 1_555
N20 Pd1 1_555 1_555
N21 C59 1_555 1_555
N22 C59 1_555 1_555
C55 N19 1_555 1_555
H37 C55 1_555 1_555
C56 N19 1_555 1_555
H38 C56 1_555 1_555
C57 C56 1_555 1_555
C58 N20 1_555 1_555
H39 C58 1_555 1_555
C59 C57 1_555 1_555
C60 N21 1_555 1_555
C61 C60 1_555 1_555
H40 C61 1_555 1_555
C62 N22 1_555 1_555
N23 Pd8 1_555 1_555
C63 N23 1_555 1_555
H41 C63 1_555 1_555
C64 C60 1_555 1_555
C65 C64 1_555 1_555
H42 C65 1_555 1_555
C66 C65 1_555 1_555
H43 C66 1_555 1_555
C67 N23 1_555 1_555
H44 C67 1_555 1_555
N24 Pd5 1_555 1_555
C68 N24 1_555 1_555
H45 C68 1_555 1_555
C69 C62 1_555 1_555
C70 C69 1_555 1_555
H46 C70 1_555 1_555
C71 C70 1_555 1_555
H47 C71 1_555 1_555
C72 N24 1_555 1_555
H48 C72 1_555 1_555
N25 Pd1 1_555 1_555
H49 N25 1_555 1_555
H50 N25 1_555 1_555
N26 Pd1 1_555 1_555
H51 N26 1_555 1_555
H52 N26 1_555 1_555
C73 N25 1_555 1_555
H53 C73 1_555 1_555
C74 N26 1_555 1_555
H54 C74 1_555 1_555
C75 C74 1_555 1_555
H55 C75 1_555 1_555
H56 C75 1_555 1_555
C76 C75 1_555 1_555
H57 C76 1_555 1_555
H58 C76 1_555 1_555
C77 C76 1_555 1_555
H59 C77 1_555 1_555
H60 C77 1_555 1_555
C78 C73 1_555 1_555
H61 C78 1_555 1_555
H62 C78 1_555 1_555
N27 Pd2 1_555 1_555
H63 N27 1_555 1_555
H64 N27 1_555 1_555
N28 Pd2 1_555 1_555
H65 N28 1_555 1_555
H66 N28 1_555 1_555
C79 N27 1_555 1_555
H67 C79 1_555 1_555
C80 N28 1_555 1_555
H68 C80 1_555 1_555
C81 C80 1_555 1_555
H69 C81 1_555 1_555
H70 C81 1_555 1_555
C82 C81 1_555 1_555
H71 C82 1_555 1_555
H72 C82 1_555 1_555
C83 C82 1_555 1_555
H73 C83 1_555 1_555
H74 C83 1_555 1_555
C84 C79 1_555 1_555
H75 C84 1_555 1_555
H76 C84 1_555 1_555
N29 Pd3 1_555 1_555
H77 N29 1_555 1_555
H78 N29 1_555 1_555
N30 Pd3 1_555 1_555
H79 N30 1_555 1_555
H80 N30 1_555 1_555
C85 N29 1_555 1_555
H81 C85 1_555 1_555
C86 N30 1_555 1_555
H82 C86 1_555 1_555
C87 C86 1_555 1_555
H83 C87 1_555 1_555
H84 C87 1_555 1_555
C88 C87 1_555 1_555
H85 C88 1_555 1_555
H86 C88 1_555 1_555
C89 C88 1_555 1_555
H87 C89 1_555 1_555
H88 C89 1_555 1_555
C90 C85 1_555 1_555
H89 C90 1_555 1_555
H90 C90 1_555 1_555
N31 Pd4 1_555 1_555
H91 N31 1_555 1_555
H92 N31 1_555 1_555
N32 Pd4 1_555 1_555
H93 N32 1_555 1_555
H94 N32 1_555 1_555
C91 N31 1_555 1_555
H95 C91 1_555 1_555
C92 N32 1_555 1_555
H96 C92 1_555 1_555
C93 C92 1_555 1_555
H97 C93 1_555 1_555
H98 C93 1_555 1_555
C94 C93 1_555 1_555
H99 C94 1_555 1_555
H100 C94 1_555 1_555
C95 C94 1_555 1_555
H101 C95 1_555 1_555
H102 C95 1_555 1_555
C96 C91 1_555 1_555
H103 C96 1_555 1_555
H104 C96 1_555 1_555
N33 Pd5 1_555 1_555
H105 N33 1_555 1_555
H106 N33 1_555 1_555
N34 Pd5 1_555 1_555
H107 N34 1_555 1_555
H108 N34 1_555 1_555
C97 N33 1_555 1_555
H109 C97 1_555 1_555
C98 N34 1_555 1_555
H110 C98 1_555 1_555
C99 C98 1_555 1_555
H111 C99 1_555 1_555
H112 C99 1_555 1_555
C100 C99 1_555 1_555
H113 C100 1_555 1_555
H114 C100 1_555 1_555
C101 C100 1_555 1_555
H115 C101 1_555 1_555
H116 C101 1_555 1_555
C102 C97 1_555 1_555
H117 C102 1_555 1_555
H118 C102 1_555 1_555
N35 Pd6 1_555 1_555
H119 N35 1_555 1_555
H120 N35 1_555 1_555
N36 Pd6 1_555 1_555
H121 N36 1_555 1_555
H122 N36 1_555 1_555
C103 N35 1_555 1_555
H123 C103 1_555 1_555
C104 N36 1_555 1_555
H124 C104 1_555 1_555
C105 C104 1_555 1_555
H125 C105 1_555 1_555
H126 C105 1_555 1_555
C106 C105 1_555 1_555
H127 C106 1_555 1_555
H128 C106 1_555 1_555
C107 C106 1_555 1_555
H129 C107 1_555 1_555
H130 C107 1_555 1_555
C108 C103 1_555 1_555
H131 C108 1_555 1_555
H132 C108 1_555 1_555
N37 Pd7 1_555 1_555
H133 N37 1_555 1_555
H134 N37 1_555 1_555
N38 Pd7 1_555 1_555
H135 N38 1_555 1_555
H136 N38 1_555 1_555
C109 N37 1_555 1_555
H137 C109 1_555 1_555
C110 N38 1_555 1_555
H138 C110 1_555 1_555
C111 C110 1_555 1_555
H139 C111 1_555 1_555
H140 C111 1_555 1_555
C112 C111 1_555 1_555
H141 C112 1_555 1_555
H142 C112 1_555 1_555
C113 C112 1_555 1_555
H143 C113 1_555 1_555
H144 C113 1_555 1_555
C114 C109 1_555 1_555
H145 C114 1_555 1_555
H146 C114 1_555 1_555
N39 Pd8 1_555 1_555
H147 N39 1_555 1_555
H148 N39 1_555 1_555
N40 Pd8 1_555 1_555
H149 N40 1_555 1_555
H150 N40 1_555 1_555
C115 N39 1_555 1_555
H151 C115 1_555 1_555
C116 N40 1_555 1_555
H152 C116 1_555 1_555
C117 C116 1_555 1_555
H153 C117 1_555 1_555
H154 C117 1_555 1_555
C118 C117 1_555 1_555
H155 C118 1_555 1_555
H156 C118 1_555 1_555
C119 C118 1_555 1_555
H157 C119 1_555 1_555
H158 C119 1_555 1_555
C120 C115 1_555 1_555
H159 C120 1_555 1_555
H160 C120 1_555 1_555
O1 H161 1_555 1_555
O2 H162 1_555 1_555
O3 H163 1_555 1_555
O4 H164 1_555 1_555
C121 O1 1_555 1_555
C122 C121 1_555 1_555
C123 C122 1_555 1_555
H165 C123 1_555 1_555
C124 C123 1_555 1_555
H166 C124 1_555 1_555
C125 C124 1_555 1_555
H167 C125 1_555 1_555
C126 C121 1_555 1_555
C127 C126 1_555 1_555
H168 C127 1_555 1_555
H169 C127 1_555 1_555
C128 O2 1_555 1_555
C129 C127 1_555 1_555
C130 C129 1_555 1_555
H170 C130 1_555 1_555
C131 C130 1_555 1_555
H171 C131 1_555 1_555
C132 C131 1_555 1_555
H172 C132 1_555 1_555
C133 C128 1_555 1_555
C134 C133 1_555 1_555
H173 C134 1_555 1_555
H174 C134 1_555 1_555
C135 O3 1_555 1_555
C136 C134 1_555 1_555
C137 C136 1_555 1_555
H175 C137 1_555 1_555
C138 C137 1_555 1_555
H176 C138 1_555 1_555
C139 C138 1_555 1_555
H177 C139 1_555 1_555
C140 C135 1_555 1_555
C141 C140 1_555 1_555
H178 C141 1_555 1_555
H179 C141 1_555 1_555
C142 O4 1_555 1_555
C143 C141 1_555 1_555
C144 C143 1_555 1_555
H180 C144 1_555 1_555
C145 C144 1_555 1_555
H181 C145 1_555 1_555
C146 C145 1_555 1_555
H182 C146 1_555 1_555
C147 C142 1_555 1_555
C148 C122 1_555 1_555
H183 C148 1_555 1_555
H184 C148 1_555 1_555
N41 O5 1_555 1_555
O6 N41 1_555 1_555
O7 N41 1_555 1_555
N42 O8 1_555 1_555
O9 N42 1_555 1_555
O10 N42 1_555 1_555
N43 O11 1_555 1_555
O12 N43 1_555 1_555
O13 N43 1_555 1_555
N44 O14 1_555 1_555
O15 N44 1_555 1_555
O16 N44 1_555 1_555
N45 O17 1_555 1_555
O18 N45 1_555 1_555
O19 N45 1_555 1_555
N46 O20 1_555 1_555
O21 N46 1_555 1_555
O22 N46 1_555 1_555
N47 O23 1_555 1_555
O24 N47 1_555 1_555
O25 N47 1_555 1_555
N48 O26 1_555 1_555
O27 N48 1_555 1_555
O28 N48 1_555 1_555
N49 O29 1_555 1_555
O30 N49 1_555 1_555
O31 N49 1_555 1_555
N50 O32 1_555 1_555
O33 N50 1_555 1_555
O34 N50 1_555 1_555
N51 O35 1_555 1_555
O36 N51 1_555 1_555
O37 N51 1_555 1_555
N52 O64 1_555 1_555
O65 N52 1_555 1_555
O66 N52 1_555 1_555
C3 C4 1_555 1_555
C7 C8 1_555 1_555
C9 C10 1_555 1_555
C12 C13 1_555 1_555
C14 C15 1_555 1_555
C17 C18 1_555 1_555
C21 C22 1_555 1_555
C25 C26 1_555 1_555
C27 C28 1_555 1_555
C30 C31 1_555 1_555
C32 C33 1_555 1_555
C35 C36 1_555 1_555
C39 C40 1_555 1_555
C43 C44 1_555 1_555
C45 C46 1_555 1_555
C48 C49 1_555 1_555
C50 C51 1_555 1_555
C53 C54 1_555 1_555
N20 C55 1_555 1_555
C57 C58 1_555 1_555
C61 C62 1_555 1_555
C63 C64 1_555 1_555
C66 C67 1_555 1_555
C68 C69 1_555 1_555
C71 C72 1_555 1_555
C73 C74 1_555 1_555
C77 C78 1_555 1_555
C79 C80 1_555 1_555
C83 C84 1_555 1_555
C85 C86 1_555 1_555
C89 C90 1_555 1_555
C91 C92 1_555 1_555
C95 C96 1_555 1_555
C97 C98 1_555 1_555
C101 C102 1_555 1_555
C103 C104 1_555 1_555
C107 C108 1_555 1_555
C109 C110 1_555 1_555
C113 C114 1_555 1_555
C115 C116 1_555 1_555
C119 C120 1_555 1_555
C125 C126 1_555 1_555
C128 C129 1_555 1_555
C132 C133 1_555 1_555
C135 C136 1_555 1_555
C139 C140 1_555 1_555
C142 C143 1_555 1_555
C146 C147 1_555 1_555
C147 C148 1_555 1_555

#END
