
#######################################################################
#
#                 Cambridge Crystallographic Data Centre
#                                CCDC 
#
#######################################################################
#
# If this CIF has been generated from an entry in the Cambridge 
# Structural Database, then it will include bibliographic, chemical, 
# crystal, experimental, refinement or atomic coordinate data resulting 
# from the CCDC's data processing and validation procedures.
#
#######################################################################

data_BOGZAA
_chemical_formula_moiety         
'C66 H84 N30 Pd6 12+,12(N1 O3 1-),4(C3 H6 O1),5(H2 O1)'
_chemical_name_systematic        
"tris(\m~4~-4,6-bis(Pyridin-3-yl)-2,5'-bipyrimidine)-hexakis(1,2-diaminoethane)-hexa-palladium dodecanitrate acetone solvate pentahydrate"
_symmetry_cell_setting           triclinic
_symmetry_space_group_name_H-M   'P -1'
_symmetry_Int_Tables_number      2
_space_group_name_Hall           '-P 1'
loop_
_symmetry_equiv_pos_site_id
_symmetry_equiv_pos_as_xyz
1 x,y,z
2 -x,-y,-z
_cell_length_a                   14.7826(19)
_cell_length_b                   18.527(2)
_cell_length_c                   23.715(3)
_cell_angle_alpha                71.0710(10)
_cell_angle_beta                 77.528(2)
_cell_angle_gamma                68.304(2)
_cell_volume                     5674.34
_exptl_crystal_colour            yellow
_exptl_crystal_description       plate
_chemical_melting_point          '190 deg.C (dec.)'
_cell_formula_units_Z            2
loop_
_atom_site_label
_atom_site_type_symbol
_atom_site_fract_x
_atom_site_fract_y
_atom_site_fract_z
Pd1 Pd 0.03591(5) 0.37945(4) 0.35040(3)
Pd2 Pd 0.02671(5) 0.24507(4) 0.15940(3)
Pd3 Pd 0.21533(5) 0.03428(4) 0.37499(3)
Pd4 Pd 0.31144(5) 0.62932(4) 0.29748(3)
Pd5 Pd 0.26683(5) 0.31019(4) -0.10429(3)
Pd6 Pd 0.70883(6) -0.14494(4) 0.36195(3)
C1 C 0.0378(6) 0.3344(5) 0.2417(4)
H1 H 0.0029 0.3017 0.2701
C2 C 0.1082(6) 0.3731(5) 0.1453(4)
H2 H 0.1239 0.3690 0.1052
C3 C 0.1387(7) 0.4253(5) 0.1617(4)
C4 C 0.1157(6) 0.4282(5) 0.2213(4)
H3 H 0.1367 0.4625 0.2340
C5 C 0.2032(7) 0.4685(5) 0.1192(4)
C6 C 0.2917(7) 0.4904(5) 0.0273(4)
C7 C 0.3270(8) 0.5382(6) 0.0442(4)
H4 H 0.3724 0.5623 0.0177
C8 C 0.2946(7) 0.5508(6) 0.1014(4)
C9 C 0.2920(7) 0.4135(5) -0.0413(4)
H5 H 0.2521 0.3883 -0.0103
C10 C 0.3214(7) 0.4714(5) -0.0313(4)
C11 C 0.3797(8) 0.5076(6) -0.0773(5)
H6 H 0.4013 0.5473 -0.0723
C12 C 0.4060(9) 0.4852(7) -0.1305(5)
H7 H 0.4463 0.5090 -0.1624
C13 C 0.3725(8) 0.4274(6) -0.1364(4)
H8 H 0.3895 0.4128 -0.1731
C14 C 0.3115(7) 0.5961(5) 0.1843(4)
H9 H 0.2835 0.5570 0.2105
C15 C 0.3257(8) 0.6031(6) 0.1227(4)
C16 C 0.3637(9) 0.6614(7) 0.0847(4)
H10 H 0.3734 0.6682 0.0426
C17 C 0.3879(10) 0.7105(7) 0.1090(5)
H11 H 0.4149 0.7508 0.0838
C18 C 0.3715(9) 0.6993(6) 0.1708(5)
H12 H 0.3864 0.7336 0.1872
C19 C 0.1523(6) 0.2050(5) 0.3721(3)
H13 H 0.0901 0.2002 0.3733
C20 C 0.2447(6) 0.2851(5) 0.3660(3)
H14 H 0.2493 0.3365 0.3614
C21 C 0.3277(6) 0.2184(5) 0.3719(3)
C22 C 0.3174(6) 0.1451(5) 0.3756(3)
H15 H 0.3738 0.0983 0.3779
C23 C 0.4245(6) 0.2263(5) 0.3680(4)
C24 C 0.5153(7) 0.3080(5) 0.3506(4)
C25 C 0.6013(7) 0.2415(5) 0.3520(4)
H16 H 0.6645 0.2472 0.3449
C26 C 0.5886(6) 0.1659(5) 0.3644(4)
C27 C 0.4346(7) 0.4565(5) 0.3248(4)
H17 H 0.3750 0.4470 0.3267
C28 C 0.5201(7) 0.3913(5) 0.3362(4)
C29 C 0.6070(7) 0.4068(6) 0.3334(5)
H18 H 0.6664 0.3635 0.3415
C30 C 0.6052(8) 0.4855(6) 0.3188(5)
H19 H 0.6637 0.4969 0.3164
C31 C 0.5199(7) 0.5467(5) 0.3079(4)
H20 H 0.5196 0.6008 0.2979
C32 C 0.6611(6) 0.0228(5) 0.3637(3)
H21 H 0.5970 0.0246 0.3609
C33 C 0.6751(6) 0.0912(5) 0.3668(4)
C34 C 0.7681(7) 0.0878(5) 0.3721(4)
H22 H 0.7791 0.1336 0.3753
C35 C 0.8451(7) 0.0163(6) 0.3727(5)
H23 H 0.9098 0.0126 0.3757
C36 C 0.8254(7) -0.0495(6) 0.3688(4)
H24 H 0.8778 -0.0986 0.3692
C37 C 0.1439(7) 0.1249(5) 0.2565(4)
H25 H 0.0834 0.1396 0.2806
C38 C 0.3086(6) 0.0523(5) 0.2499(4)
H26 H 0.3654 0.0165 0.2687
C39 C 0.3152(6) 0.0829(5) 0.1880(4)
C40 C 0.2310(6) 0.1365(5) 0.1631(4)
H27 H 0.2335 0.1592 0.1209
C41 C 0.4101(7) 0.0633(5) 0.1505(4)
C42 C 0.5756(7) 0.0047(5) 0.1443(4)
C43 C 0.5781(7) 0.0341(5) 0.0816(4)
H28 H 0.6386 0.0227 0.0568
C44 C 0.4929(6) 0.0789(5) 0.0567(4)
C45 C 0.6524(7) -0.0699(5) 0.2388(4)
H29 H 0.5879 -0.0589 0.2591
C46 C 0.6636(6) -0.0427(5) 0.1761(4)
C47 C 0.7577(7) -0.0591(6) 0.1470(4)
H30 H 0.7686 -0.0414 0.1045
C48 C 0.8358(8) -0.1020(7) 0.1811(4)
H31 H 0.9009 -0.1150 0.1619
C49 C 0.8195(7) -0.1254(6) 0.2420(4)
H32 H 0.8738 -0.1531 0.2647
C50 C 0.4067(6) 0.1812(5) -0.0271(4)
H33 H 0.3592 0.2028 0.0023
C51 C 0.4873(6) 0.1139(5) -0.0081(3)
C52 C 0.5555(6) 0.0835(5) -0.0517(4)
H34 H 0.6113 0.0375 -0.0407
C53 C 0.5411(7) 0.1212(5) -0.1121(4)
H35 H 0.5875 0.1011 -0.1426
C54 C 0.4605(6) 0.1868(5) -0.1273(4)
H36 H 0.4511 0.2120 -0.1684
C55 C -0.0719(8) 0.4550(6) 0.4443(4)
H37 H -0.0385 0.4951 0.4375
H38 H -0.1075 0.4485 0.4852
C56 C -0.1422(8) 0.4826(6) 0.3980(5)
H39 H -0.1817 0.4462 0.4078
H40 H -0.1871 0.5379 0.3968
C57 C -0.1415(9) 0.2846(8) 0.0990(6)
H41 H -0.1865 0.2668 0.1337
H42 H -0.1806 0.3209 0.0656
C58 C -0.0679(9) 0.2135(8) 0.0806(6)
H43 H -0.1011 0.1796 0.0742
H44 H -0.0284 0.2314 0.0427
C59 C 0.236(4) -0.1293(19) 0.4404(17)
H45 H 0.2077 -0.1737 0.4530
H46 H 0.3080 -0.1533 0.4349
C60 C 0.209(4) -0.0893(17) 0.4855(12)
H47 H 0.2541 -0.1202 0.5170
H48 H 0.1422 -0.0880 0.5041
C61 C 0.1822(11) 0.6797(7) 0.3978(6)
H49 H 0.1313 0.6549 0.4020
H50 H 0.1773 0.6937 0.4355
C62 C 0.1677(10) 0.7510(7) 0.3482(5)
H51 H 0.2113 0.7806 0.3484
H52 H 0.0991 0.7870 0.3519
C63 C 0.0805(8) 0.3621(6) -0.1481(5)
H53 H 0.1031 0.3693 -0.1914
H54 H 0.0093 0.3915 -0.1436
C64 C 0.1003(7) 0.2736(6) -0.1164(5)
H55 H 0.0703 0.2665 -0.0742
H56 H 0.0725 0.2487 -0.1366
C65 C 0.6811(12) -0.2969(7) 0.4262(5)
H57 H 0.7494 -0.3307 0.4334
H58 H 0.6424 -0.3329 0.4320
C66 C 0.6391(12) -0.2462(7) 0.4694(5)
H59 H 0.5680 -0.2188 0.4669
H60 H 0.6492 -0.2802 0.5109
N1 N 0.0567(5) 0.3283(4) 0.1853(3)
N2 N 0.0645(5) 0.3833(4) 0.2610(3)
N3 N 0.2277(6) 0.4557(4) 0.0650(3)
N4 N 0.2328(6) 0.5157(5) 0.1398(3)
N5 N 0.3179(5) 0.3922(4) -0.0927(3)
N6 N 0.3360(6) 0.6425(4) 0.2077(3)
N7 N 0.1568(5) 0.2779(4) 0.3667(3)
N8 N 0.2304(5) 0.1393(4) 0.3759(3)
N9 N 0.4272(5) 0.3002(4) 0.3582(4)
N10 N 0.5010(5) 0.1581(4) 0.3718(3)
N11 N 0.4353(5) 0.5329(4) 0.3110(3)
N12 N 0.7357(5) -0.0461(4) 0.3644(3)
N13 N 0.2220(5) 0.0731(4) 0.2835(3)
N14 N 0.1459(5) 0.1572(4) 0.1976(3)
N15 N 0.4897(6) 0.0193(4) 0.1786(3)
N16 N 0.4063(5) 0.0925(4) 0.0910(3)
N17 N 0.7273(6) -0.1102(4) 0.2711(3)
N18 N 0.3936(5) 0.2165(4) -0.0848(3)
N19 N 0.0010(6) 0.3762(5) 0.4380(3)
H61 H -0.0249 0.3353 0.4577
H62 H 0.0564 0.3661 0.4549
N20 N -0.0817(5) 0.4806(4) 0.3388(3)
H63 H -0.0616 0.5254 0.3239
H64 H -0.1183 0.4810 0.3118
N21 N -0.0873(6) 0.3283(5) 0.1156(4)
H65 H -0.1285 0.3598 0.1399
H66 H -0.0649 0.3612 0.0816
N22 N -0.0041(6) 0.1670(5) 0.1297(3)
H67 H 0.0529 0.1326 0.1158
H68 H -0.0356 0.1367 0.1606
N23 N 0.1979(7) -0.0690(5) 0.3775(4)
H69 H 0.1332 -0.0619 0.3766
H70 H 0.2348 -0.0885 0.3457
N24 N 0.2125(8) -0.0097(5) 0.4642(3)
H71 H 0.2673 -0.0084 0.4758
H72 H 0.1585 0.0232 0.4819
N25 N 0.2820(7) 0.6218(5) 0.3860(3)
H73 H 0.2841 0.5701 0.4074
H74 H 0.3283 0.6341 0.3981
N26 N 0.1902(6) 0.7271(5) 0.2906(4)
H75 H 0.2006 0.7687 0.2588
H76 H 0.1385 0.7152 0.2843
N27 N 0.1344(5) 0.3940(5) -0.1207(4)
H77 H 0.0997 0.4046 -0.0855
H78 H 0.1420 0.4412 -0.1464
N28 N 0.2087(5) 0.2356(4) -0.1188(3)
H79 H 0.2339 0.2263 -0.1558
H80 H 0.2243 0.1869 -0.0901
N29 N 0.6786(10) -0.2440(5) 0.3648(4)
H81 H 0.6176 -0.2289 0.3527
H82 H 0.7240 -0.2711 0.3391
N30 N 0.6909(8) -0.1857(5) 0.4525(4)
H83 H 0.7510 -0.2090 0.4671
H84 H 0.6549 -0.1435 0.4688
N31 N 0.3112(6) 0.3308(5) 0.7372(3)
O1 O 0.3511(5) 0.3432(4) 0.7720(3)
O2 O 0.3049(6) 0.3755(5) 0.6849(4)
O3 O 0.2773(6) 0.2731(5) 0.7536(4)
N32 N 0.1756(9) 0.7207(7) 0.5652(5)
O4 O 0.2219(7) 0.7510(6) 0.5862(5)
O5 O 0.2191(11) 0.6763(8) 0.5321(6)
O6 O 0.0853(7) 0.7359(7) 0.5824(5)
O7 O 0.1685(19) 0.7837(15) 0.7447(11)
O8 O 0.0501(12) 0.8069(10) 0.6614(8)
N33 N 0.7909(18) 0.5543(15) 0.5640(11)
O9 O 0.8155(12) 0.5218(10) 0.6207(8)
O10 O 0.7374(11) 0.5387(9) 0.5425(6)
O11 O 0.8150(13) 0.6196(11) 0.5371(8)
O12 O 0.527(4) 0.553(3) 0.535(2)
N34 N -0.0700(11) -0.1561(9) 0.4863(6)
O13 O 0.0020(11) -0.2053(9) 0.4544(7)
O14 O -0.0386(10) -0.1061(9) 0.4873(6)
O15 O -0.1465(10) -0.1657(8) 0.5019(6)
N35 N 0.8229(8) 0.4338(7) 0.2358(5)
O16 O 0.8236(8) 0.3843(6) 0.2854(5)
O17 O 0.8503(7) 0.4894(6) 0.2303(5)
O18 O 0.7932(10) 0.4317(8) 0.1907(6)
N36 N 0.9661(12) 0.6585(10) 0.3066(7)
O19 O 0.9123(11) 0.6382(9) 0.3508(7)
O20 O 1.0132(10) 0.6190(8) 0.2684(6)
O21 O 0.9985(9) 0.7188(8) 0.3051(6)
N37 N 0.5705(12) 0.1823(10) 0.7095(8)
O22 O 0.5436(16) 0.1920(14) 0.6574(11)
O23 O 0.5657(9) 0.2422(8) 0.7253(6)
O24 O 0.6568(15) 0.1234(12) 0.7258(9)
N38 N 0.0191(11) 0.9883(9) 0.2558(7)
O25 O -0.0005(14) 1.0624(9) 0.2519(9)
O26 O -0.0136(16) 0.9710(13) 0.2186(9)
O27 O 0.0571(15) 0.9365(10) 0.2991(9)
O28 O 0.235(3) 0.866(2) 0.1998(17)
N39 N 0.2024(6) 0.1100(5) 0.0279(4)
O29 O 0.2556(5) 0.0841(4) -0.0149(3)
O30 O 0.1843(5) 0.0619(4) 0.0766(3)
O31 O 0.1713(6) 0.1842(5) 0.0241(4)
O32 O -0.0450(12) 0.3714(10) -0.0184(7)
O33 O 0.4625(6) 0.9499(5) 0.3550(4)
O34 O 0.2238(9) 0.9028(7) 0.0784(6)
O35 O 1.1026(11) 0.7143(9) 0.1718(7)
O36 O 0.1281(12) 0.7238(10) 0.0546(7)
O37 O 0.0929(13) 0.2891(11) 0.5595(8)
O38 O 0.4380(14) 0.6643(11) 0.4130(9)
O39 O 0.4670(14) 0.6504(11) -0.0622(8)
O40 O 0.4141(14) 0.7297(12) 0.5130(9)
O41 O 0.5936(16) 0.4987(14) 0.4687(10)
O42 O 0.1170(17) 0.8476(14) 0.1764(11)
O43 O 0.0345(16) 0.0876(14) 0.9684(10)
O44 O 0.962(2) 0.0186(16) 0.0660(12)
O45 O -0.331(3) 1.317(2) 0.2075(16)
O46 O 0.250(2) 0.8380(17) -0.0266(13)
O47 O 0.3312(9) 0.3175(7) 0.2312(6)
C67 C 0.4078(14) 0.1850(12) 0.2374(10)
C68 C 0.3235(12) 0.2560(9) 0.2319(7)
C69 C 0.2345(16) 0.2387(14) 0.2436(10)
O48 O 0.4839(11) 0.3785(9) 0.1768(7)
N40 N 0.382(2) 0.2610(16) 0.0891(12)
O49 O 0.422(3) 0.221(2) 0.1400(16)
O50 O 0.4414(12) 0.2775(10) 0.0443(7)
O51 O 0.3034(14) 0.2702(11) 0.0909(8)
O52 O 1.392(3) -0.159(2) -0.2045(16)
C70? C 0.187(2) -0.117(2) 0.4352(18)
H85? H 0.2521 -0.1559 0.4465
H86? H 0.1445 -0.1485 0.4370
C71? C 0.1442(18) -0.0672(15) 0.4775(11)
H87? H 0.1455 -0.1014 0.5195
H88? H 0.0755 -0.0340 0.4707
N41? N 0.061(2) 0.8226(17) 0.6435(13)
O53? O 0.076(3) 0.803(2) 0.6981(12)
O54? O 0.105(2) 0.7680(17) 0.6165(14)
O55? O 0.006(2) 0.8910(15) 0.6168(13)
O56? O 0.281(3) 0.655(2) 0.5294(15)
O57? O 0.8133(17) 0.5054(14) 0.6894(10)
O58? O 0.809(3) 0.574(2) 0.5701(18)
O59? O 0.671(3) 0.550(2) 0.5409(18)
N42? N 0.079(2) 0.9445(17) 0.2714(14)
O60? O 0.1692(18) 0.910(3) 0.257(3)
O61? O 0.0150(17) 0.9208(14) 0.2616(11)
O62? O 0.056(2) 0.9972(16) 0.2986(12)
O63? O -0.153(4) 1.085(3) 0.214(2)
O64? O 0.1306(19) 0.3213(16) 0.0298(12)
N43? N 0.396(2) 0.3609(16) 0.2302(18)
O65? O 0.4423(18) 0.4114(15) 0.2108(12)
O66? O 0.3082(18) 0.3828(18) 0.2524(15)
O67? O 0.443(2) 0.2867(15) 0.239(2)
O68? O 0.2605(10) 0.2403(7) 0.2405(5)
O69? O 0.498(4) 0.116(3) 0.260(2)
N44? N 0.5349(14) 0.0133(12) 0.5099(9)
O70? O 0.5585(14) 0.0630(12) 0.5212(8)
O71? O 0.6038(15) -0.0434(11) 0.5018(8)
O72? O 0.4463(14) 0.0352(10) 0.5060(7)
O73? O 0.5983(14) 0.0918(11) 0.5203(8)
N45? N 0.0112(10) 0.4710(8) 0.0003(6)
O74? O 0.0462(12) 0.5156(8) -0.0443(6)
O75? O -0.0182(13) 0.4882(10) 0.0490(6)
O76? O 0.0143(14) 0.4040(9) -0.0029(8)
loop_
_geom_bond_atom_site_label_1
_geom_bond_atom_site_label_2
_geom_bond_site_symmetry_1
_geom_bond_site_symmetry_2
Pd1 N2 1_555 1_555
Pd2 N1 1_555 1_555
Pd3 N8 1_555 1_555
Pd4 N6 1_555 1_555
Pd5 N5 1_555 1_555
Pd6 N12 1_555 1_555
C1 H1 1_555 1_555
C2 H2 1_555 1_555
C3 C2 1_555 1_555
C4 C3 1_555 1_555
H3 C4 1_555 1_555
C5 C3 1_555 1_555
C6 C7 1_555 1_555
C7 H4 1_555 1_555
C8 C7 1_555 1_555
C9 H5 1_555 1_555
C10 C6 1_555 1_555
C11 C10 1_555 1_555
H6 C11 1_555 1_555
C12 C11 1_555 1_555
H7 C12 1_555 1_555
C13 C12 1_555 1_555
H8 C13 1_555 1_555
C14 H9 1_555 1_555
C15 C8 1_555 1_555
C16 C15 1_555 1_555
H10 C16 1_555 1_555
C17 C16 1_555 1_555
H11 C17 1_555 1_555
C18 C17 1_555 1_555
H12 C18 1_555 1_555
C19 H13 1_555 1_555
C20 H14 1_555 1_555
C21 C20 1_555 1_555
C22 C21 1_555 1_555
H15 C22 1_555 1_555
C23 C21 1_555 1_555
C24 C25 1_555 1_555
C25 H16 1_555 1_555
C26 C25 1_555 1_555
C27 H17 1_555 1_555
C28 C24 1_555 1_555
C29 C28 1_555 1_555
H18 C29 1_555 1_555
C30 C29 1_555 1_555
H19 C30 1_555 1_555
C31 C30 1_555 1_555
H20 C31 1_555 1_555
C32 H21 1_555 1_555
C33 C26 1_555 1_555
C34 C33 1_555 1_555
H22 C34 1_555 1_555
C35 C34 1_555 1_555
H23 C35 1_555 1_555
C36 C35 1_555 1_555
H24 C36 1_555 1_555
C37 H25 1_555 1_555
C38 H26 1_555 1_555
C39 C38 1_555 1_555
C40 C39 1_555 1_555
H27 C40 1_555 1_555
C41 C39 1_555 1_555
C42 C43 1_555 1_555
C43 H28 1_555 1_555
C44 C43 1_555 1_555
C45 H29 1_555 1_555
C46 C42 1_555 1_555
C47 C46 1_555 1_555
H30 C47 1_555 1_555
C48 C47 1_555 1_555
H31 C48 1_555 1_555
C49 C48 1_555 1_555
H32 C49 1_555 1_555
C50 H33 1_555 1_555
C51 C44 1_555 1_555
C52 C51 1_555 1_555
H34 C52 1_555 1_555
C53 C52 1_555 1_555
H35 C53 1_555 1_555
C54 C53 1_555 1_555
H36 C54 1_555 1_555
C55 H37 1_555 1_555
H38 C55 1_555 1_555
C56 C55 1_555 1_555
H39 C56 1_555 1_555
H40 C56 1_555 1_555
C57 H41 1_555 1_555
H42 C57 1_555 1_555
C58 C57 1_555 1_555
H43 C58 1_555 1_555
H44 C58 1_555 1_555
C59 H45 1_555 1_555
H46 C59 1_555 1_555
C60 C59 1_555 1_555
H47 C60 1_555 1_555
H48 C60 1_555 1_555
C61 H49 1_555 1_555
H50 C61 1_555 1_555
C62 C61 1_555 1_555
H51 C62 1_555 1_555
H52 C62 1_555 1_555
C63 H53 1_555 1_555
H54 C63 1_555 1_555
C64 C63 1_555 1_555
H55 C64 1_555 1_555
H56 C64 1_555 1_555
C65 H57 1_555 1_555
H58 C65 1_555 1_555
C66 C65 1_555 1_555
H59 C66 1_555 1_555
H60 C66 1_555 1_555
N1 C1 1_555 1_555
N2 C1 1_555 1_555
N3 C5 1_555 1_555
N4 C5 1_555 1_555
N5 C9 1_555 1_555
N6 C14 1_555 1_555
N7 Pd1 1_555 1_555
N8 C19 1_555 1_555
N9 C23 1_555 1_555
N10 C23 1_555 1_555
N11 Pd4 1_555 1_555
N12 C32 1_555 1_555
N13 Pd3 1_555 1_555
N14 Pd2 1_555 1_555
N15 C41 1_555 1_555
N16 C41 1_555 1_555
N17 Pd6 1_555 1_555
N18 Pd5 1_555 1_555
N19 Pd1 1_555 1_555
H61 N19 1_555 1_555
H62 N19 1_555 1_555
N20 Pd1 1_555 1_555
H63 N20 1_555 1_555
H64 N20 1_555 1_555
N21 Pd2 1_555 1_555
H65 N21 1_555 1_555
H66 N21 1_555 1_555
N22 Pd2 1_555 1_555
H67 N22 1_555 1_555
H68 N22 1_555 1_555
N23 Pd3 1_555 1_555
H69 N23 1_555 1_555
H70 N23 1_555 1_555
N24 Pd3 1_555 1_555
H71 N24 1_555 1_555
H72 N24 1_555 1_555
N25 Pd4 1_555 1_555
H73 N25 1_555 1_555
H74 N25 1_555 1_555
N26 Pd4 1_555 1_555
H75 N26 1_555 1_555
H76 N26 1_555 1_555
N27 Pd5 1_555 1_555
H77 N27 1_555 1_555
H78 N27 1_555 1_555
N28 Pd5 1_555 1_555
H79 N28 1_555 1_555
H80 N28 1_555 1_555
N29 Pd6 1_555 1_555
H81 N29 1_555 1_555
H82 N29 1_555 1_555
N30 Pd6 1_555 1_555
H83 N30 1_555 1_555
H84 N30 1_555 1_555
N31 O1 1_555 1_555
O2 N31 1_555 1_555
O3 N31 1_555 1_555
N32 O4 1_555 1_555
O5 N32 1_555 1_555
O6 N32 1_555 1_555
N33 O9 1_555 1_555
O10 N33 1_555 1_555
O11 N33 1_555 1_555
N34 O13 1_555 1_555
O14 N34 1_555 1_555
O15 N34 1_555 1_555
N35 O16 1_555 1_555
O17 N35 1_555 1_555
O18 N35 1_555 1_555
N36 O19 1_555 1_555
O20 N36 1_555 1_555
O21 N36 1_555 1_555
N37 O22 1_555 1_555
O23 N37 1_555 1_555
O24 N37 1_555 1_555
N38 O25 1_555 1_555
O26 N38 1_555 1_555
O27 N38 1_555 1_555
N39 O29 1_555 1_555
O30 N39 1_555 1_555
O31 N39 1_555 1_555
O47 C68 1_555 1_555
C67 C68 1_555 1_555
C68 C69 1_555 1_555
N40 O49 1_555 1_555
O50 N40 1_555 1_555
O51 N40 1_555 1_555
C2 N1 1_555 1_555
C4 N2 1_555 1_555
C6 N3 1_555 1_555
C8 N4 1_555 1_555
C9 C10 1_555 1_555
C13 N5 1_555 1_555
C14 C15 1_555 1_555
C18 N6 1_555 1_555
C19 N7 1_555 1_555
C20 N7 1_555 1_555
C22 N8 1_555 1_555
C24 N9 1_555 1_555
C26 N10 1_555 1_555
C27 C28 1_555 1_555
C27 N11 1_555 1_555
C31 N11 1_555 1_555
C32 C33 1_555 1_555
C36 N12 1_555 1_555
C37 N13 1_555 1_555
C37 N14 1_555 1_555
C38 N13 1_555 1_555
C40 N14 1_555 1_555
C42 N15 1_555 1_555
C44 N16 1_555 1_555
C45 C46 1_555 1_555
C45 N17 1_555 1_555
C49 N17 1_555 1_555
C50 C51 1_555 1_555
C50 N18 1_555 1_555
C54 N18 1_555 1_555
C55 N19 1_555 1_555
C56 N20 1_555 1_555
C57 N21 1_555 1_555
C58 N22 1_555 1_555
C59 N23 1_555 1_555
C60 N24 1_555 1_555
C61 N25 1_555 1_555
C62 N26 1_555 1_555
C63 N27 1_555 1_555
C64 N28 1_555 1_555
C65 N29 1_555 1_555
C66 N30 1_555 1_555

#END
