# generated using pymatgen
data_HoCd3H58C45(NO6)3
_symmetry_space_group_name_H-M   'P 1'
_cell_length_a   41.45731318
_cell_length_b   41.45731318
_cell_length_c   48.45132597
_cell_angle_alpha   111.92839767
_cell_angle_beta   111.92839767
_cell_angle_gamma   97.30208002
_symmetry_Int_Tables_number   1
_chemical_formula_structural   HoCd3H58C45(NO6)3
_chemical_formula_sum   'Ho32 Cd96 H1856 C1440 N96 O576'
_cell_volume   68135.38674170
_cell_formula_units_Z   32
loop_
 _symmetry_equiv_pos_site_id
 _symmetry_equiv_pos_as_xyz
  1  'x, y, z'
loop_
 _atom_site_type_symbol
 _atom_site_label
 _atom_site_symmetry_multiplicity
 _atom_site_fract_x
 _atom_site_fract_y
 _atom_site_fract_z
 _atom_site_occupancy
  C  C1  1  0.254500  0.511100  0.435200  1.0
  C  C2  1  0.680700  0.924100  0.435200  1.0
  C  C3  1  0.988900  0.245500  0.064800  1.0
  C  C4  1  0.575900  0.819300  0.064800  1.0
  C  C5  1  0.745500  0.488900  0.564800  1.0
  C  C6  1  0.319300  0.075900  0.564800  1.0
  C  C7  1  0.011100  0.754500  0.935200  1.0
  C  C8  1  0.424100  0.180700  0.935200  1.0
  C  C9  1  0.219300  0.539500  0.409800  1.0
  C  C10  1  0.690500  0.870300  0.409800  1.0
  C  C11  1  0.960500  0.280700  0.090200  1.0
  C  C12  1  0.629700  0.809500  0.090200  1.0
  C  C13  1  0.780700  0.460500  0.590200  1.0
  C  C14  1  0.309500  0.129700  0.590200  1.0
  C  C15  1  0.039500  0.719300  0.909800  1.0
  C  C16  1  0.370300  0.190500  0.909800  1.0
  C  C17  1  0.190590  0.528990  0.416180  1.0
  C  C18  1  0.725590  0.887190  0.416180  1.0
  C  C19  1  0.971010  0.309410  0.083820  1.0
  C  C20  1  0.612810  0.774410  0.083820  1.0
  C  C21  1  0.809410  0.471010  0.583820  1.0
  C  C22  1  0.274410  0.112810  0.583820  1.0
  C  C23  1  0.028990  0.690590  0.916180  1.0
  C  C24  1  0.387190  0.225590  0.916180  1.0
  C  C25  1  0.160360  0.537160  0.402920  1.0
  C  C26  1  0.742560  0.865760  0.402920  1.0
  C  C27  1  0.962840  0.339640  0.097080  1.0
  C  C28  1  0.634240  0.757440  0.097080  1.0
  C  C29  1  0.839640  0.462840  0.597080  1.0
  C  C30  1  0.257440  0.134240  0.597080  1.0
  C  C31  1  0.037160  0.660360  0.902920  1.0
  C  C32  1  0.365760  0.242560  0.902920  1.0
  C  C33  1  0.152740  0.556740  0.382280  1.0
  C  C34  1  0.729540  0.825540  0.382280  1.0
  C  C35  1  0.943260  0.347260  0.117720  1.0
  C  C36  1  0.674460  0.770460  0.117720  1.0
  C  C37  1  0.847260  0.443260  0.617720  1.0
  C  C38  1  0.270460  0.174460  0.617720  1.0
  C  C39  1  0.056740  0.652740  0.882280  1.0
  C  C40  1  0.325540  0.229540  0.882280  1.0
  C  C41  1  0.182480  0.569280  0.375760  1.0
  C  C42  1  0.693280  0.806480  0.375760  1.0
  C  C43  1  0.930720  0.317520  0.124240  1.0
  C  C44  1  0.693520  0.806720  0.124240  1.0
  C  C45  1  0.817520  0.430720  0.624240  1.0
  C  C46  1  0.306720  0.193520  0.624240  1.0
  C  C47  1  0.069280  0.682480  0.875760  1.0
  C  C48  1  0.306480  0.193280  0.875760  1.0
  C  C49  1  0.215120  0.557920  0.389840  1.0
  C  C50  1  0.674720  0.831920  0.389840  1.0
  C  C51  1  0.942080  0.284880  0.110160  1.0
  C  C52  1  0.668080  0.825280  0.110160  1.0
  C  C53  1  0.784880  0.442080  0.610160  1.0
  C  C54  1  0.325280  0.168080  0.610160  1.0
  C  C55  1  0.057920  0.715120  0.889840  1.0
  C  C56  1  0.331920  0.174720  0.889840  1.0
  C  C57  1  0.174760  0.588360  0.356120  1.0
  C  C58  1  0.681360  0.767760  0.356120  1.0
  C  C59  1  0.911640  0.325240  0.143880  1.0
  C  C60  1  0.732240  0.818640  0.143880  1.0
  C  C61  1  0.825240  0.411640  0.643880  1.0
  C  C62  1  0.318640  0.232240  0.643880  1.0
  C  C63  1  0.088360  0.674760  0.856120  1.0
  C  C64  1  0.267760  0.181360  0.856120  1.0
  C  C65  1  0.185180  0.618780  0.327560  1.0
  C  C66  1  0.642380  0.708780  0.327560  1.0
  C  C67  1  0.881220  0.314820  0.172440  1.0
  C  C68  1  0.791220  0.857620  0.172440  1.0
  C  C69  1  0.814820  0.381220  0.672440  1.0
  C  C70  1  0.357620  0.291220  0.672440  1.0
  C  C71  1  0.118780  0.685180  0.827560  1.0
  C  C72  1  0.208780  0.142380  0.827560  1.0
  C  C73  1  0.169630  0.585030  0.291260  1.0
  C  C74  1  0.621630  0.706230  0.291260  1.0
  C  C75  1  0.914970  0.330370  0.208740  1.0
  C  C76  1  0.793770  0.878370  0.208740  1.0
  C  C77  1  0.830370  0.414970  0.708740  1.0
  C  C78  1  0.378370  0.293770  0.708740  1.0
  C  C79  1  0.085030  0.669630  0.791260  1.0
  C  C80  1  0.206230  0.121630  0.791260  1.0
  C  C81  1  0.154290  0.597090  0.262980  1.0
  C  C82  1  0.608690  0.665890  0.262980  1.0
  C  C83  1  0.902910  0.345710  0.237020  1.0
  C  C84  1  0.834110  0.891310  0.237020  1.0
  C  C85  1  0.845710  0.402910  0.737020  1.0
  C  C86  1  0.391310  0.334110  0.737020  1.0
  C  C87  1  0.097090  0.654290  0.762980  1.0
  C  C88  1  0.165890  0.108690  0.762980  1.0
  C  C89  1  0.139300  0.562300  0.228600  1.0
  C  C90  1  0.589300  0.666300  0.228600  1.0
  C  C91  1  0.937700  0.360700  0.271400  1.0
  C  C92  1  0.833700  0.910700  0.271400  1.0
  C  C93  1  0.860700  0.437700  0.771400  1.0
  C  C94  1  0.410700  0.333700  0.771400  1.0
  C  C95  1  0.062300  0.639300  0.728600  1.0
  C  C96  1  0.166300  0.089300  0.728600  1.0
  C  C97  1  0.129120  0.573320  0.200440  1.0
  C  C98  1  0.571320  0.627120  0.200440  1.0
  C  C99  1  0.926680  0.370880  0.299560  1.0
  C  C100  1  0.872880  0.928680  0.299560  1.0
  C  C101  1  0.870880  0.426680  0.799560  1.0
  C  C102  1  0.428680  0.372880  0.799560  1.0
  C  C103  1  0.073320  0.629120  0.700440  1.0
  C  C104  1  0.127120  0.071320  0.700440  1.0
  C  C105  1  0.109350  0.536950  0.166100  1.0
  C  C106  1  0.556750  0.629150  0.166100  1.0
  C  C107  1  0.963050  0.390650  0.333900  1.0
  C  C108  1  0.870850  0.943250  0.333900  1.0
  C  C109  1  0.890650  0.463050  0.833900  1.0
  C  C110  1  0.443250  0.370850  0.833900  1.0
  C  C111  1  0.036950  0.609350  0.666100  1.0
  C  C112  1  0.129150  0.056750  0.666100  1.0
  C  C113  1  0.073250  0.553850  0.124100  1.0
  C  C114  1  0.550850  0.570250  0.124100  1.0
  C  C115  1  0.946150  0.426750  0.375900  1.0
  C  C116  1  0.929750  0.949150  0.375900  1.0
  C  C117  1  0.926750  0.446150  0.875900  1.0
  C  C118  1  0.449150  0.429750  0.875900  1.0
  C  C119  1  0.053850  0.573250  0.624100  1.0
  C  C120  1  0.070250  0.050850  0.624100  1.0
  C  C121  1  0.063880  0.567480  0.099160  1.0
  C  C122  1  0.535280  0.531680  0.099160  1.0
  C  C123  1  0.932520  0.436120  0.400840  1.0
  C  C124  1  0.968320  0.964720  0.400840  1.0
  C  C125  1  0.936120  0.432520  0.900840  1.0
  C  C126  1  0.464720  0.468320  0.900840  1.0
  C  C127  1  0.067480  0.563880  0.599160  1.0
  C  C128  1  0.031680  0.035280  0.599160  1.0
  C  C129  1  0.025370  0.563770  0.083140  1.0
  C  C130  1  0.557770  0.519370  0.083140  1.0
  C  C131  1  0.936230  0.474630  0.416860  1.0
  C  C132  1  0.980630  0.942230  0.416860  1.0
  C  C133  1  0.974630  0.436230  0.916860  1.0
  C  C134  1  0.442230  0.480630  0.916860  1.0
  C  C135  1  0.063770  0.525370  0.583140  1.0
  C  C136  1  0.019370  0.057770  0.583140  1.0
  C  C137  1  0.015810  0.578010  0.060220  1.0
  C  C138  1  0.544410  0.482210  0.060220  1.0
  C  C139  1  0.921990  0.484190  0.439780  1.0
  C  C140  1  0.017790  0.955590  0.439780  1.0
  C  C141  1  0.984190  0.421990  0.939780  1.0
  C  C142  1  0.455590  0.517790  0.939780  1.0
  C  C143  1  0.078010  0.515810  0.560220  1.0
  C  C144  1  0.982210  0.044410  0.560220  1.0
  C  C145  1  0.039950  0.599150  0.057500  1.0
  C  C146  1  0.517550  0.458350  0.057500  1.0
  C  C147  1  0.900850  0.460050  0.442500  1.0
  C  C148  1  0.041650  0.982450  0.442500  1.0
  C  C149  1  0.960050  0.400850  0.942500  1.0
  C  C150  1  0.482450  0.541650  0.942500  1.0
  C  C151  1  0.099150  0.539950  0.557500  1.0
  C  C152  1  0.958350  0.017550  0.557500  1.0
  C  C153  1  0.077600  0.603000  0.076200  1.0
  C  C154  1  0.498600  0.473200  0.076200  1.0
  C  C155  1  0.897000  0.422400  0.423800  1.0
  C  C156  1  0.026800  0.001400  0.423800  1.0
  C  C157  1  0.922400  0.397000  0.923800  1.0
  C  C158  1  0.501400  0.526800  0.923800  1.0
  C  C159  1  0.103000  0.577600  0.576200  1.0
  C  C160  1  0.973200  0.998600  0.576200  1.0
  C  C161  1  0.092900  0.587900  0.097000  1.0
  C  C162  1  0.504100  0.509100  0.097000  1.0
  C  C163  1  0.912100  0.407100  0.403000  1.0
  C  C164  1  0.990900  0.995900  0.403000  1.0
  C  C165  1  0.907100  0.412100  0.903000  1.0
  C  C166  1  0.495900  0.490900  0.903000  1.0
  C  C167  1  0.087900  0.592900  0.597000  1.0
  C  C168  1  0.009100  0.004100  0.597000  1.0
  C  C169  1  0.094100  0.637100  0.047800  1.0
  C  C170  1  0.453700  0.410700  0.047800  1.0
  C  C171  1  0.862900  0.405900  0.452200  1.0
  C  C172  1  0.089300  0.046300  0.452200  1.0
  C  C173  1  0.905900  0.362900  0.952200  1.0
  C  C174  1  0.546300  0.589300  0.952200  1.0
  C  C175  1  0.137100  0.594100  0.547800  1.0
  C  C176  1  0.910700  0.953700  0.547800  1.0
  C  C177  1  0.262070  0.635870  0.456940  1.0
  C  C178  1  0.694870  0.821070  0.456940  1.0
  C  C179  1  0.864130  0.237930  0.043060  1.0
  C  C180  1  0.678930  0.805130  0.043060  1.0
  C  C181  1  0.737930  0.364130  0.543060  1.0
  C  C182  1  0.305130  0.178930  0.543060  1.0
  C  C183  1  0.135870  0.762070  0.956940  1.0
  C  C184  1  0.321070  0.194870  0.956940  1.0
  C  C185  1  0.234210  0.669410  0.428020  1.0
  C  C186  1  0.693810  0.758610  0.428020  1.0
  C  C187  1  0.830590  0.265790  0.071980  1.0
  C  C188  1  0.741390  0.806190  0.071980  1.0
  C  C189  1  0.765790  0.330590  0.571980  1.0
  C  C190  1  0.306190  0.241390  0.571980  1.0
  C  C191  1  0.169410  0.734210  0.928020  1.0
  C  C192  1  0.258610  0.193810  0.928020  1.0
  C  C193  1  0.214520  0.679120  0.446240  1.0
  C  C194  1  0.731720  0.767120  0.446240  1.0
  C  C195  1  0.820880  0.285480  0.053760  1.0
  C  C196  1  0.732880  0.768280  0.053760  1.0
  C  C197  1  0.785480  0.320880  0.553760  1.0
  C  C198  1  0.268280  0.232880  0.553760  1.0
  C  C199  1  0.179120  0.714520  0.946240  1.0
  C  C200  1  0.267120  0.231720  0.946240  1.0
  C  C201  1  0.192490  0.699490  0.439580  1.0
  C  C202  1  0.747090  0.740090  0.439580  1.0
  C  C203  1  0.800510  0.307510  0.060420  1.0
  C  C204  1  0.759910  0.752910  0.060420  1.0
  C  C205  1  0.807510  0.300510  0.560420  1.0
  C  C206  1  0.252910  0.259910  0.560420  1.0
  C  C207  1  0.199490  0.692490  0.939580  1.0
  C  C208  1  0.240090  0.247090  0.939580  1.0
  C  C209  1  0.187870  0.712870  0.415740  1.0
  C  C210  1  0.727870  0.702870  0.415740  1.0
  C  C211  1  0.787130  0.312130  0.084260  1.0
  C  C212  1  0.797130  0.772130  0.084260  1.0
  C  C213  1  0.812130  0.287130  0.584260  1.0
  C  C214  1  0.272130  0.297130  0.584260  1.0
  C  C215  1  0.212870  0.687870  0.915740  1.0
  C  C216  1  0.202870  0.227870  0.915740  1.0
  C  C217  1  0.213460  0.704660  0.401720  1.0
  C  C218  1  0.688260  0.697060  0.401720  1.0
  C  C219  1  0.795340  0.286540  0.098280  1.0
  C  C220  1  0.802940  0.811740  0.098280  1.0
  C  C221  1  0.786540  0.295340  0.598280  1.0
  C  C222  1  0.311740  0.302940  0.598280  1.0
  C  C223  1  0.204660  0.713460  0.901720  1.0
  C  C224  1  0.197060  0.188260  0.901720  1.0
  C  C225  1  0.236170  0.681970  0.406140  1.0
  C  C226  1  0.669970  0.724170  0.406140  1.0
  C  C227  1  0.818030  0.263830  0.093860  1.0
  C  C228  1  0.775830  0.830030  0.093860  1.0
  C  C229  1  0.763830  0.318030  0.593860  1.0
  C  C230  1  0.330030  0.275830  0.593860  1.0
  C  C231  1  0.181970  0.736170  0.906140  1.0
  C  C232  1  0.224170  0.169970  0.906140  1.0
  C  C233  1  0.207830  0.719430  0.377460  1.0
  C  C234  1  0.669630  0.658030  0.377460  1.0
  C  C235  1  0.780570  0.292170  0.122540  1.0
  C  C236  1  0.841970  0.830370  0.122540  1.0
  C  C237  1  0.792170  0.280570  0.622540  1.0
  C  C238  1  0.330370  0.341970  0.622540  1.0
  C  C239  1  0.219430  0.707830  0.877460  1.0
  C  C240  1  0.158030  0.169630  0.877460  1.0
  C  C241  1  0.215170  0.734770  0.336140  1.0
  C  C242  1  0.620970  0.601370  0.336140  1.0
  C  C243  1  0.765230  0.284830  0.163860  1.0
  C  C244  1  0.898630  0.879030  0.163860  1.0
  C  C245  1  0.784830  0.265230  0.663860  1.0
  C  C246  1  0.379030  0.398630  0.663860  1.0
  C  C247  1  0.234770  0.715170  0.836140  1.0
  C  C248  1  0.101370  0.120970  0.836140  1.0
  C  C249  1  0.192780  0.697380  0.300760  1.0
  C  C250  1  0.607980  0.603380  0.300760  1.0
  C  C251  1  0.802620  0.307220  0.199240  1.0
  C  C252  1  0.896620  0.892020  0.199240  1.0
  C  C253  1  0.807220  0.302620  0.699240  1.0
  C  C254  1  0.392020  0.396620  0.699240  1.0
  C  C255  1  0.197380  0.692780  0.800760  1.0
  C  C256  1  0.103380  0.107980  0.800760  1.0
  C  C257  1  0.180160  0.711360  0.272520  1.0
  C  C258  1  0.592360  0.561160  0.272520  1.0
  C  C259  1  0.788640  0.319840  0.227480  1.0
  C  C260  1  0.938840  0.907640  0.227480  1.0
  C  C261  1  0.819840  0.288640  0.727480  1.0
  C  C262  1  0.407640  0.438840  0.727480  1.0
  C  C263  1  0.211360  0.680160  0.772520  1.0
  C  C264  1  0.061160  0.092360  0.772520  1.0
  C  C265  1  0.157330  0.676930  0.238660  1.0
  C  C266  1  0.581330  0.561730  0.238660  1.0
  C  C267  1  0.823070  0.342670  0.261340  1.0
  C  C268  1  0.938270  0.918670  0.261340  1.0
  C  C269  1  0.842670  0.323070  0.761340  1.0
  C  C270  1  0.418670  0.438270  0.761340  1.0
  C  C271  1  0.176930  0.657330  0.738660  1.0
  C  C272  1  0.061730  0.081330  0.738660  1.0
  C  C273  1  0.150040  0.690240  0.212480  1.0
  C  C274  1  0.562440  0.522240  0.212480  1.0
  C  C275  1  0.809760  0.349960  0.287520  1.0
  C  C276  1  0.977760  0.937560  0.287520  1.0
  C  C277  1  0.849960  0.309760  0.787520  1.0
  C  C278  1  0.437560  0.477760  0.787520  1.0
  C  C279  1  0.190240  0.650040  0.712480  1.0
  C  C280  1  0.022240  0.062440  0.712480  1.0
  C  C281  1  0.126240  0.656240  0.176680  1.0
  C  C282  1  0.550440  0.520440  0.176680  1.0
  C  C283  1  0.843760  0.373760  0.323320  1.0
  C  C284  1  0.979560  0.949560  0.323320  1.0
  C  C285  1  0.873760  0.343760  0.823320  1.0
  C  C286  1  0.449560  0.479560  0.823320  1.0
  C  C287  1  0.156240  0.626240  0.676680  1.0
  C  C288  1  0.020440  0.050440  0.676680  1.0
  C  C289  1  0.103870  0.687070  0.143540  1.0
  C  C290  1  0.539670  0.456470  0.143540  1.0
  C  C291  1  0.812930  0.396130  0.356460  1.0
  C  C292  1  0.043530  0.960330  0.356460  1.0
  C  C293  1  0.896130  0.312930  0.856460  1.0
  C  C294  1  0.460330  0.543530  0.856460  1.0
  C  C295  1  0.187070  0.603870  0.643540  1.0
  C  C296  1  0.956470  0.039670  0.643540  1.0
  C  C297  1  0.103380  0.705980  0.124360  1.0
  C  C298  1  0.520980  0.418380  0.124360  1.0
  C  C299  1  0.794020  0.396620  0.375640  1.0
  C  C300  1  0.081620  0.979020  0.375640  1.0
  C  C301  1  0.896620  0.294020  0.875640  1.0
  C  C302  1  0.479020  0.581620  0.875640  1.0
  C  C303  1  0.205980  0.603380  0.624360  1.0
  C  C304  1  0.918380  0.020980  0.624360  1.0
  C  C305  1  0.072310  0.719910  0.115220  1.0
  C  C306  1  0.542910  0.395310  0.115220  1.0
  C  C307  1  0.780090  0.427690  0.384780  1.0
  C  C308  1  0.104690  0.957090  0.384780  1.0
  C  C309  1  0.927690  0.280090  0.884780  1.0
  C  C310  1  0.457090  0.604690  0.884780  1.0
  C  C311  1  0.219910  0.572310  0.615220  1.0
  C  C312  1  0.895310  0.042910  0.615220  1.0
  C  C313  1  0.060890  0.738890  0.095380  1.0
  C  C314  1  0.534490  0.356490  0.095380  1.0
  C  C315  1  0.761110  0.439110  0.404620  1.0
  C  C316  1  0.143510  0.965510  0.404620  1.0
  C  C317  1  0.939110  0.261110  0.904620  1.0
  C  C318  1  0.465510  0.643510  0.904620  1.0
  C  C319  1  0.238890  0.560890  0.595380  1.0
  C  C320  1  0.856490  0.034490  0.595380  1.0
  C  C321  1  0.090260  0.746660  0.087320  1.0
  C  C322  1  0.497060  0.340660  0.087320  1.0
  C  C323  1  0.753340  0.409740  0.412680  1.0
  C  C324  1  0.159340  0.002940  0.412680  1.0
  C  C325  1  0.909740  0.253340  0.912680  1.0
  C  C326  1  0.502940  0.659340  0.912680  1.0
  C  C327  1  0.246660  0.590260  0.587320  1.0
  C  C328  1  0.840660  0.997060  0.587320  1.0
  C  C329  1  0.120640  0.733440  0.094480  1.0
  C  C330  1  0.473840  0.361040  0.094480  1.0
  C  C331  1  0.766560  0.379360  0.405520  1.0
  C  C332  1  0.138960  0.026160  0.405520  1.0
  C  C333  1  0.879360  0.266560  0.905520  1.0
  C  C334  1  0.526160  0.638960  0.905520  1.0
  C  C335  1  0.233440  0.620640  0.594480  1.0
  C  C336  1  0.861040  0.973840  0.594480  1.0
  C  C337  1  0.128880  0.713880  0.114360  1.0
  C  C338  1  0.485480  0.400480  0.114360  1.0
  C  C339  1  0.786120  0.371120  0.385640  1.0
  C  C340  1  0.099520  0.014520  0.385640  1.0
  C  C341  1  0.871120  0.286120  0.885640  1.0
  C  C342  1  0.514520  0.599520  0.885640  1.0
  C  C343  1  0.213880  0.628880  0.614360  1.0
  C  C344  1  0.900480  0.985480  0.614360  1.0
  C  C345  1  0.147210  0.761410  0.068420  1.0
  C  C346  1  0.421210  0.307010  0.068420  1.0
  C  C347  1  0.738590  0.352790  0.431580  1.0
  C  C348  1  0.192990  0.078790  0.431580  1.0
  C  C349  1  0.852790  0.238590  0.931580  1.0
  C  C350  1  0.578790  0.692990  0.931580  1.0
  C  C351  1  0.261410  0.647210  0.568420  1.0
  C  C352  1  0.807010  0.921210  0.568420  1.0
  C  C353  1  0.225680  0.805880  0.470360  1.0
  C  C354  1  0.744680  0.664480  0.470360  1.0
  C  C355  1  0.694120  0.274320  0.029640  1.0
  C  C356  1  0.835520  0.755320  0.029640  1.0
  C  C357  1  0.774320  0.194120  0.529640  1.0
  C  C358  1  0.255320  0.335520  0.529640  1.0
  C  C359  1  0.305880  0.725680  0.970360  1.0
  C  C360  1  0.164480  0.244680  0.970360  1.0
  C  C361  1  0.212500  0.807500  0.422000  1.0
  C  C362  1  0.709500  0.614500  0.422000  1.0
  C  C363  1  0.692500  0.287500  0.078000  1.0
  C  C364  1  0.885500  0.790500  0.078000  1.0
  C  C365  1  0.787500  0.192500  0.578000  1.0
  C  C366  1  0.290500  0.385500  0.578000  1.0
  C  C367  1  0.307500  0.712500  0.922000  1.0
  C  C368  1  0.114500  0.209500  0.922000  1.0
  C  C369  1  0.177070  0.805670  0.410740  1.0
  C  C370  1  0.733670  0.605070  0.410740  1.0
  C  C371  1  0.694330  0.322930  0.089260  1.0
  C  C372  1  0.894930  0.766330  0.089260  1.0
  C  C373  1  0.822930  0.194330  0.589260  1.0
  C  C374  1  0.266330  0.394930  0.589260  1.0
  C  C375  1  0.305670  0.677070  0.910740  1.0
  C  C376  1  0.105070  0.233670  0.910740  1.0
  C  C377  1  0.156200  0.812400  0.384400  1.0
  C  C378  1  0.728200  0.572000  0.384400  1.0
  C  C379  1  0.687600  0.343800  0.115600  1.0
  C  C380  1  0.928000  0.771800  0.115600  1.0
  C  C381  1  0.843800  0.187600  0.615600  1.0
  C  C382  1  0.271800  0.428000  0.615600  1.0
  C  C383  1  0.312400  0.656200  0.884400  1.0
  C  C384  1  0.072000  0.228200  0.884400  1.0
  C  C385  1  0.169800  0.818800  0.364000  1.0
  C  C386  1  0.694200  0.545200  0.364000  1.0
  C  C387  1  0.681200  0.330200  0.136000  1.0
  C  C388  1  0.954800  0.805800  0.136000  1.0
  C  C389  1  0.830200  0.181200  0.636000  1.0
  C  C390  1  0.305800  0.454800  0.636000  1.0
  C  C391  1  0.318800  0.669800  0.864000  1.0
  C  C392  1  0.045200  0.194200  0.864000  1.0
  C  C393  1  0.206500  0.819100  0.372000  1.0
  C  C394  1  0.665500  0.552900  0.372000  1.0
  C  C395  1  0.680900  0.293500  0.128000  1.0
  C  C396  1  0.947100  0.834500  0.128000  1.0
  C  C397  1  0.793500  0.180900  0.628000  1.0
  C  C398  1  0.334500  0.447100  0.628000  1.0
  C  C399  1  0.319100  0.706500  0.872000  1.0
  C  C400  1  0.052900  0.165500  0.872000  1.0
  C  C401  1  0.230600  0.815800  0.402400  1.0
  C  C402  1  0.671800  0.586600  0.402400  1.0
  C  C403  1  0.684200  0.269400  0.097600  1.0
  C  C404  1  0.913400  0.828200  0.097600  1.0
  C  C405  1  0.769400  0.184200  0.597600  1.0
  C  C406  1  0.328200  0.413400  0.597600  1.0
  C  C407  1  0.315800  0.730600  0.902400  1.0
  C  C408  1  0.086600  0.171800  0.902400  1.0
  C  C409  1  0.219400  0.826400  0.349800  1.0
  C  C410  1  0.630400  0.523400  0.349800  1.0
  C  C411  1  0.673600  0.280600  0.150200  1.0
  C  C412  1  0.976600  0.869600  0.150200  1.0
  C  C413  1  0.780600  0.173600  0.650200  1.0
  C  C414  1  0.369600  0.476600  0.650200  1.0
  C  C415  1  0.326400  0.719400  0.849800  1.0
  C  C416  1  0.023400  0.130400  0.849800  1.0
  C  C417  1  0.254600  0.836800  0.323000  1.0
  C  C418  1  0.568400  0.486200  0.323000  1.0
  C  C419  1  0.663200  0.245400  0.177000  1.0
  C  C420  1  0.013800  0.931600  0.177000  1.0
  C  C421  1  0.745400  0.163200  0.677000  1.0
  C  C422  1  0.431600  0.513800  0.677000  1.0
  C  C423  1  0.336800  0.754600  0.823000  1.0
  C  C424  1  0.986200  0.068400  0.823000  1.0
  C  C425  1  0.255800  0.799000  0.300800  1.0
  C  C426  1  0.545000  0.501800  0.300800  1.0
  C  C427  1  0.701000  0.244200  0.199200  1.0
  C  C428  1  0.998200  0.955000  0.199200  1.0
  C  C429  1  0.744200  0.201000  0.699200  1.0
  C  C430  1  0.455000  0.498200  0.699200  1.0
  C  C431  1  0.299000  0.755800  0.800800  1.0
  C  C432  1  0.001800  0.045000  0.800800  1.0
  C  C433  1  0.262200  0.801200  0.270600  1.0
  C  C434  1  0.508400  0.469400  0.270600  1.0
  C  C435  1  0.698800  0.237800  0.229400  1.0
  C  C436  1  0.030600  0.991600  0.229400  1.0
  C  C437  1  0.737800  0.198800  0.729400  1.0
  C  C438  1  0.491600  0.530600  0.729400  1.0
  C  C439  1  0.301200  0.762200  0.770600  1.0
  C  C440  1  0.969400  0.008400  0.770600  1.0
  C  C441  1  0.230300  0.792300  0.237600  1.0
  C  C442  1  0.507300  0.445300  0.237600  1.0
  C  C443  1  0.707700  0.269700  0.262400  1.0
  C  C444  1  0.054700  0.992700  0.262400  1.0
  C  C445  1  0.769700  0.207700  0.762400  1.0
  C  C446  1  0.492700  0.554700  0.762400  1.0
  C  C447  1  0.292300  0.730300  0.737600  1.0
  C  C448  1  0.945300  0.007300  0.737600  1.0
  C  C449  1  0.240100  0.782700  0.206800  1.0
  C  C450  1  0.466700  0.424100  0.206800  1.0
  C  C451  1  0.717300  0.259900  0.293200  1.0
  C  C452  1  0.075900  0.033300  0.293200  1.0
  C  C453  1  0.759900  0.217300  0.793200  1.0
  C  C454  1  0.533300  0.575900  0.793200  1.0
  C  C455  1  0.282700  0.740100  0.706800  1.0
  C  C456  1  0.924100  0.966700  0.706800  1.0
  C  C457  1  0.210090  0.790690  0.183180  1.0
  C  C458  1  0.473090  0.392490  0.183180  1.0
  C  C459  1  0.709310  0.289910  0.316820  1.0
  C  C460  1  0.107510  0.026910  0.316820  1.0
  C  C461  1  0.789910  0.209310  0.816820  1.0
  C  C462  1  0.526910  0.607510  0.816820  1.0
  C  C463  1  0.290690  0.710090  0.683180  1.0
  C  C464  1  0.892490  0.973090  0.683180  1.0
  C  C465  1  0.229800  0.815000  0.153000  1.0
  C  C466  1  0.423200  0.338000  0.153000  1.0
  C  C467  1  0.685000  0.270200  0.347000  1.0
  C  C468  1  0.162000  0.076800  0.347000  1.0
  C  C469  1  0.770200  0.185000  0.847000  1.0
  C  C470  1  0.576800  0.662000  0.847000  1.0
  C  C471  1  0.315000  0.729800  0.653000  1.0
  C  C472  1  0.838000  0.923200  0.653000  1.0
  C  C473  1  0.241310  0.822510  0.130420  1.0
  C  C474  1  0.389110  0.307910  0.130420  1.0
  C  C475  1  0.677490  0.258690  0.369580  1.0
  C  C476  1  0.192090  0.110890  0.369580  1.0
  C  C477  1  0.758690  0.177490  0.869580  1.0
  C  C478  1  0.610890  0.692090  0.869580  1.0
  C  C479  1  0.322510  0.741310  0.630420  1.0
  C  C480  1  0.807910  0.889110  0.630420  1.0
  C  C481  1  0.252780  0.859380  0.136960  1.0
  C  C482  1  0.384180  0.277580  0.136960  1.0
  C  C483  1  0.640620  0.247220  0.363040  1.0
  C  C484  1  0.222420  0.115820  0.363040  1.0
  C  C485  1  0.747220  0.140620  0.863040  1.0
  C  C486  1  0.615820  0.722420  0.863040  1.0
  C  C487  1  0.359380  0.752780  0.636960  1.0
  C  C488  1  0.777580  0.884180  0.636960  1.0
  C  C489  1  0.262300  0.864700  0.114000  1.0
  C  C490  1  0.351700  0.249300  0.114000  1.0
  C  C491  1  0.635300  0.237700  0.386000  1.0
  C  C492  1  0.250700  0.148300  0.386000  1.0
  C  C493  1  0.737700  0.135300  0.886000  1.0
  C  C494  1  0.648300  0.750700  0.886000  1.0
  C  C495  1  0.364700  0.762300  0.614000  1.0
  C  C496  1  0.749300  0.851700  0.614000  1.0
  C  C497  1  0.261780  0.840180  0.086760  1.0
  C  C498  1  0.324980  0.246580  0.086760  1.0
  C  C499  1  0.659820  0.238220  0.413240  1.0
  C  C500  1  0.253420  0.175020  0.413240  1.0
  C  C501  1  0.738220  0.159820  0.913240  1.0
  C  C502  1  0.675020  0.753420  0.913240  1.0
  C  C503  1  0.340180  0.761780  0.586760  1.0
  C  C504  1  0.746580  0.824980  0.586760  1.0
  C  C505  1  0.251340  0.805740  0.082680  1.0
  C  C506  1  0.331340  0.276940  0.082680  1.0
  C  C507  1  0.694260  0.248660  0.417320  1.0
  C  C508  1  0.223060  0.168660  0.417320  1.0
  C  C509  1  0.748660  0.194260  0.917320  1.0
  C  C510  1  0.668660  0.723060  0.917320  1.0
  C  C511  1  0.305740  0.751340  0.582680  1.0
  C  C512  1  0.776940  0.831340  0.582680  1.0
  C  C513  1  0.239200  0.794000  0.102600  1.0
  C  C514  1  0.363400  0.308600  0.102600  1.0
  C  C515  1  0.706000  0.260800  0.397400  1.0
  C  C516  1  0.191400  0.136600  0.397400  1.0
  C  C517  1  0.760800  0.206000  0.897400  1.0
  C  C518  1  0.636600  0.691400  0.897400  1.0
  C  C519  1  0.294000  0.739200  0.602600  1.0
  C  C520  1  0.808600  0.863400  0.602600  1.0
  C  C521  1  0.251220  0.779420  0.029640  1.0
  C  C522  1  0.278420  0.250220  0.029640  1.0
  C  C523  1  0.720580  0.248780  0.470360  1.0
  C  C524  1  0.249780  0.221580  0.470360  1.0
  C  C525  1  0.748780  0.220580  0.970360  1.0
  C  C526  1  0.721580  0.749780  0.970360  1.0
  C  C527  1  0.279420  0.751220  0.529640  1.0
  C  C528  1  0.750220  0.778420  0.529640  1.0
  C  C529  1  0.290790  0.909390  0.447380  1.0
  C  C530  1  0.656590  0.537990  0.447380  1.0
  C  C531  1  0.590610  0.209210  0.052620  1.0
  C  C532  1  0.962010  0.843410  0.052620  1.0
  C  C533  1  0.709210  0.090610  0.552620  1.0
  C  C534  1  0.343410  0.462010  0.552620  1.0
  C  C535  1  0.409390  0.790790  0.947380  1.0
  C  C536  1  0.037990  0.156590  0.947380  1.0
  C  C537  1  0.327950  0.923350  0.421100  1.0
  C  C538  1  0.593150  0.497750  0.421100  1.0
  C  C539  1  0.576650  0.172050  0.078900  1.0
  C  C540  1  0.002250  0.906850  0.078900  1.0
  C  C541  1  0.672050  0.076650  0.578900  1.0
  C  C542  1  0.406850  0.502250  0.578900  1.0
  C  C543  1  0.423350  0.827950  0.921100  1.0
  C  C544  1  0.997750  0.093150  0.921100  1.0
  C  C545  1  0.325360  0.959560  0.433120  1.0
  C  C546  1  0.607760  0.473560  0.433120  1.0
  C  C547  1  0.540440  0.174640  0.066880  1.0
  C  C548  1  0.026440  0.892240  0.066880  1.0
  C  C549  1  0.674640  0.040440  0.566880  1.0
  C  C550  1  0.392240  0.526440  0.566880  1.0
  C  C551  1  0.459560  0.825360  0.933120  1.0
  C  C552  1  0.973560  0.107760  0.933120  1.0
  C  C553  1  0.347100  0.985500  0.427400  1.0
  C  C554  1  0.580300  0.441900  0.427400  1.0
  C  C555  1  0.514500  0.152900  0.072600  1.0
  C  C556  1  0.058100  0.919700  0.072600  1.0
  C  C557  1  0.652900  0.014500  0.572600  1.0
  C  C558  1  0.419700  0.558100  0.572600  1.0
  C  C559  1  0.485500  0.847100  0.927400  1.0
  C  C560  1  0.941900  0.080300  0.927400  1.0
  C  C561  1  0.361900  0.971100  0.405600  1.0
  C  C562  1  0.543700  0.434500  0.405600  1.0
  C  C563  1  0.528900  0.138100  0.094400  1.0
  C  C564  1  0.065500  0.956300  0.094400  1.0
  C  C565  1  0.638100  0.028900  0.594400  1.0
  C  C566  1  0.456300  0.565500  0.594400  1.0
  C  C567  1  0.471100  0.861900  0.905600  1.0
  C  C568  1  0.934500  0.043700  0.905600  1.0
  C  C569  1  0.360170  0.935170  0.392740  1.0
  C  C570  1  0.532570  0.457570  0.392740  1.0
  C  C571  1  0.564830  0.139830  0.107260  1.0
  C  C572  1  0.042430  0.967430  0.107260  1.0
  C  C573  1  0.639830  0.064830  0.607260  1.0
  C  C574  1  0.467430  0.542430  0.607260  1.0
  C  C575  1  0.435170  0.860170  0.892740  1.0
  C  C576  1  0.957570  0.032570  0.892740  1.0
  C  C577  1  0.344150  0.908750  0.399100  1.0
  C  C578  1  0.554950  0.490350  0.399100  1.0
  C  C579  1  0.591250  0.155850  0.100900  1.0
  C  C580  1  0.009650  0.945050  0.100900  1.0
  C  C581  1  0.655850  0.091250  0.600900  1.0
  C  C582  1  0.445050  0.509650  0.600900  1.0
  C  C583  1  0.408750  0.844150  0.899100  1.0
  C  C584  1  0.990350  0.054950  0.899100  1.0
  C  C585  1  0.376490  0.924890  0.370180  1.0
  C  C586  1  0.493690  0.445290  0.370180  1.0
  C  C587  1  0.575110  0.123510  0.129820  1.0
  C  C588  1  0.054710  0.006310  0.129820  1.0
  C  C589  1  0.623510  0.075110  0.629820  1.0
  C  C590  1  0.506310  0.554710  0.629820  1.0
  C  C591  1  0.424890  0.876490  0.870180  1.0
  C  C592  1  0.945290  0.993690  0.870180  1.0
  C  C593  1  0.398110  0.890590  0.333900  1.0
  C  C594  1  0.435790  0.443310  0.333900  1.0
  C  C595  1  0.609410  0.101890  0.166100  1.0
  C  C596  1  0.056690  0.064210  0.166100  1.0
  C  C597  1  0.601890  0.109410  0.666100  1.0
  C  C598  1  0.564210  0.556690  0.666100  1.0
  C  C599  1  0.390590  0.898110  0.833900  1.0
  C  C600  1  0.943310  0.935790  0.833900  1.0
  C  C601  1  0.362330  0.870130  0.299060  1.0
  C  C602  1  0.436730  0.428930  0.299060  1.0
  C  C603  1  0.629870  0.137670  0.200940  1.0
  C  C604  1  0.071070  0.063270  0.200940  1.0
  C  C605  1  0.637670  0.129870  0.700940  1.0
  C  C606  1  0.563270  0.571070  0.700940  1.0
  C  C607  1  0.370130  0.862330  0.799060  1.0
  C  C608  1  0.928930  0.936730  0.799060  1.0
  C  C609  1  0.374180  0.855380  0.270360  1.0
  C  C610  1  0.396180  0.414980  0.270360  1.0
  C  C611  1  0.644620  0.125820  0.229640  1.0
  C  C612  1  0.085020  0.103820  0.229640  1.0
  C  C613  1  0.625820  0.144620  0.729640  1.0
  C  C614  1  0.603820  0.585020  0.729640  1.0
  C  C615  1  0.355380  0.874180  0.770360  1.0
  C  C616  1  0.914980  0.896180  0.770360  1.0
  C  C617  1  0.342150  0.834150  0.237500  1.0
  C  C618  1  0.395350  0.403350  0.237500  1.0
  C  C619  1  0.665850  0.157850  0.262500  1.0
  C  C620  1  0.096650  0.104650  0.262500  1.0
  C  C621  1  0.657850  0.165850  0.762500  1.0
  C  C622  1  0.604650  0.596650  0.762500  1.0
  C  C623  1  0.334150  0.842150  0.737500  1.0
  C  C624  1  0.903350  0.895350  0.737500  1.0
  C  C625  1  0.354090  0.816090  0.210180  1.0
  C  C626  1  0.356090  0.394090  0.210180  1.0
  C  C627  1  0.683910  0.145910  0.289820  1.0
  C  C628  1  0.105910  0.143910  0.289820  1.0
  C  C629  1  0.645910  0.183910  0.789820  1.0
  C  C630  1  0.643910  0.605910  0.789820  1.0
  C  C631  1  0.316090  0.854090  0.710180  1.0
  C  C632  1  0.894090  0.856090  0.710180  1.0
  C  C633  1  0.317090  0.799090  0.174380  1.0
  C  C634  1  0.357290  0.375290  0.174380  1.0
  C  C635  1  0.700910  0.182910  0.325620  1.0
  C  C636  1  0.124710  0.142710  0.325620  1.0
  C  C637  1  0.682910  0.200910  0.825620  1.0
  C  C638  1  0.642710  0.624710  0.825620  1.0
  C  C639  1  0.299090  0.817090  0.674380  1.0
  C  C640  1  0.875290  0.857290  0.674380  1.0
  C  C641  1  0.334970  0.800170  0.131540  1.0
  C  C642  1  0.296570  0.331370  0.131540  1.0
  C  C643  1  0.699830  0.165030  0.368460  1.0
  C  C644  1  0.168630  0.203430  0.368460  1.0
  C  C645  1  0.665030  0.199830  0.868460  1.0
  C  C646  1  0.703430  0.668630  0.868460  1.0
  C  C647  1  0.300170  0.834970  0.631540  1.0
  C  C648  1  0.831370  0.796570  0.631540  1.0
  C  C649  1  0.347900  0.787300  0.107400  1.0
  C  C650  1  0.259500  0.320100  0.107400  1.0
  C  C651  1  0.712700  0.152100  0.392600  1.0
  C  C652  1  0.179900  0.240500  0.392600  1.0
  C  C653  1  0.652100  0.212700  0.892600  1.0
  C  C654  1  0.740500  0.679900  0.892600  1.0
  C  C655  1  0.287300  0.847900  0.607400  1.0
  C  C656  1  0.820100  0.759500  0.607400  1.0
  C  C657  1  0.343070  0.808870  0.088540  1.0
  C  C658  1  0.245470  0.279670  0.088540  1.0
  C  C659  1  0.691130  0.156930  0.411460  1.0
  C  C660  1  0.220330  0.254530  0.411460  1.0
  C  C661  1  0.656930  0.191130  0.911460  1.0
  C  C662  1  0.754530  0.720330  0.911460  1.0
  C  C663  1  0.308870  0.843070  0.588540  1.0
  C  C664  1  0.779670  0.745470  0.588540  1.0
  C  C665  1  0.355510  0.803510  0.066020  1.0
  C  C666  1  0.210510  0.262510  0.066020  1.0
  C  C667  1  0.696490  0.144490  0.433980  1.0
  C  C668  1  0.237490  0.289490  0.433980  1.0
  C  C669  1  0.644490  0.196490  0.933980  1.0
  C  C670  1  0.789490  0.737490  0.933980  1.0
  C  C671  1  0.303510  0.855510  0.566020  1.0
  C  C672  1  0.762510  0.710510  0.566020  1.0
  C  C673  1  0.372350  0.777550  0.061700  1.0
  C  C674  1  0.189350  0.284150  0.061700  1.0
  C  C675  1  0.722450  0.127650  0.438300  1.0
  C  C676  1  0.215850  0.310650  0.438300  1.0
  C  C677  1  0.627650  0.222450  0.938300  1.0
  C  C678  1  0.810650  0.715850  0.938300  1.0
  C  C679  1  0.277550  0.872350  0.561700  1.0
  C  C680  1  0.784150  0.689350  0.561700  1.0
  C  C681  1  0.378080  0.753480  0.078160  1.0
  C  C682  1  0.200080  0.324680  0.078160  1.0
  C  C683  1  0.746520  0.121920  0.421840  1.0
  C  C684  1  0.175320  0.299920  0.421840  1.0
  C  C685  1  0.621920  0.246520  0.921840  1.0
  C  C686  1  0.799920  0.675320  0.921840  1.0
  C  C687  1  0.253480  0.878080  0.578160  1.0
  C  C688  1  0.824680  0.700080  0.578160  1.0
  C  C689  1  0.363100  0.757100  0.102000  1.0
  C  C690  1  0.238900  0.344900  0.102000  1.0
  C  C691  1  0.742900  0.136900  0.398000  1.0
  C  C692  1  0.155100  0.261100  0.398000  1.0
  C  C693  1  0.636900  0.242900  0.898000  1.0
  C  C694  1  0.761100  0.655100  0.898000  1.0
  C  C695  1  0.257100  0.863100  0.602000  1.0
  C  C696  1  0.844900  0.738900  0.602000  1.0
  C  C697  1  0.402940  0.714740  0.047080  1.0
  C  C698  1  0.144140  0.332340  0.047080  1.0
  C  C699  1  0.785260  0.097060  0.452920  1.0
  C  C700  1  0.167660  0.355860  0.452920  1.0
  C  C701  1  0.597060  0.285260  0.952920  1.0
  C  C702  1  0.855860  0.667660  0.952920  1.0
  C  C703  1  0.214740  0.902940  0.547080  1.0
  C  C704  1  0.832340  0.644140  0.547080  1.0
  C  C705  1  0.417780  0.934200  0.467180  1.0
  C  C706  1  0.549400  0.532980  0.467180  1.0
  C  C707  1  0.565800  0.082220  0.032820  1.0
  C  C708  1  0.967020  0.950600  0.032820  1.0
  C  C709  1  0.582220  0.065800  0.532820  1.0
  C  C710  1  0.450600  0.467020  0.532820  1.0
  C  C711  1  0.434200  0.917780  0.967180  1.0
  C  C712  1  0.032980  0.049400  0.967180  1.0
  C  C713  1  0.451830  0.941830  0.437660  1.0
  C  C714  1  0.485830  0.495830  0.437660  1.0
  C  C715  1  0.558170  0.048170  0.062340  1.0
  C  C716  1  0.004170  0.014170  0.062340  1.0
  C  C717  1  0.548170  0.058170  0.562340  1.0
  C  C718  1  0.514170  0.504170  0.562340  1.0
  C  C719  1  0.441830  0.951830  0.937660  1.0
  C  C720  1  0.995830  0.985830  0.937660  1.0
  C  C721  1  0.461770  0.978570  0.454740  1.0
  C  C722  1  0.492970  0.476170  0.454740  1.0
  C  C723  1  0.521430  0.038230  0.045260  1.0
  C  C724  1  0.023830  0.007030  0.045260  1.0
  C  C725  1  0.538230  0.021430  0.545260  1.0
  C  C726  1  0.507030  0.523830  0.545260  1.0
  C  C727  1  0.478570  0.961770  0.954740  1.0
  C  C728  1  0.976170  0.992970  0.954740  1.0
  C  C729  1  0.485370  0.996770  0.447140  1.0
  C  C730  1  0.461770  0.450370  0.447140  1.0
  C  C731  1  0.503230  0.014630  0.052860  1.0
  C  C732  1  0.049630  0.038230  0.052860  1.0
  C  C733  1  0.514630  0.003230  0.552860  1.0
  C  C734  1  0.538230  0.549630  0.552860  1.0
  C  C735  1  0.496770  0.985370  0.947140  1.0
  C  C736  1  0.950370  0.961770  0.947140  1.0
  C  C737  1  0.498000  0.978800  0.424600  1.0
  C  C738  1  0.426600  0.445800  0.424600  1.0
  C  C739  1  0.521200  0.002000  0.075400  1.0
  C  C740  1  0.054200  0.073400  0.075400  1.0
  C  C741  1  0.502000  0.021200  0.575400  1.0
  C  C742  1  0.573400  0.554200  0.575400  1.0
  C  C743  1  0.478800  0.998000  0.924600  1.0
  C  C744  1  0.945800  0.926600  0.924600  1.0
  C  C745  1  0.487790  0.942390  0.410780  1.0
  C  C746  1  0.422990  0.468390  0.410780  1.0
  C  C747  1  0.557610  0.012210  0.089220  1.0
  C  C748  1  0.031610  0.077010  0.089220  1.0
  C  C749  1  0.512210  0.057610  0.589220  1.0
  C  C750  1  0.577010  0.531610  0.589220  1.0
  C  C751  1  0.442390  0.987790  0.910780  1.0
  C  C752  1  0.968390  0.922990  0.910780  1.0
  C  C753  1  0.463040  0.919040  0.413880  1.0
  C  C754  1  0.450840  0.494840  0.413880  1.0
  C  C755  1  0.580960  0.036960  0.086120  1.0
  C  C756  1  0.005160  0.049160  0.086120  1.0
  C  C757  1  0.536960  0.080960  0.586120  1.0
  C  C758  1  0.549160  0.505160  0.586120  1.0
  C  C759  1  0.419040  0.963040  0.913880  1.0
  C  C760  1  0.994840  0.950840  0.913880  1.0
  C  C761  1  0.496410  0.926810  0.382820  1.0
  C  C762  1  0.386410  0.456010  0.382820  1.0
  C  C763  1  0.573190  0.003590  0.117180  1.0
  C  C764  1  0.043990  0.113590  0.117180  1.0
  C  C765  1  0.503590  0.073190  0.617180  1.0
  C  C766  1  0.613590  0.543990  0.617180  1.0
  C  C767  1  0.426810  0.996410  0.882820  1.0
  C  C768  1  0.956010  0.886410  0.882820  1.0
  C  C769  1  0.507470  0.882470  0.340740  1.0
  C  C770  1  0.333270  0.458270  0.340740  1.0
  C  C771  1  0.617530  0.992530  0.159260  1.0
  C  C772  1  0.041730  0.166730  0.159260  1.0
  C  C773  1  0.492530  0.117530  0.659260  1.0
  C  C774  1  0.666730  0.541730  0.659260  1.0
  C  C775  1  0.382470  0.007470  0.840740  1.0
  C  C776  1  0.958270  0.833270  0.840740  1.0
  C  C777  1  0.474020  0.864420  0.307040  1.0
  C  C778  1  0.333020  0.442620  0.307040  1.0
  C  C779  1  0.635580  0.025980  0.192960  1.0
  C  C780  1  0.057380  0.166980  0.192960  1.0
  C  C781  1  0.525980  0.135580  0.692960  1.0
  C  C782  1  0.666980  0.557380  0.692960  1.0
  C  C783  1  0.364420  0.974020  0.807040  1.0
  C  C784  1  0.942620  0.833020  0.807040  1.0
  C  C785  1  0.483160  0.848960  0.275720  1.0
  C  C786  1  0.292560  0.426760  0.275720  1.0
  C  C787  1  0.651040  0.016840  0.224280  1.0
  C  C788  1  0.073240  0.207440  0.224280  1.0
  C  C789  1  0.516840  0.151040  0.724280  1.0
  C  C790  1  0.707440  0.573240  0.724280  1.0
  C  C791  1  0.348960  0.983160  0.775720  1.0
  C  C792  1  0.926760  0.792560  0.775720  1.0
  C  C793  1  0.452120  0.835920  0.242240  1.0
  C  C794  1  0.290120  0.406320  0.242240  1.0
  C  C795  1  0.664080  0.047880  0.257760  1.0
  C  C796  1  0.093680  0.209880  0.257760  1.0
  C  C797  1  0.547880  0.164080  0.757760  1.0
  C  C798  1  0.709880  0.593680  0.757760  1.0
  C  C799  1  0.335920  0.952120  0.742240  1.0
  C  C800  1  0.906320  0.790120  0.742240  1.0
  C  C801  1  0.464230  0.818030  0.216060  1.0
  C  C802  1  0.251830  0.398030  0.216060  1.0
  C  C803  1  0.681970  0.035770  0.283940  1.0
  C  C804  1  0.101970  0.248170  0.283940  1.0
  C  C805  1  0.535770  0.181970  0.783940  1.0
  C  C806  1  0.748170  0.601970  0.783940  1.0
  C  C807  1  0.318030  0.964230  0.716060  1.0
  C  C808  1  0.898030  0.751830  0.716060  1.0
  C  C809  1  0.434080  0.807480  0.183560  1.0
  C  C810  1  0.249480  0.376080  0.183560  1.0
  C  C811  1  0.692520  0.065920  0.316440  1.0
  C  C812  1  0.123920  0.250520  0.316440  1.0
  C  C813  1  0.565920  0.192520  0.816440  1.0
  C  C814  1  0.750520  0.623920  0.816440  1.0
  C  C815  1  0.307480  0.934080  0.683560  1.0
  C  C816  1  0.876080  0.749480  0.683560  1.0
  C  C817  1  0.459650  0.802650  0.145900  1.0
  C  C818  1  0.186250  0.343250  0.145900  1.0
  C  C819  1  0.697350  0.040350  0.354100  1.0
  C  C820  1  0.156750  0.313750  0.354100  1.0
  C  C821  1  0.540350  0.197350  0.854100  1.0
  C  C822  1  0.813750  0.656750  0.854100  1.0
  C  C823  1  0.302650  0.959650  0.645900  1.0
  C  C824  1  0.843250  0.686250  0.645900  1.0
  C  C825  1  0.475650  0.785850  0.123300  1.0
  C  C826  1  0.147650  0.337450  0.123300  1.0
  C  C827  1  0.714150  0.024350  0.376700  1.0
  C  C828  1  0.162550  0.352350  0.376700  1.0
  C  C829  1  0.524350  0.214150  0.876700  1.0
  C  C830  1  0.852350  0.662550  0.876700  1.0
  C  C831  1  0.285850  0.975650  0.623300  1.0
  C  C832  1  0.837450  0.647650  0.623300  1.0
  C  C833  1  0.487190  0.811390  0.111380  1.0
  C  C834  1  0.124190  0.299990  0.111380  1.0
  C  C835  1  0.688610  0.012810  0.388620  1.0
  C  C836  1  0.200010  0.375810  0.388620  1.0
  C  C837  1  0.512810  0.188610  0.888620  1.0
  C  C838  1  0.875810  0.700010  0.888620  1.0
  C  C839  1  0.311390  0.987190  0.611380  1.0
  C  C840  1  0.799990  0.624190  0.611380  1.0
  C  C841  1  0.500750  0.800550  0.088700  1.0
  C  C842  1  0.087950  0.288150  0.088700  1.0
  C  C843  1  0.699450  0.999250  0.411300  1.0
  C  C844  1  0.211850  0.412050  0.411300  1.0
  C  C845  1  0.499250  0.199450  0.911300  1.0
  C  C846  1  0.912050  0.711850  0.911300  1.0
  C  C847  1  0.300550  0.000750  0.588700  1.0
  C  C848  1  0.788150  0.587950  0.588700  1.0
  C  C849  1  0.505550  0.766750  0.077900  1.0
  C  C850  1  0.072350  0.311150  0.077900  1.0
  C  C851  1  0.733250  0.994450  0.422100  1.0
  C  C852  1  0.188850  0.427650  0.422100  1.0
  C  C853  1  0.494450  0.233250  0.922100  1.0
  C  C854  1  0.927650  0.688850  0.922100  1.0
  C  C855  1  0.266750  0.005550  0.577900  1.0
  C  C856  1  0.811150  0.572350  0.577900  1.0
  C  C857  1  0.493510  0.741310  0.088620  1.0
  C  C858  1  0.095110  0.347310  0.088620  1.0
  C  C859  1  0.758690  0.006490  0.411380  1.0
  C  C860  1  0.152690  0.404890  0.411380  1.0
  C  C861  1  0.506490  0.258690  0.911380  1.0
  C  C862  1  0.904890  0.652690  0.911380  1.0
  C  C863  1  0.241310  0.993510  0.588620  1.0
  C  C864  1  0.847310  0.595110  0.588620  1.0
  C  C865  1  0.478120  0.752120  0.111240  1.0
  C  C866  1  0.133120  0.359120  0.111240  1.0
  C  C867  1  0.747880  0.021880  0.388760  1.0
  C  C868  1  0.140880  0.366880  0.388760  1.0
  C  C869  1  0.521880  0.247880  0.888760  1.0
  C  C870  1  0.866880  0.640880  0.888760  1.0
  C  C871  1  0.252120  0.978120  0.611240  1.0
  C  C872  1  0.859120  0.633120  0.611240  1.0
  C  C873  1  0.517590  0.699230  0.059620  1.0
  C  C874  1  0.042030  0.360390  0.059620  1.0
  C  C875  1  0.800770  0.982410  0.440380  1.0
  C  C876  1  0.139610  0.457970  0.440380  1.0
  C  C877  1  0.482410  0.300770  0.940380  1.0
  C  C878  1  0.957970  0.639610  0.940380  1.0
  C  C879  1  0.199230  0.017590  0.559620  1.0
  C  C880  1  0.860390  0.542030  0.559620  1.0
  C  C881  1  0.595900  0.000840  0.473540  1.0
  C  C882  1  0.377640  0.472700  0.473540  1.0
  C  C883  1  0.499160  0.904100  0.026460  1.0
  C  C884  1  0.027300  0.122360  0.026460  1.0
  C  C885  1  0.404100  0.999160  0.526460  1.0
  C  C886  1  0.622360  0.527300  0.526460  1.0
  C  C887  1  0.500840  0.095900  0.973540  1.0
  C  C888  1  0.972700  0.877640  0.973540  1.0
  C  C889  1  0.588830  0.963230  0.419460  1.0
  C  C890  1  0.330630  0.456230  0.419460  1.0
  C  C891  1  0.536770  0.911170  0.080540  1.0
  C  C892  1  0.043770  0.169370  0.080540  1.0
  C  C893  1  0.411170  0.036770  0.580540  1.0
  C  C894  1  0.669370  0.543770  0.580540  1.0
  C  C895  1  0.463230  0.088830  0.919460  1.0
  C  C896  1  0.956230  0.830630  0.919460  1.0
  C  C897  1  0.587800  0.990200  0.410000  1.0
  C  C898  1  0.322200  0.419800  0.410000  1.0
  C  C899  1  0.509800  0.912200  0.090000  1.0
  C  C900  1  0.080200  0.177800  0.090000  1.0
  C  C901  1  0.412200  0.009800  0.590000  1.0
  C  C902  1  0.677800  0.580200  0.590000  1.0
  C  C903  1  0.490200  0.087800  0.910000  1.0
  C  C904  1  0.919800  0.822200  0.910000  1.0
  C  C905  1  0.589720  0.988520  0.380440  1.0
  C  C906  1  0.290720  0.391920  0.380440  1.0
  C  C907  1  0.511480  0.910280  0.119560  1.0
  C  C908  1  0.108080  0.209280  0.119560  1.0
  C  C909  1  0.410280  0.011480  0.619560  1.0
  C  C910  1  0.709280  0.608080  0.619560  1.0
  C  C911  1  0.488520  0.089720  0.880440  1.0
  C  C912  1  0.891920  0.790720  0.880440  1.0
  C  C913  1  0.596100  0.955900  0.362400  1.0
  C  C914  1  0.266300  0.406500  0.362400  1.0
  C  C915  1  0.544100  0.903900  0.137600  1.0
  C  C916  1  0.093500  0.233700  0.137600  1.0
  C  C917  1  0.403900  0.044100  0.637600  1.0
  C  C918  1  0.733700  0.593500  0.637600  1.0
  C  C919  1  0.455900  0.096100  0.862400  1.0
  C  C920  1  0.906500  0.766300  0.862400  1.0
  C  C921  1  0.597180  0.926580  0.370760  1.0
  C  C922  1  0.273580  0.444180  0.370760  1.0
  C  C923  1  0.573420  0.902820  0.129240  1.0
  C  C924  1  0.055820  0.226420  0.129240  1.0
  C  C925  1  0.402820  0.073420  0.629240  1.0
  C  C926  1  0.726420  0.555820  0.629240  1.0
  C  C927  1  0.426580  0.097180  0.870760  1.0
  C  C928  1  0.944180  0.773580  0.870760  1.0
  C  C929  1  0.594780  0.930980  0.399760  1.0
  C  C930  1  0.304980  0.468780  0.399760  1.0
  C  C931  1  0.569020  0.905220  0.100240  1.0
  C  C932  1  0.031220  0.195020  0.100240  1.0
  C  C933  1  0.405220  0.069020  0.600240  1.0
  C  C934  1  0.695020  0.531220  0.600240  1.0
  C  C935  1  0.430980  0.094780  0.899760  1.0
  C  C936  1  0.968780  0.804980  0.899760  1.0
  C  C937  1  0.600510  0.896310  0.345620  1.0
  C  C938  1  0.245110  0.449310  0.345620  1.0
  C  C939  1  0.603690  0.899490  0.154380  1.0
  C  C940  1  0.050690  0.254890  0.154380  1.0
  C  C941  1  0.399490  0.103690  0.654380  1.0
  C  C942  1  0.754890  0.550690  0.654380  1.0
  C  C943  1  0.396310  0.100510  0.845620  1.0
  C  C944  1  0.949310  0.745110  0.845620  1.0
  C  C945  1  0.602040  0.836440  0.317480  1.0
  C  C946  1  0.215440  0.481040  0.317480  1.0
  C  C947  1  0.663560  0.897960  0.182520  1.0
  C  C948  1  0.018960  0.284560  0.182520  1.0
  C  C949  1  0.397960  0.163560  0.682520  1.0
  C  C950  1  0.784560  0.518960  0.682520  1.0
  C  C951  1  0.336440  0.102040  0.817480  1.0
  C  C952  1  0.981040  0.715440  0.817480  1.0
  C  C953  1  0.566360  0.803560  0.298520  1.0
  C  C954  1  0.232160  0.494960  0.298520  1.0
  C  C955  1  0.696440  0.933640  0.201480  1.0
  C  C956  1  0.005040  0.267840  0.201480  1.0
  C  C957  1  0.433640  0.196440  0.701480  1.0
  C  C958  1  0.767840  0.505040  0.701480  1.0
  C  C959  1  0.303560  0.066360  0.798520  1.0
  C  C960  1  0.994960  0.732160  0.798520  1.0
  C  C961  1  0.566600  0.772000  0.267400  1.0
  C  C962  1  0.200800  0.495400  0.267400  1.0
  C  C963  1  0.728000  0.933400  0.232600  1.0
  C  C964  1  0.004600  0.299200  0.232600  1.0
  C  C965  1  0.433400  0.228000  0.732600  1.0
  C  C966  1  0.799200  0.504600  0.732600  1.0
  C  C967  1  0.272000  0.066600  0.767400  1.0
  C  C968  1  0.995400  0.700800  0.767400  1.0
  C  C969  1  0.562430  0.778430  0.237860  1.0
  C  C970  1  0.175430  0.459430  0.237860  1.0
  C  C971  1  0.721570  0.937570  0.262140  1.0
  C  C972  1  0.040570  0.324570  0.262140  1.0
  C  C973  1  0.437570  0.221570  0.762140  1.0
  C  C974  1  0.824570  0.540570  0.762140  1.0
  C  C975  1  0.278430  0.062430  0.737860  1.0
  C  C976  1  0.959430  0.675430  0.737860  1.0
  C  C977  1  0.556530  0.741130  0.207060  1.0
  C  C978  1  0.150530  0.465930  0.207060  1.0
  C  C979  1  0.758870  0.943470  0.292940  1.0
  C  C980  1  0.034070  0.349470  0.292940  1.0
  C  C981  1  0.443470  0.258870  0.792940  1.0
  C  C982  1  0.849470  0.534070  0.792940  1.0
  C  C983  1  0.241130  0.056530  0.707060  1.0
  C  C984  1  0.965930  0.650530  0.707060  1.0
  C  C985  1  0.557310  0.749710  0.180020  1.0
  C  C986  1  0.122710  0.430310  0.180020  1.0
  C  C987  1  0.750290  0.942690  0.319980  1.0
  C  C988  1  0.069690  0.377290  0.319980  1.0
  C  C989  1  0.442690  0.250290  0.819980  1.0
  C  C990  1  0.877290  0.569690  0.819980  1.0
  C  C991  1  0.249710  0.057310  0.680020  1.0
  C  C992  1  0.930310  0.622710  0.680020  1.0
  C  C993  1  0.580500  0.706700  0.147800  1.0
  C  C994  1  0.067300  0.441100  0.147800  1.0
  C  C995  1  0.793300  0.919500  0.352200  1.0
  C  C996  1  0.058900  0.432700  0.352200  1.0
  C  C997  1  0.419500  0.293300  0.852200  1.0
  C  C998  1  0.932700  0.558900  0.852200  1.0
  C  C999  1  0.206700  0.080500  0.647800  1.0
  C  C1000  1  0.941100  0.567300  0.647800  1.0
  C  C1001  1  0.582010  0.674810  0.122020  1.0
  C  C1002  1  0.040010  0.447210  0.122020  1.0
  C  C1003  1  0.825190  0.917990  0.377980  1.0
  C  C1004  1  0.052790  0.459990  0.377980  1.0
  C  C1005  1  0.417990  0.325190  0.877980  1.0
  C  C1006  1  0.959990  0.552790  0.877980  1.0
  C  C1007  1  0.174810  0.082010  0.622020  1.0
  C  C1008  1  0.947210  0.540010  0.622020  1.0
  C  C1009  1  0.618180  0.675580  0.125360  1.0
  C  C1010  1  0.007180  0.449780  0.125360  1.0
  C  C1011  1  0.824420  0.881820  0.374640  1.0
  C  C1012  1  0.050220  0.492820  0.374640  1.0
  C  C1013  1  0.381820  0.324420  0.874640  1.0
  C  C1014  1  0.992820  0.550220  0.874640  1.0
  C  C1015  1  0.175580  0.118180  0.625360  1.0
  C  C1016  1  0.949780  0.507180  0.625360  1.0
  C  C1017  1  0.624740  0.646340  0.105080  1.0
  C  C1018  1  0.980340  0.458740  0.105080  1.0
  C  C1019  1  0.853660  0.875260  0.394920  1.0
  C  C1020  1  0.041260  0.519660  0.394920  1.0
  C  C1021  1  0.375260  0.353660  0.894920  1.0
  C  C1022  1  0.019660  0.541260  0.894920  1.0
  C  C1023  1  0.146340  0.124740  0.605080  1.0
  C  C1024  1  0.958740  0.480340  0.605080  1.0
  C  C1025  1  0.595070  0.614070  0.080140  1.0
  C  C1026  1  0.985070  0.466070  0.080140  1.0
  C  C1027  1  0.885930  0.904930  0.419860  1.0
  C  C1028  1  0.033930  0.514930  0.419860  1.0
  C  C1029  1  0.404930  0.385930  0.919860  1.0
  C  C1030  1  0.014930  0.533930  0.919860  1.0
  C  C1031  1  0.114070  0.095070  0.580140  1.0
  C  C1032  1  0.966070  0.485070  0.580140  1.0
  C  C1033  1  0.559480  0.613680  0.077360  1.0
  C  C1034  1  0.017880  0.463680  0.077360  1.0
  C  C1035  1  0.886320  0.940520  0.422640  1.0
  C  C1036  1  0.036320  0.482120  0.422640  1.0
  C  C1037  1  0.440520  0.386320  0.922640  1.0
  C  C1038  1  0.982120  0.536320  0.922640  1.0
  C  C1039  1  0.113680  0.059480  0.577360  1.0
  C  C1040  1  0.963680  0.517880  0.577360  1.0
  C  C1041  1  0.553200  0.642400  0.097000  1.0
  C  C1042  1  0.043800  0.454600  0.097000  1.0
  C  C1043  1  0.857600  0.946800  0.403000  1.0
  C  C1044  1  0.045400  0.456200  0.403000  1.0
  C  C1045  1  0.446800  0.357600  0.903000  1.0
  C  C1046  1  0.956200  0.545400  0.903000  1.0
  C  C1047  1  0.142400  0.053200  0.597000  1.0
  C  C1048  1  0.954600  0.543800  0.597000  1.0
  C  C1049  1  0.536050  0.556990  0.027840  1.0
  C  C1050  1  0.991790  0.470850  0.027840  1.0
  C  C1051  1  0.943010  0.963950  0.472160  1.0
  C  C1052  1  0.029150  0.508210  0.472160  1.0
  C  C1053  1  0.463950  0.443010  0.972160  1.0
  C  C1054  1  0.008210  0.529150  0.972160  1.0
  C  C1055  1  0.056990  0.036050  0.527840  1.0
  C  C1056  1  0.970850  0.491790  0.527840  1.0
  C  C1057  1  0.323220  0.573620  0.537240  1.0
  C  C1058  1  0.714020  0.963620  0.537240  1.0
  C  C1059  1  0.926380  0.176780  0.962760  1.0
  C  C1060  1  0.536380  0.785980  0.962760  1.0
  C  C1061  1  0.676780  0.426380  0.462760  1.0
  C  C1062  1  0.285980  0.036380  0.462760  1.0
  C  C1063  1  0.073620  0.823220  0.037240  1.0
  C  C1064  1  0.463620  0.214020  0.037240  1.0
  C  C1065  1  0.337650  0.568050  0.512100  1.0
  C  C1066  1  0.674450  0.944050  0.512100  1.0
  C  C1067  1  0.931950  0.162350  0.987900  1.0
  C  C1068  1  0.555950  0.825550  0.987900  1.0
  C  C1069  1  0.662350  0.431950  0.487900  1.0
  C  C1070  1  0.325550  0.055950  0.487900  1.0
  C  C1071  1  0.068050  0.837650  0.012100  1.0
  C  C1072  1  0.444050  0.174450  0.012100  1.0
  C  C1073  1  0.471180  0.584780  0.477760  1.0
  C  C1074  1  0.506580  0.892980  0.477760  1.0
  C  C1075  1  0.915220  0.028820  0.022240  1.0
  C  C1076  1  0.607020  0.993420  0.022240  1.0
  C  C1077  1  0.528820  0.415220  0.522240  1.0
  C  C1078  1  0.493420  0.107020  0.522240  1.0
  C  C1079  1  0.084780  0.971180  0.977760  1.0
  C  C1080  1  0.392980  0.006580  0.977760  1.0
  C  C1081  1  0.433080  0.565080  0.468560  1.0
  C  C1082  1  0.535480  0.903480  0.468560  1.0
  C  C1083  1  0.934920  0.066920  0.031440  1.0
  C  C1084  1  0.596520  0.964520  0.031440  1.0
  C  C1085  1  0.566920  0.434920  0.531440  1.0
  C  C1086  1  0.464520  0.096520  0.531440  1.0
  C  C1087  1  0.065080  0.933080  0.968560  1.0
  C  C1088  1  0.403480  0.035480  0.968560  1.0
  C  C1089  1  0.380880  0.638280  0.471960  1.0
  C  C1090  1  0.591080  0.833680  0.471960  1.0
  C  C1091  1  0.861720  0.119120  0.028040  1.0
  C  C1092  1  0.666320  0.908920  0.028040  1.0
  C  C1093  1  0.619120  0.361720  0.528040  1.0
  C  C1094  1  0.408920  0.166320  0.528040  1.0
  C  C1095  1  0.138280  0.880880  0.971960  1.0
  C  C1096  1  0.333680  0.091080  0.971960  1.0
  C  C1097  1  0.342530  0.616730  0.445860  1.0
  C  C1098  1  0.603330  0.829130  0.445860  1.0
  C  C1099  1  0.883270  0.157470  0.054140  1.0
  C  C1100  1  0.670870  0.896670  0.054140  1.0
  C  C1101  1  0.657470  0.383270  0.554140  1.0
  C  C1102  1  0.396670  0.170870  0.554140  1.0
  C  C1103  1  0.116730  0.842530  0.945860  1.0
  C  C1104  1  0.329130  0.103330  0.945860  1.0
  C  C1105  1  0.341670  0.581870  0.341940  1.0
  C  C1106  1  0.500270  0.760070  0.341940  1.0
  C  C1107  1  0.918130  0.158330  0.158060  1.0
  C  C1108  1  0.739930  0.999730  0.158060  1.0
  C  C1109  1  0.658330  0.418130  0.658060  1.0
  C  C1110  1  0.499730  0.239930  0.658060  1.0
  C  C1111  1  0.081870  0.841670  0.841940  1.0
  C  C1112  1  0.260070  0.000270  0.841940  1.0
  C  C1113  1  0.325400  0.566600  0.359600  1.0
  C  C1114  1  0.534200  0.793000  0.359600  1.0
  C  C1115  1  0.933400  0.174600  0.140400  1.0
  C  C1116  1  0.707000  0.965800  0.140400  1.0
  C  C1117  1  0.674600  0.433400  0.640400  1.0
  C  C1118  1  0.465800  0.207000  0.640400  1.0
  C  C1119  1  0.066600  0.825400  0.859600  1.0
  C  C1120  1  0.293000  0.034200  0.859600  1.0
  C  C1121  1  0.263100  0.609500  0.282000  1.0
  C  C1122  1  0.518900  0.672500  0.282000  1.0
  C  C1123  1  0.890500  0.236900  0.218000  1.0
  C  C1124  1  0.827500  0.981100  0.218000  1.0
  C  C1125  1  0.736900  0.390500  0.718000  1.0
  C  C1126  1  0.481100  0.327500  0.718000  1.0
  C  C1127  1  0.109500  0.763100  0.782000  1.0
  C  C1128  1  0.172500  0.018900  0.782000  1.0
  C  C1129  1  0.266700  0.633300  0.315400  1.0
  C  C1130  1  0.548700  0.682100  0.315400  1.0
  C  C1131  1  0.866700  0.233300  0.184600  1.0
  C  C1132  1  0.817900  0.951300  0.184600  1.0
  C  C1133  1  0.733300  0.366700  0.684600  1.0
  C  C1134  1  0.451300  0.317900  0.684600  1.0
  C  C1135  1  0.133300  0.766700  0.815400  1.0
  C  C1136  1  0.182100  0.048700  0.815400  1.0
  C  C1137  1  0.386930  0.683530  0.413860  1.0
  C  C1138  1  0.526930  0.730330  0.413860  1.0
  C  C1139  1  0.816470  0.113070  0.086140  1.0
  C  C1140  1  0.769670  0.973070  0.086140  1.0
  C  C1141  1  0.613070  0.316470  0.586140  1.0
  C  C1142  1  0.473070  0.269670  0.586140  1.0
  C  C1143  1  0.183530  0.886930  0.913860  1.0
  C  C1144  1  0.230330  0.026930  0.913860  1.0
  C  C1145  1  0.350820  0.686820  0.401640  1.0
  C  C1146  1  0.550820  0.714820  0.401640  1.0
  C  C1147  1  0.813180  0.149180  0.098360  1.0
  C  C1148  1  0.785180  0.949180  0.098360  1.0
  C  C1149  1  0.649180  0.313180  0.598360  1.0
  C  C1150  1  0.449180  0.285180  0.598360  1.0
  C  C1151  1  0.186820  0.850820  0.901640  1.0
  C  C1152  1  0.214820  0.050820  0.901640  1.0
  C  C1153  1  0.331460  0.729860  0.470920  1.0
  C  C1154  1  0.639460  0.741060  0.470920  1.0
  C  C1155  1  0.770140  0.168540  0.029080  1.0
  C  C1156  1  0.758940  0.860540  0.029080  1.0
  C  C1157  1  0.668540  0.270140  0.529080  1.0
  C  C1158  1  0.360540  0.258940  0.529080  1.0
  C  C1159  1  0.229860  0.831460  0.970920  1.0
  C  C1160  1  0.241060  0.139460  0.970920  1.0
  C  C1161  1  0.318010  0.760010  0.465620  1.0
  C  C1162  1  0.647610  0.705610  0.465620  1.0
  C  C1163  1  0.739990  0.181990  0.034380  1.0
  C  C1164  1  0.794390  0.852390  0.034380  1.0
  C  C1165  1  0.681990  0.239990  0.534380  1.0
  C  C1166  1  0.352390  0.294390  0.534380  1.0
  C  C1167  1  0.260010  0.818010  0.965620  1.0
  C  C1168  1  0.205610  0.147610  0.965620  1.0
  C  C1169  1  0.341150  0.926550  0.546100  1.0
  C  C1170  1  0.704950  0.619550  0.546100  1.0
  C  C1171  1  0.573450  0.158850  0.953900  1.0
  C  C1172  1  0.880450  0.795050  0.953900  1.0
  C  C1173  1  0.658850  0.073450  0.453900  1.0
  C  C1174  1  0.295050  0.380450  0.453900  1.0
  C  C1175  1  0.426550  0.841150  0.046100  1.0
  C  C1176  1  0.119550  0.204950  0.046100  1.0
  C  C1177  1  0.330300  0.891300  0.515800  1.0
  C  C1178  1  0.685500  0.624500  0.515800  1.0
  C  C1179  1  0.608700  0.169700  0.984200  1.0
  C  C1180  1  0.875500  0.814500  0.984200  1.0
  C  C1181  1  0.669700  0.108700  0.484200  1.0
  C  C1182  1  0.314500  0.375500  0.484200  1.0
  C  C1183  1  0.391300  0.830300  0.015800  1.0
  C  C1184  1  0.124500  0.185500  0.015800  1.0
  C  C1185  1  0.400260  0.818660  0.474120  1.0
  C  C1186  1  0.573860  0.655460  0.474120  1.0
  C  C1187  1  0.681340  0.099740  0.025880  1.0
  C  C1188  1  0.844540  0.926140  0.025880  1.0
  C  C1189  1  0.599740  0.181340  0.525880  1.0
  C  C1190  1  0.426140  0.344540  0.525880  1.0
  C  C1191  1  0.318660  0.900260  0.974120  1.0
  C  C1192  1  0.155460  0.073860  0.974120  1.0
  C  C1193  1  0.380630  0.832630  0.452060  1.0
  C  C1194  1  0.571430  0.619430  0.452060  1.0
  C  C1195  1  0.667370  0.119370  0.047940  1.0
  C  C1196  1  0.880570  0.928570  0.047940  1.0
  C  C1197  1  0.619370  0.167370  0.547940  1.0
  C  C1198  1  0.428570  0.380570  0.547940  1.0
  C  C1199  1  0.332630  0.880630  0.952060  1.0
  C  C1200  1  0.119430  0.071430  0.952060  1.0
  C  C1201  1  0.342790  0.740390  0.342380  1.0
  C  C1202  1  0.499590  0.601990  0.342380  1.0
  C  C1203  1  0.759610  0.157210  0.157620  1.0
  C  C1204  1  0.898010  0.000410  0.157620  1.0
  C  C1205  1  0.657210  0.259610  0.657620  1.0
  C  C1206  1  0.500410  0.398010  0.657620  1.0
  C  C1207  1  0.240390  0.842790  0.842380  1.0
  C  C1208  1  0.101990  0.999590  0.842380  1.0
  C  C1209  1  0.328400  0.771200  0.361600  1.0
  C  C1210  1  0.533200  0.590400  0.361600  1.0
  C  C1211  1  0.728800  0.171600  0.138400  1.0
  C  C1212  1  0.909600  0.966800  0.138400  1.0
  C  C1213  1  0.671600  0.228800  0.638400  1.0
  C  C1214  1  0.466800  0.409600  0.638400  1.0
  C  C1215  1  0.271200  0.828400  0.861600  1.0
  C  C1216  1  0.090400  0.033200  0.861600  1.0
  C  C1217  1  0.445090  0.772490  0.416980  1.0
  C  C1218  1  0.471890  0.644490  0.416980  1.0
  C  C1219  1  0.727510  0.054910  0.083020  1.0
  C  C1220  1  0.855510  0.028110  0.083020  1.0
  C  C1221  1  0.554910  0.227510  0.583020  1.0
  C  C1222  1  0.528110  0.355510  0.583020  1.0
  C  C1223  1  0.272490  0.945090  0.916980  1.0
  C  C1224  1  0.144490  0.971890  0.916980  1.0
  C  C1225  1  0.448060  0.801660  0.404720  1.0
  C  C1226  1  0.456660  0.603060  0.404720  1.0
  C  C1227  1  0.698340  0.051940  0.095280  1.0
  C  C1228  1  0.896940  0.043340  0.095280  1.0
  C  C1229  1  0.551940  0.198340  0.595280  1.0
  C  C1230  1  0.543340  0.396940  0.595280  1.0
  C  C1231  1  0.301660  0.948060  0.904720  1.0
  C  C1232  1  0.103060  0.956660  0.904720  1.0
  C  C1233  1  0.378650  0.764850  0.286500  1.0
  C  C1234  1  0.407850  0.521650  0.286500  1.0
  C  C1235  1  0.735150  0.121350  0.213500  1.0
  C  C1236  1  0.978350  0.092150  0.213500  1.0
  C  C1237  1  0.621350  0.235150  0.713500  1.0
  C  C1238  1  0.592150  0.478350  0.713500  1.0
  C  C1239  1  0.264850  0.878650  0.786500  1.0
  C  C1240  1  0.021650  0.907850  0.786500  1.0
  C  C1241  1  0.399820  0.798220  0.320440  1.0
  C  C1242  1  0.420620  0.522220  0.320440  1.0
  C  C1243  1  0.701780  0.100180  0.179560  1.0
  C  C1244  1  0.977780  0.079380  0.179560  1.0
  C  C1245  1  0.600180  0.201780  0.679560  1.0
  C  C1246  1  0.579380  0.477780  0.679560  1.0
  C  C1247  1  0.298220  0.899820  0.820440  1.0
  C  C1248  1  0.022220  0.920620  0.820440  1.0
  C  C1249  1  0.230640  0.525640  0.172480  1.0
  C  C1250  1  0.441840  0.646840  0.172480  1.0
  C  C1251  1  0.974360  0.269360  0.327520  1.0
  C  C1252  1  0.853160  0.058160  0.327520  1.0
  C  C1253  1  0.769360  0.474360  0.827520  1.0
  C  C1254  1  0.558160  0.353160  0.827520  1.0
  C  C1255  1  0.025640  0.730640  0.672480  1.0
  C  C1256  1  0.146840  0.941840  0.672480  1.0
  C  C1257  1  0.193740  0.496940  0.153280  1.0
  C  C1258  1  0.459540  0.656340  0.153280  1.0
  C  C1259  1  0.003060  0.306260  0.346720  1.0
  C  C1260  1  0.843660  0.040460  0.346720  1.0
  C  C1261  1  0.806260  0.503060  0.846720  1.0
  C  C1262  1  0.540460  0.343660  0.846720  1.0
  C  C1263  1  0.996940  0.693740  0.653280  1.0
  C  C1264  1  0.156340  0.959540  0.653280  1.0
  C  C1265  1  0.244860  0.654660  0.227120  1.0
  C  C1266  1  0.482260  0.572460  0.227120  1.0
  C  C1267  1  0.845340  0.255140  0.272880  1.0
  C  C1268  1  0.927540  0.017740  0.272880  1.0
  C  C1269  1  0.755140  0.345340  0.772880  1.0
  C  C1270  1  0.517740  0.427540  0.772880  1.0
  C  C1271  1  0.154660  0.744860  0.727120  1.0
  C  C1272  1  0.072460  0.982260  0.727120  1.0
  C  C1273  1  0.206910  0.636910  0.187420  1.0
  C  C1274  1  0.480510  0.550510  0.187420  1.0
  C  C1275  1  0.863090  0.293090  0.312580  1.0
  C  C1276  1  0.949490  0.019490  0.312580  1.0
  C  C1277  1  0.793090  0.363090  0.812580  1.0
  C  C1278  1  0.519490  0.449490  0.812580  1.0
  C  C1279  1  0.136910  0.706910  0.687420  1.0
  C  C1280  1  0.050510  0.980510  0.687420  1.0
  C  C1281  1  0.244970  0.580170  0.104140  1.0
  C  C1282  1  0.359170  0.523970  0.104140  1.0
  C  C1283  1  0.919830  0.255030  0.395860  1.0
  C  C1284  1  0.976030  0.140830  0.395860  1.0
  C  C1285  1  0.755030  0.419830  0.895860  1.0
  C  C1286  1  0.640830  0.476030  0.895860  1.0
  C  C1287  1  0.080170  0.744970  0.604140  1.0
  C  C1288  1  0.023970  0.859170  0.604140  1.0
  C  C1289  1  0.211930  0.585130  0.112860  1.0
  C  C1290  1  0.400930  0.527730  0.112860  1.0
  C  C1291  1  0.914870  0.288070  0.387140  1.0
  C  C1292  1  0.972270  0.099070  0.387140  1.0
  C  C1293  1  0.788070  0.414870  0.887140  1.0
  C  C1294  1  0.599070  0.472270  0.887140  1.0
  C  C1295  1  0.085130  0.711930  0.612860  1.0
  C  C1296  1  0.027730  0.900930  0.612860  1.0
  C  C1297  1  0.283090  0.681690  0.172780  1.0
  C  C1298  1  0.389690  0.491090  0.172780  1.0
  C  C1299  1  0.818310  0.216910  0.327220  1.0
  C  C1300  1  0.008910  0.110310  0.327220  1.0
  C  C1301  1  0.716910  0.318310  0.827220  1.0
  C  C1302  1  0.610310  0.508910  0.827220  1.0
  C  C1303  1  0.181690  0.783090  0.672780  1.0
  C  C1304  1  0.991090  0.889690  0.672780  1.0
  C  C1305  1  0.259000  0.694800  0.152400  1.0
  C  C1306  1  0.393400  0.457600  0.152400  1.0
  C  C1307  1  0.805200  0.241000  0.347600  1.0
  C  C1308  1  0.042400  0.106600  0.347600  1.0
  C  C1309  1  0.741000  0.305200  0.847600  1.0
  C  C1310  1  0.606600  0.542400  0.847600  1.0
  C  C1311  1  0.194800  0.759000  0.652400  1.0
  C  C1312  1  0.957600  0.893400  0.652400  1.0
  C  C1313  1  0.209940  0.620340  0.043480  1.0
  C  C1314  1  0.333540  0.423140  0.043480  1.0
  C  C1315  1  0.879660  0.290060  0.456520  1.0
  C  C1316  1  0.076860  0.166460  0.456520  1.0
  C  C1317  1  0.790060  0.379660  0.956520  1.0
  C  C1318  1  0.666460  0.576860  0.956520  1.0
  C  C1319  1  0.120340  0.709940  0.543480  1.0
  C  C1320  1  0.923140  0.833540  0.543480  1.0
  C  C1321  1  0.194470  0.646470  0.065340  1.0
  C  C1322  1  0.370870  0.418870  0.065340  1.0
  C  C1323  1  0.853530  0.305530  0.434660  1.0
  C  C1324  1  0.081130  0.129130  0.434660  1.0
  C  C1325  1  0.805530  0.353530  0.934660  1.0
  C  C1326  1  0.629130  0.581130  0.934660  1.0
  C  C1327  1  0.146470  0.694470  0.565340  1.0
  C  C1328  1  0.918870  0.870870  0.565340  1.0
  C  C1329  1  0.118870  0.665470  0.970140  1.0
  C  C1330  1  0.351270  0.304670  0.970140  1.0
  C  C1331  1  0.834530  0.381130  0.529860  1.0
  C  C1332  1  0.195330  0.148730  0.529860  1.0
  C  C1333  1  0.881130  0.334530  0.029860  1.0
  C  C1334  1  0.648730  0.695330  0.029860  1.0
  C  C1335  1  0.165470  0.618870  0.470140  1.0
  C  C1336  1  0.804670  0.851270  0.470140  1.0
  C  C1337  1  0.157900  0.678300  0.996000  1.0
  C  C1338  1  0.338100  0.317700  0.996000  1.0
  C  C1339  1  0.821700  0.342100  0.504000  1.0
  C  C1340  1  0.182300  0.161900  0.504000  1.0
  C  C1341  1  0.842100  0.321700  0.004000  1.0
  C  C1342  1  0.661900  0.682300  0.004000  1.0
  C  C1343  1  0.178300  0.657900  0.496000  1.0
  C  C1344  1  0.817700  0.838100  0.496000  1.0
  C  C1345  1  0.309720  0.666320  0.040840  1.0
  C  C1346  1  0.231120  0.374520  0.040840  1.0
  C  C1347  1  0.833680  0.190280  0.459160  1.0
  C  C1348  1  0.125480  0.268880  0.459160  1.0
  C  C1349  1  0.690280  0.333680  0.959160  1.0
  C  C1350  1  0.768880  0.625480  0.959160  1.0
  C  C1351  1  0.166320  0.809720  0.540840  1.0
  C  C1352  1  0.874520  0.731120  0.540840  1.0
  C  C1353  1  0.281940  0.686140  0.042880  1.0
  C  C1354  1  0.260940  0.356740  0.042880  1.0
  C  C1355  1  0.813860  0.218060  0.457120  1.0
  C  C1356  1  0.143260  0.239060  0.457120  1.0
  C  C1357  1  0.718060  0.313860  0.957120  1.0
  C  C1358  1  0.739060  0.643260  0.957120  1.0
  C  C1359  1  0.186140  0.781940  0.542880  1.0
  C  C1360  1  0.856740  0.760940  0.542880  1.0
  C  C1361  1  0.336120  0.608920  0.107040  1.0
  C  C1362  1  0.270920  0.498120  0.107040  1.0
  C  C1363  1  0.891080  0.163880  0.392960  1.0
  C  C1364  1  0.001880  0.229080  0.392960  1.0
  C  C1365  1  0.663880  0.391080  0.892960  1.0
  C  C1366  1  0.729080  0.501880  0.892960  1.0
  C  C1367  1  0.108920  0.836120  0.607040  1.0
  C  C1368  1  0.998120  0.770920  0.607040  1.0
  C  C1369  1  0.341890  0.650090  0.116180  1.0
  C  C1370  1  0.274290  0.466090  0.116180  1.0
  C  C1371  1  0.849910  0.158110  0.383820  1.0
  C  C1372  1  0.033910  0.225710  0.383820  1.0
  C  C1373  1  0.658110  0.349910  0.883820  1.0
  C  C1374  1  0.725710  0.533910  0.883820  1.0
  C  C1375  1  0.150090  0.841890  0.616180  1.0
  C  C1376  1  0.966090  0.774290  0.616180  1.0
  C  C1377  1  0.420340  0.731140  0.227680  1.0
  C  C1378  1  0.307340  0.496540  0.227680  1.0
  C  C1379  1  0.768860  0.079660  0.272320  1.0
  C  C1380  1  0.003460  0.192660  0.272320  1.0
  C  C1381  1  0.579660  0.268860  0.772320  1.0
  C  C1382  1  0.692660  0.503460  0.772320  1.0
  C  C1383  1  0.231140  0.920340  0.727680  1.0
  C  C1384  1  0.996540  0.807340  0.727680  1.0
  C  C1385  1  0.398960  0.728760  0.193920  1.0
  C  C1386  1  0.294960  0.465160  0.193920  1.0
  C  C1387  1  0.771240  0.101040  0.306080  1.0
  C  C1388  1  0.034840  0.205040  0.306080  1.0
  C  C1389  1  0.601040  0.271240  0.806080  1.0
  C  C1390  1  0.705040  0.534840  0.806080  1.0
  C  C1391  1  0.228760  0.898960  0.693920  1.0
  C  C1392  1  0.965160  0.794960  0.693920  1.0
  C  C1393  1  0.379240  0.594640  0.041880  1.0
  C  C1394  1  0.162640  0.447240  0.041880  1.0
  C  C1395  1  0.905360  0.120760  0.458120  1.0
  C  C1396  1  0.052760  0.337360  0.458120  1.0
  C  C1397  1  0.620760  0.405360  0.958120  1.0
  C  C1398  1  0.837360  0.552760  0.958120  1.0
  C  C1399  1  0.094640  0.879240  0.541880  1.0
  C  C1400  1  0.947240  0.662640  0.541880  1.0
  C  C1401  1  0.407950  0.631150  0.063900  1.0
  C  C1402  1  0.155950  0.432750  0.063900  1.0
  C  C1403  1  0.868850  0.092050  0.436100  1.0
  C  C1404  1  0.067250  0.344050  0.436100  1.0
  C  C1405  1  0.592050  0.368850  0.936100  1.0
  C  C1406  1  0.844050  0.567250  0.936100  1.0
  C  C1407  1  0.131150  0.907950  0.563900  1.0
  C  C1408  1  0.932750  0.655950  0.563900  1.0
  C  C1409  1  0.415770  0.494770  0.037340  1.0
  C  C1410  1  0.121570  0.542570  0.037340  1.0
  C  C1411  1  0.005230  0.084230  0.462660  1.0
  C  C1412  1  0.957430  0.378430  0.462660  1.0
  C  C1413  1  0.584230  0.505230  0.962660  1.0
  C  C1414  1  0.878430  0.457430  0.962660  1.0
  C  C1415  1  0.994770  0.915770  0.537340  1.0
  C  C1416  1  0.042570  0.621570  0.537340  1.0
  C  C1417  1  0.439460  0.529460  0.042720  1.0
  C  C1418  1  0.103260  0.513260  0.042720  1.0
  C  C1419  1  0.970540  0.060540  0.457280  1.0
  C  C1420  1  0.986740  0.396740  0.457280  1.0
  C  C1421  1  0.560540  0.470540  0.957280  1.0
  C  C1422  1  0.896740  0.486740  0.957280  1.0
  C  C1423  1  0.029460  0.939460  0.542720  1.0
  C  C1424  1  0.013260  0.603260  0.542720  1.0
  C  C1425  1  0.438910  0.618110  0.961420  1.0
  C  C1426  1  0.022510  0.343310  0.961420  1.0
  C  C1427  1  0.881890  0.061090  0.538580  1.0
  C  C1428  1  0.156690  0.477490  0.538580  1.0
  C  C1429  1  0.561090  0.381890  0.038580  1.0
  C  C1430  1  0.977490  0.656690  0.038580  1.0
  C  C1431  1  0.118110  0.938910  0.461420  1.0
  C  C1432  1  0.843310  0.522510  0.461420  1.0
  C  C1433  1  0.449160  0.606960  0.989720  1.0
  C  C1434  1  0.040560  0.382760  0.989720  1.0
  C  C1435  1  0.893040  0.050840  0.510280  1.0
  C  C1436  1  0.117240  0.459440  0.510280  1.0
  C  C1437  1  0.550840  0.393040  0.010280  1.0
  C  C1438  1  0.959440  0.617240  0.010280  1.0
  C  C1439  1  0.106960  0.949160  0.489720  1.0
  C  C1440  1  0.882760  0.540560  0.489720  1.0
  Cd  Cd1441  1  0.285914  0.712600  0.378712  1.0
  Cd  Cd1442  1  0.592798  0.666112  0.378712  1.0
  Cd  Cd1443  1  0.787400  0.214086  0.121288  1.0
  Cd  Cd1444  1  0.833888  0.907202  0.121288  1.0
  Cd  Cd1445  1  0.714086  0.287400  0.621288  1.0
  Cd  Cd1446  1  0.407202  0.333888  0.621288  1.0
  Cd  Cd1447  1  0.212600  0.785914  0.878712  1.0
  Cd  Cd1448  1  0.166112  0.092798  0.878712  1.0
  Cd  Cd1449  1  0.153572  0.555514  0.126802  1.0
  Cd  Cd1450  1  0.473230  0.571288  0.126802  1.0
  Cd  Cd1451  1  0.944486  0.346428  0.373198  1.0
  Cd  Cd1452  1  0.928712  0.026770  0.373198  1.0
  Cd  Cd1453  1  0.846428  0.444486  0.873198  1.0
  Cd  Cd1454  1  0.526770  0.428712  0.873198  1.0
  Cd  Cd1455  1  0.055514  0.653572  0.626802  1.0
  Cd  Cd1456  1  0.071288  0.973230  0.626802  1.0
  Cd  Cd1457  1  0.484246  0.846880  0.383776  1.0
  Cd  Cd1458  1  0.399530  0.536896  0.383776  1.0
  Cd  Cd1459  1  0.653120  0.015754  0.116224  1.0
  Cd  Cd1460  1  0.963104  0.100470  0.116224  1.0
  Cd  Cd1461  1  0.515754  0.153120  0.616224  1.0
  Cd  Cd1462  1  0.600470  0.463104  0.616224  1.0
  Cd  Cd1463  1  0.346880  0.984246  0.883776  1.0
  Cd  Cd1464  1  0.036896  0.899530  0.883776  1.0
  Cd  Cd1465  1  0.207123  0.728363  0.116980  1.0
  Cd  Cd1466  1  0.409857  0.388617  0.116980  1.0
  Cd  Cd1467  1  0.771637  0.292877  0.383020  1.0
  Cd  Cd1468  1  0.111383  0.090143  0.383020  1.0
  Cd  Cd1469  1  0.792877  0.271637  0.883020  1.0
  Cd  Cd1470  1  0.590143  0.611383  0.883020  1.0
  Cd  Cd1471  1  0.228363  0.707123  0.616980  1.0
  Cd  Cd1472  1  0.888617  0.909857  0.616980  1.0
  Cd  Cd1473  1  0.303640  0.821668  0.460314  1.0
  Cd  Cd1474  1  0.656674  0.638646  0.460314  1.0
  Cd  Cd1475  1  0.678332  0.196360  0.039686  1.0
  Cd  Cd1476  1  0.861354  0.843326  0.039686  1.0
  Cd  Cd1477  1  0.696360  0.178332  0.539686  1.0
  Cd  Cd1478  1  0.343326  0.361354  0.539686  1.0
  Cd  Cd1479  1  0.321668  0.803640  0.960314  1.0
  Cd  Cd1480  1  0.138646  0.156674  0.960314  1.0
  Cd  Cd1481  1  0.286102  0.537132  0.387756  1.0
  Cd  Cd1482  1  0.601654  0.850624  0.387756  1.0
  Cd  Cd1483  1  0.962868  0.213898  0.112244  1.0
  Cd  Cd1484  1  0.649376  0.898346  0.112244  1.0
  Cd  Cd1485  1  0.713898  0.462868  0.612244  1.0
  Cd  Cd1486  1  0.398346  0.149376  0.612244  1.0
  Cd  Cd1487  1  0.037132  0.786102  0.887756  1.0
  Cd  Cd1488  1  0.350624  0.101654  0.887756  1.0
  Cd  Cd1489  1  0.361478  0.545300  0.460450  1.0
  Cd  Cd1490  1  0.598972  0.915150  0.460450  1.0
  Cd  Cd1491  1  0.954700  0.138522  0.039550  1.0
  Cd  Cd1492  1  0.584850  0.901028  0.039550  1.0
  Cd  Cd1493  1  0.638522  0.454700  0.539550  1.0
  Cd  Cd1494  1  0.401028  0.084850  0.539550  1.0
  Cd  Cd1495  1  0.045300  0.861478  0.960450  1.0
  Cd  Cd1496  1  0.415150  0.098972  0.960450  1.0
  Cd  Cd1497  1  0.303876  0.832434  0.390402  1.0
  Cd  Cd1498  1  0.586526  0.557968  0.390402  1.0
  Cd  Cd1499  1  0.667566  0.196124  0.109598  1.0
  Cd  Cd1500  1  0.942032  0.913474  0.109598  1.0
  Cd  Cd1501  1  0.696124  0.167566  0.609598  1.0
  Cd  Cd1502  1  0.413474  0.442032  0.609598  1.0
  Cd  Cd1503  1  0.332434  0.803876  0.890402  1.0
  Cd  Cd1504  1  0.057968  0.086526  0.890402  1.0
  Cd  Cd1505  1  0.491322  0.679378  0.116322  1.0
  Cd  Cd1506  1  0.125000  0.436944  0.116322  1.0
  Cd  Cd1507  1  0.820622  0.008678  0.383678  1.0
  Cd  Cd1508  1  0.063056  0.375000  0.383678  1.0
  Cd  Cd1509  1  0.508678  0.320622  0.883678  1.0
  Cd  Cd1510  1  0.875000  0.563056  0.883678  1.0
  Cd  Cd1511  1  0.179378  0.991322  0.616322  1.0
  Cd  Cd1512  1  0.936944  0.625000  0.616322  1.0
  Cd  Cd1513  1  0.325146  0.719462  0.131490  1.0
  Cd  Cd1514  1  0.306344  0.412028  0.131490  1.0
  Cd  Cd1515  1  0.780538  0.174854  0.368510  1.0
  Cd  Cd1516  1  0.087972  0.193656  0.368510  1.0
  Cd  Cd1517  1  0.674854  0.280538  0.868510  1.0
  Cd  Cd1518  1  0.693656  0.587972  0.868510  1.0
  Cd  Cd1519  1  0.219462  0.825146  0.631490  1.0
  Cd  Cd1520  1  0.912028  0.806344  0.631490  1.0
  Cd  Cd1521  1  0.469557  0.594785  0.043896  1.0
  Cd  Cd1522  1  0.074339  0.449111  0.043896  1.0
  Cd  Cd1523  1  0.905215  0.030443  0.456104  1.0
  Cd  Cd1524  1  0.050889  0.425661  0.456104  1.0
  Cd  Cd1525  1  0.530443  0.405215  0.956104  1.0
  Cd  Cd1526  1  0.925661  0.550889  0.956104  1.0
  Cd  Cd1527  1  0.094785  0.969557  0.543896  1.0
  Cd  Cd1528  1  0.949111  0.574339  0.543896  1.0
  Cd  Cd1529  1  0.225248  0.712028  0.046970  1.0
  Cd  Cd1530  1  0.321722  0.334942  0.046970  1.0
  Cd  Cd1531  1  0.787972  0.274752  0.453030  1.0
  Cd  Cd1532  1  0.165058  0.178278  0.453030  1.0
  Cd  Cd1533  1  0.774752  0.287972  0.953030  1.0
  Cd  Cd1534  1  0.678278  0.665058  0.953030  1.0
  Cd  Cd1535  1  0.212028  0.725248  0.546970  1.0
  Cd  Cd1536  1  0.834942  0.821722  0.546970  1.0
  H  H1537  1  0.249700  0.521100  0.454000  1.0
  H  H1538  1  0.704300  0.932900  0.454000  1.0
  H  H1539  1  0.978900  0.250300  0.046000  1.0
  H  H1540  1  0.567100  0.795700  0.046000  1.0
  H  H1541  1  0.750300  0.478900  0.546000  1.0
  H  H1542  1  0.295700  0.067100  0.546000  1.0
  H  H1543  1  0.021100  0.749700  0.954000  1.0
  H  H1544  1  0.432900  0.204300  0.954000  1.0
  H  H1545  1  0.278900  0.509700  0.442600  1.0
  H  H1546  1  0.663700  0.932900  0.442600  1.0
  H  H1547  1  0.990300  0.221100  0.057400  1.0
  H  H1548  1  0.567100  0.836300  0.057400  1.0
  H  H1549  1  0.721100  0.490300  0.557400  1.0
  H  H1550  1  0.336300  0.067100  0.557400  1.0
  H  H1551  1  0.009700  0.778900  0.942600  1.0
  H  H1552  1  0.432900  0.163700  0.942600  1.0
  H  H1553  1  0.237500  0.487100  0.419800  1.0
  H  H1554  1  0.682300  0.932700  0.419800  1.0
  H  H1555  1  0.012900  0.262500  0.080200  1.0
  H  H1556  1  0.567300  0.817700  0.080200  1.0
  H  H1557  1  0.762500  0.512900  0.580200  1.0
  H  H1558  1  0.317700  0.067300  0.580200  1.0
  H  H1559  1  0.987100  0.737500  0.919800  1.0
  H  H1560  1  0.432700  0.182300  0.919800  1.0
  H  H1561  1  0.192500  0.516900  0.429200  1.0
  H  H1562  1  0.736700  0.912300  0.429200  1.0
  H  H1563  1  0.983100  0.307500  0.070800  1.0
  H  H1564  1  0.587700  0.763300  0.070800  1.0
  H  H1565  1  0.807500  0.483100  0.570800  1.0
  H  H1566  1  0.263300  0.087700  0.570800  1.0
  H  H1567  1  0.016900  0.692500  0.929200  1.0
  H  H1568  1  0.412300  0.236700  0.929200  1.0
  H  H1569  1  0.141400  0.529600  0.407200  1.0
  H  H1570  1  0.765800  0.877600  0.407200  1.0
  H  H1571  1  0.970400  0.358600  0.092800  1.0
  H  H1572  1  0.622400  0.734200  0.092800  1.0
  H  H1573  1  0.858600  0.470400  0.592800  1.0
  H  H1574  1  0.234200  0.122400  0.592800  1.0
  H  H1575  1  0.029600  0.641400  0.907200  1.0
  H  H1576  1  0.377600  0.265800  0.907200  1.0
  H  H1577  1  0.130400  0.560800  0.374000  1.0
  H  H1578  1  0.743600  0.813200  0.374000  1.0
  H  H1579  1  0.939200  0.369600  0.126000  1.0
  H  H1580  1  0.686800  0.756400  0.126000  1.0
  H  H1581  1  0.869600  0.439200  0.626000  1.0
  H  H1582  1  0.256400  0.186800  0.626000  1.0
  H  H1583  1  0.060800  0.630400  0.874000  1.0
  H  H1584  1  0.313200  0.243600  0.874000  1.0
  H  H1585  1  0.151300  0.589300  0.345800  1.0
  H  H1586  1  0.694500  0.756500  0.345800  1.0
  H  H1587  1  0.910700  0.348700  0.154200  1.0
  H  H1588  1  0.743500  0.805500  0.154200  1.0
  H  H1589  1  0.848700  0.410700  0.654200  1.0
  H  H1590  1  0.305500  0.243500  0.654200  1.0
  H  H1591  1  0.089300  0.651300  0.845800  1.0
  H  H1592  1  0.256500  0.194500  0.845800  1.0
  H  H1593  1  0.203400  0.638600  0.330400  1.0
  H  H1594  1  0.627000  0.691800  0.330400  1.0
  H  H1595  1  0.861400  0.296600  0.169600  1.0
  H  H1596  1  0.808200  0.873000  0.169600  1.0
  H  H1597  1  0.796600  0.361400  0.669600  1.0
  H  H1598  1  0.373000  0.308200  0.669600  1.0
  H  H1599  1  0.138600  0.703400  0.830400  1.0
  H  H1600  1  0.191800  0.127000  0.830400  1.0
  H  H1601  1  0.165500  0.627700  0.330400  1.0
  H  H1602  1  0.664900  0.702700  0.330400  1.0
  H  H1603  1  0.872300  0.334500  0.169600  1.0
  H  H1604  1  0.797300  0.835100  0.169600  1.0
  H  H1605  1  0.834500  0.372300  0.669600  1.0
  H  H1606  1  0.335100  0.297300  0.669600  1.0
  H  H1607  1  0.127700  0.665500  0.830400  1.0
  H  H1608  1  0.202700  0.164900  0.830400  1.0
  H  H1609  1  0.189000  0.574800  0.289600  1.0
  H  H1610  1  0.600600  0.714800  0.289600  1.0
  H  H1611  1  0.925200  0.311000  0.210400  1.0
  H  H1612  1  0.785200  0.899400  0.210400  1.0
  H  H1613  1  0.811000  0.425200  0.710400  1.0
  H  H1614  1  0.399400  0.285200  0.710400  1.0
  H  H1615  1  0.074800  0.689000  0.789600  1.0
  H  H1616  1  0.214800  0.100600  0.789600  1.0
  H  H1617  1  0.150200  0.566200  0.288200  1.0
  H  H1618  1  0.638000  0.722000  0.288200  1.0
  H  H1619  1  0.933800  0.349800  0.211800  1.0
  H  H1620  1  0.778000  0.862000  0.211800  1.0
  H  H1621  1  0.849800  0.433800  0.711800  1.0
  H  H1622  1  0.362000  0.278000  0.711800  1.0
  H  H1623  1  0.066200  0.650200  0.788200  1.0
  H  H1624  1  0.222000  0.138000  0.788200  1.0
  H  H1625  1  0.134900  0.607500  0.264400  1.0
  H  H1626  1  0.629500  0.656900  0.264400  1.0
  H  H1627  1  0.892500  0.365100  0.235600  1.0
  H  H1628  1  0.843100  0.870500  0.235600  1.0
  H  H1629  1  0.865100  0.392500  0.735600  1.0
  H  H1630  1  0.370500  0.343100  0.735600  1.0
  H  H1631  1  0.107500  0.634900  0.764400  1.0
  H  H1632  1  0.156900  0.129500  0.764400  1.0
  H  H1633  1  0.173600  0.615400  0.265400  1.0
  H  H1634  1  0.591800  0.650000  0.265400  1.0
  H  H1635  1  0.884600  0.326400  0.234600  1.0
  H  H1636  1  0.850000  0.908200  0.234600  1.0
  H  H1637  1  0.826400  0.384600  0.734600  1.0
  H  H1638  1  0.408200  0.350000  0.734600  1.0
  H  H1639  1  0.115400  0.673600  0.765400  1.0
  H  H1640  1  0.150000  0.091800  0.765400  1.0
  H  H1641  1  0.157800  0.550200  0.228800  1.0
  H  H1642  1  0.571000  0.678600  0.228800  1.0
  H  H1643  1  0.949800  0.342200  0.271200  1.0
  H  H1644  1  0.821400  0.929000  0.271200  1.0
  H  H1645  1  0.842200  0.449800  0.771200  1.0
  H  H1646  1  0.429000  0.321400  0.771200  1.0
  H  H1647  1  0.050200  0.657800  0.728800  1.0
  H  H1648  1  0.178600  0.071000  0.728800  1.0
  H  H1649  1  0.117900  0.545500  0.225000  1.0
  H  H1650  1  0.607100  0.679500  0.225000  1.0
  H  H1651  1  0.954500  0.382100  0.275000  1.0
  H  H1652  1  0.820500  0.892900  0.275000  1.0
  H  H1653  1  0.882100  0.454500  0.775000  1.0
  H  H1654  1  0.392900  0.320500  0.775000  1.0
  H  H1655  1  0.045500  0.617900  0.725000  1.0
  H  H1656  1  0.179500  0.107100  0.725000  1.0
  H  H1657  1  0.151000  0.587400  0.202200  1.0
  H  H1658  1  0.551200  0.614800  0.202200  1.0
  H  H1659  1  0.912600  0.349000  0.297800  1.0
  H  H1660  1  0.885200  0.948800  0.297800  1.0
  H  H1661  1  0.849000  0.412600  0.797800  1.0
  H  H1662  1  0.448800  0.385200  0.797800  1.0
  H  H1663  1  0.087400  0.651000  0.702200  1.0
  H  H1664  1  0.114800  0.051200  0.702200  1.0
  H  H1665  1  0.113000  0.588200  0.201800  1.0
  H  H1666  1  0.588800  0.613600  0.201800  1.0
  H  H1667  1  0.911800  0.387000  0.298200  1.0
  H  H1668  1  0.886400  0.911200  0.298200  1.0
  H  H1669  1  0.887000  0.411800  0.798200  1.0
  H  H1670  1  0.411200  0.386400  0.798200  1.0
  H  H1671  1  0.088200  0.613000  0.701800  1.0
  H  H1672  1  0.113600  0.088800  0.701800  1.0
  H  H1673  1  0.124100  0.520500  0.165600  1.0
  H  H1674  1  0.541500  0.645100  0.165600  1.0
  H  H1675  1  0.979500  0.375900  0.334400  1.0
  H  H1676  1  0.854900  0.958500  0.334400  1.0
  H  H1677  1  0.875900  0.479500  0.834400  1.0
  H  H1678  1  0.458500  0.354900  0.834400  1.0
  H  H1679  1  0.020500  0.624100  0.665600  1.0
  H  H1680  1  0.145100  0.041500  0.665600  1.0
  H  H1681  1  0.085800  0.524400  0.162800  1.0
  H  H1682  1  0.577000  0.638400  0.162800  1.0
  H  H1683  1  0.975600  0.414200  0.337200  1.0
  H  H1684  1  0.861600  0.923000  0.337200  1.0
  H  H1685  1  0.914200  0.475600  0.837200  1.0
  H  H1686  1  0.423000  0.361600  0.837200  1.0
  H  H1687  1  0.024400  0.585800  0.662800  1.0
  H  H1688  1  0.138400  0.077000  0.662800  1.0
  H  H1689  1  0.054800  0.548000  0.129600  1.0
  H  H1690  1  0.574800  0.581600  0.129600  1.0
  H  H1691  1  0.952000  0.445200  0.370400  1.0
  H  H1692  1  0.918400  0.925200  0.370400  1.0
  H  H1693  1  0.945200  0.452000  0.870400  1.0
  H  H1694  1  0.425200  0.418400  0.870400  1.0
  H  H1695  1  0.048000  0.554800  0.629600  1.0
  H  H1696  1  0.081600  0.074800  0.629600  1.0
  H  H1697  1  0.008200  0.552800  0.087600  1.0
  H  H1698  1  0.579400  0.534800  0.087600  1.0
  H  H1699  1  0.947200  0.491800  0.412400  1.0
  H  H1700  1  0.965200  0.920600  0.412400  1.0
  H  H1701  1  0.991800  0.447200  0.912400  1.0
  H  H1702  1  0.420600  0.465200  0.912400  1.0
  H  H1703  1  0.052800  0.508200  0.587600  1.0
  H  H1704  1  0.034800  0.079400  0.587600  1.0
  H  H1705  1  0.991100  0.572500  0.046200  1.0
  H  H1706  1  0.555100  0.473700  0.046200  1.0
  H  H1707  1  0.927500  0.508900  0.453800  1.0
  H  H1708  1  0.026300  0.944900  0.453800  1.0
  H  H1709  1  0.008900  0.427500  0.953800  1.0
  H  H1710  1  0.444900  0.526300  0.953800  1.0
  H  H1711  1  0.072500  0.491100  0.546200  1.0
  H  H1712  1  0.973700  0.055100  0.546200  1.0
  H  H1713  1  0.033000  0.610800  0.044200  1.0
  H  H1714  1  0.511200  0.433400  0.044200  1.0
  H  H1715  1  0.889200  0.467000  0.455800  1.0
  H  H1716  1  0.066600  0.988800  0.455800  1.0
  H  H1717  1  0.967000  0.389200  0.955800  1.0
  H  H1718  1  0.488800  0.566600  0.955800  1.0
  H  H1719  1  0.110800  0.533000  0.544200  1.0
  H  H1720  1  0.933400  0.011200  0.544200  1.0
  H  H1721  1  0.074900  0.616700  0.028000  1.0
  H  H1722  1  0.453100  0.411300  0.028000  1.0
  H  H1723  1  0.883300  0.425100  0.472000  1.0
  H  H1724  1  0.088700  0.046900  0.472000  1.0
  H  H1725  1  0.925100  0.383300  0.972000  1.0
  H  H1726  1  0.546900  0.588700  0.972000  1.0
  H  H1727  1  0.116700  0.574900  0.528000  1.0
  H  H1728  1  0.911300  0.953100  0.528000  1.0
  H  H1729  1  0.114500  0.643100  0.043800  1.0
  H  H1730  1  0.429300  0.400700  0.043800  1.0
  H  H1731  1  0.856900  0.385500  0.456200  1.0
  H  H1732  1  0.099300  0.070700  0.456200  1.0
  H  H1733  1  0.885500  0.356900  0.956200  1.0
  H  H1734  1  0.570700  0.599300  0.956200  1.0
  H  H1735  1  0.143100  0.614500  0.543800  1.0
  H  H1736  1  0.900700  0.929300  0.543800  1.0
  H  H1737  1  0.085200  0.657800  0.053600  1.0
  H  H1738  1  0.468400  0.395800  0.053600  1.0
  H  H1739  1  0.842200  0.414800  0.446400  1.0
  H  H1740  1  0.104200  0.031600  0.446400  1.0
  H  H1741  1  0.914800  0.342200  0.946400  1.0
  H  H1742  1  0.531600  0.604200  0.946400  1.0
  H  H1743  1  0.157800  0.585200  0.553600  1.0
  H  H1744  1  0.895800  0.968400  0.553600  1.0
  H  H1745  1  0.262900  0.655900  0.475600  1.0
  H  H1746  1  0.712700  0.819700  0.475600  1.0
  H  H1747  1  0.844100  0.237100  0.024400  1.0
  H  H1748  1  0.680300  0.787300  0.024400  1.0
  H  H1749  1  0.737100  0.344100  0.524400  1.0
  H  H1750  1  0.287300  0.180300  0.524400  1.0
  H  H1751  1  0.155900  0.762900  0.975600  1.0
  H  H1752  1  0.319700  0.212700  0.975600  1.0
  H  H1753  1  0.285000  0.630800  0.463400  1.0
  H  H1754  1  0.678400  0.832600  0.463400  1.0
  H  H1755  1  0.869200  0.215000  0.036600  1.0
  H  H1756  1  0.667400  0.821600  0.036600  1.0
  H  H1757  1  0.715000  0.369200  0.536600  1.0
  H  H1758  1  0.321600  0.167400  0.536600  1.0
  H  H1759  1  0.130800  0.785000  0.963400  1.0
  H  H1760  1  0.332600  0.178400  0.963400  1.0
  H  H1761  1  0.242800  0.614600  0.449800  1.0
  H  H1762  1  0.707000  0.835200  0.449800  1.0
  H  H1763  1  0.885400  0.257200  0.050200  1.0
  H  H1764  1  0.664800  0.793000  0.050200  1.0
  H  H1765  1  0.757200  0.385400  0.550200  1.0
  H  H1766  1  0.293000  0.164800  0.550200  1.0
  H  H1767  1  0.114600  0.742800  0.949800  1.0
  H  H1768  1  0.335200  0.207000  0.949800  1.0
  H  H1769  1  0.216500  0.671700  0.462600  1.0
  H  H1770  1  0.746100  0.790900  0.462600  1.0
  H  H1771  1  0.828300  0.283500  0.037400  1.0
  H  H1772  1  0.709100  0.753900  0.037400  1.0
  H  H1773  1  0.783500  0.328300  0.537400  1.0
  H  H1774  1  0.253900  0.209100  0.537400  1.0
  H  H1775  1  0.171700  0.716500  0.962600  1.0
  H  H1776  1  0.290900  0.246100  0.962600  1.0
  H  H1777  1  0.179300  0.705300  0.451600  1.0
  H  H1778  1  0.772300  0.746300  0.451600  1.0
  H  H1779  1  0.794700  0.320700  0.048400  1.0
  H  H1780  1  0.753700  0.727700  0.048400  1.0
  H  H1781  1  0.820700  0.294700  0.548400  1.0
  H  H1782  1  0.227700  0.253700  0.548400  1.0
  H  H1783  1  0.205300  0.679300  0.951600  1.0
  H  H1784  1  0.246300  0.272300  0.951600  1.0
  H  H1785  1  0.192200  0.739000  0.426400  1.0
  H  H1786  1  0.734200  0.687400  0.426400  1.0
  H  H1787  1  0.761000  0.307800  0.073600  1.0
  H  H1788  1  0.812600  0.765800  0.073600  1.0
  H  H1789  1  0.807800  0.261000  0.573600  1.0
  H  H1790  1  0.265800  0.312600  0.573600  1.0
  H  H1791  1  0.239000  0.692200  0.926400  1.0
  H  H1792  1  0.187400  0.234200  0.926400  1.0
  H  H1793  1  0.162900  0.701500  0.398000  1.0
  H  H1794  1  0.735100  0.696500  0.398000  1.0
  H  H1795  1  0.798500  0.337100  0.102000  1.0
  H  H1796  1  0.803500  0.764900  0.102000  1.0
  H  H1797  1  0.837100  0.298500  0.602000  1.0
  H  H1798  1  0.264900  0.303500  0.602000  1.0
  H  H1799  1  0.201500  0.662900  0.898000  1.0
  H  H1800  1  0.196500  0.235100  0.898000  1.0
  H  H1801  1  0.188700  0.729300  0.373000  1.0
  H  H1802  1  0.684300  0.643700  0.373000  1.0
  H  H1803  1  0.770700  0.311300  0.127000  1.0
  H  H1804  1  0.856300  0.815700  0.127000  1.0
  H  H1805  1  0.811300  0.270700  0.627000  1.0
  H  H1806  1  0.315700  0.356300  0.627000  1.0
  H  H1807  1  0.229300  0.688700  0.873000  1.0
  H  H1808  1  0.143700  0.184300  0.873000  1.0
  H  H1809  1  0.235700  0.749500  0.336600  1.0
  H  H1810  1  0.600900  0.587100  0.336600  1.0
  H  H1811  1  0.750500  0.264300  0.163400  1.0
  H  H1812  1  0.912900  0.899100  0.163400  1.0
  H  H1813  1  0.764300  0.250500  0.663400  1.0
  H  H1814  1  0.399100  0.412900  0.663400  1.0
  H  H1815  1  0.249500  0.735700  0.836600  1.0
  H  H1816  1  0.087100  0.100900  0.836600  1.0
  H  H1817  1  0.199300  0.749100  0.340200  1.0
  H  H1818  1  0.640900  0.591100  0.340200  1.0
  H  H1819  1  0.750900  0.300700  0.159800  1.0
  H  H1820  1  0.908900  0.859100  0.159800  1.0
  H  H1821  1  0.800700  0.250900  0.659800  1.0
  H  H1822  1  0.359100  0.408900  0.659800  1.0
  H  H1823  1  0.249100  0.699300  0.840200  1.0
  H  H1824  1  0.091100  0.140900  0.840200  1.0
  H  H1825  1  0.208400  0.682200  0.297400  1.0
  H  H1826  1  0.589000  0.615200  0.297400  1.0
  H  H1827  1  0.817800  0.291600  0.202600  1.0
  H  H1828  1  0.884800  0.911000  0.202600  1.0
  H  H1829  1  0.791600  0.317800  0.702600  1.0
  H  H1830  1  0.411000  0.384800  0.702600  1.0
  H  H1831  1  0.182200  0.708400  0.797400  1.0
  H  H1832  1  0.115200  0.089000  0.797400  1.0
  H  H1833  1  0.171700  0.683300  0.300200  1.0
  H  H1834  1  0.628500  0.616900  0.300200  1.0
  H  H1835  1  0.816700  0.328300  0.199800  1.0
  H  H1836  1  0.883100  0.871500  0.199800  1.0
  H  H1837  1  0.828300  0.316700  0.699800  1.0
  H  H1838  1  0.371500  0.383100  0.699800  1.0
  H  H1839  1  0.183300  0.671700  0.800200  1.0
  H  H1840  1  0.116900  0.128500  0.800200  1.0
  H  H1841  1  0.165600  0.727400  0.276600  1.0
  H  H1842  1  0.611000  0.549200  0.276600  1.0
  H  H1843  1  0.772600  0.334400  0.223400  1.0
  H  H1844  1  0.950800  0.889000  0.223400  1.0
  H  H1845  1  0.834400  0.272600  0.723400  1.0
  H  H1846  1  0.389000  0.450800  0.723400  1.0
  H  H1847  1  0.227400  0.665600  0.776600  1.0
  H  H1848  1  0.049200  0.111000  0.776600  1.0
  H  H1849  1  0.201400  0.724600  0.272800  1.0
  H  H1850  1  0.571400  0.548200  0.272800  1.0
  H  H1851  1  0.775400  0.298600  0.227200  1.0
  H  H1852  1  0.951800  0.928600  0.227200  1.0
  H  H1853  1  0.798600  0.275400  0.727200  1.0
  H  H1854  1  0.428600  0.451800  0.727200  1.0
  H  H1855  1  0.224600  0.701400  0.772800  1.0
  H  H1856  1  0.048200  0.071400  0.772800  1.0
  H  H1857  1  0.170900  0.659500  0.235600  1.0
  H  H1858  1  0.564700  0.576100  0.235600  1.0
  H  H1859  1  0.840500  0.329100  0.264400  1.0
  H  H1860  1  0.923900  0.935300  0.264400  1.0
  H  H1861  1  0.829100  0.340500  0.764400  1.0
  H  H1862  1  0.435300  0.423900  0.764400  1.0
  H  H1863  1  0.159500  0.670900  0.735600  1.0
  H  H1864  1  0.076100  0.064700  0.735600  1.0
  H  H1865  1  0.134600  0.665200  0.237200  1.0
  H  H1866  1  0.602600  0.572000  0.237200  1.0
  H  H1867  1  0.834800  0.365400  0.262800  1.0
  H  H1868  1  0.928000  0.897400  0.262800  1.0
  H  H1869  1  0.865400  0.334800  0.762800  1.0
  H  H1870  1  0.397400  0.428000  0.762800  1.0
  H  H1871  1  0.165200  0.634600  0.737200  1.0
  H  H1872  1  0.072000  0.102600  0.737200  1.0
  H  H1873  1  0.173000  0.702000  0.214200  1.0
  H  H1874  1  0.541200  0.512200  0.214200  1.0
  H  H1875  1  0.798000  0.327000  0.285800  1.0
  H  H1876  1  0.987800  0.958800  0.285800  1.0
  H  H1877  1  0.827000  0.298000  0.785800  1.0
  H  H1878  1  0.458800  0.487800  0.785800  1.0
  H  H1879  1  0.202000  0.673000  0.714200  1.0
  H  H1880  1  0.012200  0.041200  0.714200  1.0
  H  H1881  1  0.137100  0.708100  0.216000  1.0
  H  H1882  1  0.578900  0.507900  0.216000  1.0
  H  H1883  1  0.791900  0.362900  0.284000  1.0
  H  H1884  1  0.992100  0.921100  0.284000  1.0
  H  H1885  1  0.862900  0.291900  0.784000  1.0
  H  H1886  1  0.421100  0.492100  0.784000  1.0
  H  H1887  1  0.208100  0.637100  0.716000  1.0
  H  H1888  1  0.007900  0.078900  0.716000  1.0
  H  H1889  1  0.101300  0.648100  0.172800  1.0
  H  H1890  1  0.571500  0.524700  0.172800  1.0
  H  H1891  1  0.851900  0.398700  0.327200  1.0
  H  H1892  1  0.975300  0.928500  0.327200  1.0
  H  H1893  1  0.898700  0.351900  0.827200  1.0
  H  H1894  1  0.428500  0.475300  0.827200  1.0
  H  H1895  1  0.148100  0.601300  0.672800  1.0
  H  H1896  1  0.024700  0.071500  0.672800  1.0
  H  H1897  1  0.136400  0.636200  0.174800  1.0
  H  H1898  1  0.538400  0.538600  0.174800  1.0
  H  H1899  1  0.863800  0.363600  0.325200  1.0
  H  H1900  1  0.961400  0.961600  0.325200  1.0
  H  H1901  1  0.863600  0.363800  0.825200  1.0
  H  H1902  1  0.461600  0.461400  0.825200  1.0
  H  H1903  1  0.136200  0.636400  0.674800  1.0
  H  H1904  1  0.038600  0.038400  0.674800  1.0
  H  H1905  1  0.086400  0.686600  0.151200  1.0
  H  H1906  1  0.564800  0.464600  0.151200  1.0
  H  H1907  1  0.813400  0.413600  0.348800  1.0
  H  H1908  1  0.035400  0.935200  0.348800  1.0
  H  H1909  1  0.913600  0.313400  0.848800  1.0
  H  H1910  1  0.435200  0.535400  0.848800  1.0
  H  H1911  1  0.186600  0.586400  0.651200  1.0
  H  H1912  1  0.964600  0.064800  0.651200  1.0
  H  H1913  1  0.051200  0.698800  0.105000  1.0
  H  H1914  1  0.553800  0.406200  0.105000  1.0
  H  H1915  1  0.801200  0.448800  0.395000  1.0
  H  H1916  1  0.093800  0.946200  0.395000  1.0
  H  H1917  1  0.948800  0.301200  0.895000  1.0
  H  H1918  1  0.446200  0.593800  0.895000  1.0
  H  H1919  1  0.198800  0.551200  0.605000  1.0
  H  H1920  1  0.906200  0.053800  0.605000  1.0
  H  H1921  1  0.073800  0.735800  0.136600  1.0
  H  H1922  1  0.562800  0.400800  0.136600  1.0
  H  H1923  1  0.764200  0.426200  0.363400  1.0
  H  H1924  1  0.099200  0.937200  0.363400  1.0
  H  H1925  1  0.926200  0.264200  0.863400  1.0
  H  H1926  1  0.437200  0.599200  0.863400  1.0
  H  H1927  1  0.235800  0.573800  0.636600  1.0
  H  H1928  1  0.900800  0.062800  0.636600  1.0
  H  H1929  1  0.039400  0.744800  0.089200  1.0
  H  H1930  1  0.549800  0.344400  0.089200  1.0
  H  H1931  1  0.755200  0.460600  0.410800  1.0
  H  H1932  1  0.155600  0.950200  0.410800  1.0
  H  H1933  1  0.960600  0.255200  0.910800  1.0
  H  H1934  1  0.450200  0.655600  0.910800  1.0
  H  H1935  1  0.244800  0.539400  0.589200  1.0
  H  H1936  1  0.844400  0.049800  0.589200  1.0
  H  H1937  1  0.089000  0.761400  0.076600  1.0
  H  H1938  1  0.487600  0.315200  0.076600  1.0
  H  H1939  1  0.738600  0.411000  0.423400  1.0
  H  H1940  1  0.184800  0.012400  0.423400  1.0
  H  H1941  1  0.911000  0.238600  0.923400  1.0
  H  H1942  1  0.512400  0.684800  0.923400  1.0
  H  H1943  1  0.261400  0.589000  0.576600  1.0
  H  H1944  1  0.815200  0.987600  0.576600  1.0
  H  H1945  1  0.122400  0.760800  0.057000  1.0
  H  H1946  1  0.434600  0.296200  0.057000  1.0
  H  H1947  1  0.739200  0.377600  0.443000  1.0
  H  H1948  1  0.203800  0.065400  0.443000  1.0
  H  H1949  1  0.877600  0.239200  0.943000  1.0
  H  H1950  1  0.565400  0.703800  0.943000  1.0
  H  H1951  1  0.260800  0.622400  0.557000  1.0
  H  H1952  1  0.796200  0.934600  0.557000  1.0
  H  H1953  1  0.157100  0.754100  0.052800  1.0
  H  H1954  1  0.395700  0.298700  0.052800  1.0
  H  H1955  1  0.745900  0.342900  0.447200  1.0
  H  H1956  1  0.201300  0.104300  0.447200  1.0
  H  H1957  1  0.842900  0.245900  0.947200  1.0
  H  H1958  1  0.604300  0.701300  0.947200  1.0
  H  H1959  1  0.254100  0.657100  0.552800  1.0
  H  H1960  1  0.798700  0.895700  0.552800  1.0
  H  H1961  1  0.161500  0.785900  0.085800  1.0
  H  H1962  1  0.424300  0.299900  0.085800  1.0
  H  H1963  1  0.714100  0.338500  0.414200  1.0
  H  H1964  1  0.200100  0.075700  0.414200  1.0
  H  H1965  1  0.838500  0.214100  0.914200  1.0
  H  H1966  1  0.575700  0.700100  0.914200  1.0
  H  H1967  1  0.285900  0.661500  0.585800  1.0
  H  H1968  1  0.799900  0.924300  0.585800  1.0
  H  H1969  1  0.200100  0.792500  0.459400  1.0
  H  H1970  1  0.759300  0.666900  0.459400  1.0
  H  H1971  1  0.707500  0.299900  0.040600  1.0
  H  H1972  1  0.833100  0.740700  0.040600  1.0
  H  H1973  1  0.799900  0.207500  0.540600  1.0
  H  H1974  1  0.240700  0.333100  0.540600  1.0
  H  H1975  1  0.292500  0.700100  0.959400  1.0
  H  H1976  1  0.166900  0.259300  0.959400  1.0
  H  H1977  1  0.229400  0.831400  0.483000  1.0
  H  H1978  1  0.753600  0.651600  0.483000  1.0
  H  H1979  1  0.668600  0.270600  0.017000  1.0
  H  H1980  1  0.848400  0.746400  0.017000  1.0
  H  H1981  1  0.770600  0.168600  0.517000  1.0
  H  H1982  1  0.246400  0.348400  0.517000  1.0
  H  H1983  1  0.331400  0.729400  0.983000  1.0
  H  H1984  1  0.151600  0.253600  0.983000  1.0
  H  H1985  1  0.239100  0.796700  0.485000  1.0
  H  H1986  1  0.745900  0.688300  0.485000  1.0
  H  H1987  1  0.703300  0.260900  0.015000  1.0
  H  H1988  1  0.811700  0.754100  0.015000  1.0
  H  H1989  1  0.760900  0.203300  0.515000  1.0
  H  H1990  1  0.254100  0.311700  0.515000  1.0
  H  H1991  1  0.296700  0.739100  0.985000  1.0
  H  H1992  1  0.188300  0.245900  0.985000  1.0
  H  H1993  1  0.165000  0.799200  0.421600  1.0
  H  H1994  1  0.756600  0.622400  0.421600  1.0
  H  H1995  1  0.700800  0.335000  0.078400  1.0
  H  H1996  1  0.877600  0.743400  0.078400  1.0
  H  H1997  1  0.835000  0.200800  0.578400  1.0
  H  H1998  1  0.243400  0.377600  0.578400  1.0
  H  H1999  1  0.299200  0.665000  0.921600  1.0
  H  H2000  1  0.122400  0.256600  0.921600  1.0
  H  H2001  1  0.132500  0.812700  0.380400  1.0
  H  H2002  1  0.747900  0.567700  0.380400  1.0
  H  H2003  1  0.687300  0.367500  0.119600  1.0
  H  H2004  1  0.932300  0.752100  0.119600  1.0
  H  H2005  1  0.867500  0.187300  0.619600  1.0
  H  H2006  1  0.252100  0.432300  0.619600  1.0
  H  H2007  1  0.312700  0.632500  0.880400  1.0
  H  H2008  1  0.067700  0.247900  0.880400  1.0
  H  H2009  1  0.155800  0.822800  0.346200  1.0
  H  H2010  1  0.690400  0.523400  0.346200  1.0
  H  H2011  1  0.677200  0.344200  0.153800  1.0
  H  H2012  1  0.976600  0.809600  0.153800  1.0
  H  H2013  1  0.844200  0.177200  0.653800  1.0
  H  H2014  1  0.309600  0.476600  0.653800  1.0
  H  H2015  1  0.322800  0.655800  0.846200  1.0
  H  H2016  1  0.023400  0.190400  0.846200  1.0
  H  H2017  1  0.202200  0.829800  0.333000  1.0
  H  H2018  1  0.630800  0.503200  0.333000  1.0
  H  H2019  1  0.670200  0.297800  0.167000  1.0
  H  H2020  1  0.996800  0.869200  0.167000  1.0
  H  H2021  1  0.797800  0.170200  0.667000  1.0
  H  H2022  1  0.369200  0.496800  0.667000  1.0
  H  H2023  1  0.329800  0.702200  0.833000  1.0
  H  H2024  1  0.003200  0.130800  0.833000  1.0
  H  H2025  1  0.277100  0.856100  0.332200  1.0
  H  H2026  1  0.555100  0.476100  0.332200  1.0
  H  H2027  1  0.643900  0.222900  0.167800  1.0
  H  H2028  1  0.023900  0.944900  0.167800  1.0
  H  H2029  1  0.722900  0.143900  0.667800  1.0
  H  H2030  1  0.444900  0.523900  0.667800  1.0
  H  H2031  1  0.356100  0.777100  0.832200  1.0
  H  H2032  1  0.976100  0.055100  0.832200  1.0
  H  H2033  1  0.234000  0.843000  0.310800  1.0
  H  H2034  1  0.576800  0.467800  0.310800  1.0
  H  H2035  1  0.657000  0.266000  0.189200  1.0
  H  H2036  1  0.032200  0.923200  0.189200  1.0
  H  H2037  1  0.766000  0.157000  0.689200  1.0
  H  H2038  1  0.423200  0.532200  0.689200  1.0
  H  H2039  1  0.343000  0.734000  0.810800  1.0
  H  H2040  1  0.967800  0.076800  0.810800  1.0
  H  H2041  1  0.233100  0.780300  0.291800  1.0
  H  H2042  1  0.558700  0.511500  0.291800  1.0
  H  H2043  1  0.719700  0.266900  0.208200  1.0
  H  H2044  1  0.988500  0.941300  0.208200  1.0
  H  H2045  1  0.766900  0.219700  0.708200  1.0
  H  H2046  1  0.441300  0.488500  0.708200  1.0
  H  H2047  1  0.280300  0.733100  0.791800  1.0
  H  H2048  1  0.011500  0.058700  0.791800  1.0
  H  H2049  1  0.275600  0.792600  0.314000  1.0
  H  H2050  1  0.538400  0.521400  0.314000  1.0
  H  H2051  1  0.707400  0.224400  0.186000  1.0
  H  H2052  1  0.978600  0.961600  0.186000  1.0
  H  H2053  1  0.724400  0.207400  0.686000  1.0
  H  H2054  1  0.461600  0.478600  0.686000  1.0
  H  H2055  1  0.292600  0.775600  0.814000  1.0
  H  H2056  1  0.021400  0.038400  0.814000  1.0
  H  H2057  1  0.277500  0.825900  0.279400  1.0
  H  H2058  1  0.501900  0.453500  0.279400  1.0
  H  H2059  1  0.674100  0.222500  0.220600  1.0
  H  H2060  1  0.046500  0.998100  0.220600  1.0
  H  H2061  1  0.722500  0.174100  0.720600  1.0
  H  H2062  1  0.498100  0.546500  0.720600  1.0
  H  H2063  1  0.325900  0.777500  0.779400  1.0
  H  H2064  1  0.953500  0.001900  0.779400  1.0
  H  H2065  1  0.276500  0.785100  0.265600  1.0
  H  H2066  1  0.489100  0.480500  0.265600  1.0
  H  H2067  1  0.714900  0.223500  0.234400  1.0
  H  H2068  1  0.019500  0.010900  0.234400  1.0
  H  H2069  1  0.723500  0.214900  0.734400  1.0
  H  H2070  1  0.510900  0.519500  0.734400  1.0
  H  H2071  1  0.285100  0.776500  0.765600  1.0
  H  H2072  1  0.980500  0.989100  0.765600  1.0
  H  H2073  1  0.221000  0.813000  0.240200  1.0
  H  H2074  1  0.519200  0.427200  0.240200  1.0
  H  H2075  1  0.687000  0.279000  0.259800  1.0
  H  H2076  1  0.072800  0.980800  0.259800  1.0
  H  H2077  1  0.779000  0.187000  0.759800  1.0
  H  H2078  1  0.480800  0.572800  0.759800  1.0
  H  H2079  1  0.313000  0.721000  0.740200  1.0
  H  H2080  1  0.927200  0.019200  0.740200  1.0
  H  H2081  1  0.210800  0.771600  0.231800  1.0
  H  H2082  1  0.521000  0.460200  0.231800  1.0
  H  H2083  1  0.728400  0.289200  0.268200  1.0
  H  H2084  1  0.039800  0.979000  0.268200  1.0
  H  H2085  1  0.789200  0.228400  0.768200  1.0
  H  H2086  1  0.479000  0.539800  0.768200  1.0
  H  H2087  1  0.271600  0.710800  0.731800  1.0
  H  H2088  1  0.960200  0.021000  0.731800  1.0
  H  H2089  1  0.264100  0.798300  0.213800  1.0
  H  H2090  1  0.449700  0.415500  0.213800  1.0
  H  H2091  1  0.701700  0.235900  0.286200  1.0
  H  H2092  1  0.084500  0.050300  0.286200  1.0
  H  H2093  1  0.735900  0.201700  0.786200  1.0
  H  H2094  1  0.550300  0.584500  0.786200  1.0
  H  H2095  1  0.298300  0.764100  0.713800  1.0
  H  H2096  1  0.915500  0.949700  0.713800  1.0
  H  H2097  1  0.239200  0.757200  0.196800  1.0
  H  H2098  1  0.457600  0.439600  0.196800  1.0
  H  H2099  1  0.742800  0.260800  0.303200  1.0
  H  H2100  1  0.060400  0.042400  0.303200  1.0
  H  H2101  1  0.760800  0.242800  0.803200  1.0
  H  H2102  1  0.542400  0.560400  0.803200  1.0
  H  H2103  1  0.257200  0.739200  0.696800  1.0
  H  H2104  1  0.939600  0.957600  0.696800  1.0
  H  H2105  1  0.186400  0.773800  0.175000  1.0
  H  H2106  1  0.488600  0.401200  0.175000  1.0
  H  H2107  1  0.726200  0.313600  0.325000  1.0
  H  H2108  1  0.098800  0.011400  0.325000  1.0
  H  H2109  1  0.813600  0.226200  0.825000  1.0
  H  H2110  1  0.511400  0.598800  0.825000  1.0
  H  H2111  1  0.273800  0.686400  0.675000  1.0
  H  H2112  1  0.901200  0.988600  0.675000  1.0
  H  H2113  1  0.209800  0.815400  0.194000  1.0
  H  H2114  1  0.484200  0.378600  0.194000  1.0
  H  H2115  1  0.684600  0.290200  0.306000  1.0
  H  H2116  1  0.121400  0.015800  0.306000  1.0
  H  H2117  1  0.790200  0.184600  0.806000  1.0
  H  H2118  1  0.515800  0.621400  0.806000  1.0
  H  H2119  1  0.315400  0.709800  0.694000  1.0
  H  H2120  1  0.878600  0.984200  0.694000  1.0
  H  H2121  1  0.229600  0.836000  0.169000  1.0
  H  H2122  1  0.439400  0.333000  0.169000  1.0
  H  H2123  1  0.664000  0.270400  0.331000  1.0
  H  H2124  1  0.167000  0.060600  0.331000  1.0
  H  H2125  1  0.770400  0.164000  0.831000  1.0
  H  H2126  1  0.560600  0.667000  0.831000  1.0
  H  H2127  1  0.336000  0.729600  0.669000  1.0
  H  H2128  1  0.833000  0.939400  0.669000  1.0
  H  H2129  1  0.253800  0.878800  0.155400  1.0
  H  H2130  1  0.401600  0.276600  0.155400  1.0
  H  H2131  1  0.621200  0.246200  0.344600  1.0
  H  H2132  1  0.223400  0.098400  0.344600  1.0
  H  H2133  1  0.746200  0.121200  0.844600  1.0
  H  H2134  1  0.598400  0.723400  0.844600  1.0
  H  H2135  1  0.378800  0.753800  0.655400  1.0
  H  H2136  1  0.776600  0.901600  0.655400  1.0
  H  H2137  1  0.270100  0.888900  0.118400  1.0
  H  H2138  1  0.348300  0.229500  0.118400  1.0
  H  H2139  1  0.611100  0.229900  0.381600  1.0
  H  H2140  1  0.270500  0.151700  0.381600  1.0
  H  H2141  1  0.729900  0.111100  0.881600  1.0
  H  H2142  1  0.651700  0.770500  0.881600  1.0
  H  H2143  1  0.388900  0.770100  0.618400  1.0
  H  H2144  1  0.729500  0.848300  0.618400  1.0
  H  H2145  1  0.268000  0.846000  0.072200  1.0
  H  H2146  1  0.304200  0.226200  0.072200  1.0
  H  H2147  1  0.654000  0.232000  0.427800  1.0
  H  H2148  1  0.273800  0.195800  0.427800  1.0
  H  H2149  1  0.732000  0.154000  0.927800  1.0
  H  H2150  1  0.695800  0.773800  0.927800  1.0
  H  H2151  1  0.346000  0.768000  0.572200  1.0
  H  H2152  1  0.726200  0.804200  0.572200  1.0
  H  H2153  1  0.270700  0.801100  0.038000  1.0
  H  H2154  1  0.267300  0.236900  0.038000  1.0
  H  H2155  1  0.698900  0.229300  0.462000  1.0
  H  H2156  1  0.263100  0.232700  0.462000  1.0
  H  H2157  1  0.729300  0.198900  0.962000  1.0
  H  H2158  1  0.732700  0.763100  0.962000  1.0
  H  H2159  1  0.301100  0.770700  0.538000  1.0
  H  H2160  1  0.736900  0.767300  0.538000  1.0
  H  H2161  1  0.228400  0.781600  0.016800  1.0
  H  H2162  1  0.288400  0.235200  0.016800  1.0
  H  H2163  1  0.718400  0.271600  0.483200  1.0
  H  H2164  1  0.264800  0.211600  0.483200  1.0
  H  H2165  1  0.771600  0.218400  0.983200  1.0
  H  H2166  1  0.711600  0.764800  0.983200  1.0
  H  H2167  1  0.281600  0.728400  0.516800  1.0
  H  H2168  1  0.735200  0.788400  0.516800  1.0
  H  H2169  1  0.255400  0.758600  0.015600  1.0
  H  H2170  1  0.260200  0.257000  0.015600  1.0
  H  H2171  1  0.741400  0.244600  0.484400  1.0
  H  H2172  1  0.243000  0.239800  0.484400  1.0
  H  H2173  1  0.744600  0.241400  0.984400  1.0
  H  H2174  1  0.739800  0.743000  0.984400  1.0
  H  H2175  1  0.258600  0.755400  0.515600  1.0
  H  H2176  1  0.757000  0.760200  0.515600  1.0
  H  H2177  1  0.297300  0.935500  0.458200  1.0
  H  H2178  1  0.660900  0.522700  0.458200  1.0
  H  H2179  1  0.564500  0.202700  0.041800  1.0
  H  H2180  1  0.977300  0.839100  0.041800  1.0
  H  H2181  1  0.702700  0.064500  0.541800  1.0
  H  H2182  1  0.339100  0.477300  0.541800  1.0
  H  H2183  1  0.435500  0.797300  0.958200  1.0
  H  H2184  1  0.022700  0.160900  0.958200  1.0
  H  H2185  1  0.298600  0.900800  0.464000  1.0
  H  H2186  1  0.665400  0.563200  0.464000  1.0
  H  H2187  1  0.599200  0.201400  0.036000  1.0
  H  H2188  1  0.936800  0.834600  0.036000  1.0
  H  H2189  1  0.701400  0.099200  0.536000  1.0
  H  H2190  1  0.334600  0.436800  0.536000  1.0
  H  H2191  1  0.400800  0.798600  0.964000  1.0
  H  H2192  1  0.063200  0.165400  0.964000  1.0
  H  H2193  1  0.264700  0.899100  0.434000  1.0
  H  H2194  1  0.669300  0.534900  0.434000  1.0
  H  H2195  1  0.600900  0.235300  0.066000  1.0
  H  H2196  1  0.965100  0.830700  0.066000  1.0
  H  H2197  1  0.735300  0.100900  0.566000  1.0
  H  H2198  1  0.330700  0.465100  0.566000  1.0
  H  H2199  1  0.399100  0.764700  0.934000  1.0
  H  H2200  1  0.034900  0.169300  0.934000  1.0
  H  H2201  1  0.333200  0.969400  0.457000  1.0
  H  H2202  1  0.623800  0.487600  0.457000  1.0
  H  H2203  1  0.530600  0.166800  0.043000  1.0
  H  H2204  1  0.012400  0.876200  0.043000  1.0
  H  H2205  1  0.666800  0.030600  0.543000  1.0
  H  H2206  1  0.376200  0.512400  0.543000  1.0
  H  H2207  1  0.469400  0.833200  0.957000  1.0
  H  H2208  1  0.987600  0.123800  0.957000  1.0
  H  H2209  1  0.299800  0.958000  0.422400  1.0
  H  H2210  1  0.622600  0.464400  0.422400  1.0
  H  H2211  1  0.542000  0.200200  0.077600  1.0
  H  H2212  1  0.035600  0.877400  0.077600  1.0
  H  H2213  1  0.700200  0.042000  0.577600  1.0
  H  H2214  1  0.377400  0.535600  0.577600  1.0
  H  H2215  1  0.458000  0.799800  0.922400  1.0
  H  H2216  1  0.964400  0.122600  0.922400  1.0
  H  H2217  1  0.350700  0.010500  0.438000  1.0
  H  H2218  1  0.587300  0.427500  0.438000  1.0
  H  H2219  1  0.489500  0.149300  0.062000  1.0
  H  H2220  1  0.072500  0.912700  0.062000  1.0
  H  H2221  1  0.649300  0.989500  0.562000  1.0
  H  H2222  1  0.412700  0.572500  0.562000  1.0
  H  H2223  1  0.510500  0.850700  0.938000  1.0
  H  H2224  1  0.927500  0.087300  0.938000  1.0
  H  H2225  1  0.373200  0.986400  0.399800  1.0
  H  H2226  1  0.526600  0.413400  0.399800  1.0
  H  H2227  1  0.513600  0.126800  0.100200  1.0
  H  H2228  1  0.086600  0.973400  0.100200  1.0
  H  H2229  1  0.626800  0.013600  0.600200  1.0
  H  H2230  1  0.473400  0.586600  0.600200  1.0
  H  H2231  1  0.486400  0.873200  0.899800  1.0
  H  H2232  1  0.913400  0.026600  0.899800  1.0
  H  H2233  1  0.381800  0.941200  0.362400  1.0
  H  H2234  1  0.480600  0.421200  0.362400  1.0
  H  H2235  1  0.558800  0.118200  0.137600  1.0
  H  H2236  1  0.078800  0.019400  0.137600  1.0
  H  H2237  1  0.618200  0.058800  0.637600  1.0
  H  H2238  1  0.519400  0.578800  0.637600  1.0
  H  H2239  1  0.441200  0.881800  0.862400  1.0
  H  H2240  1  0.921200  0.980600  0.862400  1.0
  H  H2241  1  0.414800  0.876200  0.335000  1.0
  H  H2242  1  0.420200  0.458800  0.335000  1.0
  H  H2243  1  0.623800  0.085200  0.165000  1.0
  H  H2244  1  0.041200  0.079800  0.165000  1.0
  H  H2245  1  0.585200  0.123800  0.665000  1.0
  H  H2246  1  0.579800  0.541200  0.665000  1.0
  H  H2247  1  0.376200  0.914800  0.835000  1.0
  H  H2248  1  0.958800  0.920200  0.835000  1.0
  H  H2249  1  0.410500  0.914300  0.337400  1.0
  H  H2250  1  0.426900  0.423100  0.337400  1.0
  H  H2251  1  0.585700  0.089500  0.162600  1.0
  H  H2252  1  0.076900  0.073100  0.162600  1.0
  H  H2253  1  0.589500  0.085700  0.662600  1.0
  H  H2254  1  0.573100  0.576900  0.662600  1.0
  H  H2255  1  0.414300  0.910500  0.837400  1.0
  H  H2256  1  0.923100  0.926900  0.837400  1.0
  H  H2257  1  0.346900  0.849900  0.298400  1.0
  H  H2258  1  0.451500  0.448500  0.298400  1.0
  H  H2259  1  0.650100  0.153100  0.201600  1.0
  H  H2260  1  0.051500  0.048500  0.201600  1.0
  H  H2261  1  0.653100  0.150100  0.701600  1.0
  H  H2262  1  0.548500  0.551500  0.701600  1.0
  H  H2263  1  0.349900  0.846900  0.798400  1.0
  H  H2264  1  0.948500  0.951500  0.798400  1.0
  H  H2265  1  0.348600  0.886800  0.296000  1.0
  H  H2266  1  0.447400  0.409200  0.296000  1.0
  H  H2267  1  0.613200  0.151400  0.204000  1.0
  H  H2268  1  0.090800  0.052600  0.204000  1.0
  H  H2269  1  0.651400  0.113200  0.704000  1.0
  H  H2270  1  0.552600  0.590800  0.704000  1.0
  H  H2271  1  0.386800  0.848600  0.796000  1.0
  H  H2272  1  0.909200  0.947400  0.796000  1.0
  H  H2273  1  0.388600  0.875800  0.270400  1.0
  H  H2274  1  0.381800  0.394600  0.270400  1.0
  H  H2275  1  0.624200  0.111400  0.229600  1.0
  H  H2276  1  0.105400  0.118200  0.229600  1.0
  H  H2277  1  0.611400  0.124200  0.729600  1.0
  H  H2278  1  0.618200  0.605400  0.729600  1.0
  H  H2279  1  0.375800  0.888600  0.770400  1.0
  H  H2280  1  0.894600  0.881800  0.770400  1.0
  H  H2281  1  0.389300  0.840100  0.274600  1.0
  H  H2282  1  0.385300  0.434500  0.274600  1.0
  H  H2283  1  0.659900  0.110700  0.225400  1.0
  H  H2284  1  0.065500  0.114700  0.225400  1.0
  H  H2285  1  0.610700  0.159900  0.725400  1.0
  H  H2286  1  0.614700  0.565500  0.725400  1.0
  H  H2287  1  0.340100  0.889300  0.774600  1.0
  H  H2288  1  0.934500  0.885300  0.774600  1.0
  H  H2289  1  0.328600  0.850200  0.232200  1.0
  H  H2290  1  0.403600  0.382000  0.232200  1.0
  H  H2291  1  0.649800  0.171400  0.267800  1.0
  H  H2292  1  0.118000  0.096400  0.267800  1.0
  H  H2293  1  0.671400  0.149800  0.767800  1.0
  H  H2294  1  0.596400  0.618000  0.767800  1.0
  H  H2295  1  0.350200  0.828600  0.732200  1.0
  H  H2296  1  0.882000  0.903600  0.732200  1.0
  H  H2297  1  0.326300  0.815500  0.238200  1.0
  H  H2298  1  0.411900  0.422700  0.238200  1.0
  H  H2299  1  0.684500  0.173700  0.261800  1.0
  H  H2300  1  0.077300  0.088100  0.261800  1.0
  H  H2301  1  0.673700  0.184500  0.761800  1.0
  H  H2302  1  0.588100  0.577300  0.761800  1.0
  H  H2303  1  0.315500  0.826300  0.738200  1.0
  H  H2304  1  0.922700  0.911900  0.738200  1.0
  H  H2305  1  0.363900  0.796900  0.213000  1.0
  H  H2306  1  0.349100  0.416100  0.213000  1.0
  H  H2307  1  0.703100  0.136100  0.287000  1.0
  H  H2308  1  0.083900  0.150900  0.287000  1.0
  H  H2309  1  0.636100  0.203100  0.787000  1.0
  H  H2310  1  0.650900  0.583900  0.787000  1.0
  H  H2311  1  0.296900  0.863900  0.713000  1.0
  H  H2312  1  0.916100  0.849100  0.713000  1.0
  H  H2313  1  0.372600  0.834000  0.211200  1.0
  H  H2314  1  0.338600  0.377200  0.211200  1.0
  H  H2315  1  0.666000  0.127400  0.288800  1.0
  H  H2316  1  0.122800  0.161400  0.288800  1.0
  H  H2317  1  0.627400  0.166000  0.788800  1.0
  H  H2318  1  0.661400  0.622800  0.788800  1.0
  H  H2319  1  0.334000  0.872600  0.711200  1.0
  H  H2320  1  0.877200  0.838600  0.711200  1.0
  H  H2321  1  0.298500  0.781300  0.173400  1.0
  H  H2322  1  0.374900  0.392100  0.173400  1.0
  H  H2323  1  0.718700  0.201500  0.326600  1.0
  H  H2324  1  0.107900  0.125100  0.326600  1.0
  H  H2325  1  0.701500  0.218700  0.826600  1.0
  H  H2326  1  0.625100  0.607900  0.826600  1.0
  H  H2327  1  0.281300  0.798500  0.673400  1.0
  H  H2328  1  0.892100  0.874900  0.673400  1.0
  H  H2329  1  0.307400  0.818400  0.171600  1.0
  H  H2330  1  0.364200  0.353200  0.171600  1.0
  H  H2331  1  0.681600  0.192600  0.328400  1.0
  H  H2332  1  0.146800  0.135800  0.328400  1.0
  H  H2333  1  0.692600  0.181600  0.828400  1.0
  H  H2334  1  0.635800  0.646800  0.828400  1.0
  H  H2335  1  0.318400  0.807400  0.671600  1.0
  H  H2336  1  0.853200  0.864200  0.671600  1.0
  H  H2337  1  0.330800  0.822800  0.136800  1.0
  H  H2338  1  0.306000  0.314000  0.136800  1.0
  H  H2339  1  0.677200  0.169200  0.363200  1.0
  H  H2340  1  0.186000  0.194000  0.363200  1.0
  H  H2341  1  0.669200  0.177200  0.863200  1.0
  H  H2342  1  0.694000  0.686000  0.863200  1.0
  H  H2343  1  0.322800  0.830800  0.636800  1.0
  H  H2344  1  0.814000  0.806000  0.636800  1.0
  H  H2345  1  0.331100  0.826300  0.092400  1.0
  H  H2346  1  0.261300  0.266100  0.092400  1.0
  H  H2347  1  0.673700  0.168900  0.407600  1.0
  H  H2348  1  0.233900  0.238700  0.407600  1.0
  H  H2349  1  0.668900  0.173700  0.907600  1.0
  H  H2350  1  0.738700  0.733900  0.907600  1.0
  H  H2351  1  0.326300  0.831100  0.592400  1.0
  H  H2352  1  0.766100  0.761300  0.592400  1.0
  H  H2353  1  0.352700  0.816900  0.054000  1.0
  H  H2354  1  0.201300  0.237100  0.054000  1.0
  H  H2355  1  0.683100  0.147300  0.446000  1.0
  H  H2356  1  0.262900  0.298700  0.446000  1.0
  H  H2357  1  0.647300  0.183100  0.946000  1.0
  H  H2358  1  0.798700  0.762900  0.946000  1.0
  H  H2359  1  0.316900  0.852700  0.554000  1.0
  H  H2360  1  0.737100  0.701300  0.554000  1.0
  H  H2361  1  0.381700  0.774300  0.046400  1.0
  H  H2362  1  0.164700  0.272100  0.046400  1.0
  H  H2363  1  0.725700  0.118300  0.453600  1.0
  H  H2364  1  0.227900  0.335300  0.453600  1.0
  H  H2365  1  0.618300  0.225700  0.953600  1.0
  H  H2366  1  0.835300  0.727900  0.953600  1.0
  H  H2367  1  0.274300  0.881700  0.546400  1.0
  H  H2368  1  0.772100  0.664700  0.546400  1.0
  H  H2369  1  0.390600  0.725000  0.033000  1.0
  H  H2370  1  0.142400  0.308000  0.033000  1.0
  H  H2371  1  0.775000  0.109400  0.467000  1.0
  H  H2372  1  0.192000  0.357600  0.467000  1.0
  H  H2373  1  0.609400  0.275000  0.967000  1.0
  H  H2374  1  0.857600  0.692000  0.967000  1.0
  H  H2375  1  0.225000  0.890600  0.533000  1.0
  H  H2376  1  0.808000  0.642400  0.533000  1.0
  H  H2377  1  0.393500  0.688500  0.035000  1.0
  H  H2378  1  0.141500  0.346500  0.035000  1.0
  H  H2379  1  0.811500  0.106500  0.465000  1.0
  H  H2380  1  0.153500  0.358500  0.465000  1.0
  H  H2381  1  0.606500  0.311500  0.965000  1.0
  H  H2382  1  0.858500  0.653500  0.965000  1.0
  H  H2383  1  0.188500  0.893500  0.535000  1.0
  H  H2384  1  0.846500  0.641500  0.535000  1.0
  H  H2385  1  0.428700  0.722300  0.053800  1.0
  H  H2386  1  0.125100  0.331500  0.053800  1.0
  H  H2387  1  0.777700  0.071300  0.446200  1.0
  H  H2388  1  0.168500  0.374900  0.446200  1.0
  H  H2389  1  0.571300  0.277700  0.946200  1.0
  H  H2390  1  0.874900  0.668500  0.946200  1.0
  H  H2391  1  0.222300  0.928700  0.553800  1.0
  H  H2392  1  0.831500  0.625100  0.553800  1.0
  H  H2393  1  0.440300  0.949100  0.487400  1.0
  H  H2394  1  0.547100  0.538300  0.487400  1.0
  H  H2395  1  0.550900  0.059700  0.012600  1.0
  H  H2396  1  0.961700  0.952900  0.012600  1.0
  H  H2397  1  0.559700  0.050900  0.512600  1.0
  H  H2398  1  0.452900  0.461700  0.512600  1.0
  H  H2399  1  0.449100  0.940300  0.987400  1.0
  H  H2400  1  0.038300  0.047100  0.987400  1.0
  H  H2401  1  0.404800  0.915800  0.470000  1.0
  H  H2402  1  0.565200  0.554200  0.470000  1.0
  H  H2403  1  0.584200  0.095200  0.030000  1.0
  H  H2404  1  0.945800  0.934800  0.030000  1.0
  H  H2405  1  0.595200  0.084200  0.530000  1.0
  H  H2406  1  0.434800  0.445800  0.530000  1.0
  H  H2407  1  0.415800  0.904800  0.970000  1.0
  H  H2408  1  0.054200  0.065200  0.970000  1.0
  H  H2409  1  0.402900  0.949300  0.462400  1.0
  H  H2410  1  0.559500  0.513100  0.462400  1.0
  H  H2411  1  0.550700  0.097100  0.037600  1.0
  H  H2412  1  0.986900  0.940500  0.037600  1.0
  H  H2413  1  0.597100  0.050700  0.537600  1.0
  H  H2414  1  0.440500  0.486900  0.537600  1.0
  H  H2415  1  0.449300  0.902900  0.962400  1.0
  H  H2416  1  0.013100  0.059500  0.962400  1.0
  H  H2417  1  0.453900  0.990700  0.470200  1.0
  H  H2418  1  0.516300  0.479500  0.470200  1.0
  H  H2419  1  0.509300  0.046100  0.029800  1.0
  H  H2420  1  0.020500  0.983700  0.029800  1.0
  H  H2421  1  0.546100  0.009300  0.529800  1.0
  H  H2422  1  0.483700  0.520500  0.529800  1.0
  H  H2423  1  0.490700  0.953900  0.970200  1.0
  H  H2424  1  0.979500  0.016300  0.970200  1.0
  H  H2425  1  0.493200  0.022200  0.457800  1.0
  H  H2426  1  0.464600  0.435600  0.457800  1.0
  H  H2427  1  0.477800  0.006800  0.042200  1.0
  H  H2428  1  0.064400  0.035400  0.042200  1.0
  H  H2429  1  0.506800  0.977800  0.542200  1.0
  H  H2430  1  0.535400  0.564400  0.542200  1.0
  H  H2431  1  0.522200  0.993200  0.957800  1.0
  H  H2432  1  0.935600  0.964600  0.957800  1.0
  H  H2433  1  0.512700  0.991700  0.419200  1.0
  H  H2434  1  0.406500  0.427500  0.419200  1.0
  H  H2435  1  0.508300  0.987300  0.080800  1.0
  H  H2436  1  0.072500  0.093500  0.080800  1.0
  H  H2437  1  0.487300  0.008300  0.580800  1.0
  H  H2438  1  0.593500  0.572500  0.580800  1.0
  H  H2439  1  0.491700  0.012700  0.919200  1.0
  H  H2440  1  0.927500  0.906500  0.919200  1.0
  H  H2441  1  0.500400  0.941600  0.373200  1.0
  H  H2442  1  0.372800  0.431600  0.373200  1.0
  H  H2443  1  0.558400  0.999600  0.126800  1.0
  H  H2444  1  0.068400  0.127200  0.126800  1.0
  H  H2445  1  0.499600  0.058400  0.626800  1.0
  H  H2446  1  0.627200  0.568400  0.626800  1.0
  H  H2447  1  0.441600  0.000400  0.873200  1.0
  H  H2448  1  0.931600  0.872800  0.873200  1.0
  H  H2449  1  0.522500  0.866300  0.341400  1.0
  H  H2450  1  0.318900  0.475100  0.341400  1.0
  H  H2451  1  0.633700  0.977500  0.158600  1.0
  H  H2452  1  0.024900  0.181100  0.158600  1.0
  H  H2453  1  0.477500  0.133700  0.658600  1.0
  H  H2454  1  0.681100  0.524900  0.658600  1.0
  H  H2455  1  0.366300  0.022500  0.841400  1.0
  H  H2456  1  0.975100  0.818900  0.841400  1.0
  H  H2457  1  0.521800  0.904800  0.343400  1.0
  H  H2458  1  0.321600  0.438600  0.343400  1.0
  H  H2459  1  0.595200  0.978200  0.156600  1.0
  H  H2460  1  0.061400  0.178400  0.156600  1.0
  H  H2461  1  0.478200  0.095200  0.656600  1.0
  H  H2462  1  0.678400  0.561400  0.656600  1.0
  H  H2463  1  0.404800  0.021800  0.843400  1.0
  H  H2464  1  0.938600  0.821600  0.843400  1.0
  H  H2465  1  0.461200  0.882000  0.305000  1.0
  H  H2466  1  0.343800  0.423000  0.305000  1.0
  H  H2467  1  0.618000  0.038800  0.195000  1.0
  H  H2468  1  0.077000  0.156200  0.195000  1.0
  H  H2469  1  0.538800  0.118000  0.695000  1.0
  H  H2470  1  0.656200  0.577000  0.695000  1.0
  H  H2471  1  0.382000  0.961200  0.805000  1.0
  H  H2472  1  0.923000  0.843800  0.805000  1.0
  H  H2473  1  0.457800  0.844400  0.305800  1.0
  H  H2474  1  0.348000  0.461400  0.305800  1.0
  H  H2475  1  0.655600  0.042200  0.194200  1.0
  H  H2476  1  0.038600  0.152000  0.194200  1.0
  H  H2477  1  0.542200  0.155600  0.694200  1.0
  H  H2478  1  0.652000  0.538600  0.694200  1.0
  H  H2479  1  0.344400  0.957800  0.805800  1.0
  H  H2480  1  0.961400  0.848000  0.805800  1.0
  H  H2481  1  0.502300  0.868100  0.279000  1.0
  H  H2482  1  0.276700  0.410900  0.279000  1.0
  H  H2483  1  0.631900  0.997700  0.221000  1.0
  H  H2484  1  0.089100  0.223300  0.221000  1.0
  H  H2485  1  0.497700  0.131900  0.721000  1.0
  H  H2486  1  0.723300  0.589100  0.721000  1.0
  H  H2487  1  0.368100  0.002300  0.779000  1.0
  H  H2488  1  0.910900  0.776700  0.779000  1.0
  H  H2489  1  0.492800  0.828800  0.276000  1.0
  H  H2490  1  0.283200  0.447200  0.276000  1.0
  H  H2491  1  0.671200  0.007200  0.224000  1.0
  H  H2492  1  0.052800  0.216800  0.224000  1.0
  H  H2493  1  0.507200  0.171200  0.724000  1.0
  H  H2494  1  0.716800  0.552800  0.724000  1.0
  H  H2495  1  0.328800  0.992800  0.776000  1.0
  H  H2496  1  0.947200  0.783200  0.776000  1.0
  H  H2497  1  0.444400  0.856200  0.240000  1.0
  H  H2498  1  0.295600  0.383800  0.240000  1.0
  H  H2499  1  0.643800  0.055600  0.260000  1.0
  H  H2500  1  0.116200  0.204400  0.260000  1.0
  H  H2501  1  0.555600  0.143800  0.760000  1.0
  H  H2502  1  0.704400  0.616200  0.760000  1.0
  H  H2503  1  0.356200  0.944400  0.740000  1.0
  H  H2504  1  0.883800  0.795600  0.740000  1.0
  H  H2505  1  0.431600  0.818400  0.239200  1.0
  H  H2506  1  0.307600  0.420800  0.239200  1.0
  H  H2507  1  0.681600  0.068400  0.260800  1.0
  H  H2508  1  0.079200  0.192400  0.260800  1.0
  H  H2509  1  0.568400  0.181600  0.760800  1.0
  H  H2510  1  0.692400  0.579200  0.760800  1.0
  H  H2511  1  0.318400  0.931600  0.739200  1.0
  H  H2512  1  0.920800  0.807600  0.739200  1.0
  H  H2513  1  0.485600  0.835000  0.219800  1.0
  H  H2514  1  0.234200  0.384800  0.219800  1.0
  H  H2515  1  0.665000  0.014400  0.280200  1.0
  H  H2516  1  0.115200  0.265800  0.280200  1.0
  H  H2517  1  0.514400  0.165000  0.780200  1.0
  H  H2518  1  0.765800  0.615200  0.780200  1.0
  H  H2519  1  0.335000  0.985600  0.719800  1.0
  H  H2520  1  0.884800  0.734200  0.719800  1.0
  H  H2521  1  0.470400  0.796600  0.217200  1.0
  H  H2522  1  0.246800  0.420600  0.217200  1.0
  H  H2523  1  0.703400  0.029600  0.282800  1.0
  H  H2524  1  0.079400  0.253200  0.282800  1.0
  H  H2525  1  0.529600  0.203400  0.782800  1.0
  H  H2526  1  0.753200  0.579400  0.782800  1.0
  H  H2527  1  0.296600  0.970400  0.717200  1.0
  H  H2528  1  0.920600  0.746800  0.717200  1.0
  H  H2529  1  0.430900  0.829100  0.180800  1.0
  H  H2530  1  0.249900  0.351700  0.180800  1.0
  H  H2531  1  0.670900  0.069100  0.319200  1.0
  H  H2532  1  0.148300  0.250100  0.319200  1.0
  H  H2533  1  0.569100  0.170900  0.819200  1.0
  H  H2534  1  0.750100  0.648300  0.819200  1.0
  H  H2535  1  0.329100  0.930900  0.680800  1.0
  H  H2536  1  0.851700  0.749900  0.680800  1.0
  H  H2537  1  0.411500  0.794500  0.181600  1.0
  H  H2538  1  0.270100  0.387100  0.181600  1.0
  H  H2539  1  0.705500  0.088500  0.318400  1.0
  H  H2540  1  0.112900  0.229900  0.318400  1.0
  H  H2541  1  0.588500  0.205500  0.818400  1.0
  H  H2542  1  0.729900  0.612900  0.818400  1.0
  H  H2543  1  0.294500  0.911500  0.681600  1.0
  H  H2544  1  0.887100  0.770100  0.681600  1.0
  H  H2545  1  0.460300  0.827100  0.153200  1.0
  H  H2546  1  0.192900  0.326100  0.153200  1.0
  H  H2547  1  0.672900  0.039700  0.346800  1.0
  H  H2548  1  0.173900  0.307100  0.346800  1.0
  H  H2549  1  0.539700  0.172900  0.846800  1.0
  H  H2550  1  0.807100  0.673900  0.846800  1.0
  H  H2551  1  0.327100  0.960300  0.653200  1.0
  H  H2552  1  0.826100  0.692900  0.653200  1.0
  H  H2553  1  0.485200  0.834800  0.119400  1.0
  H  H2554  1  0.134200  0.284600  0.119400  1.0
  H  H2555  1  0.665200  0.014800  0.380600  1.0
  H  H2556  1  0.215400  0.365800  0.380600  1.0
  H  H2557  1  0.514800  0.165200  0.880600  1.0
  H  H2558  1  0.865800  0.715400  0.880600  1.0
  H  H2559  1  0.334800  0.985200  0.619400  1.0
  H  H2560  1  0.784600  0.634200  0.619400  1.0
  H  H2561  1  0.506900  0.816300  0.080600  1.0
  H  H2562  1  0.073700  0.264300  0.080600  1.0
  H  H2563  1  0.683700  0.993100  0.419400  1.0
  H  H2564  1  0.235700  0.426300  0.419400  1.0
  H  H2565  1  0.493100  0.183700  0.919400  1.0
  H  H2566  1  0.926300  0.735700  0.919400  1.0
  H  H2567  1  0.316300  0.006900  0.580600  1.0
  H  H2568  1  0.764300  0.573700  0.580600  1.0
  H  H2569  1  0.516400  0.760200  0.063800  1.0
  H  H2570  1  0.047400  0.303600  0.063800  1.0
  H  H2571  1  0.739800  0.983600  0.436200  1.0
  H  H2572  1  0.196400  0.452600  0.436200  1.0
  H  H2573  1  0.483600  0.239800  0.936200  1.0
  H  H2574  1  0.952600  0.696400  0.936200  1.0
  H  H2575  1  0.260200  0.016400  0.563800  1.0
  H  H2576  1  0.803600  0.547400  0.563800  1.0
  H  H2577  1  0.503000  0.699200  0.038800  1.0
  H  H2578  1  0.035800  0.339600  0.038800  1.0
  H  H2579  1  0.800800  0.997000  0.461200  1.0
  H  H2580  1  0.160400  0.464200  0.461200  1.0
  H  H2581  1  0.497000  0.300800  0.961200  1.0
  H  H2582  1  0.964200  0.660400  0.961200  1.0
  H  H2583  1  0.199200  0.003000  0.538800  1.0
  H  H2584  1  0.839600  0.535800  0.538800  1.0
  H  H2585  1  0.520200  0.675400  0.055400  1.0
  H  H2586  1  0.035200  0.380000  0.055400  1.0
  H  H2587  1  0.824600  0.979800  0.444600  1.0
  H  H2588  1  0.120000  0.464800  0.444600  1.0
  H  H2589  1  0.479800  0.324600  0.944600  1.0
  H  H2590  1  0.964800  0.620000  0.944600  1.0
  H  H2591  1  0.175400  0.020200  0.555400  1.0
  H  H2592  1  0.880000  0.535200  0.555400  1.0
  H  H2593  1  0.541300  0.716900  0.070600  1.0
  H  H2594  1  0.029300  0.353700  0.070600  1.0
  H  H2595  1  0.783100  0.958700  0.429400  1.0
  H  H2596  1  0.146300  0.470700  0.429400  1.0
  H  H2597  1  0.458700  0.283100  0.929400  1.0
  H  H2598  1  0.970700  0.646300  0.929400  1.0
  H  H2599  1  0.216900  0.041300  0.570600  1.0
  H  H2600  1  0.853700  0.529300  0.570600  1.0
  H  H2601  1  0.591900  0.998100  0.491000  1.0
  H  H2602  1  0.399100  0.492900  0.491000  1.0
  H  H2603  1  0.501900  0.908100  0.009000  1.0
  H  H2604  1  0.007100  0.100900  0.009000  1.0
  H  H2605  1  0.408100  0.001900  0.509000  1.0
  H  H2606  1  0.600900  0.507100  0.509000  1.0
  H  H2607  1  0.498100  0.091900  0.991000  1.0
  H  H2608  1  0.992900  0.899100  0.991000  1.0
  H  H2609  1  0.581900  0.015500  0.466400  1.0
  H  H2610  1  0.384500  0.450900  0.466400  1.0
  H  H2611  1  0.484500  0.918100  0.033600  1.0
  H  H2612  1  0.049100  0.115500  0.033600  1.0
  H  H2613  1  0.418100  0.984500  0.533600  1.0
  H  H2614  1  0.615500  0.549100  0.533600  1.0
  H  H2615  1  0.515500  0.081900  0.966400  1.0
  H  H2616  1  0.950900  0.884500  0.966400  1.0
  H  H2617  1  0.621400  0.012400  0.481800  1.0
  H  H2618  1  0.360400  0.469400  0.481800  1.0
  H  H2619  1  0.487600  0.878600  0.018200  1.0
  H  H2620  1  0.030600  0.139600  0.018200  1.0
  H  H2621  1  0.378600  0.987600  0.518200  1.0
  H  H2622  1  0.639600  0.530600  0.518200  1.0
  H  H2623  1  0.512400  0.121400  0.981800  1.0
  H  H2624  1  0.969400  0.860400  0.981800  1.0
  H  H2625  1  0.585600  0.011600  0.423800  1.0
  H  H2626  1  0.338200  0.412200  0.423800  1.0
  H  H2627  1  0.488400  0.914400  0.076200  1.0
  H  H2628  1  0.087800  0.161800  0.076200  1.0
  H  H2629  1  0.414400  0.988400  0.576200  1.0
  H  H2630  1  0.661800  0.587800  0.576200  1.0
  H  H2631  1  0.511600  0.085600  0.923800  1.0
  H  H2632  1  0.912200  0.838200  0.923800  1.0
  H  H2633  1  0.587100  0.006700  0.373800  1.0
  H  H2634  1  0.286700  0.367100  0.373800  1.0
  H  H2635  1  0.493300  0.912900  0.126200  1.0
  H  H2636  1  0.132900  0.213300  0.126200  1.0
  H  H2637  1  0.412900  0.993300  0.626200  1.0
  H  H2638  1  0.713300  0.632900  0.626200  1.0
  H  H2639  1  0.506700  0.087100  0.873800  1.0
  H  H2640  1  0.867100  0.786700  0.873800  1.0
  H  H2641  1  0.599900  0.953900  0.344200  1.0
  H  H2642  1  0.244300  0.390300  0.344200  1.0
  H  H2643  1  0.546100  0.900100  0.155800  1.0
  H  H2644  1  0.109700  0.255700  0.155800  1.0
  H  H2645  1  0.400100  0.046100  0.655800  1.0
  H  H2646  1  0.755700  0.609700  0.655800  1.0
  H  H2647  1  0.453900  0.099900  0.844200  1.0
  H  H2648  1  0.890300  0.744300  0.844200  1.0
  H  H2649  1  0.603100  0.899500  0.328400  1.0
  H  H2650  1  0.225300  0.428900  0.328400  1.0
  H  H2651  1  0.600500  0.896900  0.171600  1.0
  H  H2652  1  0.071100  0.274700  0.171600  1.0
  H  H2653  1  0.396900  0.100500  0.671600  1.0
  H  H2654  1  0.774700  0.571100  0.671600  1.0
  H  H2655  1  0.399500  0.103100  0.828400  1.0
  H  H2656  1  0.928900  0.725300  0.828400  1.0
  H  H2657  1  0.623200  0.828800  0.326000  1.0
  H  H2658  1  0.202800  0.497200  0.326000  1.0
  H  H2659  1  0.671200  0.876800  0.174000  1.0
  H  H2660  1  0.002800  0.297200  0.174000  1.0
  H  H2661  1  0.376800  0.171200  0.674000  1.0
  H  H2662  1  0.797200  0.502800  0.674000  1.0
  H  H2663  1  0.328800  0.123200  0.826000  1.0
  H  H2664  1  0.997200  0.702800  0.826000  1.0
  H  H2665  1  0.604400  0.845600  0.302400  1.0
  H  H2666  1  0.198000  0.456800  0.302400  1.0
  H  H2667  1  0.654400  0.895600  0.197600  1.0
  H  H2668  1  0.043200  0.302000  0.197600  1.0
  H  H2669  1  0.395600  0.154400  0.697600  1.0
  H  H2670  1  0.802000  0.543200  0.697600  1.0
  H  H2671  1  0.345600  0.104400  0.802400  1.0
  H  H2672  1  0.956800  0.698000  0.802400  1.0
  H  H2673  1  0.545400  0.811600  0.290800  1.0
  H  H2674  1  0.245400  0.479200  0.290800  1.0
  H  H2675  1  0.688400  0.954600  0.209200  1.0
  H  H2676  1  0.020800  0.254600  0.209200  1.0
  H  H2677  1  0.454600  0.188400  0.709200  1.0
  H  H2678  1  0.754600  0.520800  0.709200  1.0
  H  H2679  1  0.311600  0.045400  0.790800  1.0
  H  H2680  1  0.979200  0.745400  0.790800  1.0
  H  H2681  1  0.564500  0.794100  0.313600  1.0
  H  H2682  1  0.249100  0.519500  0.313600  1.0
  H  H2683  1  0.705900  0.935500  0.186400  1.0
  H  H2684  1  0.980500  0.250900  0.186400  1.0
  H  H2685  1  0.435500  0.205900  0.686400  1.0
  H  H2686  1  0.750900  0.480500  0.686400  1.0
  H  H2687  1  0.294100  0.064500  0.813600  1.0
  H  H2688  1  0.019500  0.749100  0.813600  1.0
  H  H2689  1  0.589500  0.766500  0.275400  1.0
  H  H2690  1  0.185900  0.508900  0.275400  1.0
  H  H2691  1  0.733500  0.910500  0.224600  1.0
  H  H2692  1  0.991100  0.314100  0.224600  1.0
  H  H2693  1  0.410500  0.233500  0.724600  1.0
  H  H2694  1  0.814100  0.491100  0.724600  1.0
  H  H2695  1  0.266500  0.089500  0.775400  1.0
  H  H2696  1  0.008900  0.685900  0.775400  1.0
  H  H2697  1  0.547200  0.750200  0.259600  1.0
  H  H2698  1  0.212400  0.509400  0.259600  1.0
  H  H2699  1  0.749800  0.952800  0.240400  1.0
  H  H2700  1  0.990600  0.287600  0.240400  1.0
  H  H2701  1  0.452800  0.249800  0.740400  1.0
  H  H2702  1  0.787600  0.490600  0.740400  1.0
  H  H2703  1  0.250200  0.047200  0.759600  1.0
  H  H2704  1  0.009400  0.712400  0.759600  1.0
  H  H2705  1  0.584000  0.797000  0.244000  1.0
  H  H2706  1  0.160000  0.447000  0.244000  1.0
  H  H2707  1  0.703000  0.916000  0.256000  1.0
  H  H2708  1  0.053000  0.340000  0.256000  1.0
  H  H2709  1  0.416000  0.203000  0.756000  1.0
  H  H2710  1  0.840000  0.553000  0.756000  1.0
  H  H2711  1  0.297000  0.084000  0.744000  1.0
  H  H2712  1  0.947000  0.660000  0.744000  1.0
  H  H2713  1  0.541500  0.787100  0.231200  1.0
  H  H2714  1  0.189700  0.444100  0.231200  1.0
  H  H2715  1  0.712900  0.958500  0.268800  1.0
  H  H2716  1  0.055900  0.310300  0.268800  1.0
  H  H2717  1  0.458500  0.212900  0.768800  1.0
  H  H2718  1  0.810300  0.555900  0.768800  1.0
  H  H2719  1  0.287100  0.041500  0.731200  1.0
  H  H2720  1  0.944100  0.689700  0.731200  1.0
  H  H2721  1  0.575700  0.730700  0.214400  1.0
  H  H2722  1  0.138700  0.483700  0.214400  1.0
  H  H2723  1  0.769300  0.924300  0.285600  1.0
  H  H2724  1  0.016300  0.361300  0.285600  1.0
  H  H2725  1  0.424300  0.269300  0.785600  1.0
  H  H2726  1  0.861300  0.516300  0.785600  1.0
  H  H2727  1  0.230700  0.075700  0.714400  1.0
  H  H2728  1  0.983700  0.638700  0.714400  1.0
  H  H2729  1  0.533100  0.723500  0.198800  1.0
  H  H2730  1  0.165700  0.475300  0.198800  1.0
  H  H2731  1  0.776500  0.966900  0.301200  1.0
  H  H2732  1  0.024700  0.334300  0.301200  1.0
  H  H2733  1  0.466900  0.276500  0.801200  1.0
  H  H2734  1  0.834300  0.524700  0.801200  1.0
  H  H2735  1  0.223500  0.033100  0.698800  1.0
  H  H2736  1  0.975300  0.665700  0.698800  1.0
  H  H2737  1  0.537600  0.759600  0.172400  1.0
  H  H2738  1  0.134800  0.412800  0.172400  1.0
  H  H2739  1  0.740400  0.962400  0.327600  1.0
  H  H2740  1  0.087200  0.365200  0.327600  1.0
  H  H2741  1  0.462400  0.240400  0.827600  1.0
  H  H2742  1  0.865200  0.587200  0.827600  1.0
  H  H2743  1  0.259600  0.037600  0.672400  1.0
  H  H2744  1  0.912800  0.634800  0.672400  1.0
  H  H2745  1  0.580400  0.767600  0.188200  1.0
  H  H2746  1  0.107800  0.420600  0.188200  1.0
  H  H2747  1  0.732400  0.919600  0.311800  1.0
  H  H2748  1  0.079400  0.392200  0.311800  1.0
  H  H2749  1  0.419600  0.232400  0.811800  1.0
  H  H2750  1  0.892200  0.579400  0.811800  1.0
  H  H2751  1  0.267600  0.080400  0.688200  1.0
  H  H2752  1  0.920600  0.607800  0.688200  1.0
  H  H2753  1  0.603100  0.724100  0.163800  1.0
  H  H2754  1  0.060700  0.439700  0.163800  1.0
  H  H2755  1  0.775900  0.896900  0.336200  1.0
  H  H2756  1  0.060300  0.439300  0.336200  1.0
  H  H2757  1  0.396900  0.275900  0.836200  1.0
  H  H2758  1  0.939300  0.560300  0.836200  1.0
  H  H2759  1  0.224100  0.103100  0.663800  1.0
  H  H2760  1  0.939700  0.560700  0.663800  1.0
  H  H2761  1  0.637800  0.696600  0.141800  1.0
  H  H2762  1  0.004000  0.445200  0.141800  1.0
  H  H2763  1  0.803400  0.862200  0.358200  1.0
  H  H2764  1  0.054800  0.496000  0.358200  1.0
  H  H2765  1  0.362200  0.303400  0.858200  1.0
  H  H2766  1  0.996000  0.554800  0.858200  1.0
  H  H2767  1  0.196600  0.137800  0.641800  1.0
  H  H2768  1  0.945200  0.504000  0.641800  1.0
  H  H2769  1  0.648300  0.647700  0.107600  1.0
  H  H2770  1  0.959300  0.459900  0.107600  1.0
  H  H2771  1  0.852300  0.851700  0.392400  1.0
  H  H2772  1  0.040100  0.540700  0.392400  1.0
  H  H2773  1  0.351700  0.352300  0.892400  1.0
  H  H2774  1  0.040700  0.540100  0.892400  1.0
  H  H2775  1  0.147700  0.148300  0.607600  1.0
  H  H2776  1  0.959900  0.459300  0.607600  1.0
  H  H2777  1  0.600600  0.593800  0.084400  1.0
  H  H2778  1  0.983800  0.490600  0.084400  1.0
  H  H2779  1  0.906200  0.899400  0.415600  1.0
  H  H2780  1  0.009400  0.516200  0.415600  1.0
  H  H2781  1  0.399400  0.406200  0.915600  1.0
  H  H2782  1  0.016200  0.509400  0.915600  1.0
  H  H2783  1  0.093800  0.100600  0.584400  1.0
  H  H2784  1  0.990600  0.483800  0.584400  1.0
  H  H2785  1  0.594000  0.609400  0.058600  1.0
  H  H2786  1  0.964600  0.449200  0.058600  1.0
  H  H2787  1  0.890600  0.906000  0.441400  1.0
  H  H2788  1  0.050800  0.535400  0.441400  1.0
  H  H2789  1  0.406000  0.390600  0.941400  1.0
  H  H2790  1  0.035400  0.550800  0.941400  1.0
  H  H2791  1  0.109400  0.094000  0.558600  1.0
  H  H2792  1  0.949200  0.464600  0.558600  1.0
  H  H2793  1  0.561200  0.557600  0.036600  1.0
  H  H2794  1  0.975400  0.479000  0.036600  1.0
  H  H2795  1  0.942400  0.938800  0.463400  1.0
  H  H2796  1  0.021000  0.524600  0.463400  1.0
  H  H2797  1  0.438800  0.442400  0.963400  1.0
  H  H2798  1  0.024600  0.521000  0.963400  1.0
  H  H2799  1  0.057600  0.061200  0.536600  1.0
  H  H2800  1  0.979000  0.475400  0.536600  1.0
  H  H2801  1  0.530100  0.562700  0.009400  1.0
  H  H2802  1  0.979300  0.446700  0.009400  1.0
  H  H2803  1  0.937300  0.969900  0.490600  1.0
  H  H2804  1  0.053300  0.520700  0.490600  1.0
  H  H2805  1  0.469900  0.437300  0.990600  1.0
  H  H2806  1  0.020700  0.553300  0.990600  1.0
  H  H2807  1  0.062700  0.030100  0.509400  1.0
  H  H2808  1  0.946700  0.479300  0.509400  1.0
  H  H2809  1  0.520600  0.533000  0.020200  1.0
  H  H2810  1  0.999600  0.487200  0.020200  1.0
  H  H2811  1  0.967000  0.979400  0.479800  1.0
  H  H2812  1  0.012800  0.500400  0.479800  1.0
  H  H2813  1  0.479400  0.467000  0.979800  1.0
  H  H2814  1  0.000400  0.512800  0.979800  1.0
  H  H2815  1  0.033000  0.020600  0.520200  1.0
  H  H2816  1  0.987200  0.499600  0.520200  1.0
  H  H2817  1  0.339200  0.595400  0.557600  1.0
  H  H2818  1  0.718400  0.962200  0.557600  1.0
  H  H2819  1  0.904600  0.160800  0.942400  1.0
  H  H2820  1  0.537800  0.781600  0.942400  1.0
  H  H2821  1  0.660800  0.404600  0.442400  1.0
  H  H2822  1  0.281600  0.037800  0.442400  1.0
  H  H2823  1  0.095400  0.839200  0.057600  1.0
  H  H2824  1  0.462200  0.218400  0.057600  1.0
  H  H2825  1  0.321900  0.552900  0.541800  1.0
  H  H2826  1  0.719900  0.988900  0.541800  1.0
  H  H2827  1  0.947100  0.178100  0.958200  1.0
  H  H2828  1  0.511100  0.780100  0.958200  1.0
  H  H2829  1  0.678100  0.447100  0.458200  1.0
  H  H2830  1  0.280100  0.011100  0.458200  1.0
  H  H2831  1  0.052900  0.821900  0.041800  1.0
  H  H2832  1  0.488900  0.219900  0.041800  1.0
  H  H2833  1  0.299300  0.576100  0.528400  1.0
  H  H2834  1  0.729100  0.952300  0.528400  1.0
  H  H2835  1  0.923900  0.200700  0.971600  1.0
  H  H2836  1  0.547700  0.770900  0.971600  1.0
  H  H2837  1  0.700700  0.423900  0.471600  1.0
  H  H2838  1  0.270900  0.047700  0.471600  1.0
  H  H2839  1  0.076100  0.799300  0.028400  1.0
  H  H2840  1  0.452300  0.229100  0.028400  1.0
  H  H2841  1  0.479700  0.569100  0.463800  1.0
  H  H2842  1  0.484100  0.894700  0.463800  1.0
  H  H2843  1  0.930900  0.020300  0.036200  1.0
  H  H2844  1  0.605300  0.015900  0.036200  1.0
  H  H2845  1  0.520300  0.430900  0.536200  1.0
  H  H2846  1  0.515900  0.105300  0.536200  1.0
  H  H2847  1  0.069100  0.979700  0.963800  1.0
  H  H2848  1  0.394700  0.984100  0.963800  1.0
  H  H2849  1  0.486800  0.591600  0.500800  1.0
  H  H2850  1  0.514000  0.909200  0.500800  1.0
  H  H2851  1  0.908400  0.013200  0.999200  1.0
  H  H2852  1  0.590800  0.986000  0.999200  1.0
  H  H2853  1  0.513200  0.408400  0.499200  1.0
  H  H2854  1  0.486000  0.090800  0.499200  1.0
  H  H2855  1  0.091600  0.986800  0.000800  1.0
  H  H2856  1  0.409200  0.014000  0.000800  1.0
  H  H2857  1  0.471200  0.606400  0.474600  1.0
  H  H2858  1  0.503400  0.868200  0.474600  1.0
  H  H2859  1  0.893600  0.028800  0.025400  1.0
  H  H2860  1  0.631800  0.996600  0.025400  1.0
  H  H2861  1  0.528800  0.393600  0.525400  1.0
  H  H2862  1  0.496600  0.131800  0.525400  1.0
  H  H2863  1  0.106400  0.971200  0.974600  1.0
  H  H2864  1  0.368200  0.003400  0.974600  1.0
  H  H2865  1  0.393000  0.622600  0.479000  1.0
  H  H2866  1  0.586000  0.856400  0.479000  1.0
  H  H2867  1  0.877400  0.107000  0.021000  1.0
  H  H2868  1  0.643600  0.914000  0.021000  1.0
  H  H2869  1  0.607000  0.377400  0.521000  1.0
  H  H2870  1  0.414000  0.143600  0.521000  1.0
  H  H2871  1  0.122600  0.893000  0.979000  1.0
  H  H2872  1  0.356400  0.086000  0.979000  1.0
  H  H2873  1  0.380800  0.657400  0.490800  1.0
  H  H2874  1  0.610000  0.833400  0.490800  1.0
  H  H2875  1  0.842600  0.119200  0.009200  1.0
  H  H2876  1  0.666600  0.890000  0.009200  1.0
  H  H2877  1  0.619200  0.342600  0.509200  1.0
  H  H2878  1  0.390000  0.166600  0.509200  1.0
  H  H2879  1  0.157400  0.880800  0.990800  1.0
  H  H2880  1  0.333400  0.110000  0.990800  1.0
  H  H2881  1  0.393500  0.648900  0.462800  1.0
  H  H2882  1  0.569300  0.813900  0.462800  1.0
  H  H2883  1  0.851100  0.106500  0.037200  1.0
  H  H2884  1  0.686100  0.930700  0.037200  1.0
  H  H2885  1  0.606500  0.351100  0.537200  1.0
  H  H2886  1  0.430700  0.186100  0.537200  1.0
  H  H2887  1  0.148900  0.893500  0.962800  1.0
  H  H2888  1  0.313900  0.069300  0.962800  1.0
  H  H2889  1  0.328200  0.597000  0.335000  1.0
  H  H2890  1  0.506800  0.738000  0.335000  1.0
  H  H2891  1  0.903000  0.171800  0.165000  1.0
  H  H2892  1  0.762000  0.993200  0.165000  1.0
  H  H2893  1  0.671800  0.403000  0.665000  1.0
  H  H2894  1  0.493200  0.262000  0.665000  1.0
  H  H2895  1  0.097000  0.828200  0.835000  1.0
  H  H2896  1  0.238000  0.006800  0.835000  1.0
  H  H2897  1  0.340000  0.562000  0.322600  1.0
  H  H2898  1  0.482600  0.760600  0.322600  1.0
  H  H2899  1  0.938000  0.160000  0.177400  1.0
  H  H2900  1  0.739400  0.017400  0.177400  1.0
  H  H2901  1  0.660000  0.438000  0.677400  1.0
  H  H2902  1  0.517400  0.239400  0.677400  1.0
  H  H2903  1  0.062000  0.840000  0.822600  1.0
  H  H2904  1  0.260600  0.982600  0.822600  1.0
  H  H2905  1  0.366800  0.596200  0.357000  1.0
  H  H2906  1  0.490200  0.760800  0.357000  1.0
  H  H2907  1  0.903800  0.133200  0.143000  1.0
  H  H2908  1  0.739200  0.009800  0.143000  1.0
  H  H2909  1  0.633200  0.403800  0.643000  1.0
  H  H2910  1  0.509800  0.239200  0.643000  1.0
  H  H2911  1  0.096200  0.866800  0.857000  1.0
  H  H2912  1  0.260800  0.990200  0.857000  1.0
  H  H2913  1  0.270500  0.624500  0.273000  1.0
  H  H2914  1  0.502500  0.648500  0.273000  1.0
  H  H2915  1  0.875500  0.229500  0.227000  1.0
  H  H2916  1  0.851500  0.997500  0.227000  1.0
  H  H2917  1  0.729500  0.375500  0.727000  1.0
  H  H2918  1  0.497500  0.351500  0.727000  1.0
  H  H2919  1  0.124500  0.770500  0.773000  1.0
  H  H2920  1  0.148500  0.002500  0.773000  1.0
  H  H2921  1  0.238200  0.594400  0.267200  1.0
  H  H2922  1  0.529000  0.672800  0.267200  1.0
  H  H2923  1  0.905600  0.261800  0.232800  1.0
  H  H2924  1  0.827200  0.971000  0.232800  1.0
  H  H2925  1  0.761800  0.405600  0.732800  1.0
  H  H2926  1  0.471000  0.327200  0.732800  1.0
  H  H2927  1  0.094400  0.738200  0.767200  1.0
  H  H2928  1  0.172800  0.029000  0.767200  1.0
  H  H2929  1  0.278600  0.594200  0.284200  1.0
  H  H2930  1  0.505600  0.690000  0.284200  1.0
  H  H2931  1  0.905800  0.221400  0.215800  1.0
  H  H2932  1  0.810000  0.994400  0.215800  1.0
  H  H2933  1  0.721400  0.405800  0.715800  1.0
  H  H2934  1  0.494400  0.310000  0.715800  1.0
  H  H2935  1  0.094200  0.778600  0.784200  1.0
  H  H2936  1  0.190000  0.005600  0.784200  1.0
  H  H2937  1  0.385500  0.659500  0.412200  1.0
  H  H2938  1  0.526700  0.752700  0.412200  1.0
  H  H2939  1  0.840500  0.114500  0.087800  1.0
  H  H2940  1  0.747300  0.973300  0.087800  1.0
  H  H2941  1  0.614500  0.340500  0.587800  1.0
  H  H2942  1  0.473300  0.247300  0.587800  1.0
  H  H2943  1  0.159500  0.885500  0.912200  1.0
  H  H2944  1  0.252700  0.026700  0.912200  1.0
  H  H2945  1  0.401400  0.701600  0.436800  1.0
  H  H2946  1  0.535400  0.735200  0.436800  1.0
  H  H2947  1  0.798400  0.098600  0.063200  1.0
  H  H2948  1  0.764800  0.964600  0.063200  1.0
  H  H2949  1  0.598600  0.298400  0.563200  1.0
  H  H2950  1  0.464600  0.264800  0.563200  1.0
  H  H2951  1  0.201600  0.901400  0.936800  1.0
  H  H2952  1  0.235200  0.035400  0.936800  1.0
  H  H2953  1  0.398000  0.687200  0.400600  1.0
  H  H2954  1  0.502600  0.713400  0.400600  1.0
  H  H2955  1  0.812800  0.102000  0.099400  1.0
  H  H2956  1  0.786600  0.997400  0.099400  1.0
  H  H2957  1  0.602000  0.312800  0.599400  1.0
  H  H2958  1  0.497400  0.286600  0.599400  1.0
  H  H2959  1  0.187200  0.898000  0.900600  1.0
  H  H2960  1  0.213400  0.002600  0.900600  1.0
  H  H2961  1  0.311600  0.707400  0.457600  1.0
  H  H2962  1  0.646000  0.750200  0.457600  1.0
  H  H2963  1  0.792600  0.188400  0.042400  1.0
  H  H2964  1  0.749800  0.854000  0.042400  1.0
  H  H2965  1  0.688400  0.292600  0.542400  1.0
  H  H2966  1  0.354000  0.249800  0.542400  1.0
  H  H2967  1  0.207400  0.811600  0.957600  1.0
  H  H2968  1  0.250200  0.146000  0.957600  1.0
  H  H2969  1  0.340800  0.735800  0.494200  1.0
  H  H2970  1  0.653400  0.758400  0.494200  1.0
  H  H2971  1  0.764200  0.159200  0.005800  1.0
  H  H2972  1  0.741600  0.846600  0.005800  1.0
  H  H2973  1  0.659200  0.264200  0.505800  1.0
  H  H2974  1  0.346600  0.241600  0.505800  1.0
  H  H2975  1  0.235800  0.840800  0.994200  1.0
  H  H2976  1  0.258400  0.153400  0.994200  1.0
  H  H2977  1  0.350500  0.727300  0.464400  1.0
  H  H2978  1  0.613900  0.737100  0.464400  1.0
  H  H2979  1  0.772700  0.149500  0.035600  1.0
  H  H2980  1  0.762900  0.886100  0.035600  1.0
  H  H2981  1  0.649500  0.272700  0.535600  1.0
  H  H2982  1  0.386100  0.262900  0.535600  1.0
  H  H2983  1  0.227300  0.850500  0.964400  1.0
  H  H2984  1  0.237100  0.113900  0.964400  1.0
  H  H2985  1  0.367200  0.937000  0.557400  1.0
  H  H2986  1  0.690200  0.620400  0.557400  1.0
  H  H2987  1  0.563000  0.132800  0.942600  1.0
  H  H2988  1  0.879600  0.809800  0.942600  1.0
  H  H2989  1  0.632800  0.063000  0.442600  1.0
  H  H2990  1  0.309800  0.379600  0.442600  1.0
  H  H2991  1  0.437000  0.867200  0.057400  1.0
  H  H2992  1  0.120400  0.190200  0.057400  1.0
  H  H2993  1  0.332900  0.922100  0.560800  1.0
  H  H2994  1  0.727900  0.638700  0.560800  1.0
  H  H2995  1  0.577900  0.167100  0.939200  1.0
  H  H2996  1  0.861300  0.772100  0.939200  1.0
  H  H2997  1  0.667100  0.077900  0.439200  1.0
  H  H2998  1  0.272100  0.361300  0.439200  1.0
  H  H2999  1  0.422100  0.832900  0.060800  1.0
  H  H3000  1  0.138700  0.227900  0.060800  1.0
  H  H3001  1  0.330000  0.943000  0.539400  1.0
  H  H3002  1  0.709400  0.596400  0.539400  1.0
  H  H3003  1  0.557000  0.170000  0.960600  1.0
  H  H3004  1  0.903600  0.790600  0.960600  1.0
  H  H3005  1  0.670000  0.057000  0.460600  1.0
  H  H3006  1  0.290600  0.403600  0.460600  1.0
  H  H3007  1  0.443000  0.830000  0.039400  1.0
  H  H3008  1  0.096400  0.209400  0.039400  1.0
  H  H3009  1  0.425200  0.823600  0.477800  1.0
  H  H3010  1  0.552600  0.654200  0.477800  1.0
  H  H3011  1  0.676400  0.074800  0.022200  1.0
  H  H3012  1  0.845800  0.947400  0.022200  1.0
  H  H3013  1  0.574800  0.176400  0.522200  1.0
  H  H3014  1  0.447400  0.345800  0.522200  1.0
  H  H3015  1  0.323600  0.925200  0.977800  1.0
  H  H3016  1  0.154200  0.052600  0.977800  1.0
  H  H3017  1  0.389100  0.792700  0.464200  1.0
  H  H3018  1  0.575100  0.671500  0.464200  1.0
  H  H3019  1  0.707300  0.110900  0.035800  1.0
  H  H3020  1  0.828500  0.924900  0.035800  1.0
  H  H3021  1  0.610900  0.207300  0.535800  1.0
  H  H3022  1  0.424900  0.328500  0.535800  1.0
  H  H3023  1  0.292700  0.889100  0.964200  1.0
  H  H3024  1  0.171500  0.075100  0.964200  1.0
  H  H3025  1  0.399700  0.830300  0.495000  1.0
  H  H3026  1  0.595300  0.664700  0.495000  1.0
  H  H3027  1  0.669700  0.100300  0.005000  1.0
  H  H3028  1  0.835300  0.904700  0.005000  1.0
  H  H3029  1  0.600300  0.169700  0.505000  1.0
  H  H3030  1  0.404700  0.335300  0.505000  1.0
  H  H3031  1  0.330300  0.899700  0.995000  1.0
  H  H3032  1  0.164700  0.095300  0.995000  1.0
  H  H3033  1  0.361800  0.751600  0.339000  1.0
  H  H3034  1  0.477200  0.587400  0.339000  1.0
  H  H3035  1  0.748400  0.138200  0.161000  1.0
  H  H3036  1  0.912600  0.022800  0.161000  1.0
  H  H3037  1  0.638200  0.248400  0.661000  1.0
  H  H3038  1  0.522800  0.412600  0.661000  1.0
  H  H3039  1  0.251600  0.861800  0.839000  1.0
  H  H3040  1  0.087400  0.977200  0.839000  1.0
  H  H3041  1  0.322900  0.722900  0.321200  1.0
  H  H3042  1  0.498300  0.598300  0.321200  1.0
  H  H3043  1  0.777100  0.177100  0.178800  1.0
  H  H3044  1  0.901700  0.001700  0.178800  1.0
  H  H3045  1  0.677100  0.277100  0.678800  1.0
  H  H3046  1  0.501700  0.401700  0.678800  1.0
  H  H3047  1  0.222900  0.822900  0.821200  1.0
  H  H3048  1  0.098300  0.998300  0.821200  1.0
  H  H3049  1  0.352400  0.728200  0.355600  1.0
  H  H3050  1  0.503200  0.627400  0.355600  1.0
  H  H3051  1  0.771800  0.147600  0.144400  1.0
  H  H3052  1  0.872600  0.996800  0.144400  1.0
  H  H3053  1  0.647600  0.271800  0.644400  1.0
  H  H3054  1  0.496800  0.372600  0.644400  1.0
  H  H3055  1  0.228200  0.852400  0.855600  1.0
  H  H3056  1  0.127400  0.003200  0.855600  1.0
  H  H3057  1  0.421500  0.766500  0.416200  1.0
  H  H3058  1  0.494700  0.649700  0.416200  1.0
  H  H3059  1  0.733500  0.078500  0.083800  1.0
  H  H3060  1  0.850300  0.005300  0.083800  1.0
  H  H3061  1  0.578500  0.233500  0.583800  1.0
  H  H3062  1  0.505300  0.350300  0.583800  1.0
  H  H3063  1  0.266500  0.921500  0.916200  1.0
  H  H3064  1  0.149700  0.994700  0.916200  1.0
  H  H3065  1  0.463900  0.781900  0.439600  1.0
  H  H3066  1  0.475700  0.657700  0.439600  1.0
  H  H3067  1  0.718100  0.036100  0.060400  1.0
  H  H3068  1  0.842300  0.024300  0.060400  1.0
  H  H3069  1  0.536100  0.218100  0.560400  1.0
  H  H3070  1  0.524300  0.342300  0.560400  1.0
  H  H3071  1  0.281900  0.963900  0.939600  1.0
  H  H3072  1  0.157700  0.975700  0.939600  1.0
  H  H3073  1  0.448100  0.750900  0.402800  1.0
  H  H3074  1  0.454700  0.651900  0.402800  1.0
  H  H3075  1  0.749100  0.051900  0.097200  1.0
  H  H3076  1  0.848100  0.045300  0.097200  1.0
  H  H3077  1  0.551900  0.249100  0.597200  1.0
  H  H3078  1  0.545300  0.348100  0.597200  1.0
  H  H3079  1  0.250900  0.948100  0.902800  1.0
  H  H3080  1  0.151900  0.954700  0.902800  1.0
  H  H3081  1  0.395500  0.754900  0.279400  1.0
  H  H3082  1  0.383900  0.524500  0.279400  1.0
  H  H3083  1  0.745100  0.104500  0.220600  1.0
  H  H3084  1  0.975500  0.116100  0.220600  1.0
  H  H3085  1  0.604500  0.245100  0.720600  1.0
  H  H3086  1  0.616100  0.475500  0.720600  1.0
  H  H3087  1  0.254900  0.895500  0.779400  1.0
  H  H3088  1  0.024500  0.883900  0.779400  1.0
  H  H3089  1  0.363600  0.771800  0.270600  1.0
  H  H3090  1  0.407000  0.498800  0.270600  1.0
  H  H3091  1  0.728200  0.136400  0.229400  1.0
  H  H3092  1  0.001200  0.093000  0.229400  1.0
  H  H3093  1  0.636400  0.228200  0.729400  1.0
  H  H3094  1  0.593000  0.501200  0.729400  1.0
  H  H3095  1  0.271800  0.863600  0.770600  1.0
  H  H3096  1  0.998800  0.907000  0.770600  1.0
  H  H3097  1  0.363500  0.746700  0.288000  1.0
  H  H3098  1  0.424500  0.541300  0.288000  1.0
  H  H3099  1  0.753300  0.136500  0.212000  1.0
  H  H3100  1  0.958700  0.075500  0.212000  1.0
  H  H3101  1  0.636500  0.253300  0.712000  1.0
  H  H3102  1  0.575500  0.458700  0.712000  1.0
  H  H3103  1  0.246700  0.863500  0.788000  1.0
  H  H3104  1  0.041300  0.924500  0.788000  1.0
  H  H3105  1  0.249300  0.514900  0.179800  1.0
  H  H3106  1  0.430500  0.664900  0.179800  1.0
  H  H3107  1  0.985100  0.250700  0.320200  1.0
  H  H3108  1  0.835100  0.069500  0.320200  1.0
  H  H3109  1  0.750700  0.485100  0.820200  1.0
  H  H3110  1  0.569500  0.335100  0.820200  1.0
  H  H3111  1  0.014900  0.749300  0.679800  1.0
  H  H3112  1  0.164900  0.930500  0.679800  1.0
  H  H3113  1  0.231500  0.545100  0.191600  1.0
  H  H3114  1  0.460100  0.646500  0.191600  1.0
  H  H3115  1  0.954900  0.268500  0.308400  1.0
  H  H3116  1  0.853500  0.039900  0.308400  1.0
  H  H3117  1  0.768500  0.454900  0.808400  1.0
  H  H3118  1  0.539900  0.353500  0.808400  1.0
  H  H3119  1  0.045100  0.731500  0.691600  1.0
  H  H3120  1  0.146500  0.960100  0.691600  1.0
  H  H3121  1  0.234700  0.535100  0.158400  1.0
  H  H3122  1  0.423700  0.623300  0.158400  1.0
  H  H3123  1  0.964900  0.265300  0.341600  1.0
  H  H3124  1  0.876700  0.076300  0.341600  1.0
  H  H3125  1  0.765300  0.464900  0.841600  1.0
  H  H3126  1  0.576300  0.376700  0.841600  1.0
  H  H3127  1  0.035100  0.734700  0.658400  1.0
  H  H3128  1  0.123300  0.923700  0.658400  1.0
  H  H3129  1  0.254600  0.680600  0.236000  1.0
  H  H3130  1  0.481400  0.555400  0.236000  1.0
  H  H3131  1  0.819400  0.245400  0.264000  1.0
  H  H3132  1  0.944600  0.018600  0.264000  1.0
  H  H3133  1  0.745400  0.319400  0.764000  1.0
  H  H3134  1  0.518600  0.444600  0.764000  1.0
  H  H3135  1  0.180600  0.754600  0.736000  1.0
  H  H3136  1  0.055400  0.981400  0.736000  1.0
  H  H3137  1  0.263300  0.643500  0.225000  1.0
  H  H3138  1  0.461700  0.581500  0.225000  1.0
  H  H3139  1  0.856500  0.236700  0.275000  1.0
  H  H3140  1  0.918500  0.038300  0.275000  1.0
  H  H3141  1  0.736700  0.356500  0.775000  1.0
  H  H3142  1  0.538300  0.418500  0.775000  1.0
  H  H3143  1  0.143500  0.763300  0.725000  1.0
  H  H3144  1  0.081500  0.961700  0.725000  1.0
  H  H3145  1  0.237500  0.649500  0.242000  1.0
  H  H3146  1  0.504500  0.592500  0.242000  1.0
  H  H3147  1  0.850500  0.262500  0.258000  1.0
  H  H3148  1  0.907500  0.995500  0.258000  1.0
  H  H3149  1  0.762500  0.350500  0.758000  1.0
  H  H3150  1  0.495500  0.407500  0.758000  1.0
  H  H3151  1  0.149500  0.737500  0.742000  1.0
  H  H3152  1  0.092500  0.004500  0.742000  1.0
  H  H3153  1  0.256100  0.602100  0.104400  1.0
  H  H3154  1  0.348300  0.502300  0.104400  1.0
  H  H3155  1  0.897900  0.243900  0.395600  1.0
  H  H3156  1  0.997700  0.151700  0.395600  1.0
  H  H3157  1  0.743900  0.397900  0.895600  1.0
  H  H3158  1  0.651700  0.497700  0.895600  1.0
  H  H3159  1  0.102100  0.756100  0.604400  1.0
  H  H3160  1  0.002300  0.848300  0.604400  1.0
  H  H3161  1  0.235800  0.560000  0.082400  1.0
  H  H3162  1  0.346600  0.522400  0.082400  1.0
  H  H3163  1  0.940000  0.264200  0.417600  1.0
  H  H3164  1  0.977600  0.153400  0.417600  1.0
  H  H3165  1  0.764200  0.440000  0.917600  1.0
  H  H3166  1  0.653400  0.477600  0.917600  1.0
  H  H3167  1  0.060000  0.735800  0.582400  1.0
  H  H3168  1  0.022400  0.846600  0.582400  1.0
  H  H3169  1  0.262600  0.575400  0.120400  1.0
  H  H3170  1  0.357800  0.545000  0.120400  1.0
  H  H3171  1  0.924600  0.237400  0.379600  1.0
  H  H3172  1  0.955000  0.142200  0.379600  1.0
  H  H3173  1  0.737400  0.424600  0.879600  1.0
  H  H3174  1  0.642200  0.455000  0.879600  1.0
  H  H3175  1  0.075400  0.762600  0.620400  1.0
  H  H3176  1  0.045000  0.857800  0.620400  1.0
  H  H3177  1  0.269300  0.667100  0.178600  1.0
  H  H3178  1  0.409300  0.511500  0.178600  1.0
  H  H3179  1  0.832900  0.230700  0.321400  1.0
  H  H3180  1  0.988500  0.090700  0.321400  1.0
  H  H3181  1  0.730700  0.332900  0.821400  1.0
  H  H3182  1  0.590700  0.488500  0.821400  1.0
  H  H3183  1  0.167100  0.769300  0.678600  1.0
  H  H3184  1  0.011500  0.909300  0.678600  1.0
  H  H3185  1  0.301800  0.702000  0.192800  1.0
  H  H3186  1  0.391000  0.490800  0.192800  1.0
  H  H3187  1  0.798000  0.198200  0.307200  1.0
  H  H3188  1  0.009200  0.109000  0.307200  1.0
  H  H3189  1  0.698200  0.298000  0.807200  1.0
  H  H3190  1  0.609000  0.509200  0.807200  1.0
  H  H3191  1  0.202000  0.801800  0.692800  1.0
  H  H3192  1  0.990800  0.891000  0.692800  1.0
  H  H3193  1  0.293900  0.667100  0.160600  1.0
  H  H3194  1  0.366700  0.493500  0.160600  1.0
  H  H3195  1  0.832900  0.206100  0.339400  1.0
  H  H3196  1  0.006500  0.133300  0.339400  1.0
  H  H3197  1  0.706100  0.332900  0.839400  1.0
  H  H3198  1  0.633300  0.506500  0.839400  1.0
  H  H3199  1  0.167100  0.793900  0.660600  1.0
  H  H3200  1  0.993500  0.866700  0.660600  1.0
  H  H3201  1  0.225100  0.634300  0.038400  1.0
  H  H3202  1  0.313300  0.404100  0.038400  1.0
  H  H3203  1  0.865700  0.274900  0.461600  1.0
  H  H3204  1  0.095900  0.186700  0.461600  1.0
  H  H3205  1  0.774900  0.365700  0.961600  1.0
  H  H3206  1  0.686700  0.595900  0.961600  1.0
  H  H3207  1  0.134300  0.725100  0.538400  1.0
  H  H3208  1  0.904100  0.813300  0.538400  1.0
  H  H3209  1  0.189900  0.601500  0.023000  1.0
  H  H3210  1  0.333100  0.421500  0.023000  1.0
  H  H3211  1  0.898500  0.310100  0.477000  1.0
  H  H3212  1  0.078500  0.166900  0.477000  1.0
  H  H3213  1  0.810100  0.398500  0.977000  1.0
  H  H3214  1  0.666900  0.578500  0.977000  1.0
  H  H3215  1  0.101500  0.689900  0.523000  1.0
  H  H3216  1  0.921500  0.833100  0.523000  1.0
  H  H3217  1  0.224100  0.609300  0.055800  1.0
  H  H3218  1  0.331700  0.446500  0.055800  1.0
  H  H3219  1  0.890700  0.275900  0.444200  1.0
  H  H3220  1  0.053500  0.168300  0.444200  1.0
  H  H3221  1  0.775900  0.390700  0.944200  1.0
  H  H3222  1  0.668300  0.553500  0.944200  1.0
  H  H3223  1  0.109300  0.724100  0.555800  1.0
  H  H3224  1  0.946500  0.831700  0.555800  1.0
  H  H3225  1  0.117900  0.660500  0.948800  1.0
  H  H3226  1  0.330900  0.288300  0.948800  1.0
  H  H3227  1  0.839500  0.382100  0.551200  1.0
  H  H3228  1  0.211700  0.169100  0.551200  1.0
  H  H3229  1  0.882100  0.339500  0.051200  1.0
  H  H3230  1  0.669100  0.711700  0.051200  1.0
  H  H3231  1  0.160500  0.617900  0.448800  1.0
  H  H3232  1  0.788300  0.830900  0.448800  1.0
  H  H3233  1  0.107800  0.684200  0.976200  1.0
  H  H3234  1  0.368400  0.292000  0.976200  1.0
  H  H3235  1  0.815800  0.392200  0.523800  1.0
  H  H3236  1  0.208000  0.131600  0.523800  1.0
  H  H3237  1  0.892200  0.315800  0.023800  1.0
  H  H3238  1  0.631600  0.708000  0.023800  1.0
  H  H3239  1  0.184200  0.607800  0.476200  1.0
  H  H3240  1  0.792000  0.868400  0.476200  1.0
  H  H3241  1  0.105900  0.643700  0.968800  1.0
  H  H3242  1  0.362900  0.325100  0.968800  1.0
  H  H3243  1  0.856300  0.394100  0.531200  1.0
  H  H3244  1  0.174900  0.137100  0.531200  1.0
  H  H3245  1  0.894100  0.356300  0.031200  1.0
  H  H3246  1  0.637100  0.674900  0.031200  1.0
  H  H3247  1  0.143700  0.605900  0.468800  1.0
  H  H3248  1  0.825100  0.862900  0.468800  1.0
  H  H3249  1  0.306100  0.655100  0.018200  1.0
  H  H3250  1  0.212100  0.363100  0.018200  1.0
  H  H3251  1  0.844900  0.193900  0.481800  1.0
  H  H3252  1  0.136900  0.287900  0.481800  1.0
  H  H3253  1  0.693900  0.344900  0.981800  1.0
  H  H3254  1  0.787900  0.636900  0.981800  1.0
  H  H3255  1  0.155100  0.806100  0.518200  1.0
  H  H3256  1  0.863100  0.712100  0.518200  1.0
  H  H3257  1  0.306700  0.647700  0.047800  1.0
  H  H3258  1  0.241100  0.400100  0.047800  1.0
  H  H3259  1  0.852300  0.193300  0.452200  1.0
  H  H3260  1  0.099900  0.258900  0.452200  1.0
  H  H3261  1  0.693300  0.352300  0.952200  1.0
  H  H3262  1  0.758900  0.599900  0.952200  1.0
  H  H3263  1  0.147700  0.806700  0.547800  1.0
  H  H3264  1  0.900100  0.741100  0.547800  1.0
  H  H3265  1  0.333900  0.683300  0.055200  1.0
  H  H3266  1  0.221300  0.371900  0.055200  1.0
  H  H3267  1  0.816700  0.166100  0.444800  1.0
  H  H3268  1  0.128100  0.278700  0.444800  1.0
  H  H3269  1  0.666100  0.316700  0.944800  1.0
  H  H3270  1  0.778700  0.628100  0.944800  1.0
  H  H3271  1  0.183300  0.833900  0.555200  1.0
  H  H3272  1  0.871900  0.721300  0.555200  1.0
  H  H3273  1  0.358300  0.603300  0.108600  1.0
  H  H3274  1  0.250300  0.505300  0.108600  1.0
  H  H3275  1  0.896700  0.141700  0.391400  1.0
  H  H3276  1  0.994700  0.249700  0.391400  1.0
  H  H3277  1  0.641700  0.396700  0.891400  1.0
  H  H3278  1  0.749700  0.494700  0.891400  1.0
  H  H3279  1  0.103300  0.858300  0.608600  1.0
  H  H3280  1  0.005300  0.750300  0.608600  1.0
  H  H3281  1  0.316800  0.594200  0.084600  1.0
  H  H3282  1  0.267800  0.490400  0.084600  1.0
  H  H3283  1  0.905800  0.183200  0.415400  1.0
  H  H3284  1  0.009600  0.232200  0.415400  1.0
  H  H3285  1  0.683200  0.405800  0.915400  1.0
  H  H3286  1  0.732200  0.509600  0.915400  1.0
  H  H3287  1  0.094200  0.816800  0.584600  1.0
  H  H3288  1  0.990400  0.767800  0.584600  1.0
  H  H3289  1  0.329400  0.603600  0.122200  1.0
  H  H3290  1  0.292800  0.518600  0.122200  1.0
  H  H3291  1  0.896400  0.170600  0.377800  1.0
  H  H3292  1  0.981400  0.207200  0.377800  1.0
  H  H3293  1  0.670600  0.396400  0.877800  1.0
  H  H3294  1  0.707200  0.481400  0.877800  1.0
  H  H3295  1  0.103600  0.829400  0.622200  1.0
  H  H3296  1  0.018600  0.792800  0.622200  1.0
  H  H3297  1  0.404400  0.729600  0.237600  1.0
  H  H3298  1  0.333200  0.508000  0.237600  1.0
  H  H3299  1  0.770400  0.095600  0.262400  1.0
  H  H3300  1  0.992000  0.166800  0.262400  1.0
  H  H3301  1  0.595600  0.270400  0.762400  1.0
  H  H3302  1  0.666800  0.492000  0.762400  1.0
  H  H3303  1  0.229600  0.904400  0.737600  1.0
  H  H3304  1  0.008000  0.833200  0.737600  1.0
  H  H3305  1  0.439700  0.753900  0.241600  1.0
  H  H3306  1  0.301900  0.487700  0.241600  1.0
  H  H3307  1  0.746100  0.060300  0.258400  1.0
  H  H3308  1  0.012300  0.198100  0.258400  1.0
  H  H3309  1  0.560300  0.246100  0.758400  1.0
  H  H3310  1  0.698100  0.512300  0.758400  1.0
  H  H3311  1  0.253900  0.939700  0.741600  1.0
  H  H3312  1  0.987700  0.801900  0.741600  1.0
  H  H3313  1  0.430500  0.711300  0.225400  1.0
  H  H3314  1  0.294900  0.514100  0.225400  1.0
  H  H3315  1  0.788700  0.069500  0.274600  1.0
  H  H3316  1  0.985900  0.205100  0.274600  1.0
  H  H3317  1  0.569500  0.288700  0.774600  1.0
  H  H3318  1  0.705100  0.485900  0.774600  1.0
  H  H3319  1  0.211300  0.930500  0.725400  1.0
  H  H3320  1  0.014100  0.794900  0.725400  1.0
  H  H3321  1  0.356100  0.597100  0.040800  1.0
  H  H3322  1  0.184700  0.443700  0.040800  1.0
  H  H3323  1  0.902900  0.143900  0.459200  1.0
  H  H3324  1  0.056300  0.315300  0.459200  1.0
  H  H3325  1  0.643900  0.402900  0.959200  1.0
  H  H3326  1  0.815300  0.556300  0.959200  1.0
  H  H3327  1  0.097100  0.856100  0.540800  1.0
  H  H3328  1  0.943700  0.684700  0.540800  1.0
  H  H3329  1  0.385600  0.578000  0.050800  1.0
  H  H3330  1  0.165200  0.472800  0.050800  1.0
  H  H3331  1  0.922000  0.114400  0.449200  1.0
  H  H3332  1  0.027200  0.334800  0.449200  1.0
  H  H3333  1  0.614400  0.422000  0.949200  1.0
  H  H3334  1  0.834800  0.527200  0.949200  1.0
  H  H3335  1  0.078000  0.885600  0.550800  1.0
  H  H3336  1  0.972800  0.665200  0.550800  1.0
  H  H3337  1  0.377300  0.585300  0.019800  1.0
  H  H3338  1  0.142500  0.434500  0.019800  1.0
  H  H3339  1  0.914700  0.122700  0.480200  1.0
  H  H3340  1  0.065500  0.357500  0.480200  1.0
  H  H3341  1  0.622700  0.414700  0.980200  1.0
  H  H3342  1  0.857500  0.565500  0.980200  1.0
  H  H3343  1  0.085300  0.877300  0.519800  1.0
  H  H3344  1  0.934500  0.642500  0.519800  1.0
  H  H3345  1  0.428200  0.476600  0.035000  1.0
  H  H3346  1  0.106800  0.558400  0.035000  1.0
  H  H3347  1  0.023400  0.071800  0.465000  1.0
  H  H3348  1  0.941600  0.393200  0.465000  1.0
  H  H3349  1  0.571800  0.523400  0.965000  1.0
  H  H3350  1  0.893200  0.441600  0.965000  1.0
  H  H3351  1  0.976600  0.928200  0.535000  1.0
  H  H3352  1  0.058400  0.606800  0.535000  1.0
  H  H3353  1  0.393100  0.485900  0.017400  1.0
  H  H3354  1  0.124300  0.531500  0.017400  1.0
  H  H3355  1  0.014100  0.106900  0.482600  1.0
  H  H3356  1  0.968500  0.375700  0.482600  1.0
  H  H3357  1  0.606900  0.514100  0.982600  1.0
  H  H3358  1  0.875700  0.468500  0.982600  1.0
  H  H3359  1  0.985900  0.893100  0.517400  1.0
  H  H3360  1  0.031500  0.624300  0.517400  1.0
  H  H3361  1  0.411000  0.499600  0.056200  1.0
  H  H3362  1  0.145200  0.556600  0.056200  1.0
  H  H3363  1  0.000400  0.089000  0.443800  1.0
  H  H3364  1  0.943400  0.354800  0.443800  1.0
  H  H3365  1  0.589000  0.500400  0.943800  1.0
  H  H3366  1  0.854800  0.443400  0.943800  1.0
  H  H3367  1  0.999600  0.911000  0.556200  1.0
  H  H3368  1  0.056600  0.645200  0.556200  1.0
  H  H3369  1  0.413000  0.613200  0.950600  1.0
  H  H3370  1  0.037600  0.337400  0.950600  1.0
  H  H3371  1  0.886800  0.087000  0.549400  1.0
  H  H3372  1  0.162600  0.462400  0.549400  1.0
  H  H3373  1  0.587000  0.386800  0.049400  1.0
  H  H3374  1  0.962400  0.662600  0.049400  1.0
  H  H3375  1  0.113200  0.913000  0.450600  1.0
  H  H3376  1  0.837400  0.537600  0.450600  1.0
  H  H3377  1  0.446500  0.604300  0.945400  1.0
  H  H3378  1  0.998900  0.341100  0.945400  1.0
  H  H3379  1  0.895700  0.053500  0.554600  1.0
  H  H3380  1  0.158900  0.501100  0.554600  1.0
  H  H3381  1  0.553500  0.395700  0.054600  1.0
  H  H3382  1  0.001100  0.658900  0.054600  1.0
  H  H3383  1  0.104300  0.946500  0.445400  1.0
  H  H3384  1  0.841100  0.498900  0.445400  1.0
  H  H3385  1  0.450900  0.643700  0.970600  1.0
  H  H3386  1  0.019700  0.326900  0.970600  1.0
  H  H3387  1  0.856300  0.049100  0.529400  1.0
  H  H3388  1  0.173100  0.480300  0.529400  1.0
  H  H3389  1  0.549100  0.356300  0.029400  1.0
  H  H3390  1  0.980300  0.673100  0.029400  1.0
  H  H3391  1  0.143700  0.950900  0.470600  1.0
  H  H3392  1  0.826900  0.519700  0.470600  1.0
  Ho  Ho3393  1  0.415646  0.713632  0.126412  1.0
  Ho  Ho3394  1  0.210766  0.412780  0.126412  1.0
  Ho  Ho3395  1  0.786368  0.084354  0.373588  1.0
  Ho  Ho3396  1  0.087220  0.289234  0.373588  1.0
  Ho  Ho3397  1  0.584354  0.286368  0.873588  1.0
  Ho  Ho3398  1  0.789234  0.587220  0.873588  1.0
  Ho  Ho3399  1  0.213632  0.915646  0.626412  1.0
  Ho  Ho3400  1  0.912780  0.710766  0.626412  1.0
  Ho  Ho3401  1  0.392662  0.852872  0.388170  1.0
  Ho  Ho3402  1  0.495508  0.535298  0.388170  1.0
  Ho  Ho3403  1  0.647128  0.107338  0.111830  1.0
  Ho  Ho3404  1  0.964702  0.004492  0.111830  1.0
  Ho  Ho3405  1  0.607338  0.147128  0.611830  1.0
  Ho  Ho3406  1  0.504492  0.464702  0.611830  1.0
  Ho  Ho3407  1  0.352872  0.892662  0.888170  1.0
  Ho  Ho3408  1  0.035298  0.995508  0.888170  1.0
  Ho  Ho3409  1  0.167913  0.648107  0.123636  1.0
  Ho  Ho3410  1  0.455723  0.475529  0.123636  1.0
  Ho  Ho3411  1  0.851893  0.332087  0.376364  1.0
  Ho  Ho3412  1  0.024471  0.044277  0.376364  1.0
  Ho  Ho3413  1  0.832087  0.351893  0.876364  1.0
  Ho  Ho3414  1  0.544277  0.524471  0.876364  1.0
  Ho  Ho3415  1  0.148107  0.667913  0.623636  1.0
  Ho  Ho3416  1  0.975529  0.955723  0.623636  1.0
  Ho  Ho3417  1  0.271000  0.620284  0.381990  1.0
  Ho  Ho3418  1  0.610990  0.761706  0.381990  1.0
  Ho  Ho3419  1  0.879716  0.229000  0.118010  1.0
  Ho  Ho3420  1  0.738294  0.889010  0.118010  1.0
  Ho  Ho3421  1  0.729000  0.379716  0.618010  1.0
  Ho  Ho3422  1  0.389010  0.238294  0.618010  1.0
  Ho  Ho3423  1  0.120284  0.771000  0.881990  1.0
  Ho  Ho3424  1  0.261706  0.110990  0.881990  1.0
  N  N3425  1  0.202400  0.604920  0.352920  1.0
  N  N3426  1  0.650520  0.748000  0.352920  1.0
  N  N3427  1  0.895080  0.297600  0.147080  1.0
  N  N3428  1  0.752000  0.849480  0.147080  1.0
  N  N3429  1  0.797600  0.395080  0.647080  1.0
  N  N3430  1  0.349480  0.252000  0.647080  1.0
  N  N3431  1  0.104920  0.702400  0.852920  1.0
  N  N3432  1  0.248000  0.150520  0.852920  1.0
  N  N3433  1  0.104920  0.548920  0.140100  1.0
  N  N3434  1  0.535180  0.591180  0.140100  1.0
  N  N3435  1  0.951080  0.395080  0.359900  1.0
  N  N3436  1  0.908820  0.964820  0.359900  1.0
  N  N3437  1  0.895080  0.451080  0.859900  1.0
  N  N3438  1  0.464820  0.408820  0.859900  1.0
  N  N3439  1  0.048920  0.604920  0.640100  1.0
  N  N3440  1  0.091180  0.035180  0.640100  1.0
  N  N3441  1  0.228060  0.720000  0.361260  1.0
  N  N3442  1  0.633200  0.641260  0.361260  1.0
  N  N3443  1  0.780000  0.271940  0.138740  1.0
  N  N3444  1  0.858740  0.866800  0.138740  1.0
  N  N3445  1  0.771940  0.280000  0.638740  1.0
  N  N3446  1  0.366800  0.358740  0.638740  1.0
  N  N3447  1  0.220000  0.728060  0.861260  1.0
  N  N3448  1  0.141260  0.133200  0.861260  1.0
  N  N3449  1  0.127770  0.670370  0.150680  1.0
  N  N3450  1  0.522910  0.480310  0.150680  1.0
  N  N3451  1  0.829630  0.372230  0.349320  1.0
  N  N3452  1  0.019690  0.977090  0.349320  1.0
  N  N3453  1  0.872230  0.329630  0.849320  1.0
  N  N3454  1  0.477090  0.519690  0.849320  1.0
  N  N3455  1  0.170370  0.627770  0.650680  1.0
  N  N3456  1  0.980310  0.022910  0.650680  1.0
  N  N3457  1  0.250210  0.828850  0.350060  1.0
  N  N3458  1  0.599850  0.521210  0.350060  1.0
  N  N3459  1  0.671150  0.249790  0.149940  1.0
  N  N3460  1  0.978790  0.900150  0.149940  1.0
  N  N3461  1  0.749790  0.171150  0.649940  1.0
  N  N3462  1  0.400150  0.478790  0.649940  1.0
  N  N3463  1  0.328850  0.750210  0.850060  1.0
  N  N3464  1  0.021210  0.099850  0.850060  1.0
  N  N3465  1  0.219490  0.785430  0.156260  1.0
  N  N3466  1  0.436770  0.370830  0.156260  1.0
  N  N3467  1  0.714570  0.280510  0.343740  1.0
  N  N3468  1  0.129170  0.063230  0.343740  1.0
  N  N3469  1  0.780510  0.214570  0.843740  1.0
  N  N3470  1  0.563230  0.629170  0.843740  1.0
  N  N3471  1  0.285430  0.719490  0.656260  1.0
  N  N3472  1  0.870830  0.936770  0.656260  1.0
  N  N3473  1  0.383830  0.894730  0.360280  1.0
  N  N3474  1  0.476450  0.465550  0.360280  1.0
  N  N3475  1  0.605270  0.116170  0.139720  1.0
  N  N3476  1  0.034450  0.023550  0.139720  1.0
  N  N3477  1  0.616170  0.105270  0.639720  1.0
  N  N3478  1  0.523550  0.534450  0.639720  1.0
  N  N3479  1  0.394730  0.883830  0.860280  1.0
  N  N3480  1  0.965550  0.976450  0.860280  1.0
  N  N3481  1  0.328330  0.780970  0.147460  1.0
  N  N3482  1  0.319130  0.366490  0.147460  1.0
  N  N3483  1  0.719030  0.171670  0.352540  1.0
  N  N3484  1  0.133510  0.180870  0.352540  1.0
  N  N3485  1  0.671670  0.219030  0.852540  1.0
  N  N3486  1  0.680870  0.633510  0.852540  1.0
  N  N3487  1  0.280970  0.828330  0.647460  1.0
  N  N3488  1  0.866490  0.819130  0.647460  1.0
  N  N3489  1  0.499150  0.891370  0.369120  1.0
  N  N3490  1  0.369970  0.477750  0.369120  1.0
  N  N3491  1  0.608630  0.000850  0.130880  1.0
  N  N3492  1  0.022250  0.130030  0.130880  1.0
  N  N3493  1  0.500850  0.108630  0.630880  1.0
  N  N3494  1  0.630030  0.522250  0.630880  1.0
  N  N3495  1  0.391370  0.999150  0.869120  1.0
  N  N3496  1  0.977750  0.869970  0.869120  1.0
  N  N3497  1  0.444160  0.781340  0.155200  1.0
  N  N3498  1  0.211040  0.373860  0.155200  1.0
  N  N3499  1  0.718660  0.055840  0.344800  1.0
  N  N3500  1  0.126140  0.288960  0.344800  1.0
  N  N3501  1  0.555840  0.218660  0.844800  1.0
  N  N3502  1  0.788960  0.626140  0.844800  1.0
  N  N3503  1  0.281340  0.944160  0.655200  1.0
  N  N3504  1  0.873860  0.711040  0.655200  1.0
  N  N3505  1  0.600070  0.865570  0.345540  1.0
  N  N3506  1  0.245470  0.479970  0.345540  1.0
  N  N3507  1  0.634430  0.899930  0.154460  1.0
  N  N3508  1  0.020030  0.254530  0.154460  1.0
  N  N3509  1  0.399930  0.134430  0.654460  1.0
  N  N3510  1  0.754530  0.520030  0.654460  1.0
  N  N3511  1  0.365570  0.100070  0.845540  1.0
  N  N3512  1  0.979970  0.745470  0.845540  1.0
  N  N3513  1  0.552650  0.715070  0.152260  1.0
  N  N3514  1  0.099610  0.437190  0.152260  1.0
  N  N3515  1  0.784930  0.947350  0.347740  1.0
  N  N3516  1  0.062810  0.400390  0.347740  1.0
  N  N3517  1  0.447350  0.284930  0.847740  1.0
  N  N3518  1  0.900390  0.562810  0.847740  1.0
  N  N3519  1  0.215070  0.052650  0.652260  1.0
  N  N3520  1  0.937190  0.599610  0.652260  1.0
  O  O3521  1  0.250410  0.533590  0.419380  1.0
  O  O3522  1  0.668970  0.885790  0.419380  1.0
  O  O3523  1  0.966410  0.249590  0.080620  1.0
  O  O3524  1  0.614210  0.831030  0.080620  1.0
  O  O3525  1  0.749590  0.466410  0.580620  1.0
  O  O3526  1  0.331030  0.114210  0.580620  1.0
  O  O3527  1  0.033590  0.750410  0.919380  1.0
  O  O3528  1  0.385790  0.168970  0.919380  1.0
  O  O3529  1  0.243710  0.570210  0.383820  1.0
  O  O3530  1  0.640110  0.813610  0.383820  1.0
  O  O3531  1  0.929790  0.256290  0.116180  1.0
  O  O3532  1  0.686390  0.859890  0.116180  1.0
  O  O3533  1  0.756290  0.429790  0.616180  1.0
  O  O3534  1  0.359890  0.186390  0.616180  1.0
  O  O3535  1  0.070210  0.743710  0.883820  1.0
  O  O3536  1  0.313610  0.140110  0.883820  1.0
  O  O3537  1  0.127610  0.596630  0.111960  1.0
  O  O3538  1  0.484350  0.515330  0.111960  1.0
  O  O3539  1  0.903370  0.372390  0.388040  1.0
  O  O3540  1  0.984670  0.015650  0.388040  1.0
  O  O3541  1  0.872390  0.403370  0.888040  1.0
  O  O3542  1  0.515650  0.484670  0.888040  1.0
  O  O3543  1  0.096630  0.627610  0.611960  1.0
  O  O3544  1  0.015330  0.984350  0.611960  1.0
  O  O3545  1  0.105570  0.627450  0.075500  1.0
  O  O3546  1  0.469930  0.448050  0.075500  1.0
  O  O3547  1  0.872550  0.394430  0.424500  1.0
  O  O3548  1  0.051950  0.030070  0.424500  1.0
  O  O3549  1  0.894430  0.372550  0.924500  1.0
  O  O3550  1  0.530070  0.551950  0.924500  1.0
  O  O3551  1  0.127450  0.605570  0.575500  1.0
  O  O3552  1  0.948050  0.969930  0.575500  1.0
  O  O3553  1  0.255250  0.645090  0.429680  1.0
  O  O3554  1  0.674430  0.784590  0.429680  1.0
  O  O3555  1  0.854910  0.244750  0.070320  1.0
  O  O3556  1  0.715410  0.825570  0.070320  1.0
  O  O3557  1  0.744750  0.354910  0.570320  1.0
  O  O3558  1  0.325570  0.215410  0.570320  1.0
  O  O3559  1  0.145090  0.755250  0.929680  1.0
  O  O3560  1  0.284590  0.174430  0.929680  1.0
  O  O3561  1  0.256320  0.672980  0.392060  1.0
  O  O3562  1  0.635740  0.719080  0.392060  1.0
  O  O3563  1  0.827020  0.243680  0.107940  1.0
  O  O3564  1  0.780920  0.864260  0.107940  1.0
  O  O3565  1  0.743680  0.327020  0.607940  1.0
  O  O3566  1  0.364260  0.280920  0.607940  1.0
  O  O3567  1  0.172980  0.756320  0.892060  1.0
  O  O3568  1  0.219080  0.135740  0.892060  1.0
  O  O3569  1  0.156480  0.699960  0.118540  1.0
  O  O3570  1  0.462060  0.418580  0.118540  1.0
  O  O3571  1  0.800040  0.343520  0.381460  1.0
  O  O3572  1  0.081420  0.037940  0.381460  1.0
  O  O3573  1  0.843520  0.300040  0.881460  1.0
  O  O3574  1  0.537940  0.581420  0.881460  1.0
  O  O3575  1  0.199960  0.656480  0.618540  1.0
  O  O3576  1  0.918580  0.962060  0.618540  1.0
  O  O3577  1  0.148160  0.736540  0.083320  1.0
  O  O3578  1  0.435160  0.346780  0.083320  1.0
  O  O3579  1  0.763460  0.351840  0.416680  1.0
  O  O3580  1  0.153220  0.064840  0.416680  1.0
  O  O3581  1  0.851840  0.263460  0.916680  1.0
  O  O3582  1  0.564840  0.653220  0.916680  1.0
  O  O3583  1  0.236540  0.648160  0.583320  1.0
  O  O3584  1  0.846780  0.935160  0.583320  1.0
  O  O3585  1  0.238640  0.801080  0.444780  1.0
  O  O3586  1  0.706140  0.643700  0.444780  1.0
  O  O3587  1  0.698920  0.261360  0.055220  1.0
  O  O3588  1  0.856300  0.793860  0.055220  1.0
  O  O3589  1  0.761360  0.198920  0.555220  1.0
  O  O3590  1  0.293860  0.356300  0.555220  1.0
  O  O3591  1  0.301080  0.738640  0.944780  1.0
  O  O3592  1  0.143700  0.206140  0.944780  1.0
  O  O3593  1  0.265450  0.817690  0.410360  1.0
  O  O3594  1  0.644910  0.592670  0.410360  1.0
  O  O3595  1  0.682310  0.234550  0.089640  1.0
  O  O3596  1  0.907330  0.855090  0.089640  1.0
  O  O3597  1  0.734550  0.182310  0.589640  1.0
  O  O3598  1  0.355090  0.407330  0.589640  1.0
  O  O3599  1  0.317690  0.765450  0.910360  1.0
  O  O3600  1  0.092670  0.144910  0.910360  1.0
  O  O3601  1  0.231220  0.756840  0.094520  1.0
  O  O3602  1  0.363300  0.337680  0.094520  1.0
  O  O3603  1  0.743160  0.268780  0.405480  1.0
  O  O3604  1  0.162320  0.136700  0.405480  1.0
  O  O3605  1  0.768780  0.243160  0.905480  1.0
  O  O3606  1  0.636700  0.662320  0.905480  1.0
  O  O3607  1  0.256840  0.731220  0.594520  1.0
  O  O3608  1  0.837680  0.863300  0.594520  1.0
  O  O3609  1  0.250120  0.774760  0.056280  1.0
  O  O3610  1  0.306160  0.281520  0.056280  1.0
  O  O3611  1  0.725240  0.249880  0.443720  1.0
  O  O3612  1  0.218480  0.193840  0.443720  1.0
  O  O3613  1  0.749880  0.225240  0.943720  1.0
  O  O3614  1  0.693840  0.718480  0.943720  1.0
  O  O3615  1  0.274760  0.750120  0.556280  1.0
  O  O3616  1  0.781520  0.806160  0.556280  1.0
  O  O3617  1  0.308170  0.898230  0.426380  1.0
  O  O3618  1  0.618210  0.528150  0.426380  1.0
  O  O3619  1  0.601770  0.191830  0.073620  1.0
  O  O3620  1  0.971850  0.881790  0.073620  1.0
  O  O3621  1  0.691830  0.101770  0.573620  1.0
  O  O3622  1  0.381790  0.471850  0.573620  1.0
  O  O3623  1  0.398230  0.808170  0.926380  1.0
  O  O3624  1  0.028150  0.118210  0.926380  1.0
  O  O3625  1  0.343640  0.875800  0.389240  1.0
  O  O3626  1  0.545600  0.513440  0.389240  1.0
  O  O3627  1  0.624200  0.156360  0.110760  1.0
  O  O3628  1  0.986560  0.954400  0.110760  1.0
  O  O3629  1  0.656360  0.124200  0.610760  1.0
  O  O3630  1  0.454400  0.486560  0.610760  1.0
  O  O3631  1  0.375800  0.843640  0.889240  1.0
  O  O3632  1  0.013440  0.045600  0.889240  1.0
  O  O3633  1  0.369030  0.738830  0.117200  1.0
  O  O3634  1  0.248170  0.378370  0.117200  1.0
  O  O3635  1  0.761170  0.130970  0.382800  1.0
  O  O3636  1  0.121630  0.251830  0.382800  1.0
  O  O3637  1  0.630970  0.261170  0.882800  1.0
  O  O3638  1  0.751830  0.621630  0.882800  1.0
  O  O3639  1  0.238830  0.869030  0.617200  1.0
  O  O3640  1  0.878370  0.748170  0.617200  1.0
  O  O3641  1  0.396690  0.727350  0.077000  1.0
  O  O3642  1  0.180310  0.349650  0.077000  1.0
  O  O3643  1  0.772650  0.103310  0.423000  1.0
  O  O3644  1  0.150350  0.319690  0.423000  1.0
  O  O3645  1  0.603310  0.272650  0.923000  1.0
  O  O3646  1  0.819690  0.650350  0.923000  1.0
  O  O3647  1  0.227350  0.896690  0.577000  1.0
  O  O3648  1  0.849650  0.680310  0.577000  1.0
  O  O3649  1  0.426120  0.916760  0.439320  1.0
  O  O3650  1  0.513200  0.522560  0.439320  1.0
  O  O3651  1  0.583240  0.073880  0.060680  1.0
  O  O3652  1  0.977440  0.986800  0.060680  1.0
  O  O3653  1  0.573880  0.083240  0.560680  1.0
  O  O3654  1  0.486800  0.477440  0.560680  1.0
  O  O3655  1  0.416760  0.926120  0.939320  1.0
  O  O3656  1  0.022560  0.013200  0.939320  1.0
  O  O3657  1  0.450530  0.883890  0.399520  1.0
  O  O3658  1  0.448990  0.515630  0.399520  1.0
  O  O3659  1  0.616110  0.049470  0.100480  1.0
  O  O3660  1  0.984370  0.051010  0.100480  1.0
  O  O3661  1  0.549470  0.116110  0.600480  1.0
  O  O3662  1  0.551010  0.484370  0.600480  1.0
  O  O3663  1  0.383890  0.950530  0.899520  1.0
  O  O3664  1  0.015630  0.948990  0.899520  1.0
  O  O3665  1  0.467920  0.728660  0.120380  1.0
  O  O3666  1  0.152460  0.391720  0.120380  1.0
  O  O3667  1  0.771340  0.032080  0.379620  1.0
  O  O3668  1  0.108280  0.347540  0.379620  1.0
  O  O3669  1  0.532080  0.271340  0.879620  1.0
  O  O3670  1  0.847540  0.608280  0.879620  1.0
  O  O3671  1  0.228660  0.967920  0.620380  1.0
  O  O3672  1  0.891720  0.652460  0.620380  1.0
  O  O3673  1  0.499960  0.708400  0.080540  1.0
  O  O3674  1  0.080580  0.372140  0.080540  1.0
  O  O3675  1  0.791600  0.000040  0.419460  1.0
  O  O3676  1  0.127860  0.419420  0.419460  1.0
  O  O3677  1  0.500040  0.291600  0.919460  1.0
  O  O3678  1  0.919420  0.627860  0.919460  1.0
  O  O3679  1  0.208400  0.999960  0.580540  1.0
  O  O3680  1  0.872140  0.580580  0.580540  1.0
  O  O3681  1  0.584490  0.965690  0.445860  1.0
  O  O3682  1  0.361370  0.480170  0.445860  1.0
  O  O3683  1  0.534310  0.915510  0.054140  1.0
  O  O3684  1  0.019830  0.138630  0.054140  1.0
  O  O3685  1  0.415510  0.034310  0.554140  1.0
  O  O3686  1  0.638630  0.519830  0.554140  1.0
  O  O3687  1  0.465690  0.084490  0.945860  1.0
  O  O3688  1  0.980170  0.861370  0.945860  1.0
  O  O3689  1  0.594380  0.905380  0.409180  1.0
  O  O3690  1  0.314800  0.503800  0.409180  1.0
  O  O3691  1  0.594620  0.905620  0.090820  1.0
  O  O3692  1  0.996200  0.185200  0.090820  1.0
  O  O3693  1  0.405620  0.094620  0.590820  1.0
  O  O3694  1  0.685200  0.496200  0.590820  1.0
  O  O3695  1  0.405380  0.094380  0.909180  1.0
  O  O3696  1  0.003800  0.814800  0.909180  1.0
  O  O3697  1  0.518570  0.639070  0.092560  1.0
  O  O3698  1  0.073990  0.453490  0.092560  1.0
  O  O3699  1  0.860930  0.981430  0.407440  1.0
  O  O3700  1  0.046510  0.426010  0.407440  1.0
  O  O3701  1  0.481430  0.360930  0.907440  1.0
  O  O3702  1  0.926010  0.546510  0.907440  1.0
  O  O3703  1  0.139070  0.018570  0.592560  1.0
  O  O3704  1  0.953490  0.573990  0.592560  1.0
  O  O3705  1  0.530260  0.584320  0.054480  1.0
  O  O3706  1  0.024220  0.470160  0.054480  1.0
  O  O3707  1  0.915680  0.969740  0.445520  1.0
  O  O3708  1  0.029840  0.475780  0.445520  1.0
  O  O3709  1  0.469740  0.415680  0.945520  1.0
  O  O3710  1  0.975780  0.529840  0.945520  1.0
  O  O3711  1  0.084320  0.030260  0.554480  1.0
  O  O3712  1  0.970160  0.524220  0.554480  1.0
  O  O3713  1  0.339180  0.535080  0.493700  1.0
  O  O3714  1  0.654520  0.958620  0.493700  1.0
  O  O3715  1  0.964920  0.160820  0.006300  1.0
  O  O3716  1  0.541380  0.845480  0.006300  1.0
  O  O3717  1  0.660820  0.464920  0.506300  1.0
  O  O3718  1  0.345480  0.041380  0.506300  1.0
  O  O3719  1  0.035080  0.839180  0.993700  1.0
  O  O3720  1  0.458620  0.154520  0.993700  1.0
  O  O3721  1  0.357050  0.593090  0.509460  1.0
  O  O3722  1  0.652410  0.916370  0.509460  1.0
  O  O3723  1  0.906910  0.142950  0.990540  1.0
  O  O3724  1  0.583630  0.847590  0.990540  1.0
  O  O3725  1  0.642950  0.406910  0.490540  1.0
  O  O3726  1  0.347590  0.083630  0.490540  1.0
  O  O3727  1  0.093090  0.857050  0.009460  1.0
  O  O3728  1  0.416370  0.152410  0.009460  1.0
  O  O3729  1  0.425190  0.568190  0.493200  1.0
  O  O3730  1  0.568010  0.925010  0.493200  1.0
  O  O3731  1  0.931810  0.074810  0.006800  1.0
  O  O3732  1  0.574990  0.931990  0.006800  1.0
  O  O3733  1  0.574810  0.431810  0.506800  1.0
  O  O3734  1  0.431990  0.074990  0.506800  1.0
  O  O3735  1  0.068190  0.925190  0.993200  1.0
  O  O3736  1  0.425010  0.068010  0.993200  1.0
  O  O3737  1  0.334090  0.581330  0.438140  1.0
  O  O3738  1  0.604050  0.856810  0.438140  1.0
  O  O3739  1  0.918670  0.165910  0.061860  1.0
  O  O3740  1  0.643190  0.895950  0.061860  1.0
  O  O3741  1  0.665910  0.418670  0.561860  1.0
  O  O3742  1  0.395950  0.143190  0.561860  1.0
  O  O3743  1  0.081330  0.834090  0.938140  1.0
  O  O3744  1  0.356810  0.104050  0.938140  1.0
  O  O3745  1  0.318190  0.628010  0.430160  1.0
  O  O3746  1  0.611970  0.802150  0.430160  1.0
  O  O3747  1  0.871990  0.181810  0.069840  1.0
  O  O3748  1  0.697850  0.888030  0.069840  1.0
  O  O3749  1  0.681810  0.371990  0.569840  1.0
  O  O3750  1  0.388030  0.197850  0.569840  1.0
  O  O3751  1  0.128010  0.818190  0.930160  1.0
  O  O3752  1  0.302150  0.111970  0.930160  1.0
  O  O3753  1  0.340520  0.545840  0.370560  1.0
  O  O3754  1  0.530040  0.824720  0.370560  1.0
  O  O3755  1  0.954160  0.159480  0.129440  1.0
  O  O3756  1  0.675280  0.969960  0.129440  1.0
  O  O3757  1  0.659480  0.454160  0.629440  1.0
  O  O3758  1  0.469960  0.175280  0.629440  1.0
  O  O3759  1  0.045840  0.840520  0.870560  1.0
  O  O3760  1  0.324720  0.030040  0.870560  1.0
  O  O3761  1  0.297620  0.573020  0.363860  1.0
  O  O3762  1  0.566240  0.790840  0.363860  1.0
  O  O3763  1  0.926980  0.202380  0.136140  1.0
  O  O3764  1  0.709160  0.933760  0.136140  1.0
  O  O3765  1  0.702380  0.426980  0.636140  1.0
  O  O3766  1  0.433760  0.209160  0.636140  1.0
  O  O3767  1  0.073020  0.797620  0.863860  1.0
  O  O3768  1  0.290840  0.066240  0.863860  1.0
  O  O3769  1  0.257810  0.614170  0.329580  1.0
  O  O3770  1  0.571770  0.715410  0.329580  1.0
  O  O3771  1  0.885830  0.242190  0.170420  1.0
  O  O3772  1  0.784590  0.928230  0.170420  1.0
  O  O3773  1  0.742190  0.385830  0.670420  1.0
  O  O3774  1  0.428230  0.284590  0.670420  1.0
  O  O3775  1  0.114170  0.757810  0.829580  1.0
  O  O3776  1  0.215410  0.071770  0.829580  1.0
  O  O3777  1  0.273920  0.668520  0.327440  1.0
  O  O3778  1  0.553520  0.658920  0.327440  1.0
  O  O3779  1  0.831480  0.226080  0.172560  1.0
  O  O3780  1  0.841080  0.946480  0.172560  1.0
  O  O3781  1  0.726080  0.331480  0.672560  1.0
  O  O3782  1  0.446480  0.341080  0.672560  1.0
  O  O3783  1  0.168520  0.773920  0.827440  1.0
  O  O3784  1  0.158920  0.053520  0.827440  1.0
  O  O3785  1  0.323850  0.660250  0.390560  1.0
  O  O3786  1  0.566710  0.730310  0.390560  1.0
  O  O3787  1  0.839750  0.176150  0.109440  1.0
  O  O3788  1  0.769690  0.933290  0.109440  1.0
  O  O3789  1  0.676150  0.339750  0.609440  1.0
  O  O3790  1  0.433290  0.269690  0.609440  1.0
  O  O3791  1  0.160250  0.823850  0.890560  1.0
  O  O3792  1  0.230310  0.066710  0.890560  1.0
  O  O3793  1  0.345780  0.716120  0.401400  1.0
  O  O3794  1  0.555620  0.685280  0.401400  1.0
  O  O3795  1  0.783880  0.154220  0.098600  1.0
  O  O3796  1  0.814720  0.944380  0.098600  1.0
  O  O3797  1  0.654220  0.283880  0.598600  1.0
  O  O3798  1  0.444380  0.314720  0.598600  1.0
  O  O3799  1  0.216120  0.845780  0.901400  1.0
  O  O3800  1  0.185280  0.055620  0.901400  1.0
  O  O3801  1  0.301620  0.758320  0.435360  1.0
  O  O3802  1  0.633740  0.677040  0.435360  1.0
  O  O3803  1  0.741680  0.198380  0.064640  1.0
  O  O3804  1  0.822960  0.866260  0.064640  1.0
  O  O3805  1  0.698380  0.241680  0.564640  1.0
  O  O3806  1  0.366260  0.322960  0.564640  1.0
  O  O3807  1  0.258320  0.801620  0.935360  1.0
  O  O3808  1  0.177040  0.133740  0.935360  1.0
  O  O3809  1  0.321920  0.789760  0.489880  1.0
  O  O3810  1  0.667960  0.700120  0.489880  1.0
  O  O3811  1  0.710240  0.178080  0.010120  1.0
  O  O3812  1  0.799880  0.832040  0.010120  1.0
  O  O3813  1  0.678080  0.210240  0.510120  1.0
  O  O3814  1  0.332040  0.299880  0.510120  1.0
  O  O3815  1  0.289760  0.821920  0.989880  1.0
  O  O3816  1  0.200120  0.167960  0.989880  1.0
  O  O3817  1  0.297480  0.870820  0.497460  1.0
  O  O3818  1  0.699980  0.626640  0.497460  1.0
  O  O3819  1  0.629180  0.202520  0.002540  1.0
  O  O3820  1  0.873360  0.800020  0.002540  1.0
  O  O3821  1  0.702520  0.129180  0.502540  1.0
  O  O3822  1  0.300020  0.373360  0.502540  1.0
  O  O3823  1  0.370820  0.797480  0.997460  1.0
  O  O3824  1  0.126640  0.199980  0.997460  1.0
  O  O3825  1  0.353540  0.876280  0.510600  1.0
  O  O3826  1  0.657060  0.634320  0.510600  1.0
  O  O3827  1  0.623720  0.146460  0.989400  1.0
  O  O3828  1  0.865680  0.842940  0.989400  1.0
  O  O3829  1  0.646460  0.123720  0.489400  1.0
  O  O3830  1  0.342940  0.365680  0.489400  1.0
  O  O3831  1  0.376280  0.853540  0.010600  1.0
  O  O3832  1  0.134320  0.157060  0.010600  1.0
  O  O3833  1  0.302550  0.762130  0.368240  1.0
  O  O3834  1  0.565690  0.606110  0.368240  1.0
  O  O3835  1  0.737870  0.197450  0.131760  1.0
  O  O3836  1  0.893890  0.934310  0.131760  1.0
  O  O3837  1  0.697450  0.237870  0.631760  1.0
  O  O3838  1  0.434310  0.393890  0.631760  1.0
  O  O3839  1  0.262130  0.802550  0.868240  1.0
  O  O3840  1  0.106110  0.065690  0.868240  1.0
  O  O3841  1  0.340040  0.803880  0.366560  1.0
  O  O3842  1  0.526520  0.562680  0.366560  1.0
  O  O3843  1  0.696120  0.159960  0.133440  1.0
  O  O3844  1  0.937320  0.973480  0.133440  1.0
  O  O3845  1  0.659960  0.196120  0.633440  1.0
  O  O3846  1  0.473480  0.437320  0.633440  1.0
  O  O3847  1  0.303880  0.840040  0.866560  1.0
  O  O3848  1  0.062680  0.026520  0.866560  1.0
  O  O3849  1  0.343590  0.832290  0.438360  1.0
  O  O3850  1  0.594770  0.606070  0.438360  1.0
  O  O3851  1  0.667710  0.156410  0.061640  1.0
  O  O3852  1  0.893930  0.905230  0.061640  1.0
  O  O3853  1  0.656410  0.167710  0.561640  1.0
  O  O3854  1  0.405230  0.393930  0.561640  1.0
  O  O3855  1  0.332290  0.843590  0.938360  1.0
  O  O3856  1  0.106070  0.094770  0.938360  1.0
  O  O3857  1  0.393280  0.849680  0.436720  1.0
  O  O3858  1  0.543440  0.587040  0.436720  1.0
  O  O3859  1  0.650320  0.106720  0.063280  1.0
  O  O3860  1  0.912960  0.956560  0.063280  1.0
  O  O3861  1  0.606720  0.150320  0.563280  1.0
  O  O3862  1  0.456560  0.412960  0.563280  1.0
  O  O3863  1  0.349680  0.893280  0.936720  1.0
  O  O3864  1  0.087040  0.043440  0.936720  1.0
  O  O3865  1  0.424200  0.812540  0.394260  1.0
  O  O3866  1  0.470060  0.581720  0.394260  1.0
  O  O3867  1  0.687460  0.075800  0.105740  1.0
  O  O3868  1  0.918280  0.029940  0.105740  1.0
  O  O3869  1  0.575800  0.187460  0.605740  1.0
  O  O3870  1  0.529940  0.418280  0.605740  1.0
  O  O3871  1  0.312540  0.924200  0.894260  1.0
  O  O3872  1  0.081720  0.970060  0.894260  1.0
  O  O3873  1  0.481020  0.808320  0.406380  1.0
  O  O3874  1  0.425360  0.598060  0.406380  1.0
  O  O3875  1  0.691680  0.018980  0.093620  1.0
  O  O3876  1  0.901940  0.074640  0.093620  1.0
  O  O3877  1  0.518980  0.191680  0.593620  1.0
  O  O3878  1  0.574640  0.401940  0.593620  1.0
  O  O3879  1  0.308320  0.981020  0.906380  1.0
  O  O3880  1  0.098060  0.925360  0.906380  1.0
  O  O3881  1  0.385720  0.818420  0.336840  1.0
  O  O3882  1  0.451120  0.518420  0.336840  1.0
  O  O3883  1  0.681580  0.114280  0.163160  1.0
  O  O3884  1  0.981580  0.048880  0.163160  1.0
  O  O3885  1  0.614280  0.181580  0.663160  1.0
  O  O3886  1  0.548880  0.481580  0.663160  1.0
  O  O3887  1  0.318420  0.885720  0.836840  1.0
  O  O3888  1  0.018420  0.951120  0.836840  1.0
  O  O3889  1  0.434880  0.803860  0.331280  1.0
  O  O3890  1  0.396400  0.527420  0.331280  1.0
  O  O3891  1  0.696140  0.065120  0.168720  1.0
  O  O3892  1  0.972580  0.103600  0.168720  1.0
  O  O3893  1  0.565120  0.196140  0.668720  1.0
  O  O3894  1  0.603600  0.472580  0.668720  1.0
  O  O3895  1  0.303860  0.934880  0.831280  1.0
  O  O3896  1  0.027420  0.896400  0.831280  1.0
  O  O3897  1  0.533200  0.887520  0.437280  1.0
  O  O3898  1  0.404080  0.549760  0.437280  1.0
  O  O3899  1  0.612480  0.966800  0.062720  1.0
  O  O3900  1  0.950240  0.095920  0.062720  1.0
  O  O3901  1  0.466800  0.112480  0.562720  1.0
  O  O3902  1  0.595920  0.450240  0.562720  1.0
  O  O3903  1  0.387520  0.033200  0.937280  1.0
  O  O3904  1  0.049760  0.904080  0.937280  1.0
  O  O3905  1  0.163650  0.505150  0.139700  1.0
  O  O3906  1  0.476050  0.634550  0.139700  1.0
  O  O3907  1  0.994850  0.336350  0.360300  1.0
  O  O3908  1  0.865450  0.023950  0.360300  1.0
  O  O3909  1  0.836350  0.494850  0.860300  1.0
  O  O3910  1  0.523950  0.365450  0.860300  1.0
  O  O3911  1  0.005150  0.663650  0.639700  1.0
  O  O3912  1  0.134550  0.976050  0.639700  1.0
  O  O3913  1  0.188270  0.463450  0.145920  1.0
  O  O3914  1  0.457650  0.682470  0.145920  1.0
  O  O3915  1  0.036550  0.311730  0.354080  1.0
  O  O3916  1  0.817530  0.042350  0.354080  1.0
  O  O3917  1  0.811730  0.536550  0.854080  1.0
  O  O3918  1  0.542350  0.317530  0.854080  1.0
  O  O3919  1  0.963450  0.688270  0.645920  1.0
  O  O3920  1  0.182470  0.957650  0.645920  1.0
  O  O3921  1  0.112140  0.511280  0.070940  1.0
  O  O3922  1  0.458800  0.559660  0.070940  1.0
  O  O3923  1  0.988720  0.387860  0.429060  1.0
  O  O3924  1  0.940340  0.041200  0.429060  1.0
  O  O3925  1  0.887860  0.488720  0.929060  1.0
  O  O3926  1  0.541200  0.440340  0.929060  1.0
  O  O3927  1  0.011280  0.612140  0.570940  1.0
  O  O3928  1  0.059660  0.958800  0.570940  1.0
  O  O3929  1  0.198030  0.601570  0.180280  1.0
  O  O3930  1  0.482250  0.578710  0.180280  1.0
  O  O3931  1  0.898430  0.301970  0.319720  1.0
  O  O3932  1  0.921290  0.017750  0.319720  1.0
  O  O3933  1  0.801970  0.398430  0.819720  1.0
  O  O3934  1  0.517750  0.421290  0.819720  1.0
  O  O3935  1  0.101570  0.698030  0.680280  1.0
  O  O3936  1  0.078710  0.982250  0.680280  1.0
  O  O3937  1  0.195330  0.654070  0.173820  1.0
  O  O3938  1  0.478490  0.519750  0.173820  1.0
  O  O3939  1  0.845930  0.304670  0.326180  1.0
  O  O3940  1  0.980250  0.021510  0.326180  1.0
  O  O3941  1  0.804670  0.345930  0.826180  1.0
  O  O3942  1  0.521510  0.480250  0.826180  1.0
  O  O3943  1  0.154070  0.695330  0.673820  1.0
  O  O3944  1  0.019750  0.978490  0.673820  1.0
  O  O3945  1  0.198600  0.550980  0.110560  1.0
  O  O3946  1  0.411960  0.559580  0.110560  1.0
  O  O3947  1  0.949020  0.301400  0.389440  1.0
  O  O3948  1  0.940420  0.088040  0.389440  1.0
  O  O3949  1  0.801400  0.449020  0.889440  1.0
  O  O3950  1  0.588040  0.440420  0.889440  1.0
  O  O3951  1  0.050980  0.698600  0.610560  1.0
  O  O3952  1  0.059580  0.911960  0.610560  1.0
  O  O3953  1  0.200220  0.607900  0.119160  1.0
  O  O3954  1  0.418940  0.511260  0.119160  1.0
  O  O3955  1  0.892100  0.299780  0.380840  1.0
  O  O3956  1  0.988740  0.081060  0.380840  1.0
  O  O3957  1  0.799780  0.392100  0.880840  1.0
  O  O3958  1  0.581060  0.488740  0.880840  1.0
  O  O3959  1  0.107900  0.700220  0.619160  1.0
  O  O3960  1  0.011260  0.918940  0.619160  1.0
  O  O3961  1  0.173220  0.637020  0.075980  1.0
  O  O3962  1  0.402760  0.438960  0.075980  1.0
  O  O3963  1  0.862980  0.326780  0.424020  1.0
  O  O3964  1  0.061040  0.097240  0.424020  1.0
  O  O3965  1  0.826780  0.362980  0.924020  1.0
  O  O3966  1  0.597240  0.561040  0.924020  1.0
  O  O3967  1  0.137020  0.673220  0.575980  1.0
  O  O3968  1  0.938960  0.902760  0.575980  1.0
  O  O3969  1  0.202180  0.681280  0.070400  1.0
  O  O3970  1  0.368220  0.389120  0.070400  1.0
  O  O3971  1  0.818720  0.297820  0.429600  1.0
  O  O3972  1  0.110880  0.131780  0.429600  1.0
  O  O3973  1  0.797820  0.318720  0.929600  1.0
  O  O3974  1  0.631780  0.610880  0.929600  1.0
  O  O3975  1  0.181280  0.702180  0.570400  1.0
  O  O3976  1  0.889120  0.868220  0.570400  1.0
  O  O3977  1  0.224140  0.693140  0.144420  1.0
  O  O3978  1  0.420280  0.451280  0.144420  1.0
  O  O3979  1  0.806860  0.275860  0.355580  1.0
  O  O3980  1  0.048720  0.079720  0.355580  1.0
  O  O3981  1  0.775860  0.306860  0.855580  1.0
  O  O3982  1  0.579720  0.548720  0.855580  1.0
  O  O3983  1  0.193140  0.724140  0.644420  1.0
  O  O3984  1  0.951280  0.920280  0.644420  1.0
  O  O3985  1  0.273680  0.715980  0.141160  1.0
  O  O3986  1  0.367480  0.425180  0.141160  1.0
  O  O3987  1  0.784020  0.226320  0.358840  1.0
  O  O3988  1  0.074820  0.132520  0.358840  1.0
  O  O3989  1  0.726320  0.284020  0.858840  1.0
  O  O3990  1  0.632520  0.574820  0.858840  1.0
  O  O3991  1  0.215980  0.773680  0.641160  1.0
  O  O3992  1  0.925180  0.867480  0.641160  1.0
  O  O3993  1  0.172410  0.711230  0.012780  1.0
  O  O3994  1  0.340370  0.301550  0.012780  1.0
  O  O3995  1  0.788770  0.327590  0.487220  1.0
  O  O3996  1  0.198450  0.159630  0.487220  1.0
  O  O3997  1  0.827590  0.288770  0.987220  1.0
  O  O3998  1  0.659630  0.698450  0.987220  1.0
  O  O3999  1  0.211230  0.672410  0.512780  1.0
  O  O4000  1  0.801550  0.840370  0.512780  1.0
  O  O4001  1  0.174650  0.651890  0.993680  1.0
  O  O4002  1  0.319030  0.341790  0.993680  1.0
  O  O4003  1  0.848110  0.325350  0.506320  1.0
  O  O4004  1  0.158210  0.180970  0.506320  1.0
  O  O4005  1  0.825350  0.348110  0.006320  1.0
  O  O4006  1  0.680970  0.658210  0.006320  1.0
  O  O4007  1  0.151890  0.674650  0.493680  1.0
  O  O4008  1  0.841790  0.819030  0.493680  1.0
  O  O4009  1  0.257970  0.686870  0.020040  1.0
  O  O4010  1  0.262070  0.333170  0.020040  1.0
  O  O4011  1  0.813130  0.242030  0.479960  1.0
  O  O4012  1  0.166830  0.237930  0.479960  1.0
  O  O4013  1  0.742030  0.313130  0.979960  1.0
  O  O4014  1  0.737930  0.666830  0.979960  1.0
  O  O4015  1  0.186870  0.757970  0.520040  1.0
  O  O4016  1  0.833170  0.762070  0.520040  1.0
  O  O4017  1  0.283450  0.703070  0.073480  1.0
  O  O4018  1  0.290030  0.370410  0.073480  1.0
  O  O4019  1  0.796930  0.216550  0.426520  1.0
  O  O4020  1  0.129590  0.209970  0.426520  1.0
  O  O4021  1  0.716550  0.296930  0.926520  1.0
  O  O4022  1  0.709970  0.629590  0.926520  1.0
  O  O4023  1  0.203070  0.783450  0.573480  1.0
  O  O4024  1  0.870410  0.790030  0.573480  1.0
  O  O4025  1  0.312620  0.658120  0.112960  1.0
  O  O4026  1  0.300340  0.454840  0.112960  1.0
  O  O4027  1  0.841880  0.187380  0.387040  1.0
  O  O4028  1  0.045160  0.199660  0.387040  1.0
  O  O4029  1  0.687380  0.341880  0.887040  1.0
  O  O4030  1  0.699660  0.545160  0.887040  1.0
  O  O4031  1  0.158120  0.812620  0.612960  1.0
  O  O4032  1  0.954840  0.800340  0.612960  1.0
  O  O4033  1  0.369850  0.669990  0.121480  1.0
  O  O4034  1  0.251630  0.451490  0.121480  1.0
  O  O4035  1  0.830010  0.130150  0.378520  1.0
  O  O4036  1  0.048510  0.248370  0.378520  1.0
  O  O4037  1  0.630150  0.330010  0.878520  1.0
  O  O4038  1  0.748370  0.548510  0.878520  1.0
  O  O4039  1  0.169990  0.869850  0.621480  1.0
  O  O4040  1  0.951490  0.751630  0.621480  1.0
  O  O4041  1  0.366690  0.729390  0.182860  1.0
  O  O4042  1  0.316170  0.453470  0.182860  1.0
  O  O4043  1  0.770610  0.133310  0.317140  1.0
  O  O4044  1  0.046530  0.183830  0.317140  1.0
  O  O4045  1  0.633310  0.270610  0.817140  1.0
  O  O4046  1  0.683830  0.546530  0.817140  1.0
  O  O4047  1  0.229390  0.866690  0.682860  1.0
  O  O4048  1  0.953470  0.816170  0.682860  1.0
  O  O4049  1  0.419730  0.730710  0.177880  1.0
  O  O4050  1  0.258150  0.447170  0.177880  1.0
  O  O4051  1  0.769290  0.080270  0.322120  1.0
  O  O4052  1  0.052830  0.241850  0.322120  1.0
  O  O4053  1  0.580270  0.269290  0.822120  1.0
  O  O4054  1  0.741850  0.552830  0.822120  1.0
  O  O4055  1  0.230710  0.919730  0.677880  1.0
  O  O4056  1  0.947170  0.758150  0.677880  1.0
  O  O4057  1  0.401840  0.660280  0.077460  1.0
  O  O4058  1  0.175620  0.417180  0.077460  1.0
  O  O4059  1  0.839720  0.098160  0.422540  1.0
  O  O4060  1  0.082820  0.324380  0.422540  1.0
  O  O4061  1  0.598160  0.339720  0.922540  1.0
  O  O4062  1  0.824380  0.582820  0.922540  1.0
  O  O4063  1  0.160280  0.901840  0.577460  1.0
  O  O4064  1  0.917180  0.675620  0.577460  1.0
  O  O4065  1  0.442830  0.635210  0.069700  1.0
  O  O4066  1  0.126870  0.434490  0.069700  1.0
  O  O4067  1  0.864790  0.057170  0.430300  1.0
  O  O4068  1  0.065510  0.373130  0.430300  1.0
  O  O4069  1  0.557170  0.364790  0.930300  1.0
  O  O4070  1  0.873130  0.565510  0.930300  1.0
  O  O4071  1  0.135210  0.942830  0.569700  1.0
  O  O4072  1  0.934490  0.626870  0.569700  1.0
  O  O4073  1  0.420130  0.595810  0.992400  1.0
  O  O4074  1  0.072270  0.396590  0.992400  1.0
  O  O4075  1  0.904190  0.079870  0.507600  1.0
  O  O4076  1  0.103410  0.427730  0.507600  1.0
  O  O4077  1  0.579870  0.404190  0.007600  1.0
  O  O4078  1  0.927730  0.603410  0.007600  1.0
  O  O4079  1  0.095810  0.920130  0.492400  1.0
  O  O4080  1  0.896590  0.572270  0.492400  1.0
  O  O4081  1  0.479620  0.610380  0.006080  1.0
  O  O4082  1  0.026460  0.395700  0.006080  1.0
  O  O4083  1  0.889620  0.020380  0.493920  1.0
  O  O4084  1  0.104300  0.473540  0.493920  1.0
  O  O4085  1  0.520380  0.389620  0.993920  1.0
  O  O4086  1  0.973540  0.604300  0.993920  1.0
  O  O4087  1  0.110380  0.979620  0.506080  1.0
  O  O4088  1  0.895700  0.526460  0.506080  1.0
  O  O4089  1  0.438320  0.532120  0.014680  1.0
  O  O4090  1  0.076360  0.482560  0.014680  1.0
  O  O4091  1  0.967880  0.061680  0.485320  1.0
  O  O4092  1  0.017440  0.423640  0.485320  1.0
  O  O4093  1  0.561680  0.467880  0.985320  1.0
  O  O4094  1  0.923640  0.517440  0.985320  1.0
  O  O4095  1  0.032120  0.938320  0.514680  1.0
  O  O4096  1  0.982560  0.576360  0.514680  1.0
