# generated using pymatgen
data_Tb6Cd18H324C259N18Cl9O92
_symmetry_space_group_name_H-M   'P 1'
_cell_length_a   24.36200000
_cell_length_b   51.11400000
_cell_length_c   51.11400000
_cell_angle_alpha   120.00000000
_cell_angle_beta   90.00000000
_cell_angle_gamma   90.00000000
_symmetry_Int_Tables_number   1
_chemical_formula_structural   Tb6Cd18H324C259N18Cl9O92
_chemical_formula_sum   'Tb36 Cd108 H1944 C1554 N108 Cl54 O552'
_cell_volume   55121.78944152
_cell_formula_units_Z   6
loop_
 _symmetry_equiv_pos_site_id
 _symmetry_equiv_pos_as_xyz
  1  'x, y, z'
loop_
 _atom_site_type_symbol
 _atom_site_label
 _atom_site_symmetry_multiplicity
 _atom_site_fract_x
 _atom_site_fract_y
 _atom_site_fract_z
 _atom_site_occupancy
  Tb  Tb1  1  0.564865  0.609006  0.862853  1
  Tb  Tb2  1  0.564865  0.253847  0.390994  1
  Tb  Tb3  1  0.564865  0.137147  0.746153  1
  Tb  Tb4  1  0.435135  0.390994  0.137147  1
  Tb  Tb5  1  0.435135  0.746153  0.609006  1
  Tb  Tb6  1  0.435135  0.862853  0.253847  1
  Tb  Tb7  1  0.332764  0.741848  0.024475  1
  Tb  Tb8  1  0.332764  0.282627  0.258152  1
  Tb  Tb9  1  0.332764  0.975525  0.717373  1
  Tb  Tb10  1  0.667236  0.258152  0.975525  1
  Tb  Tb11  1  0.667236  0.717373  0.741848  1
  Tb  Tb12  1  0.667236  0.024475  0.282627  1
  Tb  Tb13  1  0.333921  0.536461  0.961802  1
  Tb  Tb14  1  0.333921  0.425341  0.463539  1
  Tb  Tb15  1  0.333921  0.038198  0.574659  1
  Tb  Tb16  1  0.666079  0.463539  0.038198  1
  Tb  Tb17  1  0.666079  0.574659  0.536461  1
  Tb  Tb18  1  0.666079  0.961802  0.425341  1
  Tb  Tb19  1  0.235751  0.505483  0.722797  1
  Tb  Tb20  1  0.235751  0.217314  0.494517  1
  Tb  Tb21  1  0.235751  0.277203  0.782686  1
  Tb  Tb22  1  0.764249  0.494517  0.277203  1
  Tb  Tb23  1  0.764249  0.782686  0.505483  1
  Tb  Tb24  1  0.764249  0.722797  0.217314  1
  Tb  Tb25  1  0.141305  0.710756  0.832352  1
  Tb  Tb26  1  0.141305  0.121596  0.289244  1
  Tb  Tb27  1  0.141305  0.167648  0.878404  1
  Tb  Tb28  1  0.858695  0.289244  0.167648  1
  Tb  Tb29  1  0.858695  0.878404  0.710756  1
  Tb  Tb30  1  0.858695  0.832352  0.121596  1
  Tb  Tb31  1  0.975095  0.575211  0.882632  1
  Tb  Tb32  1  0.975095  0.307421  0.424789  1
  Tb  Tb33  1  0.975095  0.117368  0.692579  1
  Tb  Tb34  1  0.024905  0.424789  0.117368  1
  Tb  Tb35  1  0.024905  0.692579  0.575211  1
  Tb  Tb36  1  0.024905  0.882632  0.307421  1
  Cd  Cd37  1  0.252380  0.583439  0.027488  1
  Cd  Cd38  1  0.252380  0.444049  0.416561  1
  Cd  Cd39  1  0.252380  0.972512  0.555951  1
  Cd  Cd40  1  0.747620  0.416561  0.972512  1
  Cd  Cd41  1  0.747620  0.555951  0.583439  1
  Cd  Cd42  1  0.747620  0.027488  0.444049  1
  Cd  Cd43  1  0.433330  0.524836  0.901613  1
  Cd  Cd44  1  0.433330  0.376777  0.475164  1
  Cd  Cd45  1  0.433330  0.098387  0.623223  1
  Cd  Cd46  1  0.566670  0.475164  0.098387  1
  Cd  Cd47  1  0.566670  0.623223  0.524836  1
  Cd  Cd48  1  0.566670  0.901613  0.376777  1
  Cd  Cd49  1  0.577870  0.529609  0.841714  1
  Cd  Cd50  1  0.577870  0.312105  0.470391  1
  Cd  Cd51  1  0.577870  0.158286  0.687895  1
  Cd  Cd52  1  0.422130  0.470391  0.158286  1
  Cd  Cd53  1  0.422130  0.687895  0.529609  1
  Cd  Cd54  1  0.422130  0.841714  0.312105  1
  Cd  Cd55  1  0.623900  0.515225  0.899867  1
  Cd  Cd56  1  0.623900  0.384642  0.484775  1
  Cd  Cd57  1  0.623900  0.100133  0.615358  1
  Cd  Cd58  1  0.376100  0.484775  0.100133  1
  Cd  Cd59  1  0.376100  0.615358  0.515225  1
  Cd  Cd60  1  0.376100  0.899867  0.384642  1
  Cd  Cd61  1  0.506850  0.686217  0.913704  1
  Cd  Cd62  1  0.506850  0.227487  0.313783  1
  Cd  Cd63  1  0.506850  0.086296  0.772513  1
  Cd  Cd64  1  0.493150  0.313783  0.086296  1
  Cd  Cd65  1  0.493150  0.772513  0.686217  1
  Cd  Cd66  1  0.493150  0.913704  0.227487  1
  Cd  Cd67  1  0.570100  0.760656  0.996402  1
  Cd  Cd68  1  0.570100  0.235746  0.239344  1
  Cd  Cd69  1  0.570100  0.003598  0.764254  1
  Cd  Cd70  1  0.429900  0.239344  0.003598  1
  Cd  Cd71  1  0.429900  0.764254  0.760656  1
  Cd  Cd72  1  0.429900  0.996402  0.235746  1
  Cd  Cd73  1  0.427110  0.774744  0.993776  1
  Cd  Cd74  1  0.427110  0.219032  0.225256  1
  Cd  Cd75  1  0.427110  0.006224  0.780968  1
  Cd  Cd76  1  0.572890  0.225256  0.006224  1
  Cd  Cd77  1  0.572890  0.780968  0.774744  1
  Cd  Cd78  1  0.572890  0.993776  0.219032  1
  Cd  Cd79  1  0.276430  0.677094  0.029019  1
  Cd  Cd80  1  0.276430  0.351925  0.322906  1
  Cd  Cd81  1  0.276430  0.970981  0.648075  1
  Cd  Cd82  1  0.723570  0.322906  0.970981  1
  Cd  Cd83  1  0.723570  0.648075  0.677094  1
  Cd  Cd84  1  0.723570  0.029019  0.351925  1
  Cd  Cd85  1  0.317080  0.643426  0.092191  1
  Cd  Cd86  1  0.317080  0.448765  0.356574  1
  Cd  Cd87  1  0.317080  0.907809  0.551235  1
  Cd  Cd88  1  0.682920  0.356574  0.907809  1
  Cd  Cd89  1  0.682920  0.551235  0.643426  1
  Cd  Cd90  1  0.682920  0.092191  0.448765  1
  Cd  Cd91  1  0.960510  0.460680  0.758640  1
  Cd  Cd92  1  0.960510  0.297960  0.539320  1
  Cd  Cd93  1  0.960510  0.241360  0.702040  1
  Cd  Cd94  1  0.039490  0.539320  0.241360  1
  Cd  Cd95  1  0.039490  0.702040  0.460680  1
  Cd  Cd96  1  0.039490  0.758640  0.297960  1
  Cd  Cd97  1  0.224510  0.592980  0.673410  1
  Cd  Cd98  1  0.224510  0.080430  0.407020  1
  Cd  Cd99  1  0.224510  0.326590  0.919570  1
  Cd  Cd100  1  0.775490  0.407020  0.326590  1
  Cd  Cd101  1  0.775490  0.919570  0.592980  1
  Cd  Cd102  1  0.775490  0.673410  0.080430  1
  Cd  Cd103  1  0.001070  0.495240  0.834980  1
  Cd  Cd104  1  0.001070  0.339740  0.504760  1
  Cd  Cd105  1  0.001070  0.165020  0.660260  1
  Cd  Cd106  1  0.998930  0.504760  0.165020  1
  Cd  Cd107  1  0.998930  0.660260  0.495240  1
  Cd  Cd108  1  0.998930  0.834980  0.339740  1
  Cd  Cd109  1  0.142710  0.493707  0.772794  1
  Cd  Cd110  1  0.142710  0.279087  0.506293  1
  Cd  Cd111  1  0.142710  0.227206  0.720913  1
  Cd  Cd112  1  0.857290  0.506293  0.227206  1
  Cd  Cd113  1  0.857290  0.720913  0.493707  1
  Cd  Cd114  1  0.857290  0.772794  0.279087  1
  Cd  Cd115  1  0.302550  0.553321  0.699557  1
  Cd  Cd116  1  0.302550  0.146236  0.446679  1
  Cd  Cd117  1  0.302550  0.300443  0.853764  1
  Cd  Cd118  1  0.697450  0.446679  0.300443  1
  Cd  Cd119  1  0.697450  0.853764  0.553321  1
  Cd  Cd120  1  0.697450  0.699557  0.146236  1
  Cd  Cd121  1  0.231000  0.649190  0.773053  1
  Cd  Cd122  1  0.231000  0.123863  0.350810  1
  Cd  Cd123  1  0.231000  0.226947  0.876137  1
  Cd  Cd124  1  0.769000  0.350810  0.226947  1
  Cd  Cd125  1  0.769000  0.876137  0.649190  1
  Cd  Cd126  1  0.769000  0.773053  0.123863  1
  Cd  Cd127  1  0.040200  0.739756  0.891915  1
  Cd  Cd128  1  0.040200  0.152159  0.260244  1
  Cd  Cd129  1  0.040200  0.108085  0.847841  1
  Cd  Cd130  1  0.959800  0.260244  0.108085  1
  Cd  Cd131  1  0.959800  0.847841  0.739756  1
  Cd  Cd132  1  0.959800  0.891915  0.152159  1
  Cd  Cd133  1  0.902820  0.715504  0.876870  1
  Cd  Cd134  1  0.902820  0.161366  0.284496  1
  Cd  Cd135  1  0.902820  0.123130  0.838634  1
  Cd  Cd136  1  0.097180  0.284496  0.123130  1
  Cd  Cd137  1  0.097180  0.838634  0.715504  1
  Cd  Cd138  1  0.097180  0.876870  0.161366  1
  Cd  Cd139  1  0.995640  0.652962  0.896808  1
  Cd  Cd140  1  0.995640  0.243846  0.347038  1
  Cd  Cd141  1  0.995640  0.103192  0.756154  1
  Cd  Cd142  1  0.004360  0.347038  0.103192  1
  Cd  Cd143  1  0.004360  0.756154  0.652962  1
  Cd  Cd144  1  0.004360  0.896808  0.243846  1
  H  H145  1  0.745300  0.500700  0.813200  1
  H  H146  1  0.745300  0.312500  0.499300  1
  H  H147  1  0.745300  0.186800  0.687500  1
  H  H148  1  0.254700  0.499300  0.186800  1
  H  H149  1  0.254700  0.687500  0.500700  1
  H  H150  1  0.254700  0.813200  0.312500  1
  H  H151  1  0.692400  0.480600  0.804600  1
  H  H152  1  0.692400  0.324000  0.519400  1
  H  H153  1  0.692400  0.195400  0.676000  1
  H  H154  1  0.307600  0.519400  0.195400  1
  H  H155  1  0.307600  0.676000  0.480600  1
  H  H156  1  0.307600  0.804600  0.324000  1
  H  H157  1  0.711800  0.498500  0.838300  1
  H  H158  1  0.711800  0.339800  0.501500  1
  H  H159  1  0.711800  0.161700  0.660200  1
  H  H160  1  0.288200  0.501500  0.161700  1
  H  H161  1  0.288200  0.660200  0.498500  1
  H  H162  1  0.288200  0.838300  0.339800  1
  H  H163  1  0.753300  0.514100  0.783900  1
  H  H164  1  0.753300  0.269800  0.485900  1
  H  H165  1  0.753300  0.216100  0.730200  1
  H  H166  1  0.246700  0.485900  0.216100  1
  H  H167  1  0.246700  0.730200  0.514100  1
  H  H168  1  0.246700  0.783900  0.269800  1
  H  H169  1  0.771600  0.541700  0.761100  1
  H  H170  1  0.771600  0.219400  0.458300  1
  H  H171  1  0.771600  0.238900  0.780600  1
  H  H172  1  0.228400  0.458300  0.238900  1
  H  H173  1  0.228400  0.780600  0.541700  1
  H  H174  1  0.228400  0.761100  0.219400  1
  H  H175  1  0.710600  0.578800  0.766300  1
  H  H176  1  0.710600  0.187500  0.421200  1
  H  H177  1  0.710600  0.233700  0.812500  1
  H  H178  1  0.289400  0.421200  0.233700  1
  H  H179  1  0.289400  0.812500  0.578800  1
  H  H180  1  0.289400  0.766300  0.187500  1
  H  H181  1  0.631600  0.606300  0.784900  1
  H  H182  1  0.631600  0.178600  0.393700  1
  H  H183  1  0.631600  0.215100  0.821400  1
  H  H184  1  0.368400  0.393700  0.215100  1
  H  H185  1  0.368400  0.821400  0.606300  1
  H  H186  1  0.368400  0.784900  0.178600  1
  H  H187  1  0.585000  0.649600  0.811500  1
  H  H188  1  0.585000  0.161900  0.350400  1
  H  H189  1  0.585000  0.188500  0.838100  1
  H  H190  1  0.415000  0.350400  0.188500  1
  H  H191  1  0.415000  0.838100  0.649600  1
  H  H192  1  0.415000  0.811500  0.161900  1
  H  H193  1  0.540800  0.652300  0.835000  1
  H  H194  1  0.540800  0.182700  0.347700  1
  H  H195  1  0.540800  0.165000  0.817300  1
  H  H196  1  0.459200  0.347700  0.165000  1
  H  H197  1  0.459200  0.817300  0.652300  1
  H  H198  1  0.459200  0.835000  0.182700  1
  H  H199  1  0.531900  0.617300  0.771300  1
  H  H200  1  0.531900  0.154000  0.382700  1
  H  H201  1  0.531900  0.228700  0.846000  1
  H  H202  1  0.468100  0.382700  0.228700  1
  H  H203  1  0.468100  0.846000  0.617300  1
  H  H204  1  0.468100  0.771300  0.154000  1
  H  H205  1  0.493200  0.610500  0.791800  1
  H  H206  1  0.493200  0.181300  0.389500  1
  H  H207  1  0.493200  0.208200  0.818700  1
  H  H208  1  0.506800  0.389500  0.208200  1
  H  H209  1  0.506800  0.818700  0.610500  1
  H  H210  1  0.506800  0.791800  0.181300  1
  H  H211  1  0.456200  0.659200  0.813700  1
  H  H212  1  0.456200  0.154500  0.340800  1
  H  H213  1  0.456200  0.186300  0.845500  1
  H  H214  1  0.543800  0.340800  0.186300  1
  H  H215  1  0.543800  0.845500  0.659200  1
  H  H216  1  0.543800  0.813700  0.154500  1
  H  H217  1  0.497100  0.667600  0.795400  1
  H  H218  1  0.497100  0.127800  0.332400  1
  H  H219  1  0.497100  0.204600  0.872200  1
  H  H220  1  0.502900  0.332400  0.204600  1
  H  H221  1  0.502900  0.872200  0.667600  1
  H  H222  1  0.502900  0.795400  0.127800  1
  H  H223  1  0.451600  0.639300  0.751600  1
  H  H224  1  0.451600  0.112300  0.360700  1
  H  H225  1  0.451600  0.248400  0.887700  1
  H  H226  1  0.548400  0.360700  0.248400  1
  H  H227  1  0.548400  0.887700  0.639300  1
  H  H228  1  0.548400  0.751600  0.112300  1
  H  H229  1  0.419900  0.621400  0.764300  1
  H  H230  1  0.419900  0.142900  0.378600  1
  H  H231  1  0.419900  0.235700  0.857100  1
  H  H232  1  0.580100  0.378600  0.235700  1
  H  H233  1  0.580100  0.857100  0.621400  1
  H  H234  1  0.580100  0.764300  0.142900  1
  H  H235  1  0.363300  0.661800  0.792500  1
  H  H236  1  0.363300  0.130700  0.338200  1
  H  H237  1  0.363300  0.207500  0.869300  1
  H  H238  1  0.636700  0.338200  0.207500  1
  H  H239  1  0.636700  0.869300  0.661800  1
  H  H240  1  0.636700  0.792500  0.130700  1
  H  H241  1  0.398500  0.682800  0.784900  1
  H  H242  1  0.398500  0.102100  0.317200  1
  H  H243  1  0.398500  0.215100  0.897900  1
  H  H244  1  0.601500  0.317200  0.215100  1
  H  H245  1  0.601500  0.897900  0.682800  1
  H  H246  1  0.601500  0.784900  0.102100  1
  H  H247  1  0.368900  0.658800  0.736200  1
  H  H248  1  0.368900  0.077400  0.341200  1
  H  H249  1  0.368900  0.263800  0.922600  1
  H  H250  1  0.631100  0.341200  0.263800  1
  H  H251  1  0.631100  0.922600  0.658800  1
  H  H252  1  0.631100  0.736200  0.077400  1
  H  H253  1  0.343200  0.632400  0.739400  1
  H  H254  1  0.343200  0.107000  0.367600  1
  H  H255  1  0.343200  0.260600  0.893000  1
  H  H256  1  0.656800  0.367600  0.260600  1
  H  H257  1  0.656800  0.893000  0.632400  1
  H  H258  1  0.656800  0.739400  0.107000  1
  H  H259  1  0.318900  0.695800  0.743400  1
  H  H260  1  0.318900  0.047600  0.304200  1
  H  H261  1  0.318900  0.256600  0.952400  1
  H  H262  1  0.681100  0.304200  0.256600  1
  H  H263  1  0.681100  0.952400  0.695800  1
  H  H264  1  0.681100  0.743400  0.047600  1
  H  H265  1  0.271000  0.728100  0.733000  1
  H  H266  1  0.271000  0.004900  0.271900  1
  H  H267  1  0.271000  0.267000  0.995100  1
  H  H268  1  0.729000  0.271900  0.267000  1
  H  H269  1  0.729000  0.995100  0.728100  1
  H  H270  1  0.729000  0.733000  0.004900  1
  H  H271  1  0.197200  0.758700  0.739800  1
  H  H272  1  0.197200  0.981100  0.241300  1
  H  H273  1  0.197200  0.260200  0.018900  1
  H  H274  1  0.802800  0.241300  0.260200  1
  H  H275  1  0.802800  0.018900  0.758700  1
  H  H276  1  0.802800  0.739800  0.981100  1
  H  H277  1  0.125800  0.761900  0.769800  1
  H  H278  1  0.125800  0.007900  0.238100  1
  H  H279  1  0.125800  0.230200  0.992100  1
  H  H280  1  0.874200  0.238100  0.230200  1
  H  H281  1  0.874200  0.992100  0.761900  1
  H  H282  1  0.874200  0.769800  0.007900  1
  H  H283  1  0.062500  0.753900  0.786900  1
  H  H284  1  0.062500  0.033000  0.246100  1
  H  H285  1  0.062500  0.213100  0.967000  1
  H  H286  1  0.937500  0.246100  0.213100  1
  H  H287  1  0.937500  0.967000  0.753900  1
  H  H288  1  0.937500  0.786900  0.033000  1
  H  H289  1  0.066200  0.770000  0.822200  1
  H  H290  1  0.066200  0.052200  0.230000  1
  H  H291  1  0.066200  0.177800  0.947800  1
  H  H292  1  0.933800  0.230000  0.177800  1
  H  H293  1  0.933800  0.947800  0.770000  1
  H  H294  1  0.933800  0.822200  0.052200  1
  H  H295  1  0.034100  0.739500  0.804200  1
  H  H296  1  0.034100  0.064700  0.260500  1
  H  H297  1  0.034100  0.195800  0.935300  1
  H  H298  1  0.965900  0.260500  0.195800  1
  H  H299  1  0.965900  0.935300  0.739500  1
  H  H300  1  0.965900  0.804200  0.064700  1
  H  H301  1  0.737000  0.623000  0.883800  1
  H  H302  1  0.737000  0.260800  0.377000  1
  H  H303  1  0.737000  0.116200  0.739200  1
  H  H304  1  0.263000  0.377000  0.116200  1
  H  H305  1  0.263000  0.739200  0.623000  1
  H  H306  1  0.263000  0.883800  0.260800  1
  H  H307  1  0.733400  0.603000  0.848500  1
  H  H308  1  0.733400  0.245500  0.397000  1
  H  H309  1  0.733400  0.151500  0.754500  1
  H  H310  1  0.266600  0.397000  0.151500  1
  H  H311  1  0.266600  0.754500  0.603000  1
  H  H312  1  0.266600  0.848500  0.245500  1
  H  H313  1  0.704300  0.592500  0.869100  1
  H  H314  1  0.704300  0.276600  0.407500  1
  H  H315  1  0.704300  0.130900  0.723400  1
  H  H316  1  0.295700  0.407500  0.130900  1
  H  H317  1  0.295700  0.723400  0.592500  1
  H  H318  1  0.295700  0.869100  0.276600  1
  H  H319  1  0.752500  0.651300  0.859400  1
  H  H320  1  0.752500  0.208100  0.348700  1
  H  H321  1  0.752500  0.140600  0.791900  1
  H  H322  1  0.247500  0.348700  0.140600  1
  H  H323  1  0.247500  0.791900  0.651300  1
  H  H324  1  0.247500  0.859400  0.208100  1
  H  H325  1  0.755500  0.700000  0.864800  1
  H  H326  1  0.755500  0.164800  0.300000  1
  H  H327  1  0.755500  0.135200  0.835200  1
  H  H328  1  0.244500  0.300000  0.135200  1
  H  H329  1  0.244500  0.835200  0.700000  1
  H  H330  1  0.244500  0.864800  0.164800  1
  H  H331  1  0.678200  0.728100  0.876500  1
  H  H332  1  0.678200  0.148400  0.271900  1
  H  H333  1  0.678200  0.123500  0.851600  1
  H  H334  1  0.321800  0.271900  0.123500  1
  H  H335  1  0.321800  0.851600  0.728100  1
  H  H336  1  0.321800  0.876500  0.148400  1
  H  H337  1  0.586700  0.737600  0.887000  1
  H  H338  1  0.586700  0.149400  0.262400  1
  H  H339  1  0.586700  0.113000  0.850600  1
  H  H340  1  0.413300  0.262400  0.113000  1
  H  H341  1  0.413300  0.850600  0.737600  1
  H  H342  1  0.413300  0.887000  0.149400  1
  H  H343  1  0.512100  0.757900  0.901300  1
  H  H344  1  0.512100  0.143400  0.242100  1
  H  H345  1  0.512100  0.098700  0.856600  1
  H  H346  1  0.487900  0.242100  0.098700  1
  H  H347  1  0.487900  0.856600  0.757900  1
  H  H348  1  0.487900  0.901300  0.143400  1
  H  H349  1  0.474300  0.748800  0.920300  1
  H  H350  1  0.474300  0.171500  0.251200  1
  H  H351  1  0.474300  0.079700  0.828500  1
  H  H352  1  0.525700  0.251200  0.079700  1
  H  H353  1  0.525700  0.828500  0.748800  1
  H  H354  1  0.525700  0.920300  0.171500  1
  H  H355  1  0.468200  0.726400  0.857600  1
  H  H356  1  0.468200  0.131200  0.273600  1
  H  H357  1  0.468200  0.142400  0.868800  1
  H  H358  1  0.531800  0.273600  0.142400  1
  H  H359  1  0.531800  0.868800  0.726400  1
  H  H360  1  0.531800  0.857600  0.131200  1
  H  H361  1  0.440600  0.708300  0.871300  1
  H  H362  1  0.440600  0.163000  0.291700  1
  H  H363  1  0.440600  0.128700  0.837000  1
  H  H364  1  0.559400  0.291700  0.128700  1
  H  H365  1  0.559400  0.837000  0.708300  1
  H  H366  1  0.559400  0.871300  0.163000  1
  H  H367  1  0.410900  0.767900  0.888300  1
  H  H368  1  0.410900  0.120400  0.232100  1
  H  H369  1  0.410900  0.111700  0.879600  1
  H  H370  1  0.589100  0.232100  0.111700  1
  H  H371  1  0.589100  0.879600  0.767900  1
  H  H372  1  0.589100  0.888300  0.120400  1
  H  H373  1  0.381600  0.748100  0.899600  1
  H  H374  1  0.381600  0.151500  0.251900  1
  H  H375  1  0.381600  0.100400  0.848500  1
  H  H376  1  0.618400  0.251900  0.100400  1
  H  H377  1  0.618400  0.848500  0.748100  1
  H  H378  1  0.618400  0.899600  0.151500  1
  H  H379  1  0.354300  0.714600  0.848300  1
  H  H380  1  0.354300  0.133700  0.285400  1
  H  H381  1  0.354300  0.151700  0.866300  1
  H  H382  1  0.645700  0.285400  0.151700  1
  H  H383  1  0.645700  0.866300  0.714600  1
  H  H384  1  0.645700  0.848300  0.133700  1
  H  H385  1  0.376400  0.738700  0.840500  1
  H  H386  1  0.376400  0.101800  0.261300  1
  H  H387  1  0.376400  0.159500  0.898200  1
  H  H388  1  0.623600  0.261300  0.159500  1
  H  H389  1  0.623600  0.898200  0.738700  1
  H  H390  1  0.623600  0.840500  0.101800  1
  H  H391  1  0.286500  0.747100  0.878700  1
  H  H392  1  0.286500  0.131600  0.252900  1
  H  H393  1  0.286500  0.121300  0.868400  1
  H  H394  1  0.713500  0.252900  0.121300  1
  H  H395  1  0.713500  0.868400  0.747100  1
  H  H396  1  0.713500  0.878700  0.131600  1
  H  H397  1  0.311100  0.773700  0.875500  1
  H  H398  1  0.311100  0.101800  0.226300  1
  H  H399  1  0.311100  0.124500  0.898200  1
  H  H400  1  0.688900  0.226300  0.124500  1
  H  H401  1  0.688900  0.898200  0.773700  1
  H  H402  1  0.688900  0.875500  0.101800  1
  H  H403  1  0.270800  0.721900  0.824600  1
  H  H404  1  0.270800  0.102700  0.278100  1
  H  H405  1  0.270800  0.175400  0.897300  1
  H  H406  1  0.729200  0.278100  0.175400  1
  H  H407  1  0.729200  0.897300  0.721900  1
  H  H408  1  0.729200  0.824600  0.102700  1
  H  H409  1  0.282200  0.753400  0.827400  1
  H  H410  1  0.282200  0.074000  0.246600  1
  H  H411  1  0.282200  0.172600  0.926000  1
  H  H412  1  0.717800  0.246600  0.172600  1
  H  H413  1  0.717800  0.926000  0.753400  1
  H  H414  1  0.717800  0.827400  0.074000  1
  H  H415  1  0.231800  0.791900  0.860400  1
  H  H416  1  0.231800  0.068500  0.208100  1
  H  H417  1  0.231800  0.139600  0.931500  1
  H  H418  1  0.768200  0.208100  0.139600  1
  H  H419  1  0.768200  0.931500  0.791900  1
  H  H420  1  0.768200  0.860400  0.068500  1
  H  H421  1  0.185100  0.837900  0.884800  1
  H  H422  1  0.185100  0.046900  0.162100  1
  H  H423  1  0.185100  0.115200  0.953100  1
  H  H424  1  0.814900  0.162100  0.115200  1
  H  H425  1  0.814900  0.953100  0.837900  1
  H  H426  1  0.814900  0.884800  0.046900  1
  H  H427  1  0.108900  0.866900  0.907900  1
  H  H428  1  0.108900  0.041000  0.133100  1
  H  H429  1  0.108900  0.092100  0.959000  1
  H  H430  1  0.891100  0.133100  0.092100  1
  H  H431  1  0.891100  0.959000  0.866900  1
  H  H432  1  0.891100  0.907900  0.041000  1
  H  H433  1  0.026300  0.843500  0.906900  1
  H  H434  1  0.026300  0.063400  0.156500  1
  H  H435  1  0.026300  0.093100  0.936600  1
  H  H436  1  0.973700  0.156500  0.093100  1
  H  H437  1  0.973700  0.936600  0.843500  1
  H  H438  1  0.973700  0.906900  0.063400  1
  H  H439  1  0.959000  0.819500  0.895500  1
  H  H440  1  0.959000  0.076000  0.180500  1
  H  H441  1  0.959000  0.104500  0.924000  1
  H  H442  1  0.041000  0.180500  0.104500  1
  H  H443  1  0.041000  0.924000  0.819500  1
  H  H444  1  0.041000  0.895500  0.076000  1
  H  H445  1  0.960300  0.811700  0.921500  1
  H  H446  1  0.960300  0.109800  0.188300  1
  H  H447  1  0.960300  0.078500  0.890200  1
  H  H448  1  0.039700  0.188300  0.078500  1
  H  H449  1  0.039700  0.890200  0.811700  1
  H  H450  1  0.039700  0.921500  0.109800  1
  H  H451  1  0.929800  0.790300  0.891200  1
  H  H452  1  0.929800  0.100900  0.209700  1
  H  H453  1  0.929800  0.108800  0.899100  1
  H  H454  1  0.070200  0.209700  0.108800  1
  H  H455  1  0.070200  0.899100  0.790300  1
  H  H456  1  0.070200  0.891200  0.100900  1
  H  H457  1  0.678100  0.779700  0.944200  1
  H  H458  1  0.678100  0.164500  0.220300  1
  H  H459  1  0.678100  0.055800  0.835500  1
  H  H460  1  0.321900  0.220300  0.055800  1
  H  H461  1  0.321900  0.835500  0.779700  1
  H  H462  1  0.321900  0.944200  0.164500  1
  H  H463  1  0.683200  0.759300  0.959000  1
  H  H464  1  0.683200  0.199700  0.240700  1
  H  H465  1  0.683200  0.041000  0.800300  1
  H  H466  1  0.316800  0.240700  0.041000  1
  H  H467  1  0.316800  0.800300  0.759300  1
  H  H468  1  0.316800  0.959000  0.199700  1
  H  H469  1  0.689700  0.794400  0.978900  1
  H  H470  1  0.689700  0.184500  0.205600  1
  H  H471  1  0.689700  0.021100  0.815500  1
  H  H472  1  0.310300  0.205600  0.021100  1
  H  H473  1  0.310300  0.815500  0.794400  1
  H  H474  1  0.310300  0.978900  0.184500  1
  H  H475  1  0.639700  0.819500  0.949200  1
  H  H476  1  0.639700  0.129700  0.180500  1
  H  H477  1  0.639700  0.050800  0.870300  1
  H  H478  1  0.360300  0.180500  0.050800  1
  H  H479  1  0.360300  0.870300  0.819500  1
  H  H480  1  0.360300  0.949200  0.129700  1
  H  H481  1  0.580900  0.847200  0.938300  1
  H  H482  1  0.580900  0.091100  0.152800  1
  H  H483  1  0.580900  0.061700  0.908900  1
  H  H484  1  0.419100  0.152800  0.061700  1
  H  H485  1  0.419100  0.908900  0.847200  1
  H  H486  1  0.419100  0.938300  0.091100  1
  H  H487  1  0.488000  0.848100  0.947500  1
  H  H488  1  0.488000  0.099400  0.151900  1
  H  H489  1  0.488000  0.052500  0.900600  1
  H  H490  1  0.512000  0.151900  0.052500  1
  H  H491  1  0.512000  0.900600  0.848100  1
  H  H492  1  0.512000  0.947500  0.099400  1
  H  H493  1  0.412600  0.833400  0.963100  1
  H  H494  1  0.412600  0.129700  0.166600  1
  H  H495  1  0.412600  0.036900  0.870300  1
  H  H496  1  0.587400  0.166600  0.036900  1
  H  H497  1  0.587400  0.870300  0.833400  1
  H  H498  1  0.587400  0.963100  0.129700  1
  H  H499  1  0.332500  0.829700  0.976000  1
  H  H500  1  0.332500  0.146300  0.170300  1
  H  H501  1  0.332500  0.024000  0.853700  1
  H  H502  1  0.667500  0.170300  0.024000  1
  H  H503  1  0.667500  0.853700  0.829700  1
  H  H504  1  0.667500  0.976000  0.146300  1
  H  H505  1  0.328000  0.820500  0.001100  1
  H  H506  1  0.328000  0.180600  0.179500  1
  H  H507  1  0.328000  0.998900  0.819400  1
  H  H508  1  0.672000  0.179500  0.998900  1
  H  H509  1  0.672000  0.819400  0.820500  1
  H  H510  1  0.672000  0.001100  0.180600  1
  H  H511  1  0.322500  0.768500  0.961100  1
  H  H512  1  0.322500  0.192600  0.231500  1
  H  H513  1  0.322500  0.038900  0.807400  1
  H  H514  1  0.677500  0.231500  0.038900  1
  H  H515  1  0.677500  0.807400  0.768500  1
  H  H516  1  0.677500  0.961100  0.192600  1
  H  H517  1  0.318700  0.780100  0.938000  1
  H  H518  1  0.318700  0.157900  0.219900  1
  H  H519  1  0.318700  0.062000  0.842100  1
  H  H520  1  0.681300  0.219900  0.062000  1
  H  H521  1  0.681300  0.842100  0.780100  1
  H  H522  1  0.681300  0.938000  0.157900  1
  H  H523  1  0.235700  0.805800  0.961700  1
  H  H524  1  0.235700  0.155900  0.194200  1
  H  H525  1  0.235700  0.038300  0.844100  1
  H  H526  1  0.764300  0.194200  0.038300  1
  H  H527  1  0.764300  0.844100  0.805800  1
  H  H528  1  0.764300  0.961700  0.155900  1
  H  H529  1  0.238800  0.791800  0.982900  1
  H  H530  1  0.238800  0.191100  0.208200  1
  H  H531  1  0.238800  0.017100  0.808900  1
  H  H532  1  0.761200  0.208200  0.017100  1
  H  H533  1  0.761200  0.808900  0.791800  1
  H  H534  1  0.761200  0.982900  0.191100  1
  H  H535  1  0.225700  0.757900  0.919100  1
  H  H536  1  0.225700  0.161200  0.242100  1
  H  H537  1  0.225700  0.080900  0.838800  1
  H  H538  1  0.774300  0.242100  0.080900  1
  H  H539  1  0.774300  0.838800  0.757900  1
  H  H540  1  0.774300  0.919100  0.161200  1
  H  H541  1  0.235400  0.742400  0.938500  1
  H  H542  1  0.235400  0.196100  0.257600  1
  H  H543  1  0.235400  0.061500  0.803900  1
  H  H544  1  0.764600  0.257600  0.061500  1
  H  H545  1  0.764600  0.803900  0.742400  1
  H  H546  1  0.764600  0.938500  0.196100  1
  H  H547  1  0.143700  0.740000  0.927700  1
  H  H548  1  0.143700  0.187700  0.260000  1
  H  H549  1  0.143700  0.072300  0.812300  1
  H  H550  1  0.856300  0.260000  0.072300  1
  H  H551  1  0.856300  0.812300  0.740000  1
  H  H552  1  0.856300  0.927700  0.187700  1
  H  H553  1  0.151500  0.760700  0.962600  1
  H  H554  1  0.151500  0.201900  0.239300  1
  H  H555  1  0.151500  0.037400  0.798100  1
  H  H556  1  0.848500  0.239300  0.037400  1
  H  H557  1  0.848500  0.798100  0.760700  1
  H  H558  1  0.848500  0.962600  0.201900  1
  H  H559  1  0.141300  0.786500  0.925900  1
  H  H560  1  0.141300  0.139400  0.213500  1
  H  H561  1  0.141300  0.074100  0.860600  1
  H  H562  1  0.858700  0.213500  0.074100  1
  H  H563  1  0.858700  0.860600  0.786500  1
  H  H564  1  0.858700  0.925900  0.139400  1
  H  H565  1  0.132500  0.802700  0.961000  1
  H  H566  1  0.132500  0.158300  0.197300  1
  H  H567  1  0.132500  0.039000  0.841700  1
  H  H568  1  0.867500  0.197300  0.039000  1
  H  H569  1  0.867500  0.841700  0.802700  1
  H  H570  1  0.867500  0.961000  0.158300  1
  H  H571  1  0.051900  0.810800  0.974900  1
  H  H572  1  0.051900  0.164100  0.189200  1
  H  H573  1  0.051900  0.025100  0.835900  1
  H  H574  1  0.948100  0.189200  0.025100  1
  H  H575  1  0.948100  0.835900  0.810800  1
  H  H576  1  0.948100  0.974900  0.164100  1
  H  H577  1  0.973600  0.834000  0.998700  1
  H  H578  1  0.973600  0.164700  0.166000  1
  H  H579  1  0.973600  0.001300  0.835300  1
  H  H580  1  0.026400  0.166000  0.001300  1
  H  H581  1  0.026400  0.835300  0.834000  1
  H  H582  1  0.026400  0.998700  0.164700  1
  H  H583  1  0.882200  0.837300  0.005300  1
  H  H584  1  0.882200  0.168000  0.162700  1
  H  H585  1  0.882200  0.994700  0.832000  1
  H  H586  1  0.117800  0.162700  0.994700  1
  H  H587  1  0.117800  0.832000  0.837300  1
  H  H588  1  0.117800  0.005300  0.168000  1
  H  H589  1  0.824400  0.799700  0.972200  1
  H  H590  1  0.824400  0.172500  0.200300  1
  H  H591  1  0.824400  0.027800  0.827500  1
  H  H592  1  0.175600  0.200300  0.027800  1
  H  H593  1  0.175600  0.827500  0.799700  1
  H  H594  1  0.175600  0.972200  0.172500  1
  H  H595  1  0.785400  0.762900  0.947300  1
  H  H596  1  0.785400  0.184400  0.237100  1
  H  H597  1  0.785400  0.052700  0.815600  1
  H  H598  1  0.214600  0.237100  0.052700  1
  H  H599  1  0.214600  0.815600  0.762900  1
  H  H600  1  0.214600  0.947300  0.184400  1
  H  H601  1  0.779300  0.731300  0.918000  1
  H  H602  1  0.779300  0.186700  0.268700  1
  H  H603  1  0.779300  0.082000  0.813300  1
  H  H604  1  0.220700  0.268700  0.082000  1
  H  H605  1  0.220700  0.813300  0.731300  1
  H  H606  1  0.220700  0.918000  0.186700  1
  H  H607  1  0.787900  0.760400  0.915500  1
  H  H608  1  0.787900  0.155100  0.239600  1
  H  H609  1  0.787900  0.084500  0.844900  1
  H  H610  1  0.212100  0.239600  0.084500  1
  H  H611  1  0.212100  0.844900  0.760400  1
  H  H612  1  0.212100  0.915500  0.155100  1
  H  H613  1  0.477600  0.860700  0.070200  1
  H  H614  1  0.477600  0.209500  0.139300  1
  H  H615  1  0.477600  0.929800  0.790500  1
  H  H616  1  0.522400  0.139300  0.929800  1
  H  H617  1  0.522400  0.790500  0.860700  1
  H  H618  1  0.522400  0.070200  0.209500  1
  H  H619  1  0.485200  0.850600  0.035900  1
  H  H620  1  0.485200  0.185300  0.149400  1
  H  H621  1  0.485200  0.964100  0.814700  1
  H  H622  1  0.514800  0.149400  0.964100  1
  H  H623  1  0.514800  0.814700  0.850600  1
  H  H624  1  0.514800  0.035900  0.185300  1
  H  H625  1  0.516100  0.833500  0.049800  1
  H  H626  1  0.516100  0.216300  0.166500  1
  H  H627  1  0.516100  0.950200  0.783700  1
  H  H628  1  0.483900  0.166500  0.950200  1
  H  H629  1  0.483900  0.783700  0.833500  1
  H  H630  1  0.483900  0.049800  0.216300  1
  H  H631  1  0.407600  0.880100  0.081900  1
  H  H632  1  0.407600  0.201800  0.119900  1
  H  H633  1  0.407600  0.918100  0.798200  1
  H  H634  1  0.592400  0.119900  0.918100  1
  H  H635  1  0.592400  0.798200  0.880100  1
  H  H636  1  0.592400  0.081900  0.201800  1
  H  H637  1  0.321000  0.896300  0.102700  1
  H  H638  1  0.321000  0.206400  0.103700  1
  H  H639  1  0.321000  0.897300  0.793600  1
  H  H640  1  0.679000  0.103700  0.897300  1
  H  H641  1  0.679000  0.793600  0.896300  1
  H  H642  1  0.679000  0.102700  0.206400  1
  H  H643  1  0.253700  0.862400  0.093500  1
  H  H644  1  0.253700  0.231100  0.137600  1
  H  H645  1  0.253700  0.906500  0.768900  1
  H  H646  1  0.746300  0.137600  0.906500  1
  H  H647  1  0.746300  0.768900  0.862400  1
  H  H648  1  0.746300  0.093500  0.231100  1
  H  H649  1  0.216900  0.812500  0.067800  1
  H  H650  1  0.216900  0.255300  0.187500  1
  H  H651  1  0.216900  0.932200  0.744700  1
  H  H652  1  0.783100  0.187500  0.932200  1
  H  H653  1  0.783100  0.744700  0.812500  1
  H  H654  1  0.783100  0.067800  0.255300  1
  H  H655  1  0.180500  0.772300  0.064400  1
  H  H656  1  0.180500  0.292100  0.227700  1
  H  H657  1  0.180500  0.935600  0.707900  1
  H  H658  1  0.819500  0.227700  0.935600  1
  H  H659  1  0.819500  0.707900  0.772300  1
  H  H660  1  0.819500  0.064400  0.292100  1
  H  H661  1  0.203800  0.740700  0.040600  1
  H  H662  1  0.203800  0.299900  0.259300  1
  H  H663  1  0.203800  0.959400  0.700100  1
  H  H664  1  0.796200  0.259300  0.959400  1
  H  H665  1  0.796200  0.700100  0.740700  1
  H  H666  1  0.796200  0.040600  0.299900  1
  H  H667  1  0.177200  0.752800  0.002500  1
  H  H668  1  0.177200  0.249700  0.247200  1
  H  H669  1  0.177200  0.997500  0.750300  1
  H  H670  1  0.822800  0.247200  0.997500  1
  H  H671  1  0.822800  0.750300  0.752800  1
  H  H672  1  0.822800  0.002500  0.249700  1
  H  H673  1  0.144900  0.780200  0.028000  1
  H  H674  1  0.144900  0.247800  0.219800  1
  H  H675  1  0.144900  0.972000  0.752200  1
  H  H676  1  0.855100  0.219800  0.972000  1
  H  H677  1  0.855100  0.752200  0.780200  1
  H  H678  1  0.855100  0.028000  0.247800  1
  H  H679  1  0.091400  0.746100  0.035600  1
  H  H680  1  0.091400  0.289500  0.253900  1
  H  H681  1  0.091400  0.964400  0.710500  1
  H  H682  1  0.908600  0.253900  0.964400  1
  H  H683  1  0.908600  0.710500  0.746100  1
  H  H684  1  0.908600  0.035600  0.289500  1
  H  H685  1  0.122400  0.719200  0.008800  1
  H  H686  1  0.122400  0.289600  0.280800  1
  H  H687  1  0.122400  0.991200  0.710400  1
  H  H688  1  0.877600  0.280800  0.991200  1
  H  H689  1  0.877600  0.710400  0.719200  1
  H  H690  1  0.877600  0.008800  0.289600  1
  H  H691  1  0.045300  0.758100  0.004000  1
  H  H692  1  0.045300  0.245900  0.241900  1
  H  H693  1  0.045300  0.996000  0.754100  1
  H  H694  1  0.954700  0.241900  0.996000  1
  H  H695  1  0.954700  0.754100  0.758100  1
  H  H696  1  0.954700  0.004000  0.245900  1
  H  H697  1  0.085700  0.739300  0.977100  1
  H  H698  1  0.085700  0.237800  0.260700  1
  H  H699  1  0.085700  0.022900  0.762200  1
  H  H700  1  0.914300  0.260700  0.022900  1
  H  H701  1  0.914300  0.762200  0.739300  1
  H  H702  1  0.914300  0.977100  0.237800  1
  H  H703  1  0.047900  0.693700  0.970500  1
  H  H704  1  0.047900  0.276800  0.306300  1
  H  H705  1  0.047900  0.029500  0.723200  1
  H  H706  1  0.952100  0.306300  0.029500  1
  H  H707  1  0.952100  0.723200  0.693700  1
  H  H708  1  0.952100  0.970500  0.276800  1
  H  H709  1  0.008700  0.712000  0.998200  1
  H  H710  1  0.008700  0.286200  0.288000  1
  H  H711  1  0.008700  0.001800  0.713800  1
  H  H712  1  0.991300  0.288000  0.001800  1
  H  H713  1  0.991300  0.713800  0.712000  1
  H  H714  1  0.991300  0.998200  0.286200  1
  H  H715  1  0.959400  0.730800  0.972900  1
  H  H716  1  0.959400  0.242100  0.269200  1
  H  H717  1  0.959400  0.027100  0.757900  1
  H  H718  1  0.040600  0.269200  0.027100  1
  H  H719  1  0.040600  0.757900  0.730800  1
  H  H720  1  0.040600  0.972900  0.242100  1
  H  H721  1  0.003800  0.720100  0.947400  1
  H  H722  1  0.003800  0.227300  0.279900  1
  H  H723  1  0.003800  0.052600  0.772700  1
  H  H724  1  0.996200  0.279900  0.052600  1
  H  H725  1  0.996200  0.772700  0.720100  1
  H  H726  1  0.996200  0.947400  0.227300  1
  H  H727  1  0.894300  0.700700  0.967900  1
  H  H728  1  0.894300  0.267200  0.299300  1
  H  H729  1  0.894300  0.032100  0.732800  1
  H  H730  1  0.105700  0.299300  0.032100  1
  H  H731  1  0.105700  0.732800  0.700700  1
  H  H732  1  0.105700  0.967900  0.267200  1
  H  H733  1  0.809500  0.681000  0.967200  1
  H  H734  1  0.809500  0.286200  0.319000  1
  H  H735  1  0.809500  0.032800  0.713800  1
  H  H736  1  0.190500  0.319000  0.032800  1
  H  H737  1  0.190500  0.713800  0.681000  1
  H  H738  1  0.190500  0.967200  0.286200  1
  H  H739  1  0.748800  0.642100  0.951000  1
  H  H740  1  0.748800  0.308900  0.357900  1
  H  H741  1  0.748800  0.049000  0.691100  1
  H  H742  1  0.251200  0.357900  0.049000  1
  H  H743  1  0.251200  0.691100  0.642100  1
  H  H744  1  0.251200  0.951000  0.308900  1
  H  H745  1  0.775000  0.592100  0.915600  1
  H  H746  1  0.775000  0.323500  0.407900  1
  H  H747  1  0.775000  0.084400  0.676500  1
  H  H748  1  0.225000  0.407900  0.084400  1
  H  H749  1  0.225000  0.676500  0.592100  1
  H  H750  1  0.225000  0.915600  0.323500  1
  H  H751  1  0.802400  0.559300  0.864700  1
  H  H752  1  0.802400  0.305400  0.440700  1
  H  H753  1  0.802400  0.135300  0.694600  1
  H  H754  1  0.197600  0.440700  0.135300  1
  H  H755  1  0.197600  0.694600  0.559300  1
  H  H756  1  0.197600  0.864700  0.305400  1
  H  H757  1  0.815300  0.547200  0.886800  1
  H  H758  1  0.815300  0.339600  0.452800  1
  H  H759  1  0.815300  0.113200  0.660400  1
  H  H760  1  0.184700  0.452800  0.113200  1
  H  H761  1  0.184700  0.660400  0.547200  1
  H  H762  1  0.184700  0.886800  0.339600  1
  H  H763  1  0.848600  0.535100  0.856700  1
  H  H764  1  0.848600  0.321600  0.464900  1
  H  H765  1  0.848600  0.143300  0.678400  1
  H  H766  1  0.151400  0.464900  0.143300  1
  H  H767  1  0.151400  0.678400  0.535100  1
  H  H768  1  0.151400  0.856700  0.321600  1
  H  H769  1  0.394600  0.803000  0.116600  1
  H  H770  1  0.394600  0.313600  0.197000  1
  H  H771  1  0.394600  0.883400  0.686400  1
  H  H772  1  0.605400  0.197000  0.883400  1
  H  H773  1  0.605400  0.686400  0.803000  1
  H  H774  1  0.605400  0.116600  0.313600  1
  H  H775  1  0.384300  0.816700  0.095600  1
  H  H776  1  0.384300  0.278900  0.183300  1
  H  H777  1  0.384300  0.904400  0.721100  1
  H  H778  1  0.615700  0.183300  0.904400  1
  H  H779  1  0.615700  0.721100  0.816700  1
  H  H780  1  0.615700  0.095600  0.278900  1
  H  H781  1  0.426600  0.790400  0.086000  1
  H  H782  1  0.426600  0.295600  0.209600  1
  H  H783  1  0.426600  0.914000  0.704400  1
  H  H784  1  0.573400  0.209600  0.914000  1
  H  H785  1  0.573400  0.704400  0.790400  1
  H  H786  1  0.573400  0.086000  0.295600  1
  H  H787  1  0.324000  0.812400  0.138600  1
  H  H788  1  0.324000  0.326200  0.187600  1
  H  H789  1  0.324000  0.861400  0.673800  1
  H  H790  1  0.676000  0.187600  0.861400  1
  H  H791  1  0.676000  0.673800  0.812400  1
  H  H792  1  0.676000  0.138600  0.326200  1
  H  H793  1  0.252700  0.804000  0.165200  1
  H  H794  1  0.252700  0.361200  0.196000  1
  H  H795  1  0.252700  0.834800  0.638800  1
  H  H796  1  0.747300  0.196000  0.834800  1
  H  H797  1  0.747300  0.638800  0.804000  1
  H  H798  1  0.747300  0.165200  0.361200  1
  H  H799  1  0.205400  0.760100  0.141900  1
  H  H800  1  0.205400  0.381800  0.239900  1
  H  H801  1  0.205400  0.858100  0.618200  1
  H  H802  1  0.794600  0.239900  0.858100  1
  H  H803  1  0.794600  0.618200  0.760100  1
  H  H804  1  0.794600  0.141900  0.381800  1
  H  H805  1  0.174600  0.716800  0.099900  1
  H  H806  1  0.174600  0.383100  0.283200  1
  H  H807  1  0.174600  0.900100  0.616900  1
  H  H808  1  0.825400  0.283200  0.900100  1
  H  H809  1  0.825400  0.616900  0.716800  1
  H  H810  1  0.825400  0.099900  0.383100  1
  H  H811  1  0.139500  0.675200  0.072800  1
  H  H812  1  0.139500  0.397600  0.324800  1
  H  H813  1  0.139500  0.927200  0.602400  1
  H  H814  1  0.860500  0.324800  0.927200  1
  H  H815  1  0.860500  0.602400  0.675200  1
  H  H816  1  0.860500  0.072800  0.397600  1
  H  H817  1  0.174700  0.650200  0.046500  1
  H  H818  1  0.174700  0.396300  0.349800  1
  H  H819  1  0.174700  0.953500  0.603700  1
  H  H820  1  0.825300  0.349800  0.953500  1
  H  H821  1  0.825300  0.603700  0.650200  1
  H  H822  1  0.825300  0.046500  0.396300  1
  H  H823  1  0.143200  0.672100  0.016700  1
  H  H824  1  0.143200  0.344600  0.327900  1
  H  H825  1  0.143200  0.983300  0.655400  1
  H  H826  1  0.856800  0.327900  0.983300  1
  H  H827  1  0.856800  0.655400  0.672100  1
  H  H828  1  0.856800  0.016700  0.344600  1
  H  H829  1  0.099000  0.688800  0.042100  1
  H  H830  1  0.099000  0.353300  0.311200  1
  H  H831  1  0.099000  0.957900  0.646700  1
  H  H832  1  0.901000  0.311200  0.957900  1
  H  H833  1  0.901000  0.646700  0.688800  1
  H  H834  1  0.901000  0.042100  0.353300  1
  H  H835  1  0.070500  0.639400  0.033700  1
  H  H836  1  0.070500  0.394300  0.360600  1
  H  H837  1  0.070500  0.966300  0.605700  1
  H  H838  1  0.929500  0.360600  0.966300  1
  H  H839  1  0.929500  0.605700  0.639400  1
  H  H840  1  0.929500  0.033700  0.394300  1
  H  H841  1  0.109100  0.624800  0.005300  1
  H  H842  1  0.109100  0.380500  0.375200  1
  H  H843  1  0.109100  0.994700  0.619500  1
  H  H844  1  0.890900  0.375200  0.994700  1
  H  H845  1  0.890900  0.619500  0.624800  1
  H  H846  1  0.890900  0.005300  0.380500  1
  H  H847  1  0.010600  0.657800  0.011200  1
  H  H848  1  0.010600  0.353400  0.342200  1
  H  H849  1  0.010600  0.988800  0.646600  1
  H  H850  1  0.989400  0.342200  0.988800  1
  H  H851  1  0.989400  0.646600  0.657800  1
  H  H852  1  0.989400  0.011200  0.353400  1
  H  H853  1  0.053300  0.652400  0.986000  1
  H  H854  1  0.053300  0.333600  0.347600  1
  H  H855  1  0.053300  0.014000  0.666400  1
  H  H856  1  0.946700  0.347600  0.014000  1
  H  H857  1  0.946700  0.666400  0.652400  1
  H  H858  1  0.946700  0.986000  0.333600  1
  H  H859  1  0.002700  0.604500  0.990100  1
  H  H860  1  0.002700  0.385600  0.395500  1
  H  H861  1  0.002700  0.009900  0.614400  1
  H  H862  1  0.997300  0.395500  0.009900  1
  H  H863  1  0.997300  0.614400  0.604500  1
  H  H864  1  0.997300  0.990100  0.385600  1
  H  H865  1  0.043300  0.599800  0.964200  1
  H  H866  1  0.043300  0.364400  0.400200  1
  H  H867  1  0.043300  0.035800  0.635600  1
  H  H868  1  0.956700  0.400200  0.035800  1
  H  H869  1  0.956700  0.635600  0.599800  1
  H  H870  1  0.956700  0.964200  0.364400  1
  H  H871  1  0.934400  0.623300  0.972500  1
  H  H872  1  0.934400  0.349200  0.376700  1
  H  H873  1  0.934400  0.027500  0.650800  1
  H  H874  1  0.065600  0.376700  0.027500  1
  H  H875  1  0.065600  0.650800  0.623300  1
  H  H876  1  0.065600  0.972500  0.349200  1
  H  H877  1  0.975700  0.628800  0.952100  1
  H  H878  1  0.975700  0.323300  0.371200  1
  H  H879  1  0.975700  0.047900  0.676700  1
  H  H880  1  0.024300  0.371200  0.047900  1
  H  H881  1  0.024300  0.676700  0.628800  1
  H  H882  1  0.024300  0.952100  0.323300  1
  H  H883  1  0.925300  0.575800  0.962100  1
  H  H884  1  0.925300  0.386300  0.424200  1
  H  H885  1  0.925300  0.037900  0.613700  1
  H  H886  1  0.074700  0.424200  0.037900  1
  H  H887  1  0.074700  0.613700  0.575800  1
  H  H888  1  0.074700  0.962100  0.386300  1
  H  H889  1  0.876400  0.532500  0.957200  1
  H  H890  1  0.876400  0.424700  0.467500  1
  H  H891  1  0.876400  0.042800  0.575300  1
  H  H892  1  0.123600  0.467500  0.042800  1
  H  H893  1  0.123600  0.575300  0.532500  1
  H  H894  1  0.123600  0.957200  0.424700  1
  H  H895  1  0.846000  0.484000  0.927300  1
  H  H896  1  0.846000  0.443300  0.516000  1
  H  H897  1  0.846000  0.072700  0.556700  1
  H  H898  1  0.154000  0.516000  0.072700  1
  H  H899  1  0.154000  0.556700  0.484000  1
  H  H900  1  0.154000  0.927300  0.443300  1
  H  H901  1  0.855900  0.459900  0.875600  1
  H  H902  1  0.855900  0.415700  0.540100  1
  H  H903  1  0.855900  0.124400  0.584300  1
  H  H904  1  0.144100  0.540100  0.124400  1
  H  H905  1  0.144100  0.584300  0.459900  1
  H  H906  1  0.144100  0.875600  0.415700  1
  H  H907  1  0.852200  0.445200  0.831100  1
  H  H908  1  0.852200  0.385900  0.554800  1
  H  H909  1  0.852200  0.168900  0.614100  1
  H  H910  1  0.147800  0.554800  0.168900  1
  H  H911  1  0.147800  0.614100  0.445200  1
  H  H912  1  0.147800  0.831100  0.385900  1
  H  H913  1  0.911700  0.432100  0.821900  1
  H  H914  1  0.911700  0.389800  0.567900  1
  H  H915  1  0.911700  0.178100  0.610200  1
  H  H916  1  0.088300  0.567900  0.178100  1
  H  H917  1  0.088300  0.610200  0.432100  1
  H  H918  1  0.088300  0.821900  0.389800  1
  H  H919  1  0.881900  0.445500  0.804000  1
  H  H920  1  0.881900  0.358500  0.554500  1
  H  H921  1  0.881900  0.196000  0.641500  1
  H  H922  1  0.118100  0.554500  0.196000  1
  H  H923  1  0.118100  0.641500  0.445500  1
  H  H924  1  0.118100  0.804000  0.358500  1
  H  H925  1  0.220800  0.715300  0.154300  1
  H  H926  1  0.220800  0.439000  0.284700  1
  H  H927  1  0.220800  0.845700  0.561000  1
  H  H928  1  0.779200  0.284700  0.845700  1
  H  H929  1  0.779200  0.561000  0.715300  1
  H  H930  1  0.779200  0.154300  0.439000  1
  H  H931  1  0.284400  0.709900  0.151900  1
  H  H932  1  0.284400  0.442000  0.290100  1
  H  H933  1  0.284400  0.848100  0.558000  1
  H  H934  1  0.715600  0.290100  0.848100  1
  H  H935  1  0.715600  0.558000  0.709900  1
  H  H936  1  0.715600  0.151900  0.442000  1
  H  H937  1  0.247600  0.696700  0.167700  1
  H  H938  1  0.247600  0.471000  0.303300  1
  H  H939  1  0.247600  0.832300  0.529000  1
  H  H940  1  0.752400  0.303300  0.832300  1
  H  H941  1  0.752400  0.529000  0.696700  1
  H  H942  1  0.752400  0.167700  0.471000  1
  H  H943  1  0.148100  0.690200  0.151000  1
  H  H944  1  0.148100  0.460800  0.309800  1
  H  H945  1  0.148100  0.849000  0.539200  1
  H  H946  1  0.851900  0.309800  0.849000  1
  H  H947  1  0.851900  0.539200  0.690200  1
  H  H948  1  0.851900  0.151000  0.460800  1
  H  H949  1  0.063800  0.666300  0.134200  1
  H  H950  1  0.063800  0.467900  0.333700  1
  H  H951  1  0.063800  0.865800  0.532100  1
  H  H952  1  0.936200  0.333700  0.865800  1
  H  H953  1  0.936200  0.532100  0.666300  1
  H  H954  1  0.936200  0.134200  0.467900  1
  H  H955  1  0.061000  0.622000  0.090400  1
  H  H956  1  0.061000  0.468400  0.378000  1
  H  H957  1  0.061000  0.909600  0.531600  1
  H  H958  1  0.939000  0.378000  0.909600  1
  H  H959  1  0.939000  0.531600  0.622000  1
  H  H960  1  0.939000  0.090400  0.468400  1
  H  H961  1  0.093100  0.584200  0.047600  1
  H  H962  1  0.093100  0.463400  0.415800  1
  H  H963  1  0.093100  0.952400  0.536600  1
  H  H964  1  0.906900  0.415800  0.952400  1
  H  H965  1  0.906900  0.536600  0.584200  1
  H  H966  1  0.906900  0.047600  0.463400  1
  H  H967  1  0.164600  0.530900  0.994400  1
  H  H968  1  0.164600  0.463500  0.469100  1
  H  H969  1  0.164600  0.005600  0.536500  1
  H  H970  1  0.835400  0.469100  0.005600  1
  H  H971  1  0.835400  0.536500  0.530900  1
  H  H972  1  0.835400  0.994400  0.463500  1
  H  H973  1  0.104700  0.541900  0.006000  1
  H  H974  1  0.104700  0.464100  0.458100  1
  H  H975  1  0.104700  0.994000  0.535900  1
  H  H976  1  0.895300  0.458100  0.994000  1
  H  H977  1  0.895300  0.535900  0.541900  1
  H  H978  1  0.895300  0.006000  0.464100  1
  H  H979  1  0.165400  0.562700  0.974700  1
  H  H980  1  0.165400  0.412000  0.437300  1
  H  H981  1  0.165400  0.025300  0.588000  1
  H  H982  1  0.834600  0.437300  0.025300  1
  H  H983  1  0.834600  0.588000  0.562700  1
  H  H984  1  0.834600  0.974700  0.412000  1
  H  H985  1  0.103300  0.569800  0.983700  1
  H  H986  1  0.103300  0.413900  0.430200  1
  H  H987  1  0.103300  0.016300  0.586100  1
  H  H988  1  0.896700  0.430200  0.016300  1
  H  H989  1  0.896700  0.586100  0.569800  1
  H  H990  1  0.896700  0.983700  0.413900  1
  H  H991  1  0.144400  0.511100  0.941100  1
  H  H992  1  0.144400  0.430000  0.488900  1
  H  H993  1  0.144400  0.058900  0.570000  1
  H  H994  1  0.855600  0.488900  0.058900  1
  H  H995  1  0.855600  0.570000  0.511100  1
  H  H996  1  0.855600  0.941100  0.430000  1
  H  H997  1  0.082600  0.516800  0.951400  1
  H  H998  1  0.082600  0.434600  0.483200  1
  H  H999  1  0.082600  0.048600  0.565400  1
  H  H1000  1  0.917400  0.483200  0.048600  1
  H  H1001  1  0.917400  0.565400  0.516800  1
  H  H1002  1  0.917400  0.951400  0.434600  1
  H  H1003  1  0.134000  0.545800  0.923700  1
  H  H1004  1  0.134000  0.377900  0.454200  1
  H  H1005  1  0.134000  0.076300  0.622100  1
  H  H1006  1  0.866000  0.454200  0.076300  1
  H  H1007  1  0.866000  0.622100  0.545800  1
  H  H1008  1  0.866000  0.923700  0.377900  1
  H  H1009  1  0.071000  0.547500  0.931100  1
  H  H1010  1  0.071000  0.383600  0.452500  1
  H  H1011  1  0.071000  0.068900  0.616400  1
  H  H1012  1  0.929000  0.452500  0.068900  1
  H  H1013  1  0.929000  0.616400  0.547500  1
  H  H1014  1  0.929000  0.931100  0.383600  1
  H  H1015  1  0.175100  0.371300  0.688200  1
  H  H1016  1  0.175100  0.316900  0.628700  1
  H  H1017  1  0.175100  0.311800  0.683100  1
  H  H1018  1  0.824900  0.628700  0.311800  1
  H  H1019  1  0.824900  0.683100  0.371300  1
  H  H1020  1  0.824900  0.688200  0.316900  1
  H  H1021  1  0.205300  0.360000  0.639300  1
  H  H1022  1  0.205300  0.279300  0.640000  1
  H  H1023  1  0.205300  0.360700  0.720700  1
  H  H1024  1  0.794700  0.640000  0.360700  1
  H  H1025  1  0.794700  0.720700  0.360000  1
  H  H1026  1  0.794700  0.639300  0.279300  1
  H  H1027  1  0.220100  0.400500  0.628700  1
  H  H1028  1  0.220100  0.228200  0.599500  1
  H  H1029  1  0.220100  0.371300  0.771800  1
  H  H1030  1  0.779900  0.599500  0.371300  1
  H  H1031  1  0.779900  0.771800  0.400500  1
  H  H1032  1  0.779900  0.628700  0.228200  1
  H  H1033  1  0.117800  0.500600  0.878300  1
  H  H1034  1  0.117800  0.377700  0.499400  1
  H  H1035  1  0.117800  0.121700  0.622300  1
  H  H1036  1  0.882200  0.499400  0.121700  1
  H  H1037  1  0.882200  0.622300  0.500600  1
  H  H1038  1  0.882200  0.878300  0.377700  1
  H  H1039  1  0.056300  0.470000  0.894100  1
  H  H1040  1  0.056300  0.424100  0.530000  1
  H  H1041  1  0.056300  0.105900  0.575900  1
  H  H1042  1  0.943700  0.530000  0.105900  1
  H  H1043  1  0.943700  0.575900  0.470000  1
  H  H1044  1  0.943700  0.894100  0.424100  1
  H  H1045  1  0.014900  0.495400  0.898500  1
  H  H1046  1  0.014900  0.403100  0.504600  1
  H  H1047  1  0.014900  0.101500  0.596900  1
  H  H1048  1  0.985100  0.504600  0.101500  1
  H  H1049  1  0.985100  0.596900  0.495400  1
  H  H1050  1  0.985100  0.898500  0.403100  1
  H  H1051  1  0.049000  0.428300  0.850600  1
  H  H1052  1  0.049000  0.422300  0.571700  1
  H  H1053  1  0.049000  0.149400  0.577700  1
  H  H1054  1  0.951000  0.571700  0.149400  1
  H  H1055  1  0.951000  0.577700  0.428300  1
  H  H1056  1  0.951000  0.850600  0.422300  1
  H  H1057  1  0.046100  0.383500  0.817000  1
  H  H1058  1  0.046100  0.433500  0.616500  1
  H  H1059  1  0.046100  0.183000  0.566500  1
  H  H1060  1  0.953900  0.616500  0.183000  1
  H  H1061  1  0.953900  0.566500  0.383500  1
  H  H1062  1  0.953900  0.817000  0.433500  1
  H  H1063  1  0.034300  0.345800  0.765800  1
  H  H1064  1  0.034300  0.420000  0.654200  1
  H  H1065  1  0.034300  0.234200  0.580000  1
  H  H1066  1  0.965700  0.654200  0.234200  1
  H  H1067  1  0.965700  0.580000  0.345800  1
  H  H1068  1  0.965700  0.765800  0.420000  1
  H  H1069  1  0.039400  0.363500  0.728600  1
  H  H1070  1  0.039400  0.365100  0.636500  1
  H  H1071  1  0.039400  0.271400  0.634900  1
  H  H1072  1  0.960600  0.636500  0.271400  1
  H  H1073  1  0.960600  0.634900  0.363500  1
  H  H1074  1  0.960600  0.728600  0.365100  1
  H  H1075  1  0.025900  0.378500  0.697700  1
  H  H1076  1  0.025900  0.319200  0.621500  1
  H  H1077  1  0.025900  0.302300  0.680800  1
  H  H1078  1  0.974100  0.621500  0.302300  1
  H  H1079  1  0.974100  0.680800  0.378500  1
  H  H1080  1  0.974100  0.697700  0.319200  1
  H  H1081  1  0.979100  0.397900  0.694800  1
  H  H1082  1  0.979100  0.296900  0.602100  1
  H  H1083  1  0.979100  0.305200  0.703100  1
  H  H1084  1  0.020900  0.602100  0.305200  1
  H  H1085  1  0.020900  0.703100  0.397900  1
  H  H1086  1  0.020900  0.694800  0.296900  1
  H  H1087  1  0.965000  0.374100  0.704600  1
  H  H1088  1  0.965000  0.330500  0.625900  1
  H  H1089  1  0.965000  0.295400  0.669500  1
  H  H1090  1  0.035000  0.625900  0.295400  1
  H  H1091  1  0.035000  0.669500  0.374100  1
  H  H1092  1  0.035000  0.704600  0.330500  1
  H  H1093  1  0.263900  0.552300  0.090800  1
  H  H1094  1  0.263900  0.538500  0.447700  1
  H  H1095  1  0.263900  0.909200  0.461500  1
  H  H1096  1  0.736100  0.447700  0.909200  1
  H  H1097  1  0.736100  0.461500  0.552300  1
  H  H1098  1  0.736100  0.090800  0.538500  1
  H  H1099  1  0.207100  0.559400  0.081300  1
  H  H1100  1  0.207100  0.521900  0.440600  1
  H  H1101  1  0.207100  0.918700  0.478100  1
  H  H1102  1  0.792900  0.440600  0.918700  1
  H  H1103  1  0.792900  0.478100  0.559400  1
  H  H1104  1  0.792900  0.081300  0.521900  1
  H  H1105  1  0.253000  0.584300  0.094700  1
  H  H1106  1  0.253000  0.510400  0.415700  1
  H  H1107  1  0.253000  0.905300  0.489600  1
  H  H1108  1  0.747000  0.415700  0.905300  1
  H  H1109  1  0.747000  0.489600  0.584300  1
  H  H1110  1  0.747000  0.094700  0.510400  1
  H  H1111  1  0.253000  0.506300  0.061800  1
  H  H1112  1  0.253000  0.555500  0.493700  1
  H  H1113  1  0.253000  0.938200  0.444500  1
  H  H1114  1  0.747000  0.493700  0.938200  1
  H  H1115  1  0.747000  0.444500  0.506300  1
  H  H1116  1  0.747000  0.061800  0.555500  1
  H  H1117  1  0.250900  0.455500  0.024900  1
  H  H1118  1  0.250900  0.569400  0.544500  1
  H  H1119  1  0.250900  0.975100  0.430600  1
  H  H1120  1  0.749100  0.544500  0.975100  1
  H  H1121  1  0.749100  0.430600  0.455500  1
  H  H1122  1  0.749100  0.024900  0.569400  1
  H  H1123  1  0.258900  0.441800  0.976500  1
  H  H1124  1  0.258900  0.534700  0.558200  1
  H  H1125  1  0.258900  0.023500  0.465300  1
  H  H1126  1  0.741100  0.558200  0.023500  1
  H  H1127  1  0.741100  0.465300  0.441800  1
  H  H1128  1  0.741100  0.976500  0.534700  1
  H  H1129  1  0.265800  0.450300  0.935900  1
  H  H1130  1  0.265800  0.485600  0.549700  1
  H  H1131  1  0.265800  0.064100  0.514400  1
  H  H1132  1  0.734200  0.549700  0.064100  1
  H  H1133  1  0.734200  0.514400  0.450300  1
  H  H1134  1  0.734200  0.935900  0.485600  1
  H  H1135  1  0.309800  0.446100  0.897700  1
  H  H1136  1  0.309800  0.451600  0.553900  1
  H  H1137  1  0.309800  0.102300  0.548400  1
  H  H1138  1  0.690200  0.553900  0.102300  1
  H  H1139  1  0.690200  0.548400  0.446100  1
  H  H1140  1  0.690200  0.897700  0.451600  1
  H  H1141  1  0.324600  0.474700  0.895400  1
  H  H1142  1  0.324600  0.420700  0.525300  1
  H  H1143  1  0.324600  0.104600  0.579300  1
  H  H1144  1  0.675400  0.525300  0.104600  1
  H  H1145  1  0.675400  0.579300  0.474700  1
  H  H1146  1  0.675400  0.895400  0.420700  1
  H  H1147  1  0.226400  0.483000  0.896500  1
  H  H1148  1  0.226400  0.413500  0.517000  1
  H  H1149  1  0.226400  0.103500  0.586500  1
  H  H1150  1  0.773600  0.517000  0.103500  1
  H  H1151  1  0.773600  0.586500  0.483000  1
  H  H1152  1  0.773600  0.896500  0.413500  1
  H  H1153  1  0.220400  0.449600  0.889600  1
  H  H1154  1  0.220400  0.440000  0.550400  1
  H  H1155  1  0.220400  0.110400  0.560000  1
  H  H1156  1  0.779600  0.550400  0.110400  1
  H  H1157  1  0.779600  0.560000  0.449600  1
  H  H1158  1  0.779600  0.889600  0.440000  1
  H  H1159  1  0.274900  0.466200  0.850500  1
  H  H1160  1  0.274900  0.384300  0.533800  1
  H  H1161  1  0.274900  0.149500  0.615700  1
  H  H1162  1  0.725100  0.533800  0.149500  1
  H  H1163  1  0.725100  0.615700  0.466200  1
  H  H1164  1  0.725100  0.850500  0.384300  1
  H  H1165  1  0.271800  0.432800  0.843700  1
  H  H1166  1  0.271800  0.410900  0.567200  1
  H  H1167  1  0.271800  0.156300  0.589100  1
  H  H1168  1  0.728200  0.567200  0.156300  1
  H  H1169  1  0.728200  0.589100  0.432800  1
  H  H1170  1  0.728200  0.843700  0.410900  1
  H  H1171  1  0.180200  0.429600  0.833600  1
  H  H1172  1  0.180200  0.404000  0.570400  1
  H  H1173  1  0.180200  0.166400  0.596000  1
  H  H1174  1  0.819800  0.570400  0.166400  1
  H  H1175  1  0.819800  0.596000  0.429600  1
  H  H1176  1  0.819800  0.833600  0.404000  1
  H  H1177  1  0.174400  0.464700  0.848400  1
  H  H1178  1  0.174400  0.383700  0.535300  1
  H  H1179  1  0.174400  0.151600  0.616300  1
  H  H1180  1  0.825600  0.535300  0.151600  1
  H  H1181  1  0.825600  0.616300  0.464700  1
  H  H1182  1  0.825600  0.848400  0.383700  1
  H  H1183  1  0.221600  0.462700  0.807700  1
  H  H1184  1  0.221600  0.345000  0.537300  1
  H  H1185  1  0.221600  0.192300  0.655000  1
  H  H1186  1  0.778400  0.537300  0.192300  1
  H  H1187  1  0.778400  0.655000  0.462700  1
  H  H1188  1  0.778400  0.807700  0.345000  1
  H  H1189  1  0.226600  0.427600  0.792900  1
  H  H1190  1  0.226600  0.365300  0.572400  1
  H  H1191  1  0.226600  0.207100  0.634700  1
  H  H1192  1  0.773400  0.572400  0.207100  1
  H  H1193  1  0.773400  0.634700  0.427600  1
  H  H1194  1  0.773400  0.792900  0.365300  1
  H  H1195  1  0.135900  0.421100  0.783600  1
  H  H1196  1  0.135900  0.362500  0.578900  1
  H  H1197  1  0.135900  0.216400  0.637500  1
  H  H1198  1  0.864100  0.578900  0.216400  1
  H  H1199  1  0.864100  0.637500  0.421100  1
  H  H1200  1  0.864100  0.783600  0.362500  1
  H  H1201  1  0.123900  0.455500  0.804600  1
  H  H1202  1  0.123900  0.349100  0.544500  1
  H  H1203  1  0.123900  0.195400  0.650900  1
  H  H1204  1  0.876100  0.544500  0.195400  1
  H  H1205  1  0.876100  0.650900  0.455500  1
  H  H1206  1  0.876100  0.804600  0.349100  1
  H  H1207  1  0.146000  0.404100  0.737600  1
  H  H1208  1  0.146000  0.333500  0.595900  1
  H  H1209  1  0.146000  0.262400  0.666500  1
  H  H1210  1  0.854000  0.595900  0.262400  1
  H  H1211  1  0.854000  0.666500  0.404100  1
  H  H1212  1  0.854000  0.737600  0.333500  1
  H  H1213  1  0.183600  0.441300  0.628900  1
  H  H1214  1  0.183600  0.187600  0.558700  1
  H  H1215  1  0.183600  0.371100  0.812400  1
  H  H1216  1  0.816400  0.558700  0.371100  1
  H  H1217  1  0.816400  0.812400  0.441300  1
  H  H1218  1  0.816400  0.628900  0.187600  1
  H  H1219  1  0.234300  0.463000  0.637500  1
  H  H1220  1  0.234300  0.174500  0.537000  1
  H  H1221  1  0.234300  0.362500  0.825500  1
  H  H1222  1  0.765700  0.537000  0.362500  1
  H  H1223  1  0.765700  0.825500  0.463000  1
  H  H1224  1  0.765700  0.637500  0.174500  1
  H  H1225  1  0.174800  0.476400  0.645500  1
  H  H1226  1  0.174800  0.169100  0.523600  1
  H  H1227  1  0.174800  0.354500  0.830900  1
  H  H1228  1  0.825200  0.523600  0.354500  1
  H  H1229  1  0.825200  0.830900  0.476400  1
  H  H1230  1  0.825200  0.645500  0.169100  1
  H  H1231  1  0.432000  0.508800  0.015500  1
  H  H1232  1  0.432000  0.506700  0.491200  1
  H  H1233  1  0.432000  0.984500  0.493300  1
  H  H1234  1  0.568000  0.491200  0.984500  1
  H  H1235  1  0.568000  0.493300  0.508800  1
  H  H1236  1  0.568000  0.015500  0.506700  1
  H  H1237  1  0.369600  0.501900  0.016400  1
  H  H1238  1  0.369600  0.514500  0.498100  1
  H  H1239  1  0.369600  0.983600  0.485500  1
  H  H1240  1  0.630400  0.498100  0.983600  1
  H  H1241  1  0.630400  0.485500  0.501900  1
  H  H1242  1  0.630400  0.016400  0.514500  1
  H  H1243  1  0.388700  0.534900  0.026400  1
  H  H1244  1  0.388700  0.491500  0.465100  1
  H  H1245  1  0.388700  0.973600  0.508500  1
  H  H1246  1  0.611300  0.465100  0.973600  1
  H  H1247  1  0.611300  0.508500  0.534900  1
  H  H1248  1  0.611300  0.026400  0.491500  1
  H  H1249  1  0.428500  0.460000  0.981700  1
  H  H1250  1  0.428500  0.521700  0.540000  1
  H  H1251  1  0.428500  0.018300  0.478300  1
  H  H1252  1  0.571500  0.540000  0.018300  1
  H  H1253  1  0.571500  0.478300  0.460000  1
  H  H1254  1  0.571500  0.981700  0.521700  1
  H  H1255  1  0.466800  0.417300  0.939900  1
  H  H1256  1  0.466800  0.522600  0.582700  1
  H  H1257  1  0.466800  0.060100  0.477400  1
  H  H1258  1  0.533200  0.582700  0.060100  1
  H  H1259  1  0.533200  0.477400  0.417300  1
  H  H1260  1  0.533200  0.939900  0.522600  1
  H  H1261  1  0.481300  0.417400  0.895500  1
  H  H1262  1  0.481300  0.478100  0.582600  1
  H  H1263  1  0.481300  0.104500  0.521900  1
  H  H1264  1  0.518700  0.582600  0.104500  1
  H  H1265  1  0.518700  0.521900  0.417400  1
  H  H1266  1  0.518700  0.895500  0.478100  1
  H  H1267  1  0.467600  0.437200  0.863900  1
  H  H1268  1  0.467600  0.426700  0.562800  1
  H  H1269  1  0.467600  0.136100  0.573300  1
  H  H1270  1  0.532400  0.562800  0.136100  1
  H  H1271  1  0.532400  0.573300  0.437200  1
  H  H1272  1  0.532400  0.863900  0.426700  1
  H  H1273  1  0.470200  0.444500  0.827500  1
  H  H1274  1  0.470200  0.383000  0.555500  1
  H  H1275  1  0.470200  0.172500  0.617000  1
  H  H1276  1  0.529800  0.555500  0.172500  1
  H  H1277  1  0.529800  0.617000  0.444500  1
  H  H1278  1  0.529800  0.827500  0.383000  1
  H  H1279  1  0.474200  0.478400  0.835600  1
  H  H1280  1  0.474200  0.357200  0.521600  1
  H  H1281  1  0.474200  0.164400  0.642800  1
  H  H1282  1  0.525800  0.521600  0.164400  1
  H  H1283  1  0.525800  0.642800  0.478400  1
  H  H1284  1  0.525800  0.835600  0.357200  1
  H  H1285  1  0.374600  0.479000  0.836300  1
  H  H1286  1  0.374600  0.357300  0.521000  1
  H  H1287  1  0.374600  0.163700  0.642700  1
  H  H1288  1  0.625400  0.521000  0.163700  1
  H  H1289  1  0.625400  0.642700  0.479000  1
  H  H1290  1  0.625400  0.836300  0.357300  1
  H  H1291  1  0.377300  0.443700  0.821200  1
  H  H1292  1  0.377300  0.377500  0.556300  1
  H  H1293  1  0.377300  0.178800  0.622500  1
  H  H1294  1  0.622700  0.556300  0.178800  1
  H  H1295  1  0.622700  0.622500  0.443700  1
  H  H1296  1  0.622700  0.821200  0.377500  1
  H  H1297  1  0.429500  0.442800  0.780700  1
  H  H1298  1  0.429500  0.337900  0.557200  1
  H  H1299  1  0.429500  0.219300  0.662100  1
  H  H1300  1  0.570500  0.557200  0.219300  1
  H  H1301  1  0.570500  0.662100  0.442800  1
  H  H1302  1  0.570500  0.780700  0.337900  1
  H  H1303  1  0.417800  0.477500  0.795100  1
  H  H1304  1  0.417800  0.317600  0.522500  1
  H  H1305  1  0.417800  0.204900  0.682400  1
  H  H1306  1  0.582200  0.522500  0.204900  1
  H  H1307  1  0.582200  0.682400  0.477500  1
  H  H1308  1  0.582200  0.795100  0.317600  1
  H  H1309  1  0.339100  0.430600  0.768000  1
  H  H1310  1  0.339100  0.337400  0.569400  1
  H  H1311  1  0.339100  0.232000  0.662600  1
  H  H1312  1  0.660900  0.569400  0.232000  1
  H  H1313  1  0.660900  0.662600  0.430600  1
  H  H1314  1  0.660900  0.768000  0.337400  1
  H  H1315  1  0.320000  0.464100  0.789000  1
  H  H1316  1  0.320000  0.324900  0.535900  1
  H  H1317  1  0.320000  0.211000  0.675100  1
  H  H1318  1  0.680000  0.535900  0.211000  1
  H  H1319  1  0.680000  0.675100  0.464100  1
  H  H1320  1  0.680000  0.789000  0.324900  1
  H  H1321  1  0.361300  0.478100  0.756300  1
  H  H1322  1  0.361300  0.278200  0.521900  1
  H  H1323  1  0.361300  0.243700  0.721800  1
  H  H1324  1  0.638700  0.521900  0.243700  1
  H  H1325  1  0.638700  0.721800  0.478100  1
  H  H1326  1  0.638700  0.756300  0.278200  1
  H  H1327  1  0.381800  0.444900  0.735600  1
  H  H1328  1  0.381800  0.290700  0.555100  1
  H  H1329  1  0.381800  0.264400  0.709300  1
  H  H1330  1  0.618200  0.555100  0.264400  1
  H  H1331  1  0.618200  0.709300  0.444900  1
  H  H1332  1  0.618200  0.735600  0.290700  1
  H  H1333  1  0.295600  0.427800  0.718900  1
  H  H1334  1  0.295600  0.291100  0.572200  1
  H  H1335  1  0.295600  0.281100  0.708900  1
  H  H1336  1  0.704400  0.572200  0.281100  1
  H  H1337  1  0.704400  0.708900  0.427800  1
  H  H1338  1  0.704400  0.718900  0.291100  1
  H  H1339  1  0.268700  0.457400  0.744500  1
  H  H1340  1  0.268700  0.287100  0.542600  1
  H  H1341  1  0.268700  0.255500  0.712900  1
  H  H1342  1  0.731300  0.542600  0.255500  1
  H  H1343  1  0.731300  0.712900  0.457400  1
  H  H1344  1  0.731300  0.744500  0.287100  1
  H  H1345  1  0.335900  0.427900  0.682700  1
  H  H1346  1  0.335900  0.254800  0.572100  1
  H  H1347  1  0.335900  0.317300  0.745200  1
  H  H1348  1  0.664100  0.572100  0.317300  1
  H  H1349  1  0.664100  0.745200  0.427900  1
  H  H1350  1  0.664100  0.682700  0.254800  1
  H  H1351  1  0.373300  0.413900  0.635400  1
  H  H1352  1  0.373300  0.221500  0.586100  1
  H  H1353  1  0.373300  0.364600  0.778500  1
  H  H1354  1  0.626700  0.586100  0.364600  1
  H  H1355  1  0.626700  0.778500  0.413900  1
  H  H1356  1  0.626700  0.635400  0.221500  1
  H  H1357  1  0.396800  0.424100  0.597200  1
  H  H1358  1  0.396800  0.173100  0.575900  1
  H  H1359  1  0.396800  0.402800  0.826900  1
  H  H1360  1  0.603200  0.575900  0.402800  1
  H  H1361  1  0.603200  0.826900  0.424100  1
  H  H1362  1  0.603200  0.597200  0.173100  1
  H  H1363  1  0.371000  0.468500  0.600900  1
  H  H1364  1  0.371000  0.132400  0.531500  1
  H  H1365  1  0.371000  0.399100  0.867600  1
  H  H1366  1  0.629000  0.531500  0.399100  1
  H  H1367  1  0.629000  0.867600  0.468500  1
  H  H1368  1  0.629000  0.600900  0.132400  1
  H  H1369  1  0.316900  0.508800  0.603400  1
  H  H1370  1  0.316900  0.094600  0.491200  1
  H  H1371  1  0.316900  0.396600  0.905400  1
  H  H1372  1  0.683100  0.491200  0.396600  1
  H  H1373  1  0.683100  0.905400  0.508800  1
  H  H1374  1  0.683100  0.603400  0.094600  1
  H  H1375  1  0.374900  0.518300  0.618600  1
  H  H1376  1  0.374900  0.100300  0.481700  1
  H  H1377  1  0.374900  0.381400  0.899700  1
  H  H1378  1  0.625100  0.481700  0.381400  1
  H  H1379  1  0.625100  0.899700  0.518300  1
  H  H1380  1  0.625100  0.618600  0.100300  1
  H  H1381  1  0.327400  0.542200  0.628900  1
  H  H1382  1  0.327400  0.086700  0.457800  1
  H  H1383  1  0.327400  0.371100  0.913300  1
  H  H1384  1  0.672600  0.457800  0.371100  1
  H  H1385  1  0.672600  0.913300  0.542200  1
  H  H1386  1  0.672600  0.628900  0.086700  1
  H  H1387  1  0.577500  0.435500  0.894800  1
  H  H1388  1  0.577500  0.459300  0.564500  1
  H  H1389  1  0.577500  0.105200  0.540700  1
  H  H1390  1  0.422500  0.564500  0.105200  1
  H  H1391  1  0.422500  0.540700  0.435500  1
  H  H1392  1  0.422500  0.894800  0.459300  1
  H  H1393  1  0.609600  0.463500  0.919900  1
  H  H1394  1  0.609600  0.456400  0.536500  1
  H  H1395  1  0.609600  0.080100  0.543600  1
  H  H1396  1  0.390400  0.536500  0.080100  1
  H  H1397  1  0.390400  0.543600  0.463500  1
  H  H1398  1  0.390400  0.919900  0.456400  1
  H  H1399  1  0.641700  0.436700  0.893600  1
  H  H1400  1  0.641700  0.456900  0.563300  1
  H  H1401  1  0.641700  0.106400  0.543100  1
  H  H1402  1  0.358300  0.563300  0.106400  1
  H  H1403  1  0.358300  0.543100  0.436700  1
  H  H1404  1  0.358300  0.893600  0.456900  1
  H  H1405  1  0.593500  0.403900  0.845400  1
  H  H1406  1  0.593500  0.441500  0.596100  1
  H  H1407  1  0.593500  0.154600  0.558500  1
  H  H1408  1  0.406500  0.596100  0.154600  1
  H  H1409  1  0.406500  0.558500  0.403900  1
  H  H1410  1  0.406500  0.845400  0.441500  1
  H  H1411  1  0.576100  0.379200  0.794900  1
  H  H1412  1  0.576100  0.415700  0.620800  1
  H  H1413  1  0.576100  0.205100  0.584300  1
  H  H1414  1  0.423900  0.620800  0.205100  1
  H  H1415  1  0.423900  0.584300  0.379200  1
  H  H1416  1  0.423900  0.794900  0.415700  1
  H  H1417  1  0.566400  0.405400  0.769200  1
  H  H1418  1  0.566400  0.363800  0.594600  1
  H  H1419  1  0.566400  0.230800  0.636200  1
  H  H1420  1  0.433600  0.594600  0.230800  1
  H  H1421  1  0.433600  0.636200  0.405400  1
  H  H1422  1  0.433600  0.769200  0.363800  1
  H  H1423  1  0.567700  0.447600  0.765500  1
  H  H1424  1  0.567700  0.317900  0.552400  1
  H  H1425  1  0.567700  0.234500  0.682100  1
  H  H1426  1  0.432300  0.552400  0.234500  1
  H  H1427  1  0.432300  0.682100  0.447600  1
  H  H1428  1  0.432300  0.765500  0.317900  1
  H  H1429  1  0.560700  0.480100  0.751900  1
  H  H1430  1  0.560700  0.271800  0.519900  1
  H  H1431  1  0.560700  0.248100  0.728200  1
  H  H1432  1  0.439300  0.519900  0.248100  1
  H  H1433  1  0.439300  0.728200  0.480100  1
  H  H1434  1  0.439300  0.751900  0.271800  1
  H  H1435  1  0.583700  0.512600  0.773600  1
  H  H1436  1  0.583700  0.261000  0.487400  1
  H  H1437  1  0.583700  0.226400  0.739000  1
  H  H1438  1  0.416300  0.487400  0.226400  1
  H  H1439  1  0.416300  0.739000  0.512600  1
  H  H1440  1  0.416300  0.773600  0.261000  1
  H  H1441  1  0.494000  0.525200  0.797200  1
  H  H1442  1  0.494000  0.272000  0.474800  1
  H  H1443  1  0.494000  0.202800  0.728000  1
  H  H1444  1  0.506000  0.474800  0.202800  1
  H  H1445  1  0.506000  0.728000  0.525200  1
  H  H1446  1  0.506000  0.797200  0.272000  1
  H  H1447  1  0.473300  0.494300  0.770600  1
  H  H1448  1  0.473300  0.276300  0.505700  1
  H  H1449  1  0.473300  0.229400  0.723700  1
  H  H1450  1  0.526700  0.505700  0.229400  1
  H  H1451  1  0.526700  0.723700  0.494300  1
  H  H1452  1  0.526700  0.770600  0.276300  1
  H  H1453  1  0.510900  0.543100  0.763700  1
  H  H1454  1  0.510900  0.220600  0.456900  1
  H  H1455  1  0.510900  0.236300  0.779400  1
  H  H1456  1  0.489100  0.456900  0.236300  1
  H  H1457  1  0.489100  0.779400  0.543100  1
  H  H1458  1  0.489100  0.763700  0.220600  1
  H  H1459  1  0.494700  0.511600  0.736000  1
  H  H1460  1  0.494700  0.224400  0.488400  1
  H  H1461  1  0.494700  0.264000  0.775600  1
  H  H1462  1  0.505300  0.488400  0.264000  1
  H  H1463  1  0.505300  0.775600  0.511600  1
  H  H1464  1  0.505300  0.736000  0.224400  1
  H  H1465  1  0.419800  0.547100  0.782100  1
  H  H1466  1  0.419800  0.235000  0.452900  1
  H  H1467  1  0.419800  0.217900  0.765000  1
  H  H1468  1  0.580200  0.452900  0.217900  1
  H  H1469  1  0.580200  0.765000  0.547100  1
  H  H1470  1  0.580200  0.782100  0.235000  1
  H  H1471  1  0.405200  0.517800  0.751700  1
  H  H1472  1  0.405200  0.233900  0.482200  1
  H  H1473  1  0.405200  0.248300  0.766100  1
  H  H1474  1  0.594800  0.482200  0.248300  1
  H  H1475  1  0.594800  0.766100  0.517800  1
  H  H1476  1  0.594800  0.751700  0.233900  1
  H  H1477  1  0.378800  0.562000  0.751800  1
  H  H1478  1  0.378800  0.189800  0.438000  1
  H  H1479  1  0.378800  0.248200  0.810200  1
  H  H1480  1  0.621200  0.438000  0.248200  1
  H  H1481  1  0.621200  0.810200  0.562000  1
  H  H1482  1  0.621200  0.751800  0.189800  1
  H  H1483  1  0.440400  0.571700  0.755000  1
  H  H1484  1  0.440400  0.183300  0.428300  1
  H  H1485  1  0.440400  0.245000  0.816700  1
  H  H1486  1  0.559600  0.428300  0.245000  1
  H  H1487  1  0.559600  0.816700  0.571700  1
  H  H1488  1  0.559600  0.755000  0.183300  1
  H  H1489  1  0.460000  0.535600  0.707600  1
  H  H1490  1  0.460000  0.172000  0.464400  1
  H  H1491  1  0.460000  0.292400  0.828000  1
  H  H1492  1  0.540000  0.464400  0.292400  1
  H  H1493  1  0.540000  0.828000  0.535600  1
  H  H1494  1  0.540000  0.707600  0.172000  1
  H  H1495  1  0.404900  0.518400  0.704500  1
  H  H1496  1  0.404900  0.186100  0.481600  1
  H  H1497  1  0.404900  0.295500  0.813900  1
  H  H1498  1  0.595100  0.481600  0.295500  1
  H  H1499  1  0.595100  0.813900  0.518400  1
  H  H1500  1  0.595100  0.704500  0.186100  1
  H  H1501  1  0.460900  0.564700  0.689800  1
  H  H1502  1  0.460900  0.125100  0.435300  1
  H  H1503  1  0.460900  0.310200  0.874900  1
  H  H1504  1  0.539100  0.435300  0.310200  1
  H  H1505  1  0.539100  0.874900  0.564700  1
  H  H1506  1  0.539100  0.689800  0.125100  1
  H  H1507  1  0.486600  0.594000  0.670200  1
  H  H1508  1  0.486600  0.076200  0.406000  1
  H  H1509  1  0.486600  0.329800  0.923800  1
  H  H1510  1  0.513400  0.406000  0.329800  1
  H  H1511  1  0.513400  0.923800  0.594000  1
  H  H1512  1  0.513400  0.670200  0.076200  1
  H  H1513  1  0.472100  0.627900  0.654200  1
  H  H1514  1  0.472100  0.026300  0.372100  1
  H  H1515  1  0.472100  0.345800  0.973700  1
  H  H1516  1  0.527900  0.372100  0.345800  1
  H  H1517  1  0.527900  0.973700  0.627900  1
  H  H1518  1  0.527900  0.654200  0.026300  1
  H  H1519  1  0.387000  0.646200  0.657000  1
  H  H1520  1  0.387000  0.010800  0.353800  1
  H  H1521  1  0.387000  0.343000  0.989200  1
  H  H1522  1  0.613000  0.353800  0.343000  1
  H  H1523  1  0.613000  0.989200  0.646200  1
  H  H1524  1  0.613000  0.657000  0.010800  1
  H  H1525  1  0.313300  0.663500  0.665500  1
  H  H1526  1  0.313300  0.002000  0.336500  1
  H  H1527  1  0.313300  0.334500  0.998000  1
  H  H1528  1  0.686700  0.336500  0.334500  1
  H  H1529  1  0.686700  0.998000  0.663500  1
  H  H1530  1  0.686700  0.665500  0.002000  1
  H  H1531  1  0.256800  0.667300  0.681700  1
  H  H1532  1  0.256800  0.014400  0.332700  1
  H  H1533  1  0.256800  0.318300  0.985600  1
  H  H1534  1  0.743200  0.332700  0.318300  1
  H  H1535  1  0.743200  0.985600  0.667300  1
  H  H1536  1  0.743200  0.681700  0.014400  1
  H  H1537  1  0.261700  0.645700  0.646800  1
  H  H1538  1  0.261700  0.001100  0.354300  1
  H  H1539  1  0.261700  0.353200  0.998900  1
  H  H1540  1  0.738300  0.354300  0.353200  1
  H  H1541  1  0.738300  0.998900  0.645700  1
  H  H1542  1  0.738300  0.646800  0.001100  1
  H  H1543  1  0.397600  0.601700  0.820400  1
  H  H1544  1  0.397600  0.218700  0.398300  1
  H  H1545  1  0.397600  0.179600  0.781300  1
  H  H1546  1  0.602400  0.398300  0.179600  1
  H  H1547  1  0.602400  0.781300  0.601700  1
  H  H1548  1  0.602400  0.820400  0.218700  1
  H  H1549  1  0.384200  0.634300  0.826500  1
  H  H1550  1  0.384200  0.192200  0.365700  1
  H  H1551  1  0.384200  0.173500  0.807800  1
  H  H1552  1  0.615800  0.365700  0.173500  1
  H  H1553  1  0.615800  0.807800  0.634300  1
  H  H1554  1  0.615800  0.826500  0.192200  1
  H  H1555  1  0.362200  0.623700  0.848500  1
  H  H1556  1  0.362200  0.224800  0.376300  1
  H  H1557  1  0.362200  0.151500  0.775200  1
  H  H1558  1  0.637800  0.376300  0.151500  1
  H  H1559  1  0.637800  0.775200  0.623700  1
  H  H1560  1  0.637800  0.848500  0.224800  1
  H  H1561  1  0.525200  0.604500  0.932100  1
  H  H1562  1  0.525200  0.327600  0.395500  1
  H  H1563  1  0.525200  0.067900  0.672400  1
  H  H1564  1  0.474800  0.395500  0.067900  1
  H  H1565  1  0.474800  0.672400  0.604500  1
  H  H1566  1  0.474800  0.932100  0.327600  1
  H  H1567  1  0.493000  0.628100  0.961000  1
  H  H1568  1  0.493000  0.332900  0.371900  1
  H  H1569  1  0.493000  0.039000  0.667100  1
  H  H1570  1  0.507000  0.371900  0.039000  1
  H  H1571  1  0.507000  0.667100  0.628100  1
  H  H1572  1  0.507000  0.961000  0.332900  1
  H  H1573  1  0.556300  0.631800  0.958500  1
  H  H1574  1  0.556300  0.326700  0.368200  1
  H  H1575  1  0.556300  0.041500  0.673300  1
  H  H1576  1  0.443700  0.368200  0.041500  1
  H  H1577  1  0.443700  0.673300  0.631800  1
  H  H1578  1  0.443700  0.958500  0.326700  1
  H  H1579  1  0.618700  0.660200  0.937200  1
  H  H1580  1  0.618700  0.277000  0.339800  1
  H  H1581  1  0.618700  0.062800  0.723000  1
  H  H1582  1  0.381300  0.339800  0.062800  1
  H  H1583  1  0.381300  0.723000  0.660200  1
  H  H1584  1  0.381300  0.937200  0.277000  1
  H  H1585  1  0.667900  0.673000  0.960000  1
  H  H1586  1  0.667900  0.287000  0.327000  1
  H  H1587  1  0.667900  0.040000  0.713000  1
  H  H1588  1  0.332100  0.327000  0.040000  1
  H  H1589  1  0.332100  0.713000  0.673000  1
  H  H1590  1  0.332100  0.960000  0.287000  1
  H  H1591  1  0.667200  0.676900  0.931500  1
  H  H1592  1  0.667200  0.254600  0.323100  1
  H  H1593  1  0.667200  0.068500  0.745400  1
  H  H1594  1  0.332800  0.323100  0.068500  1
  H  H1595  1  0.332800  0.745400  0.676900  1
  H  H1596  1  0.332800  0.931500  0.254600  1
  H  H1597  1  0.389800  0.669600  0.918200  1
  H  H1598  1  0.389800  0.248600  0.330400  1
  H  H1599  1  0.389800  0.081800  0.751400  1
  H  H1600  1  0.610200  0.330400  0.081800  1
  H  H1601  1  0.610200  0.751400  0.669600  1
  H  H1602  1  0.610200  0.918200  0.248600  1
  H  H1603  1  0.332300  0.683900  0.931500  1
  H  H1604  1  0.332300  0.247600  0.316100  1
  H  H1605  1  0.332300  0.068500  0.752400  1
  H  H1606  1  0.667700  0.316100  0.068500  1
  H  H1607  1  0.667700  0.752400  0.683900  1
  H  H1608  1  0.667700  0.931500  0.247600  1
  H  H1609  1  0.369800  0.672600  0.948800  1
  H  H1610  1  0.369800  0.276200  0.327400  1
  H  H1611  1  0.369800  0.051200  0.723800  1
  H  H1612  1  0.630200  0.327400  0.051200  1
  H  H1613  1  0.630200  0.723800  0.672600  1
  H  H1614  1  0.630200  0.948800  0.276200  1
  H  H1615  1  0.500100  0.726400  0.055400  1
  H  H1616  1  0.500100  0.329000  0.273600  1
  H  H1617  1  0.500100  0.944600  0.671000  1
  H  H1618  1  0.499900  0.273600  0.944600  1
  H  H1619  1  0.499900  0.671000  0.726400  1
  H  H1620  1  0.499900  0.055400  0.329000  1
  H  H1621  1  0.539200  0.751500  0.057000  1
  H  H1622  1  0.539200  0.305500  0.248500  1
  H  H1623  1  0.539200  0.943000  0.694500  1
  H  H1624  1  0.460800  0.248500  0.943000  1
  H  H1625  1  0.460800  0.694500  0.751500  1
  H  H1626  1  0.460800  0.057000  0.305500  1
  H  H1627  1  0.539200  0.719200  0.028200  1
  H  H1628  1  0.539200  0.309000  0.280800  1
  H  H1629  1  0.539200  0.971800  0.691000  1
  H  H1630  1  0.460800  0.280800  0.971800  1
  H  H1631  1  0.460800  0.691000  0.719200  1
  H  H1632  1  0.460800  0.028200  0.309000  1
  H  H1633  1  0.216300  0.701900  0.945100  1
  H  H1634  1  0.216300  0.243200  0.298100  1
  H  H1635  1  0.216300  0.054900  0.756800  1
  H  H1636  1  0.783700  0.298100  0.054900  1
  H  H1637  1  0.783700  0.756800  0.701900  1
  H  H1638  1  0.783700  0.945100  0.243200  1
  H  H1639  1  0.167700  0.687900  0.954200  1
  H  H1640  1  0.167700  0.266300  0.312100  1
  H  H1641  1  0.167700  0.045800  0.733700  1
  H  H1642  1  0.832300  0.312100  0.045800  1
  H  H1643  1  0.832300  0.733700  0.687900  1
  H  H1644  1  0.832300  0.954200  0.266300  1
  H  H1645  1  0.217300  0.667500  0.935500  1
  H  H1646  1  0.217300  0.268000  0.332500  1
  H  H1647  1  0.217300  0.064500  0.732000  1
  H  H1648  1  0.782700  0.332500  0.064500  1
  H  H1649  1  0.782700  0.732000  0.667500  1
  H  H1650  1  0.782700  0.935500  0.268000  1
  H  H1651  1  0.270900  0.629400  0.963900  1
  H  H1652  1  0.270900  0.334500  0.370600  1
  H  H1653  1  0.270900  0.036100  0.665500  1
  H  H1654  1  0.729100  0.370600  0.036100  1
  H  H1655  1  0.729100  0.665500  0.629400  1
  H  H1656  1  0.729100  0.963900  0.334500  1
  H  H1657  1  0.249400  0.596400  0.943100  1
  H  H1658  1  0.249400  0.346700  0.403600  1
  H  H1659  1  0.249400  0.056900  0.653300  1
  H  H1660  1  0.750600  0.403600  0.056900  1
  H  H1661  1  0.750600  0.653300  0.596400  1
  H  H1662  1  0.750600  0.943100  0.346700  1
  H  H1663  1  0.312400  0.602300  0.949500  1
  H  H1664  1  0.312400  0.347200  0.397700  1
  H  H1665  1  0.312400  0.050500  0.652800  1
  H  H1666  1  0.687600  0.397700  0.050500  1
  H  H1667  1  0.687600  0.652800  0.602300  1
  H  H1668  1  0.687600  0.949500  0.347200  1
  H  H1669  1  0.382900  0.718400  0.072600  1
  H  H1670  1  0.382900  0.354200  0.281600  1
  H  H1671  1  0.382900  0.927400  0.645800  1
  H  H1672  1  0.617100  0.281600  0.927400  1
  H  H1673  1  0.617100  0.645800  0.718400  1
  H  H1674  1  0.617100  0.072600  0.354200  1
  H  H1675  1  0.436800  0.708500  0.082000  1
  H  H1676  1  0.436800  0.373500  0.291500  1
  H  H1677  1  0.436800  0.918000  0.626500  1
  H  H1678  1  0.563200  0.291500  0.918000  1
  H  H1679  1  0.563200  0.626500  0.708500  1
  H  H1680  1  0.563200  0.082000  0.373500  1
  H  H1681  1  0.396600  0.731600  0.106900  1
  H  H1682  1  0.396600  0.375300  0.268400  1
  H  H1683  1  0.396600  0.893100  0.624700  1
  H  H1684  1  0.603400  0.268400  0.893100  1
  H  H1685  1  0.603400  0.624700  0.731600  1
  H  H1686  1  0.603400  0.106900  0.375300  1
  H  H1687  1  0.462700  0.603700  0.031000  1
  H  H1688  1  0.462700  0.427300  0.396300  1
  H  H1689  1  0.462700  0.969000  0.572700  1
  H  H1690  1  0.537300  0.396300  0.969000  1
  H  H1691  1  0.537300  0.572700  0.603700  1
  H  H1692  1  0.537300  0.031000  0.427300  1
  H  H1693  1  0.441100  0.614100  0.063600  1
  H  H1694  1  0.441100  0.449500  0.385900  1
  H  H1695  1  0.441100  0.936400  0.550500  1
  H  H1696  1  0.558900  0.385900  0.936400  1
  H  H1697  1  0.558900  0.550500  0.614100  1
  H  H1698  1  0.558900  0.063600  0.449500  1
  H  H1699  1  0.425000  0.632300  0.047500  1
  H  H1700  1  0.425000  0.415200  0.367700  1
  H  H1701  1  0.425000  0.952500  0.584800  1
  H  H1702  1  0.575000  0.367700  0.952500  1
  H  H1703  1  0.575000  0.584800  0.632300  1
  H  H1704  1  0.575000  0.047500  0.415200  1
  H  H1705  1  0.262600  0.534300  0.863000  1
  H  H1706  1  0.262600  0.328700  0.465700  1
  H  H1707  1  0.262600  0.137000  0.671300  1
  H  H1708  1  0.737400  0.465700  0.137000  1
  H  H1709  1  0.737400  0.671300  0.534300  1
  H  H1710  1  0.737400  0.863000  0.328700  1
  H  H1711  1  0.236500  0.554800  0.895000  1
  H  H1712  1  0.236500  0.340200  0.445200  1
  H  H1713  1  0.236500  0.105000  0.659800  1
  H  H1714  1  0.763500  0.445200  0.105000  1
  H  H1715  1  0.763500  0.659800  0.554800  1
  H  H1716  1  0.763500  0.895000  0.340200  1
  H  H1717  1  0.225300  0.519900  0.877500  1
  H  H1718  1  0.225300  0.357600  0.480100  1
  H  H1719  1  0.225300  0.122500  0.642400  1
  H  H1720  1  0.774700  0.480100  0.122500  1
  H  H1721  1  0.774700  0.642400  0.519900  1
  H  H1722  1  0.774700  0.877500  0.357600  1
  H  H1723  1  0.395000  0.568300  0.881400  1
  H  H1724  1  0.395000  0.313100  0.431700  1
  H  H1725  1  0.395000  0.118600  0.686900  1
  H  H1726  1  0.605000  0.431700  0.118600  1
  H  H1727  1  0.605000  0.686900  0.568300  1
  H  H1728  1  0.605000  0.881400  0.313100  1
  H  H1729  1  0.408200  0.578300  0.857600  1
  H  H1730  1  0.408200  0.279300  0.421700  1
  H  H1731  1  0.408200  0.142400  0.720700  1
  H  H1732  1  0.591800  0.421700  0.142400  1
  H  H1733  1  0.591800  0.720700  0.578300  1
  H  H1734  1  0.591800  0.857600  0.279300  1
  H  H1735  1  0.429900  0.597500  0.890900  1
  H  H1736  1  0.429900  0.293400  0.402500  1
  H  H1737  1  0.429900  0.109100  0.706600  1
  H  H1738  1  0.570100  0.402500  0.109100  1
  H  H1739  1  0.570100  0.706600  0.597500  1
  H  H1740  1  0.570100  0.890900  0.293400  1
  H  H1741  1  0.473100  0.542600  0.966900  1
  H  H1742  1  0.473100  0.424300  0.457400  1
  H  H1743  1  0.473100  0.033100  0.575700  1
  H  H1744  1  0.526900  0.457400  0.033100  1
  H  H1745  1  0.526900  0.575700  0.542600  1
  H  H1746  1  0.526900  0.966900  0.424300  1
  H  H1747  1  0.518200  0.567300  0.984000  1
  H  H1748  1  0.518200  0.416700  0.432700  1
  H  H1749  1  0.518200  0.016000  0.583300  1
  H  H1750  1  0.481800  0.432700  0.016000  1
  H  H1751  1  0.481800  0.583300  0.567300  1
  H  H1752  1  0.481800  0.984000  0.416700  1
  H  H1753  1  0.520800  0.536500  0.983700  1
  H  H1754  1  0.520800  0.447200  0.463500  1
  H  H1755  1  0.520800  0.016300  0.552800  1
  H  H1756  1  0.479200  0.463500  0.016300  1
  H  H1757  1  0.479200  0.552800  0.536500  1
  H  H1758  1  0.479200  0.983700  0.447200  1
  H  H1759  1  0.658700  0.613200  0.944700  1
  H  H1760  1  0.658700  0.331500  0.386800  1
  H  H1761  1  0.658700  0.055300  0.668500  1
  H  H1762  1  0.341300  0.386800  0.055300  1
  H  H1763  1  0.341300  0.668500  0.613200  1
  H  H1764  1  0.341300  0.944700  0.331500  1
  H  H1765  1  0.685100  0.581100  0.931600  1
  H  H1766  1  0.685100  0.350500  0.418900  1
  H  H1767  1  0.685100  0.068400  0.649500  1
  H  H1768  1  0.314900  0.418900  0.068400  1
  H  H1769  1  0.314900  0.649500  0.581100  1
  H  H1770  1  0.314900  0.931600  0.350500  1
  H  H1771  1  0.628000  0.587900  0.947800  1
  H  H1772  1  0.628000  0.359900  0.412100  1
  H  H1773  1  0.628000  0.052200  0.640100  1
  H  H1774  1  0.372000  0.412100  0.052200  1
  H  H1775  1  0.372000  0.640100  0.587900  1
  H  H1776  1  0.372000  0.947800  0.359900  1
  H  H1777  1  0.338300  0.539400  0.806400  1
  H  H1778  1  0.338300  0.267000  0.460600  1
  H  H1779  1  0.338300  0.193600  0.733000  1
  H  H1780  1  0.661700  0.460600  0.193600  1
  H  H1781  1  0.661700  0.733000  0.539400  1
  H  H1782  1  0.661700  0.806400  0.267000  1
  H  H1783  1  0.322000  0.521000  0.822200  1
  H  H1784  1  0.322000  0.301200  0.479000  1
  H  H1785  1  0.322000  0.177800  0.698800  1
  H  H1786  1  0.678000  0.479000  0.177800  1
  H  H1787  1  0.678000  0.698800  0.521000  1
  H  H1788  1  0.678000  0.822200  0.301200  1
  H  H1789  1  0.294200  0.552200  0.832100  1
  H  H1790  1  0.294200  0.279900  0.447800  1
  H  H1791  1  0.294200  0.167900  0.720100  1
  H  H1792  1  0.705800  0.447800  0.167900  1
  H  H1793  1  0.705800  0.720100  0.552200  1
  H  H1794  1  0.705800  0.832100  0.279900  1
  H  H1795  1  0.158200  0.550700  0.831000  1
  H  H1796  1  0.158200  0.280300  0.449300  1
  H  H1797  1  0.158200  0.169000  0.719700  1
  H  H1798  1  0.841800  0.449300  0.169000  1
  H  H1799  1  0.841800  0.719700  0.550700  1
  H  H1800  1  0.841800  0.831000  0.280300  1
  H  H1801  1  0.143400  0.566200  0.865400  1
  H  H1802  1  0.143400  0.299200  0.433800  1
  H  H1803  1  0.143400  0.134600  0.700800  1
  H  H1804  1  0.856600  0.433800  0.134600  1
  H  H1805  1  0.856600  0.700800  0.566200  1
  H  H1806  1  0.856600  0.865400  0.299200  1
  H  H1807  1  0.112500  0.575500  0.844400  1
  H  H1808  1  0.112500  0.268900  0.424500  1
  H  H1809  1  0.112500  0.155600  0.731100  1
  H  H1810  1  0.887500  0.424500  0.155600  1
  H  H1811  1  0.887500  0.731100  0.575500  1
  H  H1812  1  0.887500  0.844400  0.268900  1
  H  H1813  1  0.098300  0.488400  0.711100  1
  H  H1814  1  0.098300  0.222700  0.511600  1
  H  H1815  1  0.098300  0.288900  0.777300  1
  H  H1816  1  0.901700  0.511600  0.288900  1
  H  H1817  1  0.901700  0.777300  0.488400  1
  H  H1818  1  0.901700  0.711100  0.222700  1
  H  H1819  1  0.045000  0.504200  0.708700  1
  H  H1820  1  0.045000  0.204500  0.495800  1
  H  H1821  1  0.045000  0.291300  0.795500  1
  H  H1822  1  0.955000  0.495800  0.291300  1
  H  H1823  1  0.955000  0.795500  0.504200  1
  H  H1824  1  0.955000  0.708700  0.204500  1
  H  H1825  1  0.055900  0.470100  0.685200  1
  H  H1826  1  0.055900  0.215100  0.529900  1
  H  H1827  1  0.055900  0.314800  0.784900  1
  H  H1828  1  0.944100  0.529900  0.314800  1
  H  H1829  1  0.944100  0.784900  0.470100  1
  H  H1830  1  0.944100  0.685200  0.215100  1
  H  H1831  1  0.156100  0.635800  0.939400  1
  H  H1832  1  0.156100  0.303600  0.364200  1
  H  H1833  1  0.156100  0.060600  0.696400  1
  H  H1834  1  0.843900  0.364200  0.060600  1
  H  H1835  1  0.843900  0.696400  0.635800  1
  H  H1836  1  0.843900  0.939400  0.303600  1
  H  H1837  1  0.156100  0.600900  0.916600  1
  H  H1838  1  0.156100  0.315700  0.399100  1
  H  H1839  1  0.156100  0.083400  0.684300  1
  H  H1840  1  0.843900  0.399100  0.083400  1
  H  H1841  1  0.843900  0.684300  0.600900  1
  H  H1842  1  0.843900  0.916600  0.315700  1
  H  H1843  1  0.130400  0.613600  0.948900  1
  H  H1844  1  0.130400  0.335300  0.386400  1
  H  H1845  1  0.130400  0.051100  0.664700  1
  H  H1846  1  0.869600  0.386400  0.051100  1
  H  H1847  1  0.869600  0.664700  0.613600  1
  H  H1848  1  0.869600  0.948900  0.335300  1
  H  H1849  1  0.046900  0.564300  0.806400  1
  H  H1850  1  0.046900  0.242100  0.435700  1
  H  H1851  1  0.046900  0.193600  0.757900  1
  H  H1852  1  0.953100  0.435700  0.193600  1
  H  H1853  1  0.953100  0.757900  0.564300  1
  H  H1854  1  0.953100  0.806400  0.242100  1
  H  H1855  1  0.029700  0.585600  0.794000  1
  H  H1856  1  0.029700  0.208400  0.414400  1
  H  H1857  1  0.029700  0.206000  0.791600  1
  H  H1858  1  0.970300  0.414400  0.206000  1
  H  H1859  1  0.970300  0.791600  0.585600  1
  H  H1860  1  0.970300  0.794000  0.208400  1
  H  H1861  1  0.984900  0.567200  0.800000  1
  H  H1862  1  0.984900  0.232800  0.432800  1
  H  H1863  1  0.984900  0.200000  0.767200  1
  H  H1864  1  0.015100  0.432800  0.200000  1
  H  H1865  1  0.015100  0.767200  0.567200  1
  H  H1866  1  0.015100  0.800000  0.232800  1
  H  H1867  1  0.870600  0.550600  0.797300  1
  H  H1868  1  0.870600  0.246700  0.449400  1
  H  H1869  1  0.870600  0.202700  0.753300  1
  H  H1870  1  0.129400  0.449400  0.202700  1
  H  H1871  1  0.129400  0.753300  0.550600  1
  H  H1872  1  0.129400  0.797300  0.246700  1
  H  H1873  1  0.860300  0.515800  0.783200  1
  H  H1874  1  0.860300  0.267400  0.484200  1
  H  H1875  1  0.860300  0.216800  0.732600  1
  H  H1876  1  0.139700  0.484200  0.216800  1
  H  H1877  1  0.139700  0.732600  0.515800  1
  H  H1878  1  0.139700  0.783200  0.267400  1
  H  H1879  1  0.906900  0.527300  0.770300  1
  H  H1880  1  0.906900  0.243000  0.472700  1
  H  H1881  1  0.906900  0.229700  0.757000  1
  H  H1882  1  0.093100  0.472700  0.229700  1
  H  H1883  1  0.093100  0.757000  0.527300  1
  H  H1884  1  0.093100  0.770300  0.243000  1
  H  H1885  1  0.877500  0.619700  0.865000  1
  H  H1886  1  0.877500  0.245300  0.380300  1
  H  H1887  1  0.877500  0.135000  0.754700  1
  H  H1888  1  0.122500  0.380300  0.135000  1
  H  H1889  1  0.122500  0.754700  0.619700  1
  H  H1890  1  0.122500  0.865000  0.245300  1
  H  H1891  1  0.886500  0.612000  0.831500  1
  H  H1892  1  0.886500  0.219500  0.388000  1
  H  H1893  1  0.886500  0.168500  0.780500  1
  H  H1894  1  0.113500  0.388000  0.168500  1
  H  H1895  1  0.113500  0.780500  0.612000  1
  H  H1896  1  0.113500  0.831500  0.219500  1
  H  H1897  1  0.828600  0.622500  0.846600  1
  H  H1898  1  0.828600  0.224100  0.377500  1
  H  H1899  1  0.828600  0.153400  0.775900  1
  H  H1900  1  0.171400  0.377500  0.153400  1
  H  H1901  1  0.171400  0.775900  0.622500  1
  H  H1902  1  0.171400  0.846600  0.224100  1
  H  H1903  1  0.155900  0.657300  0.857100  1
  H  H1904  1  0.155900  0.199800  0.342700  1
  H  H1905  1  0.155900  0.142900  0.800200  1
  H  H1906  1  0.844100  0.342700  0.142900  1
  H  H1907  1  0.844100  0.800200  0.657300  1
  H  H1908  1  0.844100  0.857100  0.199800  1
  H  H1909  1  0.104800  0.639600  0.858700  1
  H  H1910  1  0.104800  0.219100  0.360400  1
  H  H1911  1  0.104800  0.141300  0.780900  1
  H  H1912  1  0.895200  0.360400  0.141300  1
  H  H1913  1  0.895200  0.780900  0.639600  1
  H  H1914  1  0.895200  0.858700  0.219100  1
  H  H1915  1  0.141500  0.658100  0.887400  1
  H  H1916  1  0.141500  0.229300  0.341900  1
  H  H1917  1  0.141500  0.112600  0.770700  1
  H  H1918  1  0.858500  0.341900  0.112600  1
  H  H1919  1  0.858500  0.770700  0.658100  1
  H  H1920  1  0.858500  0.887400  0.229300  1
  H  H1921  1  0.921300  0.687000  0.811300  1
  H  H1922  1  0.921300  0.124300  0.313000  1
  H  H1923  1  0.921300  0.188700  0.875700  1
  H  H1924  1  0.078700  0.313000  0.188700  1
  H  H1925  1  0.078700  0.875700  0.687000  1
  H  H1926  1  0.078700  0.811300  0.124300  1
  H  H1927  1  0.965100  0.664900  0.788500  1
  H  H1928  1  0.965100  0.123600  0.335100  1
  H  H1929  1  0.965100  0.211500  0.876400  1
  H  H1930  1  0.034900  0.335100  0.211500  1
  H  H1931  1  0.034900  0.876400  0.664900  1
  H  H1932  1  0.034900  0.788500  0.123600  1
  H  H1933  1  0.953200  0.695900  0.790300  1
  H  H1934  1  0.953200  0.094400  0.304100  1
  H  H1935  1  0.953200  0.209700  0.905600  1
  H  H1936  1  0.046800  0.304100  0.209700  1
  H  H1937  1  0.046800  0.905600  0.695900  1
  H  H1938  1  0.046800  0.790300  0.094400  1
  H  H1939  1  0.309700  0.665400  0.863500  1
  H  H1940  1  0.309700  0.198100  0.334600  1
  H  H1941  1  0.309700  0.136500  0.801900  1
  H  H1942  1  0.690300  0.334600  0.136500  1
  H  H1943  1  0.690300  0.801900  0.665400  1
  H  H1944  1  0.690300  0.863500  0.198100  1
  H  H1945  1  0.255000  0.675900  0.882100  1
  H  H1946  1  0.255000  0.206200  0.324100  1
  H  H1947  1  0.255000  0.117900  0.793800  1
  H  H1948  1  0.745000  0.324100  0.117900  1
  H  H1949  1  0.745000  0.793800  0.675900  1
  H  H1950  1  0.745000  0.882100  0.206200  1
  H  H1951  1  0.297000  0.699900  0.883700  1
  H  H1952  1  0.297000  0.183800  0.300100  1
  H  H1953  1  0.297000  0.116300  0.816200  1
  H  H1954  1  0.703000  0.300100  0.116300  1
  H  H1955  1  0.703000  0.816200  0.699900  1
  H  H1956  1  0.703000  0.883700  0.183800  1
  H  H1957  1  0.041200  0.641700  0.795600  1
  H  H1958  1  0.041200  0.153900  0.358300  1
  H  H1959  1  0.041200  0.204400  0.846100  1
  H  H1960  1  0.958800  0.358300  0.204400  1
  H  H1961  1  0.958800  0.846100  0.641700  1
  H  H1962  1  0.958800  0.795600  0.153900  1
  H  H1963  1  0.057700  0.607800  0.774400  1
  H  H1964  1  0.057700  0.166600  0.392200  1
  H  H1965  1  0.057700  0.225600  0.833400  1
  H  H1966  1  0.942300  0.392200  0.225600  1
  H  H1967  1  0.942300  0.833400  0.607800  1
  H  H1968  1  0.942300  0.774400  0.166600  1
  H  H1969  1  0.049700  0.629100  0.760900  1
  H  H1970  1  0.049700  0.131800  0.370900  1
  H  H1971  1  0.049700  0.239100  0.868200  1
  H  H1972  1  0.950300  0.370900  0.239100  1
  H  H1973  1  0.950300  0.868200  0.629100  1
  H  H1974  1  0.950300  0.760900  0.131800  1
  H  H1975  1  0.132200  0.677600  0.741200  1
  H  H1976  1  0.132200  0.063600  0.322400  1
  H  H1977  1  0.132200  0.258800  0.936400  1
  H  H1978  1  0.867800  0.322400  0.258800  1
  H  H1979  1  0.867800  0.936400  0.677600  1
  H  H1980  1  0.867800  0.741200  0.063600  1
  H  H1981  1  0.087300  0.652400  0.731700  1
  H  H1982  1  0.087300  0.079300  0.347600  1
  H  H1983  1  0.087300  0.268300  0.920700  1
  H  H1984  1  0.912700  0.347600  0.268300  1
  H  H1985  1  0.912700  0.920700  0.652400  1
  H  H1986  1  0.912700  0.731700  0.079300  1
  H  H1987  1  0.098500  0.666800  0.711400  1
  H  H1988  1  0.098500  0.044600  0.333200  1
  H  H1989  1  0.098500  0.288600  0.955400  1
  H  H1990  1  0.901500  0.333200  0.288600  1
  H  H1991  1  0.901500  0.955400  0.666800  1
  H  H1992  1  0.901500  0.711400  0.044600  1
  H  H1993  1  0.093100  0.541900  0.693700  1
  H  H1994  1  0.093100  0.151800  0.458100  1
  H  H1995  1  0.093100  0.306300  0.848200  1
  H  H1996  1  0.906900  0.458100  0.306300  1
  H  H1997  1  0.906900  0.848200  0.541900  1
  H  H1998  1  0.906900  0.693700  0.151800  1
  H  H1999  1  0.113400  0.551200  0.670400  1
  H  H2000  1  0.113400  0.119200  0.448800  1
  H  H2001  1  0.113400  0.329600  0.880800  1
  H  H2002  1  0.886600  0.448800  0.329600  1
  H  H2003  1  0.886600  0.880800  0.551200  1
  H  H2004  1  0.886600  0.670400  0.119200  1
  H  H2005  1  0.114400  0.574800  0.705100  1
  H  H2006  1  0.114400  0.130300  0.425200  1
  H  H2007  1  0.114400  0.294900  0.869700  1
  H  H2008  1  0.885600  0.425200  0.294900  1
  H  H2009  1  0.885600  0.869700  0.574800  1
  H  H2010  1  0.885600  0.705100  0.130300  1
  H  H2011  1  0.258000  0.611500  0.806700  1
  H  H2012  1  0.258000  0.195200  0.388500  1
  H  H2013  1  0.258000  0.193300  0.804800  1
  H  H2014  1  0.742000  0.388500  0.193300  1
  H  H2015  1  0.742000  0.804800  0.611500  1
  H  H2016  1  0.742000  0.806700  0.195200  1
  H  H2017  1  0.267100  0.577900  0.798500  1
  H  H2018  1  0.267100  0.220600  0.422100  1
  H  H2019  1  0.267100  0.201500  0.779400  1
  H  H2020  1  0.732900  0.422100  0.201500  1
  H  H2021  1  0.732900  0.779400  0.577900  1
  H  H2022  1  0.732900  0.798500  0.220600  1
  H  H2023  1  0.209500  0.588300  0.793400  1
  H  H2024  1  0.209500  0.205100  0.411700  1
  H  H2025  1  0.209500  0.206600  0.794900  1
  H  H2026  1  0.790500  0.411700  0.206600  1
  H  H2027  1  0.790500  0.794900  0.588300  1
  H  H2028  1  0.790500  0.793400  0.205100  1
  H  H2029  1  0.456900  0.678800  0.997900  1
  H  H2030  1  0.456900  0.319100  0.321200  1
  H  H2031  1  0.456900  0.002100  0.680900  1
  H  H2032  1  0.543100  0.321200  0.002100  1
  H  H2033  1  0.543100  0.680900  0.678800  1
  H  H2034  1  0.543100  0.997900  0.319100  1
  H  H2035  1  0.461300  0.652400  0.005000  1
  H  H2036  1  0.461300  0.352600  0.347600  1
  H  H2037  1  0.461300  0.995000  0.647400  1
  H  H2038  1  0.538700  0.347600  0.995000  1
  H  H2039  1  0.538700  0.647400  0.652400  1
  H  H2040  1  0.538700  0.005000  0.352600  1
  H  H2041  1  0.453000  0.685700  0.031400  1
  H  H2042  1  0.453000  0.345700  0.314300  1
  H  H2043  1  0.453000  0.968600  0.654300  1
  H  H2044  1  0.547000  0.314300  0.968600  1
  H  H2045  1  0.547000  0.654300  0.685700  1
  H  H2046  1  0.547000  0.031400  0.345700  1
  H  H2047  1  0.130200  0.557200  0.937200  1
  H  H2048  1  0.130200  0.380000  0.442800  1
  H  H2049  1  0.130200  0.062800  0.620000  1
  H  H2050  1  0.869800  0.442800  0.062800  1
  H  H2051  1  0.869800  0.620000  0.557200  1
  H  H2052  1  0.869800  0.937200  0.380000  1
  H  H2053  1  0.169100  0.530900  0.934000  1
  H  H2054  1  0.169100  0.403100  0.469100  1
  H  H2055  1  0.169100  0.066000  0.596900  1
  H  H2056  1  0.830900  0.469100  0.066000  1
  H  H2057  1  0.830900  0.596900  0.530900  1
  H  H2058  1  0.830900  0.934000  0.403100  1
  H  H2059  1  0.051200  0.530100  0.938700  1
  H  H2060  1  0.051200  0.408600  0.469900  1
  H  H2061  1  0.051200  0.061300  0.591400  1
  H  H2062  1  0.948800  0.469900  0.061300  1
  H  H2063  1  0.948800  0.591400  0.530100  1
  H  H2064  1  0.948800  0.938700  0.408600  1
  H  H2065  1  0.089300  0.504200  0.937100  1
  H  H2066  1  0.089300  0.432900  0.495800  1
  H  H2067  1  0.089300  0.062900  0.567100  1
  H  H2068  1  0.910700  0.495800  0.062900  1
  H  H2069  1  0.910700  0.567100  0.504200  1
  H  H2070  1  0.910700  0.937100  0.432900  1
  H  H2071  1  0.113700  0.380900  0.689400  1
  H  H2072  1  0.113700  0.308500  0.619100  1
  H  H2073  1  0.113700  0.310600  0.691500  1
  H  H2074  1  0.886300  0.619100  0.310600  1
  H  H2075  1  0.886300  0.691500  0.380900  1
  H  H2076  1  0.886300  0.689400  0.308500  1
  H  H2077  1  0.128800  0.370300  0.641100  1
  H  H2078  1  0.128800  0.270800  0.629700  1
  H  H2079  1  0.128800  0.358900  0.729200  1
  H  H2080  1  0.871200  0.629700  0.358900  1
  H  H2081  1  0.871200  0.729200  0.370300  1
  H  H2082  1  0.871200  0.641100  0.270800  1
  H  H2083  1  0.154700  0.410500  0.633000  1
  H  H2084  1  0.154700  0.222500  0.589500  1
  H  H2085  1  0.154700  0.367000  0.777500  1
  H  H2086  1  0.845300  0.589500  0.367000  1
  H  H2087  1  0.845300  0.777500  0.410500  1
  H  H2088  1  0.845300  0.633000  0.222500  1
  C  C2089  1  0.709200  0.498900  0.819700  1
  C  C2090  1  0.709200  0.320800  0.501100  1
  C  C2091  1  0.709200  0.180300  0.679200  1
  C  C2092  1  0.290800  0.501100  0.180300  1
  C  C2093  1  0.290800  0.679200  0.498900  1
  C  C2094  1  0.290800  0.819700  0.320800  1
  C  C2095  1  0.688500  0.537400  0.807190  1
  C  C2096  1  0.688500  0.269790  0.462600  1
  C  C2097  1  0.688500  0.192810  0.730210  1
  C  C2098  1  0.311500  0.462600  0.192810  1
  C  C2099  1  0.311500  0.730210  0.537400  1
  C  C2100  1  0.311500  0.807190  0.269790  1
  C  C2101  1  0.730600  0.530200  0.787500  1
  C  C2102  1  0.730600  0.257300  0.469800  1
  C  C2103  1  0.730600  0.212500  0.742700  1
  C  C2104  1  0.269400  0.469800  0.212500  1
  C  C2105  1  0.269400  0.742700  0.530200  1
  C  C2106  1  0.269400  0.787500  0.257300  1
  C  C2107  1  0.740700  0.546000  0.773200  1
  C  C2108  1  0.740700  0.227200  0.454000  1
  C  C2109  1  0.740700  0.226800  0.772800  1
  C  C2110  1  0.259300  0.454000  0.226800  1
  C  C2111  1  0.259300  0.772800  0.546000  1
  C  C2112  1  0.259300  0.773200  0.227200  1
  C  C2113  1  0.704500  0.568400  0.776600  1
  C  C2114  1  0.704500  0.208200  0.431600  1
  C  C2115  1  0.704500  0.223400  0.791800  1
  C  C2116  1  0.295500  0.431600  0.223400  1
  C  C2117  1  0.295500  0.791800  0.568400  1
  C  C2118  1  0.295500  0.776600  0.208200  1
  C  C2119  1  0.658700  0.575400  0.795700  1
  C  C2120  1  0.658700  0.220300  0.424600  1
  C  C2121  1  0.658700  0.204300  0.779700  1
  C  C2122  1  0.341300  0.424600  0.204300  1
  C  C2123  1  0.341300  0.779700  0.575400  1
  C  C2124  1  0.341300  0.795700  0.220300  1
  C  C2125  1  0.649100  0.559900  0.811000  1
  C  C2126  1  0.649100  0.251100  0.440100  1
  C  C2127  1  0.649100  0.189000  0.748900  1
  C  C2128  1  0.350900  0.440100  0.189000  1
  C  C2129  1  0.350900  0.748900  0.559900  1
  C  C2130  1  0.350900  0.811000  0.251100  1
  C  C2131  1  0.625000  0.599900  0.798800  1
  C  C2132  1  0.625000  0.198900  0.400100  1
  C  C2133  1  0.625000  0.201200  0.801100  1
  C  C2134  1  0.375000  0.400100  0.201200  1
  C  C2135  1  0.375000  0.801100  0.599900  1
  C  C2136  1  0.375000  0.798800  0.198900  1
  C  C2137  1  0.557900  0.638400  0.815810  1
  C  C2138  1  0.557900  0.177410  0.361600  1
  C  C2139  1  0.557900  0.184190  0.822590  1
  C  C2140  1  0.442100  0.361600  0.184190  1
  C  C2141  1  0.442100  0.822590  0.638400  1
  C  C2142  1  0.442100  0.815810  0.177410  1
  C  C2143  1  0.514100  0.626200  0.790900  1
  C  C2144  1  0.514100  0.164700  0.373800  1
  C  C2145  1  0.514100  0.209100  0.835300  1
  C  C2146  1  0.485900  0.373800  0.209100  1
  C  C2147  1  0.485900  0.835300  0.626200  1
  C  C2148  1  0.485900  0.790900  0.164700  1
  C  C2149  1  0.475500  0.651300  0.794590  1
  C  C2150  1  0.475500  0.143290  0.348700  1
  C  C2151  1  0.475500  0.205410  0.856710  1
  C  C2152  1  0.524500  0.348700  0.205410  1
  C  C2153  1  0.524500  0.856710  0.651300  1
  C  C2154  1  0.524500  0.794590  0.143290  1
  C  C2155  1  0.433500  0.641200  0.769300  1
  C  C2156  1  0.433500  0.128100  0.358800  1
  C  C2157  1  0.433500  0.230700  0.871900  1
  C  C2158  1  0.566500  0.358800  0.230700  1
  C  C2159  1  0.566500  0.871900  0.641200  1
  C  C2160  1  0.566500  0.769300  0.128100  1
  C  C2161  1  0.385100  0.662300  0.776900  1
  C  C2162  1  0.385100  0.114600  0.337700  1
  C  C2163  1  0.385100  0.223100  0.885400  1
  C  C2164  1  0.614900  0.337700  0.223100  1
  C  C2165  1  0.614900  0.885400  0.662300  1
  C  C2166  1  0.614900  0.776900  0.114600  1
  C  C2167  1  0.349600  0.654000  0.749900  1
  C  C2168  1  0.349600  0.095900  0.346000  1
  C  C2169  1  0.349600  0.250100  0.904100  1
  C  C2170  1  0.650400  0.346000  0.250100  1
  C  C2171  1  0.650400  0.904100  0.654000  1
  C  C2172  1  0.650400  0.749900  0.095900  1
  C  C2173  1  0.289500  0.691800  0.752500  1
  C  C2174  1  0.289500  0.060700  0.308200  1
  C  C2175  1  0.289500  0.247500  0.939300  1
  C  C2176  1  0.710500  0.308200  0.247500  1
  C  C2177  1  0.710500  0.939300  0.691800  1
  C  C2178  1  0.710500  0.752500  0.060700  1
  C  C2179  1  0.242200  0.710200  0.758560  1
  C  C2180  1  0.242200  0.048360  0.289800  1
  C  C2181  1  0.242200  0.241440  0.951640  1
  C  C2182  1  0.757800  0.289800  0.241440  1
  C  C2183  1  0.757800  0.951640  0.710200  1
  C  C2184  1  0.757800  0.758560  0.048360  1
  C  C2185  1  0.241600  0.728700  0.744900  1
  C  C2186  1  0.241600  0.016200  0.271300  1
  C  C2187  1  0.241600  0.255100  0.983800  1
  C  C2188  1  0.758400  0.271300  0.255100  1
  C  C2189  1  0.758400  0.983800  0.728700  1
  C  C2190  1  0.758400  0.744900  0.016200  1
  C  C2191  1  0.197700  0.747200  0.749300  1
  C  C2192  1  0.197700  0.002100  0.252800  1
  C  C2193  1  0.197700  0.250700  0.997900  1
  C  C2194  1  0.802300  0.252800  0.250700  1
  C  C2195  1  0.802300  0.997900  0.747200  1
  C  C2196  1  0.802300  0.749300  0.002100  1
  C  C2197  1  0.155200  0.749300  0.767300  1
  C  C2198  1  0.155200  0.018000  0.250700  1
  C  C2199  1  0.155200  0.232700  0.982000  1
  C  C2200  1  0.844800  0.250700  0.232700  1
  C  C2201  1  0.844800  0.982000  0.749300  1
  C  C2202  1  0.844800  0.767300  0.018000  1
  C  C2203  1  0.155500  0.733000  0.781400  1
  C  C2204  1  0.155500  0.048400  0.267000  1
  C  C2205  1  0.155500  0.218600  0.951600  1
  C  C2206  1  0.844500  0.267000  0.218600  1
  C  C2207  1  0.844500  0.951600  0.733000  1
  C  C2208  1  0.844500  0.781400  0.048400  1
  C  C2209  1  0.197400  0.712600  0.776700  1
  C  C2210  1  0.197400  0.064100  0.287400  1
  C  C2211  1  0.197400  0.223300  0.935900  1
  C  C2212  1  0.802600  0.287400  0.223300  1
  C  C2213  1  0.802600  0.935900  0.712600  1
  C  C2214  1  0.802600  0.776700  0.064100  1
  C  C2215  1  0.065300  0.750800  0.803900  1
  C  C2216  1  0.065300  0.053100  0.249200  1
  C  C2217  1  0.065300  0.196100  0.946900  1
  C  C2218  1  0.934700  0.249200  0.196100  1
  C  C2219  1  0.934700  0.946900  0.750800  1
  C  C2220  1  0.934700  0.803900  0.053100  1
  C  C2221  1  0.714000  0.609700  0.867200  1
  C  C2222  1  0.714000  0.257500  0.390300  1
  C  C2223  1  0.714000  0.132800  0.742500  1
  C  C2224  1  0.286000  0.390300  0.132800  1
  C  C2225  1  0.286000  0.742500  0.609700  1
  C  C2226  1  0.286000  0.867200  0.257500  1
  C  C2227  1  0.672400  0.653530  0.870000  1
  C  C2228  1  0.672400  0.216470  0.346470  1
  C  C2229  1  0.672400  0.130000  0.783530  1
  C  C2230  1  0.327600  0.346470  0.130000  1
  C  C2231  1  0.327600  0.783530  0.653530  1
  C  C2232  1  0.327600  0.870000  0.216470  1
  C  C2233  1  0.721300  0.663400  0.864800  1
  C  C2234  1  0.721300  0.201400  0.336600  1
  C  C2235  1  0.721300  0.135200  0.798600  1
  C  C2236  1  0.278700  0.336600  0.135200  1
  C  C2237  1  0.278700  0.798600  0.663400  1
  C  C2238  1  0.278700  0.864800  0.201400  1
  C  C2239  1  0.722800  0.692600  0.868000  1
  C  C2240  1  0.722800  0.175400  0.307400  1
  C  C2241  1  0.722800  0.132000  0.824600  1
  C  C2242  1  0.277200  0.307400  0.132000  1
  C  C2243  1  0.277200  0.824600  0.692600  1
  C  C2244  1  0.277200  0.868000  0.175400  1
  C  C2245  1  0.676900  0.709500  0.875600  1
  C  C2246  1  0.676900  0.166100  0.290500  1
  C  C2247  1  0.676900  0.124400  0.833900  1
  C  C2248  1  0.323100  0.290500  0.124400  1
  C  C2249  1  0.323100  0.833900  0.709500  1
  C  C2250  1  0.323100  0.875600  0.166100  1
  C  C2251  1  0.626400  0.700000  0.882230  1
  C  C2252  1  0.626400  0.182230  0.300000  1
  C  C2253  1  0.626400  0.117770  0.817770  1
  C  C2254  1  0.373600  0.300000  0.117770  1
  C  C2255  1  0.373600  0.817770  0.700000  1
  C  C2256  1  0.373600  0.882230  0.182230  1
  C  C2257  1  0.624800  0.671500  0.878680  1
  C  C2258  1  0.624800  0.207180  0.328500  1
  C  C2259  1  0.624800  0.121320  0.792820  1
  C  C2260  1  0.375200  0.328500  0.121320  1
  C  C2261  1  0.375200  0.792820  0.671500  1
  C  C2262  1  0.375200  0.878680  0.207180  1
  C  C2263  1  0.580300  0.720900  0.889200  1
  C  C2264  1  0.580300  0.168300  0.279100  1
  C  C2265  1  0.580300  0.110800  0.831700  1
  C  C2266  1  0.419700  0.279100  0.110800  1
  C  C2267  1  0.419700  0.831700  0.720900  1
  C  C2268  1  0.419700  0.889200  0.168300  1
  C  C2269  1  0.493100  0.741100  0.901000  1
  C  C2270  1  0.493100  0.159900  0.258900  1
  C  C2271  1  0.493100  0.099000  0.840100  1
  C  C2272  1  0.506900  0.258900  0.099000  1
  C  C2273  1  0.506900  0.840100  0.741100  1
  C  C2274  1  0.506900  0.901000  0.159900  1
  C  C2275  1  0.451100  0.728400  0.875600  1
  C  C2276  1  0.451100  0.147200  0.271600  1
  C  C2277  1  0.451100  0.124400  0.852800  1
  C  C2278  1  0.548900  0.271600  0.124400  1
  C  C2279  1  0.548900  0.852800  0.728400  1
  C  C2280  1  0.548900  0.875600  0.147200  1
  C  C2281  1  0.400100  0.747400  0.882400  1
  C  C2282  1  0.400100  0.135000  0.252600  1
  C  C2283  1  0.400100  0.117600  0.865000  1
  C  C2284  1  0.599900  0.252600  0.117600  1
  C  C2285  1  0.599900  0.865000  0.747400  1
  C  C2286  1  0.599900  0.882400  0.135000  1
  C  C2287  1  0.360200  0.736100  0.856400  1
  C  C2288  1  0.360200  0.120300  0.263900  1
  C  C2289  1  0.360200  0.143600  0.879700  1
  C  C2290  1  0.639800  0.263900  0.143600  1
  C  C2291  1  0.639800  0.879700  0.736100  1
  C  C2292  1  0.639800  0.856400  0.120300  1
  C  C2293  1  0.305100  0.752000  0.864900  1
  C  C2294  1  0.305100  0.112900  0.248000  1
  C  C2295  1  0.305100  0.135100  0.887100  1
  C  C2296  1  0.694900  0.248000  0.135100  1
  C  C2297  1  0.694900  0.887100  0.752000  1
  C  C2298  1  0.694900  0.864900  0.112900  1
  C  C2299  1  0.268800  0.743600  0.838200  1
  C  C2300  1  0.268800  0.094600  0.256400  1
  C  C2301  1  0.268800  0.161800  0.905400  1
  C  C2302  1  0.731200  0.256400  0.161800  1
  C  C2303  1  0.731200  0.905400  0.743600  1
  C  C2304  1  0.731200  0.838200  0.094600  1
  C  C2305  1  0.201700  0.780300  0.859500  1
  C  C2306  1  0.201700  0.079200  0.219700  1
  C  C2307  1  0.201700  0.140500  0.920800  1
  C  C2308  1  0.798300  0.219700  0.140500  1
  C  C2309  1  0.798300  0.920800  0.780300  1
  C  C2310  1  0.798300  0.859500  0.079200  1
  C  C2311  1  0.151600  0.796800  0.872800  1
  C  C2312  1  0.151600  0.076000  0.203200  1
  C  C2313  1  0.151600  0.127200  0.924000  1
  C  C2314  1  0.848400  0.203200  0.127200  1
  C  C2315  1  0.848400  0.924000  0.796800  1
  C  C2316  1  0.848400  0.872800  0.076000  1
  C  C2317  1  0.152800  0.828600  0.885500  1
  C  C2318  1  0.152800  0.056900  0.171400  1
  C  C2319  1  0.152800  0.114500  0.943100  1
  C  C2320  1  0.847200  0.171400  0.114500  1
  C  C2321  1  0.847200  0.943100  0.828600  1
  C  C2322  1  0.847200  0.885500  0.056900  1
  C  C2323  1  0.107100  0.845900  0.898900  1
  C  C2324  1  0.107100  0.053000  0.154100  1
  C  C2325  1  0.107100  0.101100  0.947000  1
  C  C2326  1  0.892900  0.154100  0.101100  1
  C  C2327  1  0.892900  0.947000  0.845900  1
  C  C2328  1  0.892900  0.898900  0.053000  1
  C  C2329  1  0.058000  0.832100  0.899200  1
  C  C2330  1  0.058000  0.067100  0.167900  1
  C  C2331  1  0.058000  0.100800  0.932900  1
  C  C2332  1  0.942000  0.167900  0.100800  1
  C  C2333  1  0.942000  0.932900  0.832100  1
  C  C2334  1  0.942000  0.899200  0.067100  1
  C  C2335  1  0.057000  0.801700  0.887900  1
  C  C2336  1  0.057000  0.086200  0.198300  1
  C  C2337  1  0.057000  0.112100  0.913800  1
  C  C2338  1  0.943000  0.198300  0.112100  1
  C  C2339  1  0.943000  0.913800  0.801700  1
  C  C2340  1  0.943000  0.887900  0.086200  1
  C  C2341  1  0.103400  0.783700  0.875500  1
  C  C2342  1  0.103400  0.091800  0.216300  1
  C  C2343  1  0.103400  0.124500  0.908200  1
  C  C2344  1  0.896600  0.216300  0.124500  1
  C  C2345  1  0.896600  0.908200  0.783700  1
  C  C2346  1  0.896600  0.875500  0.091800  1
  C  C2347  1  0.960800  0.803400  0.900000  1
  C  C2348  1  0.960800  0.096600  0.196600  1
  C  C2349  1  0.960800  0.100000  0.903400  1
  C  C2350  1  0.039200  0.196600  0.100000  1
  C  C2351  1  0.039200  0.903400  0.803400  1
  C  C2352  1  0.039200  0.900000  0.096600  1
  C  C2353  1  0.670700  0.778400  0.962000  1
  C  C2354  1  0.670700  0.183600  0.221600  1
  C  C2355  1  0.670700  0.038000  0.816400  1
  C  C2356  1  0.329300  0.221600  0.038000  1
  C  C2357  1  0.329300  0.816400  0.778400  1
  C  C2358  1  0.329300  0.962000  0.183600  1
  C  C2359  1  0.581700  0.800100  0.962200  1
  C  C2360  1  0.581700  0.162100  0.199900  1
  C  C2361  1  0.581700  0.037800  0.837900  1
  C  C2362  1  0.418300  0.199900  0.037800  1
  C  C2363  1  0.418300  0.837900  0.800100  1
  C  C2364  1  0.418300  0.962200  0.162100  1
  C  C2365  1  0.602200  0.818700  0.952000  1
  C  C2366  1  0.602200  0.133300  0.181300  1
  C  C2367  1  0.602200  0.048000  0.866700  1
  C  C2368  1  0.397800  0.181300  0.048000  1
  C  C2369  1  0.397800  0.866700  0.818700  1
  C  C2370  1  0.397800  0.952000  0.133300  1
  C  C2371  1  0.567100  0.835600  0.946200  1
  C  C2372  1  0.567100  0.110600  0.164400  1
  C  C2373  1  0.567100  0.053800  0.889400  1
  C  C2374  1  0.432900  0.164400  0.053800  1
  C  C2375  1  0.432900  0.889400  0.835600  1
  C  C2376  1  0.432900  0.946200  0.110600  1
  C  C2377  1  0.511100  0.836300  0.951800  1
  C  C2378  1  0.511100  0.115500  0.163700  1
  C  C2379  1  0.511100  0.048200  0.884500  1
  C  C2380  1  0.488900  0.163700  0.048200  1
  C  C2381  1  0.488900  0.884500  0.836300  1
  C  C2382  1  0.488900  0.951800  0.115500  1
  C  C2383  1  0.489200  0.818800  0.963900  1
  C  C2384  1  0.489200  0.145100  0.181200  1
  C  C2385  1  0.489200  0.036100  0.854900  1
  C  C2386  1  0.510800  0.181200  0.036100  1
  C  C2387  1  0.510800  0.854900  0.818800  1
  C  C2388  1  0.510800  0.963900  0.145100  1
  C  C2389  1  0.525800  0.799800  0.969400  1
  C  C2390  1  0.525800  0.169600  0.200200  1
  C  C2391  1  0.525800  0.030600  0.830400  1
  C  C2392  1  0.474200  0.200200  0.030600  1
  C  C2393  1  0.474200  0.830400  0.799800  1
  C  C2394  1  0.474200  0.969400  0.169600  1
  C  C2395  1  0.430700  0.820500  0.968100  1
  C  C2396  1  0.430700  0.147600  0.179500  1
  C  C2397  1  0.430700  0.031900  0.852400  1
  C  C2398  1  0.569300  0.179500  0.031900  1
  C  C2399  1  0.569300  0.852400  0.820500  1
  C  C2400  1  0.569300  0.968100  0.147600  1
  C  C2401  1  0.340100  0.813800  0.980600  1
  C  C2402  1  0.340100  0.166800  0.186200  1
  C  C2403  1  0.340100  0.019400  0.833200  1
  C  C2404  1  0.659900  0.186200  0.019400  1
  C  C2405  1  0.659900  0.833200  0.813800  1
  C  C2406  1  0.659900  0.980600  0.166800  1
  C  C2407  1  0.310000  0.785000  0.958400  1
  C  C2408  1  0.310000  0.173400  0.215000  1
  C  C2409  1  0.310000  0.041600  0.826600  1
  C  C2410  1  0.690000  0.215000  0.041600  1
  C  C2411  1  0.690000  0.826600  0.785000  1
  C  C2412  1  0.690000  0.958400  0.173400  1
  C  C2413  1  0.248100  0.788400  0.962900  1
  C  C2414  1  0.248100  0.174500  0.211600  1
  C  C2415  1  0.248100  0.037100  0.825500  1
  C  C2416  1  0.751900  0.211600  0.037100  1
  C  C2417  1  0.751900  0.825500  0.788400  1
  C  C2418  1  0.751900  0.962900  0.174500  1
  C  C2419  1  0.219100  0.759800  0.938700  1
  C  C2420  1  0.219100  0.178900  0.240200  1
  C  C2421  1  0.219100  0.061300  0.821100  1
  C  C2422  1  0.780900  0.240200  0.061300  1
  C  C2423  1  0.780900  0.821100  0.759800  1
  C  C2424  1  0.780900  0.938700  0.178900  1
  C  C2425  1  0.158000  0.759300  0.943300  1
  C  C2426  1  0.158000  0.184000  0.240700  1
  C  C2427  1  0.158000  0.056700  0.816000  1
  C  C2428  1  0.842000  0.240700  0.056700  1
  C  C2429  1  0.842000  0.816000  0.759300  1
  C  C2430  1  0.842000  0.943300  0.184000  1
  C  C2431  1  0.127300  0.783900  0.942200  1
  C  C2432  1  0.127300  0.158300  0.216100  1
  C  C2433  1  0.127300  0.057800  0.841700  1
  C  C2434  1  0.872700  0.216100  0.057800  1
  C  C2435  1  0.872700  0.841700  0.783900  1
  C  C2436  1  0.872700  0.942200  0.158300  1
  C  C2437  1  0.035100  0.794400  0.958700  1
  C  C2438  1  0.035100  0.164300  0.205600  1
  C  C2439  1  0.035100  0.041300  0.835700  1
  C  C2440  1  0.964900  0.205600  0.041300  1
  C  C2441  1  0.964900  0.835700  0.794400  1
  C  C2442  1  0.964900  0.958700  0.164300  1
  C  C2443  1  0.975800  0.792600  0.960800  1
  C  C2444  1  0.975800  0.168200  0.207400  1
  C  C2445  1  0.975800  0.039200  0.831800  1
  C  C2446  1  0.024200  0.207400  0.039200  1
  C  C2447  1  0.024200  0.831800  0.792600  1
  C  C2448  1  0.024200  0.960800  0.168200  1
  C  C2449  1  0.951500  0.818200  0.985100  1
  C  C2450  1  0.951500  0.166900  0.181800  1
  C  C2451  1  0.951500  0.014900  0.833100  1
  C  C2452  1  0.048500  0.181800  0.014900  1
  C  C2453  1  0.048500  0.833100  0.818200  1
  C  C2454  1  0.048500  0.985100  0.166900  1
  C  C2455  1  0.897000  0.820100  0.989000  1
  C  C2456  1  0.897000  0.168900  0.179900  1
  C  C2457  1  0.897000  0.011000  0.831100  1
  C  C2458  1  0.103000  0.179900  0.011000  1
  C  C2459  1  0.103000  0.831100  0.820100  1
  C  C2460  1  0.103000  0.989000  0.168900  1
  C  C2461  1  0.862200  0.797400  0.969600  1
  C  C2462  1  0.862200  0.172200  0.202600  1
  C  C2463  1  0.862200  0.030400  0.827800  1
  C  C2464  1  0.137800  0.202600  0.030400  1
  C  C2465  1  0.137800  0.827800  0.797400  1
  C  C2466  1  0.137800  0.969600  0.172200  1
  C  C2467  1  0.884300  0.771200  0.946100  1
  C  C2468  1  0.884300  0.174900  0.228800  1
  C  C2469  1  0.884300  0.053900  0.825100  1
  C  C2470  1  0.115700  0.228800  0.053900  1
  C  C2471  1  0.115700  0.825100  0.771200  1
  C  C2472  1  0.115700  0.946100  0.174900  1
  C  C2473  1  0.942200  0.768700  0.939700  1
  C  C2474  1  0.942200  0.171000  0.231300  1
  C  C2475  1  0.942200  0.060300  0.829000  1
  C  C2476  1  0.057800  0.231300  0.060300  1
  C  C2477  1  0.057800  0.829000  0.768700  1
  C  C2478  1  0.057800  0.939700  0.171000  1
  C  C2479  1  0.797200  0.750600  0.926800  1
  C  C2480  1  0.797200  0.176200  0.249400  1
  C  C2481  1  0.797200  0.073200  0.823800  1
  C  C2482  1  0.202800  0.249400  0.073200  1
  C  C2483  1  0.202800  0.823800  0.750600  1
  C  C2484  1  0.202800  0.926800  0.176200  1
  C  C2485  1  0.482800  0.843700  0.050200  1
  C  C2486  1  0.482800  0.206500  0.156300  1
  C  C2487  1  0.482800  0.949800  0.793500  1
  C  C2488  1  0.517200  0.156300  0.949800  1
  C  C2489  1  0.517200  0.793500  0.843700  1
  C  C2490  1  0.517200  0.050200  0.206500  1
  C  C2491  1  0.389000  0.836300  0.057300  1
  C  C2492  1  0.389000  0.221000  0.163700  1
  C  C2493  1  0.389000  0.942700  0.779000  1
  C  C2494  1  0.611000  0.163700  0.942700  1
  C  C2495  1  0.611000  0.779000  0.836300  1
  C  C2496  1  0.611000  0.057300  0.221000  1
  C  C2497  1  0.379400  0.866100  0.077000  1
  C  C2498  1  0.379400  0.210900  0.133900  1
  C  C2499  1  0.379400  0.923000  0.789100  1
  C  C2500  1  0.620600  0.133900  0.923000  1
  C  C2501  1  0.620600  0.789100  0.866100  1
  C  C2502  1  0.620600  0.077000  0.210900  1
  C  C2503  1  0.327600  0.875800  0.089900  1
  C  C2504  1  0.327600  0.214100  0.124200  1
  C  C2505  1  0.327600  0.910100  0.785900  1
  C  C2506  1  0.672400  0.124200  0.910100  1
  C  C2507  1  0.672400  0.785900  0.875800  1
  C  C2508  1  0.672400  0.089900  0.214100  1
  C  C2509  1  0.287500  0.855700  0.084100  1
  C  C2510  1  0.287500  0.228400  0.144300  1
  C  C2511  1  0.287500  0.915900  0.771600  1
  C  C2512  1  0.712500  0.144300  0.915900  1
  C  C2513  1  0.712500  0.771600  0.855700  1
  C  C2514  1  0.712500  0.084100  0.228400  1
  C  C2515  1  0.295300  0.824430  0.063800  1
  C  C2516  1  0.295300  0.239370  0.175570  1
  C  C2517  1  0.295300  0.936200  0.760630  1
  C  C2518  1  0.704700  0.175570  0.936200  1
  C  C2519  1  0.704700  0.760630  0.824430  1
  C  C2520  1  0.704700  0.063800  0.239370  1
  C  C2521  1  0.346600  0.814500  0.049400  1
  C  C2522  1  0.346600  0.234900  0.185500  1
  C  C2523  1  0.346600  0.950600  0.765100  1
  C  C2524  1  0.653400  0.185500  0.950600  1
  C  C2525  1  0.653400  0.765100  0.814500  1
  C  C2526  1  0.653400  0.049400  0.234900  1
  C  C2527  1  0.250300  0.803540  0.059170  1
  C  C2528  1  0.250300  0.255630  0.196460  1
  C  C2529  1  0.250300  0.940830  0.744370  1
  C  C2530  1  0.749700  0.196460  0.940830  1
  C  C2531  1  0.749700  0.744370  0.803540  1
  C  C2532  1  0.749700  0.059170  0.255630  1
  C  C2533  1  0.197300  0.761100  0.044600  1
  C  C2534  1  0.197300  0.283500  0.238900  1
  C  C2535  1  0.197300  0.955400  0.716500  1
  C  C2536  1  0.802700  0.238900  0.955400  1
  C  C2537  1  0.802700  0.716500  0.761100  1
  C  C2538  1  0.802700  0.044600  0.283500  1
  C  C2539  1  0.157900  0.760000  0.021500  1
  C  C2540  1  0.157900  0.261500  0.240000  1
  C  C2541  1  0.157900  0.978500  0.738500  1
  C  C2542  1  0.842100  0.240000  0.978500  1
  C  C2543  1  0.842100  0.738500  0.760000  1
  C  C2544  1  0.842100  0.021500  0.261500  1
  C  C2545  1  0.109300  0.739700  0.016400  1
  C  C2546  1  0.109300  0.276700  0.260300  1
  C  C2547  1  0.109300  0.983600  0.723300  1
  C  C2548  1  0.890700  0.260300  0.983600  1
  C  C2549  1  0.890700  0.723300  0.739700  1
  C  C2550  1  0.890700  0.016400  0.276700  1
  C  C2551  1  0.066600  0.739600  0.993900  1
  C  C2552  1  0.066600  0.254300  0.260400  1
  C  C2553  1  0.066600  0.006100  0.745700  1
  C  C2554  1  0.933400  0.260400  0.006100  1
  C  C2555  1  0.933400  0.745700  0.739600  1
  C  C2556  1  0.933400  0.993900  0.254300  1
  C  C2557  1  0.027300  0.712300  0.981600  1
  C  C2558  1  0.027300  0.269300  0.287700  1
  C  C2559  1  0.027300  0.018400  0.730700  1
  C  C2560  1  0.972700  0.287700  0.018400  1
  C  C2561  1  0.972700  0.730700  0.712300  1
  C  C2562  1  0.972700  0.981600  0.269300  1
  C  C2563  1  0.985200  0.714800  0.960900  1
  C  C2564  1  0.985200  0.246100  0.285200  1
  C  C2565  1  0.985200  0.039100  0.753900  1
  C  C2566  1  0.014800  0.285200  0.039100  1
  C  C2567  1  0.014800  0.753900  0.714800  1
  C  C2568  1  0.014800  0.960900  0.246100  1
  C  C2569  1  0.908600  0.683600  0.951400  1
  C  C2570  1  0.908600  0.267800  0.316400  1
  C  C2571  1  0.908600  0.048600  0.732200  1
  C  C2572  1  0.091400  0.316400  0.048600  1
  C  C2573  1  0.091400  0.732200  0.683600  1
  C  C2574  1  0.091400  0.951400  0.267800  1
  C  C2575  1  0.873500  0.657300  0.938700  1
  C  C2576  1  0.873500  0.281400  0.342700  1
  C  C2577  1  0.873500  0.061300  0.718600  1
  C  C2578  1  0.126500  0.342700  0.061300  1
  C  C2579  1  0.126500  0.718600  0.657300  1
  C  C2580  1  0.126500  0.938700  0.281400  1
  C  C2581  1  0.819900  0.661800  0.952100  1
  C  C2582  1  0.819900  0.290300  0.338200  1
  C  C2583  1  0.819900  0.047900  0.709700  1
  C  C2584  1  0.180100  0.338200  0.047900  1
  C  C2585  1  0.180100  0.709700  0.661800  1
  C  C2586  1  0.180100  0.952100  0.290300  1
  C  C2587  1  0.784100  0.638300  0.942900  1
  C  C2588  1  0.784100  0.304600  0.361700  1
  C  C2589  1  0.784100  0.057100  0.695400  1
  C  C2590  1  0.215900  0.361700  0.057100  1
  C  C2591  1  0.215900  0.695400  0.638300  1
  C  C2592  1  0.215900  0.942900  0.304600  1
  C  C2593  1  0.799200  0.608200  0.921400  1
  C  C2594  1  0.799200  0.313200  0.391800  1
  C  C2595  1  0.799200  0.078600  0.686800  1
  C  C2596  1  0.200800  0.391800  0.078600  1
  C  C2597  1  0.200800  0.686800  0.608200  1
  C  C2598  1  0.200800  0.921400  0.313200  1
  C  C2599  1  0.851000  0.603900  0.909500  1
  C  C2600  1  0.851000  0.305600  0.396100  1
  C  C2601  1  0.851000  0.090500  0.694400  1
  C  C2602  1  0.149000  0.396100  0.090500  1
  C  C2603  1  0.149000  0.694400  0.603900  1
  C  C2604  1  0.149000  0.909500  0.305600  1
  C  C2605  1  0.888800  0.628200  0.917400  1
  C  C2606  1  0.888800  0.289200  0.371800  1
  C  C2607  1  0.888800  0.082600  0.710800  1
  C  C2608  1  0.111200  0.371800  0.082600  1
  C  C2609  1  0.111200  0.710800  0.628200  1
  C  C2610  1  0.111200  0.917400  0.289200  1
  C  C2611  1  0.830900  0.552500  0.872900  1
  C  C2612  1  0.830900  0.320400  0.447500  1
  C  C2613  1  0.830900  0.127100  0.679600  1
  C  C2614  1  0.169100  0.447500  0.127100  1
  C  C2615  1  0.169100  0.679600  0.552500  1
  C  C2616  1  0.169100  0.872900  0.320400  1
  C  C2617  1  0.392300  0.798500  0.096000  1
  C  C2618  1  0.392300  0.297500  0.201500  1
  C  C2619  1  0.392300  0.904000  0.702500  1
  C  C2620  1  0.607700  0.201500  0.904000  1
  C  C2621  1  0.607700  0.702500  0.798500  1
  C  C2622  1  0.607700  0.096000  0.297500  1
  C  C2623  1  0.310900  0.773300  0.098900  1
  C  C2624  1  0.310900  0.325600  0.226700  1
  C  C2625  1  0.310900  0.901100  0.674400  1
  C  C2626  1  0.689100  0.226700  0.901100  1
  C  C2627  1  0.689100  0.674400  0.773300  1
  C  C2628  1  0.689100  0.098900  0.325600  1
  C  C2629  1  0.302600  0.795100  0.129300  1
  C  C2630  1  0.302600  0.334200  0.204900  1
  C  C2631  1  0.302600  0.870700  0.665800  1
  C  C2632  1  0.697400  0.204900  0.870700  1
  C  C2633  1  0.697400  0.665800  0.795100  1
  C  C2634  1  0.697400  0.129300  0.334200  1
  C  C2635  1  0.260400  0.789700  0.145200  1
  C  C2636  1  0.260400  0.355500  0.210300  1
  C  C2637  1  0.260400  0.854800  0.644500  1
  C  C2638  1  0.739600  0.210300  0.854800  1
  C  C2639  1  0.739600  0.644500  0.789700  1
  C  C2640  1  0.739600  0.145200  0.355500  1
  C  C2641  1  0.231900  0.763700  0.131000  1
  C  C2642  1  0.231900  0.367300  0.236300  1
  C  C2643  1  0.231900  0.869000  0.632700  1
  C  C2644  1  0.768100  0.236300  0.869000  1
  C  C2645  1  0.768100  0.632700  0.763700  1
  C  C2646  1  0.768100  0.131000  0.367300  1
  C  C2647  1  0.240200  0.741000  0.099500  1
  C  C2648  1  0.240200  0.358500  0.259000  1
  C  C2649  1  0.240200  0.900500  0.641500  1
  C  C2650  1  0.759800  0.259000  0.900500  1
  C  C2651  1  0.759800  0.641500  0.741000  1
  C  C2652  1  0.759800  0.099500  0.358500  1
  C  C2653  1  0.280700  0.746400  0.083900  1
  C  C2654  1  0.280700  0.337500  0.253600  1
  C  C2655  1  0.280700  0.916100  0.662500  1
  C  C2656  1  0.719300  0.253600  0.916100  1
  C  C2657  1  0.719300  0.662500  0.746400  1
  C  C2658  1  0.719300  0.083900  0.337500  1
  C  C2659  1  0.203300  0.715400  0.087300  1
  C  C2660  1  0.203300  0.371900  0.284600  1
  C  C2661  1  0.203300  0.912700  0.628100  1
  C  C2662  1  0.796700  0.284600  0.912700  1
  C  C2663  1  0.796700  0.628100  0.715400  1
  C  C2664  1  0.796700  0.087300  0.371900  1
  C  C2665  1  0.159900  0.670400  0.054600  1
  C  C2666  1  0.159900  0.384200  0.329600  1
  C  C2667  1  0.159900  0.945400  0.615800  1
  C  C2668  1  0.840100  0.329600  0.945400  1
  C  C2669  1  0.840100  0.615800  0.670400  1
  C  C2670  1  0.840100  0.054600  0.384200  1
  C  C2671  1  0.122200  0.671000  0.032300  1
  C  C2672  1  0.122200  0.361300  0.329000  1
  C  C2673  1  0.122200  0.967700  0.638700  1
  C  C2674  1  0.877800  0.329000  0.967700  1
  C  C2675  1  0.877800  0.638700  0.671000  1
  C  C2676  1  0.877800  0.032300  0.361300  1
  C  C2677  1  0.086300  0.642200  0.017900  1
  C  C2678  1  0.086300  0.375700  0.357800  1
  C  C2679  1  0.086300  0.982100  0.624300  1
  C  C2680  1  0.913700  0.357800  0.982100  1
  C  C2681  1  0.913700  0.624300  0.642200  1
  C  C2682  1  0.913700  0.017900  0.375700  1
  C  C2683  1  0.039000  0.644300  0.998200  1
  C  C2684  1  0.039000  0.353900  0.355700  1
  C  C2685  1  0.039000  0.001800  0.646100  1
  C  C2686  1  0.961000  0.355700  0.001800  1
  C  C2687  1  0.961000  0.646100  0.644300  1
  C  C2688  1  0.961000  0.998200  0.353900  1
  C  C2689  1  0.015200  0.613000  0.977900  1
  C  C2690  1  0.015200  0.364900  0.387000  1
  C  C2691  1  0.015200  0.022100  0.635100  1
  C  C2692  1  0.984800  0.387000  0.022100  1
  C  C2693  1  0.984800  0.635100  0.613000  1
  C  C2694  1  0.984800  0.977900  0.364900  1
  C  C2695  1  0.966400  0.615300  0.959600  1
  C  C2696  1  0.966400  0.344300  0.384700  1
  C  C2697  1  0.966400  0.040400  0.655700  1
  C  C2698  1  0.033600  0.384700  0.040400  1
  C  C2699  1  0.033600  0.655700  0.615300  1
  C  C2700  1  0.033600  0.959600  0.344300  1
  C  C2701  1  0.931300  0.567800  0.941500  1
  C  C2702  1  0.931300  0.373700  0.432200  1
  C  C2703  1  0.931300  0.058500  0.626300  1
  C  C2704  1  0.068700  0.432200  0.058500  1
  C  C2705  1  0.068700  0.626300  0.567800  1
  C  C2706  1  0.068700  0.941500  0.373700  1
  C  C2707  1  0.912600  0.536500  0.921800  1
  C  C2708  1  0.912600  0.385300  0.463500  1
  C  C2709  1  0.912600  0.078200  0.614700  1
  C  C2710  1  0.087400  0.463500  0.078200  1
  C  C2711  1  0.087400  0.614700  0.536500  1
  C  C2712  1  0.087400  0.921800  0.385300  1
  C  C2713  1  0.882500  0.522300  0.936500  1
  C  C2714  1  0.882500  0.414200  0.477700  1
  C  C2715  1  0.882500  0.063500  0.585800  1
  C  C2716  1  0.117500  0.477700  0.063500  1
  C  C2717  1  0.117500  0.585800  0.522300  1
  C  C2718  1  0.117500  0.936500  0.414200  1
  C  C2719  1  0.864000  0.493800  0.918600  1
  C  C2720  1  0.864000  0.424800  0.506200  1
  C  C2721  1  0.864000  0.081400  0.575200  1
  C  C2722  1  0.136000  0.506200  0.081400  1
  C  C2723  1  0.136000  0.575200  0.493800  1
  C  C2724  1  0.136000  0.918600  0.424800  1
  C  C2725  1  0.871500  0.478900  0.887600  1
  C  C2726  1  0.871500  0.408700  0.521100  1
  C  C2727  1  0.871500  0.112400  0.591300  1
  C  C2728  1  0.128500  0.521100  0.112400  1
  C  C2729  1  0.128500  0.591300  0.478900  1
  C  C2730  1  0.128500  0.887600  0.408700  1
  C  C2731  1  0.900700  0.491400  0.874900  1
  C  C2732  1  0.900700  0.383500  0.508600  1
  C  C2733  1  0.900700  0.125100  0.616500  1
  C  C2734  1  0.099300  0.508600  0.125100  1
  C  C2735  1  0.099300  0.616500  0.491400  1
  C  C2736  1  0.099300  0.874900  0.383500  1
  C  C2737  1  0.923200  0.520200  0.891300  1
  C  C2738  1  0.923200  0.371100  0.479800  1
  C  C2739  1  0.923200  0.108700  0.628900  1
  C  C2740  1  0.076800  0.479800  0.108700  1
  C  C2741  1  0.076800  0.628900  0.520200  1
  C  C2742  1  0.076800  0.891300  0.371100  1
  C  C2743  1  0.886900  0.447500  0.823600  1
  C  C2744  1  0.886900  0.376100  0.552500  1
  C  C2745  1  0.886900  0.176400  0.623900  1
  C  C2746  1  0.113100  0.552500  0.176400  1
  C  C2747  1  0.113100  0.623900  0.447500  1
  C  C2748  1  0.113100  0.823600  0.376100  1
  C  C2749  1  0.249300  0.701200  0.151600  1
  C  C2750  1  0.249300  0.450400  0.298800  1
  C  C2751  1  0.249300  0.848400  0.549600  1
  C  C2752  1  0.750700  0.298800  0.848400  1
  C  C2753  1  0.750700  0.549600  0.701200  1
  C  C2754  1  0.750700  0.151600  0.450400  1
  C  C2755  1  0.192100  0.660600  0.116100  1
  C  C2756  1  0.192100  0.455500  0.339400  1
  C  C2757  1  0.192100  0.883900  0.544500  1
  C  C2758  1  0.807900  0.339400  0.883900  1
  C  C2759  1  0.807900  0.544500  0.660600  1
  C  C2760  1  0.807900  0.116100  0.455500  1
  C  C2761  1  0.146000  0.672200  0.132600  1
  C  C2762  1  0.146000  0.460400  0.327800  1
  C  C2763  1  0.146000  0.867400  0.539600  1
  C  C2764  1  0.854000  0.327800  0.867400  1
  C  C2765  1  0.854000  0.539600  0.672200  1
  C  C2766  1  0.854000  0.132600  0.460400  1
  C  C2767  1  0.095600  0.658000  0.123000  1
  C  C2768  1  0.095600  0.465000  0.342000  1
  C  C2769  1  0.095600  0.877000  0.535000  1
  C  C2770  1  0.904400  0.342000  0.877000  1
  C  C2771  1  0.904400  0.535000  0.658000  1
  C  C2772  1  0.904400  0.123000  0.465000  1
  C  C2773  1  0.094700  0.631600  0.096900  1
  C  C2774  1  0.094700  0.465300  0.368400  1
  C  C2775  1  0.094700  0.903100  0.534700  1
  C  C2776  1  0.905300  0.368400  0.903100  1
  C  C2777  1  0.905300  0.534700  0.631600  1
  C  C2778  1  0.905300  0.096900  0.465300  1
  C  C2779  1  0.139900  0.617600  0.078900  1
  C  C2780  1  0.139900  0.461300  0.382400  1
  C  C2781  1  0.139900  0.921100  0.538700  1
  C  C2782  1  0.860100  0.382400  0.921100  1
  C  C2783  1  0.860100  0.538700  0.617600  1
  C  C2784  1  0.860100  0.078900  0.461300  1
  C  C2785  1  0.188800  0.632700  0.088500  1
  C  C2786  1  0.188800  0.455800  0.367300  1
  C  C2787  1  0.188800  0.911500  0.544200  1
  C  C2788  1  0.811200  0.367300  0.911500  1
  C  C2789  1  0.811200  0.544200  0.632700  1
  C  C2790  1  0.811200  0.088500  0.455800  1
  C  C2791  1  0.129300  0.590800  0.050700  1
  C  C2792  1  0.129300  0.459900  0.409200  1
  C  C2793  1  0.129300  0.949300  0.540100  1
  C  C2794  1  0.870700  0.409200  0.949300  1
  C  C2795  1  0.870700  0.540100  0.590800  1
  C  C2796  1  0.870700  0.050700  0.459900  1
  C  C2797  1  0.139400  0.547800  0.001200  1
  C  C2798  1  0.139400  0.453400  0.452200  1
  C  C2799  1  0.139400  0.998800  0.546600  1
  C  C2800  1  0.860600  0.452200  0.998800  1
  C  C2801  1  0.860600  0.546600  0.547800  1
  C  C2802  1  0.860600  0.001200  0.453400  1
  C  C2803  1  0.131700  0.554600  0.977900  1
  C  C2804  1  0.131700  0.423300  0.445400  1
  C  C2805  1  0.131700  0.022100  0.576700  1
  C  C2806  1  0.868300  0.445400  0.022100  1
  C  C2807  1  0.868300  0.576700  0.554600  1
  C  C2808  1  0.868300  0.977900  0.423300  1
  C  C2809  1  0.114900  0.525900  0.948200  1
  C  C2810  1  0.114900  0.422300  0.474100  1
  C  C2811  1  0.114900  0.051800  0.577700  1
  C  C2812  1  0.885100  0.474100  0.051800  1
  C  C2813  1  0.885100  0.577700  0.525900  1
  C  C2814  1  0.885100  0.948200  0.422300  1
  C  C2815  1  0.103200  0.534700  0.925300  1
  C  C2816  1  0.103200  0.390600  0.465300  1
  C  C2817  1  0.103200  0.074700  0.609400  1
  C  C2818  1  0.896800  0.465300  0.074700  1
  C  C2819  1  0.896800  0.609400  0.534700  1
  C  C2820  1  0.896800  0.925300  0.390600  1
  C  C2821  1  0.177600  0.386900  0.683900  1
  C  C2822  1  0.177600  0.297000  0.613100  1
  C  C2823  1  0.177600  0.316100  0.703000  1
  C  C2824  1  0.822400  0.613100  0.316100  1
  C  C2825  1  0.822400  0.703000  0.386900  1
  C  C2826  1  0.822400  0.683900  0.297000  1
  C  C2827  1  0.197600  0.379900  0.653800  1
  C  C2828  1  0.197600  0.273900  0.620100  1
  C  C2829  1  0.197600  0.346200  0.726100  1
  C  C2830  1  0.802400  0.620100  0.346200  1
  C  C2831  1  0.802400  0.726100  0.379900  1
  C  C2832  1  0.802400  0.653800  0.273900  1
  C  C2833  1  0.205200  0.403500  0.646700  1
  C  C2834  1  0.205200  0.243200  0.596500  1
  C  C2835  1  0.205200  0.353300  0.756800  1
  C  C2836  1  0.794800  0.596500  0.353300  1
  C  C2837  1  0.794800  0.756800  0.403500  1
  C  C2838  1  0.794800  0.646700  0.243200  1
  C  C2839  1  0.092900  0.505000  0.893800  1
  C  C2840  1  0.092900  0.388800  0.495000  1
  C  C2841  1  0.092900  0.106200  0.611200  1
  C  C2842  1  0.907100  0.495000  0.106200  1
  C  C2843  1  0.907100  0.611200  0.505000  1
  C  C2844  1  0.907100  0.893800  0.388800  1
  C  C2845  1  0.047100  0.484200  0.887400  1
  C  C2846  1  0.047100  0.403200  0.515800  1
  C  C2847  1  0.047100  0.112600  0.596800  1
  C  C2848  1  0.952900  0.515800  0.112600  1
  C  C2849  1  0.952900  0.596800  0.484200  1
  C  C2850  1  0.952900  0.887400  0.403200  1
  C  C2851  1  0.038300  0.437500  0.839600  1
  C  C2852  1  0.038300  0.402100  0.562500  1
  C  C2853  1  0.038300  0.160400  0.597900  1
  C  C2854  1  0.961700  0.562500  0.160400  1
  C  C2855  1  0.961700  0.597900  0.437500  1
  C  C2856  1  0.961700  0.839600  0.402100  1
  C  C2857  1  0.028100  0.418200  0.808900  1
  C  C2858  1  0.028100  0.390700  0.581800  1
  C  C2859  1  0.028100  0.191100  0.609300  1
  C  C2860  1  0.971900  0.581800  0.191100  1
  C  C2861  1  0.971900  0.609300  0.418200  1
  C  C2862  1  0.971900  0.808900  0.390700  1
  C  C2863  1  0.037700  0.388200  0.802000  1
  C  C2864  1  0.037700  0.413800  0.611800  1
  C  C2865  1  0.037700  0.198000  0.586200  1
  C  C2866  1  0.962300  0.611800  0.198000  1
  C  C2867  1  0.962300  0.586200  0.388200  1
  C  C2868  1  0.962300  0.802000  0.413800  1
  C  C2869  1  0.033700  0.366200  0.771700  1
  C  C2870  1  0.033700  0.405500  0.633800  1
  C  C2871  1  0.033700  0.228300  0.594500  1
  C  C2872  1  0.966300  0.633800  0.228300  1
  C  C2873  1  0.966300  0.594500  0.366200  1
  C  C2874  1  0.966300  0.771700  0.405500  1
  C  C2875  1  0.028400  0.376400  0.748500  1
  C  C2876  1  0.028400  0.372100  0.623600  1
  C  C2877  1  0.028400  0.251500  0.627900  1
  C  C2878  1  0.971600  0.623600  0.251500  1
  C  C2879  1  0.971600  0.627900  0.376400  1
  C  C2880  1  0.971600  0.748500  0.372100  1
  C  C2881  1  0.009400  0.402100  0.755800  1
  C  C2882  1  0.009400  0.353700  0.597900  1
  C  C2883  1  0.009400  0.244200  0.646300  1
  C  C2884  1  0.990600  0.597900  0.244200  1
  C  C2885  1  0.990600  0.646300  0.402100  1
  C  C2886  1  0.990600  0.755800  0.353700  1
  C  C2887  1  0.013100  0.424600  0.786600  1
  C  C2888  1  0.013100  0.362000  0.575400  1
  C  C2889  1  0.013100  0.213400  0.638000  1
  C  C2890  1  0.986900  0.575400  0.213400  1
  C  C2891  1  0.986900  0.638000  0.424600  1
  C  C2892  1  0.986900  0.786600  0.362000  1
  C  C2893  1  0.991700  0.388600  0.706000  1
  C  C2894  1  0.991700  0.317400  0.611400  1
  C  C2895  1  0.991700  0.294000  0.682600  1
  C  C2896  1  0.008300  0.611400  0.294000  1
  C  C2897  1  0.008300  0.682600  0.388600  1
  C  C2898  1  0.008300  0.706000  0.317400  1
  C  C2899  1  0.245900  0.563000  0.082200  1
  C  C2900  1  0.245900  0.519200  0.437000  1
  C  C2901  1  0.245900  0.917800  0.480800  1
  C  C2902  1  0.754100  0.437000  0.917800  1
  C  C2903  1  0.754100  0.480800  0.563000  1
  C  C2904  1  0.754100  0.082200  0.519200  1
  C  C2905  1  0.262200  0.522200  0.032800  1
  C  C2906  1  0.262200  0.510600  0.477800  1
  C  C2907  1  0.262200  0.967200  0.489400  1
  C  C2908  1  0.737800  0.477800  0.967200  1
  C  C2909  1  0.737800  0.489400  0.522200  1
  C  C2910  1  0.737800  0.032800  0.510600  1
  C  C2911  1  0.256300  0.500500  0.041500  1
  C  C2912  1  0.256300  0.541000  0.499500  1
  C  C2913  1  0.256300  0.958500  0.459000  1
  C  C2914  1  0.743700  0.499500  0.958500  1
  C  C2915  1  0.743700  0.459000  0.500500  1
  C  C2916  1  0.743700  0.041500  0.541000  1
  C  C2917  1  0.255300  0.470200  0.019400  1
  C  C2918  1  0.255300  0.549200  0.529800  1
  C  C2919  1  0.255300  0.980600  0.450800  1
  C  C2920  1  0.744700  0.529800  0.980600  1
  C  C2921  1  0.744700  0.450800  0.470200  1
  C  C2922  1  0.744700  0.019400  0.549200  1
  C  C2923  1  0.260400  0.462200  0.991000  1
  C  C2924  1  0.260400  0.528800  0.537800  1
  C  C2925  1  0.260400  0.009000  0.471200  1
  C  C2926  1  0.739600  0.537800  0.009000  1
  C  C2927  1  0.739600  0.471200  0.462200  1
  C  C2928  1  0.739600  0.991000  0.528800  1
  C  C2929  1  0.268200  0.483300  0.981800  1
  C  C2930  1  0.268200  0.498500  0.516700  1
  C  C2931  1  0.268200  0.018200  0.501500  1
  C  C2932  1  0.731800  0.516700  0.018200  1
  C  C2933  1  0.731800  0.501500  0.483300  1
  C  C2934  1  0.731800  0.981800  0.498500  1
  C  C2935  1  0.267800  0.513000  0.002200  1
  C  C2936  1  0.267800  0.489200  0.487000  1
  C  C2937  1  0.267800  0.997800  0.510800  1
  C  C2938  1  0.732200  0.487000  0.997800  1
  C  C2939  1  0.732200  0.510800  0.513000  1
  C  C2940  1  0.732200  0.002200  0.489200  1
  C  C2941  1  0.275200  0.470400  0.948300  1
  C  C2942  1  0.275200  0.477900  0.529600  1
  C  C2943  1  0.275200  0.051700  0.522100  1
  C  C2944  1  0.724800  0.529600  0.051700  1
  C  C2945  1  0.724800  0.522100  0.470400  1
  C  C2946  1  0.724800  0.948300  0.477900  1
  C  C2947  1  0.297400  0.466100  0.902700  1
  C  C2948  1  0.297400  0.436600  0.533900  1
  C  C2949  1  0.297400  0.097300  0.563400  1
  C  C2950  1  0.702600  0.533900  0.097300  1
  C  C2951  1  0.702600  0.563400  0.466100  1
  C  C2952  1  0.702600  0.902700  0.436600  1
  C  C2953  1  0.244200  0.463400  0.887100  1
  C  C2954  1  0.244200  0.423700  0.536600  1
  C  C2955  1  0.244200  0.112900  0.576300  1
  C  C2956  1  0.755800  0.536600  0.112900  1
  C  C2957  1  0.755800  0.576300  0.463400  1
  C  C2958  1  0.755800  0.887100  0.423700  1
  C  C2959  1  0.252300  0.451900  0.852800  1
  C  C2960  1  0.252300  0.400900  0.548100  1
  C  C2961  1  0.252300  0.147200  0.599100  1
  C  C2962  1  0.747700  0.548100  0.147200  1
  C  C2963  1  0.747700  0.599100  0.451900  1
  C  C2964  1  0.747700  0.852800  0.400900  1
  C  C2965  1  0.198100  0.447600  0.835900  1
  C  C2966  1  0.198100  0.388300  0.552400  1
  C  C2967  1  0.198100  0.164100  0.611700  1
  C  C2968  1  0.801900  0.552400  0.164100  1
  C  C2969  1  0.801900  0.611700  0.447600  1
  C  C2970  1  0.801900  0.835900  0.388300  1
  C  C2971  1  0.203500  0.444800  0.805500  1
  C  C2972  1  0.203500  0.360700  0.555200  1
  C  C2973  1  0.203500  0.194500  0.639300  1
  C  C2974  1  0.796500  0.555200  0.194500  1
  C  C2975  1  0.796500  0.639300  0.444800  1
  C  C2976  1  0.796500  0.805500  0.360700  1
  C  C2977  1  0.149800  0.441200  0.790200  1
  C  C2978  1  0.149800  0.349000  0.558800  1
  C  C2979  1  0.149800  0.209800  0.651000  1
  C  C2980  1  0.850200  0.558800  0.209800  1
  C  C2981  1  0.850200  0.651000  0.441200  1
  C  C2982  1  0.850200  0.790200  0.349000  1
  C  C2983  1  0.152400  0.422200  0.737900  1
  C  C2984  1  0.152400  0.315700  0.577800  1
  C  C2985  1  0.152400  0.262100  0.684300  1
  C  C2986  1  0.847600  0.577800  0.262100  1
  C  C2987  1  0.847600  0.684300  0.422200  1
  C  C2988  1  0.847600  0.737900  0.315700  1
  C  C2989  1  0.160200  0.419600  0.709300  1
  C  C2990  1  0.160200  0.289700  0.580400  1
  C  C2991  1  0.160200  0.290700  0.710300  1
  C  C2992  1  0.839800  0.580400  0.290700  1
  C  C2993  1  0.839800  0.710300  0.419600  1
  C  C2994  1  0.839800  0.709300  0.289700  1
  C  C2995  1  0.184100  0.437100  0.674800  1
  C  C2996  1  0.184100  0.237700  0.562900  1
  C  C2997  1  0.184100  0.325200  0.762300  1
  C  C2998  1  0.815900  0.562900  0.325200  1
  C  C2999  1  0.815900  0.762300  0.437100  1
  C  C3000  1  0.815900  0.674800  0.237700  1
  C  C3001  1  0.175600  0.443400  0.704400  1
  C  C3002  1  0.175600  0.261000  0.556600  1
  C  C3003  1  0.175600  0.295600  0.739000  1
  C  C3004  1  0.824400  0.556600  0.295600  1
  C  C3005  1  0.824400  0.739000  0.443400  1
  C  C3006  1  0.824400  0.704400  0.261000  1
  C  C3007  1  0.198300  0.460500  0.643700  1
  C  C3008  1  0.198300  0.183200  0.539500  1
  C  C3009  1  0.198300  0.356300  0.816800  1
  C  C3010  1  0.801700  0.539500  0.356300  1
  C  C3011  1  0.801700  0.816800  0.460500  1
  C  C3012  1  0.801700  0.643700  0.183200  1
  C  C3013  1  0.395400  0.513800  0.012600  1
  C  C3014  1  0.395400  0.498800  0.486200  1
  C  C3015  1  0.395400  0.987400  0.501200  1
  C  C3016  1  0.604600  0.486200  0.987400  1
  C  C3017  1  0.604600  0.501200  0.513800  1
  C  C3018  1  0.604600  0.012600  0.498800  1
  C  C3019  1  0.415100  0.482200  0.959400  1
  C  C3020  1  0.415100  0.477200  0.517800  1
  C  C3021  1  0.415100  0.040600  0.522800  1
  C  C3022  1  0.584900  0.517800  0.040600  1
  C  C3023  1  0.584900  0.522800  0.482200  1
  C  C3024  1  0.584900  0.959400  0.477200  1
  C  C3025  1  0.432300  0.459100  0.963100  1
  C  C3026  1  0.432300  0.504000  0.540900  1
  C  C3027  1  0.432300  0.036900  0.496000  1
  C  C3028  1  0.567700  0.540900  0.036900  1
  C  C3029  1  0.567700  0.496000  0.459100  1
  C  C3030  1  0.567700  0.963100  0.504000  1
  C  C3031  1  0.456100  0.433900  0.938300  1
  C  C3032  1  0.456100  0.504400  0.566100  1
  C  C3033  1  0.456100  0.061700  0.495600  1
  C  C3034  1  0.543900  0.566100  0.061700  1
  C  C3035  1  0.543900  0.495600  0.433900  1
  C  C3036  1  0.543900  0.938300  0.504400  1
  C  C3037  1  0.463800  0.433700  0.911400  1
  C  C3038  1  0.463800  0.477700  0.566300  1
  C  C3039  1  0.463800  0.088600  0.522300  1
  C  C3040  1  0.536200  0.566300  0.088600  1
  C  C3041  1  0.536200  0.522300  0.433700  1
  C  C3042  1  0.536200  0.911400  0.477700  1
  C  C3043  1  0.445700  0.457900  0.907700  1
  C  C3044  1  0.445700  0.449800  0.542100  1
  C  C3045  1  0.445700  0.092300  0.550200  1
  C  C3046  1  0.554300  0.542100  0.092300  1
  C  C3047  1  0.554300  0.550200  0.457900  1
  C  C3048  1  0.554300  0.907700  0.449800  1
  C  C3049  1  0.421600  0.482600  0.932400  1
  C  C3050  1  0.421600  0.449800  0.517400  1
  C  C3051  1  0.421600  0.067600  0.550200  1
  C  C3052  1  0.578400  0.517400  0.067600  1
  C  C3053  1  0.578400  0.550200  0.482600  1
  C  C3054  1  0.578400  0.932400  0.449800  1
  C  C3055  1  0.453400  0.455600  0.878700  1
  C  C3056  1  0.453400  0.423100  0.544400  1
  C  C3057  1  0.453400  0.121300  0.576900  1
  C  C3058  1  0.546600  0.544400  0.121300  1
  C  C3059  1  0.546600  0.576900  0.455600  1
  C  C3060  1  0.546600  0.878700  0.423100  1
  C  C3061  1  0.451800  0.463900  0.837700  1
  C  C3062  1  0.451800  0.373800  0.536100  1
  C  C3063  1  0.451800  0.162300  0.626200  1
  C  C3064  1  0.548200  0.536100  0.162300  1
  C  C3065  1  0.548200  0.626200  0.463900  1
  C  C3066  1  0.548200  0.837700  0.373800  1
  C  C3067  1  0.396400  0.461300  0.823300  1
  C  C3068  1  0.396400  0.362000  0.538700  1
  C  C3069  1  0.396400  0.176700  0.638000  1
  C  C3070  1  0.603600  0.538700  0.176700  1
  C  C3071  1  0.603600  0.638000  0.461300  1
  C  C3072  1  0.603600  0.823300  0.362000  1
  C  C3073  1  0.403200  0.458700  0.792600  1
  C  C3074  1  0.403200  0.333900  0.541300  1
  C  C3075  1  0.403200  0.207400  0.666100  1
  C  C3076  1  0.596800  0.541300  0.207400  1
  C  C3077  1  0.596800  0.666100  0.458700  1
  C  C3078  1  0.596800  0.792600  0.333900  1
  C  C3079  1  0.348700  0.451500  0.775300  1
  C  C3080  1  0.348700  0.323800  0.548500  1
  C  C3081  1  0.348700  0.224700  0.676200  1
  C  C3082  1  0.651300  0.548500  0.224700  1
  C  C3083  1  0.651300  0.676200  0.451500  1
  C  C3084  1  0.651300  0.775300  0.323800  1
  C  C3085  1  0.352300  0.457100  0.748900  1
  C  C3086  1  0.352300  0.291800  0.542900  1
  C  C3087  1  0.352300  0.251100  0.708200  1
  C  C3088  1  0.647700  0.542900  0.251100  1
  C  C3089  1  0.647700  0.708200  0.457100  1
  C  C3090  1  0.647700  0.748900  0.291800  1
  C  C3091  1  0.299500  0.449600  0.730700  1
  C  C3092  1  0.299500  0.281100  0.550400  1
  C  C3093  1  0.299500  0.269300  0.718900  1
  C  C3094  1  0.700500  0.550400  0.269300  1
  C  C3095  1  0.700500  0.718900  0.449600  1
  C  C3096  1  0.700500  0.730700  0.281100  1
  C  C3097  1  0.323400  0.446600  0.686300  1
  C  C3098  1  0.323400  0.239700  0.553400  1
  C  C3099  1  0.323400  0.313700  0.760300  1
  C  C3100  1  0.676600  0.553400  0.313700  1
  C  C3101  1  0.676600  0.760300  0.446600  1
  C  C3102  1  0.676600  0.686300  0.239700  1
  C  C3103  1  0.336600  0.454400  0.663100  1
  C  C3104  1  0.336600  0.208700  0.545600  1
  C  C3105  1  0.336600  0.336900  0.791300  1
  C  C3106  1  0.663400  0.545600  0.336900  1
  C  C3107  1  0.663400  0.791300  0.454400  1
  C  C3108  1  0.663400  0.663100  0.208700  1
  C  C3109  1  0.364100  0.432400  0.637200  1
  C  C3110  1  0.364100  0.204800  0.567600  1
  C  C3111  1  0.364100  0.362800  0.795200  1
  C  C3112  1  0.635900  0.567600  0.362800  1
  C  C3113  1  0.635900  0.795200  0.432400  1
  C  C3114  1  0.635900  0.637200  0.204800  1
  C  C3115  1  0.377500  0.438300  0.614100  1
  C  C3116  1  0.377500  0.175800  0.561700  1
  C  C3117  1  0.377500  0.385900  0.824200  1
  C  C3118  1  0.622500  0.561700  0.385900  1
  C  C3119  1  0.622500  0.824200  0.438300  1
  C  C3120  1  0.622500  0.614100  0.175800  1
  C  C3121  1  0.362200  0.464800  0.616400  1
  C  C3122  1  0.362200  0.151600  0.535200  1
  C  C3123  1  0.362200  0.383600  0.848400  1
  C  C3124  1  0.637800  0.535200  0.383600  1
  C  C3125  1  0.637800  0.848400  0.464800  1
  C  C3126  1  0.637800  0.616400  0.151600  1
  C  C3127  1  0.333333  0.486800  0.641400  1
  C  C3128  1  0.333333  0.154600  0.513200  1
  C  C3129  1  0.333333  0.358600  0.845400  1
  C  C3130  1  0.666667  0.513200  0.358600  1
  C  C3131  1  0.666667  0.845400  0.486800  1
  C  C3132  1  0.666667  0.641400  0.154600  1
  C  C3133  1  0.322100  0.481500  0.665100  1
  C  C3134  1  0.322100  0.183600  0.518500  1
  C  C3135  1  0.322100  0.334900  0.816400  1
  C  C3136  1  0.677900  0.518500  0.334900  1
  C  C3137  1  0.677900  0.816400  0.481500  1
  C  C3138  1  0.677900  0.665100  0.183600  1
  C  C3139  1  0.336000  0.521400  0.621900  1
  C  C3140  1  0.336000  0.100500  0.478600  1
  C  C3141  1  0.336000  0.378100  0.899500  1
  C  C3142  1  0.664000  0.478600  0.378100  1
  C  C3143  1  0.664000  0.899500  0.521400  1
  C  C3144  1  0.664000  0.621900  0.100500  1
  C  C3145  1  0.608700  0.448500  0.898800  1
  C  C3146  1  0.608700  0.450300  0.551500  1
  C  C3147  1  0.608700  0.101200  0.549700  1
  C  C3148  1  0.391300  0.551500  0.101200  1
  C  C3149  1  0.391300  0.549700  0.448500  1
  C  C3150  1  0.391300  0.898800  0.450300  1
  C  C3151  1  0.594000  0.445700  0.850700  1
  C  C3152  1  0.594000  0.405000  0.554300  1
  C  C3153  1  0.594000  0.149300  0.595000  1
  C  C3154  1  0.406000  0.554300  0.149300  1
  C  C3155  1  0.406000  0.595000  0.445700  1
  C  C3156  1  0.406000  0.850700  0.405000  1
  C  C3157  1  0.589600  0.414700  0.835400  1
  C  C3158  1  0.589600  0.420700  0.585300  1
  C  C3159  1  0.589600  0.164600  0.579300  1
  C  C3160  1  0.410400  0.585300  0.164600  1
  C  C3161  1  0.410400  0.579300  0.414700  1
  C  C3162  1  0.410400  0.835400  0.420700  1
  C  C3163  1  0.579500  0.400100  0.805300  1
  C  C3164  1  0.579500  0.405200  0.599900  1
  C  C3165  1  0.579500  0.194700  0.594800  1
  C  C3166  1  0.420500  0.599900  0.194700  1
  C  C3167  1  0.420500  0.594800  0.400100  1
  C  C3168  1  0.420500  0.805300  0.405200  1
  C  C3169  1  0.574000  0.415700  0.789800  1
  C  C3170  1  0.574000  0.374100  0.584300  1
  C  C3171  1  0.574000  0.210200  0.625900  1
  C  C3172  1  0.426000  0.584300  0.210200  1
  C  C3173  1  0.426000  0.625900  0.415700  1
  C  C3174  1  0.426000  0.789800  0.374100  1
  C  C3175  1  0.580200  0.447700  0.805600  1
  C  C3176  1  0.580200  0.357900  0.552300  1
  C  C3177  1  0.580200  0.194400  0.642100  1
  C  C3178  1  0.419800  0.552300  0.194400  1
  C  C3179  1  0.419800  0.642100  0.447700  1
  C  C3180  1  0.419800  0.805600  0.357900  1
  C  C3181  1  0.588600  0.462900  0.836100  1
  C  C3182  1  0.588600  0.373200  0.537100  1
  C  C3183  1  0.588600  0.163900  0.626800  1
  C  C3184  1  0.411400  0.537100  0.163900  1
  C  C3185  1  0.411400  0.626800  0.462900  1
  C  C3186  1  0.411400  0.836100  0.373200  1
  C  C3187  1  0.571300  0.461100  0.786100  1
  C  C3188  1  0.571300  0.325000  0.538900  1
  C  C3189  1  0.571300  0.213900  0.675000  1
  C  C3190  1  0.428700  0.538900  0.213900  1
  C  C3191  1  0.428700  0.675000  0.461100  1
  C  C3192  1  0.428700  0.786100  0.325000  1
  C  C3193  1  0.557200  0.497700  0.771800  1
  C  C3194  1  0.557200  0.274100  0.502300  1
  C  C3195  1  0.557200  0.228200  0.725900  1
  C  C3196  1  0.442800  0.502300  0.228200  1
  C  C3197  1  0.442800  0.725900  0.497700  1
  C  C3198  1  0.442800  0.771800  0.274100  1
  C  C3199  1  0.499400  0.510500  0.776000  1
  C  C3200  1  0.499400  0.265500  0.489500  1
  C  C3201  1  0.499400  0.224000  0.734500  1
  C  C3202  1  0.500600  0.489500  0.224000  1
  C  C3203  1  0.500600  0.734500  0.510500  1
  C  C3204  1  0.500600  0.776000  0.265500  1
  C  C3205  1  0.487100  0.525700  0.757200  1
  C  C3206  1  0.487100  0.231500  0.474300  1
  C  C3207  1  0.487100  0.242800  0.768500  1
  C  C3208  1  0.512900  0.474300  0.242800  1
  C  C3209  1  0.512900  0.768500  0.525700  1
  C  C3210  1  0.512900  0.757200  0.231500  1
  C  C3211  1  0.428600  0.535600  0.760800  1
  C  C3212  1  0.428600  0.225200  0.464400  1
  C  C3213  1  0.428600  0.239200  0.774800  1
  C  C3214  1  0.571400  0.464400  0.239200  1
  C  C3215  1  0.571400  0.774800  0.535600  1
  C  C3216  1  0.571400  0.760800  0.225200  1
  C  C3217  1  0.416000  0.554400  0.746500  1
  C  C3218  1  0.416000  0.192100  0.445600  1
  C  C3219  1  0.416000  0.253500  0.807900  1
  C  C3220  1  0.584000  0.445600  0.253500  1
  C  C3221  1  0.584000  0.807900  0.554400  1
  C  C3222  1  0.584000  0.746500  0.192100  1
  C  C3223  1  0.421500  0.538200  0.713000  1
  C  C3224  1  0.421500  0.174800  0.461800  1
  C  C3225  1  0.421500  0.287000  0.825200  1
  C  C3226  1  0.578500  0.461800  0.287000  1
  C  C3227  1  0.578500  0.825200  0.538200  1
  C  C3228  1  0.578500  0.713000  0.174800  1
  C  C3229  1  0.423500  0.568500  0.690200  1
  C  C3230  1  0.423500  0.121700  0.431500  1
  C  C3231  1  0.423500  0.309800  0.878300  1
  C  C3232  1  0.576500  0.431500  0.309800  1
  C  C3233  1  0.576500  0.878300  0.568500  1
  C  C3234  1  0.576500  0.690200  0.121700  1
  C  C3235  1  0.408500  0.588700  0.679000  1
  C  C3236  1  0.408500  0.090300  0.411300  1
  C  C3237  1  0.408500  0.321000  0.909700  1
  C  C3238  1  0.591500  0.411300  0.321000  1
  C  C3239  1  0.591500  0.909700  0.588700  1
  C  C3240  1  0.591500  0.679000  0.090300  1
  C  C3241  1  0.451000  0.600400  0.670000  1
  C  C3242  1  0.451000  0.069600  0.399600  1
  C  C3243  1  0.451000  0.330000  0.930400  1
  C  C3244  1  0.549000  0.399600  0.330000  1
  C  C3245  1  0.549000  0.930400  0.600400  1
  C  C3246  1  0.549000  0.670000  0.069600  1
  C  C3247  1  0.442800  0.621100  0.660900  1
  C  C3248  1  0.442800  0.039800  0.378900  1
  C  C3249  1  0.442800  0.339100  0.960200  1
  C  C3250  1  0.557200  0.378900  0.339100  1
  C  C3251  1  0.557200  0.960200  0.621100  1
  C  C3252  1  0.557200  0.660900  0.039800  1
  C  C3253  1  0.392900  0.631000  0.661600  1
  C  C3254  1  0.392900  0.030600  0.369000  1
  C  C3255  1  0.392900  0.338400  0.969400  1
  C  C3256  1  0.607100  0.369000  0.338400  1
  C  C3257  1  0.607100  0.969400  0.631000  1
  C  C3258  1  0.607100  0.661600  0.030600  1
  C  C3259  1  0.348300  0.618800  0.669200  1
  C  C3260  1  0.348300  0.050400  0.381200  1
  C  C3261  1  0.348300  0.330800  0.949600  1
  C  C3262  1  0.651700  0.381200  0.330800  1
  C  C3263  1  0.651700  0.949600  0.618800  1
  C  C3264  1  0.651700  0.669200  0.050400  1
  C  C3265  1  0.355300  0.597000  0.677800  1
  C  C3266  1  0.355300  0.080800  0.403000  1
  C  C3267  1  0.355300  0.322200  0.919200  1
  C  C3268  1  0.644700  0.403000  0.322200  1
  C  C3269  1  0.644700  0.919200  0.597000  1
  C  C3270  1  0.644700  0.677800  0.080800  1
  C  C3271  1  0.280300  0.653300  0.665700  1
  C  C3272  1  0.280300  0.012400  0.346700  1
  C  C3273  1  0.280300  0.334300  0.987600  1
  C  C3274  1  0.719700  0.346700  0.334300  1
  C  C3275  1  0.719700  0.987600  0.653300  1
  C  C3276  1  0.719700  0.665700  0.012400  1
  C  C3277  1  0.392200  0.622400  0.835800  1
  C  C3278  1  0.392200  0.213400  0.377600  1
  C  C3279  1  0.392200  0.164200  0.786600  1
  C  C3280  1  0.607800  0.377600  0.164200  1
  C  C3281  1  0.607800  0.786600  0.622400  1
  C  C3282  1  0.607800  0.835800  0.213400  1
  C  C3283  1  0.443700  0.634180  0.854570  1
  C  C3284  1  0.443700  0.220390  0.365820  1
  C  C3285  1  0.443700  0.145430  0.779610  1
  C  C3286  1  0.556300  0.365820  0.145430  1
  C  C3287  1  0.556300  0.779610  0.634180  1
  C  C3288  1  0.556300  0.854570  0.220390  1
  C  C3289  1  0.522500  0.625400  0.947400  1
  C  C3290  1  0.522500  0.322000  0.374600  1
  C  C3291  1  0.522500  0.052600  0.678000  1
  C  C3292  1  0.477500  0.374600  0.052600  1
  C  C3293  1  0.477500  0.678000  0.625400  1
  C  C3294  1  0.477500  0.947400  0.322000  1
  C  C3295  1  0.511800  0.643800  0.932900  1
  C  C3296  1  0.511800  0.289100  0.356200  1
  C  C3297  1  0.511800  0.067100  0.710900  1
  C  C3298  1  0.488200  0.356200  0.067100  1
  C  C3299  1  0.488200  0.710900  0.643800  1
  C  C3300  1  0.488200  0.932900  0.289100  1
  C  C3301  1  0.644900  0.676300  0.946600  1
  C  C3302  1  0.644900  0.270300  0.323700  1
  C  C3303  1  0.644900  0.053400  0.729700  1
  C  C3304  1  0.355100  0.323700  0.053400  1
  C  C3305  1  0.355100  0.729700  0.676300  1
  C  C3306  1  0.355100  0.946600  0.270300  1
  C  C3307  1  0.614600  0.706300  0.964700  1
  C  C3308  1  0.614600  0.258400  0.293700  1
  C  C3309  1  0.614600  0.035300  0.741600  1
  C  C3310  1  0.385400  0.293700  0.035300  1
  C  C3311  1  0.385400  0.741600  0.706300  1
  C  C3312  1  0.385400  0.964700  0.258400  1
  C  C3313  1  0.369500  0.681900  0.936500  1
  C  C3314  1  0.369500  0.254600  0.318100  1
  C  C3315  1  0.369500  0.063500  0.745400  1
  C  C3316  1  0.630500  0.318100  0.063500  1
  C  C3317  1  0.630500  0.745400  0.681900  1
  C  C3318  1  0.630500  0.936500  0.254600  1
  C  C3319  1  0.396100  0.713400  0.953900  1
  C  C3320  1  0.396100  0.240500  0.286600  1
  C  C3321  1  0.396100  0.046100  0.759500  1
  C  C3322  1  0.603900  0.286600  0.046100  1
  C  C3323  1  0.603900  0.759500  0.713400  1
  C  C3324  1  0.603900  0.953900  0.240500  1
  C  C3325  1  0.516800  0.734400  0.043900  1
  C  C3326  1  0.516800  0.309500  0.265600  1
  C  C3327  1  0.516800  0.956100  0.690500  1
  C  C3328  1  0.483200  0.265600  0.956100  1
  C  C3329  1  0.483200  0.690500  0.734400  1
  C  C3330  1  0.483200  0.043900  0.309500  1
  C  C3331  1  0.472900  0.744200  0.030000  1
  C  C3332  1  0.472900  0.285800  0.255800  1
  C  C3333  1  0.472900  0.970000  0.714200  1
  C  C3334  1  0.527100  0.255800  0.970000  1
  C  C3335  1  0.527100  0.714200  0.744200  1
  C  C3336  1  0.527100  0.030000  0.285800  1
  C  C3337  1  0.206600  0.687400  0.951100  1
  C  C3338  1  0.206600  0.263700  0.312600  1
  C  C3339  1  0.206600  0.048900  0.736300  1
  C  C3340  1  0.793400  0.312600  0.048900  1
  C  C3341  1  0.793400  0.736300  0.687400  1
  C  C3342  1  0.793400  0.951100  0.263700  1
  C  C3343  1  0.235600  0.695030  0.979860  1
  C  C3344  1  0.235600  0.284830  0.304970  1
  C  C3345  1  0.235600  0.020140  0.715170  1
  C  C3346  1  0.764400  0.304970  0.020140  1
  C  C3347  1  0.764400  0.715170  0.695030  1
  C  C3348  1  0.764400  0.979860  0.284830  1
  C  C3349  1  0.276300  0.608500  0.957900  1
  C  C3350  1  0.276300  0.349400  0.391500  1
  C  C3351  1  0.276300  0.042100  0.650600  1
  C  C3352  1  0.723700  0.391500  0.042100  1
  C  C3353  1  0.723700  0.650600  0.608500  1
  C  C3354  1  0.723700  0.957900  0.349400  1
  C  C3355  1  0.270300  0.604600  0.985200  1
  C  C3356  1  0.270300  0.380600  0.395400  1
  C  C3357  1  0.270300  0.014800  0.619400  1
  C  C3358  1  0.729700  0.395400  0.014800  1
  C  C3359  1  0.729700  0.619400  0.604600  1
  C  C3360  1  0.729700  0.985200  0.380600  1
  C  C3361  1  0.398900  0.714000  0.087100  1
  C  C3362  1  0.398900  0.373100  0.286000  1
  C  C3363  1  0.398900  0.912900  0.626900  1
  C  C3364  1  0.601100  0.286000  0.912900  1
  C  C3365  1  0.601100  0.626900  0.714000  1
  C  C3366  1  0.601100  0.087100  0.373100  1
  C  C3367  1  0.368700  0.688400  0.086800  1
  C  C3368  1  0.368700  0.398400  0.311600  1
  C  C3369  1  0.368700  0.913200  0.601600  1
  C  C3370  1  0.631300  0.311600  0.913200  1
  C  C3371  1  0.631300  0.601600  0.688400  1
  C  C3372  1  0.631300  0.086800  0.398400  1
  C  C3373  1  0.432300  0.612600  0.044600  1
  C  C3374  1  0.432300  0.432000  0.387400  1
  C  C3375  1  0.432300  0.955400  0.568000  1
  C  C3376  1  0.567700  0.387400  0.955400  1
  C  C3377  1  0.567700  0.568000  0.612600  1
  C  C3378  1  0.567700  0.044600  0.432000  1
  C  C3379  1  0.379100  0.591700  0.030600  1
  C  C3380  1  0.379100  0.438900  0.408300  1
  C  C3381  1  0.379100  0.969400  0.561100  1
  C  C3382  1  0.620900  0.408300  0.969400  1
  C  C3383  1  0.620900  0.561100  0.591700  1
  C  C3384  1  0.620900  0.030600  0.438900  1
  C  C3385  1  0.252000  0.535300  0.881600  1
  C  C3386  1  0.252000  0.346300  0.464700  1
  C  C3387  1  0.252000  0.118400  0.653700  1
  C  C3388  1  0.748000  0.464700  0.118400  1
  C  C3389  1  0.748000  0.653700  0.535300  1
  C  C3390  1  0.748000  0.881600  0.346300  1
  C  C3391  1  0.301600  0.530540  0.896240  1
  C  C3392  1  0.301600  0.365700  0.469460  1
  C  C3393  1  0.301600  0.103760  0.634300  1
  C  C3394  1  0.698400  0.469460  0.103760  1
  C  C3395  1  0.698400  0.634300  0.530540  1
  C  C3396  1  0.698400  0.896240  0.365700  1
  C  C3397  1  0.422000  0.577400  0.874800  1
  C  C3398  1  0.422000  0.297400  0.422600  1
  C  C3399  1  0.422000  0.125200  0.702600  1
  C  C3400  1  0.578000  0.422600  0.125200  1
  C  C3401  1  0.578000  0.702600  0.577400  1
  C  C3402  1  0.578000  0.874800  0.297400  1
  C  C3403  1  0.473500  0.558900  0.866040  1
  C  C3404  1  0.473500  0.307140  0.441100  1
  C  C3405  1  0.473500  0.133960  0.692860  1
  C  C3406  1  0.526500  0.441100  0.133960  1
  C  C3407  1  0.526500  0.692860  0.558900  1
  C  C3408  1  0.526500  0.866040  0.307140  1
  C  C3409  1  0.511300  0.545900  0.972100  1
  C  C3410  1  0.511300  0.426200  0.454100  1
  C  C3411  1  0.511300  0.027900  0.573800  1
  C  C3412  1  0.488700  0.454100  0.027900  1
  C  C3413  1  0.488700  0.573800  0.545900  1
  C  C3414  1  0.488700  0.972100  0.426200  1
  C  C3415  1  0.545300  0.532700  0.943900  1
  C  C3416  1  0.545300  0.411200  0.467300  1
  C  C3417  1  0.545300  0.056100  0.588800  1
  C  C3418  1  0.454700  0.467300  0.056100  1
  C  C3419  1  0.454700  0.588800  0.532700  1
  C  C3420  1  0.454700  0.943900  0.411200  1
  C  C3421  1  0.651300  0.591900  0.935000  1
  C  C3422  1  0.651300  0.343100  0.408100  1
  C  C3423  1  0.651300  0.065000  0.656900  1
  C  C3424  1  0.348700  0.408100  0.065000  1
  C  C3425  1  0.348700  0.656900  0.591900  1
  C  C3426  1  0.348700  0.935000  0.343100  1
  C  C3427  1  0.622700  0.581700  0.905000  1
  C  C3428  1  0.622700  0.323300  0.418300  1
  C  C3429  1  0.622700  0.095000  0.676700  1
  C  C3430  1  0.377300  0.418300  0.095000  1
  C  C3431  1  0.377300  0.676700  0.581700  1
  C  C3432  1  0.377300  0.905000  0.323300  1
  C  C3433  1  0.308700  0.534200  0.815300  1
  C  C3434  1  0.308700  0.281100  0.465800  1
  C  C3435  1  0.308700  0.184700  0.718900  1
  C  C3436  1  0.691300  0.465800  0.184700  1
  C  C3437  1  0.691300  0.718900  0.534200  1
  C  C3438  1  0.691300  0.815300  0.281100  1
  C  C3439  1  0.264600  0.518700  0.792500  1
  C  C3440  1  0.264600  0.273800  0.481300  1
  C  C3441  1  0.264600  0.207500  0.726200  1
  C  C3442  1  0.735400  0.481300  0.207500  1
  C  C3443  1  0.735400  0.726200  0.518700  1
  C  C3444  1  0.735400  0.792500  0.273800  1
  C  C3445  1  0.129000  0.559000  0.845500  1
  C  C3446  1  0.129000  0.286500  0.441000  1
  C  C3447  1  0.129000  0.154500  0.713500  1
  C  C3448  1  0.871000  0.441000  0.154500  1
  C  C3449  1  0.871000  0.713500  0.559000  1
  C  C3450  1  0.871000  0.845500  0.286500  1
  C  C3451  1  0.087200  0.535400  0.838700  1
  C  C3452  1  0.087200  0.303300  0.464600  1
  C  C3453  1  0.087200  0.161300  0.696700  1
  C  C3454  1  0.912800  0.464600  0.161300  1
  C  C3455  1  0.912800  0.696700  0.535400  1
  C  C3456  1  0.912800  0.838700  0.303300  1
  C  C3457  1  0.060100  0.485600  0.705900  1
  C  C3458  1  0.060100  0.220300  0.514400  1
  C  C3459  1  0.060100  0.294100  0.779700  1
  C  C3460  1  0.939900  0.514400  0.294100  1
  C  C3461  1  0.939900  0.779700  0.485600  1
  C  C3462  1  0.939900  0.705900  0.220300  1
  C  C3463  1  0.029700  0.476400  0.726300  1
  C  C3464  1  0.029700  0.249900  0.523600  1
  C  C3465  1  0.029700  0.273700  0.750100  1
  C  C3466  1  0.970300  0.523600  0.273700  1
  C  C3467  1  0.970300  0.750100  0.476400  1
  C  C3468  1  0.970300  0.726300  0.249900  1
  C  C3469  1  0.135900  0.617400  0.932500  1
  C  C3470  1  0.135900  0.315100  0.382600  1
  C  C3471  1  0.135900  0.067500  0.684900  1
  C  C3472  1  0.864100  0.382600  0.067500  1
  C  C3473  1  0.864100  0.684900  0.617400  1
  C  C3474  1  0.864100  0.932500  0.315100  1
  C  C3475  1  0.079600  0.620100  0.920100  1
  C  C3476  1  0.079600  0.300000  0.379900  1
  C  C3477  1  0.079600  0.079900  0.700000  1
  C  C3478  1  0.920400  0.379900  0.079900  1
  C  C3479  1  0.920400  0.700000  0.620100  1
  C  C3480  1  0.920400  0.920100  0.300000  1
  C  C3481  1  0.019100  0.577800  0.806900  1
  C  C3482  1  0.019100  0.229100  0.422200  1
  C  C3483  1  0.019100  0.193100  0.770900  1
  C  C3484  1  0.980900  0.422200  0.193100  1
  C  C3485  1  0.980900  0.770900  0.577800  1
  C  C3486  1  0.980900  0.806900  0.229100  1
  C  C3487  1  0.012500  0.603800  0.839100  1
  C  C3488  1  0.012500  0.235300  0.396200  1
  C  C3489  1  0.012500  0.160900  0.764700  1
  C  C3490  1  0.987500  0.396200  0.160900  1
  C  C3491  1  0.987500  0.764700  0.603800  1
  C  C3492  1  0.987500  0.839100  0.235300  1
  C  C3493  1  0.887800  0.531100  0.788300  1
  C  C3494  1  0.887800  0.257200  0.468900  1
  C  C3495  1  0.887800  0.211700  0.742800  1
  C  C3496  1  0.112200  0.468900  0.211700  1
  C  C3497  1  0.112200  0.742800  0.531100  1
  C  C3498  1  0.112200  0.788300  0.257200  1
  C  C3499  1  0.928200  0.530400  0.810600  1
  C  C3500  1  0.928200  0.280200  0.469600  1
  C  C3501  1  0.928200  0.189400  0.719800  1
  C  C3502  1  0.071800  0.469600  0.189400  1
  C  C3503  1  0.071800  0.719800  0.530400  1
  C  C3504  1  0.071800  0.810600  0.280200  1
  C  C3505  1  0.867500  0.625000  0.850100  1
  C  C3506  1  0.867500  0.225100  0.375000  1
  C  C3507  1  0.867500  0.149900  0.774900  1
  C  C3508  1  0.132500  0.375000  0.149900  1
  C  C3509  1  0.132500  0.774900  0.625000  1
  C  C3510  1  0.132500  0.850100  0.225100  1
  C  C3511  1  0.883000  0.657200  0.860900  1
  C  C3512  1  0.883000  0.203700  0.342800  1
  C  C3513  1  0.883000  0.139100  0.796300  1
  C  C3514  1  0.117000  0.342800  0.139100  1
  C  C3515  1  0.117000  0.796300  0.657200  1
  C  C3516  1  0.117000  0.860900  0.203700  1
  C  C3517  1  0.126500  0.657500  0.869700  1
  C  C3518  1  0.126500  0.212200  0.342500  1
  C  C3519  1  0.126500  0.130300  0.787800  1
  C  C3520  1  0.873500  0.342500  0.130300  1
  C  C3521  1  0.873500  0.787800  0.657500  1
  C  C3522  1  0.873500  0.869700  0.212200  1
  C  C3523  1  0.091700  0.684500  0.878900  1
  C  C3524  1  0.091700  0.194400  0.315500  1
  C  C3525  1  0.091700  0.121100  0.805600  1
  C  C3526  1  0.908300  0.315500  0.121100  1
  C  C3527  1  0.908300  0.805600  0.684500  1
  C  C3528  1  0.908300  0.878900  0.194400  1
  C  C3529  1  0.955800  0.685700  0.801700  1
  C  C3530  1  0.955800  0.116000  0.314300  1
  C  C3531  1  0.955800  0.198300  0.884000  1
  C  C3532  1  0.044200  0.314300  0.198300  1
  C  C3533  1  0.044200  0.884000  0.685700  1
  C  C3534  1  0.044200  0.801700  0.116000  1
  C  C3535  1  0.000500  0.700800  0.825900  1
  C  C3536  1  0.000500  0.125100  0.299200  1
  C  C3537  1  0.000500  0.174100  0.874900  1
  C  C3538  1  0.999500  0.299200  0.174100  1
  C  C3539  1  0.999500  0.874900  0.700800  1
  C  C3540  1  0.999500  0.825900  0.125100  1
  C  C3541  1  0.281200  0.680400  0.870900  1
  C  C3542  1  0.281200  0.190500  0.319600  1
  C  C3543  1  0.281200  0.129100  0.809500  1
  C  C3544  1  0.718800  0.319600  0.129100  1
  C  C3545  1  0.718800  0.809500  0.680400  1
  C  C3546  1  0.718800  0.870900  0.190500  1
  C  C3547  1  0.253000  0.680300  0.844500  1
  C  C3548  1  0.253000  0.164200  0.319700  1
  C  C3549  1  0.253000  0.155500  0.835800  1
  C  C3550  1  0.747000  0.319700  0.155500  1
  C  C3551  1  0.747000  0.835800  0.680300  1
  C  C3552  1  0.747000  0.844500  0.164200  1
  C  C3553  1  0.062200  0.628000  0.778100  1
  C  C3554  1  0.062200  0.150100  0.372000  1
  C  C3555  1  0.062200  0.221900  0.849900  1
  C  C3556  1  0.937800  0.372000  0.221900  1
  C  C3557  1  0.937800  0.849900  0.628000  1
  C  C3558  1  0.937800  0.778100  0.150100  1
  C  C3559  1  0.122000  0.636700  0.783800  1
  C  C3560  1  0.122000  0.147100  0.363300  1
  C  C3561  1  0.122000  0.216200  0.852900  1
  C  C3562  1  0.878000  0.363300  0.216200  1
  C  C3563  1  0.878000  0.852900  0.636700  1
  C  C3564  1  0.878000  0.783800  0.147100  1
  C  C3565  1  0.115000  0.660500  0.724400  1
  C  C3566  1  0.115000  0.063900  0.339500  1
  C  C3567  1  0.115000  0.275600  0.936100  1
  C  C3568  1  0.885000  0.339500  0.275600  1
  C  C3569  1  0.885000  0.936100  0.660500  1
  C  C3570  1  0.885000  0.724400  0.063900  1
  C  C3571  1  0.157000  0.636900  0.707200  1
  C  C3572  1  0.157000  0.070300  0.363100  1
  C  C3573  1  0.157000  0.292800  0.929700  1
  C  C3574  1  0.843000  0.363100  0.292800  1
  C  C3575  1  0.843000  0.929700  0.636900  1
  C  C3576  1  0.843000  0.707200  0.070300  1
  C  C3577  1  0.119200  0.553900  0.690200  1
  C  C3578  1  0.119200  0.136300  0.446100  1
  C  C3579  1  0.119200  0.309800  0.863700  1
  C  C3580  1  0.880800  0.446100  0.309800  1
  C  C3581  1  0.880800  0.863700  0.553900  1
  C  C3582  1  0.880800  0.690200  0.136300  1
  C  C3583  1  0.175700  0.544200  0.692300  1
  C  C3584  1  0.175700  0.148100  0.455800  1
  C  C3585  1  0.175700  0.307700  0.851900  1
  C  C3586  1  0.824300  0.455800  0.307700  1
  C  C3587  1  0.824300  0.851900  0.544200  1
  C  C3588  1  0.824300  0.692300  0.148100  1
  C  C3589  1  0.248500  0.590900  0.792900  1
  C  C3590  1  0.248500  0.202000  0.409100  1
  C  C3591  1  0.248500  0.207100  0.798000  1
  C  C3592  1  0.751500  0.409100  0.207100  1
  C  C3593  1  0.751500  0.798000  0.590900  1
  C  C3594  1  0.751500  0.792900  0.202000  1
  C  C3595  1  0.265300  0.582800  0.761200  1
  C  C3596  1  0.265300  0.178400  0.417200  1
  C  C3597  1  0.265300  0.238800  0.821600  1
  C  C3598  1  0.734700  0.417200  0.238800  1
  C  C3599  1  0.734700  0.821600  0.582800  1
  C  C3600  1  0.734700  0.761200  0.178400  1
  C  C3601  1  0.444000  0.671400  0.010700  1
  C  C3602  1  0.444000  0.339300  0.328600  1
  C  C3603  1  0.444000  0.989300  0.660700  1
  C  C3604  1  0.556000  0.328600  0.989300  1
  C  C3605  1  0.556000  0.660700  0.671400  1
  C  C3606  1  0.556000  0.010700  0.339300  1
  C  C3607  1  0.382000  0.667100  0.007500  1
  C  C3608  1  0.382000  0.340400  0.332900  1
  C  C3609  1  0.382000  0.992500  0.659600  1
  C  C3610  1  0.618000  0.332900  0.992500  1
  C  C3611  1  0.618000  0.659600  0.667100  1
  C  C3612  1  0.618000  0.007500  0.340400  1
  C  C3613  1  0.134700  0.541400  0.942300  1
  C  C3614  1  0.134700  0.400900  0.458600  1
  C  C3615  1  0.134700  0.057700  0.599100  1
  C  C3616  1  0.865300  0.458600  0.057700  1
  C  C3617  1  0.865300  0.599100  0.541400  1
  C  C3618  1  0.865300  0.942300  0.400900  1
  C  C3619  1  0.085800  0.519600  0.931400  1
  C  C3620  1  0.085800  0.411800  0.480400  1
  C  C3621  1  0.085800  0.068600  0.588200  1
  C  C3622  1  0.914200  0.480400  0.068600  1
  C  C3623  1  0.914200  0.588200  0.519600  1
  C  C3624  1  0.914200  0.931400  0.411800  1
  C  C3625  1  0.133900  0.394000  0.685500  1
  C  C3626  1  0.133900  0.291500  0.606000  1
  C  C3627  1  0.133900  0.314500  0.708500  1
  C  C3628  1  0.866100  0.606000  0.314500  1
  C  C3629  1  0.866100  0.708500  0.394000  1
  C  C3630  1  0.866100  0.685500  0.291500  1
  C  C3631  1  0.138600  0.389000  0.657400  1
  C  C3632  1  0.138600  0.268400  0.611000  1
  C  C3633  1  0.138600  0.342600  0.731600  1
  C  C3634  1  0.861400  0.611000  0.342600  1
  C  C3635  1  0.861400  0.731600  0.389000  1
  C  C3636  1  0.861400  0.657400  0.268400  1
  C  C3637  1  0.158800  0.412300  0.651900  1
  C  C3638  1  0.158800  0.239600  0.587700  1
  C  C3639  1  0.158800  0.348100  0.760400  1
  C  C3640  1  0.841200  0.587700  0.348100  1
  C  C3641  1  0.841200  0.760400  0.412300  1
  C  C3642  1  0.841200  0.651900  0.239600  1
  N  N3643  1  0.586000  0.614210  0.818670  1
  N  N3644  1  0.586000  0.204460  0.385790  1
  N  N3645  1  0.586000  0.181330  0.795540  1
  N  N3646  1  0.414000  0.385790  0.181330  1
  N  N3647  1  0.414000  0.795540  0.614210  1
  N  N3648  1  0.414000  0.818670  0.204460  1
  N  N3649  1  0.296400  0.669870  0.758140  1
  N  N3650  1  0.296400  0.088270  0.330130  1
  N  N3651  1  0.296400  0.241860  0.911730  1
  N  N3652  1  0.703600  0.330130  0.241860  1
  N  N3653  1  0.703600  0.911730  0.669870  1
  N  N3654  1  0.703600  0.758140  0.088270  1
  N  N3655  1  0.532800  0.718590  0.897690  1
  N  N3656  1  0.532800  0.179100  0.281410  1
  N  N3657  1  0.532800  0.102310  0.820900  1
  N  N3658  1  0.467200  0.281410  0.102310  1
  N  N3659  1  0.467200  0.820900  0.718590  1
  N  N3660  1  0.467200  0.897690  0.179100  1
  N  N3661  1  0.209900  0.752460  0.847040  1
  N  N3662  1  0.209900  0.094580  0.247540  1
  N  N3663  1  0.209900  0.152960  0.905420  1
  N  N3664  1  0.790100  0.247540  0.152960  1
  N  N3665  1  0.790100  0.905420  0.752460  1
  N  N3666  1  0.790100  0.847040  0.094580  1
  N  N3667  1  0.400400  0.807100  0.977770  1
  N  N3668  1  0.400400  0.170670  0.192900  1
  N  N3669  1  0.400400  0.022230  0.829330  1
  N  N3670  1  0.599600  0.192900  0.022230  1
  N  N3671  1  0.599600  0.829330  0.807100  1
  N  N3672  1  0.599600  0.977770  0.170670  1
  N  N3673  1  0.067300  0.776370  0.937360  1
  N  N3674  1  0.067300  0.160990  0.223630  1
  N  N3675  1  0.067300  0.062640  0.839010  1
  N  N3676  1  0.932700  0.223630  0.062640  1
  N  N3677  1  0.932700  0.839010  0.776370  1
  N  N3678  1  0.932700  0.937360  0.160990  1
  N  N3679  1  0.250900  0.775290  0.045140  1
  N  N3680  1  0.250900  0.269850  0.224710  1
  N  N3681  1  0.250900  0.954860  0.730150  1
  N  N3682  1  0.749100  0.224710  0.954860  1
  N  N3683  1  0.749100  0.730150  0.775290  1
  N  N3684  1  0.749100  0.045140  0.269850  1
  N  N3685  1  0.955600  0.686710  0.943240  1
  N  N3686  1  0.955600  0.256530  0.313290  1
  N  N3687  1  0.955600  0.056760  0.743470  1
  N  N3688  1  0.044400  0.313290  0.056760  1
  N  N3689  1  0.044400  0.743470  0.686710  1
  N  N3690  1  0.044400  0.943240  0.256530  1
  N  N3691  1  0.204600  0.691650  0.062240  1
  N  N3692  1  0.204600  0.370590  0.308350  1
  N  N3693  1  0.204600  0.937760  0.629410  1
  N  N3694  1  0.795400  0.308350  0.937760  1
  N  N3695  1  0.795400  0.629410  0.691650  1
  N  N3696  1  0.795400  0.062240  0.370590  1
  N  N3697  1  0.954000  0.585000  0.934130  1
  N  N3698  1  0.954000  0.349130  0.415000  1
  N  N3699  1  0.954000  0.065870  0.650870  1
  N  N3700  1  0.046000  0.415000  0.065870  1
  N  N3701  1  0.046000  0.650870  0.585000  1
  N  N3702  1  0.046000  0.934130  0.349130  1
  N  N3703  1  0.162100  0.574700  0.029200  1
  N  N3704  1  0.162100  0.454500  0.425300  1
  N  N3705  1  0.162100  0.970800  0.545500  1
  N  N3706  1  0.837900  0.425300  0.970800  1
  N  N3707  1  0.837900  0.545500  0.574700  1
  N  N3708  1  0.837900  0.029200  0.454500  1
  N  N3709  1  0.034700  0.467800  0.855300  1
  N  N3710  1  0.034700  0.387500  0.532200  1
  N  N3711  1  0.034700  0.144700  0.612500  1
  N  N3712  1  0.965300  0.532200  0.144700  1
  N  N3713  1  0.965300  0.612500  0.467800  1
  N  N3714  1  0.965300  0.855300  0.387500  1
  N  N3715  1  0.293200  0.485030  0.935720  1
  N  N3716  1  0.293200  0.450690  0.514970  1
  N  N3717  1  0.293200  0.064280  0.549310  1
  N  N3718  1  0.706800  0.514970  0.064280  1
  N  N3719  1  0.706800  0.549310  0.485030  1
  N  N3720  1  0.706800  0.935720  0.450690  1
  N  N3721  1  0.153000  0.445680  0.764290  1
  N  N3722  1  0.153000  0.318610  0.554320  1
  N  N3723  1  0.153000  0.235710  0.681390  1
  N  N3724  1  0.847000  0.554320  0.235710  1
  N  N3725  1  0.847000  0.681390  0.445680  1
  N  N3726  1  0.847000  0.764290  0.318610  1
  N  N3727  1  0.444600  0.473760  0.870410  1
  N  N3728  1  0.444600  0.396650  0.526240  1
  N  N3729  1  0.444600  0.129590  0.603350  1
  N  N3730  1  0.555400  0.526240  0.129590  1
  N  N3731  1  0.555400  0.603350  0.473760  1
  N  N3732  1  0.555400  0.870410  0.396650  1
  N  N3733  1  0.297400  0.461960  0.710460  1
  N  N3734  1  0.297400  0.248500  0.538040  1
  N  N3735  1  0.297400  0.289540  0.751500  1
  N  N3736  1  0.702600  0.538040  0.289540  1
  N  N3737  1  0.702600  0.751500  0.461960  1
  N  N3738  1  0.702600  0.710460  0.248500  1
  N  N3739  1  0.567900  0.489380  0.794640  1
  N  N3740  1  0.567900  0.305260  0.510620  1
  N  N3741  1  0.567900  0.205360  0.694740  1
  N  N3742  1  0.432100  0.510620  0.205360  1
  N  N3743  1  0.432100  0.694740  0.489380  1
  N  N3744  1  0.432100  0.794640  0.305260  1
  N  N3745  1  0.394200  0.555600  0.700490  1
  N  N3746  1  0.394200  0.144890  0.444400  1
  N  N3747  1  0.394200  0.299510  0.855110  1
  N  N3748  1  0.605800  0.444400  0.299510  1
  N  N3749  1  0.605800  0.855110  0.555600  1
  N  N3750  1  0.605800  0.700490  0.144890  1
  Cl  Cl3751  1  0.852740  0.745720  0.860130  1
  Cl  Cl3752  1  0.852740  0.114410  0.254280  1
  Cl  Cl3753  1  0.852740  0.139870  0.885590  1
  Cl  Cl3754  1  0.147260  0.254280  0.139870  1
  Cl  Cl3755  1  0.147260  0.885590  0.745720  1
  Cl  Cl3756  1  0.147260  0.860130  0.114410  1
  Cl  Cl3757  1  0.613070  0.800700  0.042120  1
  Cl  Cl3758  1  0.613070  0.241420  0.199300  1
  Cl  Cl3759  1  0.613070  0.957880  0.758580  1
  Cl  Cl3760  1  0.386930  0.199300  0.957880  1
  Cl  Cl3761  1  0.386930  0.758580  0.800700  1
  Cl  Cl3762  1  0.386930  0.042120  0.241420  1
  Cl  Cl3763  1  0.723830  0.514050  0.898070  1
  Cl  Cl3764  1  0.723830  0.384020  0.485950  1
  Cl  Cl3765  1  0.723830  0.101930  0.615980  1
  Cl  Cl3766  1  0.276170  0.485950  0.101930  1
  Cl  Cl3767  1  0.276170  0.615980  0.514050  1
  Cl  Cl3768  1  0.276170  0.898070  0.384020  1
  Cl  Cl3769  1  0.343350  0.629680  0.129890  1
  Cl  Cl3770  1  0.343350  0.500210  0.370320  1
  Cl  Cl3771  1  0.343350  0.870110  0.499790  1
  Cl  Cl3772  1  0.656650  0.370320  0.870110  1
  Cl  Cl3773  1  0.656650  0.499790  0.629680  1
  Cl  Cl3774  1  0.656650  0.129890  0.500210  1
  Cl  Cl3775  1  0.150570  0.538070  0.763880  1
  Cl  Cl3776  1  0.150570  0.225810  0.461930  1
  Cl  Cl3777  1  0.150570  0.236120  0.774190  1
  Cl  Cl3778  1  0.849430  0.461930  0.236120  1
  Cl  Cl3779  1  0.849430  0.774190  0.538070  1
  Cl  Cl3780  1  0.849430  0.763880  0.225810  1
  Cl  Cl3781  1  0.213100  0.557290  0.618710  1
  Cl  Cl3782  1  0.213100  0.061420  0.442710  1
  Cl  Cl3783  1  0.213100  0.381290  0.938580  1
  Cl  Cl3784  1  0.786900  0.442710  0.381290  1
  Cl  Cl3785  1  0.786900  0.938580  0.557290  1
  Cl  Cl3786  1  0.786900  0.618710  0.061420  1
  Cl  Cl3787  1  0.398100  0.573300  0.948620  1
  Cl  Cl3788  1  0.398100  0.375320  0.426700  1
  Cl  Cl3789  1  0.398100  0.051380  0.624680  1
  Cl  Cl3790  1  0.601900  0.426700  0.051380  1
  Cl  Cl3791  1  0.601900  0.624680  0.573300  1
  Cl  Cl3792  1  0.601900  0.948620  0.375320  1
  Cl  Cl3793  1  0.877400  0.434600  0.742600  1
  Cl  Cl3794  1  0.877400  0.308000  0.565400  1
  Cl  Cl3795  1  0.877400  0.257400  0.692000  1
  Cl  Cl3796  1  0.122600  0.565400  0.257400  1
  Cl  Cl3797  1  0.122600  0.692000  0.434600  1
  Cl  Cl3798  1  0.122600  0.742600  0.308000  1
  Cl  Cl3799  1  0.859700  0.456300  0.757200  1
  Cl  Cl3800  1  0.859700  0.300900  0.543700  1
  Cl  Cl3801  1  0.859700  0.242800  0.699100  1
  Cl  Cl3802  1  0.140300  0.543700  0.242800  1
  Cl  Cl3803  1  0.140300  0.699100  0.456300  1
  Cl  Cl3804  1  0.140300  0.757200  0.300900  1
  O  O3805  1  0.676700  0.524030  0.824420  1
  O  O3806  1  0.676700  0.300390  0.475970  1
  O  O3807  1  0.676700  0.175580  0.699610  1
  O  O3808  1  0.323300  0.475970  0.175580  1
  O  O3809  1  0.323300  0.699610  0.524030  1
  O  O3810  1  0.323300  0.824420  0.300390  1
  O  O3811  1  0.607500  0.565930  0.829600  1
  O  O3812  1  0.607500  0.263670  0.434070  1
  O  O3813  1  0.607500  0.170400  0.736330  1
  O  O3814  1  0.392500  0.434070  0.170400  1
  O  O3815  1  0.392500  0.736330  0.565930  1
  O  O3816  1  0.392500  0.829600  0.263670  1
  O  O3817  1  0.192300  0.695500  0.789860  1
  O  O3818  1  0.192300  0.094360  0.304500  1
  O  O3819  1  0.192300  0.210140  0.905640  1
  O  O3820  1  0.807700  0.304500  0.210140  1
  O  O3821  1  0.807700  0.905640  0.695500  1
  O  O3822  1  0.807700  0.789860  0.094360  1
  O  O3823  1  0.114600  0.734340  0.801380  1
  O  O3824  1  0.114600  0.067040  0.265660  1
  O  O3825  1  0.114600  0.198620  0.932960  1
  O  O3826  1  0.885400  0.265660  0.198620  1
  O  O3827  1  0.885400  0.932960  0.734340  1
  O  O3828  1  0.885400  0.801380  0.067040  1
  O  O3829  1  0.664300  0.625650  0.867270  1
  O  O3830  1  0.664300  0.241620  0.374350  1
  O  O3831  1  0.664300  0.132730  0.758380  1
  O  O3832  1  0.335700  0.374350  0.132730  1
  O  O3833  1  0.335700  0.758380  0.625650  1
  O  O3834  1  0.335700  0.867270  0.241620  1
  O  O3835  1  0.579100  0.659010  0.882290  1
  O  O3836  1  0.579100  0.223280  0.340990  1
  O  O3837  1  0.579100  0.117710  0.776720  1
  O  O3838  1  0.420900  0.340990  0.117710  1
  O  O3839  1  0.420900  0.776720  0.659010  1
  O  O3840  1  0.420900  0.882290  0.223280  1
  O  O3841  1  0.100100  0.753960  0.866230  1
  O  O3842  1  0.100100  0.112270  0.246040  1
  O  O3843  1  0.100100  0.133770  0.887730  1
  O  O3844  1  0.899900  0.246040  0.133770  1
  O  O3845  1  0.899900  0.887730  0.753960  1
  O  O3846  1  0.899900  0.866230  0.112270  1
  O  O3847  1  0.010800  0.786480  0.887730  1
  O  O3848  1  0.010800  0.101250  0.213520  1
  O  O3849  1  0.010800  0.112270  0.898750  1
  O  O3850  1  0.989200  0.213520  0.112270  1
  O  O3851  1  0.989200  0.898750  0.786480  1
  O  O3852  1  0.989200  0.887730  0.101250  1
  O  O3853  1  0.614000  0.781210  0.967730  1
  O  O3854  1  0.614000  0.186520  0.218790  1
  O  O3855  1  0.614000  0.032270  0.813480  1
  O  O3856  1  0.386000  0.218790  0.032270  1
  O  O3857  1  0.386000  0.813480  0.781210  1
  O  O3858  1  0.386000  0.967730  0.186520  1
  O  O3859  1  0.510500  0.783170  0.980160  1
  O  O3860  1  0.510500  0.196990  0.216830  1
  O  O3861  1  0.510500  0.019840  0.803010  1
  O  O3862  1  0.489500  0.216830  0.019840  1
  O  O3863  1  0.489500  0.803010  0.783170  1
  O  O3864  1  0.489500  0.980160  0.196990  1
  O  O3865  1  0.959900  0.744410  0.915120  1
  O  O3866  1  0.959900  0.170710  0.255590  1
  O  O3867  1  0.959900  0.084880  0.829290  1
  O  O3868  1  0.040100  0.255590  0.084880  1
  O  O3869  1  0.040100  0.829290  0.744410  1
  O  O3870  1  0.040100  0.915120  0.170710  1
  O  O3871  1  0.855400  0.746370  0.925950  1
  O  O3872  1  0.855400  0.179580  0.253630  1
  O  O3873  1  0.855400  0.074050  0.820420  1
  O  O3874  1  0.144600  0.253630  0.074050  1
  O  O3875  1  0.144600  0.820420  0.746370  1
  O  O3876  1  0.144600  0.925950  0.179580  1
  O  O3877  1  0.438600  0.823950  0.042910  1
  O  O3878  1  0.438600  0.218960  0.176050  1
  O  O3879  1  0.438600  0.957090  0.781040  1
  O  O3880  1  0.561400  0.176050  0.957090  1
  O  O3881  1  0.561400  0.781040  0.823950  1
  O  O3882  1  0.561400  0.042910  0.218960  1
  O  O3883  1  0.356700  0.785760  0.028380  1
  O  O3884  1  0.356700  0.242620  0.214240  1
  O  O3885  1  0.356700  0.971620  0.757380  1
  O  O3886  1  0.643300  0.214240  0.971620  1
  O  O3887  1  0.643300  0.757380  0.785760  1
  O  O3888  1  0.643300  0.028380  0.242620  1
  O  O3889  1  0.937500  0.621320  0.904010  1
  O  O3890  1  0.937500  0.282690  0.378680  1
  O  O3891  1  0.937500  0.095990  0.717310  1
  O  O3892  1  0.062500  0.378680  0.095990  1
  O  O3893  1  0.062500  0.717310  0.621320  1
  O  O3894  1  0.062500  0.904010  0.282690  1
  O  O3895  1  0.871300  0.576630  0.888500  1
  O  O3896  1  0.871300  0.311870  0.423370  1
  O  O3897  1  0.871300  0.111500  0.688130  1
  O  O3898  1  0.128700  0.423370  0.111500  1
  O  O3899  1  0.128700  0.688130  0.576630  1
  O  O3900  1  0.128700  0.888500  0.311870  1
  O  O3901  1  0.348800  0.776530  0.080490  1
  O  O3902  1  0.348800  0.303960  0.223470  1
  O  O3903  1  0.348800  0.919510  0.696040  1
  O  O3904  1  0.651200  0.223470  0.919510  1
  O  O3905  1  0.651200  0.696040  0.776530  1
  O  O3906  1  0.651200  0.080490  0.303960  1
  O  O3907  1  0.291900  0.728120  0.055400  1
  O  O3908  1  0.291900  0.327280  0.271880  1
  O  O3909  1  0.291900  0.944600  0.672720  1
  O  O3910  1  0.708100  0.271880  0.944600  1
  O  O3911  1  0.708100  0.672720  0.728120  1
  O  O3912  1  0.708100  0.055400  0.327280  1
  O  O3913  1  0.954700  0.530590  0.877470  1
  O  O3914  1  0.954700  0.346880  0.469410  1
  O  O3915  1  0.954700  0.122530  0.653120  1
  O  O3916  1  0.045300  0.469410  0.122530  1
  O  O3917  1  0.045300  0.653120  0.530590  1
  O  O3918  1  0.045300  0.877470  0.346880  1
  O  O3919  1  0.910400  0.478200  0.845000  1
  O  O3920  1  0.910400  0.366800  0.521800  1
  O  O3921  1  0.910400  0.155000  0.633200  1
  O  O3922  1  0.089600  0.521800  0.155000  1
  O  O3923  1  0.089600  0.633200  0.478200  1
  O  O3924  1  0.089600  0.845000  0.366800  1
  O  O3925  1  0.242000  0.674090  0.123360  1
  O  O3926  1  0.242000  0.449270  0.325910  1
  O  O3927  1  0.242000  0.876640  0.550730  1
  O  O3928  1  0.758000  0.325910  0.876640  1
  O  O3929  1  0.758000  0.550730  0.674090  1
  O  O3930  1  0.758000  0.123360  0.449270  1
  O  O3931  1  0.236000  0.622850  0.073710  1
  O  O3932  1  0.236000  0.450860  0.377150  1
  O  O3933  1  0.236000  0.926290  0.549140  1
  O  O3934  1  0.764000  0.377150  0.926290  1
  O  O3935  1  0.764000  0.549140  0.622850  1
  O  O3936  1  0.764000  0.073710  0.450860  1
  O  O3937  1  0.001400  0.451520  0.792220  1
  O  O3938  1  0.001400  0.340700  0.548480  1
  O  O3939  1  0.001400  0.207780  0.659300  1
  O  O3940  1  0.998600  0.548480  0.207780  1
  O  O3941  1  0.998600  0.659300  0.451520  1
  O  O3942  1  0.998600  0.792220  0.340700  1
  O  O3943  1  0.999000  0.410400  0.735900  1
  O  O3944  1  0.999000  0.325500  0.589600  1
  O  O3945  1  0.999000  0.264100  0.674500  1
  O  O3946  1  0.001000  0.589600  0.264100  1
  O  O3947  1  0.001000  0.674500  0.410400  1
  O  O3948  1  0.001000  0.735900  0.325500  1
  O  O3949  1  0.266000  0.552890  0.053130  1
  O  O3950  1  0.266000  0.500240  0.447110  1
  O  O3951  1  0.266000  0.946870  0.499760  1
  O  O3952  1  0.734000  0.447110  0.946870  1
  O  O3953  1  0.734000  0.499760  0.552890  1
  O  O3954  1  0.734000  0.053130  0.500240  1
  O  O3955  1  0.277200  0.534730  0.994890  1
  O  O3956  1  0.277200  0.460160  0.465270  1
  O  O3957  1  0.277200  0.005110  0.539840  1
  O  O3958  1  0.722800  0.465270  0.005110  1
  O  O3959  1  0.722800  0.539840  0.534730  1
  O  O3960  1  0.722800  0.994890  0.460160  1
  O  O3961  1  0.182800  0.471350  0.725670  1
  O  O3962  1  0.182800  0.254320  0.528650  1
  O  O3963  1  0.182800  0.274330  0.745680  1
  O  O3964  1  0.817200  0.528650  0.274330  1
  O  O3965  1  0.817200  0.745680  0.471350  1
  O  O3966  1  0.817200  0.725670  0.254320  1
  O  O3967  1  0.201800  0.461810  0.672540  1
  O  O3968  1  0.201800  0.210730  0.538190  1
  O  O3969  1  0.201800  0.327460  0.789270  1
  O  O3970  1  0.798200  0.538190  0.327460  1
  O  O3971  1  0.798200  0.789270  0.461810  1
  O  O3972  1  0.798200  0.672540  0.210730  1
  O  O3973  1  0.389100  0.507590  0.981720  1
  O  O3974  1  0.389100  0.474130  0.492410  1
  O  O3975  1  0.389100  0.018280  0.525870  1
  O  O3976  1  0.610900  0.492410  0.018280  1
  O  O3977  1  0.610900  0.525870  0.507590  1
  O  O3978  1  0.610900  0.981720  0.474130  1
  O  O3979  1  0.401800  0.506880  0.931720  1
  O  O3980  1  0.401800  0.424840  0.493120  1
  O  O3981  1  0.401800  0.068280  0.575160  1
  O  O3982  1  0.598200  0.493120  0.068280  1
  O  O3983  1  0.598200  0.575160  0.506880  1
  O  O3984  1  0.598200  0.931720  0.424840  1
  O  O3985  1  0.296900  0.503790  0.689320  1
  O  O3986  1  0.296900  0.185530  0.496210  1
  O  O3987  1  0.296900  0.310680  0.814470  1
  O  O3988  1  0.703100  0.496210  0.310680  1
  O  O3989  1  0.703100  0.814470  0.503790  1
  O  O3990  1  0.703100  0.689320  0.185530  1
  O  O3991  1  0.318800  0.513570  0.645140  1
  O  O3992  1  0.318800  0.131570  0.486430  1
  O  O3993  1  0.318800  0.354860  0.868430  1
  O  O3994  1  0.681200  0.486430  0.354860  1
  O  O3995  1  0.681200  0.868430  0.513570  1
  O  O3996  1  0.681200  0.645140  0.131570  1
  O  O3997  1  0.604700  0.462750  0.881350  1
  O  O3998  1  0.604700  0.418600  0.537250  1
  O  O3999  1  0.604700  0.118650  0.581400  1
  O  O4000  1  0.395300  0.537250  0.118650  1
  O  O4001  1  0.395300  0.581400  0.462750  1
  O  O4002  1  0.395300  0.881350  0.418600  1
  O  O4003  1  0.595000  0.492490  0.852250  1
  O  O4004  1  0.595000  0.359760  0.507510  1
  O  O4005  1  0.595000  0.147750  0.640240  1
  O  O4006  1  0.405000  0.507510  0.147750  1
  O  O4007  1  0.405000  0.640240  0.492490  1
  O  O4008  1  0.405000  0.852250  0.359760  1
  O  O4009  1  0.310300  0.586930  0.684480  1
  O  O4010  1  0.310300  0.097550  0.413070  1
  O  O4011  1  0.310300  0.315520  0.902450  1
  O  O4012  1  0.689700  0.413070  0.315520  1
  O  O4013  1  0.689700  0.902450  0.586930  1
  O  O4014  1  0.689700  0.684480  0.097550  1
  O  O4015  1  0.294800  0.627500  0.670840  1
  O  O4016  1  0.294800  0.043340  0.372500  1
  O  O4017  1  0.294800  0.329160  0.956660  1
  O  O4018  1  0.705200  0.372500  0.329160  1
  O  O4019  1  0.705200  0.956660  0.627500  1
  O  O4020  1  0.705200  0.670840  0.043340  1
  O  O4021  1  0.484400  0.616320  0.847170  1
  O  O4022  1  0.484400  0.230850  0.383680  1
  O  O4023  1  0.484400  0.152830  0.769150  1
  O  O4024  1  0.515600  0.383680  0.152830  1
  O  O4025  1  0.515600  0.769150  0.616320  1
  O  O4026  1  0.515600  0.847170  0.230850  1
  O  O4027  1  0.443800  0.660710  0.875530  1
  O  O4028  1  0.443800  0.214820  0.339290  1
  O  O4029  1  0.443800  0.124470  0.785180  1
  O  O4030  1  0.556200  0.339290  0.124470  1
  O  O4031  1  0.556200  0.785180  0.660710  1
  O  O4032  1  0.556200  0.875530  0.214820  1
  O  O4033  1  0.514000  0.632640  0.907520  1
  O  O4034  1  0.514000  0.274880  0.367360  1
  O  O4035  1  0.514000  0.092480  0.725120  1
  O  O4036  1  0.486000  0.367360  0.092480  1
  O  O4037  1  0.486000  0.725120  0.632640  1
  O  O4038  1  0.486000  0.907520  0.274880  1
  O  O4039  1  0.500100  0.672000  0.949200  1
  O  O4040  1  0.500100  0.277200  0.328000  1
  O  O4041  1  0.500100  0.050800  0.722800  1
  O  O4042  1  0.499900  0.328000  0.050800  1
  O  O4043  1  0.499900  0.722800  0.672000  1
  O  O4044  1  0.499900  0.949200  0.277200  1
  O  O4045  1  0.579500  0.714160  0.951770  1
  O  O4046  1  0.579500  0.237610  0.285840  1
  O  O4047  1  0.579500  0.048230  0.762390  1
  O  O4048  1  0.420500  0.285840  0.048230  1
  O  O4049  1  0.420500  0.762390  0.714160  1
  O  O4050  1  0.420500  0.951770  0.237610  1
  O  O4051  1  0.625100  0.722430  0.991880  1
  O  O4052  1  0.625100  0.269450  0.277570  1
  O  O4053  1  0.625100  0.008120  0.730550  1
  O  O4054  1  0.374900  0.277570  0.008120  1
  O  O4055  1  0.374900  0.730550  0.722430  1
  O  O4056  1  0.374900  0.991880  0.269450  1
  O  O4057  1  0.435600  0.720280  0.944370  1
  O  O4058  1  0.435600  0.224090  0.279720  1
  O  O4059  1  0.435600  0.055630  0.775910  1
  O  O4060  1  0.564400  0.279720  0.055630  1
  O  O4061  1  0.564400  0.775910  0.720280  1
  O  O4062  1  0.564400  0.944370  0.224090  1
  O  O4063  1  0.373800  0.732900  0.979510  1
  O  O4064  1  0.373800  0.246610  0.267100  1
  O  O4065  1  0.373800  0.020490  0.753390  1
  O  O4066  1  0.626200  0.267100  0.020490  1
  O  O4067  1  0.626200  0.753390  0.732900  1
  O  O4068  1  0.626200  0.979510  0.246610  1
  O  O4069  1  0.486600  0.755200  0.013540  1
  O  O4070  1  0.486600  0.258340  0.244800  1
  O  O4071  1  0.486600  0.986460  0.741660  1
  O  O4072  1  0.513400  0.244800  0.986460  1
  O  O4073  1  0.513400  0.741660  0.755200  1
  O  O4074  1  0.513400  0.013540  0.258340  1
  O  O4075  1  0.424500  0.742220  0.035940  1
  O  O4076  1  0.424500  0.293720  0.257780  1
  O  O4077  1  0.424500  0.964060  0.706280  1
  O  O4078  1  0.575500  0.257780  0.964060  1
  O  O4079  1  0.575500  0.706280  0.742220  1
  O  O4080  1  0.575500  0.035940  0.293720  1
  O  O4081  1  0.266200  0.717660  0.991170  1
  O  O4082  1  0.266200  0.273510  0.282340  1
  O  O4083  1  0.266200  0.008830  0.726490  1
  O  O4084  1  0.733800  0.282340  0.008830  1
  O  O4085  1  0.733800  0.726490  0.717660  1
  O  O4086  1  0.733800  0.991170  0.273510  1
  O  O4087  1  0.227900  0.678390  0.991270  1
  O  O4088  1  0.227900  0.312880  0.321610  1
  O  O4089  1  0.227900  0.008730  0.687120  1
  O  O4090  1  0.772100  0.321610  0.008730  1
  O  O4091  1  0.772100  0.687120  0.678390  1
  O  O4092  1  0.772100  0.991270  0.312880  1
  O  O4093  1  0.256300  0.626110  0.010450  1
  O  O4094  1  0.256300  0.384340  0.373890  1
  O  O4095  1  0.256300  0.989550  0.615660  1
  O  O4096  1  0.743700  0.373890  0.989550  1
  O  O4097  1  0.743700  0.615660  0.626110  1
  O  O4098  1  0.743700  0.010450  0.384340  1
  O  O4099  1  0.275700  0.578310  0.981810  1
  O  O4100  1  0.275700  0.403500  0.421690  1
  O  O4101  1  0.275700  0.018190  0.596500  1
  O  O4102  1  0.724300  0.421690  0.018190  1
  O  O4103  1  0.724300  0.596500  0.578310  1
  O  O4104  1  0.724300  0.981810  0.403500  1
  O  O4105  1  0.326800  0.676100  0.070750  1
  O  O4106  1  0.326800  0.394650  0.323900  1
  O  O4107  1  0.326800  0.929250  0.605350  1
  O  O4108  1  0.673200  0.323900  0.929250  1
  O  O4109  1  0.673200  0.605350  0.676100  1
  O  O4110  1  0.673200  0.070750  0.394650  1
  O  O4111  1  0.384700  0.678900  0.104150  1
  O  O4112  1  0.384700  0.425250  0.321100  1
  O  O4113  1  0.384700  0.895850  0.574750  1
  O  O4114  1  0.615300  0.321100  0.895850  1
  O  O4115  1  0.615300  0.574750  0.678900  1
  O  O4116  1  0.615300  0.104150  0.425250  1
  O  O4117  1  0.335700  0.602130  0.046740  1
  O  O4118  1  0.335700  0.444610  0.397870  1
  O  O4119  1  0.335700  0.953260  0.555390  1
  O  O4120  1  0.664300  0.397870  0.953260  1
  O  O4121  1  0.664300  0.555390  0.602130  1
  O  O4122  1  0.664300  0.046740  0.444610  1
  O  O4123  1  0.380300  0.569120  0.004870  1
  O  O4124  1  0.380300  0.435750  0.430880  1
  O  O4125  1  0.380300  0.995130  0.564250  1
  O  O4126  1  0.619700  0.430880  0.995130  1
  O  O4127  1  0.619700  0.564250  0.569120  1
  O  O4128  1  0.619700  0.004870  0.435750  1
  O  O4129  1  0.293900  0.531520  0.920820  1
  O  O4130  1  0.293900  0.389300  0.468480  1
  O  O4131  1  0.293900  0.079180  0.610700  1
  O  O4132  1  0.706100  0.468480  0.079180  1
  O  O4133  1  0.706100  0.610700  0.531520  1
  O  O4134  1  0.706100  0.920820  0.389300  1
  O  O4135  1  0.347400  0.525780  0.883120  1
  O  O4136  1  0.347400  0.357340  0.474220  1
  O  O4137  1  0.347400  0.116880  0.642660  1
  O  O4138  1  0.652600  0.474220  0.116880  1
  O  O4139  1  0.652600  0.642660  0.525780  1
  O  O4140  1  0.652600  0.883120  0.357340  1
  O  O4141  1  0.476000  0.534440  0.866590  1
  O  O4142  1  0.476000  0.332150  0.465560  1
  O  O4143  1  0.476000  0.133410  0.667850  1
  O  O4144  1  0.524000  0.465560  0.133410  1
  O  O4145  1  0.524000  0.667850  0.534440  1
  O  O4146  1  0.524000  0.866590  0.332150  1
  O  O4147  1  0.514600  0.567500  0.856860  1
  O  O4148  1  0.514600  0.289360  0.432500  1
  O  O4149  1  0.514600  0.143140  0.710640  1
  O  O4150  1  0.485400  0.432500  0.143140  1
  O  O4151  1  0.485400  0.710640  0.567500  1
  O  O4152  1  0.485400  0.856860  0.289360  1
  O  O4153  1  0.524900  0.523090  0.918320  1
  O  O4154  1  0.524900  0.395230  0.476910  1
  O  O4155  1  0.524900  0.081680  0.604770  1
  O  O4156  1  0.475100  0.476910  0.081680  1
  O  O4157  1  0.475100  0.604770  0.523090  1
  O  O4158  1  0.475100  0.918320  0.395230  1
  O  O4159  1  0.597400  0.531880  0.947380  1
  O  O4160  1  0.597400  0.415500  0.468120  1
  O  O4161  1  0.597400  0.052620  0.584500  1
  O  O4162  1  0.402600  0.468120  0.052620  1
  O  O4163  1  0.402600  0.584500  0.531880  1
  O  O4164  1  0.402600  0.947380  0.415500  1
  O  O4165  1  0.610500  0.553700  0.889530  1
  O  O4166  1  0.610500  0.335830  0.446300  1
  O  O4167  1  0.610500  0.110470  0.664170  1
  O  O4168  1  0.389500  0.446300  0.110470  1
  O  O4169  1  0.389500  0.664170  0.553700  1
  O  O4170  1  0.389500  0.889530  0.335830  1
  O  O4171  1  0.612900  0.600100  0.896590  1
  O  O4172  1  0.612900  0.296490  0.399900  1
  O  O4173  1  0.612900  0.103410  0.703510  1
  O  O4174  1  0.387100  0.399900  0.103410  1
  O  O4175  1  0.387100  0.703510  0.600100  1
  O  O4176  1  0.387100  0.896590  0.296490  1
  O  O4177  1  0.272500  0.514470  0.766020  1
  O  O4178  1  0.272500  0.251550  0.485530  1
  O  O4179  1  0.272500  0.233980  0.748450  1
  O  O4180  1  0.727500  0.485530  0.233980  1
  O  O4181  1  0.727500  0.748450  0.514470  1
  O  O4182  1  0.727500  0.766020  0.251550  1
  O  O4183  1  0.223700  0.510070  0.800290  1
  O  O4184  1  0.223700  0.290220  0.489930  1
  O  O4185  1  0.223700  0.199710  0.709780  1
  O  O4186  1  0.776300  0.489930  0.199710  1
  O  O4187  1  0.776300  0.709780  0.510070  1
  O  O4188  1  0.776300  0.800290  0.290220  1
  O  O4189  1  0.054300  0.477700  0.748710  1
  O  O4190  1  0.054300  0.271010  0.522300  1
  O  O4191  1  0.054300  0.251290  0.728990  1
  O  O4192  1  0.945700  0.522300  0.251290  1
  O  O4193  1  0.945700  0.728990  0.477700  1
  O  O4194  1  0.945700  0.748710  0.271010  1
  O  O4195  1  0.980000  0.471700  0.723800  1
  O  O4196  1  0.980000  0.252100  0.528300  1
  O  O4197  1  0.980000  0.276200  0.747900  1
  O  O4198  1  0.020000  0.528300  0.276200  1
  O  O4199  1  0.020000  0.747900  0.471700  1
  O  O4200  1  0.020000  0.723800  0.252100  1
  O  O4201  1  0.954500  0.505130  0.802410  1
  O  O4202  1  0.954500  0.297280  0.494870  1
  O  O4203  1  0.954500  0.197590  0.702720  1
  O  O4204  1  0.045500  0.494870  0.197590  1
  O  O4205  1  0.045500  0.702720  0.505130  1
  O  O4206  1  0.045500  0.802410  0.297280  1
  O  O4207  1  0.933300  0.552960  0.836200  1
  O  O4208  1  0.933300  0.283240  0.447040  1
  O  O4209  1  0.933300  0.163800  0.716760  1
  O  O4210  1  0.066700  0.447040  0.163800  1
  O  O4211  1  0.066700  0.716760  0.552960  1
  O  O4212  1  0.066700  0.836200  0.283240  1
  O  O4213  1  0.049800  0.597110  0.910110  1
  O  O4214  1  0.049800  0.313000  0.402890  1
  O  O4215  1  0.049800  0.089890  0.687000  1
  O  O4216  1  0.950200  0.402890  0.089890  1
  O  O4217  1  0.950200  0.687000  0.597110  1
  O  O4218  1  0.950200  0.910110  0.313000  1
  O  O4219  1  0.068800  0.643320  0.920270  1
  O  O4220  1  0.068800  0.276950  0.356680  1
  O  O4221  1  0.068800  0.079730  0.723050  1
  O  O4222  1  0.931200  0.356680  0.079730  1
  O  O4223  1  0.931200  0.723050  0.643320  1
  O  O4224  1  0.931200  0.920270  0.276950  1
  O  O4225  1  0.012600  0.598840  0.859460  1
  O  O4226  1  0.012600  0.260620  0.401160  1
  O  O4227  1  0.012600  0.140540  0.739380  1
  O  O4228  1  0.987400  0.401160  0.140540  1
  O  O4229  1  0.987400  0.739380  0.598840  1
  O  O4230  1  0.987400  0.859460  0.260620  1
  O  O4231  1  0.008100  0.629700  0.842030  1
  O  O4232  1  0.008100  0.212330  0.370300  1
  O  O4233  1  0.008100  0.157970  0.787670  1
  O  O4234  1  0.991900  0.370300  0.157970  1
  O  O4235  1  0.991900  0.787670  0.629700  1
  O  O4236  1  0.991900  0.842030  0.212330  1
  O  O4237  1  0.051500  0.690120  0.895560  1
  O  O4238  1  0.051500  0.205440  0.309880  1
  O  O4239  1  0.051500  0.104440  0.794560  1
  O  O4240  1  0.948500  0.309880  0.104440  1
  O  O4241  1  0.948500  0.794560  0.690120  1
  O  O4242  1  0.948500  0.895560  0.205440  1
  O  O4243  1  0.104800  0.703130  0.870560  1
  O  O4244  1  0.104800  0.167430  0.296870  1
  O  O4245  1  0.104800  0.129440  0.832570  1
  O  O4246  1  0.895200  0.296870  0.129440  1
  O  O4247  1  0.895200  0.832570  0.703130  1
  O  O4248  1  0.895200  0.870560  0.167430  1
  O  O4249  1  0.920400  0.670790  0.880180  1
  O  O4250  1  0.920400  0.209390  0.329210  1
  O  O4251  1  0.920400  0.119820  0.790610  1
  O  O4252  1  0.079600  0.329210  0.119820  1
  O  O4253  1  0.079600  0.790610  0.670790  1
  O  O4254  1  0.079600  0.880180  0.209390  1
  O  O4255  1  0.855300  0.672780  0.852640  1
  O  O4256  1  0.855300  0.179860  0.327220  1
  O  O4257  1  0.855300  0.147360  0.820140  1
  O  O4258  1  0.144700  0.327220  0.147360  1
  O  O4259  1  0.144700  0.820140  0.672780  1
  O  O4260  1  0.144700  0.852640  0.179860  1
  O  O4261  1  0.984700  0.711560  0.852860  1
  O  O4262  1  0.984700  0.141300  0.288440  1
  O  O4263  1  0.984700  0.147140  0.858700  1
  O  O4264  1  0.015300  0.288440  0.147140  1
  O  O4265  1  0.015300  0.858700  0.711560  1
  O  O4266  1  0.015300  0.852860  0.141300  1
  O  O4267  1  0.048700  0.700740  0.817230  1
  O  O4268  1  0.048700  0.116490  0.299260  1
  O  O4269  1  0.048700  0.182770  0.883510  1
  O  O4270  1  0.951300  0.299260  0.182770  1
  O  O4271  1  0.951300  0.883510  0.700740  1
  O  O4272  1  0.951300  0.817230  0.116490  1
  O  O4273  1  0.044800  0.540860  0.854020  1
  O  O4274  1  0.044800  0.313160  0.459140  1
  O  O4275  1  0.044800  0.145980  0.686840  1
  O  O4276  1  0.955200  0.459140  0.145980  1
  O  O4277  1  0.955200  0.686840  0.540860  1
  O  O4278  1  0.955200  0.854020  0.313160  1
  O  O4279  1  0.094400  0.508920  0.816330  1
  O  O4280  1  0.094400  0.307410  0.491080  1
  O  O4281  1  0.094400  0.183670  0.692590  1
  O  O4282  1  0.905600  0.491080  0.183670  1
  O  O4283  1  0.905600  0.692590  0.508920  1
  O  O4284  1  0.905600  0.816330  0.307410  1
  O  O4285  1  0.135700  0.658960  0.805900  1
  O  O4286  1  0.135700  0.146940  0.341040  1
  O  O4287  1  0.135700  0.194100  0.853060  1
  O  O4288  1  0.864300  0.341040  0.194100  1
  O  O4289  1  0.864300  0.853060  0.658960  1
  O  O4290  1  0.864300  0.805900  0.146940  1
  O  O4291  1  0.155800  0.621100  0.762300  1
  O  O4292  1  0.155800  0.141200  0.378900  1
  O  O4293  1  0.155800  0.237700  0.858800  1
  O  O4294  1  0.844200  0.378900  0.237700  1
  O  O4295  1  0.844200  0.858800  0.621100  1
  O  O4296  1  0.844200  0.762300  0.141200  1
  O  O4297  1  0.214900  0.698880  0.851130  1
  O  O4298  1  0.214900  0.152250  0.301120  1
  O  O4299  1  0.214900  0.148870  0.847750  1
  O  O4300  1  0.785100  0.301120  0.148870  1
  O  O4301  1  0.785100  0.847750  0.698880  1
  O  O4302  1  0.785100  0.851130  0.152250  1
  O  O4303  1  0.268600  0.661960  0.818760  1
  O  O4304  1  0.268600  0.156800  0.338040  1
  O  O4305  1  0.268600  0.181240  0.843200  1
  O  O4306  1  0.731400  0.338040  0.181240  1
  O  O4307  1  0.731400  0.843200  0.661960  1
  O  O4308  1  0.731400  0.818760  0.156800  1
  O  O4309  1  0.200700  0.634300  0.719100  1
  O  O4310  1  0.200700  0.084800  0.365700  1
  O  O4311  1  0.200700  0.280900  0.915200  1
  O  O4312  1  0.799300  0.365700  0.280900  1
  O  O4313  1  0.799300  0.915200  0.634300  1
  O  O4314  1  0.799300  0.719100  0.084800  1
  O  O4315  1  0.145100  0.619000  0.680900  1
  O  O4316  1  0.145100  0.061900  0.381000  1
  O  O4317  1  0.145100  0.319100  0.938100  1
  O  O4318  1  0.854900  0.381000  0.319100  1
  O  O4319  1  0.854900  0.938100  0.619000  1
  O  O4320  1  0.854900  0.680900  0.061900  1
  O  O4321  1  0.182200  0.523500  0.698560  1
  O  O4322  1  0.182200  0.175060  0.476500  1
  O  O4323  1  0.182200  0.301440  0.824940  1
  O  O4324  1  0.817800  0.476500  0.301440  1
  O  O4325  1  0.817800  0.824940  0.523500  1
  O  O4326  1  0.817800  0.698560  0.175060  1
  O  O4327  1  0.215200  0.557700  0.688130  1
  O  O4328  1  0.215200  0.130430  0.442300  1
  O  O4329  1  0.215200  0.311870  0.869570  1
  O  O4330  1  0.784800  0.442300  0.311870  1
  O  O4331  1  0.784800  0.869570  0.557700  1
  O  O4332  1  0.784800  0.688130  0.130430  1
  O  O4333  1  0.270300  0.554020  0.741850  1
  O  O4334  1  0.270300  0.187830  0.445980  1
  O  O4335  1  0.270300  0.258150  0.812170  1
  O  O4336  1  0.729700  0.445980  0.258150  1
  O  O4337  1  0.729700  0.812170  0.554020  1
  O  O4338  1  0.729700  0.741850  0.187830  1
  O  O4339  1  0.275100  0.601520  0.753470  1
  O  O4340  1  0.275100  0.151950  0.398480  1
  O  O4341  1  0.275100  0.246530  0.848050  1
  O  O4342  1  0.724900  0.398480  0.246530  1
  O  O4343  1  0.724900  0.848050  0.601520  1
  O  O4344  1  0.724900  0.753470  0.151950  1
  O  O4345  1  0.360200  0.685700  0.003360  1
  O  O4346  1  0.360200  0.317660  0.314300  1
  O  O4347  1  0.360200  0.996640  0.682340  1
  O  O4348  1  0.639800  0.314300  0.996640  1
  O  O4349  1  0.639800  0.682340  0.685700  1
  O  O4350  1  0.639800  0.003360  0.317660  1
  O  O4351  1  0.351200  0.655800  0.019190  1
  O  O4352  1  0.351200  0.363390  0.344200  1
  O  O4353  1  0.351200  0.980810  0.636610  1
  O  O4354  1  0.648800  0.344200  0.980810  1
  O  O4355  1  0.648800  0.636610  0.655800  1
  O  O4356  1  0.648800  0.019190  0.363390  1
