
#######################################################################
#
#                 Cambridge Crystallographic Data Centre
#                                CCDC 
#
#######################################################################
#
# If this CIF has been generated from an entry in the Cambridge 
# Structural Database, then it will include bibliographic, chemical, 
# crystal, experimental, refinement or atomic coordinate data resulting 
# from the CCDC's data processing and validation procedures.
#
#######################################################################

data_BOQFEU
_chemical_formula_moiety         'C254 H318 Cd18 Cl8 N18 O92 Tb6'
_chemical_name_systematic        
"nonakis(\m-2,2'-(Hexane-1,6-diylbis(nitrilomethylylidene))bis(6-methoxyphenolato))-octacosakis(\m-acetato)-bis(\m-chloro)-hexachloro-octadeca-cadmium-hexa-terbium unknown solvate"
_symmetry_cell_setting           trigonal
_symmetry_space_group_name_H-M   'P -3'
_symmetry_Int_Tables_number      147
_space_group_name_Hall           '-P 3'
loop_
_symmetry_equiv_pos_site_id
_symmetry_equiv_pos_as_xyz
1 x,y,z
2 -y,x-y,z
3 -x+y,-x,z
4 -x,-y,-z
5 y,-x+y,-z
6 x-y,x,-z
_cell_length_a                   51.114(7)
_cell_length_b                   51.114(7)
_cell_length_c                   24.362(5)
_cell_angle_alpha                90
_cell_angle_beta                 90
_cell_angle_gamma                120
_cell_volume                     55121.8
_exptl_crystal_colour            yellow
_exptl_crystal_description       Block
_chemical_melting_point          'decomposes above 184 deg.C'
_cell_formula_units_Z            6
loop_
_atom_site_label
_atom_site_type_symbol
_atom_site_fract_x
_atom_site_fract_y
_atom_site_fract_z
Tb1 Tb 0.390994(9) 0.253847(8) 0.435135(15)
Tb2 Tb 0.258152(9) 0.282627(9) 0.667236(15)
Tb3 Tb 0.463539(10) 0.425341(10) 0.666079(19)
Tb4 Tb 0.494517(10) 0.217314(10) 0.764249(19)
Tb5 Tb 0.289244(10) 0.121596(10) 0.858695(16)
Tb6 Tb 0.424789(11) 0.307421(12) 1.024905(17)
Cd1 Cd 0.416561(17) 0.444049(17) 0.74762(3)
Cd2 Cd 0.475164(16) 0.376777(15) 0.56667(3)
Cd3 Cd 0.470391(15) 0.312105(15) 0.42213(3)
Cd4 Cd 0.484775(17) 0.384642(16) 0.37610(3)
Cd5 Cd 0.313783(16) 0.227487(16) 0.49315(3)
Cd6 Cd 0.239344(17) 0.235746(18) 0.42990(3)
Cd7 Cd 0.225256(16) 0.219032(15) 0.57289(3)
Cd8 Cd 0.322906(17) 0.351925(17) 0.72357(3)
Cd9 Cd 0.356574(18) 0.448765(17) 0.68292(3)
Cd10 Cd 0.53932(3) 0.29796(3) 1.03949(5)
Cd11 Cd 0.40702(3) 0.08043(2) 0.77549(5)
Cd12 Cd 0.50476(2) 0.33974(2) 0.99893(3)
Cd13 Cd 0.506293(18) 0.279087(18) 0.85729(3)
Cd14 Cd 0.446679(18) 0.146236(17) 0.69745(3)
Cd15 Cd 0.350810(17) 0.123863(16) 0.76900(3)
Cd16 Cd 0.260244(17) 0.152159(17) 0.95980(3)
Cd17 Cd 0.284496(19) 0.161366(19) 1.09718(3)
Cd18 Cd 0.347038(18) 0.243846(17) 1.00436(3)
Cl1 Cl 0.25428(8) 0.11441(7) 1.14726(11)
Cl2 Cl 0.19930(7) 0.24142(8) 0.38693(12)
Cl3 Cl 0.48595(9) 0.38402(7) 0.27617(12)
Cl4 Cl 0.37032(7) 0.50021(6) 0.65665(17)
Cl5 Cl 0.46193(10) 0.22581(9) 0.84943(19)
Cl6 Cl 0.44271(14) 0.06142(12) 0.7869(2)
Cl7 Cl 0.42670(13) 0.37532(14) 0.6019(3)
Cl8 Cl 0.5654(8) 0.3080(5) 1.1226(10)
N1 N 0.38579(15) 0.20446(14) 0.4140(3)
N2 N 0.33013(17) 0.08827(16) 0.7036(3)
N3 N 0.28141(15) 0.17910(15) 0.4672(3)
N4 N 0.24754(18) 0.09458(16) 0.7901(3)
N5 N 0.19290(17) 0.17067(17) 0.5996(3)
N6 N 0.22363(17) 0.16099(17) 0.9327(3)
N7 N 0.22471(16) 0.26985(15) 0.7491(3)
N8 N 0.31329(19) 0.25653(19) 1.0444(3)
N9 N 0.30835(19) 0.37059(18) 0.7954(3)
N10 N 0.4150(2) 0.34913(19) 1.0460(3)
N11 N 0.4253(2) 0.4545(2) 0.8379(4)
N12 N 0.5322(2) 0.3875(2) 0.9653(4)
N13 N 0.51497(18) 0.45069(17) 0.7068(4)
N14 N 0.55432(19) 0.31861(18) 0.8470(4)
N15 N 0.52624(16) 0.39665(16) 0.5554(3)
N16 N 0.53804(17) 0.24850(17) 0.7026(3)
N17 N 0.51062(18) 0.30526(17) 0.4321(3)
N18 N 0.4444(2) 0.14489(19) 0.6058(4)
O1 O 0.47597(14) 0.30039(14) 0.3233(2)
O2 O 0.43407(14) 0.26367(12) 0.3925(2)
O3 O 0.30450(14) 0.09436(13) 0.8077(2)
O4 O 0.26566(16) 0.06704(14) 0.8854(3)
O5 O 0.37435(13) 0.24162(12) 0.3357(2)
O6 O 0.34099(12) 0.22328(12) 0.4209(2)
O7 O 0.24604(14) 0.11227(14) 0.8999(2)
O8 O 0.21352(15) 0.10125(15) 0.9892(3)
O9 O 0.21879(15) 0.18652(15) 0.3860(2)
O10 O 0.21683(13) 0.19699(14) 0.4895(2)
O11 O 0.25559(15) 0.17071(15) 1.0401(2)
O12 O 0.25363(18) 0.17958(19) 1.1446(3)
O13 O 0.17605(14) 0.21896(14) 0.5614(2)
O14 O 0.21424(13) 0.24262(12) 0.6433(2)
O15 O 0.37868(15) 0.28269(15) 1.0625(2)
O16 O 0.42337(17) 0.31187(17) 1.1287(3)
O17 O 0.22347(14) 0.30396(13) 0.6512(2)
O18 O 0.27188(13) 0.32728(13) 0.7081(2)
O19 O 0.46941(17) 0.34688(17) 1.0453(3)
O20 O 0.5218(2) 0.3668(2) 1.0896(4)
O21 O 0.32591(16) 0.44927(16) 0.7580(3)
O22 O 0.37715(15) 0.45086(15) 0.7640(3)
O23 O 0.54848(19) 0.3407(2) 0.9986(4)
O24 O 0.5896(2) 0.3255(2) 1.0010(5)
O25 O 0.44711(16) 0.50024(15) 0.7340(3)
O26 O 0.46527(14) 0.46016(14) 0.7228(3)
O27 O 0.52865(15) 0.25432(15) 0.8172(3)
O28 O 0.53819(17) 0.21073(17) 0.7982(4)
O29 O 0.49241(18) 0.47413(15) 0.6109(3)
O30 O 0.49312(15) 0.42484(14) 0.5982(3)
O31 O 0.49621(15) 0.18553(15) 0.7031(3)
O32 O 0.48643(18) 0.13157(16) 0.6812(3)
O33 O 0.53725(15) 0.41860(15) 0.3953(3)
O34 O 0.50751(14) 0.35976(14) 0.4050(3)
O35 O 0.41307(16) 0.09755(15) 0.6897(3)
O36 O 0.3725(2) 0.04334(17) 0.7052(4)
O37 O 0.38368(13) 0.23085(13) 0.5156(2)
O38 O 0.33929(13) 0.21482(13) 0.5562(2)
O39 O 0.36736(15) 0.27488(13) 0.4860(3)
O40 O 0.3280(2) 0.2772(2) 0.4999(4)
O41 O 0.28584(16) 0.23761(16) 0.4205(3)
O42 O 0.27757(15) 0.26945(16) 0.3749(3)
O43 O 0.27972(14) 0.22409(15) 0.5644(2)
O44 O 0.26710(13) 0.24661(13) 0.6262(2)
O45 O 0.24480(15) 0.25834(15) 0.5134(2)
O46 O 0.25778(15) 0.29372(14) 0.5755(2)
O47 O 0.28234(13) 0.27351(13) 0.7338(2)
O48 O 0.32161(14) 0.31288(14) 0.7721(2)
O49 O 0.37389(16) 0.38434(16) 0.7437(4)
O50 O 0.42169(14) 0.40350(14) 0.7243(3)
O51 O 0.3239(2) 0.39465(19) 0.6732(3)
O52 O 0.3211(2) 0.42525(16) 0.6153(3)
O53 O 0.39787(16) 0.44461(16) 0.6643(3)
O54 O 0.43088(18) 0.43575(18) 0.6197(3)
O55 O 0.46848(14) 0.38930(13) 0.7061(3)
O56 O 0.47422(14) 0.35734(14) 0.6526(2)
O57 O 0.46556(13) 0.33215(13) 0.5240(2)
O58 O 0.43250(13) 0.28936(13) 0.4854(2)
O59 O 0.47691(18) 0.39523(17) 0.4751(3)
O60 O 0.46812(17) 0.41550(17) 0.4026(3)
O61 O 0.44630(14) 0.33583(14) 0.3895(3)
O62 O 0.39990(14) 0.29649(13) 0.3871(3)
O63 O 0.48553(14) 0.25155(13) 0.7275(3)
O64 O 0.48993(15) 0.29022(15) 0.7763(3)
O65 O 0.5223(2) 0.27101(19) 0.9457(4)
O66 O 0.5283(3) 0.2521(2) 1.0200(4)
O67 O 0.49487(18) 0.29728(19) 1.0455(3)
O68 O 0.44704(18) 0.28324(18) 1.0667(3)
O69 O 0.40289(16) 0.31300(16) 0.9502(3)
O70 O 0.35668(15) 0.27695(15) 0.9312(2)
O71 O 0.40116(18) 0.26062(18) 0.9874(3)
O72 O 0.3703(2) 0.21233(19) 0.9919(3)
O73 O 0.30988(15) 0.20544(14) 0.9485(2)
O74 O 0.29687(14) 0.16743(14) 0.8952(2)
O75 O 0.32921(17) 0.20939(16) 1.0796(3)
O76 O 0.32722(18) 0.17986(17) 1.1447(3)
O77 O 0.28844(15) 0.14130(15) 1.0153(2)
O78 O 0.29926(16) 0.11649(16) 0.9513(3)
O79 O 0.45914(16) 0.31316(17) 0.9552(3)
O80 O 0.49108(16) 0.30741(16) 0.9056(3)
O81 O 0.34104(16) 0.14694(16) 0.8643(3)
O82 O 0.3789(2) 0.1412(2) 0.8442(4)
O83 O 0.30112(14) 0.15225(14) 0.7851(2)
O84 O 0.33804(14) 0.15680(13) 0.7314(2)
O85 O 0.3657(2) 0.0848(2) 0.7993(4)
O86 O 0.3810(3) 0.0619(3) 0.8549(5)
O87 O 0.47650(18) 0.17506(16) 0.8178(3)
O88 O 0.44230(16) 0.13043(15) 0.7848(3)
O89 O 0.44598(14) 0.18783(14) 0.7297(3)
O90 O 0.39848(14) 0.15195(14) 0.7249(3)
O91 O 0.31430(18) 0.31766(17) 0.6398(4)
O92 O 0.3442(2) 0.36339(17) 0.6488(3)
C1 C 0.5011(2) 0.3208(2) 0.2908(5)
H1 H 0.4993 0.3125 0.2547
H2 H 0.5194 0.3240 0.3076
H3 H 0.5015 0.3398 0.2882
C2 C 0.4626(2) 0.26979(19) 0.3115(4)
C3 C 0.4698(2) 0.2573(2) 0.2694(4)
H4 H 0.4859 0.2698 0.2467
C4 C 0.4540(2) 0.2272(2) 0.2593(4)
H5 H 0.4583 0.2194 0.2284
C5 C 0.4316(2) 0.2082(2) 0.2955(4)
H6 H 0.4212 0.1875 0.2894
C6 C 0.4246(2) 0.2203(2) 0.3413(4)
C7 C 0.4401(2) 0.2511(2) 0.3509(3)
C8 C 0.4001(2) 0.1989(2) 0.3750(4)
H7 H 0.3937 0.1786 0.3684
C9 C 0.36160(19) 0.17741(19) 0.4421(3)
H8 H 0.3504 0.1619 0.4150
H9 H 0.3477 0.1827 0.4592
C10 C 0.3738(2) 0.1647(2) 0.4859(4)
H10 H 0.3827 0.1540 0.4681
H11 H 0.3895 0.1813 0.5068
C11 C 0.3487(2) 0.14329(19) 0.5245(3)
H12 H 0.3408 0.1545 0.5438
H13 H 0.3324 0.1278 0.5029
C12 C 0.3588(2) 0.1281(2) 0.5665(3)
H14 H 0.3607 0.1123 0.5484
H15 H 0.3786 0.1429 0.5801
C13 C 0.3377(2) 0.1146(2) 0.6149(3)
H16 H 0.3382 0.1307 0.6367
H17 H 0.3172 0.1021 0.6015
C14 C 0.3460(2) 0.0959(2) 0.6504(3)
H18 H 0.3412 0.0774 0.6311
H19 H 0.3676 0.1070 0.6568
C15 C 0.3082(2) 0.0607(2) 0.7105(4)
H20 H 0.3042 0.0476 0.6811
C16 C 0.2898(2) 0.04836(19) 0.7578(4)
C17 C 0.2713(2) 0.0162(2) 0.7584(4)
H21 H 0.2719 0.0049 0.7290
C18 C 0.2528(3) 0.0021(2) 0.8023(5)
H22 H 0.2413 -0.0189 0.8028
C19 C 0.2507(3) 0.0180(2) 0.8448(4)
H23 H 0.2381 0.0079 0.8742
C20 C 0.2670(2) 0.0484(2) 0.8445(4)
C21 C 0.2874(2) 0.0641(2) 0.8026(4)
C22 C 0.2492(3) 0.0531(2) 0.9347(4)
H24 H 0.2461 0.0330 0.9375
H25 H 0.2300 0.0522 0.9338
H26 H 0.2605 0.0647 0.9659
C23 C 0.3903(2) 0.2575(2) 0.2860(4)
H27 H 0.3770 0.2608 0.2630
H28 H 0.3970 0.2455 0.2666
H29 H 0.4075 0.2766 0.2957
C24 C 0.34647(19) 0.21647(19) 0.3276(3)
C25 C 0.3366(2) 0.2014(2) 0.2787(4)
H30 H 0.3487 0.2081 0.2475
C26 C 0.3074(2) 0.1754(2) 0.2772(4)
H31 H 0.3000 0.1648 0.2445
C27 C 0.2905(2) 0.1661(2) 0.3231(3)
H32 H 0.2719 0.1484 0.3218
C28 C 0.30000(19) 0.18223(19) 0.3736(3)
C29 C 0.3285(2) 0.20718(19) 0.3752(3)
C30 C 0.2791(2) 0.1683(2) 0.4197(3)
H33 H 0.2624 0.1494 0.4133
C31 C 0.2589(2) 0.1599(2) 0.5069(3)
H34 H 0.2421 0.1434 0.4879
H35 H 0.2512 0.1715 0.5257
C32 C 0.2716(2) 0.1472(2) 0.5489(3)
H36 H 0.2736 0.1312 0.5318
H37 H 0.2917 0.1630 0.5594
C33 C 0.2526(2) 0.1350(2) 0.5999(4)
H38 H 0.2321 0.1204 0.5891
H39 H 0.2519 0.1515 0.6184
C34 C 0.2639(2) 0.1203(2) 0.6398(4)
H40 H 0.2854 0.1337 0.6457
H41 H 0.2613 0.1018 0.6236
C35 C 0.2480(2) 0.1129(2) 0.6949(4)
H42 H 0.2529 0.1316 0.7135
H43 H 0.2263 0.1018 0.6889
C36 C 0.2564(2) 0.0946(2) 0.7312(4)
H44 H 0.2781 0.1027 0.7292
H45 H 0.2466 0.0740 0.7178
C37 C 0.2197(2) 0.0792(2) 0.7983(4)
H46 H 0.2081 0.0685 0.7682
C38 C 0.2032(2) 0.0760(2) 0.8484(4)
C39 C 0.1714(3) 0.0569(2) 0.8472(5)
H47 H 0.1621 0.0469 0.8149
C40 C 0.1541(3) 0.0530(3) 0.8929(5)
H48 H 0.1331 0.0410 0.8911
C41 C 0.1679(2) 0.0671(2) 0.9420(5)
H49 H 0.1565 0.0634 0.9737
C42 C 0.1983(2) 0.0862(2) 0.9430(4)
C43 C 0.2163(2) 0.0918(2) 0.8966(4)
C44 C 0.1966(2) 0.0966(3) 1.0392(4)
H50 H 0.1805 0.0760 1.0410
H51 H 0.1883 0.1098 1.0397
H52 H 0.2097 0.1009 1.0702
C45 C 0.2216(3) 0.1836(3) 0.3293(4)
H53 H 0.2203 0.1645 0.3219
H54 H 0.2407 0.1997 0.3168
H55 H 0.2056 0.1845 0.3103
C46 C 0.1999(2) 0.1621(2) 0.4183(4)
C47 C 0.1813(2) 0.1333(2) 0.3978(5)
H56 H 0.1805 0.1297 0.3603
C48 C 0.1644(3) 0.1106(3) 0.4329(5)
H57 H 0.1528 0.0911 0.4191
C49 C 0.1637(3) 0.1155(3) 0.4889(5)
H58 H 0.1519 0.0994 0.5120
C50 C 0.1812(2) 0.1451(2) 0.5108(4)
C51 C 0.20020(19) 0.1696(2) 0.4742(3)
C52 C 0.1795(2) 0.1476(2) 0.5693(4)
H59 H 0.1666 0.1297 0.5874
C53 C 0.1862(2) 0.1668(2) 0.6599(4)
H60 H 0.1703 0.1463 0.6675
H61 H 0.1795 0.1806 0.6720
C54 C 0.2150(2) 0.1734(2) 0.6900(3)
H62 H 0.2315 0.1926 0.6775
H63 H 0.2199 0.1579 0.6813
C55 C 0.2116(2) 0.1745(2) 0.7519(4)
H64 H 0.1942 0.1559 0.7643
H65 H 0.2082 0.1911 0.7612
C56 C 0.2402(2) 0.1789(3) 0.7809(4)
H66 H 0.2421 0.1612 0.7743
H67 H 0.2576 0.1961 0.7646
C57 C 0.2407(2) 0.1840(2) 0.8420(4)
H68 H 0.2600 0.1877 0.8563
H69 H 0.2393 0.2019 0.8485
C58 C 0.2161(2) 0.1583(2) 0.8727(3)
H70 H 0.2135 0.1394 0.8587
H71 H 0.1973 0.1583 0.8675
C59 C 0.2056(2) 0.1643(2) 0.9649(4)
H72 H 0.1892 0.1641 0.9481
C60 C 0.2074(2) 0.1682(2) 1.0242(4)
C61 C 0.1818(3) 0.1669(3) 1.0485(5)
H73 H 0.1660 0.1647 1.0264
C62 C 0.1799(3) 0.1689(3) 1.1030(5)
H74 H 0.1627 0.1680 1.1178
C63 C 0.2026(3) 0.1722(3) 1.1378(5)
H75 H 0.2003 0.1725 1.1756
C64 C 0.2288(3) 0.1749(3) 1.1157(4)
C65 C 0.2313(2) 0.1710(2) 1.0578(4)
C66 C 0.2494(3) 0.1762(3) 1.2028(5)
H76 H 0.2371 0.1844 1.2146
H77 H 0.2687 0.1867 1.2207
H78 H 0.2396 0.1551 1.2121
C67 C 0.1563(2) 0.2065(3) 0.5172(4)
H79 H 0.1393 0.2095 0.5224
H80 H 0.1494 0.1853 0.5148
H81 H 0.1665 0.2163 0.4839
C68 C 0.1637(2) 0.2210(2) 0.6110(4)
C69 C 0.1339(2) 0.2109(2) 0.6206(4)
H82 H 0.1199 0.2018 0.5924
C70 C 0.1242(2) 0.2141(2) 0.6724(4)
H83 H 0.1037 0.2064 0.6790
C71 C 0.1443(2) 0.2284(2) 0.7125(4)
H84 H 0.1376 0.2311 0.7463
C72 C 0.17557(19) 0.23937(19) 0.7047(3)
C73 C 0.1855(2) 0.2349(2) 0.6534(4)
C74 C 0.19646(19) 0.25563(19) 0.7497(3)
H85 H 0.1875 0.2553 0.7831
C75 C 0.2389(2) 0.2835(2) 0.8027(3)
H86 H 0.2277 0.2921 0.8195
H87 H 0.2593 0.2999 0.7962
C76 C 0.2400(2) 0.2615(2) 0.8421(4)
H88 H 0.2472 0.2497 0.8228
H89 H 0.2198 0.2478 0.8551
C77 C 0.2603(2) 0.2767(2) 0.8907(4)
H90 H 0.2539 0.2895 0.9086
H91 H 0.2808 0.2896 0.8776
C78 C 0.2604(2) 0.2543(2) 0.9334(4)
H92 H 0.2419 0.2459 0.9547
H93 H 0.2607 0.2378 0.9143
C79 C 0.2877(2) 0.2693(2) 0.9727(4)
H94 H 0.3063 0.2768 0.9521
H95 H 0.2880 0.2862 0.9913
C80 C 0.2852(2) 0.2461(2) 1.0148(4)
H96 H 0.2692 0.2421 1.0406
H97 H 0.2799 0.2273 0.9962
C81 C 0.3164(2) 0.2678(2) 1.0914(4)
H98 H 0.2993 0.2672 1.1057
C82 C 0.3427(2) 0.2814(2) 1.1265(4)
C83 C 0.3382(3) 0.2903(3) 1.1801(4)
H99 H 0.3190 0.2862 1.1905
C84 C 0.3617(3) 0.3046(2) 1.2159(4)
H100 H 0.3579 0.3089 1.2512
C85 C 0.3918(3) 0.3132(2) 1.2008(4)
H101 H 0.4079 0.3235 1.2250
C86 C 0.3961(2) 0.3056(2) 1.1490(4)
C87 C 0.3718(2) 0.2892(2) 1.1112(4)
C88 C 0.4475(3) 0.3204(3) 1.1691(4)
H102 H 0.4407 0.3054 1.1976
H103 H 0.4528 0.3396 1.1847
H104 H 0.4649 0.3216 1.1514
C89 C 0.2015(2) 0.2975(2) 0.6077(4)
H105 H 0.1970 0.3136 0.6054
H106 H 0.1833 0.2789 0.6157
H107 H 0.2096 0.2956 0.5734
C90 C 0.2267(2) 0.3256(2) 0.6891(4)
C91 C 0.2049(2) 0.3342(2) 0.6974(4)
H108 H 0.1876 0.3262 0.6760
C92 C 0.2103(2) 0.3555(2) 0.7396(5)
H109 H 0.1960 0.3612 0.7473
C93 C 0.2363(2) 0.3673(2) 0.7681(5)
H110 H 0.2399 0.3818 0.7946
C94 C 0.2590(2) 0.3585(2) 0.7598(4)
C95 C 0.2536(2) 0.3375(2) 0.7193(4)
C96 C 0.2846(2) 0.3719(2) 0.7967(4)
H111 H 0.2832 0.3831 0.8254
C97 C 0.3296(2) 0.3842(2) 0.8401(4)
H112 H 0.3248 0.3976 0.8605
H113 H 0.3498 0.3963 0.8253
C98 C 0.3290(2) 0.3613(2) 0.8778(4)
H114 H 0.3279 0.3446 0.8568
H115 H 0.3112 0.3533 0.9010
C99 C 0.3578(3) 0.3757(3) 0.9137(5)
H116 H 0.3606 0.3943 0.9295
H117 H 0.3752 0.3805 0.8909
C100 C 0.3557(2) 0.3539(2) 0.9610(4)
H118 H 0.3422 0.3534 0.9894
H119 H 0.3476 0.3336 0.9467
C101 C 0.3870(3) 0.3649(3) 0.9848(4)
H120 H 0.3955 0.3856 0.9973
H121 H 0.4002 0.3644 0.9567
C102 C 0.3847(2) 0.3443(2) 1.0336(4)
H122 H 0.3767 0.3492 1.0656
H123 H 0.3712 0.3233 1.0243
C103 C 0.4322(3) 0.3737(3) 1.0687(5)
H124 H 0.4242 0.3863 1.0747
C104 C 0.4635(3) 0.3853(3) 1.0874(6)
C105 C 0.4777(3) 0.4142(4) 1.1175(6)
H125 H 0.4675 0.4247 1.1236
C106 C 0.5062(4) 0.4248(4) 1.1360(7)
H126 H 0.5160 0.4433 1.1540
C107 C 0.5211(4) 0.4087(4) 1.1285(7)
H127 H 0.5401 0.4157 1.1441
C108 C 0.5086(3) 0.3835(3) 1.0993(5)
C109 C 0.4798(3) 0.3711(3) 1.0768(4)
C110 C 0.5525(3) 0.3761(4) 1.1131(6)
H128 H 0.5548 0.3859 1.1478
H129 H 0.5679 0.3898 1.0883
H130 H 0.5545 0.3585 1.1181
C111 C 0.2988(3) 0.4504(3) 0.7507(6)
H131 H 0.2847 0.4390 0.7792
H132 H 0.2901 0.4420 0.7156
H133 H 0.3033 0.4710 0.7524
C112 C 0.3394(3) 0.4555(3) 0.8079(5)
C113 C 0.3278(3) 0.4604(3) 0.8540(6)
H134 H 0.3098 0.4608 0.8519
C114 C 0.3420(3) 0.4650(3) 0.9044(7)
H135 H 0.3337 0.4679 0.9362
C115 C 0.3684(3) 0.4653(3) 0.9053(7)
H136 H 0.3780 0.4684 0.9390
C116 C 0.3824(3) 0.4613(3) 0.8601(5)
C117 C 0.3673(3) 0.4558(2) 0.8112(5)
C118 C 0.4092(3) 0.4599(3) 0.8707(5)
H137 H 0.4158 0.4634 0.9069
C119 C 0.4522(3) 0.4534(3) 0.8606(6)
H138 H 0.4691 0.4635 0.8354
H139 H 0.4581 0.4641 0.8953
C120 C 0.4454(3) 0.4233(3) 0.8683(6)
H140 H 0.4373 0.4120 0.8346
H141 H 0.4302 0.4139 0.8967
C121 C 0.4741(4) 0.4223(4) 0.8851(8)
H142 H 0.4889 0.4300 0.8556
H143 H 0.4832 0.4346 0.9174
C122 C 0.4653(4) 0.3906(5) 0.8968(8)
H144 H 0.4542 0.3779 0.8660
H145 H 0.4525 0.3836 0.9290
C123 C 0.6131(8) 0.2970(8) 0.8224(16)
H146 H 0.6287 0.3169 0.8249
C124 C 0.6201(7) 0.2739(7) 0.8024(14)
H147 H 0.6400 0.2793 0.7947
C125 C 0.5965(6) 0.2432(6) 0.7948(12)
H148 H 0.5995 0.2282 0.7799
C126 C 0.4950(3) 0.3888(3) 0.9071(6)
H149 H 0.4994 0.3777 0.8822
C127 C 0.5158(3) 0.4032(3) 0.9529(6)
H150 H 0.5300 0.4241 0.9437
H151 H 0.5046 0.4031 0.9851
C128 C 0.5625(3) 0.4021(3) 0.9617(5)
H152 H 0.5717 0.4223 0.9510
C129 C 0.5818(3) 0.3907(3) 0.9719(5)
C130 C 0.6118(5) 0.4138(5) 0.9623(9)
H153 H 0.6165 0.4335 0.9539
C131 C 0.6338(7) 0.4055(7) 0.9663(12)
H154 H 0.6542 0.4200 0.9657
C132 C 0.6236(7) 0.3721(7) 0.9716(12)
H155 H 0.6365 0.3651 0.9606
C133 C 0.5979(4) 0.3537(4) 0.9906(7)
C134 C 0.5754(3) 0.3620(3) 0.9869(5)
C135 C 0.6114(5) 0.3174(5) 1.0083(9)
H156 H 0.6215 0.3192 0.9741
H157 H 0.6021 0.2969 1.0209
H158 H 0.6259 0.3305 1.0350
C136 C 0.4370(3) 0.5192(3) 0.7541(5)
H159 H 0.4477 0.5385 0.7361
H160 H 0.4406 0.5219 0.7929
H161 H 0.4157 0.5104 0.7470
C137 C 0.4778(3) 0.5106(2) 0.7378(5)
C138 C 0.4995(3) 0.5410(3) 0.7437(5)
H162 H 0.4937 0.5555 0.7470
C139 C 0.5298(3) 0.5492(3) 0.7447(6)
H163 H 0.5445 0.5694 0.7491
C140 C 0.5378(3) 0.5288(3) 0.7396(6)
H164 H 0.5582 0.5347 0.7411
C141 C 0.5167(3) 0.4985(2) 0.7318(5)
C142 C 0.4870(2) 0.4892(2) 0.7322(5)
C143 C 0.5296(3) 0.4779(3) 0.7248(5)
H165 H 0.5497 0.4856 0.7342
C144 C 0.5339(2) 0.4366(2) 0.7026(4)
H166 H 0.5539 0.4516 0.6902
H167 H 0.5253 0.4207 0.6754
C145 C 0.5366(2) 0.4237(2) 0.7558(4)
H168 H 0.5170 0.4135 0.7736
H169 H 0.5504 0.4400 0.7796
C146 C 0.5481(2) 0.4009(2) 0.7477(4)
H170 H 0.5338 0.3843 0.7251
H171 H 0.5672 0.4109 0.7282
C147 C 0.5524(3) 0.3883(2) 0.8019(4)
H172 H 0.5704 0.4040 0.8198
H173 H 0.5353 0.3837 0.8256
C148 C 0.5552(2) 0.3607(2) 0.7965(4)
H174 H 0.5373 0.3450 0.7784
H175 H 0.5724 0.3653 0.7734
C149 C 0.5588(3) 0.3490(2) 0.8502(5)
H176 H 0.5789 0.3625 0.8641
H177 H 0.5445 0.3491 0.8761
C150 C 0.5778(3) 0.3157(3) 0.8476(6)
H178 H 0.5959 0.3335 0.8540
C151 C 0.5804(3) 0.2897(3) 0.8398(7)
C152 C 0.5629(3) 0.2377(3) 0.8159(7)
C153 C 0.5566(3) 0.2610(3) 0.8244(5)
C154 C 0.5395(3) 0.1832(3) 0.8017(6)
H179 H 0.5587 0.1876 0.8164
H180 H 0.5370 0.1745 0.7657
H181 H 0.5236 0.1691 0.8252
C155 C 0.4862(3) 0.4988(3) 0.6046(5)
H182 H 0.4912 0.5067 0.5680
H183 H 0.4981 0.5145 0.6304
H184 H 0.4651 0.4915 0.6113
C156 C 0.5178(3) 0.4772(2) 0.5849(5)
C157 C 0.5409(3) 0.5040(3) 0.5677(5)
H185 H 0.5400 0.5217 0.5715
C158 C 0.5661(3) 0.5044(3) 0.5439(6)
H186 H 0.5827 0.5226 0.5332
C159 C 0.5663(3) 0.4777(2) 0.5362(4)
H187 H 0.5826 0.4781 0.5187
C160 C 0.5421(2) 0.4498(2) 0.5543(4)
C161 C 0.5174(2) 0.4498(2) 0.5784(4)
C162 C 0.5444(2) 0.4231(2) 0.5466(4)
H188 H 0.5628 0.4267 0.5324
C163 C 0.5361(2) 0.3738(2) 0.5482(4)
H189 H 0.5555 0.3830 0.5298
H190 H 0.5216 0.3572 0.5258
C164 C 0.5387(2) 0.3620(2) 0.6036(4)
H191 H 0.5210 0.3573 0.6254
H192 H 0.5563 0.3775 0.6227
C165 C 0.5413(2) 0.3339(2) 0.5968(4)
H193 H 0.5572 0.3379 0.5705
H194 H 0.5225 0.3176 0.5822
C166 C 0.5485(2) 0.3238(2) 0.6513(4)
H195 H 0.5694 0.3374 0.6609
H196 H 0.5359 0.3249 0.6800
C167 C 0.5429(2) 0.2918(2) 0.6477(4)
H197 H 0.5219 0.2782 0.6387
H198 H 0.5551 0.2907 0.6182
C168 C 0.5504(2) 0.2811(2) 0.7005(5)
H199 H 0.5722 0.2911 0.7044
H200 H 0.5426 0.2871 0.7313
C169 C 0.5534(3) 0.2397(3) 0.6766(5)
H201 H 0.5721 0.2548 0.6641
C170 C 0.5456(2) 0.2087(2) 0.6634(5)
C171 C 0.5676(3) 0.2048(3) 0.6359(5)
H202 H 0.5861 0.2215 0.6267
C172 C 0.5617(3) 0.1758(3) 0.6225(6)
H203 H 0.5759 0.1731 0.6032
C173 C 0.5352(3) 0.1516(3) 0.6378(5)
H204 H 0.5315 0.1324 0.6290
C174 C 0.5132(3) 0.1546(3) 0.6666(5)
C175 C 0.5185(2) 0.1836(3) 0.6779(5)
C176 C 0.4786(3) 0.1005(3) 0.6640(6)
H205 H 0.4912 0.0946 0.6831
H206 H 0.4817 0.1003 0.6251
H207 H 0.4578 0.0867 0.6726
C177 C 0.5515(3) 0.4503(2) 0.3913(5)
H208 H 0.5645 0.4593 0.4225
H209 H 0.5365 0.4564 0.3904
H210 H 0.5633 0.4569 0.3583
C178 C 0.5543(2) 0.4050(2) 0.4060(4)
C179 C 0.5853(2) 0.4207(3) 0.4104(4)
H211 H 0.5961 0.4415 0.4065
C180 C 0.5999(3) 0.4052(3) 0.4205(5)
H212 H 0.6208 0.4157 0.4239
C181 C 0.5843(3) 0.3741(3) 0.4260(5)
H213 H 0.5946 0.3638 0.4336
C182 C 0.5523(2) 0.3579(2) 0.4198(4)
C183 C 0.5371(2) 0.3732(2) 0.4114(4)
C184 C 0.5389(2) 0.3250(2) 0.4287(4)
H214 H 0.5524 0.3179 0.4323
C185 C 0.5023(2) 0.2741(2) 0.4428(4)
H215 H 0.5199 0.2718 0.4393
H216 H 0.4874 0.2610 0.4163
C186 C 0.4895(3) 0.2655(2) 0.5006(5)
H217 H 0.4748 0.2720 0.5060
H218 H 0.5057 0.2763 0.5267
C187 C 0.4743(2) 0.2315(2) 0.5129(4)
H219 H 0.4569 0.2206 0.4891
H220 H 0.4884 0.2244 0.5053
C188 C 0.4644(3) 0.2252(2) 0.5714(5)
H221 H 0.4529 0.2350 0.5802
H222 H 0.4822 0.2339 0.5948
C189 C 0.4456(2) 0.1921(2) 0.5840(4)
H223 H 0.4380 0.1898 0.6212
H224 H 0.4283 0.1833 0.5596
C190 C 0.4618(2) 0.1748(2) 0.5785(5)
H225 H 0.4644 0.1720 0.5400
H226 H 0.4816 0.1861 0.5951
C191 C 0.4315(2) 0.1217(2) 0.5765(5)
H227 H 0.4353 0.1251 0.5391
C192 C 0.4113(2) 0.0903(2) 0.5915(5)
C193 C 0.3996(3) 0.0696(3) 0.5490(6)
H228 H 0.4060 0.0762 0.5134
C194 C 0.3789(3) 0.0398(3) 0.5572(6)
H229 H 0.3721 0.0263 0.5279
C195 C 0.3690(3) 0.0306(3) 0.6071(6)
H230 H 0.3538 0.0108 0.6130
C196 C 0.3812(3) 0.0504(3) 0.6517(5)
C197 C 0.4030(2) 0.0808(2) 0.6447(5)
C198 C 0.3467(4) 0.0124(3) 0.7197(7)
H231 H 0.3365 0.0020 0.6867
H232 H 0.3327 0.0144 0.7432
H233 H 0.3543 0.0011 0.7383
C199 C 0.3776(2) 0.2134(2) 0.6078(4)
H234 H 0.3983 0.2187 0.6024
H235 H 0.3657 0.1922 0.6158
H236 H 0.3763 0.2248 0.6378
C200 C 0.36582(18) 0.22039(17) 0.5563(3)
C201 C 0.3746(4) 0.3220(4) 0.4775(8)
H237 H 0.3955 0.3276 0.4748
H238 H 0.3719 0.3329 0.5070
H239 H 0.3682 0.3267 0.4437
C202 C 0.3562(3) 0.2891(3) 0.4882(5)
C203 C 0.3237(2) 0.2703(3) 0.3551(5)
H240 H 0.3398 0.2770 0.3813
H241 H 0.3270 0.2870 0.3321
H242 H 0.3231 0.2546 0.3328
C204 C 0.2937(2) 0.2584(2) 0.3854(4)
C205 C 0.3181(2) 0.2546(2) 0.6305(4)
H243 H 0.3304 0.2486 0.6102
H244 H 0.3161 0.2476 0.6677
H245 H 0.3274 0.2762 0.6302
C206 C 0.2866(2) 0.2405(2) 0.6039(4)
C207 C 0.2656(3) 0.3095(3) 0.4832(5)
H246 H 0.2736 0.3290 0.4999
H247 H 0.2485 0.3055 0.4608
H248 H 0.2808 0.3090 0.4608
C208 C 0.2558(2) 0.2858(2) 0.5271(3)
C209 C 0.3126(2) 0.2637(2) 0.7934(4)
H249 H 0.2981 0.2432 0.7837
H250 H 0.3121 0.2663 0.8323
H251 H 0.3325 0.2680 0.7827
C210 C 0.30497(19) 0.28483(19) 0.7644(3)
C211 C 0.3915(3) 0.3494(2) 0.7237(5)
H252 H 0.3706 0.3345 0.7291
H253 H 0.4036 0.3467 0.7506
H254 H 0.3977 0.3472 0.6876
C212 C 0.3954(2) 0.3806(2) 0.7297(5)
C213 C 0.2860(3) 0.3731(3) 0.6011(5)
H255 H 0.2816 0.3542 0.6171
H256 H 0.2915 0.3735 0.5632
H257 H 0.2684 0.3753 0.6034
C214 C 0.3116(3) 0.3984(3) 0.6313(5)
C215 C 0.3874(3) 0.4320(4) 0.5677(6)
H258 H 0.3963 0.4273 0.5373
H259 H 0.3859 0.4495 0.5589
H260 H 0.3677 0.4152 0.5750
C216 C 0.4083(3) 0.4389(3) 0.6209(5)
C217 C 0.4647(2) 0.3463(2) 0.7480(4)
H261 H 0.4657 0.3287 0.7374
H262 H 0.4452 0.3402 0.7635
H263 H 0.4801 0.3576 0.7747
C218 C 0.46946(19) 0.3657(2) 0.6984(4)
C219 C 0.4226(2) 0.2974(2) 0.5780(4)
H264 H 0.4317 0.3131 0.6050
H265 H 0.4217 0.2793 0.5918
H266 H 0.4025 0.2934 0.5701
C220 C 0.4411(2) 0.30714(19) 0.5265(3)
C221 C 0.4541(3) 0.4262(3) 0.4887(6)
H267 H 0.4574 0.4243 0.5269
H268 H 0.4327 0.4167 0.4818
H269 H 0.4635 0.4472 0.4792
C222 C 0.4673(3) 0.4112(2) 0.4547(4)
C223 C 0.4081(3) 0.3431(3) 0.3487(5)
H270 H 0.3868 0.3315 0.3413
H271 H 0.4189 0.3505 0.3149
H272 H 0.4121 0.3599 0.3720
C224 C 0.4183(2) 0.3233(2) 0.3773(4)
C225 C 0.4658(2) 0.2811(2) 0.6913(4)
H273 H 0.4606 0.2670 0.6617
H274 H 0.4790 0.3012 0.6780
H275 H 0.4478 0.2799 0.7058
C226 C 0.4813(2) 0.2738(2) 0.7354(4)
C227 C 0.4410(2) 0.2865(3) 0.8710(4)
H276 H 0.4493 0.2803 0.8418
H277 H 0.4338 0.2992 0.8566
H278 H 0.4245 0.2689 0.8875
C228 C 0.4646(2) 0.3033(2) 0.9128(4)
C229 C 0.5144(4) 0.2203(4) 0.9399(8)
H279 H 0.5116 0.2227 0.9017
H280 H 0.4958 0.2045 0.9550
H281 H 0.5299 0.2151 0.9441
C230 C 0.5236(4) 0.2499(4) 0.9703(6)
C231 C 0.3826(2) 0.3151(2) 0.8641(4)
H282 H 0.3642 0.3036 0.8439
H283 H 0.3991 0.3157 0.8439
H284 H 0.3864 0.3353 0.8696
C232 C 0.3799(2) 0.3000(2) 0.9204(4)
C233 C 0.4222(3) 0.2291(4) 0.9809(7)
H285 H 0.4357 0.2421 0.9531
H286 H 0.4144 0.2084 0.9703
H287 H 0.4328 0.2328 1.0151
C234 C 0.3962(3) 0.2353(3) 0.9875(4)
C235 C 0.4689(4) 0.2572(4) 1.1122(7)
H288 H 0.4494 0.2467 1.1294
H289 H 0.4842 0.2674 1.1397
H290 H 0.4727 0.2430 1.0931
C236 C 0.4696(3) 0.2802(3) 1.0718(5)
C237 C 0.3750(3) 0.2251(3) 1.1325(5)
H291 H 0.3803 0.2453 1.1225
H292 H 0.3880 0.2195 1.1135
H293 H 0.3775 0.2241 1.1714
C238 C 0.3428(3) 0.2037(2) 1.1170(4)
C239 C 0.3425(2) 0.2122(2) 0.8735(4)
H294 H 0.3427 0.1998 0.8441
H295 H 0.3604 0.2191 0.8952
H296 H 0.3419 0.2293 0.8585
C240 C 0.3155(2) 0.1944(2) 0.9083(3)
C241 C 0.3143(3) 0.1160(3) 1.0442(5)
H297 H 0.3130 0.1243 1.0787
H298 H 0.3351 0.1236 1.0349
H299 H 0.3041 0.0944 1.0468
C242 C 0.2992(3) 0.1251(3) 0.9995(4)
C243 C 0.3196(2) 0.1905(2) 0.7188(4)
H300 H 0.3346 0.1981 0.6903
H301 H 0.3241 0.2062 0.7450
H302 H 0.3001 0.1838 0.7030
C244 C 0.3197(2) 0.1642(2) 0.7470(3)
C245 C 0.3720(3) 0.1501(3) 0.9378(6)
H303 H 0.3583 0.1539 0.9588
H304 H 0.3922 0.1666 0.9423
H305 H 0.3709 0.1318 0.9503
C246 C 0.3633(3) 0.1471(3) 0.8780(5)
C247 C 0.3395(4) 0.0639(4) 0.8850(7)
H306 H 0.3224 0.0636 0.8678
H307 H 0.3476 0.0793 0.9127
H308 H 0.3332 0.0446 0.9015
C248 C 0.3631(3) 0.0703(3) 0.8430(6)
C249 C 0.4461(4) 0.1363(4) 0.8808(6)
H309 H 0.4581 0.1518 0.9069
H310 H 0.4488 0.1192 0.8866
H311 H 0.4252 0.1303 0.8856
C250 C 0.4558(3) 0.1481(3) 0.8243(5)
C251 C 0.4091(3) 0.2020(2) 0.7515(5)
H312 H 0.3885 0.1952 0.7420
H313 H 0.4221 0.2206 0.7329
H314 H 0.4117 0.2051 0.7905
C252 C 0.4172(2) 0.1784(2) 0.7347(4)
C253 C 0.3286(4) 0.3393(4) 0.5560(5)
H315 H 0.3212 0.3191 0.5431
H316 H 0.3476 0.3526 0.5387
H317 H 0.3143 0.3457 0.5470
C254 C 0.3329(3) 0.3404(2) 0.6180(5)
loop_
_geom_bond_atom_site_label_1
_geom_bond_atom_site_label_2
_geom_bond_site_symmetry_1
_geom_bond_site_symmetry_2
Tb1 N1 1_555 1_555
Tb2 N7 1_555 1_555
Tb3 Cl7 1_555 1_555
Tb4 Cl5 1_555 1_555
Tb5 N4 1_555 1_555
Tb6 N10 1_555 1_555
Cd1 N11 1_555 1_555
Cd2 Cl7 1_555 1_555
Cd3 N17 1_555 1_555
Cd4 Cl3 1_555 1_555
Cd5 N3 1_555 1_555
Cd6 Cl2 1_555 1_555
Cd7 N5 1_555 1_555
Cd8 N9 1_555 1_555
Cd9 Cl4 1_555 1_555
Cd10 Cl8 1_555 1_555
Cd11 Cl6 1_555 1_555
Cd12 N12 1_555 1_555
Cd13 Cl5 1_555 1_555
Cd14 N18 1_555 1_555
Cd15 N2 1_555 1_555
Cd16 N6 1_555 1_555
Cd17 Cl1 1_555 1_555
Cd18 N8 1_555 1_555
N1 C8 1_555 1_555
N2 C14 1_555 1_555
N3 C30 1_555 1_555
N4 C36 1_555 1_555
N5 C52 1_555 1_555
N6 C58 1_555 1_555
N7 C74 1_555 1_555
N8 C80 1_555 1_555
N9 C96 1_555 1_555
N10 C102 1_555 1_555
N11 C118 1_555 1_555
N12 C127 1_555 1_555
N13 Tb3 1_555 1_555
N14 Cd13 1_555 1_555
N15 Cd2 1_555 1_555
N16 Tb4 1_555 1_555
N17 C184 1_555 1_555
N18 C190 1_555 1_555
O1 Cd3 1_555 1_555
O2 Tb1 1_555 1_555
O3 Tb5 1_555 1_555
O4 Tb5 1_555 1_555
O5 Tb1 1_555 1_555
O6 Tb1 1_555 1_555
O7 Tb5 1_555 1_555
O8 Cd16 1_555 1_555
O9 Cd6 1_555 1_555
O10 Cd6 1_555 1_555
O11 Cd16 1_555 1_555
O12 Cd17 1_555 1_555
O13 Cd7 1_555 1_555
O14 Tb2 1_555 1_555
O15 Tb6 1_555 1_555
O16 Tb6 1_555 1_555
O17 Tb2 1_555 1_555
O18 Tb2 1_555 1_555
O19 Tb6 1_555 1_555
O20 Cd12 1_555 1_555
O21 Cd9 1_555 1_555
O22 Cd1 1_555 1_555
O23 Cd10 1_555 1_555
O24 Cd10 1_555 1_555
O25 Cd1 1_555 1_555
O26 Tb3 1_555 1_555
O27 Tb4 1_555 1_555
O28 Tb4 1_555 1_555
O29 Tb3 1_555 1_555
O30 Tb3 1_555 1_555
O31 Tb4 1_555 1_555
O32 Cd14 1_555 1_555
O33 Cd4 1_555 1_555
O34 Cd3 1_555 1_555
O35 Cd11 1_555 1_555
O36 Cd11 1_555 1_555
O37 Tb1 1_555 1_555
O38 Cd5 1_555 1_555
O39 Tb1 1_555 1_555
O40 Cd5 1_555 1_555
O41 Cd5 1_555 1_555
O42 Cd6 1_555 1_555
O43 Cd5 1_555 1_555
O44 Tb2 1_555 1_555
O45 Cd6 1_555 1_555
O46 Tb2 1_555 1_555
O47 Tb2 1_555 1_555
O48 Cd8 1_555 1_555
O49 Cd1 1_555 1_555
O50 Tb3 1_555 1_555
O51 Cd8 1_555 1_555
O52 Cd9 1_555 1_555
O53 Cd1 1_555 1_555
O54 Tb3 1_555 1_555
O55 Tb3 1_555 1_555
O56 Cd2 1_555 1_555
O57 Cd2 1_555 1_555
O58 Tb1 1_555 1_555
O59 Cd2 1_555 1_555
O60 Cd4 1_555 1_555
O61 Cd3 1_555 1_555
O62 Tb1 1_555 1_555
O63 Tb4 1_555 1_555
O64 Cd13 1_555 1_555
O65 Cd10 1_555 1_555
O66 Cd10 1_555 1_555
O67 Cd10 1_555 1_555
O68 Tb6 1_555 1_555
O69 Tb6 1_555 1_555
O70 Cd18 1_555 1_555
O71 Tb6 1_555 1_555
O72 Cd18 1_555 1_555
O73 Cd16 1_555 1_555
O74 Tb5 1_555 1_555
O75 Cd17 1_555 1_555
O76 Cd17 1_555 1_555
O77 Cd16 1_555 1_555
O78 Tb5 1_555 1_555
O79 Tb6 1_555 1_555
O80 Cd12 1_555 1_555
O81 Tb5 1_555 1_555
O82 Cd15 1_555 1_555
O83 Tb5 1_555 1_555
O84 Cd15 1_555 1_555
O85 Cd11 1_555 1_555
O86 Cd11 1_555 1_555
O87 Tb4 1_555 1_555
O88 Cd11 1_555 1_555
O89 Tb4 1_555 1_555
O90 Cd14 1_555 1_555
O91 Tb2 1_555 1_555
O92 Cd8 1_555 1_555
C1 O1 1_555 1_555
H1 C1 1_555 1_555
H2 C1 1_555 1_555
H3 C1 1_555 1_555
C2 O1 1_555 1_555
C3 C2 1_555 1_555
H4 C3 1_555 1_555
C4 C3 1_555 1_555
H5 C4 1_555 1_555
C5 C4 1_555 1_555
H6 C5 1_555 1_555
C6 C5 1_555 1_555
C7 O2 1_555 1_555
C8 C6 1_555 1_555
H7 C8 1_555 1_555
C9 N1 1_555 1_555
H8 C9 1_555 1_555
H9 C9 1_555 1_555
C10 C9 1_555 1_555
H10 C10 1_555 1_555
H11 C10 1_555 1_555
C11 C10 1_555 1_555
H12 C11 1_555 1_555
H13 C11 1_555 1_555
C12 C11 1_555 1_555
H14 C12 1_555 1_555
H15 C12 1_555 1_555
C13 C12 1_555 1_555
H16 C13 1_555 1_555
H17 C13 1_555 1_555
C14 C13 1_555 1_555
H18 C14 1_555 1_555
H19 C14 1_555 1_555
C15 N2 1_555 1_555
H20 C15 1_555 1_555
C16 C15 1_555 1_555
C17 C16 1_555 1_555
H21 C17 1_555 1_555
C18 C17 1_555 1_555
H22 C18 1_555 1_555
C19 C18 1_555 1_555
H23 C19 1_555 1_555
C20 O4 1_555 1_555
C21 O3 1_555 1_555
C22 O4 1_555 1_555
H24 C22 1_555 1_555
H25 C22 1_555 1_555
H26 C22 1_555 1_555
C23 O5 1_555 1_555
H27 C23 1_555 1_555
H28 C23 1_555 1_555
H29 C23 1_555 1_555
C24 O5 1_555 1_555
C25 C24 1_555 1_555
H30 C25 1_555 1_555
C26 C25 1_555 1_555
H31 C26 1_555 1_555
C27 C26 1_555 1_555
H32 C27 1_555 1_555
C28 C27 1_555 1_555
C29 O6 1_555 1_555
C30 C28 1_555 1_555
H33 C30 1_555 1_555
C31 N3 1_555 1_555
H34 C31 1_555 1_555
H35 C31 1_555 1_555
C32 C31 1_555 1_555
H36 C32 1_555 1_555
H37 C32 1_555 1_555
C33 C32 1_555 1_555
H38 C33 1_555 1_555
H39 C33 1_555 1_555
C34 C33 1_555 1_555
H40 C34 1_555 1_555
H41 C34 1_555 1_555
C35 C34 1_555 1_555
H42 C35 1_555 1_555
H43 C35 1_555 1_555
C36 C35 1_555 1_555
H44 C36 1_555 1_555
H45 C36 1_555 1_555
C37 N4 1_555 1_555
H46 C37 1_555 1_555
C38 C37 1_555 1_555
C39 C38 1_555 1_555
H47 C39 1_555 1_555
C40 C39 1_555 1_555
H48 C40 1_555 1_555
C41 C40 1_555 1_555
H49 C41 1_555 1_555
C42 O8 1_555 1_555
C43 O7 1_555 1_555
C44 O8 1_555 1_555
H50 C44 1_555 1_555
H51 C44 1_555 1_555
H52 C44 1_555 1_555
C45 O9 1_555 1_555
H53 C45 1_555 1_555
H54 C45 1_555 1_555
H55 C45 1_555 1_555
C46 O9 1_555 1_555
C47 C46 1_555 1_555
H56 C47 1_555 1_555
C48 C47 1_555 1_555
H57 C48 1_555 1_555
C49 C48 1_555 1_555
H58 C49 1_555 1_555
C50 C49 1_555 1_555
C51 O10 1_555 1_555
C52 C50 1_555 1_555
H59 C52 1_555 1_555
C53 N5 1_555 1_555
H60 C53 1_555 1_555
H61 C53 1_555 1_555
C54 C53 1_555 1_555
H62 C54 1_555 1_555
H63 C54 1_555 1_555
C55 C54 1_555 1_555
H64 C55 1_555 1_555
H65 C55 1_555 1_555
C56 C55 1_555 1_555
H66 C56 1_555 1_555
H67 C56 1_555 1_555
C57 C56 1_555 1_555
H68 C57 1_555 1_555
H69 C57 1_555 1_555
C58 C57 1_555 1_555
H70 C58 1_555 1_555
H71 C58 1_555 1_555
C59 N6 1_555 1_555
H72 C59 1_555 1_555
C60 C59 1_555 1_555
C61 C60 1_555 1_555
H73 C61 1_555 1_555
C62 C61 1_555 1_555
H74 C62 1_555 1_555
C63 C62 1_555 1_555
H75 C63 1_555 1_555
C64 O12 1_555 1_555
C65 O11 1_555 1_555
C66 O12 1_555 1_555
H76 C66 1_555 1_555
H77 C66 1_555 1_555
H78 C66 1_555 1_555
C67 O13 1_555 1_555
H79 C67 1_555 1_555
H80 C67 1_555 1_555
H81 C67 1_555 1_555
C68 O13 1_555 1_555
C69 C68 1_555 1_555
H82 C69 1_555 1_555
C70 C69 1_555 1_555
H83 C70 1_555 1_555
C71 C70 1_555 1_555
H84 C71 1_555 1_555
C72 C71 1_555 1_555
C73 O14 1_555 1_555
C74 C72 1_555 1_555
H85 C74 1_555 1_555
C75 N7 1_555 1_555
H86 C75 1_555 1_555
H87 C75 1_555 1_555
C76 C75 1_555 1_555
H88 C76 1_555 1_555
H89 C76 1_555 1_555
C77 C76 1_555 1_555
H90 C77 1_555 1_555
H91 C77 1_555 1_555
C78 C77 1_555 1_555
H92 C78 1_555 1_555
H93 C78 1_555 1_555
C79 C78 1_555 1_555
H94 C79 1_555 1_555
H95 C79 1_555 1_555
C80 C79 1_555 1_555
H96 C80 1_555 1_555
H97 C80 1_555 1_555
C81 N8 1_555 1_555
H98 C81 1_555 1_555
C82 C81 1_555 1_555
C83 C82 1_555 1_555
H99 C83 1_555 1_555
C84 C83 1_555 1_555
H100 C84 1_555 1_555
C85 C84 1_555 1_555
H101 C85 1_555 1_555
C86 O16 1_555 1_555
C87 O15 1_555 1_555
C88 O16 1_555 1_555
H102 C88 1_555 1_555
H103 C88 1_555 1_555
H104 C88 1_555 1_555
C89 O17 1_555 1_555
H105 C89 1_555 1_555
H106 C89 1_555 1_555
H107 C89 1_555 1_555
C90 O17 1_555 1_555
C91 C90 1_555 1_555
H108 C91 1_555 1_555
C92 C91 1_555 1_555
H109 C92 1_555 1_555
C93 C92 1_555 1_555
H110 C93 1_555 1_555
C94 C93 1_555 1_555
C95 O18 1_555 1_555
C96 C94 1_555 1_555
H111 C96 1_555 1_555
C97 N9 1_555 1_555
H112 C97 1_555 1_555
H113 C97 1_555 1_555
C98 C97 1_555 1_555
H114 C98 1_555 1_555
H115 C98 1_555 1_555
C99 C98 1_555 1_555
H116 C99 1_555 1_555
H117 C99 1_555 1_555
C100 C99 1_555 1_555
H118 C100 1_555 1_555
H119 C100 1_555 1_555
C101 C100 1_555 1_555
H120 C101 1_555 1_555
H121 C101 1_555 1_555
C102 C101 1_555 1_555
H122 C102 1_555 1_555
H123 C102 1_555 1_555
C103 N10 1_555 1_555
H124 C103 1_555 1_555
C104 C103 1_555 1_555
C105 C104 1_555 1_555
H125 C105 1_555 1_555
C106 C105 1_555 1_555
H126 C106 1_555 1_555
C107 C106 1_555 1_555
H127 C107 1_555 1_555
C108 O20 1_555 1_555
C109 O19 1_555 1_555
C110 O20 1_555 1_555
H128 C110 1_555 1_555
H129 C110 1_555 1_555
H130 C110 1_555 1_555
C111 O21 1_555 1_555
H131 C111 1_555 1_555
H132 C111 1_555 1_555
H133 C111 1_555 1_555
C112 O21 1_555 1_555
C113 C112 1_555 1_555
H134 C113 1_555 1_555
C114 C113 1_555 1_555
H135 C114 1_555 1_555
C115 C114 1_555 1_555
H136 C115 1_555 1_555
C116 C115 1_555 1_555
C117 O22 1_555 1_555
C118 C116 1_555 1_555
H137 C118 1_555 1_555
C119 N11 1_555 1_555
H138 C119 1_555 1_555
H139 C119 1_555 1_555
C120 C119 1_555 1_555
H140 C120 1_555 1_555
H141 C120 1_555 1_555
C121 C120 1_555 1_555
H142 C121 1_555 1_555
H143 C121 1_555 1_555
C122 C121 1_555 1_555
H144 C122 1_555 1_555
H145 C122 1_555 1_555
C123 H146 1_555 1_555
C124 C123 1_555 1_555
H147 C124 1_555 1_555
C125 C124 1_555 1_555
H148 C125 1_555 1_555
C126 C122 1_555 1_555
H149 C126 1_555 1_555
C127 C126 1_555 1_555
H150 C127 1_555 1_555
H151 C127 1_555 1_555
C128 N12 1_555 1_555
H152 C128 1_555 1_555
C129 C128 1_555 1_555
C130 C129 1_555 1_555
H153 C130 1_555 1_555
C131 C130 1_555 1_555
H154 C131 1_555 1_555
C132 C131 1_555 1_555
H155 C132 1_555 1_555
C133 O24 1_555 1_555
C134 O23 1_555 1_555
C135 O24 1_555 1_555
H156 C135 1_555 1_555
H157 C135 1_555 1_555
H158 C135 1_555 1_555
C136 O25 1_555 1_555
H159 C136 1_555 1_555
H160 C136 1_555 1_555
H161 C136 1_555 1_555
C137 O25 1_555 1_555
C138 C137 1_555 1_555
H162 C138 1_555 1_555
C139 C138 1_555 1_555
H163 C139 1_555 1_555
C140 C139 1_555 1_555
H164 C140 1_555 1_555
C141 C140 1_555 1_555
C142 O26 1_555 1_555
C143 N13 1_555 1_555
H165 C143 1_555 1_555
C144 N13 1_555 1_555
H166 C144 1_555 1_555
H167 C144 1_555 1_555
C145 C144 1_555 1_555
H168 C145 1_555 1_555
H169 C145 1_555 1_555
C146 C145 1_555 1_555
H170 C146 1_555 1_555
H171 C146 1_555 1_555
C147 C146 1_555 1_555
H172 C147 1_555 1_555
H173 C147 1_555 1_555
C148 C147 1_555 1_555
H174 C148 1_555 1_555
H175 C148 1_555 1_555
C149 N14 1_555 1_555
H176 C149 1_555 1_555
H177 C149 1_555 1_555
C150 N14 1_555 1_555
H178 C150 1_555 1_555
C151 C123 1_555 1_555
C152 O28 1_555 1_555
C153 O27 1_555 1_555
C154 O28 1_555 1_555
H179 C154 1_555 1_555
H180 C154 1_555 1_555
H181 C154 1_555 1_555
C155 O29 1_555 1_555
H182 C155 1_555 1_555
H183 C155 1_555 1_555
H184 C155 1_555 1_555
C156 O29 1_555 1_555
C157 C156 1_555 1_555
H185 C157 1_555 1_555
C158 C157 1_555 1_555
H186 C158 1_555 1_555
C159 C158 1_555 1_555
H187 C159 1_555 1_555
C160 C159 1_555 1_555
C161 O30 1_555 1_555
C162 N15 1_555 1_555
H188 C162 1_555 1_555
C163 N15 1_555 1_555
H189 C163 1_555 1_555
H190 C163 1_555 1_555
C164 C163 1_555 1_555
H191 C164 1_555 1_555
H192 C164 1_555 1_555
C165 C164 1_555 1_555
H193 C165 1_555 1_555
H194 C165 1_555 1_555
C166 C165 1_555 1_555
H195 C166 1_555 1_555
H196 C166 1_555 1_555
C167 C166 1_555 1_555
H197 C167 1_555 1_555
H198 C167 1_555 1_555
C168 N16 1_555 1_555
H199 C168 1_555 1_555
H200 C168 1_555 1_555
C169 N16 1_555 1_555
H201 C169 1_555 1_555
C170 C169 1_555 1_555
C171 C170 1_555 1_555
H202 C171 1_555 1_555
C172 C171 1_555 1_555
H203 C172 1_555 1_555
C173 C172 1_555 1_555
H204 C173 1_555 1_555
C174 O32 1_555 1_555
C175 O31 1_555 1_555
C176 O32 1_555 1_555
H205 C176 1_555 1_555
H206 C176 1_555 1_555
H207 C176 1_555 1_555
C177 O33 1_555 1_555
H208 C177 1_555 1_555
H209 C177 1_555 1_555
H210 C177 1_555 1_555
C178 O33 1_555 1_555
C179 C178 1_555 1_555
H211 C179 1_555 1_555
C180 C179 1_555 1_555
H212 C180 1_555 1_555
C181 C180 1_555 1_555
H213 C181 1_555 1_555
C182 C181 1_555 1_555
C183 O34 1_555 1_555
C184 C182 1_555 1_555
H214 C184 1_555 1_555
C185 N17 1_555 1_555
H215 C185 1_555 1_555
H216 C185 1_555 1_555
C186 C185 1_555 1_555
H217 C186 1_555 1_555
H218 C186 1_555 1_555
C187 C186 1_555 1_555
H219 C187 1_555 1_555
H220 C187 1_555 1_555
C188 C187 1_555 1_555
H221 C188 1_555 1_555
H222 C188 1_555 1_555
C189 C188 1_555 1_555
H223 C189 1_555 1_555
H224 C189 1_555 1_555
C190 C189 1_555 1_555
H225 C190 1_555 1_555
H226 C190 1_555 1_555
C191 N18 1_555 1_555
H227 C191 1_555 1_555
C192 C191 1_555 1_555
C193 C192 1_555 1_555
H228 C193 1_555 1_555
C194 C193 1_555 1_555
H229 C194 1_555 1_555
C195 C194 1_555 1_555
H230 C195 1_555 1_555
C196 O36 1_555 1_555
C197 O35 1_555 1_555
C198 O36 1_555 1_555
H231 C198 1_555 1_555
H232 C198 1_555 1_555
H233 C198 1_555 1_555
C199 H234 1_555 1_555
H235 C199 1_555 1_555
H236 C199 1_555 1_555
C200 O37 1_555 1_555
C201 H237 1_555 1_555
H238 C201 1_555 1_555
H239 C201 1_555 1_555
C202 O39 1_555 1_555
C203 H240 1_555 1_555
H241 C203 1_555 1_555
H242 C203 1_555 1_555
C204 O41 1_555 1_555
C205 H243 1_555 1_555
H244 C205 1_555 1_555
H245 C205 1_555 1_555
C206 O43 1_555 1_555
C207 H246 1_555 1_555
H247 C207 1_555 1_555
H248 C207 1_555 1_555
C208 O45 1_555 1_555
C209 H249 1_555 1_555
H250 C209 1_555 1_555
H251 C209 1_555 1_555
C210 O47 1_555 1_555
C211 H252 1_555 1_555
H253 C211 1_555 1_555
H254 C211 1_555 1_555
C212 O49 1_555 1_555
C213 H255 1_555 1_555
H256 C213 1_555 1_555
H257 C213 1_555 1_555
C214 O51 1_555 1_555
C215 H258 1_555 1_555
H259 C215 1_555 1_555
H260 C215 1_555 1_555
C216 O53 1_555 1_555
C217 H261 1_555 1_555
H262 C217 1_555 1_555
H263 C217 1_555 1_555
C218 O55 1_555 1_555
C219 H264 1_555 1_555
H265 C219 1_555 1_555
H266 C219 1_555 1_555
C220 O57 1_555 1_555
C221 H267 1_555 1_555
H268 C221 1_555 1_555
H269 C221 1_555 1_555
C222 O59 1_555 1_555
C223 H270 1_555 1_555
H271 C223 1_555 1_555
H272 C223 1_555 1_555
C224 O61 1_555 1_555
C225 H273 1_555 1_555
H274 C225 1_555 1_555
H275 C225 1_555 1_555
C226 O63 1_555 1_555
C227 H276 1_555 1_555
H277 C227 1_555 1_555
H278 C227 1_555 1_555
C228 O79 1_555 1_555
C229 H279 1_555 1_555
H280 C229 1_555 1_555
H281 C229 1_555 1_555
C230 O65 1_555 1_555
C231 H282 1_555 1_555
H283 C231 1_555 1_555
H284 C231 1_555 1_555
C232 O69 1_555 1_555
C233 H285 1_555 1_555
H286 C233 1_555 1_555
H287 C233 1_555 1_555
C234 O71 1_555 1_555
C235 H288 1_555 1_555
H289 C235 1_555 1_555
H290 C235 1_555 1_555
C236 O67 1_555 1_555
C237 H291 1_555 1_555
H292 C237 1_555 1_555
H293 C237 1_555 1_555
C238 O75 1_555 1_555
C239 H294 1_555 1_555
H295 C239 1_555 1_555
H296 C239 1_555 1_555
C240 O73 1_555 1_555
C241 H297 1_555 1_555
H298 C241 1_555 1_555
H299 C241 1_555 1_555
C242 O77 1_555 1_555
C243 H300 1_555 1_555
H301 C243 1_555 1_555
H302 C243 1_555 1_555
C244 O83 1_555 1_555
C245 H303 1_555 1_555
H304 C245 1_555 1_555
H305 C245 1_555 1_555
C246 O81 1_555 1_555
C247 H306 1_555 1_555
H307 C247 1_555 1_555
H308 C247 1_555 1_555
C248 O85 1_555 1_555
C249 H309 1_555 1_555
H310 C249 1_555 1_555
H311 C249 1_555 1_555
C250 O87 1_555 1_555
C251 H312 1_555 1_555
H313 C251 1_555 1_555
H314 C251 1_555 1_555
C252 O89 1_555 1_555
C253 H315 1_555 1_555
H316 C253 1_555 1_555
H317 C253 1_555 1_555
C254 O91 1_555 1_555
Cd1 O26 1_555 1_555
Cd1 O50 1_555 1_555
Cd2 O30 1_555 1_555
Cd3 O2 1_555 1_555
Cd3 O57 1_555 1_555
Cd3 O58 1_555 1_555
Cd4 O34 1_555 1_555
Cd4 O59 1_555 1_555
Cd4 O61 1_555 1_555
Cd5 O6 1_555 1_555
Cd5 O39 1_555 1_555
Cd6 O41 1_555 1_555
Cd7 O10 1_555 1_555
Cd7 O14 1_555 1_555
Cd7 O43 1_555 1_555
Cd7 O44 1_555 1_555
Cd7 O45 1_555 1_555
Cd8 O18 1_555 1_555
Cd8 O49 1_555 1_555
Cd8 O91 1_555 1_555
Cd9 O22 1_555 1_555
Cd9 O51 1_555 1_555
Cd9 O53 1_555 1_555
Cd12 O19 1_555 1_555
Cd12 O23 1_555 1_555
Cd12 O67 1_555 1_555
Cd12 O79 1_555 1_555
Cd13 O27 1_555 1_555
Cd13 O65 1_555 1_555
Cd13 O80 1_555 1_555
Cd14 O31 1_555 1_555
Cd14 O35 1_555 1_555
Cd14 O88 1_555 1_555
Cd14 O89 1_555 1_555
Cd15 O3 1_555 1_555
Cd15 O81 1_555 1_555
Cd15 O85 1_555 1_555
Cd15 O90 1_555 1_555
Cd16 O7 1_555 1_555
Cd16 O74 1_555 1_555
Cd17 O11 1_555 1_555
Cd17 O77 1_555 1_555
Cd18 O15 1_555 1_555
Cd18 O71 1_555 1_555
Cd18 O73 1_555 1_555
Cd18 O75 1_555 1_555
O38 C200 1_555 1_555
O40 C202 1_555 1_555
O42 C204 1_555 1_555
O44 C206 1_555 1_555
O46 C208 1_555 1_555
O48 C210 1_555 1_555
O50 C212 1_555 1_555
O52 C214 1_555 1_555
O54 C216 1_555 1_555
O56 C218 1_555 1_555
O58 C220 1_555 1_555
O60 C222 1_555 1_555
O62 C224 1_555 1_555
O64 C226 1_555 1_555
O66 C230 1_555 1_555
O68 C236 1_555 1_555
O70 C232 1_555 1_555
O72 C234 1_555 1_555
O74 C240 1_555 1_555
O76 C238 1_555 1_555
O78 C242 1_555 1_555
O80 C228 1_555 1_555
O82 C246 1_555 1_555
O84 C244 1_555 1_555
O86 C248 1_555 1_555
O88 C250 1_555 1_555
O90 C252 1_555 1_555
O92 C254 1_555 1_555
C2 C7 1_555 1_555
C6 C7 1_555 1_555
C16 C21 1_555 1_555
C19 C20 1_555 1_555
C20 C21 1_555 1_555
C24 C29 1_555 1_555
C28 C29 1_555 1_555
C38 C43 1_555 1_555
C41 C42 1_555 1_555
C42 C43 1_555 1_555
C46 C51 1_555 1_555
C50 C51 1_555 1_555
C60 C65 1_555 1_555
C63 C64 1_555 1_555
C64 C65 1_555 1_555
C68 C73 1_555 1_555
C72 C73 1_555 1_555
C82 C87 1_555 1_555
C85 C86 1_555 1_555
C86 C87 1_555 1_555
C90 C95 1_555 1_555
C94 C95 1_555 1_555
C104 C109 1_555 1_555
C107 C108 1_555 1_555
C108 C109 1_555 1_555
C112 C117 1_555 1_555
C116 C117 1_555 1_555
C125 C152 1_555 1_555
C129 C134 1_555 1_555
C132 C133 1_555 1_555
C133 C134 1_555 1_555
C137 C142 1_555 1_555
C141 C142 1_555 1_555
C141 C143 1_555 1_555
C148 C149 1_555 1_555
C150 C151 1_555 1_555
C151 C153 1_555 1_555
C152 C153 1_555 1_555
C156 C161 1_555 1_555
C160 C161 1_555 1_555
C160 C162 1_555 1_555
C167 C168 1_555 1_555
C170 C175 1_555 1_555
C173 C174 1_555 1_555
C174 C175 1_555 1_555
C178 C183 1_555 1_555
C182 C183 1_555 1_555
C192 C197 1_555 1_555
C195 C196 1_555 1_555
C196 C197 1_555 1_555
C199 C200 1_555 1_555
C201 C202 1_555 1_555
C203 C204 1_555 1_555
C205 C206 1_555 1_555
C207 C208 1_555 1_555
C209 C210 1_555 1_555
C211 C212 1_555 1_555
C213 C214 1_555 1_555
C215 C216 1_555 1_555
C217 C218 1_555 1_555
C219 C220 1_555 1_555
C221 C222 1_555 1_555
C223 C224 1_555 1_555
C225 C226 1_555 1_555
C227 C228 1_555 1_555
C229 C230 1_555 1_555
C231 C232 1_555 1_555
C233 C234 1_555 1_555
C235 C236 1_555 1_555
C237 C238 1_555 1_555
C239 C240 1_555 1_555
C241 C242 1_555 1_555
C243 C244 1_555 1_555
C245 C246 1_555 1_555
C247 C248 1_555 1_555
C249 C250 1_555 1_555
C251 C252 1_555 1_555
C253 C254 1_555 1_555

#END
