# generated using pymatgen
data_Lu3Cd9H220C146N9Cl5O61
_symmetry_space_group_name_H-M   'P 1'
_cell_length_a   22.80300000
_cell_length_b   23.83882049
_cell_length_c   45.12565482
_cell_angle_alpha   80.22596323
_cell_angle_beta   75.36495840
_cell_angle_gamma   61.42723246
_symmetry_Int_Tables_number   1
_chemical_formula_structural   Lu3Cd9H220C146N9Cl5O61
_chemical_formula_sum   'Lu12 Cd36 H880 C584 N36 Cl20 O244'
_cell_volume   20809.10676214
_cell_formula_units_Z   4
loop_
 _symmetry_equiv_pos_site_id
 _symmetry_equiv_pos_as_xyz
  1  'x, y, z'
loop_
 _atom_site_type_symbol
 _atom_site_label
 _atom_site_symmetry_multiplicity
 _atom_site_fract_x
 _atom_site_fract_y
 _atom_site_fract_z
 _atom_site_occupancy
  C  C1  1  0.359700  0.538100  0.475300  1
  C  C2  1  0.373100  0.961900  0.024700  1
  C  C3  1  0.640300  0.461900  0.524700  1
  C  C4  1  0.626900  0.038100  0.975300  1
  C  C5  1  0.299200  0.590500  0.482300  1
  C  C6  1  0.372000  0.909500  0.017700  1
  C  C7  1  0.700800  0.409500  0.517700  1
  C  C8  1  0.628000  0.090500  0.982300  1
  C  C9  1  0.371500  0.370900  0.421500  1
  C  C10  1  0.163900  0.129100  0.078500  1
  C  C11  1  0.628500  0.629100  0.578500  1
  C  C12  1  0.836100  0.870900  0.921500  1
  C  C13  1  0.403100  0.328300  0.394300  1
  C  C14  1  0.125700  0.171700  0.105700  1
  C  C15  1  0.596900  0.671700  0.605700  1
  C  C16  1  0.874300  0.828300  0.894300  1
  C  C17  1  0.150000  0.214900  0.449100  1
  C  C18  1  0.814000  0.285100  0.050900  1
  C  C19  1  0.850000  0.785100  0.550900  1
  C  C20  1  0.186000  0.714900  0.949100  1
  C  C21  1  0.102600  0.273100  0.431100  1
  C  C22  1  0.806800  0.226900  0.068900  1
  C  C23  1  0.897400  0.726900  0.568900  1
  C  C24  1  0.193200  0.773100  0.931100  1
  C  C25  1  0.070700  0.102100  0.318500  1
  C  C26  1  0.491300  0.397900  0.181500  1
  C  C27  1  0.929300  0.897900  0.681500  1
  C  C28  1  0.508700  0.602100  0.818500  1
  C  C29  1  0.097700  0.130000  0.288000  1
  C  C30  1  0.515700  0.370000  0.212000  1
  C  C31  1  0.902300  0.870000  0.712000  1
  C  C32  1  0.484300  0.630000  0.788000  1
  C  C33  1  0.462800  0.257600  0.075400  1
  C  C34  1  0.795800  0.242400  0.424600  1
  C  C35  1  0.537200  0.742400  0.924600  1
  C  C36  1  0.204200  0.757600  0.575400  1
  C  C37  1  0.392900  0.257900  0.078900  1
  C  C38  1  0.729700  0.242100  0.421100  1
  C  C39  1  0.607100  0.742100  0.921100  1
  C  C40  1  0.270300  0.757900  0.578900  1
  C  C41  1  0.962600  0.288600  0.484200  1
  C  C42  1  0.735400  0.211400  0.015800  1
  C  C43  1  0.037400  0.711400  0.515800  1
  C  C44  1  0.264600  0.788600  0.984200  1
  C  C45  1  0.406000  0.598000  0.156000  1
  C  C46  1  0.160000  0.902000  0.344000  1
  C  C47  1  0.594000  0.402000  0.844000  1
  C  C48  1  0.840000  0.098000  0.656000  1
  C  C49  1  0.929000  0.520000  0.010000  1
  C  C50  1  0.459000  0.980000  0.490000  1
  C  C51  1  0.071000  0.480000  0.990000  1
  C  C52  1  0.541000  0.020000  0.510000  1
  C  C53  1  0.714800  0.481300  0.087100  1
  C  C54  1  0.283200  0.018700  0.412900  1
  C  C55  1  0.285200  0.518700  0.912900  1
  C  C56  1  0.716800  0.981300  0.587100  1
  C  C57  1  0.540100  0.253700  0.137300  1
  C  C58  1  0.931100  0.246300  0.362700  1
  C  C59  1  0.459900  0.746300  0.862700  1
  C  C60  1  0.068900  0.753700  0.637300  1
  C  C61  1  0.615500  0.210700  0.140300  1
  C  C62  1  0.966500  0.289300  0.359700  1
  C  C63  1  0.384500  0.789300  0.859700  1
  C  C64  1  0.033500  0.710700  0.640300  1
  C  C65  1  0.141300  0.733200  0.259000  1
  C  C66  1  0.133500  0.766800  0.241000  1
  C  C67  1  0.858700  0.266800  0.741000  1
  C  C68  1  0.866500  0.233200  0.759000  1
  C  C69  1  0.774400  0.616900  0.134900  1
  C  C70  1  0.526200  0.883100  0.365100  1
  C  C71  1  0.225600  0.383100  0.865100  1
  C  C72  1  0.473800  0.116900  0.634900  1
  C  C73  1  0.763400  0.659800  0.123400  1
  C  C74  1  0.546600  0.840200  0.376600  1
  C  C75  1  0.236600  0.340200  0.876600  1
  C  C76  1  0.453400  0.159800  0.623400  1
  C  C77  1  0.293100  0.825100  0.231100  1
  C  C78  1  0.349300  0.674900  0.268900  1
  C  C79  1  0.706900  0.174900  0.768900  1
  C  C80  1  0.650700  0.325100  0.731100  1
  C  C81  1  0.328800  0.751100  0.231100  1
  C  C82  1  0.311000  0.748900  0.268900  1
  C  C83  1  0.671200  0.248900  0.768900  1
  C  C84  1  0.689000  0.251100  0.731100  1
  C  C85  1  0.132700  0.016300  0.142300  1.0
  C  C86  1  0.291300  0.483700  0.357700  1.0
  C  C87  1  0.867300  0.983700  0.857700  1.0
  C  C88  1  0.708700  0.516300  0.642300  1.0
  C  C89  1  0.105900  0.995100  0.196100  1.0
  C  C90  1  0.297100  0.504900  0.303900  1.0
  C  C91  1  0.894100  0.004900  0.803900  1.0
  C  C92  1  0.702900  0.495100  0.696100  1.0
  C  C93  1  0.158800  0.001300  0.201500  1.0
  C  C94  1  0.361600  0.498700  0.298500  1.0
  C  C95  1  0.841200  0.998700  0.798500  1.0
  C  C96  1  0.638400  0.501300  0.701500  1.0
  C  C97  1  0.170300  0.995600  0.231000  1.0
  C  C98  1  0.396900  0.504400  0.269000  1.0
  C  C99  1  0.829700  0.004400  0.769000  1.0
  C  C100  1  0.603100  0.495600  0.731000  1.0
  C  C101  1  0.127400  0.986500  0.255100  1.0
  C  C102  1  0.369000  0.513500  0.244900  1.0
  C  C103  1  0.872600  0.013500  0.744900  1.0
  C  C104  1  0.631000  0.486500  0.755100  1.0
  C  C105  1  0.071000  0.978100  0.250500  1.0
  C  C106  1  0.299600  0.521900  0.249500  1.0
  C  C107  1  0.929000  0.021900  0.749500  1.0
  C  C108  1  0.700400  0.478100  0.750500  1.0
  C  C109  1  0.062000  0.980500  0.221100  1.0
  C  C110  1  0.263600  0.519500  0.278900  1.0
  C  C111  1  0.938000  0.019500  0.778900  1.0
  C  C112  1  0.736400  0.480500  0.721100  1.0
  C  C113  1  0.026500  0.969800  0.278200  1.0
  C  C114  1  0.274500  0.530200  0.221800  1.0
  C  C115  1  0.973500  0.030200  0.721800  1.0
  C  C116  1  0.725500  0.469800  0.778200  1.0
  C  C117  1  0.938800  0.954800  0.311800  1.0
  C  C118  1  0.205400  0.545200  0.188200  1.0
  C  C119  1  0.061200  0.045200  0.688200  1.0
  C  C120  1  0.794600  0.454800  0.811800  1.0
  C  C121  1  0.976200  0.886400  0.323000  1.0
  C  C122  1  0.185600  0.613600  0.177000  1.0
  C  C123  1  0.023800  0.113600  0.677000  1.0
  C  C124  1  0.814400  0.386400  0.823000  1.0
  C  C125  1  0.937200  0.869000  0.351800  1.0
  C  C126  1  0.158000  0.631000  0.148200  1.0
  C  C127  1  0.062800  0.131000  0.648200  1.0
  C  C128  1  0.842000  0.369000  0.851800  1.0
  C  C129  1  0.977800  0.799800  0.363400  1.0
  C  C130  1  0.141000  0.700200  0.136600  1.0
  C  C131  1  0.022200  0.200200  0.636600  1.0
  C  C132  1  0.859000  0.299800  0.863400  1.0
  C  C133  1  0.934000  0.773700  0.386100  1.0
  C  C134  1  0.093800  0.726300  0.113900  1.0
  C  C135  1  0.066000  0.226300  0.613900  1.0
  C  C136  1  0.906200  0.273700  0.886100  1.0
  C  C137  1  0.976900  0.706600  0.398200  1.0
  C  C138  1  0.081700  0.793400  0.101800  1.0
  C  C139  1  0.023100  0.293400  0.601800  1.0
  C  C140  1  0.918300  0.206600  0.898200  1.0
  C  C141  1  0.920500  0.675900  0.443300  1.0
  C  C142  1  0.039700  0.824100  0.056700  1.0
  C  C143  1  0.079500  0.324100  0.556700  1.0
  C  C144  1  0.960300  0.175900  0.943300  1.0
  C  C145  1  0.874600  0.654600  0.465000  1.0
  C  C146  1  0.994200  0.845400  0.035000  1.0
  C  C147  1  0.125400  0.345400  0.535000  1.0
  C  C148  1  0.005800  0.154600  0.965000  1.0
  C  C149  1  0.875000  0.654800  0.496200  1.0
  C  C150  1  0.026000  0.845200  0.003800  1.0
  C  C151  1  0.125000  0.345200  0.503800  1.0
  C  C152  1  0.974000  0.154800  0.996200  1.0
  C  C153  1  0.832200  0.637700  0.519300  1.0
  C  C154  1  0.989200  0.862300  0.980700  1.0
  C  C155  1  0.167800  0.362300  0.480700  1.0
  C  C156  1  0.010800  0.137700  0.019300  1.0
  C  C157  1  0.789900  0.620100  0.511300  1.0
  C  C158  1  0.921300  0.879900  0.988700  1.0
  C  C159  1  0.210100  0.379900  0.488700  1.0
  C  C160  1  0.078700  0.120100  0.011300  1.0
  C  C161  1  0.787400  0.620600  0.481000  1.0
  C  C162  1  0.889000  0.879400  0.019000  1.0
  C  C163  1  0.212600  0.379400  0.519000  1.0
  C  C164  1  0.111000  0.120600  0.981000  1.0
  C  C165  1  0.831000  0.637200  0.456800  1.0
  C  C166  1  0.925000  0.862800  0.043200  1.0
  C  C167  1  0.169000  0.362800  0.543200  1.0
  C  C168  1  0.075000  0.137200  0.956800  1.0
  C  C169  1  0.714700  0.569400  0.491800  1.0
  C  C170  1  0.775900  0.930600  0.008200  1.0
  C  C171  1  0.285300  0.430600  0.508200  1.0
  C  C172  1  0.224100  0.069400  0.991800  1.0
  C  C173  1  0.232200  0.236000  0.155600  1.0
  C  C174  1  0.623800  0.264000  0.344400  1.0
  C  C175  1  0.767800  0.764000  0.844400  1.0
  C  C176  1  0.376200  0.736000  0.655600  1.0
  C  C177  1  0.145000  0.305500  0.127100  1.0
  C  C178  1  0.577600  0.194500  0.372900  1.0
  C  C179  1  0.855000  0.694500  0.872900  1.0
  C  C180  1  0.422400  0.805500  0.627100  1.0
  C  C181  1  0.189900  0.302900  0.100700  1.0
  C  C182  1  0.593500  0.197100  0.399300  1.0
  C  C183  1  0.810100  0.697100  0.899300  1.0
  C  C184  1  0.406500  0.802900  0.600700  1.0
  C  C185  1  0.166800  0.336700  0.074900  1.0
  C  C186  1  0.578400  0.163300  0.425100  1.0
  C  C187  1  0.833200  0.663300  0.925100  1.0
  C  C188  1  0.421600  0.836700  0.574900  1.0
  C  C189  1  0.098300  0.371600  0.075600  1.0
  C  C190  1  0.545500  0.128400  0.424400  1.0
  C  C191  1  0.901700  0.628400  0.924400  1.0
  C  C192  1  0.454500  0.871600  0.575600  1.0
  C  C193  1  0.047900  0.376800  0.103000  1.0
  C  C194  1  0.527700  0.123200  0.397000  1.0
  C  C195  1  0.952100  0.623200  0.897000  1.0
  C  C196  1  0.472300  0.876800  0.603000  1.0
  C  C197  1  0.071600  0.342400  0.129800  1.0
  C  C198  1  0.543800  0.157600  0.370200  1.0
  C  C199  1  0.928400  0.657600  0.870200  1.0
  C  C200  1  0.456200  0.842400  0.629800  1.0
  C  C201  1  0.979200  0.420100  0.100700  1.0
  C  C202  1  0.500000  0.079900  0.399300  1.0
  C  C203  1  0.020800  0.579900  0.899300  1.0
  C  C204  1  0.500000  0.920100  0.600700  1.0
  C  C205  1  0.861600  0.488800  0.114400  1.0
  C  C206  1  0.464800  0.011200  0.385600  1.0
  C  C207  1  0.138400  0.511200  0.885600  1.0
  C  C208  1  0.535200  0.988800  0.614400  1.0
  C  C209  1  0.847000  0.552100  0.124700  1.0
  C  C210  1  0.523800  0.947900  0.375300  1.0
  C  C211  1  0.153000  0.447900  0.875300  1.0
  C  C212  1  0.476200  0.052100  0.624700  1.0
  C  C213  1  0.774300  0.595100  0.115700  1.0
  C  C214  1  0.485100  0.904900  0.384300  1.0
  C  C215  1  0.225700  0.404900  0.884300  1.0
  C  C216  1  0.514900  0.095100  0.615700  1.0
  C  C217  1  0.747500  0.644400  0.105200  1.0
  C  C218  1  0.497100  0.855600  0.394800  1.0
  C  C219  1  0.252500  0.355600  0.894800  1.0
  C  C220  1  0.502900  0.144400  0.605200  1.0
  C  C221  1  0.099500  0.726000  0.253800  1.0
  C  C222  1  0.079300  0.774000  0.246200  1.0
  C  C223  1  0.900500  0.274000  0.746200  1.0
  C  C224  1  0.920700  0.226000  0.753800  1.0
  C  C225  1  0.683900  0.708700  0.117100  1.0
  C  C226  1  0.509700  0.791300  0.382900  1.0
  C  C227  1  0.316100  0.291300  0.882900  1.0
  C  C228  1  0.490300  0.208700  0.617100  1.0
  C  C229  1  0.655500  0.731200  0.089200  1.0
  C  C230  1  0.475900  0.768800  0.410800  1.0
  C  C231  1  0.344500  0.268800  0.910800  1.0
  C  C232  1  0.524100  0.231200  0.589200  1.0
  C  C233  1  0.535000  0.800600  0.095200  1.0
  C  C234  1  0.430800  0.699400  0.404800  1.0
  C  C235  1  0.465000  0.199400  0.904800  1.0
  C  C236  1  0.569200  0.300600  0.595200  1.0
  C  C237  1  0.470200  0.856500  0.100500  1.0
  C  C238  1  0.427200  0.643500  0.399500  1.0
  C  C239  1  0.529800  0.143500  0.899500  1.0
  C  C240  1  0.572800  0.356500  0.600500  1.0
  C  C241  1  0.412600  0.845700  0.102700  1.0
  C  C242  1  0.361000  0.654300  0.397300  1.0
  C  C243  1  0.587400  0.154300  0.897300  1.0
  C  C244  1  0.639000  0.345700  0.602700  1.0
  C  C245  1  0.346600  0.896700  0.108500  1.0
  C  C246  1  0.351800  0.603300  0.391500  1.0
  C  C247  1  0.653400  0.103300  0.891500  1.0
  C  C248  1  0.648200  0.396700  0.608500  1.0
  C  C249  1  0.336500  0.956900  0.111500  1.0
  C  C250  1  0.404900  0.543100  0.388500  1.0
  C  C251  1  0.663500  0.043100  0.888500  1.0
  C  C252  1  0.595100  0.456900  0.611500  1.0
  C  C253  1  0.390600  0.967600  0.109400  1.0
  C  C254  1  0.467600  0.532400  0.390600  1.0
  C  C255  1  0.609400  0.032400  0.890600  1.0
  C  C256  1  0.532400  0.467600  0.609400  1.0
  C  C257  1  0.459800  0.918100  0.103100  1.0
  C  C258  1  0.481000  0.581900  0.396900  1.0
  C  C259  1  0.540200  0.081900  0.896900  1.0
  C  C260  1  0.519000  0.418100  0.603100  1.0
  C  C261  1  0.322900  0.082300  0.107500  1.0
  C  C262  1  0.512700  0.417700  0.392500  1.0
  C  C263  1  0.677100  0.917700  0.892500  1.0
  C  C264  1  0.487300  0.582300  0.607500  1.0
  C  C265  1  0.777600  0.316800  0.235200  1.0
  C  C266  1  0.329600  0.183200  0.264800  1.0
  C  C267  1  0.222400  0.683200  0.764800  1.0
  C  C268  1  0.670400  0.816800  0.735200  1.0
  C  C269  1  0.672300  0.398300  0.261100  1.0
  C  C270  1  0.331700  0.101700  0.238900  1.0
  C  C271  1  0.327700  0.601700  0.738900  1.0
  C  C272  1  0.668300  0.898300  0.761100  1.0
  C  C273  1  0.639100  0.362100  0.264500  1.0
  C  C274  1  0.265700  0.137900  0.235500  1.0
  C  C275  1  0.360900  0.637900  0.735500  1.0
  C  C276  1  0.734300  0.862100  0.764500  1.0
  C  C277  1  0.573800  0.383200  0.283200  1.0
  C  C278  1  0.240200  0.116800  0.216800  1.0
  C  C279  1  0.426200  0.616800  0.716800  1.0
  C  C280  1  0.759800  0.883200  0.783200  1.0
  C  C281  1  0.545400  0.438700  0.297300  1.0
  C  C282  1  0.281400  0.061300  0.202700  1.0
  C  C283  1  0.454600  0.561300  0.702700  1.0
  C  C284  1  0.718600  0.938700  0.797300  1.0
  C  C285  1  0.578200  0.477700  0.294500  1.0
  C  C286  1  0.350400  0.022300  0.205500  1.0
  C  C287  1  0.421800  0.522300  0.705500  1.0
  C  C288  1  0.649600  0.977700  0.794500  1.0
  C  C289  1  0.643600  0.456200  0.275400  1.0
  C  C290  1  0.375200  0.043800  0.224600  1.0
  C  C291  1  0.356400  0.543800  0.724600  1.0
  C  C292  1  0.624800  0.956200  0.775400  1.0
  C  C293  1  0.540000  0.537800  0.308800  1.0
  C  C294  1  0.386600  0.962200  0.191200  1.0
  C  C295  1  0.460000  0.462200  0.691200  1.0
  C  C296  1  0.613400  0.037800  0.808800  1.0
  C  C297  1  0.509300  0.639500  0.324100  1.0
  C  C298  1  0.472900  0.860500  0.175900  1.0
  C  C299  1  0.490700  0.360500  0.675900  1.0
  C  C300  1  0.527100  0.139500  0.824100  1.0
  C  C301  1  0.493300  0.694600  0.299800  1.0
  C  C302  1  0.487700  0.805400  0.200200  1.0
  C  C303  1  0.506700  0.305400  0.700200  1.0
  C  C304  1  0.512300  0.194600  0.799800  1.0
  C  C305  1  0.452300  0.758500  0.314300  1.0
  C  C306  1  0.525100  0.741500  0.185700  1.0
  C  C307  1  0.547700  0.241500  0.685700  1.0
  C  C308  1  0.474900  0.258500  0.814300  1.0
  C  C309  1  0.430900  0.815800  0.291200  1.0
  C  C310  1  0.537900  0.684200  0.208800  1.0
  C  C311  1  0.569100  0.184200  0.708800  1.0
  C  C312  1  0.462100  0.315800  0.791200  1.0
  C  C313  1  0.407600  0.878900  0.305100  1.0
  C  C314  1  0.591600  0.621100  0.194900  1.0
  C  C315  1  0.592400  0.121100  0.694900  1.0
  C  C316  1  0.408400  0.378900  0.805100  1.0
  C  C317  1  0.383800  0.936500  0.282300  1.0
  C  C318  1  0.602600  0.563500  0.217700  1.0
  C  C319  1  0.616200  0.063500  0.717700  1.0
  C  C320  1  0.397400  0.436500  0.782300  1.0
  C  C321  1  0.323400  0.026900  0.310100  1.0
  C  C322  1  0.660400  0.473100  0.189900  1.0
  C  C323  1  0.676600  0.973100  0.689900  1.0
  C  C324  1  0.339600  0.526900  0.810100  1.0
  C  C325  1  0.306500  0.083700  0.325500  1.0
  C  C326  1  0.715700  0.416300  0.174500  1.0
  C  C327  1  0.693500  0.916300  0.674500  1.0
  C  C328  1  0.284300  0.583700  0.825500  1.0
  C  C329  1  0.237400  0.120000  0.338800  1.0
  C  C330  1  0.696200  0.380000  0.161200  1.0
  C  C331  1  0.762600  0.880000  0.661200  1.0
  C  C332  1  0.303800  0.620000  0.838800  1.0
  C  C333  1  0.214800  0.175800  0.353400  1.0
  C  C334  1  0.744000  0.324200  0.146600  1.0
  C  C335  1  0.785200  0.824200  0.646600  1.0
  C  C336  1  0.256000  0.675800  0.853400  1.0
  C  C337  1  0.262700  0.194200  0.355600  1.0
  C  C338  1  0.812500  0.305800  0.144400  1.0
  C  C339  1  0.737300  0.805800  0.644400  1.0
  C  C340  1  0.187500  0.694200  0.855600  1.0
  C  C341  1  0.330600  0.160200  0.342600  1.0
  C  C342  1  0.833400  0.339800  0.157400  1.0
  C  C343  1  0.669400  0.839800  0.657400  1.0
  C  C344  1  0.166600  0.660200  0.842600  1.0
  C  C345  1  0.353700  0.103800  0.327000  1.0
  C  C346  1  0.784500  0.396200  0.173000  1.0
  C  C347  1  0.646300  0.896200  0.673000  1.0
  C  C348  1  0.215500  0.603800  0.827000  1.0
  C  C349  1  0.360600  0.233700  0.356900  1.0
  C  C350  1  0.951200  0.266300  0.143100  1.0
  C  C351  1  0.639400  0.766300  0.643100  1.0
  C  C352  1  0.048800  0.733700  0.856900  1.0
  C  C353  1  0.291300  0.373900  0.279100  1.0
  C  C354  1  0.944300  0.126100  0.220900  1.0
  C  C355  1  0.708700  0.626100  0.720900  1.0
  C  C356  1  0.055700  0.873900  0.779100  1.0
  C  C357  1  0.271500  0.381400  0.228400  1.0
  C  C358  1  0.881300  0.118600  0.271600  1.0
  C  C359  1  0.728500  0.618600  0.771600  1.0
  C  C360  1  0.118700  0.881400  0.728400  1.0
  C  C361  1  0.336700  0.336900  0.217900  1.0
  C  C362  1  0.891500  0.163100  0.282100  1.0
  C  C363  1  0.663300  0.663100  0.782100  1.0
  C  C364  1  0.108500  0.836900  0.717900  1.0
  C  C365  1  0.355100  0.316000  0.188600  1.0
  C  C366  1  0.859700  0.184000  0.311400  1.0
  C  C367  1  0.644900  0.684000  0.811400  1.0
  C  C368  1  0.140300  0.816000  0.688600  1.0
  C  C369  1  0.306600  0.339700  0.170500  1.0
  C  C370  1  0.816800  0.160300  0.329500  1.0
  C  C371  1  0.693400  0.660300  0.829500  1.0
  C  C372  1  0.183200  0.839700  0.670500  1.0
  C  C373  1  0.238700  0.384200  0.181000  1.0
  C  C374  1  0.803900  0.115800  0.319000  1.0
  C  C375  1  0.761300  0.615800  0.819000  1.0
  C  C376  1  0.196100  0.884200  0.681000  1.0
  C  C377  1  0.220200  0.405300  0.211100  1.0
  C  C378  1  0.836600  0.094700  0.288900  1.0
  C  C379  1  0.779800  0.594700  0.788900  1.0
  C  C380  1  0.163400  0.905300  0.711100  1.0
  C  C381  1  0.195000  0.407600  0.159400  1.0
  C  C382  1  0.762000  0.092400  0.340600  1.0
  C  C383  1  0.805000  0.592400  0.840600  1.0
  C  C384  1  0.238000  0.907600  0.659400  1.0
  C  C385  1  0.096900  0.463900  0.136900  1.0
  C  C386  1  0.697700  0.036100  0.363100  1.0
  C  C387  1  0.903100  0.536100  0.863100  1.0
  C  C388  1  0.302300  0.963900  0.636900  1.0
  C  C389  1  0.078200  0.532200  0.125400  1.0
  C  C390  1  0.735800  0.967800  0.374600  1.0
  C  C391  1  0.921800  0.467800  0.874600  1.0
  C  C392  1  0.264200  0.032200  0.625400  1.0
  C  C393  1  0.029800  0.556300  0.103500  1.0
  C  C394  1  0.689600  0.943700  0.396500  1.0
  C  C395  1  0.970200  0.443700  0.896500  1.0
  C  C396  1  0.310400  0.056300  0.603500  1.0
  C  C397  1  0.016100  0.622400  0.088400  1.0
  C  C398  1  0.726900  0.877600  0.411600  1.0
  C  C399  1  0.983900  0.377600  0.911600  1.0
  C  C400  1  0.273100  0.122400  0.588400  1.0
  C  C401  1  0.952300  0.655400  0.073600  1.0
  C  C402  1  0.681300  0.844600  0.426400  1.0
  C  C403  1  0.047700  0.344600  0.926400  1.0
  C  C404  1  0.318700  0.155400  0.573600  1.0
  C  C405  1  0.942600  0.720100  0.058300  1.0
  C  C406  1  0.721000  0.779900  0.441700  1.0
  C  C407  1  0.057400  0.279900  0.941700  1.0
  C  C408  1  0.279000  0.220100  0.558300  1.0
  C  C409  1  0.861400  0.746200  0.028800  1.0
  C  C410  1  0.636400  0.753800  0.471200  1.0
  C  C411  1  0.138600  0.253800  0.971200  1.0
  C  C412  1  0.363600  0.246200  0.528800  1.0
  C  C413  1  0.798100  0.775300  0.017100  1.0
  C  C414  1  0.590500  0.724700  0.482900  1.0
  C  C415  1  0.201900  0.224700  0.982900  1.0
  C  C416  1  0.409500  0.275300  0.517100  1.0
  C  C417  1  0.801600  0.762200  0.987200  1.0
  C  C418  1  0.551000  0.737800  0.512800  1.0
  C  C419  1  0.198400  0.237800  0.012800  1.0
  C  C420  1  0.449000  0.262200  0.487200  1.0
  C  C421  1  0.743200  0.789500  0.975300  1.0
  C  C422  1  0.508000  0.710500  0.524700  1.0
  C  C423  1  0.256800  0.210500  0.024700  1.0
  C  C424  1  0.492000  0.289500  0.475300  1.0
  C  C425  1  0.681900  0.832900  0.991100  1.0
  C  C426  1  0.505900  0.667100  0.508900  1.0
  C  C427  1  0.318100  0.167100  0.008900  1.0
  C  C428  1  0.494100  0.332900  0.491100  1.0
  C  C429  1  0.676900  0.846700  0.020500  1.0
  C  C430  1  0.544100  0.653300  0.479500  1.0
  C  C431  1  0.323100  0.153300  0.979500  1.0
  C  C432  1  0.455900  0.346700  0.520500  1.0
  C  C433  1  0.735100  0.819200  0.034200  1.0
  C  C434  1  0.588500  0.680800  0.465800  1.0
  C  C435  1  0.264900  0.180800  0.965800  1.0
  C  C436  1  0.411500  0.319200  0.534200  1.0
  C  C437  1  0.556900  0.915300  0.026700  1.0
  C  C438  1  0.498900  0.584700  0.473300  1.0
  C  C439  1  0.443100  0.084700  0.973300  1.0
  C  C440  1  0.501100  0.415300  0.526700  1.0
  C  C441  1  0.068900  0.526600  0.474200  1.0
  C  C442  1  0.069700  0.973400  0.025800  1.0
  C  C443  1  0.931100  0.473400  0.525800  1.0
  C  C444  1  0.930300  0.026600  0.974200  1.0
  C  C445  1  0.116200  0.581300  0.433900  1.0
  C  C446  1  0.131400  0.918700  0.066100  1.0
  C  C447  1  0.883800  0.418700  0.566100  1.0
  C  C448  1  0.868600  0.081300  0.933900  1.0
  C  C449  1  0.118300  0.618800  0.453400  1.0
  C  C450  1  0.190500  0.881200  0.046600  1.0
  C  C451  1  0.881700  0.381200  0.546600  1.0
  C  C452  1  0.809500  0.118800  0.953400  1.0
  C  C453  1  0.137500  0.665500  0.441300  1.0
  C  C454  1  0.244300  0.834500  0.058700  1.0
  C  C455  1  0.862500  0.334500  0.558700  1.0
  C  C456  1  0.755700  0.165500  0.941300  1.0
  C  C457  1  0.152300  0.677500  0.410100  1.0
  C  C458  1  0.239900  0.822500  0.089900  1.0
  C  C459  1  0.847700  0.322500  0.589900  1.0
  C  C460  1  0.760100  0.177500  0.910100  1.0
  C  C461  1  0.149300  0.641300  0.389700  1.0
  C  C462  1  0.180300  0.858700  0.110300  1.0
  C  C463  1  0.850700  0.358700  0.610300  1.0
  C  C464  1  0.819700  0.141300  0.889700  1.0
  C  C465  1  0.132400  0.592700  0.400700  1.0
  C  C466  1  0.125800  0.907300  0.099300  1.0
  C  C467  1  0.867600  0.407300  0.599300  1.0
  C  C468  1  0.874200  0.092700  0.900700  1.0
  C  C469  1  0.162500  0.662000  0.358000  1.0
  C  C470  1  0.182500  0.838000  0.142000  1.0
  C  C471  1  0.837500  0.338000  0.642000  1.0
  C  C472  1  0.817500  0.162000  0.858000  1.0
  C  C473  1  0.169500  0.675700  0.303700  1.0
  C  C474  1  0.148900  0.824300  0.196300  1.0
  C  C475  1  0.830500  0.324300  0.696300  1.0
  C  C476  1  0.851100  0.175700  0.803700  1.0
  C  C477  1  0.108300  0.707900  0.290100  1.0
  C  C478  1  0.106300  0.792100  0.209900  1.0
  C  C479  1  0.891700  0.292100  0.709900  1.0
  C  C480  1  0.893700  0.207900  0.790100  1.0
  C  C481  1  0.992800  0.685200  0.211200  1.0
  C  C482  1  0.889200  0.814800  0.288800  1.0
  C  C483  1  0.007200  0.314800  0.788800  1.0
  C  C484  1  0.110800  0.185200  0.711200  1.0
  C  C485  1  0.033600  0.611700  0.216100  1.0
  C  C486  1  0.861400  0.888300  0.283900  1.0
  C  C487  1  0.966400  0.388300  0.783900  1.0
  C  C488  1  0.138600  0.111700  0.716100  1.0
  C  C489  1  0.146900  0.320700  0.262300  1.0
  C  C490  1  0.729900  0.179300  0.237700  1.0
  C  C491  1  0.853100  0.679300  0.737700  1.0
  C  C492  1  0.270100  0.820700  0.762300  1.0
  C  C493  1  0.118100  0.312200  0.237800  1.0
  C  C494  1  0.668100  0.187800  0.262200  1.0
  C  C495  1  0.881900  0.687800  0.762200  1.0
  C  C496  1  0.331900  0.812200  0.737800  1.0
  C  C497  1  0.877800  0.569900  0.221300  1.0
  C  C498  1  0.669000  0.930100  0.278700  1.0
  C  C499  1  0.122200  0.430100  0.778700  1.0
  C  C500  1  0.331000  0.069900  0.721300  1.0
  C  C501  1  0.902700  0.511100  0.204500  1.0
  C  C502  1  0.618300  0.988900  0.295500  1.0
  C  C503  1  0.097300  0.488900  0.795500  1.0
  C  C504  1  0.381700  0.011100  0.704500  1.0
  C  C505  1  0.946200  0.303300  0.266300  1.0
  C  C506  1  0.515800  0.196700  0.233700  1.0
  C  C507  1  0.053800  0.696700  0.733700  1.0
  C  C508  1  0.484200  0.803300  0.766300  1.0
  C  C509  1  0.915400  0.347200  0.240600  1.0
  C  C510  1  0.503200  0.152800  0.259400  1.0
  C  C511  1  0.084600  0.652800  0.759400  1.0
  C  C512  1  0.496800  0.847200  0.740600  1.0
  C  C513  1  0.691500  0.690900  0.220500  1.0
  C  C514  1  0.602900  0.809100  0.279500  1.0
  C  C515  1  0.308500  0.309100  0.779500  1.0
  C  C516  1  0.397100  0.190900  0.720500  1.0
  C  C517  1  0.691600  0.632100  0.239500  1.0
  C  C518  1  0.563200  0.867900  0.260500  1.0
  C  C519  1  0.308400  0.367900  0.760500  1.0
  C  C520  1  0.436800  0.132100  0.739500  1.0
  C  C521  1  0.760100  0.370700  0.321500  1.0
  C  C522  1  0.452300  0.129300  0.178500  1.0
  C  C523  1  0.239900  0.629300  0.678500  1.0
  C  C524  1  0.547700  0.870700  0.821500  1.0
  C  C525  1  0.709400  0.409700  0.347900  1.0
  C  C526  1  0.467000  0.090300  0.152100  1.0
  C  C527  1  0.290600  0.590300  0.652100  1.0
  C  C528  1  0.533000  0.909700  0.847900  1.0
  C  C529  1  0.725900  0.658000  0.325600  1.0
  C  C530  1  0.709500  0.842000  0.174400  1.0
  C  C531  1  0.274100  0.342000  0.674400  1.0
  C  C532  1  0.290500  0.158000  0.825600  1.0
  C  C533  1  0.680100  0.640100  0.350300  1.0
  C  C534  1  0.670500  0.859900  0.149700  1.0
  C  C535  1  0.319900  0.359900  0.649700  1.0
  C  C536  1  0.329500  0.140100  0.850300  1.0
  C  C537  1  0.770300  0.435500  0.426300  1.0
  C  C538  1  0.632100  0.064500  0.073700  1.0
  C  C539  1  0.229700  0.564500  0.573700  1.0
  C  C540  1  0.367900  0.935500  0.926300  1.0
  C  C541  1  0.727300  0.506200  0.419200  1.0
  C  C542  1  0.652700  0.993800  0.080800  1.0
  C  C543  1  0.272700  0.493800  0.580800  1.0
  C  C544  1  0.347300  0.006200  0.919200  1.0
  C  C545  1  0.743100  0.803000  0.342200  1.0
  C  C546  1  0.888300  0.697000  0.157800  1.0
  C  C547  1  0.256900  0.197000  0.657800  1.0
  C  C548  1  0.111700  0.303000  0.842200  1.0
  C  C549  1  0.774400  0.746100  0.363500  1.0
  C  C550  1  0.884000  0.753900  0.136500  1.0
  C  C551  1  0.225600  0.253900  0.636500  1.0
  C  C552  1  0.116000  0.246100  0.863500  1.0
  C  C553  1  0.842800  0.498500  0.357900  1.0
  C  C554  1  0.699200  0.001500  0.142100  1.0
  C  C555  1  0.157200  0.501500  0.642100  1.0
  C  C556  1  0.300800  0.998500  0.857900  1.0
  C  C557  1  0.858600  0.554900  0.366100  1.0
  C  C558  1  0.779600  0.945100  0.133900  1.0
  C  C559  1  0.141400  0.445100  0.633900  1.0
  C  C560  1  0.220400  0.054900  0.866100  1.0
  C  C561  1  0.918000  0.478800  0.437000  1.0
  C  C562  1  0.833800  0.021200  0.063000  1.0
  C  C563  1  0.082000  0.521200  0.563000  1.0
  C  C564  1  0.166200  0.978800  0.937000  1.0
  C  C565  1  0.984200  0.480900  0.425700  1.0
  C  C566  1  0.890800  0.019100  0.074300  1.0
  C  C567  1  0.015800  0.519100  0.574300  1.0
  C  C568  1  0.109200  0.980900  0.925700  1.0
  C  C569  1  0.109300  0.379000  0.348800  1.0
  C  C570  1  0.837100  0.121000  0.151200  1.0
  C  C571  1  0.890700  0.621000  0.651200  1.0
  C  C572  1  0.162900  0.879000  0.848800  1.0
  C  C573  1  0.121800  0.435300  0.332700  1.0
  C  C574  1  0.889800  0.064700  0.167300  1.0
  C  C575  1  0.878200  0.564700  0.667300  1.0
  C  C576  1  0.110200  0.935300  0.832700  1.0
  C  C577  1  0.943100  0.633600  0.301800  1.0
  C  C578  1  0.878500  0.866400  0.198200  1.0
  C  C579  1  0.056900  0.366400  0.698200  1.0
  C  C580  1  0.121500  0.133600  0.801800  1.0
  C  C581  1  0.004700  0.609800  0.316000  1.0
  C  C582  1  0.930500  0.890200  0.184000  1.0
  C  C583  1  0.995300  0.390200  0.684000  1.0
  C  C584  1  0.069500  0.109800  0.816000  1.0
  Cd  Cd585  1  0.069461  0.281699  0.197239  1.0
  Cd  Cd586  1  0.548399  0.218301  0.302761  1.0
  Cd  Cd587  1  0.930539  0.718301  0.802761  1.0
  Cd  Cd588  1  0.451601  0.781699  0.697239  1.0
  Cd  Cd589  1  0.058035  0.469293  0.210117  1.0
  Cd  Cd590  1  0.737445  0.030707  0.289883  1.0
  Cd  Cd591  1  0.941965  0.530707  0.789883  1.0
  Cd  Cd592  1  0.262555  0.969293  0.710117  1.0
  Cd  Cd593  1  0.133849  0.561632  0.333070  1.0
  Cd  Cd594  1  0.028551  0.938368  0.166930  1.0
  Cd  Cd595  1  0.866151  0.438368  0.666930  1.0
  Cd  Cd596  1  0.971449  0.061632  0.833070  1.0
  Cd  Cd597  1  0.111370  0.469770  0.402070  1.0
  Cd  Cd598  1  0.983210  0.030230  0.097930  1.0
  Cd  Cd599  1  0.888630  0.530230  0.597930  1.0
  Cd  Cd600  1  0.016790  0.969770  0.902070  1.0
  Cd  Cd601  1  0.907952  0.625044  0.384472  1.0
  Cd  Cd602  1  0.917468  0.874956  0.115528  1.0
  Cd  Cd603  1  0.092048  0.374956  0.615528  1.0
  Cd  Cd604  1  0.082532  0.125044  0.884472  1.0
  Cd  Cd605  1  0.590176  0.625385  0.406183  1.0
  Cd  Cd606  1  0.621744  0.874615  0.093817  1.0
  Cd  Cd607  1  0.409824  0.374615  0.593817  1.0
  Cd  Cd608  1  0.378256  0.125385  0.906183  1.0
  Cd  Cd609  1  0.623930  0.465552  0.400308  1.0
  Cd  Cd610  1  0.489790  0.034448  0.099692  1.0
  Cd  Cd611  1  0.376070  0.534448  0.599692  1.0
  Cd  Cd612  1  0.510210  0.965552  0.900308  1.0
  Cd  Cd613  1  0.672404  0.554320  0.304192  1.0
  Cd  Cd614  1  0.530916  0.945680  0.195808  1.0
  Cd  Cd615  1  0.327596  0.445680  0.695808  1.0
  Cd  Cd616  1  0.469084  0.054320  0.804192  1.0
  Cd  Cd617  1  0.920726  0.406762  0.172686  1.0
  Cd  Cd618  1  0.500174  0.093238  0.327314  1.0
  Cd  Cd619  1  0.079274  0.593238  0.827314  1.0
  Cd  Cd620  1  0.499826  0.906762  0.672686  1.0
  Cl  Cl621  1  0.025380  0.494780  0.267660  1.0
  Cl  Cl622  1  0.787820  0.005220  0.232340  1.0
  Cl  Cl623  1  0.974620  0.505220  0.732340  1.0
  Cl  Cl624  1  0.212180  0.994780  0.767660  1.0
  Cl  Cl625  1  0.799510  0.504570  0.281470  1.0
  Cl  Cl626  1  0.585550  0.995430  0.218530  1.0
  Cl  Cl627  1  0.200490  0.495430  0.718530  1.0
  Cl  Cl628  1  0.414450  0.004570  0.781470  1.0
  Cl  Cl629  1  0.607360  0.410530  0.450910  1.0
  Cl  Cl630  1  0.468800  0.089470  0.049090  1.0
  Cl  Cl631  1  0.392640  0.589470  0.549090  1.0
  Cl  Cl632  1  0.531200  0.910530  0.950910  1.0
  Cl  Cl633  1  0.220200  0.373070  0.400070  1.0
  Cl  Cl634  1  0.993340  0.126930  0.099930  1.0
  Cl  Cl635  1  0.779800  0.626930  0.599930  1.0
  Cl  Cl636  1  0.006660  0.873070  0.900070  1.0
  Cl  Cl637  1  0.072860  0.178640  0.193840  1.0
  Cl  Cl638  1  0.445340  0.321360  0.306160  1.0
  Cl  Cl639  1  0.927140  0.821360  0.806160  1.0
  Cl  Cl640  1  0.554660  0.678640  0.693840  1.0
  H  H641  1  0.269300  0.667300  0.497300  1
  H  H642  1  0.433900  0.832700  0.002700  1
  H  H643  1  0.730700  0.332700  0.502700  1
  H  H644  1  0.566100  0.167300  0.997300  1
  H  H645  1  0.352900  0.506800  0.467800  1
  H  H646  1  0.327500  0.993200  0.032200  1
  H  H647  1  0.647100  0.493200  0.532200  1
  H  H648  1  0.672500  0.006800  0.967800  1
  H  H649  1  0.379100  0.520600  0.493400  1
  H  H650  1  0.393100  0.979400  0.006600  1
  H  H651  1  0.620900  0.479400  0.506600  1
  H  H652  1  0.606900  0.020600  0.993400  1
  H  H653  1  0.390000  0.550000  0.459800  1
  H  H654  1  0.399800  0.950000  0.040200  1
  H  H655  1  0.610000  0.450000  0.540200  1
  H  H656  1  0.600200  0.050000  0.959800  1
  H  H657  1  0.268200  0.578200  0.497600  1
  H  H658  1  0.344000  0.921800  0.002400  1
  H  H659  1  0.731800  0.421800  0.502400  1
  H  H660  1  0.656000  0.078200  0.997600  1
  H  H661  1  0.279600  0.607900  0.464100  1
  H  H662  1  0.351600  0.892100  0.035900  1
  H  H663  1  0.720400  0.392100  0.535900  1
  H  H664  1  0.648400  0.107900  0.964100  1
  H  H665  1  0.461200  0.335500  0.355100  1
  H  H666  1  0.151800  0.164500  0.144900  1
  H  H667  1  0.538800  0.664500  0.644900  1
  H  H668  1  0.848200  0.835500  0.855100  1
  H  H669  1  0.345900  0.354500  0.437500  1
  H  H670  1  0.137900  0.145500  0.062500  1
  H  H671  1  0.654100  0.645500  0.562500  1
  H  H672  1  0.862100  0.854500  0.937500  1
  H  H673  1  0.341700  0.413600  0.415000  1
  H  H674  1  0.170300  0.086400  0.085000  1
  H  H675  1  0.658300  0.586400  0.585000  1
  H  H676  1  0.829700  0.913600  0.915000  1
  H  H677  1  0.406900  0.371500  0.429100  1
  H  H678  1  0.207500  0.128500  0.070900  1
  H  H679  1  0.593100  0.628500  0.570900  1
  H  H680  1  0.792500  0.871500  0.929100  1
  H  H681  1  0.367800  0.327700  0.386300  1
  H  H682  1  0.081800  0.172300  0.113700  1
  H  H683  1  0.632200  0.672300  0.613700  1
  H  H684  1  0.918200  0.827700  0.886300  1
  H  H685  1  0.433200  0.284800  0.400600  1
  H  H686  1  0.118600  0.215200  0.099400  1
  H  H687  1  0.566800  0.715200  0.599400  1
  H  H688  1  0.881400  0.784800  0.900600  1
  H  H689  1  0.014400  0.309700  0.475500  1
  H  H690  1  0.799600  0.190300  0.024500  1
  H  H691  1  0.985600  0.690300  0.524500  1
  H  H692  1  0.200400  0.809700  0.975500  1
  H  H693  1  0.192500  0.190900  0.435500  1
  H  H694  1  0.818900  0.309100  0.064500  1
  H  H695  1  0.807500  0.809100  0.564500  1
  H  H696  1  0.181100  0.690900  0.935500  1
  H  H697  1  0.129000  0.188100  0.457900  1
  H  H698  1  0.775000  0.311900  0.042100  1
  H  H699  1  0.871000  0.811900  0.542100  1
  H  H700  1  0.225000  0.688100  0.957900  1
  H  H701  1  0.159500  0.229600  0.465200  1
  H  H702  1  0.854300  0.270400  0.034800  1
  H  H703  1  0.840500  0.770400  0.534800  1
  H  H704  1  0.145700  0.729600  0.965200  1
  H  H705  1  0.127300  0.295100  0.418300  1
  H  H706  1  0.840700  0.204900  0.081700  1
  H  H707  1  0.872700  0.704900  0.581700  1
  H  H708  1  0.159300  0.795100  0.918300  1
  H  H709  1  0.084800  0.259200  0.418000  1
  H  H710  1  0.762000  0.240800  0.082000  1
  H  H711  1  0.915200  0.740800  0.582000  1
  H  H712  1  0.238000  0.759200  0.918000  1
  H  H713  1  0.117700  0.203600  0.279200  1
  H  H714  1  0.600500  0.296400  0.220800  1
  H  H715  1  0.882300  0.796400  0.720800  1
  H  H716  1  0.399500  0.703600  0.779200  1
  H  H717  1  0.069800  0.063900  0.314900  1
  H  H718  1  0.448600  0.436100  0.185100  1
  H  H719  1  0.930200  0.936100  0.685100  1
  H  H720  1  0.551400  0.563900  0.814900  1
  H  H721  1  0.025100  0.132900  0.326900  1
  H  H722  1  0.484900  0.367100  0.173100  1
  H  H723  1  0.974900  0.867100  0.673100  1
  H  H724  1  0.515100  0.632900  0.826900  1
  H  H725  1  0.099600  0.092000  0.332800  1
  H  H726  1  0.524400  0.408000  0.167200  1
  H  H727  1  0.900400  0.908000  0.667200  1
  H  H728  1  0.475600  0.592000  0.832800  1
  H  H729  1  0.143000  0.099000  0.279000  1
  H  H730  1  0.521000  0.401000  0.221000  1
  H  H731  1  0.857000  0.901000  0.721000  1
  H  H732  1  0.479000  0.599000  0.779000  1
  H  H733  1  0.068200  0.141100  0.273500  1
  H  H734  1  0.482800  0.358900  0.226500  1
  H  H735  1  0.931800  0.858900  0.726500  1
  H  H736  1  0.517200  0.641100  0.773500  1
  H  H737  1  0.393900  0.207700  0.115700  1
  H  H738  1  0.717300  0.292300  0.384300  1
  H  H739  1  0.606100  0.792300  0.884300  1
  H  H740  1  0.282700  0.707700  0.615700  1
  H  H741  1  0.478600  0.267300  0.054300  1
  H  H742  1  0.800200  0.232700  0.445700  1
  H  H743  1  0.521400  0.732700  0.945700  1
  H  H744  1  0.199800  0.767300  0.554300  1
  H  H745  1  0.495400  0.216200  0.081800  1
  H  H746  1  0.793400  0.283800  0.418200  1
  H  H747  1  0.504600  0.783800  0.918200  1
  H  H748  1  0.206600  0.716200  0.581800  1
  H  H749  1  0.457400  0.289400  0.087800  1
  H  H750  1  0.834600  0.210600  0.412200  1
  H  H751  1  0.542600  0.710600  0.912200  1
  H  H752  1  0.165400  0.789400  0.587800  1
  H  H753  1  0.360400  0.299500  0.072100  1
  H  H754  1  0.732000  0.200500  0.427900  1
  H  H755  1  0.639600  0.700500  0.927900  1
  H  H756  1  0.268000  0.799500  0.572100  1
  H  H757  1  0.398400  0.226500  0.065900  1
  H  H758  1  0.690800  0.273500  0.434100  1
  H  H759  1  0.601600  0.773500  0.934100  1
  H  H760  1  0.309200  0.726500  0.565900  1
  H  H761  1  0.864200  0.323700  0.484500  1
  H  H762  1  0.672400  0.176300  0.015500  1
  H  H763  1  0.135800  0.676300  0.515500  1
  H  H764  1  0.327600  0.823700  0.984500  1
  H  H765  1  0.962300  0.262400  0.503000  1
  H  H766  1  0.727700  0.237600  0.997000  1
  H  H767  1  0.037700  0.737600  0.497000  1
  H  H768  1  0.272300  0.762400  0.003000  1
  H  H769  1  0.961900  0.327200  0.488200  1
  H  H770  1  0.777300  0.172800  0.011800  1
  H  H771  1  0.038100  0.672800  0.511800  1
  H  H772  1  0.222700  0.827200  0.988200  1
  H  H773  1  0.002600  0.265500  0.469500  1
  H  H774  1  0.737600  0.234500  0.030500  1
  H  H775  1  0.997400  0.734500  0.530500  1
  H  H776  1  0.262400  0.765500  0.969500  1
  H  H777  1  0.389300  0.669100  0.179700  1
  H  H778  1  0.238100  0.830900  0.320300  1
  H  H779  1  0.610700  0.330900  0.820300  1
  H  H780  1  0.761900  0.169100  0.679700  1
  H  H781  1  0.382200  0.574900  0.167100  1
  H  H782  1  0.124200  0.925100  0.332900  1
  H  H783  1  0.617800  0.425100  0.832900  1
  H  H784  1  0.875800  0.074900  0.667100  1
  H  H785  1  0.451700  0.577900  0.158900  1
  H  H786  1  0.188500  0.922100  0.341100  1
  H  H787  1  0.548300  0.422100  0.841100  1
  H  H788  1  0.811500  0.077900  0.658900  1
  H  H789  1  0.405300  0.601500  0.134500  1
  H  H790  1  0.141300  0.898500  0.365500  1
  H  H791  1  0.594700  0.398500  0.865500  1
  H  H792  1  0.858700  0.101500  0.634500  1
  H  H793  1  0.830300  0.575700  0.020900  1
  H  H794  1  0.426900  0.924300  0.479100  1
  H  H795  1  0.169700  0.424300  0.979100  1
  H  H796  1  0.573100  0.075700  0.520900  1
  H  H797  1  0.921300  0.483400  0.016600  1
  H  H798  1  0.421300  0.016600  0.483400  1
  H  H799  1  0.078700  0.516600  0.983400  1
  H  H800  1  0.578700  0.983400  0.516600  1
  H  H801  1  0.964700  0.516600  0.019200  1
  H  H802  1  0.500500  0.983400  0.480800  1
  H  H803  1  0.035300  0.483400  0.980800  1
  H  H804  1  0.499500  0.016600  0.519200  1
  H  H805  1  0.943300  0.521900  0.988100  1
  H  H806  1  0.453300  0.978100  0.511900  1
  H  H807  1  0.056700  0.478100  0.011900  1
  H  H808  1  0.546700  0.021900  0.488100  1
  H  H809  1  0.622200  0.555200  0.090800  1
  H  H810  1  0.268200  0.944800  0.409200  1
  H  H811  1  0.377800  0.444800  0.909200  1
  H  H812  1  0.731800  0.055200  0.590800  1
  H  H813  1  0.719700  0.439500  0.094900  1
  H  H814  1  0.254100  0.060500  0.405100  1
  H  H815  1  0.280300  0.560500  0.905100  1
  H  H816  1  0.745900  0.939500  0.594900  1
  H  H817  1  0.750800  0.487100  0.090700  1
  H  H818  1  0.328600  0.012900  0.409300  1
  H  H819  1  0.249200  0.512900  0.909300  1
  H  H820  1  0.671400  0.987100  0.590700  1
  H  H821  1  0.715300  0.485700  0.065500  1
  H  H822  1  0.266500  0.014300  0.434500  1
  H  H823  1  0.284700  0.514300  0.934500  1
  H  H824  1  0.733500  0.985700  0.565500  1
  H  H825  1  0.684000  0.207600  0.154000  1
  H  H826  1  0.045600  0.292400  0.346000  1
  H  H827  1  0.316000  0.792400  0.846000  1
  H  H828  1  0.954400  0.707600  0.654000  1
  H  H829  1  0.525600  0.231200  0.127400  1
  H  H830  1  0.884200  0.268800  0.372600  1
  H  H831  1  0.474400  0.768800  0.872600  1
  H  H832  1  0.115800  0.731200  0.627400  1
  H  H833  1  0.536100  0.292200  0.125400  1
  H  H834  1  0.953700  0.207800  0.374600  1
  H  H835  1  0.463900  0.707800  0.874600  1
  H  H836  1  0.046300  0.792200  0.625400  1
  H  H837  1  0.512100  0.264100  0.157300  1
  H  H838  1  0.933500  0.235900  0.342700  1
  H  H839  1  0.487900  0.735900  0.842700  1
  H  H840  1  0.066500  0.764100  0.657300  1
  H  H841  1  0.618300  0.171100  0.151500  1
  H  H842  1  0.940900  0.328900  0.348500  1
  H  H843  1  0.381700  0.828900  0.848500  1
  H  H844  1  0.059100  0.671100  0.651500  1
  H  H845  1  0.642200  0.199800  0.119800  1
  H  H846  1  0.961800  0.300200  0.380200  1
  H  H847  1  0.357800  0.800200  0.880200  1
  H  H848  1  0.038200  0.699800  0.619800  1
  H  H849  1  0.176600  0.736600  0.265800  1
  H  H850  1  0.179000  0.763400  0.234200  1
  H  H851  1  0.823400  0.263400  0.734200  1
  H  H852  1  0.821000  0.236600  0.765800  1
  H  H853  1  0.165700  0.694300  0.247900  1
  H  H854  1  0.107900  0.805700  0.252100  1
  H  H855  1  0.834300  0.305700  0.752100  1
  H  H856  1  0.892100  0.194300  0.747900  1
  H  H857  1  0.738000  0.606800  0.134800  1
  H  H858  1  0.479600  0.893200  0.365200  1
  H  H859  1  0.262000  0.393200  0.865200  1
  H  H860  1  0.520400  0.106800  0.634800  1
  H  H861  1  0.771400  0.622700  0.156100  1
  H  H862  1  0.550200  0.877300  0.343900  1
  H  H863  1  0.228600  0.377300  0.843900  1
  H  H864  1  0.449800  0.122700  0.656100  1
  H  H865  1  0.794000  0.651900  0.103500  1
  H  H866  1  0.549400  0.848100  0.396500  1
  H  H867  1  0.206000  0.348100  0.896500  1
  H  H868  1  0.450600  0.151900  0.603500  1
  H  H869  1  0.775200  0.683500  0.134300  1
  H  H870  1  0.593000  0.816500  0.365700  1
  H  H871  1  0.224800  0.316500  0.865700  1
  H  H872  1  0.407000  0.183500  0.634300  1
  H  H873  1  0.357700  0.681600  0.222200  1
  H  H874  1  0.261500  0.818400  0.277800  1
  H  H875  1  0.642300  0.318400  0.777800  1
  H  H876  1  0.738500  0.181600  0.722200  1
  H  H877  1  0.275300  0.837700  0.251900  1
  H  H878  1  0.364900  0.662300  0.248100  1
  H  H879  1  0.724700  0.162300  0.748100  1
  H  H880  1  0.635100  0.337700  0.751900  1
  H  H881  1  0.256600  0.842200  0.220200  1
  H  H882  1  0.319000  0.657800  0.279800  1
  H  H883  1  0.743400  0.157800  0.779800  1
  H  H884  1  0.681000  0.342200  0.720200  1
  H  H885  1  0.325400  0.840800  0.221400  1
  H  H886  1  0.387600  0.659200  0.278600  1
  H  H887  1  0.674600  0.159200  0.778600  1
  H  H888  1  0.612400  0.340800  0.721400  1
  H  H889  1  0.355900  0.749200  0.244800  1
  H  H890  1  0.349900  0.750800  0.255200  1
  H  H891  1  0.644100  0.250800  0.755200  1
  H  H892  1  0.650100  0.249200  0.744800  1
  H  H893  1  0.286400  0.753200  0.242800  1
  H  H894  1  0.282400  0.746800  0.257200  1
  H  H895  1  0.713600  0.246800  0.757200  1
  H  H896  1  0.717600  0.253200  0.742800  1
  H  H897  1  0.149700  0.041400  0.148600  1.0
  H  H898  1  0.339700  0.458600  0.351400  1.0
  H  H899  1  0.850300  0.958600  0.851400  1.0
  H  H900  1  0.660300  0.541400  0.648600  1.0
  H  H901  1  0.107000  0.040200  0.126600  1.0
  H  H902  1  0.273800  0.459800  0.373400  1.0
  H  H903  1  0.893000  0.959800  0.873400  1.0
  H  H904  1  0.726200  0.540200  0.626600  1.0
  H  H905  1  0.170300  0.977500  0.134300  1.0
  H  H906  1  0.282100  0.522500  0.365700  1.0
  H  H907  1  0.829700  0.022500  0.865700  1.0
  H  H908  1  0.717900  0.477500  0.634300  1.0
  H  H909  1  0.188100  0.009400  0.185000  1.0
  H  H910  1  0.382500  0.490600  0.315000  1.0
  H  H911  1  0.811900  0.990600  0.815000  1.0
  H  H912  1  0.617500  0.509400  0.685000  1.0
  H  H913  1  0.207900  0.998200  0.233800  1.0
  H  H914  1  0.439900  0.501800  0.266200  1.0
  H  H915  1  0.792100  0.001800  0.766200  1.0
  H  H916  1  0.560100  0.498200  0.733800  1.0
  H  H917  1  0.133300  0.985500  0.274900  1.0
  H  H918  1  0.393700  0.514500  0.225100  1.0
  H  H919  1  0.866700  0.014500  0.725100  1.0
  H  H920  1  0.606300  0.485500  0.774900  1.0
  H  H921  1  0.040100  0.965200  0.296600  1.0
  H  H922  1  0.301900  0.534800  0.203400  1.0
  H  H923  1  0.959900  0.034800  0.703400  1.0
  H  H924  1  0.698100  0.465200  0.796600  1.0
  H  H925  1  0.892000  0.965000  0.312400  1.0
  H  H926  1  0.169400  0.535000  0.187600  1.0
  H  H927  1  0.108000  0.035000  0.687600  1.0
  H  H928  1  0.830600  0.465000  0.812400  1.0
  H  H929  1  0.938300  0.982500  0.325500  1.0
  H  H930  1  0.246300  0.517500  0.174500  1.0
  H  H931  1  0.061700  0.017500  0.674500  1.0
  H  H932  1  0.753700  0.482500  0.825500  1.0
  H  H933  1  0.985400  0.858900  0.307100  1.0
  H  H934  1  0.151400  0.641100  0.192900  1.0
  H  H935  1  0.014600  0.141100  0.692900  1.0
  H  H936  1  0.848600  0.358900  0.807100  1.0
  H  H937  1  0.019500  0.879000  0.326600  1.0
  H  H938  1  0.225100  0.621000  0.173400  1.0
  H  H939  1  0.980500  0.121000  0.673400  1.0
  H  H940  1  0.774900  0.379000  0.826600  1.0
  H  H941  1  0.894600  0.874600  0.348000  1.0
  H  H942  1  0.117200  0.625400  0.152000  1.0
  H  H943  1  0.105400  0.125400  0.652000  1.0
  H  H944  1  0.882800  0.374600  0.848000  1.0
  H  H945  1  0.926200  0.897700  0.367500  1.0
  H  H946  1  0.191400  0.602300  0.132500  1.0
  H  H947  1  0.073800  0.102300  0.632500  1.0
  H  H948  1  0.808600  0.397700  0.867500  1.0
  H  H949  1  0.000800  0.773000  0.346000  1.0
  H  H950  1  0.119800  0.727000  0.154000  1.0
  H  H951  1  0.999200  0.227000  0.654000  1.0
  H  H952  1  0.880200  0.273000  0.846000  1.0
  H  H953  1  0.012400  0.797600  0.373000  1.0
  H  H954  1  0.183000  0.702400  0.127000  1.0
  H  H955  1  0.987600  0.202400  0.627000  1.0
  H  H956  1  0.817000  0.297600  0.873000  1.0
  H  H957  1  0.901100  0.773400  0.376200  1.0
  H  H958  1  0.050700  0.726600  0.123800  1.0
  H  H959  1  0.098900  0.226600  0.623800  1.0
  H  H960  1  0.949300  0.273400  0.876200  1.0
  H  H961  1  0.909100  0.801500  0.403100  1.0
  H  H962  1  0.113700  0.698500  0.096900  1.0
  H  H963  1  0.090900  0.198500  0.596900  1.0
  H  H964  1  0.886300  0.301500  0.903100  1.0
  H  H965  1  0.009900  0.681300  0.381300  1.0
  H  H966  1  0.072500  0.818700  0.118700  1.0
  H  H967  1  0.990100  0.318700  0.618700  1.0
  H  H968  1  0.927500  0.181300  0.881300  1.0
  H  H969  1  0.001700  0.708300  0.412300  1.0
  H  H970  1  0.122300  0.791700  0.087700  1.0
  H  H971  1  0.998300  0.291700  0.587700  1.0
  H  H972  1  0.877700  0.208300  0.912300  1.0
  H  H973  1  0.943200  0.690800  0.451800  1.0
  H  H974  1  0.085800  0.809200  0.048200  1.0
  H  H975  1  0.056800  0.309200  0.548200  1.0
  H  H976  1  0.914200  0.190800  0.951800  1.0
  H  H977  1  0.904600  0.666400  0.501400  1.0
  H  H978  1  0.072400  0.833600  0.998600  1.0
  H  H979  1  0.095400  0.333600  0.498600  1.0
  H  H980  1  0.927600  0.166400  0.001400  1.0
  H  H981  1  0.832500  0.638100  0.539900  1.0
  H  H982  1  0.010500  0.861900  0.960100  1.0
  H  H983  1  0.167500  0.361900  0.460100  1.0
  H  H984  1  0.989500  0.138100  0.039900  1.0
  H  H985  1  0.762200  0.607100  0.526700  1.0
  H  H986  1  0.896000  0.892900  0.973300  1.0
  H  H987  1  0.237800  0.392900  0.473300  1.0
  H  H988  1  0.104000  0.107100  0.026700  1.0
  H  H989  1  0.730300  0.560500  0.510700  1.0
  H  H990  1  0.801500  0.939500  0.989300  1.0
  H  H991  1  0.269700  0.439500  0.489300  1.0
  H  H992  1  0.198500  0.060500  0.010700  1.0
  H  H993  1  0.727100  0.530100  0.483300  1.0
  H  H994  1  0.740500  0.969900  0.016700  1.0
  H  H995  1  0.272900  0.469900  0.516700  1.0
  H  H996  1  0.259500  0.030100  0.983300  1.0
  H  H997  1  0.666000  0.594400  0.495600  1.0
  H  H998  1  0.756000  0.905600  0.004400  1.0
  H  H999  1  0.334000  0.405600  0.504400  1.0
  H  H1000  1  0.244000  0.094400  0.995600  1.0
  H  H1001  1  0.256700  0.259700  0.145700  1.0
  H  H1002  1  0.662100  0.240300  0.354300  1.0
  H  H1003  1  0.743300  0.740300  0.854300  1.0
  H  H1004  1  0.337900  0.759700  0.645700  1.0
  H  H1005  1  0.249800  0.197400  0.145200  1.0
  H  H1006  1  0.592400  0.302600  0.354800  1.0
  H  H1007  1  0.750200  0.802600  0.854800  1.0
  H  H1008  1  0.407600  0.697400  0.645200  1.0
  H  H1009  1  0.237900  0.224800  0.176600  1.0
  H  H1010  1  0.639300  0.275200  0.323400  1.0
  H  H1011  1  0.762100  0.775200  0.823400  1.0
  H  H1012  1  0.360700  0.724800  0.676600  1.0
  H  H1013  1  0.236500  0.278100  0.100100  1.0
  H  H1014  1  0.614700  0.221900  0.399900  1.0
  H  H1015  1  0.763500  0.721900  0.899900  1.0
  H  H1016  1  0.385300  0.778100  0.600100  1.0
  H  H1017  1  0.197700  0.335800  0.056800  1.0
  H  H1018  1  0.590300  0.164200  0.443200  1.0
  H  H1019  1  0.802300  0.664200  0.943200  1.0
  H  H1020  1  0.409700  0.835800  0.556800  1.0
  H  H1021  1  0.083700  0.393100  0.057500  1.0
  H  H1022  1  0.534300  0.106900  0.442500  1.0
  H  H1023  1  0.916300  0.606900  0.942500  1.0
  H  H1024  1  0.465700  0.893100  0.557500  1.0
  H  H1025  1  0.971800  0.436400  0.081000  1.0
  H  H1026  1  0.489200  0.063600  0.419000  1.0
  H  H1027  1  0.028200  0.563600  0.919000  1.0
  H  H1028  1  0.510800  0.936400  0.581000  1.0
  H  H1029  1  0.825000  0.478100  0.124300  1.0
  H  H1030  1  0.427400  0.021900  0.375700  1.0
  H  H1031  1  0.175000  0.521900  0.875700  1.0
  H  H1032  1  0.572600  0.978100  0.624300  1.0
  H  H1033  1  0.865100  0.491700  0.092300  1.0
  H  H1034  1  0.449100  0.008300  0.407700  1.0
  H  H1035  1  0.134900  0.508300  0.907700  1.0
  H  H1036  1  0.550900  0.991700  0.592300  1.0
  H  H1037  1  0.880300  0.566400  0.113600  1.0
  H  H1038  1  0.560300  0.933600  0.386400  1.0
  H  H1039  1  0.119700  0.433600  0.886400  1.0
  H  H1040  1  0.439700  0.066400  0.613600  1.0
  H  H1041  1  0.844500  0.550600  0.146600  1.0
  H  H1042  1  0.541700  0.949400  0.353400  1.0
  H  H1043  1  0.155500  0.449400  0.853400  1.0
  H  H1044  1  0.458300  0.050600  0.646600  1.0
  H  H1045  1  0.773700  0.578800  0.097800  1.0
  H  H1046  1  0.450300  0.921200  0.402200  1.0
  H  H1047  1  0.226300  0.421200  0.902200  1.0
  H  H1048  1  0.549700  0.078800  0.597800  1.0
  H  H1049  1  0.738200  0.594600  0.132000  1.0
  H  H1050  1  0.464800  0.905400  0.368000  1.0
  H  H1051  1  0.261800  0.405400  0.868000  1.0
  H  H1052  1  0.535200  0.094600  0.632000  1.0
  H  H1053  1  0.737300  0.630000  0.089400  1.0
  H  H1054  1  0.456700  0.870000  0.410600  1.0
  H  H1055  1  0.262700  0.370000  0.910600  1.0
  H  H1056  1  0.543300  0.130000  0.589400  1.0
  H  H1057  1  0.784800  0.654400  0.096600  1.0
  H  H1058  1  0.535800  0.845600  0.403400  1.0
  H  H1059  1  0.215200  0.345600  0.903400  1.0
  H  H1060  1  0.464200  0.154400  0.596600  1.0
  H  H1061  1  0.144000  0.703400  0.241000  1.0
  H  H1062  1  0.088400  0.796600  0.259000  1.0
  H  H1063  1  0.856000  0.296600  0.759000  1.0
  H  H1064  1  0.911600  0.203400  0.741000  1.0
  H  H1065  1  0.070700  0.709000  0.250400  1.0
  H  H1066  1  0.030100  0.791000  0.249600  1.0
  H  H1067  1  0.929300  0.291000  0.749600  1.0
  H  H1068  1  0.969900  0.209000  0.750400  1.0
  H  H1069  1  0.652700  0.701300  0.134300  1.0
  H  H1070  1  0.488300  0.798700  0.365700  1.0
  H  H1071  1  0.347300  0.298700  0.865700  1.0
  H  H1072  1  0.511700  0.201300  0.634300  1.0
  H  H1073  1  0.697300  0.738200  0.122400  1.0
  H  H1074  1  0.557900  0.761800  0.377600  1.0
  H  H1075  1  0.302700  0.261800  0.877600  1.0
  H  H1076  1  0.442100  0.238200  0.622400  1.0
  H  H1077  1  0.642100  0.701000  0.084800  1.0
  H  H1078  1  0.427900  0.799000  0.415200  1.0
  H  H1079  1  0.357900  0.299000  0.915200  1.0
  H  H1080  1  0.572100  0.201000  0.584800  1.0
  H  H1081  1  0.689600  0.734000  0.072000  1.0
  H  H1082  1  0.495600  0.766000  0.428000  1.0
  H  H1083  1  0.310400  0.266000  0.928000  1.0
  H  H1084  1  0.504400  0.234000  0.572000  1.0
  H  H1085  1  0.533500  0.763400  0.092600  1.0
  H  H1086  1  0.389500  0.736600  0.407400  1.0
  H  H1087  1  0.466500  0.236600  0.907400  1.0
  H  H1088  1  0.610500  0.263400  0.592600  1.0
  H  H1089  1  0.418800  0.805200  0.100200  1.0
  H  H1090  1  0.324200  0.694800  0.399800  1.0
  H  H1091  1  0.581200  0.194800  0.899800  1.0
  H  H1092  1  0.675800  0.305200  0.600200  1.0
  H  H1093  1  0.309300  0.889200  0.110400  1.0
  H  H1094  1  0.308900  0.610800  0.389600  1.0
  H  H1095  1  0.690700  0.110800  0.889600  1.0
  H  H1096  1  0.691100  0.389200  0.610400  1.0
  H  H1097  1  0.292600  0.990400  0.115000  1.0
  H  H1098  1  0.398000  0.509600  0.385000  1.0
  H  H1099  1  0.707400  0.009600  0.885000  1.0
  H  H1100  1  0.602000  0.490400  0.615000  1.0
  H  H1101  1  0.285100  0.075200  0.118800  1.0
  H  H1102  1  0.479100  0.424800  0.381200  1.0
  H  H1103  1  0.714900  0.924800  0.881200  1.0
  H  H1104  1  0.520900  0.575200  0.618800  1.0
  H  H1105  1  0.321100  0.089700  0.086100  1.0
  H  H1106  1  0.496900  0.410300  0.413900  1.0
  H  H1107  1  0.678900  0.910300  0.913900  1.0
  H  H1108  1  0.503100  0.589700  0.586100  1.0
  H  H1109  1  0.320700  0.119100  0.114700  1.0
  H  H1110  1  0.554500  0.380900  0.385300  1.0
  H  H1111  1  0.679300  0.880900  0.885300  1.0
  H  H1112  1  0.445500  0.619100  0.614700  1.0
  H  H1113  1  0.755300  0.291800  0.246400  1.0
  H  H1114  1  0.293500  0.208200  0.253600  1.0
  H  H1115  1  0.244700  0.708200  0.753600  1.0
  H  H1116  1  0.706500  0.791800  0.746400  1.0
  H  H1117  1  0.821600  0.300200  0.240400  1.0
  H  H1118  1  0.362200  0.199800  0.259600  1.0
  H  H1119  1  0.178400  0.699800  0.759600  1.0
  H  H1120  1  0.637800  0.800200  0.740400  1.0
  H  H1121  1  0.783000  0.314400  0.213600  1.0
  H  H1122  1  0.311000  0.185600  0.286400  1.0
  H  H1123  1  0.217000  0.685600  0.786400  1.0
  H  H1124  1  0.689000  0.814400  0.713600  1.0
  H  H1125  1  0.659300  0.324300  0.254500  1.0
  H  H1126  1  0.238100  0.175700  0.245500  1.0
  H  H1127  1  0.340700  0.675700  0.745500  1.0
  H  H1128  1  0.761900  0.824300  0.754500  1.0
  H  H1129  1  0.550200  0.359400  0.285800  1.0
  H  H1130  1  0.195400  0.140600  0.214200  1.0
  H  H1131  1  0.449800  0.640600  0.714200  1.0
  H  H1132  1  0.804600  0.859400  0.785800  1.0
  H  H1133  1  0.502100  0.451900  0.309500  1.0
  H  H1134  1  0.263500  0.048100  0.190500  1.0
  H  H1135  1  0.497900  0.548100  0.690500  1.0
  H  H1136  1  0.736500  0.951900  0.809500  1.0
  H  H1137  1  0.494700  0.548600  0.317600  1.0
  H  H1138  1  0.360900  0.951400  0.182400  1.0
  H  H1139  1  0.505300  0.451400  0.682400  1.0
  H  H1140  1  0.639100  0.048600  0.817600  1.0
  H  H1141  1  0.526200  0.648200  0.339600  1.0
  H  H1142  1  0.514000  0.851800  0.160400  1.0
  H  H1143  1  0.473800  0.351800  0.660400  1.0
  H  H1144  1  0.486000  0.148200  0.839600  1.0
  H  H1145  1  0.467700  0.636700  0.334100  1.0
  H  H1146  1  0.438500  0.863300  0.165900  1.0
  H  H1147  1  0.532300  0.363300  0.665900  1.0
  H  H1148  1  0.561500  0.136700  0.834100  1.0
  H  H1149  1  0.535500  0.692500  0.287100  1.0
  H  H1150  1  0.515100  0.807500  0.212900  1.0
  H  H1151  1  0.464500  0.307500  0.712900  1.0
  H  H1152  1  0.484900  0.192500  0.787100  1.0
  H  H1153  1  0.467800  0.690700  0.286700  1.0
  H  H1154  1  0.445200  0.809300  0.213300  1.0
  H  H1155  1  0.532200  0.309300  0.713300  1.0
  H  H1156  1  0.554800  0.190700  0.786700  1.0
  H  H1157  1  0.479200  0.762900  0.326500  1.0
  H  H1158  1  0.568600  0.737100  0.173500  1.0
  H  H1159  1  0.520800  0.237100  0.673500  1.0
  H  H1160  1  0.431400  0.262900  0.826500  1.0
  H  H1161  1  0.411700  0.759200  0.328000  1.0
  H  H1162  1  0.498900  0.740800  0.172000  1.0
  H  H1163  1  0.588300  0.240800  0.672000  1.0
  H  H1164  1  0.501100  0.259200  0.828000  1.0
  H  H1165  1  0.394200  0.818300  0.283100  1.0
  H  H1166  1  0.495600  0.681700  0.216900  1.0
  H  H1167  1  0.605800  0.181700  0.716900  1.0
  H  H1168  1  0.504400  0.318300  0.783100  1.0
  H  H1169  1  0.469100  0.809200  0.274200  1.0
  H  H1170  1  0.552500  0.690800  0.225800  1.0
  H  H1171  1  0.530900  0.190800  0.725800  1.0
  H  H1172  1  0.447500  0.309200  0.774200  1.0
  H  H1173  1  0.370600  0.884700  0.322500  1.0
  H  H1174  1  0.577800  0.615300  0.177500  1.0
  H  H1175  1  0.629400  0.115300  0.677500  1.0
  H  H1176  1  0.422200  0.384700  0.822500  1.0
  H  H1177  1  0.445000  0.876800  0.312600  1.0
  H  H1178  1  0.634400  0.623200  0.187400  1.0
  H  H1179  1  0.555000  0.123200  0.687400  1.0
  H  H1180  1  0.365600  0.376800  0.812600  1.0
  H  H1181  1  0.415000  0.926100  0.262700  1.0
  H  H1182  1  0.603800  0.573900  0.237300  1.0
  H  H1183  1  0.585000  0.073900  0.737300  1.0
  H  H1184  1  0.396200  0.426100  0.762700  1.0
  H  H1185  1  0.339200  0.946200  0.279400  1.0
  H  H1186  1  0.564800  0.553800  0.220600  1.0
  H  H1187  1  0.660800  0.053800  0.720600  1.0
  H  H1188  1  0.435200  0.446200  0.779400  1.0
  H  H1189  1  0.289800  0.013900  0.313100  1.0
  H  H1190  1  0.616800  0.486100  0.186900  1.0
  H  H1191  1  0.710200  0.986100  0.686900  1.0
  H  H1192  1  0.383200  0.513900  0.813100  1.0
  H  H1193  1  0.206100  0.106200  0.337800  1.0
  H  H1194  1  0.650100  0.393800  0.162200  1.0
  H  H1195  1  0.793900  0.893800  0.662200  1.0
  H  H1196  1  0.349900  0.606200  0.837800  1.0
  H  H1197  1  0.168700  0.200200  0.361400  1.0
  H  H1198  1  0.730300  0.299800  0.138600  1.0
  H  H1199  1  0.831300  0.799800  0.638600  1.0
  H  H1200  1  0.269700  0.700200  0.861400  1.0
  H  H1201  1  0.248700  0.230400  0.366000  1.0
  H  H1202  1  0.845100  0.269600  0.134000  1.0
  H  H1203  1  0.751300  0.769600  0.634000  1.0
  H  H1204  1  0.154900  0.730400  0.866000  1.0
  H  H1205  1  0.314400  0.263600  0.355600  1.0
  H  H1206  1  0.933600  0.236400  0.144400  1.0
  H  H1207  1  0.685600  0.736400  0.644400  1.0
  H  H1208  1  0.066400  0.763600  0.855600  1.0
  H  H1209  1  0.390000  0.252600  0.347200  1.0
  H  H1210  1  0.989800  0.247400  0.152800  1.0
  H  H1211  1  0.610000  0.747400  0.652800  1.0
  H  H1212  1  0.010200  0.752600  0.847200  1.0
  H  H1213  1  0.364200  0.222500  0.378100  1.0
  H  H1214  1  0.964800  0.277500  0.121900  1.0
  H  H1215  1  0.635800  0.777500  0.621900  1.0
  H  H1216  1  0.035200  0.722500  0.878100  1.0
  H  H1217  1  0.321300  0.330600  0.273600  1.0
  H  H1218  1  0.925500  0.169400  0.226400  1.0
  H  H1219  1  0.678700  0.669400  0.726400  1.0
  H  H1220  1  0.074500  0.830600  0.773600  1.0
  H  H1221  1  0.263900  0.373800  0.299200  1.0
  H  H1222  1  0.936900  0.126200  0.200800  1.0
  H  H1223  1  0.736100  0.626200  0.700800  1.0
  H  H1224  1  0.063100  0.873800  0.799200  1.0
  H  H1225  1  0.317600  0.395300  0.279300  1.0
  H  H1226  1  0.992200  0.104700  0.220700  1.0
  H  H1227  1  0.682400  0.604700  0.720700  1.0
  H  H1228  1  0.007800  0.895300  0.779300  1.0
  H  H1229  1  0.368600  0.320700  0.230500  1.0
  H  H1230  1  0.919800  0.179300  0.269500  1.0
  H  H1231  1  0.631400  0.679300  0.769500  1.0
  H  H1232  1  0.080200  0.820700  0.730500  1.0
  H  H1233  1  0.399700  0.286400  0.181200  1.0
  H  H1234  1  0.867300  0.213600  0.318800  1.0
  H  H1235  1  0.600300  0.713600  0.818800  1.0
  H  H1236  1  0.132700  0.786400  0.681200  1.0
  H  H1237  1  0.319300  0.325600  0.150800  1.0
  H  H1238  1  0.795700  0.174400  0.349200  1.0
  H  H1239  1  0.680700  0.674400  0.849200  1.0
  H  H1240  1  0.204300  0.825600  0.650800  1.0
  H  H1241  1  0.216300  0.394800  0.139600  1.0
  H  H1242  1  0.750700  0.105200  0.360400  1.0
  H  H1243  1  0.783700  0.605200  0.860400  1.0
  H  H1244  1  0.249300  0.894800  0.639600  1.0
  H  H1245  1  0.056000  0.458300  0.142300  1.0
  H  H1246  1  0.656600  0.041700  0.357700  1.0
  H  H1247  1  0.944000  0.541700  0.857700  1.0
  H  H1248  1  0.343400  0.958300  0.642300  1.0
  H  H1249  1  0.127500  0.436100  0.120500  1.0
  H  H1250  1  0.684100  0.063900  0.379500  1.0
  H  H1251  1  0.872500  0.563900  0.879500  1.0
  H  H1252  1  0.315900  0.936100  0.620500  1.0
  H  H1253  1  0.119300  0.535500  0.115100  1.0
  H  H1254  1  0.769900  0.964500  0.384900  1.0
  H  H1255  1  0.880700  0.464500  0.884900  1.0
  H  H1256  1  0.230100  0.035500  0.615100  1.0
  H  H1257  1  0.057300  0.559100  0.142700  1.0
  H  H1258  1  0.759100  0.940900  0.357300  1.0
  H  H1259  1  0.942700  0.440900  0.857300  1.0
  H  H1260  1  0.240900  0.059100  0.642700  1.0
  H  H1261  1  0.986900  0.557400  0.114600  1.0
  H  H1262  1  0.658900  0.942600  0.385400  1.0
  H  H1263  1  0.013100  0.442600  0.885400  1.0
  H  H1264  1  0.341100  0.057400  0.614600  1.0
  H  H1265  1  0.048400  0.526200  0.087600  1.0
  H  H1266  1  0.662200  0.973800  0.412400  1.0
  H  H1267  1  0.951600  0.473800  0.912400  1.0
  H  H1268  1  0.337800  0.026200  0.587600  1.0
  H  H1269  1  0.055500  0.618700  0.072700  1.0
  H  H1270  1  0.746900  0.881300  0.427300  1.0
  H  H1271  1  0.944500  0.381300  0.927300  1.0
  H  H1272  1  0.253100  0.118700  0.572700  1.0
  H  H1273  1  0.010600  0.649500  0.103700  1.0
  H  H1274  1  0.763800  0.850500  0.396300  1.0
  H  H1275  1  0.989400  0.350500  0.896300  1.0
  H  H1276  1  0.236200  0.149500  0.603700  1.0
  H  H1277  1  0.956900  0.628300  0.058500  1.0
  H  H1278  1  0.643700  0.871700  0.441500  1.0
  H  H1279  1  0.043100  0.371700  0.941500  1.0
  H  H1280  1  0.356300  0.128300  0.558500  1.0
  H  H1281  1  0.912300  0.660900  0.089300  1.0
  H  H1282  1  0.662500  0.839100  0.410700  1.0
  H  H1283  1  0.087700  0.339100  0.910700  1.0
  H  H1284  1  0.337500  0.160900  0.589300  1.0
  H  H1285  1  0.951200  0.742700  0.071300  1.0
  H  H1286  1  0.765200  0.757300  0.428700  1.0
  H  H1287  1  0.048800  0.257300  0.928700  1.0
  H  H1288  1  0.234800  0.242700  0.571300  1.0
  H  H1289  1  0.975000  0.714200  0.039000  1.0
  H  H1290  1  0.728200  0.785800  0.461000  1.0
  H  H1291  1  0.025000  0.285800  0.961000  1.0
  H  H1292  1  0.271800  0.214200  0.539000  1.0
  H  H1293  1  0.898600  0.714200  0.017400  1.0
  H  H1294  1  0.630200  0.785800  0.482600  1.0
  H  H1295  1  0.101400  0.285800  0.982600  1.0
  H  H1296  1  0.369800  0.214200  0.517400  1.0
  H  H1297  1  0.843100  0.735400  0.975600  1.0
  H  H1298  1  0.554100  0.764600  0.524400  1.0
  H  H1299  1  0.156900  0.264600  0.024400  1.0
  H  H1300  1  0.445900  0.235400  0.475600  1.0
  H  H1301  1  0.745400  0.778000  0.956200  1.0
  H  H1302  1  0.479600  0.722000  0.543800  1.0
  H  H1303  1  0.254600  0.222000  0.043800  1.0
  H  H1304  1  0.520400  0.278000  0.456200  1.0
  H  H1305  1  0.643900  0.853200  0.982000  1.0
  H  H1306  1  0.479100  0.646800  0.518000  1.0
  H  H1307  1  0.356100  0.146800  0.018000  1.0
  H  H1308  1  0.520900  0.353200  0.482000  1.0
  H  H1309  1  0.562600  0.935600  0.006600  1.0
  H  H1310  1  0.504800  0.564400  0.493400  1.0
  H  H1311  1  0.437400  0.064400  0.993400  1.0
  H  H1312  1  0.495200  0.435600  0.506600  1.0
  H  H1313  1  0.520700  0.946300  0.040300  1.0
  H  H1314  1  0.507300  0.553700  0.459700  1.0
  H  H1315  1  0.479300  0.053700  0.959700  1.0
  H  H1316  1  0.492700  0.446300  0.540300  1.0
  H  H1317  1  0.546000  0.881600  0.025600  1.0
  H  H1318  1  0.453200  0.618400  0.474400  1.0
  H  H1319  1  0.454000  0.118400  0.974400  1.0
  H  H1320  1  0.546800  0.381600  0.525600  1.0
  H  H1321  1  0.086900  0.540500  0.486900  1.0
  H  H1322  1  0.114300  0.959500  0.013100  1.0
  H  H1323  1  0.913100  0.459500  0.513100  1.0
  H  H1324  1  0.885700  0.040500  0.986900  1.0
  H  H1325  1  0.079100  0.482500  0.479700  1.0
  H  H1326  1  0.041300  0.017500  0.020300  1.0
  H  H1327  1  0.920900  0.517500  0.520300  1.0
  H  H1328  1  0.958700  0.982500  0.979700  1.0
  H  H1329  1  0.020500  0.552500  0.477100  1.0
  H  H1330  1  0.050100  0.947500  0.022900  1.0
  H  H1331  1  0.979500  0.447500  0.522900  1.0
  H  H1332  1  0.949900  0.052500  0.977100  1.0
  H  H1333  1  0.106700  0.612500  0.474500  1.0
  H  H1334  1  0.193700  0.887500  0.025500  1.0
  H  H1335  1  0.893300  0.387500  0.525500  1.0
  H  H1336  1  0.806300  0.112500  0.974500  1.0
  H  H1337  1  0.140600  0.689600  0.454400  1.0
  H  H1338  1  0.284600  0.810400  0.045600  1.0
  H  H1339  1  0.859400  0.310400  0.545600  1.0
  H  H1340  1  0.715400  0.189600  0.954400  1.0
  H  H1341  1  0.164500  0.710100  0.402500  1.0
  H  H1342  1  0.277100  0.789900  0.097500  1.0
  H  H1343  1  0.835500  0.289900  0.597500  1.0
  H  H1344  1  0.722900  0.210100  0.902500  1.0
  H  H1345  1  0.176800  0.693500  0.354300  1.0
  H  H1346  1  0.224600  0.806500  0.145700  1.0
  H  H1347  1  0.823200  0.306500  0.645700  1.0
  H  H1348  1  0.775400  0.193500  0.854300  1.0
  H  H1349  1  0.183900  0.706700  0.305900  1.0
  H  H1350  1  0.196500  0.793300  0.194100  1.0
  H  H1351  1  0.816100  0.293300  0.694100  1.0
  H  H1352  1  0.803500  0.206700  0.805900  1.0
  H  H1353  1  0.206200  0.643900  0.290100  1.0
  H  H1354  1  0.140200  0.856100  0.209900  1.0
  H  H1355  1  0.793800  0.356100  0.709900  1.0
  H  H1356  1  0.859800  0.143900  0.790100  1.0
  H  H1357  1  0.081400  0.748400  0.299800  1.0
  H  H1358  1  0.129600  0.751600  0.200200  1.0
  H  H1359  1  0.918600  0.251600  0.700200  1.0
  H  H1360  1  0.870400  0.248400  0.799800  1.0
  H  H1361  1  0.083600  0.683100  0.298300  1.0
  H  H1362  1  0.065000  0.816900  0.201700  1.0
  H  H1363  1  0.916400  0.316900  0.701700  1.0
  H  H1364  1  0.935000  0.183100  0.798300  1.0
  H  H1365  1  0.958400  0.695000  0.199800  1.0
  H  H1366  1  0.853200  0.805000  0.300200  1.0
  H  H1367  1  0.041600  0.305000  0.800200  1.0
  H  H1368  1  0.146800  0.195000  0.699800  1.0
  H  H1369  1  0.023100  0.702200  0.200000  1.0
  H  H1370  1  0.925300  0.797800  0.300000  1.0
  H  H1371  1  0.976900  0.297800  0.800000  1.0
  H  H1372  1  0.074700  0.202200  0.700000  1.0
  H  H1373  1  0.971700  0.703700  0.230700  1.0
  H  H1374  1  0.906100  0.796300  0.269300  1.0
  H  H1375  1  0.028300  0.296300  0.769300  1.0
  H  H1376  1  0.093900  0.203700  0.730700  1.0
  H  H1377  1  0.144500  0.362500  0.259500  1.0
  H  H1378  1  0.766500  0.137500  0.240500  1.0
  H  H1379  1  0.855500  0.637500  0.740500  1.0
  H  H1380  1  0.233500  0.862500  0.759500  1.0
  H  H1381  1  0.193600  0.288700  0.260900  1.0
  H  H1382  1  0.743200  0.211300  0.239100  1.0
  H  H1383  1  0.806400  0.711300  0.739100  1.0
  H  H1384  1  0.256800  0.788700  0.760900  1.0
  H  H1385  1  0.121000  0.316100  0.282100  1.0
  H  H1386  1  0.719200  0.183900  0.217900  1.0
  H  H1387  1  0.879000  0.683900  0.717900  1.0
  H  H1388  1  0.280800  0.816100  0.782100  1.0
  H  H1389  1  0.829800  0.586200  0.229400  1.0
  H  H1390  1  0.645400  0.913800  0.270600  1.0
  H  H1391  1  0.170200  0.413800  0.770600  1.0
  H  H1392  1  0.354600  0.086200  0.729400  1.0
  H  H1393  1  0.886100  0.601800  0.207400  1.0
  H  H1394  1  0.695300  0.898200  0.292600  1.0
  H  H1395  1  0.113900  0.398200  0.792600  1.0
  H  H1396  1  0.304700  0.101800  0.707400  1.0
  H  H1397  1  0.901500  0.559600  0.237800  1.0
  H  H1398  1  0.698900  0.940400  0.262200  1.0
  H  H1399  1  0.098500  0.440400  0.762200  1.0
  H  H1400  1  0.301100  0.059600  0.737800  1.0
  H  H1401  1  0.911900  0.311100  0.284700  1.0
  H  H1402  1  0.507700  0.188900  0.215300  1.0
  H  H1403  1  0.088100  0.688900  0.715300  1.0
  H  H1404  1  0.492300  0.811100  0.784700  1.0
  H  H1405  1  0.981900  0.310700  0.269500  1.0
  H  H1406  1  0.562100  0.189300  0.230500  1.0
  H  H1407  1  0.018100  0.689300  0.730500  1.0
  H  H1408  1  0.437900  0.810700  0.769500  1.0
  H  H1409  1  0.964800  0.259600  0.261200  1.0
  H  H1410  1  0.485600  0.240400  0.238800  1.0
  H  H1411  1  0.035200  0.740400  0.738800  1.0
  H  H1412  1  0.514400  0.759600  0.761200  1.0
  H  H1413  1  0.713800  0.679900  0.199700  1.0
  H  H1414  1  0.593400  0.820100  0.300300  1.0
  H  H1415  1  0.286200  0.320100  0.800300  1.0
  H  H1416  1  0.406600  0.179900  0.699700  1.0
  H  H1417  1  0.715500  0.706400  0.228800  1.0
  H  H1418  1  0.650700  0.793600  0.271200  1.0
  H  H1419  1  0.284500  0.293600  0.771200  1.0
  H  H1420  1  0.349300  0.206400  0.728800  1.0
  H  H1421  1  0.645400  0.723400  0.221000  1.0
  H  H1422  1  0.589800  0.776600  0.279000  1.0
  H  H1423  1  0.354600  0.276600  0.779000  1.0
  H  H1424  1  0.410200  0.223400  0.721000  1.0
  H  H1425  1  0.744500  0.389900  0.302700  1.0
  H  H1426  1  0.437100  0.110100  0.197300  1.0
  H  H1427  1  0.255500  0.610100  0.697300  1.0
  H  H1428  1  0.562900  0.889900  0.802700  1.0
  H  H1429  1  0.764900  0.327900  0.324700  1.0
  H  H1430  1  0.417500  0.172100  0.175300  1.0
  H  H1431  1  0.235100  0.672100  0.675300  1.0
  H  H1432  1  0.582500  0.827900  0.824700  1.0
  H  H1433  1  0.803500  0.369300  0.320300  1.0
  H  H1434  1  0.493100  0.130700  0.179700  1.0
  H  H1435  1  0.196500  0.630700  0.679700  1.0
  H  H1436  1  0.506900  0.869300  0.820300  1.0
  H  H1437  1  0.747400  0.675400  0.334400  1.0
  H  H1438  1  0.757200  0.824600  0.165600  1.0
  H  H1439  1  0.252600  0.324600  0.665600  1.0
  H  H1440  1  0.242800  0.175400  0.834400  1.0
  H  H1441  1  0.699900  0.689300  0.311500  1.0
  H  H1442  1  0.700700  0.810700  0.188500  1.0
  H  H1443  1  0.300100  0.310700  0.688500  1.0
  H  H1444  1  0.299300  0.189300  0.811500  1.0
  H  H1445  1  0.760000  0.620600  0.315000  1.0
  H  H1446  1  0.695600  0.879400  0.185000  1.0
  H  H1447  1  0.240000  0.379400  0.685000  1.0
  H  H1448  1  0.304400  0.120600  0.815000  1.0
  H  H1449  1  0.749100  0.411700  0.422500  1.0
  H  H1450  1  0.583300  0.088300  0.077500  1.0
  H  H1451  1  0.250900  0.588300  0.577500  1.0
  H  H1452  1  0.416700  0.911700  0.922500  1.0
  H  H1453  1  0.774000  0.428500  0.447500  1.0
  H  H1454  1  0.650000  0.071500  0.052500  1.0
  H  H1455  1  0.226000  0.571500  0.552500  1.0
  H  H1456  1  0.350000  0.928500  0.947500  1.0
  H  H1457  1  0.814900  0.421400  0.413600  1.0
  H  H1458  1  0.649900  0.078600  0.086400  1.0
  H  H1459  1  0.185100  0.578600  0.586400  1.0
  H  H1460  1  0.350100  0.921400  0.913600  1.0
  H  H1461  1  0.778100  0.812400  0.329200  1.0
  H  H1462  1  0.919700  0.687600  0.170800  1.0
  H  H1463  1  0.221900  0.187600  0.670800  1.0
  H  H1464  1  0.080300  0.312400  0.829200  1.0
  H  H1465  1  0.710500  0.839300  0.353900  1.0
  H  H1466  1  0.903700  0.660700  0.146100  1.0
  H  H1467  1  0.289500  0.160700  0.646100  1.0
  H  H1468  1  0.096300  0.339300  0.853900  1.0
  H  H1469  1  0.720700  0.793600  0.329800  1.0
  H  H1470  1  0.844100  0.706400  0.170200  1.0
  H  H1471  1  0.279300  0.206400  0.670200  1.0
  H  H1472  1  0.155900  0.293600  0.829800  1.0
  H  H1473  1  0.880300  0.471800  0.343000  1.0
  H  H1474  1  0.695100  0.028200  0.157000  1.0
  H  H1475  1  0.119700  0.528200  0.657000  1.0
  H  H1476  1  0.304900  0.971800  0.843000  1.0
  H  H1477  1  0.801900  0.518300  0.349700  1.0
  H  H1478  1  0.669900  0.981700  0.150300  1.0
  H  H1479  1  0.198100  0.481700  0.650300  1.0
  H  H1480  1  0.330100  0.018300  0.849700  1.0
  H  H1481  1  0.837100  0.473200  0.376200  1.0
  H  H1482  1  0.686500  0.026800  0.123800  1.0
  H  H1483  1  0.162900  0.526800  0.623800  1.0
  H  H1484  1  0.313500  0.973200  0.876200  1.0
  H  H1485  1  0.887700  0.513600  0.450000  1.0
  H  H1486  1  0.851300  0.986400  0.050000  1.0
  H  H1487  1  0.112300  0.486400  0.550000  1.0
  H  H1488  1  0.148700  0.013600  0.950000  1.0
  H  H1489  1  0.925300  0.439000  0.448400  1.0
  H  H1490  1  0.812700  0.061000  0.051600  1.0
  H  H1491  1  0.074700  0.561000  0.551600  1.0
  H  H1492  1  0.187300  0.939000  0.948400  1.0
  H  H1493  1  0.898300  0.482800  0.419800  1.0
  H  H1494  1  0.800900  0.017200  0.080200  1.0
  H  H1495  1  0.101700  0.517200  0.580200  1.0
  H  H1496  1  0.199100  0.982800  0.919800  1.0
  H  H1497  1  0.113900  0.352200  0.333800  1.0
  H  H1498  1  0.799900  0.147800  0.166200  1.0
  H  H1499  1  0.886100  0.647800  0.666200  1.0
  H  H1500  1  0.200100  0.852200  0.833800  1.0
  H  H1501  1  0.064200  0.394800  0.361200  1.0
  H  H1502  1  0.820200  0.105200  0.138800  1.0
  H  H1503  1  0.935800  0.605200  0.638800  1.0
  H  H1504  1  0.179800  0.894800  0.861200  1.0
  H  H1505  1  0.142100  0.354100  0.361700  1.0
  H  H1506  1  0.857900  0.145900  0.138300  1.0
  H  H1507  1  0.857900  0.645900  0.638300  1.0
  H  H1508  1  0.142100  0.854100  0.861700  1.0
  H  H1509  1  0.957500  0.622900  0.280700  1.0
  H  H1510  1  0.861100  0.877100  0.219300  1.0
  H  H1511  1  0.042500  0.377100  0.719300  1.0
  H  H1512  1  0.138900  0.122900  0.780700  1.0
  H  H1513  1  0.917500  0.679100  0.302900  1.0
  H  H1514  1  0.899500  0.820900  0.197100  1.0
  H  H1515  1  0.082500  0.320900  0.697100  1.0
  H  H1516  1  0.100500  0.179100  0.802900  1.0
  H  H1517  1  0.915100  0.613900  0.312700  1.0
  H  H1518  1  0.841700  0.886100  0.187300  1.0
  H  H1519  1  0.084900  0.386100  0.687300  1.0
  H  H1520  1  0.158300  0.113900  0.812700  1.0
  Lu  Lu1521  1  0.766739  0.475493  0.230335  1.0
  Lu  Lu1522  1  0.472567  0.024507  0.269665  1.0
  Lu  Lu1523  1  0.233261  0.524507  0.769665  1.0
  Lu  Lu1524  1  0.527433  0.975493  0.730335  1.0
  Lu  Lu1525  1  0.135948  0.508525  0.261845  1.0
  Lu  Lu1526  1  0.906318  0.991475  0.238155  1.0
  Lu  Lu1527  1  0.864052  0.491475  0.738155  1.0
  Lu  Lu1528  1  0.093682  0.008525  0.761845  1.0
  Lu  Lu1529  1  0.730775  0.648329  0.415181  1.0
  Lu  Lu1530  1  0.794285  0.851671  0.084819  1.0
  Lu  Lu1531  1  0.269225  0.351671  0.584819  1.0
  Lu  Lu1532  1  0.205715  0.148329  0.915181  1.0
  N  N1533  1  0.970500  0.968020  0.279980  1.0
  N  N1534  1  0.218500  0.531980  0.220020  1.0
  N  N1535  1  0.029500  0.031980  0.720020  1.0
  N  N1536  1  0.781500  0.468020  0.779980  1.0
  N  N1537  1  0.933300  0.676230  0.413970  1.0
  N  N1538  1  0.023500  0.823770  0.086030  1.0
  N  N1539  1  0.066700  0.323770  0.586030  1.0
  N  N1540  1  0.976500  0.176230  0.913970  1.0
  N  N1541  1  0.926000  0.439400  0.122600  1.0
  N  N1542  1  0.488000  0.060600  0.377400  1.0
  N  N1543  1  0.074000  0.560600  0.877400  1.0
  N  N1544  1  0.512000  0.939400  0.622600  1.0
  N  N1545  1  0.596000  0.794200  0.093600  1.0
  N  N1546  1  0.483800  0.705800  0.406400  1.0
  N  N1547  1  0.404000  0.205800  0.906400  1.0
  N  N1548  1  0.516200  0.294200  0.593600  1.0
  N  N1549  1  0.560200  0.577880  0.311120  1.0
  N  N1550  1  0.449200  0.922120  0.188880  1.0
  N  N1551  1  0.439800  0.422120  0.688880  1.0
  N  N1552  1  0.550800  0.077880  0.811120  1.0
  N  N1553  1  0.380370  0.993530  0.293130  1.0
  N  N1554  1  0.667030  0.506470  0.206870  1.0
  N  N1555  1  0.619630  0.006470  0.706870  1.0
  N  N1556  1  0.332970  0.493530  0.793130  1.0
  N  N1557  1  0.129100  0.444730  0.163470  1.0
  N  N1558  1  0.737300  0.055270  0.336530  1.0
  N  N1559  1  0.870900  0.555270  0.836530  1.0
  N  N1560  1  0.262700  0.944730  0.663470  1.0
  N  N1561  1  0.871700  0.759220  0.052380  1.0
  N  N1562  1  0.683300  0.740780  0.447620  1.0
  N  N1563  1  0.128300  0.240780  0.947620  1.0
  N  N1564  1  0.316700  0.259220  0.552380  1.0
  N  N1565  1  0.157600  0.643600  0.334200  1.0
  N  N1566  1  0.135400  0.856400  0.165800  1.0
  N  N1567  1  0.842400  0.356400  0.665800  1.0
  N  N1568  1  0.864600  0.143600  0.834200  1.0
  O  O1569  1  0.306300  0.636000  0.493400  1
  O  O1570  1  0.435700  0.864000  0.006600  1
  O  O1571  1  0.693700  0.364000  0.506600  1
  O  O1572  1  0.564300  0.136000  0.993400  1
  O  O1573  1  0.443100  0.357300  0.370100  1
  O  O1574  1  0.170500  0.142700  0.129900  1
  O  O1575  1  0.556900  0.642700  0.629900  1
  O  O1576  1  0.829500  0.857300  0.870100  1
  O  O1577  1  0.043500  0.318600  0.454800  1
  O  O1578  1  0.816900  0.181400  0.045200  1
  O  O1579  1  0.956500  0.681400  0.545200  1
  O  O1580  1  0.183100  0.818600  0.954800  1
  O  O1581  1  0.099700  0.190000  0.294800  1
  O  O1582  1  0.584500  0.310000  0.205200  1
  O  O1583  1  0.900300  0.810000  0.705200  1
  O  O1584  1  0.415500  0.690000  0.794800  1
  O  O1585  1  0.366900  0.243300  0.109900  1
  O  O1586  1  0.720100  0.256700  0.390100  1
  O  O1587  1  0.633100  0.756700  0.890100  1
  O  O1588  1  0.279900  0.743300  0.609900  1
  O  O1589  1  0.898400  0.305700  0.471500  1
  O  O1590  1  0.675600  0.194300  0.028500  1
  O  O1591  1  0.101600  0.694300  0.528500  1
  O  O1592  1  0.324400  0.805700  0.971500  1
  O  O1593  1  0.369000  0.666300  0.167700  1
  O  O1594  1  0.203000  0.833700  0.332300  1
  O  O1595  1  0.631000  0.333700  0.832300  1
  O  O1596  1  0.797000  0.166300  0.667700  1
  O  O1597  1  0.863300  0.581500  0.019900  1
  O  O1598  1  0.464700  0.918500  0.480100  1
  O  O1599  1  0.136700  0.418500  0.980100  1
  O  O1600  1  0.535300  0.081500  0.519900  1
  O  O1601  1  0.645000  0.532400  0.103600  1
  O  O1602  1  0.281000  0.967600  0.396400  1
  O  O1603  1  0.355000  0.467600  0.896400  1
  O  O1604  1  0.719000  0.032400  0.603600  1
  O  O1605  1  0.645000  0.233700  0.154100  1
  O  O1606  1  0.032800  0.266300  0.345900  1
  O  O1607  1  0.355000  0.766300  0.845900  1
  O  O1608  1  0.967200  0.733700  0.654100  1
  O  O1609  1  0.977300  0.304400  0.046400  1
  O  O1610  1  0.328100  0.195600  0.453600  1
  O  O1611  1  0.022700  0.695600  0.953600  1
  O  O1612  1  0.671900  0.804400  0.546400  1
  O  O1613  1  0.336100  0.792400  0.489400  1
  O  O1614  1  0.617900  0.707600  0.010600  1
  O  O1615  1  0.663900  0.207600  0.510600  1
  O  O1616  1  0.382100  0.292400  0.989400  1
  O  O1617  1  0.379700  0.453800  0.120800  1
  O  O1618  1  0.954300  0.046200  0.379200  1
  O  O1619  1  0.620300  0.546200  0.879200  1
  O  O1620  1  0.045700  0.953800  0.620800  1
  O  O1621  1  0.948600  0.825600  0.469200  1
  O  O1622  1  0.243400  0.674400  0.030800  1
  O  O1623  1  0.051400  0.174400  0.530800  1
  O  O1624  1  0.756600  0.325600  0.969200  1
  O  O1625  1  0.191800  0.803500  0.426900  1
  O  O1626  1  0.422200  0.696500  0.073100  1
  O  O1627  1  0.808200  0.196500  0.573100  1
  O  O1628  1  0.577800  0.303500  0.926900  1
  O  O1629  1  0.297000  0.772700  0.483300  1
  O  O1630  1  0.553000  0.727300  0.016700  1
  O  O1631  1  0.703000  0.227300  0.516700  1
  O  O1632  1  0.447000  0.272700  0.983300  1
  O  O1633  1  0.348400  0.716100  0.211100  1
  O  O1634  1  0.275600  0.783900  0.288900  1
  O  O1635  1  0.651600  0.283900  0.788900  1
  O  O1636  1  0.724400  0.216100  0.711100  1
  O  O1637  1  0.089600  0.001550  0.168050  1.0
  O  O1638  1  0.259200  0.498450  0.331950  1.0
  O  O1639  1  0.910400  0.998450  0.831950  1.0
  O  O1640  1  0.740800  0.501550  0.668050  1.0
  O  O1641  1  0.013010  0.971590  0.214990  1.0
  O  O1642  1  0.199590  0.528410  0.285010  1.0
  O  O1643  1  0.986990  0.028410  0.785010  1.0
  O  O1644  1  0.800410  0.471590  0.714990  1.0
  O  O1645  1  0.824490  0.637370  0.428450  1.0
  O  O1646  1  0.890310  0.862630  0.071550  1.0
  O  O1647  1  0.175510  0.362630  0.571550  1.0
  O  O1648  1  0.109690  0.137370  0.928450  1.0
  O  O1649  1  0.745500  0.604840  0.470360  1.0
  O  O1650  1  0.820700  0.895160  0.029640  1.0
  O  O1651  1  0.254500  0.395160  0.529640  1.0
  O  O1652  1  0.179300  0.104840  0.970360  1.0
  O  O1653  1  0.162020  0.273720  0.154840  1.0
  O  O1654  1  0.590580  0.226280  0.345160  1.0
  O  O1655  1  0.837980  0.726280  0.845160  1.0
  O  O1656  1  0.409420  0.773720  0.654840  1.0
  O  O1657  1  0.031920  0.343200  0.155760  1.0
  O  O1658  1  0.530880  0.156800  0.344240  1.0
  O  O1659  1  0.968080  0.656800  0.844240  1.0
  O  O1660  1  0.469120  0.843200  0.655760  1.0
  O  O1661  1  0.508730  0.932480  0.101660  1.0
  O  O1662  1  0.542870  0.567520  0.398340  1.0
  O  O1663  1  0.491270  0.067520  0.898340  1.0
  O  O1664  1  0.457130  0.432480  0.601660  1.0
  O  O1665  1  0.385900  0.027100  0.111700  1.0
  O  O1666  1  0.524700  0.472900  0.388300  1.0
  O  O1667  1  0.614100  0.972900  0.888300  1.0
  O  O1668  1  0.475300  0.527100  0.611700  1.0
  O  O1669  1  0.736980  0.382580  0.243260  1.0
  O  O1670  1  0.362820  0.117420  0.256740  1.0
  O  O1671  1  0.263020  0.617420  0.756740  1.0
  O  O1672  1  0.637180  0.882580  0.743260  1.0
  O  O1673  1  0.681040  0.487380  0.270340  1.0
  O  O1674  1  0.438760  0.012620  0.229660  1.0
  O  O1675  1  0.318960  0.512620  0.729660  1.0
  O  O1676  1  0.561240  0.987380  0.770340  1.0
  O  O1677  1  0.420410  0.071640  0.314540  1.0
  O  O1678  1  0.806590  0.428360  0.185460  1.0
  O  O1679  1  0.579590  0.928360  0.685460  1.0
  O  O1680  1  0.193410  0.571640  0.814540  1.0
  O  O1681  1  0.380420  0.177320  0.341840  1.0
  O  O1682  1  0.899580  0.322680  0.158160  1.0
  O  O1683  1  0.619580  0.822680  0.658160  1.0
  O  O1684  1  0.100420  0.677320  0.841840  1.0
  O  O1685  1  0.247710  0.406610  0.257170  1.0
  O  O1686  1  0.911490  0.093390  0.242830  1.0
  O  O1687  1  0.752290  0.593390  0.742830  1.0
  O  O1688  1  0.088510  0.906610  0.757170  1.0
  O  O1689  1  0.158340  0.447310  0.223410  1.0
  O  O1690  1  0.829060  0.052690  0.276590  1.0
  O  O1691  1  0.841660  0.552690  0.776590  1.0
  O  O1692  1  0.170940  0.947310  0.723410  1.0
  O  O1693  1  0.729000  0.832500  0.062700  1.0
  O  O1694  1  0.624200  0.667500  0.437300  1.0
  O  O1695  1  0.271000  0.167500  0.937300  1.0
  O  O1696  1  0.375800  0.332500  0.562700  1.0
  O  O1697  1  0.619130  0.889160  0.037980  1.0
  O  O1698  1  0.546270  0.610840  0.462020  1.0
  O  O1699  1  0.380870  0.110840  0.962020  1.0
  O  O1700  1  0.453730  0.389160  0.537980  1.0
  O  O1701  1  0.099200  0.532580  0.442820  1.0
  O  O1702  1  0.074600  0.967420  0.057180  1.0
  O  O1703  1  0.900800  0.467420  0.557180  1.0
  O  O1704  1  0.925400  0.032580  0.942820  1.0
  O  O1705  1  0.127250  0.556320  0.383980  1.0
  O  O1706  1  0.067550  0.943680  0.116020  1.0
  O  O1707  1  0.872750  0.443680  0.616020  1.0
  O  O1708  1  0.932450  0.056320  0.883980  1.0
  O  O1709  1  0.073510  0.592510  0.234670  1.0
  O  O1710  1  0.900690  0.907490  0.265330  1.0
  O  O1711  1  0.926490  0.407490  0.765330  1.0
  O  O1712  1  0.099310  0.092510  0.734670  1.0
  O  O1713  1  0.023990  0.577690  0.201730  1.0
  O  O1714  1  0.803410  0.922310  0.298270  1.0
  O  O1715  1  0.976010  0.422310  0.798270  1.0
  O  O1716  1  0.196590  0.077690  0.701730  1.0
  O  O1717  1  0.100700  0.351700  0.216100  1.0
  O  O1718  1  0.668500  0.148300  0.283900  1.0
  O  O1719  1  0.899300  0.648300  0.783900  1.0
  O  O1720  1  0.331500  0.851700  0.716100  1.0
  O  O1721  1  0.116270  0.259470  0.239190  1.0
  O  O1722  1  0.614930  0.240530  0.260810  1.0
  O  O1723  1  0.883730  0.740530  0.760810  1.0
  O  O1724  1  0.385070  0.759470  0.739190  1.0
  O  O1725  1  0.963560  0.481220  0.191460  1.0
  O  O1726  1  0.636240  0.018780  0.308540  1.0
  O  O1727  1  0.036440  0.518780  0.808540  1.0
  O  O1728  1  0.363760  0.981220  0.691460  1.0
  O  O1729  1  0.860590  0.491530  0.203290  1.0
  O  O1730  1  0.555410  0.008470  0.296710  1.0
  O  O1731  1  0.139410  0.508470  0.796710  1.0
  O  O1732  1  0.444590  0.991530  0.703290  1.0
  O  O1733  1  0.955070  0.343070  0.214590  1.0
  O  O1734  1  0.512730  0.156930  0.285410  1.0
  O  O1735  1  0.044930  0.656930  0.785410  1.0
  O  O1736  1  0.487270  0.843070  0.714590  1.0
  O  O1737  1  0.853900  0.384310  0.245690  1.0
  O  O1738  1  0.483900  0.115690  0.254310  1.0
  O  O1739  1  0.146100  0.615690  0.754310  1.0
  O  O1740  1  0.516100  0.884310  0.745690  1.0
  O  O1741  1  0.719670  0.581210  0.225650  1.0
  O  O1742  1  0.526530  0.918790  0.274350  1.0
  O  O1743  1  0.280330  0.418790  0.774350  1.0
  O  O1744  1  0.473470  0.081210  0.725650  1.0
  O  O1745  1  0.664710  0.637720  0.267460  1.0
  O  O1746  1  0.569890  0.862280  0.232540  1.0
  O  O1747  1  0.335290  0.362280  0.732540  1.0
  O  O1748  1  0.430110  0.137720  0.767460  1.0
  O  O1749  1  0.700400  0.380810  0.373190  1.0
  O  O1750  1  0.454400  0.119190  0.126810  1.0
  O  O1751  1  0.299600  0.619190  0.626810  1.0
  O  O1752  1  0.545600  0.880810  0.873190  1.0
  O  O1753  1  0.675300  0.470230  0.344570  1.0
  O  O1754  1  0.490100  0.029770  0.155430  1.0
  O  O1755  1  0.324700  0.529770  0.655430  1.0
  O  O1756  1  0.509900  0.970230  0.844570  1.0
  O  O1757  1  0.645130  0.616890  0.344850  1.0
  O  O1758  1  0.606870  0.883110  0.155150  1.0
  O  O1759  1  0.354870  0.383110  0.655150  1.0
  O  O1760  1  0.393130  0.116890  0.844850  1.0
  O  O1761  1  0.673500  0.650380  0.377820  1.0
  O  O1762  1  0.701700  0.849620  0.122180  1.0
  O  O1763  1  0.326500  0.349620  0.622180  1.0
  O  O1764  1  0.298300  0.150380  0.877820  1.0
  O  O1765  1  0.672350  0.522270  0.410630  1.0
  O  O1766  1  0.605250  0.977730  0.089370  1.0
  O  O1767  1  0.327650  0.477730  0.589370  1.0
  O  O1768  1  0.394750  0.022270  0.910630  1.0
  O  O1769  1  0.746900  0.544210  0.423190  1.0
  O  O1770  1  0.714300  0.955790  0.076810  1.0
  O  O1771  1  0.253100  0.455790  0.576810  1.0
  O  O1772  1  0.285700  0.044210  0.923190  1.0
  O  O1773  1  0.735350  0.728000  0.382700  1.0
  O  O1774  1  0.846050  0.772000  0.117300  1.0
  O  O1775  1  0.264650  0.272000  0.617300  1.0
  O  O1776  1  0.153950  0.228000  0.882700  1.0
  O  O1777  1  0.837820  0.719670  0.360890  1.0
  O  O1778  1  0.918380  0.780330  0.139110  1.0
  O  O1779  1  0.162180  0.280330  0.639110  1.0
  O  O1780  1  0.081620  0.219670  0.860890  1.0
  O  O1781  1  0.823500  0.591920  0.376480  1.0
  O  O1782  1  0.791900  0.908080  0.123520  1.0
  O  O1783  1  0.176500  0.408080  0.623520  1.0
  O  O1784  1  0.208100  0.091920  0.876480  1.0
  O  O1785  1  0.925100  0.534100  0.362300  1.0
  O  O1786  1  0.821500  0.965900  0.137700  1.0
  O  O1787  1  0.074900  0.465900  0.637700  1.0
  O  O1788  1  0.178500  0.034100  0.862300  1.0
  O  O1789  1  0.986600  0.530420  0.411380  1.0
  O  O1790  1  0.928400  0.969580  0.088620  1.0
  O  O1791  1  0.013400  0.469580  0.588620  1.0
  O  O1792  1  0.071600  0.030420  0.911380  1.0
  O  O1793  1  0.038200  0.432550  0.430250  1.0
  O  O1794  1  0.901000  0.067450  0.069750  1.0
  O  O1795  1  0.961800  0.567450  0.569750  1.0
  O  O1796  1  0.099000  0.932550  0.930250  1.0
  O  O1797  1  0.117350  0.474110  0.349990  1.0
  O  O1798  1  0.941450  0.025890  0.150010  1.0
  O  O1799  1  0.882650  0.525890  0.650010  1.0
  O  O1800  1  0.058550  0.974110  0.849990  1.0
  O  O1801  1  0.135070  0.440350  0.304310  1.0
  O  O1802  1  0.879730  0.059650  0.195690  1.0
  O  O1803  1  0.864930  0.559650  0.695690  1.0
  O  O1804  1  0.120270  0.940350  0.804310  1.0
  O  O1805  1  0.998850  0.619040  0.343460  1.0
  O  O1806  1  0.961350  0.880960  0.156540  1.0
  O  O1807  1  0.001150  0.380960  0.656540  1.0
  O  O1808  1  0.038650  0.119040  0.843460  1.0
  O  O1809  1  0.064090  0.581750  0.299670  1.0
  O  O1810  1  0.945510  0.918250  0.200330  1.0
  O  O1811  1  0.935910  0.418250  0.700330  1.0
  O  O1812  1  0.054490  0.081750  0.799670  1.0
