
#######################################################################
#
#                 Cambridge Crystallographic Data Centre
#                                CCDC 
#
#######################################################################
#
# If this CIF has been generated from an entry in the Cambridge 
# Structural Database, then it will include bibliographic, chemical, 
# crystal, experimental, refinement or atomic coordinate data resulting 
# from the CCDC's data processing and validation procedures.
#
#######################################################################

data_BOQFAQ
_chemical_formula_moiety         
'C250 H312 Cd18 Cl10 Lu6 N18 O88,7(C2 H6 O1),4.5(C1 H4 O1),2(H2 O1)'
_chemical_name_systematic        
"nonakis(\m-2,2'-(Hexane-1,6-diylbis(nitrilomethylylidene))bis(6-methoxyphenolato))-hexacosakis(\m-acetato)-tetrakis(\m-chloro)-hexachloro-octadeca-cadmium-hexa-lutetium ethanol methanol solvate dihydrate"
_symmetry_cell_setting           monoclinic
_symmetry_space_group_name_H-M   'C 2/c'
_symmetry_Int_Tables_number      15
_space_group_name_Hall           '-C 2yn'
loop_
_symmetry_equiv_pos_site_id
_symmetry_equiv_pos_as_xyz
1 x,y,z
2 -x,y,1/2-z
3 1/2+x,1/2+y,z
4 1/2-x,1/2+y,1/2-z
5 -x,-y,-z
6 x,-y,1/2+z
7 1/2-x,1/2-y,-z
8 1/2+x,1/2-y,1/2+z
_cell_length_a                   41.871(8)
_cell_length_b                   22.803(5)
_cell_length_c                   47.322(10)
_cell_angle_alpha                90
_cell_angle_beta                 112.91(3)
_cell_angle_gamma                90
_cell_volume                     41618.2
_exptl_crystal_colour            yellow
_exptl_crystal_description       Block
_chemical_melting_point          'decomposes above 174 deg.C'
_cell_formula_units_Z            4
loop_
_atom_site_label
_atom_site_type_symbol
_atom_site_fract_x
_atom_site_fract_y
_atom_site_fract_z
Lu1 Lu 0.352914(10) 0.880347(17) 0.230335(10)
Lu2 Lu 0.385185(10) 0.478867(19) 0.261845(9)
Lu3 Lu 0.531755(12) 0.737470(19) 0.415181(9)
Cd1 Cd 0.239469(18) 0.69107(3) 0.197239(17)
Cd2 Cd 0.339705(18) 0.60226(3) 0.210117(16)
Cd3 Cd 0.447351(19) 0.41880(3) 0.333070(16)
Cd4 Cd 0.43592(2) 0.45271(4) 0.402070(16)
Cd5 Cd 0.504758(18) 0.58729(3) 0.384472(15)
Cd6 Cd 0.515784(19) 0.89404(3) 0.406183(17)
Cd7 Cd 0.43293(2) 0.94314(4) 0.400308(18)
Cd8 Cd 0.429256(18) 0.89834(3) 0.304192(16)
Cd9 Cd 0.289724(17) 0.78955(3) 0.172686(16)
Cl1 Cl 0.38122(12) 0.5934(2) 0.26766(10)
Cl2 Cl 0.39302(11) 0.80747(18) 0.28147(11)
Cl3 Cl 0.43072(9) 0.96192(17) 0.45091(7)
Cl4 Cl 0.38657(8) 0.39323(14) 0.40007(6)
Cl5 Cl 0.18624(7) 0.74090(11) 0.19384(7)
N1 N 0.6240(2) 0.4055(4) 0.27998(19)
N2 N 0.5451(2) 0.5216(3) 0.41397(17)
N3 N 0.2810(3) 0.7930(4) 0.1226(2)
N4 N 0.4439(2) 0.9601(4) 0.0936(2)
N5 N 0.4445(2) 0.9953(3) 0.31112(19)
N6 N 0.64333(19) 0.9763(3) 0.29313(19)
N7 N 0.3041(2) 0.5668(3) 0.16347(17)
N8 N 0.4058(2) 0.7225(4) 0.05238(18)
N9 N 0.4889(3) 0.3535(5) 0.3342(2)
O1 O 0.58480(19) 0.3256(3) 0.16805(16)
O2 O 0.59329(17) 0.3937(3) 0.21499(15)
O3 O 0.53291(17) 0.6426(3) 0.42845(14)
O4 O 0.5376(2) 0.7169(3) 0.47036(16)
O5 O 0.21428(17) 0.6237(3) 0.15484(17)
O6 O 0.24948(17) 0.7186(3) 0.15576(14)
O7 O 0.51707(17) 0.9742(3) 0.10166(16)
O8 O 0.5694(2) 1.0447(4) 0.1117(2)
O9 O 0.31292(16) 0.9501(3) 0.24326(16)
O10 O 0.37886(16) 0.9401(3) 0.27034(14)
O11 O 0.69309(16) 0.8865(3) 0.31454(15)
O12 O 0.75958(17) 0.8600(3) 0.34184(16)
O13 O 0.33189(17) 0.4204(3) 0.25717(16)
O14 O 0.33536(16) 0.5063(3) 0.22341(14)
O15 O 0.44760(17) 0.8234(3) 0.06270(15)
O16 O 0.46357(18) 0.9173(3) 0.03798(16)
O17 O 0.4877(2) 0.4131(4) 0.44282(17)
O18 O 0.47015(19) 0.4026(3) 0.38398(15)
O19 O 0.41359(16) 0.5129(3) 0.23467(15)
O20 O 0.38971(16) 0.5863(3) 0.20173(14)
O21 O 0.2839(2) 0.6154(4) 0.2161(2)
O22 O 0.24933(18) 0.6344(3) 0.23919(17)
O23 O 0.33634(17) 0.7001(3) 0.19146(17)
O24 O 0.34741(16) 0.7920(3) 0.20329(15)
O25 O 0.27883(17) 0.7661(3) 0.21459(15)
O26 O 0.31500(18) 0.8311(3) 0.24569(15)
O27 O 0.40343(16) 0.8769(3) 0.22565(15)
O28 O 0.45259(17) 0.8827(3) 0.26746(15)
O29 O 0.3770(2) 0.9226(4) 0.37319(18)
O30 O 0.4074(2) 0.9173(4) 0.34457(18)
O31 O 0.48087(17) 0.8740(3) 0.34485(15)
O32 O 0.5141(2) 0.8124(3) 0.37782(15)
O33 O 0.46645(18) 0.8612(3) 0.41063(16)
O34 O 0.4837(2) 0.7694(3) 0.42319(17)
O35 O 0.55535(19) 0.7093(3) 0.38270(15)
O36 O 0.54028(17) 0.6219(3) 0.36089(14)
O37 O 0.4842(2) 0.6923(4) 0.37648(19)
O38 O 0.4482(2) 0.6267(5) 0.3623(2)
O39 O 0.4709(2) 0.5425(3) 0.41138(19)
O40 O 0.4314(2) 0.5304(4) 0.43025(18)
O41 O 0.41205(18) 0.4706(3) 0.34999(15)
O42 O 0.37233(18) 0.4926(3) 0.30431(14)
O43 O 0.48125(18) 0.5199(3) 0.34346(15)
O44 O 0.44071(17) 0.4952(3) 0.29967(14)
C1 C 0.5793(3) 0.2880(5) 0.1423(3)
H1 H 0.5950 0.2553 0.1486
H2 H 0.5834 0.3096 0.1266
H3 H 0.5559 0.2738 0.1343
C2 C 0.5956(3) 0.2985(5) 0.1961(3)
C3 C 0.6014(4) 0.2398(6) 0.2015(3)
H4 H 0.5972 0.2147 0.1850
C4 C 0.6133(4) 0.2164(7) 0.2310(3)
H5 H 0.6160 0.1761 0.2338
C5 C 0.6208(4) 0.2518(6) 0.2551(3)
H6 H 0.6302 0.2365 0.2749
C6 C 0.6143(3) 0.3147(5) 0.2505(3)
C7 C 0.6008(3) 0.3372(4) 0.2211(2)
C8 C 0.6240(3) 0.3495(5) 0.2782(3)
H7 H 0.6309 0.3290 0.2966
C9 C 0.6333(3) 0.4279(5) 0.3118(2)
H8 H 0.6387 0.4693 0.3124
H9 H 0.6540 0.4077 0.3255
C10 C 0.6047(3) 0.4191(5) 0.3230(2)
H10 H 0.5830 0.4316 0.3071
H11 H 0.6028 0.3777 0.3266
C11 C 0.6104(3) 0.4524(5) 0.3518(2)
H12 H 0.6113 0.4941 0.3480
H13 H 0.6326 0.4412 0.3675
C12 C 0.5816(3) 0.4406(5) 0.3634(3)
H14 H 0.5595 0.4397 0.3460
H15 H 0.5853 0.4023 0.3730
C13 C 0.5799(3) 0.4861(5) 0.3861(2)
H16 H 0.5748 0.5241 0.3762
H17 H 0.6023 0.4886 0.4031
C14 C 0.5524(3) 0.4707(4) 0.3982(2)
H18 H 0.5313 0.4588 0.3813
H19 H 0.5603 0.4380 0.4123
C15 C 0.5596(3) 0.5199(5) 0.4433(2)
H20 H 0.5713 0.4855 0.4518
C16 C 0.5598(2) 0.5656(5) 0.4650(2)
C17 C 0.5755(3) 0.5495(5) 0.4962(2)
H21 H 0.5839 0.5115 0.5014
C18 C 0.5785(3) 0.5893(5) 0.5193(3)
H22 H 0.5890 0.5785 0.5399
C19 C 0.5657(3) 0.6444(6) 0.5113(2)
H23 H 0.5669 0.6709 0.5267
C20 C 0.5508(3) 0.6618(5) 0.4810(2)
C21 C 0.5470(3) 0.6220(4) 0.4568(2)
C22 C 0.5306(3) 0.7547(5) 0.4918(3)
H24 H 0.5356 0.7341 0.5107
H25 H 0.5067 0.7662 0.4833
H26 H 0.5450 0.7890 0.4956
C23 C 0.1958(3) 0.5720(5) 0.1556(3)
H27 H 0.2027 0.5406 0.1457
H28 H 0.1713 0.5789 0.1452
H29 H 0.2007 0.5614 0.1766
C24 C 0.2163(2) 0.6387(5) 0.1271(2)
C25 C 0.2018(3) 0.6083(5) 0.1007(3)
H30 H 0.1891 0.5744 0.1001
C26 C 0.2058(3) 0.6274(5) 0.0749(3)
H31 H 0.1963 0.6060 0.0568
C27 C 0.2236(3) 0.6781(5) 0.0756(3)
H32 H 0.2253 0.6910 0.0575
C28 C 0.2399(3) 0.7122(5) 0.1030(2)
C29 C 0.2361(2) 0.6923(4) 0.1298(2)
C30 C 0.2604(3) 0.7604(5) 0.1007(3)
H33 H 0.2587 0.7695 0.0810
C31 C 0.3016(4) 0.8368(6) 0.1144(3)
H34 H 0.3012 0.8738 0.1243
H35 H 0.2920 0.8429 0.0923
C32 C 0.3384(5) 0.8146(7) 0.1247(4)
H36 H 0.3400 0.7797 0.1136
H37 H 0.3486 0.8069 0.1466
C33 C 0.3554(6) 0.8703(11) 0.1157(6)
H38 H 0.3383 0.8880 0.0978
H39 H 0.3633 0.8985 0.1320
C34 C 0.3748(5) 0.8777(9) 0.1052(5)
H40 H 0.3597 0.9030 0.0894
H41 H 0.3755 0.8397 0.0966
C35 C 0.4899(7) 0.4106(12) 0.2538(6)
H42 H 0.4722 0.3838 0.2410
H43 H 0.4797 0.4496 0.2504
C36 C 0.4129(5) 0.9032(8) 0.1171(4)
H44 H 0.4178 0.9295 0.1343
H45 H 0.4303 0.8724 0.1224
C37 C 0.4102(3) 0.9343(7) 0.0892(4)
H46 H 0.3929 0.9650 0.0848
H47 H 0.4030 0.9074 0.0720
C38 C 0.4479(3) 1.0171(5) 0.0952(3)
H48 H 0.4280 1.0385 0.0926
C39 C 0.4785(3) 1.0513(5) 0.1005(3)
C40 C 0.4742(4) 1.1132(7) 0.1027(4)
H49 H 0.4527 1.1285 0.1002
C41 C 0.5026(5) 1.1508(8) 0.1085(4)
H50 H 0.4998 1.1909 0.1104
C42 C 0.5342(4) 1.1293(6) 0.1115(4)
H51 H 0.5527 1.1547 0.1150
C43 C 0.5385(3) 1.0709(5) 0.1094(3)
C44 C 0.5106(3) 1.0296(5) 0.1031(2)
C45 C 0.5949(5) 1.0822(8) 0.1075(5)
H52 H 0.5970 1.1179 0.1188
H53 H 0.5879 1.0910 0.0861
H54 H 0.6169 1.0624 0.1147
C46 C 0.2760(3) 0.9464(5) 0.2352(3)
H55 H 0.2691 0.9756 0.2464
H56 H 0.2703 0.9081 0.2404
H57 H 0.2640 0.9530 0.2136
C47 C 0.3297(2) 0.9980(4) 0.2611(2)
C48 C 0.3133(3) 1.0476(5) 0.2645(2)
H58 H 0.2894 1.0513 0.2545
C49 C 0.3332(3) 1.0930(5) 0.2832(3)
H59 H 0.3226 1.1272 0.2858
C50 C 0.3680(3) 1.0866(4) 0.2973(2)
H60 H 0.3807 1.1172 0.3095
C51 C 0.3861(3) 1.0357(4) 0.2945(2)
C52 C 0.3658(2) 0.9906(4) 0.2754(2)
C53 C 0.4233(2) 1.0367(5) 0.3088(2)
H61 H 0.4331 1.0722 0.3176
C54 C 0.4818(2) 1.0089(5) 0.3241(2)
H62 H 0.4939 0.9799 0.3396
H63 H 0.4854 1.0469 0.3341
C55 C 0.4972(2) 1.0095(4) 0.2998(2)
H64 H 0.4898 0.9747 0.2871
H65 H 0.4887 1.0435 0.2867
C56 C 0.5364(2) 1.0113(5) 0.3143(2)
H66 H 0.5447 0.9761 0.3265
H67 H 0.5436 1.0447 0.3280
C57 C 0.5535(2) 1.0156(4) 0.2912(2)
H68 H 0.5507 1.0551 0.2831
H69 H 0.5417 0.9892 0.2742
C58 C 0.5920(2) 1.0004(4) 0.3051(2)
H70 H 0.6036 1.0258 0.3225
H71 H 0.5947 0.9603 0.3126
C59 C 0.6094(2) 1.0068(4) 0.2823(2)
H72 H 0.5944 0.9906 0.2627
H73 H 0.6128 1.0480 0.2794
C60 C 0.6685(3) 1.0081(5) 0.3101(3)
H74 H 0.6635 1.0467 0.3131
C61 C 0.7046(3) 0.9889(5) 0.3255(3)
C62 C 0.7294(3) 1.0332(6) 0.3388(3)
H75 H 0.7220 1.0719 0.3378
C63 C 0.7646(3) 1.0206(6) 0.3534(3)
H76 H 0.7808 1.0505 0.3614
C64 C 0.7749(3) 0.9624(5) 0.3556(3)
H77 H 0.7982 0.9531 0.3660
C65 C 0.7514(2) 0.9180(5) 0.3426(2)
C66 C 0.7154(3) 0.9309(4) 0.3270(2)
C67 C 0.7953(3) 0.8441(5) 0.3569(3)
H78 H 0.8096 0.8760 0.3556
H79 H 0.7999 0.8101 0.3472
H80 H 0.8003 0.8355 0.3781
C68 C 0.3265(3) 0.3822(5) 0.2791(3)
H81 H 0.3021 0.3766 0.2736
H82 H 0.3365 0.3996 0.2992
H83 H 0.3373 0.3451 0.2793
C69 C 0.3049(2) 0.4236(4) 0.2284(2)
C70 C 0.2774(3) 0.3859(5) 0.2179(3)
H84 H 0.2756 0.3558 0.2305
C71 C 0.2523(3) 0.3926(5) 0.1886(3)
H85 H 0.2338 0.3665 0.1812
C72 C 0.2551(3) 0.4383(5) 0.1705(2)
H86 H 0.2382 0.4425 0.1508
C73 C 0.2826(2) 0.4787(4) 0.1810(2)
C74 C 0.3082(2) 0.4716(4) 0.2111(2)
C75 C 0.2835(2) 0.5215(4) 0.1594(2)
H87 H 0.2672 0.5165 0.1396
C76 C 0.3004(2) 0.6027(4) 0.1369(2)
H88 H 0.3003 0.6437 0.1423
H89 H 0.2783 0.5942 0.1205
C77 C 0.3288(2) 0.5930(5) 0.1254(2)
H90 H 0.3253 0.5554 0.1151
H91 H 0.3509 0.5918 0.1427
C78 C 0.3299(3) 0.6403(5) 0.1035(2)
H92 H 0.3360 0.6771 0.1146
H93 H 0.3069 0.6447 0.0876
C79 C 0.3554(3) 0.6285(4) 0.0884(2)
H94 H 0.3457 0.5988 0.0727
H95 H 0.3766 0.6128 0.1037
C80 C 0.3645(3) 0.6832(5) 0.0736(2)
H96 H 0.3434 0.6997 0.0585
H97 H 0.3751 0.7126 0.0893
C81 C 0.3892(3) 0.6682(5) 0.0583(2)
H98 H 0.4070 0.6418 0.0713
H99 H 0.3766 0.6484 0.0390
C82 C 0.3875(3) 0.7511(4) 0.0288(2)
H100 H 0.3658 0.7356 0.0174
C83 C 0.3962(3) 0.8057(4) 0.0171(2)
C84 C 0.3747(3) 0.8237(5) -0.0128(3)
H101 H 0.3555 0.8014 -0.0244
C85 C 0.3824(3) 0.8744(5) -0.0247(3)
H102 H 0.3671 0.8875 -0.0438
C86 C 0.4120(3) 0.9061(5) -0.0089(2)
H103 H 0.4176 0.9385 -0.0180
C87 C 0.4336(3) 0.8895(5) 0.0205(2)
C88 C 0.4267(3) 0.8382(4) 0.0342(2)
C89 C 0.4710(3) 0.9721(5) 0.0267(3)
H104 H 0.4711 0.9663 0.0066
H105 H 0.4933 0.9860 0.0403
H106 H 0.4536 1.0004 0.0256
C90 C 0.5004(3) 0.4307(6) 0.4742(3)
H107 H 0.5137 0.3994 0.4869
H108 H 0.4811 0.4398 0.4797
H109 H 0.5148 0.4647 0.4771
C91 C 0.5076(3) 0.3762(6) 0.4339(3)
C92 C 0.5361(4) 0.3456(7) 0.4534(3)
H110 H 0.5435 0.3498 0.4745
C93 C 0.5534(4) 0.3091(7) 0.4413(4)
H111 H 0.5720 0.2874 0.4544
C94 C 0.5438(4) 0.3039(7) 0.4101(4)
H112 H 0.5563 0.2792 0.4025
C95 C 0.5155(3) 0.3352(6) 0.3897(3)
C96 C 0.4967(3) 0.3709(5) 0.4007(3)
C97 C 0.5100(3) 0.3275(6) 0.3580(3)
H113 H 0.5239 0.2993 0.3543
C98 C 0.4897(4) 0.3408(7) 0.3037(3)
H114 H 0.5063 0.3098 0.3059
H115 H 0.4670 0.3268 0.2901
C99 C 0.4990(4) 0.3927(8) 0.2901(3)
H116 H 0.5241 0.3945 0.2998
H117 H 0.4907 0.4257 0.2983
C100 C 0.4482(3) 0.5590(5) 0.2112(2)
H118 H 0.4474 0.5942 0.1998
H119 H 0.4511 0.5258 0.2000
H120 H 0.4672 0.5611 0.2307
C101 C 0.4139(2) 0.5525(4) 0.2161(2)
C102 C 0.2915(3) 0.5616(5) 0.2623(3)
H121 H 0.3110 0.5445 0.2595
H122 H 0.2748 0.5316 0.2609
H123 H 0.2991 0.5799 0.2821
C103 C 0.2750(3) 0.6069(5) 0.2378(3)
C104 C 0.3956(3) 0.7266(5) 0.2213(3)
H124 H 0.4078 0.7624 0.2294
H125 H 0.4046 0.7093 0.2074
H126 H 0.3987 0.6998 0.2378
C105 C 0.3578(3) 0.7395(4) 0.2045(2)
C106 C 0.2848(4) 0.7690(7) 0.2663(3)
H127 H 0.2979 0.7902 0.2847
H128 H 0.2901 0.7280 0.2695
H129 H 0.2604 0.7748 0.2612
C107 C 0.2939(3) 0.7907(5) 0.2406(2)
C108 C 0.4557(2) 0.8528(5) 0.2205(2)
H130 H 0.4398 0.8464 0.1997
H131 H 0.4676 0.8169 0.2288
H132 H 0.4722 0.8824 0.2210
C109 C 0.4358(2) 0.8726(4) 0.2395(2)
C110 C 0.3461(3) 0.8938(7) 0.3215(3)
H133 H 0.3463 0.9092 0.3027
H134 H 0.3263 0.9088 0.3247
H135 H 0.3448 0.8517 0.3203
C111 C 0.3788(3) 0.9118(6) 0.3479(3)
C112 C 0.4918(3) 0.7823(5) 0.3256(3)
H136 H 0.5049 0.7477 0.3344
H137 H 0.5004 0.7997 0.3115
H138 H 0.4678 0.7722 0.3150
C113 C 0.4952(3) 0.8247(4) 0.3503(2)
C114 C 0.4309(4) 0.7988(7) 0.4263(4)
H139 H 0.4171 0.8338 0.4225
H140 H 0.4380 0.7880 0.4475
H141 H 0.4175 0.7676 0.4136
C115 C 0.4627(3) 0.8100(5) 0.4192(3)
C116 C 0.5726(3) 0.6843(5) 0.3422(2)
H142 H 0.5708 0.6511 0.3292
H143 H 0.5966 0.6929 0.3539
H144 H 0.5617 0.7176 0.3298
C117 C 0.5548(2) 0.6708(4) 0.3635(2)
C118 C 0.4282(6) 0.7290(10) 0.3579(5)
H145 H 0.4074 0.7123 0.3430
H146 H 0.4340 0.7641 0.3497
H147 H 0.4247 0.7382 0.3762
C119 C 0.4605(4) 0.6809(6) 0.3661(3)
C120 C 0.4579(3) 0.6241(5) 0.4370(3)
H148 H 0.4818 0.6305 0.4500
H149 H 0.4437 0.6310 0.4484
H150 H 0.4513 0.6504 0.4198
C121 C 0.4533(3) 0.5625(5) 0.4257(3)
C122 C 0.3639(4) 0.5268(7) 0.3488(3)
H151 H 0.3430 0.5431 0.3338
H152 H 0.3780 0.5578 0.3612
H153 H 0.3579 0.5000 0.3617
C123 C 0.3840(3) 0.4942(5) 0.3327(2)
C124 C 0.4677(3) 0.5892(5) 0.3018(2)
H154 H 0.4518 0.5907 0.2807
H155 H 0.4910 0.5915 0.3029
H156 H 0.4633 0.6216 0.3127
C125 C 0.4629(3) 0.5324(5) 0.3160(2)
N9A N 0.5111(3) 0.3535(5) 0.1658(2)
O17A O 0.5123(2) 0.4131(4) 0.05718(17)
O18A O 0.52985(19) 0.4026(3) 0.11602(15)
C35A C 0.5101(7) 0.4106(12) 0.2462(6)
H42A H 0.5278 0.3838 0.2590
H43A H 0.5203 0.4496 0.2496
C90A C 0.4996(3) 0.4307(6) 0.0258(3)
H107A H 0.4863 0.3994 0.0131
H108A H 0.5189 0.4398 0.0203
H109A H 0.4852 0.4647 0.0229
C91A C 0.4924(3) 0.3762(6) 0.0661(3)
C92A C 0.4639(4) 0.3456(7) 0.0466(3)
H110A H 0.4565 0.3498 0.0255
C93A C 0.4466(4) 0.3091(7) 0.0587(4)
H111A H 0.4280 0.2874 0.0456
C94A C 0.4562(4) 0.3039(7) 0.0899(4)
H112A H 0.4437 0.2792 0.0975
C95A C 0.4845(3) 0.3352(6) 0.1103(3)
C96A C 0.5033(3) 0.3709(5) 0.0993(3)
C97A C 0.4900(3) 0.3275(6) 0.1420(3)
H113A H 0.4761 0.2993 0.1457
C98A C 0.5103(4) 0.3408(7) 0.1963(3)
H114A H 0.4937 0.3098 0.1941
H115A H 0.5330 0.3268 0.2099
C99A C 0.5010(4) 0.3927(8) 0.2099(3)
H116A H 0.4759 0.3945 0.2002
H117A H 0.5093 0.4257 0.2017
Lu1A Lu 0.647086(10) 0.880347(17) 0.269665(10)
Lu2A Lu 0.614815(10) 0.478867(19) 0.238155(9)
Lu3A Lu 0.468245(12) 0.737470(19) 0.084819(9)
Cd1A Cd 0.760531(18) 0.69107(3) 0.302761(17)
Cd2A Cd 0.660295(18) 0.60226(3) 0.289883(16)
Cd3A Cd 0.552649(19) 0.41880(3) 0.166930(16)
Cd4A Cd 0.56408(2) 0.45271(4) 0.097930(16)
Cd5A Cd 0.495242(18) 0.58729(3) 0.115528(15)
Cd6A Cd 0.484216(19) 0.89404(3) 0.093817(17)
Cd7A Cd 0.56707(2) 0.94314(4) 0.099692(18)
Cd8A Cd 0.570744(18) 0.89834(3) 0.195808(16)
Cd9A Cd 0.710276(17) 0.78955(3) 0.327314(16)
Cl1A Cl 0.61878(12) 0.5934(2) 0.23234(10)
Cl2A Cl 0.60698(11) 0.80747(18) 0.21853(11)
Cl3A Cl 0.56928(9) 0.96192(17) 0.04909(7)
Cl4A Cl 0.61343(8) 0.39323(14) 0.09993(6)
Cl5A Cl 0.81376(7) 0.74090(11) 0.30616(7)
N1A N 0.3760(2) 0.4055(4) 0.22002(19)
N2A N 0.4549(2) 0.5216(3) 0.08603(17)
N3A N 0.7190(3) 0.7930(4) 0.3774(2)
N4A N 0.5561(2) 0.9601(4) 0.4064(2)
N5A N 0.5555(2) 0.9953(3) 0.18888(19)
N6A N 0.35667(19) 0.9763(3) 0.20687(19)
N7A N 0.6959(2) 0.5668(3) 0.33653(17)
N8A N 0.5942(2) 0.7225(4) 0.44762(18)
O1A O 0.41520(19) 0.3256(3) 0.33195(16)
O2A O 0.40671(17) 0.3937(3) 0.28501(15)
O3A O 0.46709(17) 0.6426(3) 0.07155(14)
O4A O 0.4624(2) 0.7169(3) 0.02964(16)
O5A O 0.78572(17) 0.6237(3) 0.34516(17)
O6A O 0.75052(17) 0.7186(3) 0.34424(14)
O7A O 0.48293(17) 0.9742(3) 0.39834(16)
O8A O 0.4306(2) 1.0447(4) 0.3883(2)
O9A O 0.68708(16) 0.9501(3) 0.25674(16)
O10A O 0.62114(16) 0.9401(3) 0.22966(14)
O11A O 0.30691(16) 0.8865(3) 0.18546(15)
O12A O 0.24042(17) 0.8600(3) 0.15816(16)
O13A O 0.66811(17) 0.4204(3) 0.24283(16)
O14A O 0.66464(16) 0.5063(3) 0.27659(14)
O15A O 0.55240(17) 0.8234(3) 0.43730(15)
O16A O 0.53643(18) 0.9173(3) 0.46202(16)
O19A O 0.58641(16) 0.5129(3) 0.26533(15)
O20A O 0.61029(16) 0.5863(3) 0.29827(14)
O21A O 0.7161(2) 0.6154(4) 0.2839(2)
O22A O 0.75067(18) 0.6344(3) 0.26081(17)
O23A O 0.66366(17) 0.7001(3) 0.30854(17)
O24A O 0.65259(16) 0.7920(3) 0.29671(15)
O25A O 0.72117(17) 0.7661(3) 0.28541(15)
O26A O 0.68500(18) 0.8311(3) 0.25431(15)
O27A O 0.59657(16) 0.8769(3) 0.27435(15)
O28A O 0.54741(17) 0.8827(3) 0.23254(15)
O29A O 0.6230(2) 0.9226(4) 0.12681(18)
O30A O 0.5926(2) 0.9173(4) 0.15543(18)
O31A O 0.51913(17) 0.8740(3) 0.15515(15)
O32A O 0.4859(2) 0.8124(3) 0.12218(15)
O33A O 0.53355(18) 0.8612(3) 0.08937(16)
O34A O 0.5163(2) 0.7694(3) 0.07681(17)
O35A O 0.44465(19) 0.7093(3) 0.11730(15)
O36A O 0.45972(17) 0.6219(3) 0.13911(14)
O37A O 0.5158(2) 0.6923(4) 0.12352(19)
O38A O 0.5518(2) 0.6267(5) 0.1377(2)
O39A O 0.5291(2) 0.5425(3) 0.08862(19)
O40A O 0.5686(2) 0.5304(4) 0.06975(18)
O41A O 0.58795(18) 0.4706(3) 0.15001(15)
O42A O 0.62767(18) 0.4926(3) 0.19569(14)
O43A O 0.51875(18) 0.5199(3) 0.15654(15)
O44A O 0.55929(17) 0.4952(3) 0.20033(14)
C1A C 0.4207(3) 0.2880(5) 0.3577(3)
H1A H 0.4050 0.2553 0.3514
H2A H 0.4166 0.3096 0.3734
H3A H 0.4441 0.2738 0.3657
C2A C 0.4044(3) 0.2985(5) 0.3039(3)
C3A C 0.3986(4) 0.2398(6) 0.2985(3)
H4A H 0.4028 0.2147 0.3150
C4A C 0.3867(4) 0.2164(7) 0.2690(3)
H5A H 0.3840 0.1761 0.2662
C5A C 0.3792(4) 0.2518(6) 0.2449(3)
H6A H 0.3698 0.2365 0.2251
C6A C 0.3857(3) 0.3147(5) 0.2495(3)
C7A C 0.3992(3) 0.3372(4) 0.2789(2)
C8A C 0.3760(3) 0.3495(5) 0.2218(3)
H7A H 0.3691 0.3290 0.2034
C9A C 0.3667(3) 0.4279(5) 0.1882(2)
H8A H 0.3613 0.4693 0.1876
H9A H 0.3460 0.4077 0.1745
C10A C 0.3953(3) 0.4191(5) 0.1770(2)
H10A H 0.4170 0.4316 0.1929
H11A H 0.3972 0.3777 0.1734
C11A C 0.3896(3) 0.4524(5) 0.1482(2)
H12A H 0.3887 0.4941 0.1520
H13A H 0.3674 0.4412 0.1325
C12A C 0.4184(3) 0.4406(5) 0.1366(3)
H14A H 0.4405 0.4397 0.1540
H15A H 0.4147 0.4023 0.1270
C13A C 0.4201(3) 0.4861(5) 0.1139(2)
H16A H 0.4252 0.5241 0.1238
H17A H 0.3977 0.4886 0.0969
C14A C 0.4476(3) 0.4707(4) 0.1018(2)
H18A H 0.4687 0.4588 0.1187
H19A H 0.4397 0.4380 0.0877
C15A C 0.4404(3) 0.5199(5) 0.0567(2)
H20A H 0.4287 0.4855 0.0482
C16A C 0.4402(2) 0.5656(5) 0.0350(2)
C17A C 0.4245(3) 0.5495(5) 0.0038(2)
H21A H 0.4161 0.5115 -0.0014
C18A C 0.4215(3) 0.5893(5) -0.0193(3)
H22A H 0.4110 0.5785 -0.0399
C19A C 0.4343(3) 0.6444(6) -0.0113(2)
H23A H 0.4331 0.6709 -0.0267
C20A C 0.4492(3) 0.6618(5) 0.0190(2)
C21A C 0.4530(3) 0.6220(4) 0.0432(2)
C22A C 0.4694(3) 0.7547(5) 0.0082(3)
H24A H 0.4644 0.7341 -0.0107
H25A H 0.4933 0.7662 0.0167
H26A H 0.4550 0.7890 0.0044
C23A C 0.8042(3) 0.5720(5) 0.3444(3)
H27A H 0.7973 0.5406 0.3543
H28A H 0.8287 0.5789 0.3548
H29A H 0.7993 0.5614 0.3234
C24A C 0.7837(2) 0.6387(5) 0.3729(2)
C25A C 0.7982(3) 0.6083(5) 0.3993(3)
H30A H 0.8109 0.5744 0.3999
C26A C 0.7942(3) 0.6274(5) 0.4251(3)
H31A H 0.8037 0.6060 0.4432
C27A C 0.7764(3) 0.6781(5) 0.4244(3)
H32A H 0.7747 0.6910 0.4425
C28A C 0.7601(3) 0.7122(5) 0.3970(2)
C29A C 0.7639(2) 0.6923(4) 0.3702(2)
C30A C 0.7396(3) 0.7604(5) 0.3993(3)
H33A H 0.7413 0.7695 0.4190
C31A C 0.6984(4) 0.8368(6) 0.3856(3)
H34A H 0.6988 0.8738 0.3757
H35A H 0.7080 0.8429 0.4077
C32A C 0.6616(5) 0.8146(7) 0.3753(4)
H36A H 0.6600 0.7797 0.3864
H37A H 0.6514 0.8069 0.3534
C33A C 0.6446(6) 0.8703(11) 0.3843(6)
H38A H 0.6617 0.8880 0.4022
H39A H 0.6367 0.8985 0.3680
C34A C 0.6252(5) 0.8777(9) 0.3948(5)
H40A H 0.6403 0.9030 0.4106
H41A H 0.6245 0.8397 0.4034
C36A C 0.5871(5) 0.9032(8) 0.3829(4)
H44A H 0.5822 0.9295 0.3657
H45A H 0.5697 0.8724 0.3776
C37A C 0.5898(3) 0.9343(7) 0.4108(4)
H46A H 0.6071 0.9650 0.4152
H47A H 0.5970 0.9074 0.4280
C38A C 0.5521(3) 1.0171(5) 0.4048(3)
H48A H 0.5720 1.0385 0.4074
C39A C 0.5215(3) 1.0513(5) 0.3995(3)
C40A C 0.5258(4) 1.1132(7) 0.3973(4)
H49A H 0.5473 1.1285 0.3998
C41A C 0.4974(5) 1.1508(8) 0.3915(4)
H50A H 0.5002 1.1909 0.3896
C42A C 0.4658(4) 1.1293(6) 0.3885(4)
H51A H 0.4473 1.1547 0.3850
C43A C 0.4615(3) 1.0709(5) 0.3906(3)
C44A C 0.4894(3) 1.0296(5) 0.3969(2)
C45A C 0.4051(5) 1.0822(8) 0.3925(5)
H52A H 0.4030 1.1179 0.3812
H53A H 0.4121 1.0910 0.4139
H54A H 0.3831 1.0624 0.3853
C46A C 0.7240(3) 0.9464(5) 0.2648(3)
H55A H 0.7309 0.9756 0.2536
H56A H 0.7297 0.9081 0.2596
H57A H 0.7360 0.9530 0.2864
C47A C 0.6703(2) 0.9980(4) 0.2389(2)
C48A C 0.6867(3) 1.0476(5) 0.2355(2)
H58A H 0.7106 1.0513 0.2455
C49A C 0.6668(3) 1.0930(5) 0.2168(3)
H59A H 0.6774 1.1272 0.2142
C50A C 0.6320(3) 1.0866(4) 0.2027(2)
H60A H 0.6193 1.1172 0.1905
C51A C 0.6139(3) 1.0357(4) 0.2055(2)
C52A C 0.6342(2) 0.9906(4) 0.2246(2)
C53A C 0.5767(2) 1.0367(5) 0.1912(2)
H61A H 0.5669 1.0722 0.1824
C54A C 0.5182(2) 1.0089(5) 0.1759(2)
H62A H 0.5061 0.9799 0.1604
H63A H 0.5146 1.0469 0.1659
C55A C 0.5028(2) 1.0095(4) 0.2002(2)
H64A H 0.5102 0.9747 0.2129
H65A H 0.5113 1.0435 0.2133
C56A C 0.4636(2) 1.0113(5) 0.1857(2)
H66A H 0.4553 0.9761 0.1735
H67A H 0.4564 1.0447 0.1720
C57A C 0.4465(2) 1.0156(4) 0.2088(2)
H68A H 0.4493 1.0551 0.2169
H69A H 0.4583 0.9892 0.2258
C58A C 0.4080(2) 1.0004(4) 0.1949(2)
H70A H 0.3964 1.0258 0.1775
H71A H 0.4053 0.9603 0.1874
C59A C 0.3906(2) 1.0068(4) 0.2177(2)
H72A H 0.4056 0.9906 0.2373
H73A H 0.3872 1.0480 0.2206
C60A C 0.3315(3) 1.0081(5) 0.1899(3)
H74A H 0.3365 1.0467 0.1869
C61A C 0.2954(3) 0.9889(5) 0.1745(3)
C62A C 0.2706(3) 1.0332(6) 0.1612(3)
H75A H 0.2780 1.0719 0.1622
C63A C 0.2354(3) 1.0206(6) 0.1466(3)
H76A H 0.2192 1.0505 0.1386
C64A C 0.2251(3) 0.9624(5) 0.1444(3)
H77A H 0.2018 0.9531 0.1340
C65A C 0.2486(2) 0.9180(5) 0.1574(2)
C66A C 0.2846(3) 0.9309(4) 0.1730(2)
C67A C 0.2047(3) 0.8441(5) 0.1431(3)
H78A H 0.1904 0.8760 0.1444
H79A H 0.2001 0.8101 0.1528
H80A H 0.1997 0.8355 0.1219
C68A C 0.6735(3) 0.3822(5) 0.2209(3)
H81A H 0.6979 0.3766 0.2264
H82A H 0.6635 0.3996 0.2008
H83A H 0.6627 0.3451 0.2207
C69A C 0.6951(2) 0.4236(4) 0.2716(2)
C70A C 0.7226(3) 0.3859(5) 0.2821(3)
H84A H 0.7244 0.3558 0.2695
C71A C 0.7477(3) 0.3926(5) 0.3114(3)
H85A H 0.7662 0.3665 0.3188
C72A C 0.7449(3) 0.4383(5) 0.3295(2)
H86A H 0.7618 0.4425 0.3492
C73A C 0.7174(2) 0.4787(4) 0.3190(2)
C74A C 0.6918(2) 0.4716(4) 0.2889(2)
C75A C 0.7165(2) 0.5215(4) 0.3406(2)
H87A H 0.7328 0.5165 0.3604
C76A C 0.6996(2) 0.6027(4) 0.3631(2)
H88A H 0.6997 0.6437 0.3577
H89A H 0.7217 0.5942 0.3795
C77A C 0.6712(2) 0.5930(5) 0.3746(2)
H90A H 0.6747 0.5554 0.3849
H91A H 0.6491 0.5918 0.3573
C78A C 0.6701(3) 0.6403(5) 0.3965(2)
H92A H 0.6640 0.6771 0.3854
H93A H 0.6931 0.6447 0.4124
C79A C 0.6446(3) 0.6285(4) 0.4116(2)
H94A H 0.6543 0.5988 0.4273
H95A H 0.6234 0.6128 0.3963
C80A C 0.6355(3) 0.6832(5) 0.4264(2)
H96A H 0.6566 0.6997 0.4415
H97A H 0.6249 0.7126 0.4107
C81A C 0.6108(3) 0.6682(5) 0.4417(2)
H98A H 0.5930 0.6418 0.4287
H99A H 0.6234 0.6484 0.4610
C82A C 0.6125(3) 0.7511(4) 0.4712(2)
H100A H 0.6342 0.7356 0.4826
C83A C 0.6038(3) 0.8057(4) 0.4829(2)
C84A C 0.6253(3) 0.8237(5) 0.5128(3)
H101A H 0.6445 0.8014 0.5244
C85A C 0.6176(3) 0.8744(5) 0.5247(3)
H102A H 0.6329 0.8875 0.5438
C86A C 0.5880(3) 0.9061(5) 0.5089(2)
H103A H 0.5824 0.9385 0.5180
C87A C 0.5664(3) 0.8895(5) 0.4795(2)
C88A C 0.5733(3) 0.8382(4) 0.4658(2)
C89A C 0.5290(3) 0.9721(5) 0.4733(3)
H104A H 0.5289 0.9663 0.4934
H105A H 0.5067 0.9860 0.4597
H106A H 0.5464 1.0004 0.4744
C100A C 0.5518(3) 0.5590(5) 0.2888(2)
H118A H 0.5526 0.5942 0.3002
H119A H 0.5489 0.5258 0.3000
H120A H 0.5328 0.5611 0.2693
C101A C 0.5861(2) 0.5525(4) 0.2839(2)
C102A C 0.7085(3) 0.5616(5) 0.2377(3)
H121A H 0.6890 0.5445 0.2405
H122A H 0.7252 0.5316 0.2391
H123A H 0.7009 0.5799 0.2179
C103A C 0.7250(3) 0.6069(5) 0.2622(3)
C104A C 0.6044(3) 0.7266(5) 0.2787(3)
H124A H 0.5922 0.7624 0.2706
H125A H 0.5954 0.7093 0.2926
H126A H 0.6013 0.6998 0.2622
C105A C 0.6422(3) 0.7395(4) 0.2955(2)
C106A C 0.7152(4) 0.7690(7) 0.2337(3)
H127A H 0.7021 0.7902 0.2153
H128A H 0.7099 0.7280 0.2305
H129A H 0.7396 0.7748 0.2388
C107A C 0.7061(3) 0.7907(5) 0.2594(2)
C108A C 0.5443(2) 0.8528(5) 0.2795(2)
H130A H 0.5602 0.8464 0.3003
H131A H 0.5324 0.8169 0.2712
H132A H 0.5278 0.8824 0.2790
C109A C 0.5642(2) 0.8726(4) 0.2605(2)
C110A C 0.6539(3) 0.8938(7) 0.1785(3)
H133A H 0.6537 0.9092 0.1973
H134A H 0.6737 0.9088 0.1753
H135A H 0.6552 0.8517 0.1797
C111A C 0.6212(3) 0.9118(6) 0.1521(3)
C112A C 0.5082(3) 0.7823(5) 0.1744(3)
H136A H 0.4951 0.7477 0.1656
H137A H 0.4996 0.7997 0.1885
H138A H 0.5322 0.7722 0.1850
C113A C 0.5048(3) 0.8247(4) 0.1497(2)
C114A C 0.5691(4) 0.7988(7) 0.0737(4)
H139A H 0.5829 0.8338 0.0775
H140A H 0.5620 0.7880 0.0525
H141A H 0.5825 0.7676 0.0864
C115A C 0.5373(3) 0.8100(5) 0.0808(3)
C116A C 0.4274(3) 0.6843(5) 0.1578(2)
H142A H 0.4292 0.6511 0.1708
H143A H 0.4034 0.6929 0.1461
H144A H 0.4383 0.7176 0.1702
C117A C 0.4452(2) 0.6708(4) 0.1365(2)
C118A C 0.5718(6) 0.7290(10) 0.1421(5)
H145A H 0.5926 0.7123 0.1570
H146A H 0.5660 0.7641 0.1503
H147A H 0.5753 0.7382 0.1238
C119A C 0.5395(4) 0.6809(6) 0.1339(3)
C120A C 0.5421(3) 0.6241(5) 0.0630(3)
H148A H 0.5182 0.6305 0.0500
H149A H 0.5563 0.6310 0.0516
H150A H 0.5487 0.6504 0.0802
C121A C 0.5467(3) 0.5625(5) 0.0743(3)
C122A C 0.6361(4) 0.5268(7) 0.1512(3)
H151A H 0.6570 0.5431 0.1662
H152A H 0.6220 0.5578 0.1388
H153A H 0.6421 0.5000 0.1383
C123A C 0.6160(3) 0.4942(5) 0.1673(2)
C124A C 0.5323(3) 0.5892(5) 0.1982(2)
H154A H 0.5482 0.5907 0.2193
H155A H 0.5090 0.5915 0.1971
H156A H 0.5367 0.6216 0.1873
C125A C 0.5371(3) 0.5324(5) 0.1840(2)
O45 O 0.5647(7) 1.1290(12) 0.4934(6)
H157 H 0.5823 1.1484 0.4973
C126 C 0.5067(8) 1.1336(12) 0.4753(6)
H158 H 0.4873 1.1598 0.4678
H159 H 0.5070 1.1139 0.4934
H160 H 0.5049 1.1051 0.4598
C127 C 0.5364(8) 1.1644(14) 0.4823(7)
H161 H 0.5379 1.1939 0.4976
H162 H 0.5360 1.1844 0.4641
O46 O 0.3637(3) 1.1932(4) 0.3701(2)
H163 H 0.3453 1.1935 0.3551
C128 C 0.3962(3) 1.2323(6) 0.4215(3)
H164 H 0.3960 1.2581 0.4375
H165 H 0.4143 1.2440 0.4150
H166 H 0.4003 1.1928 0.4291
C129 C 0.3613(3) 1.2356(6) 0.3943(3)
H167 H 0.3570 1.2752 0.3863
H168 H 0.3427 1.2241 0.4006
O47 O 0.3867(5) 0.5698(9) 0.4548(5)
H169 H 0.3926 0.5930 0.4755
C130 C 0.3320(19) 0.518(6) 0.4491(14)
H170 H 0.3132 0.4943 0.4355
H171 H 0.3230 0.5480 0.4579
H172 H 0.3474 0.4931 0.4652
C131 C 0.3521(7) 0.5453(16) 0.4311(6)
H173 H 0.3567 0.5160 0.4183
H174 H 0.3386 0.5766 0.4180
O48 O 0.2424(4) 0.6579(8) 0.2948(4)
H175 H 0.2414 0.6409 0.2792
C132 C 0.2103(13) 0.719(2) 0.3185(8)
H176 H 0.1894 0.7408 0.3149
H177 H 0.2299 0.7450 0.3269
H178 H 0.2124 0.6880 0.3328
C133 C 0.2090(6) 0.6933(12) 0.2880(6)
H179 H 0.1890 0.6680 0.2790
H180 H 0.2073 0.7245 0.2735
O49 O 0.1766(4) 0.4565(7) 0.1099(3)
H181 H 0.1617 0.4444 0.1157
C134 C 0.1665(13) 0.3707(11) 0.0754(8)
H182 H 0.1608 0.3606 0.0543
H183 H 0.1490 0.3556 0.0818
H184 H 0.1886 0.3540 0.0878
C135 C 0.1684(7) 0.4387(10) 0.0789(6)
H185 H 0.1858 0.4538 0.0721
H186 H 0.1462 0.4554 0.0659
O50 O 0.3886(16) 0.713(2) 0.4715(13)
H187 H 0.4041 0.7317 0.4845
C136 C 0.3864(16) 0.651(2) 0.4842(13)
H188 H 0.3827 0.6550 0.5030
H189 H 0.4077 0.6304 0.4882
H190 H 0.3675 0.6299 0.4695
O51 O 0.417(2) 0.214(4) 0.1677(19)
H191 H 0.4244 0.1863 0.1797
C137 C 0.377(2) 0.217(6) 0.156(3)
H192 H 0.3710 0.2468 0.1671
H193 H 0.3684 0.1799 0.1589
H194 H 0.3680 0.2267 0.1345
O52 O 0.3007(11) 0.836(2) 0.0199(11)
H195 H 0.2983 0.8714 0.0209
C138 C 0.2650(12) 0.806(2) 0.0100(13)
H196 H 0.2500 0.8287 0.0166
H197 H 0.2679 0.7674 0.0192
H198 H 0.2550 0.8017 -0.0119
O53 O 0.3180(13) 1.037(2) 0.1036(12)
H199 H 0.3230 1.0548 0.0908
C139 C 0.2842(14) 1.001(3) 0.0871(14)
H200 H 0.2672 1.0131 0.0949
H201 H 0.2889 0.9603 0.0907
H202 H 0.2756 1.0091 0.0655
O54 O 0.1939(11) 1.1611(15) 0.1541(9)
H203 H 0.1808 1.1352 0.1540
C140 C 0.1955(14) 1.2644(16) 0.1373(13)
H204 H 0.1793 1.2951 0.1274
H205 H 0.2088 1.2551 0.1254
H206 H 0.2107 1.2772 0.1573
C141 C 0.1755(12) 1.209(2) 0.1403(12)
H207 H 0.1613 1.2204 0.1515
H208 H 0.1598 1.1980 0.1198
O55 O 0.1754(10) 0.8473(17) 0.0464(8)
O56 O 0.6409(17) 1.023(3) 0.4894(15)
O57 O 0.2873(19) 0.333(3) 0.1208(17)
O58 O 0.6474(19) 1.404(3) 0.4692(16)
O59 O 0.6152(18) 1.193(3) 0.4269(15)
loop_
_geom_bond_atom_site_label_1
_geom_bond_atom_site_label_2
_geom_bond_site_symmetry_1
_geom_bond_site_symmetry_2
Lu1 Cl2 1_555 1_555
Lu2 Cl1 1_555 1_555
Lu3 O3 1_555 1_555
Cd1 Cl5 1_555 1_555
Cd2 Cl1 1_555 1_555
Cd3 N9 1_555 1_555
Cd4 Cl4 1_555 1_555
Cd5 N2 1_555 1_555
Cd6 O31 1_555 1_555
Cd7 Cl3 1_555 1_555
Cd8 Cl2 1_555 1_555
Cd9 N3 1_555 1_555
N1 C8 1_555 1_555
N2 C14 1_555 1_555
N3 C30 1_555 1_555
N4 C37 1_555 1_555
N5 Cd8 1_555 1_555
N6 C59 1_555 1_555
N7 Cd2 1_555 1_555
N8 C81 1_555 1_555
N9 C97 1_555 1_555
O1 C1 1_555 1_555
O2 C7 1_555 1_555
O3 Cd5 1_555 1_555
O4 Lu3 1_555 1_555
O5 Cd1 1_555 1_555
O6 Cd1 1_555 1_555
O7 C44 1_555 1_555
O8 C43 1_555 1_555
O9 Lu1 1_555 1_555
O10 Lu1 1_555 1_555
O11 C66 1_555 1_555
O12 C65 1_555 1_555
O13 Lu2 1_555 1_555
O14 Lu2 1_555 1_555
O15 C88 1_555 1_555
O16 C87 1_555 1_555
O17 Cd4 1_555 1_555
O18 Cd3 1_555 1_555
O19 Lu2 1_555 1_555
O20 Cd2 1_555 1_555
O21 Cd1 1_555 1_555
O22 Cd1 1_555 1_555
O23 Cd2 1_555 1_555
O24 Lu1 1_555 1_555
O25 Cd1 1_555 1_555
O26 Lu1 1_555 1_555
O27 Lu1 1_555 1_555
O28 Cd8 1_555 1_555
O29 Cd7 1_555 1_555
O30 Cd7 1_555 1_555
O31 Cd8 1_555 1_555
O32 Lu3 1_555 1_555
O33 Cd6 1_555 1_555
O34 Lu3 1_555 1_555
O35 Lu3 1_555 1_555
O36 Cd5 1_555 1_555
O37 Lu3 1_555 1_555
O38 Cd5 1_555 1_555
O39 Cd4 1_555 1_555
O40 Cd4 1_555 1_555
O41 Cd3 1_555 1_555
O42 Lu2 1_555 1_555
O43 Cd3 1_555 1_555
O44 Lu2 1_555 1_555
C1 H1 1_555 1_555
H2 C1 1_555 1_555
H3 C1 1_555 1_555
C2 O1 1_555 1_555
C3 C2 1_555 1_555
H4 C3 1_555 1_555
C4 C3 1_555 1_555
H5 C4 1_555 1_555
C5 C4 1_555 1_555
H6 C5 1_555 1_555
C6 C5 1_555 1_555
C7 C2 1_555 1_555
C8 C6 1_555 1_555
H7 C8 1_555 1_555
C9 N1 1_555 1_555
H8 C9 1_555 1_555
H9 C9 1_555 1_555
C10 C9 1_555 1_555
H10 C10 1_555 1_555
H11 C10 1_555 1_555
C11 C10 1_555 1_555
H12 C11 1_555 1_555
H13 C11 1_555 1_555
C12 C11 1_555 1_555
H14 C12 1_555 1_555
H15 C12 1_555 1_555
C13 C12 1_555 1_555
H16 C13 1_555 1_555
H17 C13 1_555 1_555
C14 C13 1_555 1_555
H18 C14 1_555 1_555
H19 C14 1_555 1_555
C15 N2 1_555 1_555
H20 C15 1_555 1_555
C16 C15 1_555 1_555
C17 C16 1_555 1_555
H21 C17 1_555 1_555
C18 C17 1_555 1_555
H22 C18 1_555 1_555
C19 C18 1_555 1_555
H23 C19 1_555 1_555
C20 O4 1_555 1_555
C21 O3 1_555 1_555
C22 O4 1_555 1_555
H24 C22 1_555 1_555
H25 C22 1_555 1_555
H26 C22 1_555 1_555
C23 O5 1_555 1_555
H27 C23 1_555 1_555
H28 C23 1_555 1_555
H29 C23 1_555 1_555
C24 O5 1_555 1_555
C25 C24 1_555 1_555
H30 C25 1_555 1_555
C26 C25 1_555 1_555
H31 C26 1_555 1_555
C27 C26 1_555 1_555
H32 C27 1_555 1_555
C28 C27 1_555 1_555
C29 O6 1_555 1_555
C30 C28 1_555 1_555
H33 C30 1_555 1_555
C31 N3 1_555 1_555
H34 C31 1_555 1_555
H35 C31 1_555 1_555
C32 C31 1_555 1_555
H36 C32 1_555 1_555
H37 C32 1_555 1_555
C33 C32 1_555 1_555
H38 C33 1_555 1_555
H39 C33 1_555 1_555
C34 C33 1_555 1_555
H40 C34 1_555 1_555
H41 C34 1_555 1_555
C35 H42 1_555 1_555
H43 C35 1_555 1_555
C36 C34 1_555 1_555
H44 C36 1_555 1_555
H45 C36 1_555 1_555
C37 C36 1_555 1_555
H46 C37 1_555 1_555
H47 C37 1_555 1_555
C38 N4 1_555 1_555
H48 C38 1_555 1_555
C39 C38 1_555 1_555
C40 C39 1_555 1_555
H49 C40 1_555 1_555
C41 C40 1_555 1_555
H50 C41 1_555 1_555
C42 C41 1_555 1_555
H51 C42 1_555 1_555
C43 C42 1_555 1_555
C44 C39 1_555 1_555
C45 O8 1_555 1_555
H52 C45 1_555 1_555
H53 C45 1_555 1_555
H54 C45 1_555 1_555
C46 O9 1_555 1_555
H55 C46 1_555 1_555
H56 C46 1_555 1_555
H57 C46 1_555 1_555
C47 O9 1_555 1_555
C48 C47 1_555 1_555
H58 C48 1_555 1_555
C49 C48 1_555 1_555
H59 C49 1_555 1_555
C50 C49 1_555 1_555
H60 C50 1_555 1_555
C51 C50 1_555 1_555
C52 O10 1_555 1_555
C53 N5 1_555 1_555
H61 C53 1_555 1_555
C54 N5 1_555 1_555
H62 C54 1_555 1_555
H63 C54 1_555 1_555
C55 C54 1_555 1_555
H64 C55 1_555 1_555
H65 C55 1_555 1_555
C56 C55 1_555 1_555
H66 C56 1_555 1_555
H67 C56 1_555 1_555
C57 C56 1_555 1_555
H68 C57 1_555 1_555
H69 C57 1_555 1_555
C58 C57 1_555 1_555
H70 C58 1_555 1_555
H71 C58 1_555 1_555
C59 C58 1_555 1_555
H72 C59 1_555 1_555
H73 C59 1_555 1_555
C60 N6 1_555 1_555
H74 C60 1_555 1_555
C61 C60 1_555 1_555
C62 C61 1_555 1_555
H75 C62 1_555 1_555
C63 C62 1_555 1_555
H76 C63 1_555 1_555
C64 C63 1_555 1_555
H77 C64 1_555 1_555
C65 C64 1_555 1_555
C66 C61 1_555 1_555
C67 O12 1_555 1_555
H78 C67 1_555 1_555
H79 C67 1_555 1_555
H80 C67 1_555 1_555
C68 O13 1_555 1_555
H81 C68 1_555 1_555
H82 C68 1_555 1_555
H83 C68 1_555 1_555
C69 O13 1_555 1_555
C70 C69 1_555 1_555
H84 C70 1_555 1_555
C71 C70 1_555 1_555
H85 C71 1_555 1_555
C72 C71 1_555 1_555
H86 C72 1_555 1_555
C73 C72 1_555 1_555
C74 O14 1_555 1_555
C75 N7 1_555 1_555
H87 C75 1_555 1_555
C76 N7 1_555 1_555
H88 C76 1_555 1_555
H89 C76 1_555 1_555
C77 C76 1_555 1_555
H90 C77 1_555 1_555
H91 C77 1_555 1_555
C78 C77 1_555 1_555
H92 C78 1_555 1_555
H93 C78 1_555 1_555
C79 C78 1_555 1_555
H94 C79 1_555 1_555
H95 C79 1_555 1_555
C80 C79 1_555 1_555
H96 C80 1_555 1_555
H97 C80 1_555 1_555
C81 C80 1_555 1_555
H98 C81 1_555 1_555
H99 C81 1_555 1_555
C82 N8 1_555 1_555
H100 C82 1_555 1_555
C83 C82 1_555 1_555
C84 C83 1_555 1_555
H101 C84 1_555 1_555
C85 C84 1_555 1_555
H102 C85 1_555 1_555
C86 C85 1_555 1_555
H103 C86 1_555 1_555
C87 C86 1_555 1_555
C88 C83 1_555 1_555
C89 O16 1_555 1_555
H104 C89 1_555 1_555
H105 C89 1_555 1_555
H106 C89 1_555 1_555
C90 O17 1_555 1_555
H107 C90 1_555 1_555
H108 C90 1_555 1_555
H109 C90 1_555 1_555
C91 O17 1_555 1_555
C92 C91 1_555 1_555
H110 C92 1_555 1_555
C93 C92 1_555 1_555
H111 C93 1_555 1_555
C94 C93 1_555 1_555
H112 C94 1_555 1_555
C95 C94 1_555 1_555
C96 O18 1_555 1_555
C97 C95 1_555 1_555
H113 C97 1_555 1_555
C98 N9 1_555 1_555
H114 C98 1_555 1_555
H115 C98 1_555 1_555
C99 C35 1_555 1_555
H116 C99 1_555 1_555
H117 C99 1_555 1_555
C100 H118 1_555 1_555
H119 C100 1_555 1_555
H120 C100 1_555 1_555
C101 O19 1_555 1_555
C102 H121 1_555 1_555
H122 C102 1_555 1_555
H123 C102 1_555 1_555
C103 O21 1_555 1_555
C104 H124 1_555 1_555
H125 C104 1_555 1_555
H126 C104 1_555 1_555
C105 O23 1_555 1_555
C106 H127 1_555 1_555
H128 C106 1_555 1_555
H129 C106 1_555 1_555
C107 O25 1_555 1_555
C108 H130 1_555 1_555
H131 C108 1_555 1_555
H132 C108 1_555 1_555
C109 O27 1_555 1_555
C110 H133 1_555 1_555
H134 C110 1_555 1_555
H135 C110 1_555 1_555
C111 O29 1_555 1_555
C112 H136 1_555 1_555
H137 C112 1_555 1_555
H138 C112 1_555 1_555
C113 O31 1_555 1_555
C114 H139 1_555 1_555
H140 C114 1_555 1_555
H141 C114 1_555 1_555
C115 O33 1_555 1_555
C116 H142 1_555 1_555
H143 C116 1_555 1_555
H144 C116 1_555 1_555
C117 O35 1_555 1_555
C118 H145 1_555 1_555
H146 C118 1_555 1_555
H147 C118 1_555 1_555
C119 O37 1_555 1_555
C120 H148 1_555 1_555
H149 C120 1_555 1_555
H150 C120 1_555 1_555
C121 O39 1_555 1_555
C122 H151 1_555 1_555
H152 C122 1_555 1_555
H153 C122 1_555 1_555
C123 O41 1_555 1_555
C124 H154 1_555 1_555
H155 C124 1_555 1_555
H156 C124 1_555 1_555
C125 O43 1_555 1_555
O45 H157 1_555 1_555
C126 H158 1_555 1_555
H159 C126 1_555 1_555
H160 C126 1_555 1_555
C127 O45 1_555 1_555
H161 C127 1_555 1_555
H162 C127 1_555 1_555
O46 H163 1_555 1_555
C128 H164 1_555 1_555
H165 C128 1_555 1_555
H166 C128 1_555 1_555
C129 O46 1_555 1_555
H167 C129 1_555 1_555
H168 C129 1_555 1_555
O47 H169 1_555 1_555
C130 H170 1_555 1_555
H171 C130 1_555 1_555
H172 C130 1_555 1_555
C131 O47 1_555 1_555
H173 C131 1_555 1_555
H174 C131 1_555 1_555
O48 H175 1_555 1_555
C132 H176 1_555 1_555
H177 C132 1_555 1_555
H178 C132 1_555 1_555
C133 O48 1_555 1_555
H179 C133 1_555 1_555
H180 C133 1_555 1_555
O49 H181 1_555 1_555
C134 H182 1_555 1_555
H183 C134 1_555 1_555
H184 C134 1_555 1_555
C135 O49 1_555 1_555
H185 C135 1_555 1_555
H186 C135 1_555 1_555
O50 H187 1_555 1_555
C136 O50 1_555 1_555
H188 C136 1_555 1_555
H189 C136 1_555 1_555
H190 C136 1_555 1_555
O51 H191 1_555 1_555
C137 O51 1_555 1_555
H192 C137 1_555 1_555
H193 C137 1_555 1_555
H194 C137 1_555 1_555
O52 H195 1_555 1_555
C138 O52 1_555 1_555
H196 C138 1_555 1_555
H197 C138 1_555 1_555
H198 C138 1_555 1_555
O53 H199 1_555 1_555
C139 O53 1_555 1_555
H200 C139 1_555 1_555
H201 C139 1_555 1_555
H202 C139 1_555 1_555
O54 H203 1_555 1_555
C140 H204 1_555 1_555
H205 C140 1_555 1_555
H206 C140 1_555 1_555
C141 O54 1_555 1_555
H207 C141 1_555 1_555
H208 C141 1_555 1_555
N9A C97A 1_555 1_555
O17A C90A 1_555 1_555
O18A C96A 1_555 1_555
C35A C35 1_555 1_555
H42A C35A 1_555 1_555
H43A C35A 1_555 1_555
C90A H107A 1_555 1_555
H108A C90A 1_555 1_555
H109A C90A 1_555 1_555
C91A O17A 1_555 1_555
C92A C91A 1_555 1_555
H110A C92A 1_555 1_555
C93A C92A 1_555 1_555
H111A C93A 1_555 1_555
C94A C93A 1_555 1_555
H112A C94A 1_555 1_555
C95A C94A 1_555 1_555
C96A C91A 1_555 1_555
C97A C95A 1_555 1_555
H113A C97A 1_555 1_555
C98A N9A 1_555 1_555
H114A C98A 1_555 1_555
H115A C98A 1_555 1_555
C99A C35A 1_555 1_555
H116A C99A 1_555 1_555
H117A C99A 1_555 1_555
Lu1A N6 1_555 1_555
Lu2A N1 1_555 1_555
Lu3A N8 1_555 1_555
Cd1A Cl5A 1_555 1_555
Cd2A Cl1A 1_555 1_555
Cd3A O1 1_555 1_555
Cd4A O17A 1_555 1_555
Cd5A N2A 1_555 1_555
Cd6A N4 1_555 1_555
Cd7A O7 1_555 1_555
Cd8A Cl2A 1_555 1_555
Cd9A O11 1_555 1_555
Cl1A Lu2A 1_555 1_555
Cl2A Lu1A 1_555 1_555
Cl3A Cd7A 1_555 1_555
Cl4A Cd4A 1_555 1_555
N1A Lu2 1_555 1_555
N2A C14A 1_555 1_555
N3A Cd9A 1_555 1_555
N4A Cd6 1_555 1_555
N5A Cd8A 1_555 1_555
N6A Lu1 1_555 1_555
N7A Cd2A 1_555 1_555
N8A Lu3 1_555 1_555
O1A Cd3 1_555 1_555
O2A Lu2 1_555 1_555
O3A Lu3A 1_555 1_555
O4A Lu3A 1_555 1_555
O5A Cd1A 1_555 1_555
O6A Cd1A 1_555 1_555
O7A Cd6 1_555 1_555
O8A Cd7 1_555 1_555
O9A Lu1A 1_555 1_555
O10A Lu1A 1_555 1_555
O11A Lu1 1_555 1_555
O12A Cd9 1_555 1_555
O13A Lu2A 1_555 1_555
O14A Lu2A 1_555 1_555
O15A Lu3 1_555 1_555
O16A Cd6 1_555 1_555
O19A Lu2A 1_555 1_555
O20A Cd2A 1_555 1_555
O21A Cd1A 1_555 1_555
O22A Cd1A 1_555 1_555
O23A Cd2A 1_555 1_555
O24A Lu1A 1_555 1_555
O25A Cd1A 1_555 1_555
O26A Lu1A 1_555 1_555
O27A Lu1A 1_555 1_555
O28A Cd8A 1_555 1_555
O29A Cd7A 1_555 1_555
O30A Cd7A 1_555 1_555
O31A Cd6A 1_555 1_555
O32A Lu3A 1_555 1_555
O33A Cd6A 1_555 1_555
O34A Lu3A 1_555 1_555
O35A Lu3A 1_555 1_555
O36A Cd5A 1_555 1_555
O37A Lu3A 1_555 1_555
O38A Cd5A 1_555 1_555
O39A Cd4A 1_555 1_555
O40A Cd4A 1_555 1_555
O41A Cd3A 1_555 1_555
O42A Lu2A 1_555 1_555
O43A Cd3A 1_555 1_555
O44A Lu2A 1_555 1_555
C1A O1A 1_555 1_555
H1A C1A 1_555 1_555
H2A C1A 1_555 1_555
H3A C1A 1_555 1_555
C2A O1A 1_555 1_555
C3A C2A 1_555 1_555
H4A C3A 1_555 1_555
C4A C3A 1_555 1_555
H5A C4A 1_555 1_555
C5A C4A 1_555 1_555
H6A C5A 1_555 1_555
C6A C5A 1_555 1_555
C7A O2A 1_555 1_555
C8A N1A 1_555 1_555
H7A C8A 1_555 1_555
C9A N1A 1_555 1_555
H8A C9A 1_555 1_555
H9A C9A 1_555 1_555
C10A C9A 1_555 1_555
H10A C10A 1_555 1_555
H11A C10A 1_555 1_555
C11A C10A 1_555 1_555
H12A C11A 1_555 1_555
H13A C11A 1_555 1_555
C12A C11A 1_555 1_555
H14A C12A 1_555 1_555
H15A C12A 1_555 1_555
C13A C12A 1_555 1_555
H16A C13A 1_555 1_555
H17A C13A 1_555 1_555
C14A C13A 1_555 1_555
H18A C14A 1_555 1_555
H19A C14A 1_555 1_555
C15A N2A 1_555 1_555
H20A C15A 1_555 1_555
C16A C15A 1_555 1_555
C17A C16A 1_555 1_555
H21A C17A 1_555 1_555
C18A C17A 1_555 1_555
H22A C18A 1_555 1_555
C19A C18A 1_555 1_555
H23A C19A 1_555 1_555
C20A O4A 1_555 1_555
C21A O3A 1_555 1_555
C22A O4A 1_555 1_555
H24A C22A 1_555 1_555
H25A C22A 1_555 1_555
H26A C22A 1_555 1_555
C23A O5A 1_555 1_555
H27A C23A 1_555 1_555
H28A C23A 1_555 1_555
H29A C23A 1_555 1_555
C24A O5A 1_555 1_555
C25A C24A 1_555 1_555
H30A C25A 1_555 1_555
C26A C25A 1_555 1_555
H31A C26A 1_555 1_555
C27A C26A 1_555 1_555
H32A C27A 1_555 1_555
C28A C27A 1_555 1_555
C29A O6A 1_555 1_555
C30A N3A 1_555 1_555
H33A C30A 1_555 1_555
C31A N3A 1_555 1_555
H34A C31A 1_555 1_555
H35A C31A 1_555 1_555
C32A C31A 1_555 1_555
H36A C32A 1_555 1_555
H37A C32A 1_555 1_555
C33A C32A 1_555 1_555
H38A C33A 1_555 1_555
H39A C33A 1_555 1_555
C34A C33A 1_555 1_555
H40A C34A 1_555 1_555
H41A C34A 1_555 1_555
C36A C34A 1_555 1_555
H44A C36A 1_555 1_555
H45A C36A 1_555 1_555
C37A N4A 1_555 1_555
H46A C37A 1_555 1_555
H47A C37A 1_555 1_555
C38A N4A 1_555 1_555
H48A C38A 1_555 1_555
C39A C38A 1_555 1_555
C40A C39A 1_555 1_555
H49A C40A 1_555 1_555
C41A C40A 1_555 1_555
H50A C41A 1_555 1_555
C42A C41A 1_555 1_555
H51A C42A 1_555 1_555
C43A O8A 1_555 1_555
C44A O7A 1_555 1_555
C45A O8A 1_555 1_555
H52A C45A 1_555 1_555
H53A C45A 1_555 1_555
H54A C45A 1_555 1_555
C46A O9A 1_555 1_555
H55A C46A 1_555 1_555
H56A C46A 1_555 1_555
H57A C46A 1_555 1_555
C47A O9A 1_555 1_555
C48A C47A 1_555 1_555
H58A C48A 1_555 1_555
C49A C48A 1_555 1_555
H59A C49A 1_555 1_555
C50A C49A 1_555 1_555
H60A C50A 1_555 1_555
C51A C50A 1_555 1_555
C52A O10A 1_555 1_555
C53A N5A 1_555 1_555
H61A C53A 1_555 1_555
C54A N5A 1_555 1_555
H62A C54A 1_555 1_555
H63A C54A 1_555 1_555
C55A C54A 1_555 1_555
H64A C55A 1_555 1_555
H65A C55A 1_555 1_555
C56A C55A 1_555 1_555
H66A C56A 1_555 1_555
H67A C56A 1_555 1_555
C57A C56A 1_555 1_555
H68A C57A 1_555 1_555
H69A C57A 1_555 1_555
C58A C57A 1_555 1_555
H70A C58A 1_555 1_555
H71A C58A 1_555 1_555
C59A N6A 1_555 1_555
H72A C59A 1_555 1_555
H73A C59A 1_555 1_555
C60A N6A 1_555 1_555
H74A C60A 1_555 1_555
C61A C60A 1_555 1_555
C62A C61A 1_555 1_555
H75A C62A 1_555 1_555
C63A C62A 1_555 1_555
H76A C63A 1_555 1_555
C64A C63A 1_555 1_555
H77A C64A 1_555 1_555
C65A O12A 1_555 1_555
C66A O11A 1_555 1_555
C67A O12A 1_555 1_555
H78A C67A 1_555 1_555
H79A C67A 1_555 1_555
H80A C67A 1_555 1_555
C68A O13A 1_555 1_555
H81A C68A 1_555 1_555
H82A C68A 1_555 1_555
H83A C68A 1_555 1_555
C69A O13A 1_555 1_555
C70A C69A 1_555 1_555
H84A C70A 1_555 1_555
C71A C70A 1_555 1_555
H85A C71A 1_555 1_555
C72A C71A 1_555 1_555
H86A C72A 1_555 1_555
C73A C72A 1_555 1_555
C74A O14A 1_555 1_555
C75A N7A 1_555 1_555
H87A C75A 1_555 1_555
C76A N7A 1_555 1_555
H88A C76A 1_555 1_555
H89A C76A 1_555 1_555
C77A C76A 1_555 1_555
H90A C77A 1_555 1_555
H91A C77A 1_555 1_555
C78A C77A 1_555 1_555
H92A C78A 1_555 1_555
H93A C78A 1_555 1_555
C79A C78A 1_555 1_555
H94A C79A 1_555 1_555
H95A C79A 1_555 1_555
C80A C79A 1_555 1_555
H96A C80A 1_555 1_555
H97A C80A 1_555 1_555
C81A N8A 1_555 1_555
H98A C81A 1_555 1_555
H99A C81A 1_555 1_555
C82A N8A 1_555 1_555
H100A C82A 1_555 1_555
C83A C82A 1_555 1_555
C84A C83A 1_555 1_555
H101A C84A 1_555 1_555
C85A C84A 1_555 1_555
H102A C85A 1_555 1_555
C86A C85A 1_555 1_555
H103A C86A 1_555 1_555
C87A O16A 1_555 1_555
C88A O15A 1_555 1_555
C89A O16A 1_555 1_555
H104A C89A 1_555 1_555
H105A C89A 1_555 1_555
H106A C89A 1_555 1_555
C100A H118A 1_555 1_555
H119A C100A 1_555 1_555
H120A C100A 1_555 1_555
C101A O19A 1_555 1_555
C102A H121A 1_555 1_555
H122A C102A 1_555 1_555
H123A C102A 1_555 1_555
C103A O21A 1_555 1_555
C104A H124A 1_555 1_555
H125A C104A 1_555 1_555
H126A C104A 1_555 1_555
C105A O23A 1_555 1_555
C106A H127A 1_555 1_555
H128A C106A 1_555 1_555
H129A C106A 1_555 1_555
C107A O25A 1_555 1_555
C108A H130A 1_555 1_555
H131A C108A 1_555 1_555
H132A C108A 1_555 1_555
C109A O27A 1_555 1_555
C110A H133A 1_555 1_555
H134A C110A 1_555 1_555
H135A C110A 1_555 1_555
C111A O29A 1_555 1_555
C112A H136A 1_555 1_555
H137A C112A 1_555 1_555
H138A C112A 1_555 1_555
C113A O31A 1_555 1_555
C114A H139A 1_555 1_555
H140A C114A 1_555 1_555
H141A C114A 1_555 1_555
C115A O33A 1_555 1_555
C116A H142A 1_555 1_555
H143A C116A 1_555 1_555
H144A C116A 1_555 1_555
C117A O35A 1_555 1_555
C118A H145A 1_555 1_555
H146A C118A 1_555 1_555
H147A C118A 1_555 1_555
C119A O37A 1_555 1_555
C120A H148A 1_555 1_555
H149A C120A 1_555 1_555
H150A C120A 1_555 1_555
C121A O39A 1_555 1_555
C122A H151A 1_555 1_555
H152A C122A 1_555 1_555
H153A C122A 1_555 1_555
C123A O41A 1_555 1_555
C124A H154A 1_555 1_555
H155A C124A 1_555 1_555
H156A C124A 1_555 1_555
C125A O43A 1_555 1_555
Cd2 O14 1_555 1_555
Cd2 O21 1_555 1_555
Cd3 O44 1_555 1_555
Cd3 O2A 1_555 1_555
Cd4 O18 1_555 1_555
Cd4 O41 1_555 1_555
Cd5 O37 1_555 1_555
Cd5 O39 1_555 1_555
Cd5 O43 1_555 1_555
Cd6 O32 1_555 1_555
Cd6 O15A 1_555 1_555
Cd7 O33 1_555 1_555
Cd7 O7A 1_555 1_555
Cd8 O10 1_555 1_555
Cd8 O30 1_555 1_555
Cd9 O6 1_555 1_555
Cd9 O23 1_555 1_555
Cd9 O24 1_555 1_555
Cd9 O25 1_555 1_555
Cd9 O11A 1_555 1_555
O2 Lu2A 1_555 1_555
O2 Cd3A 1_555 1_555
O7 Cd6A 1_555 1_555
O8 Cd7A 1_555 1_555
O11 Lu1A 1_555 1_555
O12 Cd9A 1_555 1_555
O15 Lu3A 1_555 1_555
O15 Cd6A 1_555 1_555
O16 Cd6A 1_555 1_555
O20 C101 1_555 1_555
O22 C103 1_555 1_555
O24 C105 1_555 1_555
O26 C107 1_555 1_555
O28 C109 1_555 1_555
O30 C111 1_555 1_555
O32 C113 1_555 1_555
O34 C115 1_555 1_555
O36 C117 1_555 1_555
O38 C119 1_555 1_555
O40 C121 1_555 1_555
O42 C123 1_555 1_555
O44 C125 1_555 1_555
C6 C7 1_555 1_555
C16 C21 1_555 1_555
C19 C20 1_555 1_555
C20 C21 1_555 1_555
C24 C29 1_555 1_555
C28 C29 1_555 1_555
C43 C44 1_555 1_555
C47 C52 1_555 1_555
C51 C52 1_555 1_555
C51 C53 1_555 1_555
C65 C66 1_555 1_555
C69 C74 1_555 1_555
C73 C74 1_555 1_555
C73 C75 1_555 1_555
C87 C88 1_555 1_555
C91 C96 1_555 1_555
C95 C96 1_555 1_555
C98 C99 1_555 1_555
C100 C101 1_555 1_555
C102 C103 1_555 1_555
C104 C105 1_555 1_555
C106 C107 1_555 1_555
C108 C109 1_555 1_555
C110 C111 1_555 1_555
C112 C113 1_555 1_555
C114 C115 1_555 1_555
C116 C117 1_555 1_555
C118 C119 1_555 1_555
C120 C121 1_555 1_555
C122 C123 1_555 1_555
C124 C125 1_555 1_555
C126 C127 1_555 1_555
C128 C129 1_555 1_555
C130 C131 1_555 1_555
C132 C133 1_555 1_555
C134 C135 1_555 1_555
C140 C141 1_555 1_555
N9A Cd3A 1_555 1_555
O18A Cd3A 1_555 1_555
O18A Cd4A 1_555 1_555
C95A C96A 1_555 1_555
C98A C99A 1_555 1_555
Cd2A O14A 1_555 1_555
Cd2A O21A 1_555 1_555
Cd3A O44A 1_555 1_555
Cd4A O41A 1_555 1_555
Cd5A O3A 1_555 1_555
Cd5A O37A 1_555 1_555
Cd5A O39A 1_555 1_555
Cd5A O43A 1_555 1_555
Cd6A O32A 1_555 1_555
Cd7A O33A 1_555 1_555
Cd8A O10A 1_555 1_555
Cd8A O30A 1_555 1_555
Cd8A O31A 1_555 1_555
Cd9A O6A 1_555 1_555
Cd9A O23A 1_555 1_555
Cd9A O24A 1_555 1_555
Cd9A O25A 1_555 1_555
O20A C101A 1_555 1_555
O22A C103A 1_555 1_555
O24A C105A 1_555 1_555
O26A C107A 1_555 1_555
O28A C109A 1_555 1_555
O30A C111A 1_555 1_555
O32A C113A 1_555 1_555
O34A C115A 1_555 1_555
O36A C117A 1_555 1_555
O38A C119A 1_555 1_555
O40A C121A 1_555 1_555
O42A C123A 1_555 1_555
O44A C125A 1_555 1_555
C2A C7A 1_555 1_555
C6A C7A 1_555 1_555
C6A C8A 1_555 1_555
C16A C21A 1_555 1_555
C19A C20A 1_555 1_555
C20A C21A 1_555 1_555
C24A C29A 1_555 1_555
C28A C29A 1_555 1_555
C28A C30A 1_555 1_555
C36A C37A 1_555 1_555
C39A C44A 1_555 1_555
C42A C43A 1_555 1_555
C43A C44A 1_555 1_555
C47A C52A 1_555 1_555
C51A C52A 1_555 1_555
C51A C53A 1_555 1_555
C58A C59A 1_555 1_555
C61A C66A 1_555 1_555
C64A C65A 1_555 1_555
C65A C66A 1_555 1_555
C69A C74A 1_555 1_555
C73A C74A 1_555 1_555
C73A C75A 1_555 1_555
C80A C81A 1_555 1_555
C83A C88A 1_555 1_555
C86A C87A 1_555 1_555
C87A C88A 1_555 1_555
C100A C101A 1_555 1_555
C102A C103A 1_555 1_555
C104A C105A 1_555 1_555
C106A C107A 1_555 1_555
C108A C109A 1_555 1_555
C110A C111A 1_555 1_555
C112A C113A 1_555 1_555
C114A C115A 1_555 1_555
C116A C117A 1_555 1_555
C118A C119A 1_555 1_555
C120A C121A 1_555 1_555
C122A C123A 1_555 1_555
C124A C125A 1_555 1_555

#END
