# generated using pymatgen
data_B4H48Pd2C113Br7N8(OF4)4
_symmetry_space_group_name_H-M   'P 1'
_cell_length_a   41.60900000
_cell_length_b   63.13800000
_cell_length_c   63.13800000
_cell_angle_alpha   120.00000000
_cell_angle_beta   90.00000000
_cell_angle_gamma   90.00000000
_symmetry_Int_Tables_number   1
_chemical_formula_structural   B4H48Pd2C113Br7N8(OF4)4
_chemical_formula_sum   'B72 H864 Pd36 C2034 Br126 N144 O72 F288'
_cell_volume   143647.98939699
_cell_formula_units_Z   18
loop_
 _symmetry_equiv_pos_site_id
 _symmetry_equiv_pos_as_xyz
  1  'x, y, z'
loop_
 _atom_site_type_symbol
 _atom_site_label
 _atom_site_symmetry_multiplicity
 _atom_site_fract_x
 _atom_site_fract_y
 _atom_site_fract_z
 _atom_site_occupancy
  B  B1  1  0.398700  0.421900  0.795000  1
  B  B2  1  0.398700  0.373100  0.578100  1
  B  B3  1  0.398700  0.205000  0.626900  1
  B  B4  1  0.065367  0.755233  0.461667  1
  B  B5  1  0.065367  0.706433  0.244767  1
  B  B6  1  0.065367  0.538333  0.293567  1
  B  B7  1  0.732033  0.088567  0.128333  1
  B  B8  1  0.732033  0.039767  0.911433  1
  B  B9  1  0.732033  0.871667  0.960233  1
  B  B10  1  0.601300  0.578100  0.205000  1
  B  B11  1  0.601300  0.626900  0.421900  1
  B  B12  1  0.601300  0.795000  0.373100  1
  B  B13  1  0.934633  0.244767  0.538333  1
  B  B14  1  0.934633  0.293567  0.755233  1
  B  B15  1  0.934633  0.461667  0.706433  1
  B  B16  1  0.267967  0.911433  0.871667  1
  B  B17  1  0.267967  0.960233  0.088567  1
  B  B18  1  0.267967  0.128333  0.039767  1
  B  B19  1  0.314600  0.546700  0.946800  1
  B  B20  1  0.314600  0.400100  0.453300  1
  B  B21  1  0.314600  0.053200  0.599900  1
  B  B22  1  0.981267  0.880033  0.613467  1
  B  B23  1  0.981267  0.733433  0.119967  1
  B  B24  1  0.981267  0.386533  0.266567  1
  B  B25  1  0.647933  0.213367  0.280133  1
  B  B26  1  0.647933  0.066767  0.786633  1
  B  B27  1  0.647933  0.719867  0.933233  1
  B  B28  1  0.685400  0.453300  0.053200  1
  B  B29  1  0.685400  0.599900  0.546700  1
  B  B30  1  0.685400  0.946800  0.400100  1
  B  B31  1  0.018733  0.119967  0.386533  1
  B  B32  1  0.018733  0.266567  0.880033  1
  B  B33  1  0.018733  0.613467  0.733433  1
  B  B34  1  0.352067  0.786633  0.719867  1
  B  B35  1  0.352067  0.933233  0.213367  1
  B  B36  1  0.352067  0.280133  0.066767  1
  B  B37  1  0.334800  0.589400  0.101200  1
  B  B38  1  0.334800  0.511800  0.410600  1
  B  B39  1  0.334800  0.898800  0.488200  1
  B  B40  1  0.001467  0.922733  0.767867  1
  B  B41  1  0.001467  0.845133  0.077267  1
  B  B42  1  0.001467  0.232133  0.154867  1
  B  B43  1  0.668133  0.256067  0.434533  1
  B  B44  1  0.668133  0.178467  0.743933  1
  B  B45  1  0.668133  0.565467  0.821533  1
  B  B46  1  0.665200  0.410600  0.898800  1
  B  B47  1  0.665200  0.488200  0.589400  1
  B  B48  1  0.665200  0.101200  0.511800  1
  B  B49  1  0.998533  0.077267  0.232133  1
  B  B50  1  0.998533  0.154867  0.922733  1
  B  B51  1  0.998533  0.767867  0.845133  1
  B  B52  1  0.331867  0.743933  0.565467  1
  B  B53  1  0.331867  0.821533  0.256067  1
  B  B54  1  0.331867  0.434533  0.178467  1
  B  B55  1  0.253000  0.516000  0.904900  1
  B  B56  1  0.253000  0.388900  0.484000  1
  B  B57  1  0.253000  0.095100  0.611100  1
  B  B58  1  0.919667  0.849333  0.571567  1
  B  B59  1  0.919667  0.722233  0.150667  1
  B  B60  1  0.919667  0.428433  0.277767  1
  B  B61  1  0.586333  0.182667  0.238233  1
  B  B62  1  0.586333  0.055567  0.817333  1
  B  B63  1  0.586333  0.761767  0.944433  1
  B  B64  1  0.747000  0.484000  0.095100  1
  B  B65  1  0.747000  0.611100  0.516000  1
  B  B66  1  0.747000  0.904900  0.388900  1
  B  B67  1  0.080333  0.150667  0.428433  1
  B  B68  1  0.080333  0.277767  0.849333  1
  B  B69  1  0.080333  0.571567  0.722233  1
  B  B70  1  0.413667  0.817333  0.761767  1
  B  B71  1  0.413667  0.944433  0.182667  1
  B  B72  1  0.413667  0.238233  0.055567  1
  H  H73  1  0.367000  0.629700  0.898900  1
  H  H74  1  0.367000  0.269200  0.370300  1
  H  H75  1  0.367000  0.101100  0.730800  1
  H  H76  1  0.033667  0.963033  0.565567  1
  H  H77  1  0.033667  0.602533  0.036967  1
  H  H78  1  0.033667  0.434433  0.397467  1
  H  H79  1  0.700333  0.296367  0.232233  1
  H  H80  1  0.700333  0.935867  0.703633  1
  H  H81  1  0.700333  0.767767  0.064133  1
  H  H82  1  0.633000  0.370300  0.101100  1
  H  H83  1  0.633000  0.730800  0.629700  1
  H  H84  1  0.633000  0.898900  0.269200  1
  H  H85  1  0.966333  0.036967  0.434433  1
  H  H86  1  0.966333  0.397467  0.963033  1
  H  H87  1  0.966333  0.565567  0.602533  1
  H  H88  1  0.299667  0.703633  0.767767  1
  H  H89  1  0.299667  0.064133  0.296367  1
  H  H90  1  0.299667  0.232233  0.935867  1
  H  H91  1  0.445600  0.670300  0.908000  1
  H  H92  1  0.445600  0.237700  0.329700  1
  H  H93  1  0.445600  0.092000  0.762300  1
  H  H94  1  0.112267  0.003633  0.574667  1
  H  H95  1  0.112267  0.571033  0.996367  1
  H  H96  1  0.112267  0.425333  0.428967  1
  H  H97  1  0.778933  0.336967  0.241333  1
  H  H98  1  0.778933  0.904367  0.663033  1
  H  H99  1  0.778933  0.758667  0.095633  1
  H  H100  1  0.554400  0.329700  0.092000  1
  H  H101  1  0.554400  0.762300  0.670300  1
  H  H102  1  0.554400  0.908000  0.237700  1
  H  H103  1  0.887733  0.996367  0.425333  1
  H  H104  1  0.887733  0.428967  0.003633  1
  H  H105  1  0.887733  0.574667  0.571033  1
  H  H106  1  0.221067  0.663033  0.758667  1
  H  H107  1  0.221067  0.095633  0.336967  1
  H  H108  1  0.221067  0.241333  0.904367  1
  H  H109  1  0.378400  0.630900  0.925400  1
  H  H110  1  0.378400  0.294500  0.369100  1
  H  H111  1  0.378400  0.074600  0.705500  1
  H  H112  1  0.045067  0.964233  0.592067  1
  H  H113  1  0.045067  0.627833  0.035767  1
  H  H114  1  0.045067  0.407933  0.372167  1
  H  H115  1  0.711733  0.297567  0.258733  1
  H  H116  1  0.711733  0.961167  0.702433  1
  H  H117  1  0.711733  0.741267  0.038833  1
  H  H118  1  0.621600  0.369100  0.074600  1
  H  H119  1  0.621600  0.705500  0.630900  1
  H  H120  1  0.621600  0.925400  0.294500  1
  H  H121  1  0.954933  0.035767  0.407933  1
  H  H122  1  0.954933  0.372167  0.964233  1
  H  H123  1  0.954933  0.592067  0.627833  1
  H  H124  1  0.288267  0.702433  0.741267  1
  H  H125  1  0.288267  0.038833  0.297567  1
  H  H126  1  0.288267  0.258733  0.961167  1
  H  H127  1  0.459200  0.669000  0.933200  1
  H  H128  1  0.459200  0.264200  0.331000  1
  H  H129  1  0.459200  0.066800  0.735800  1
  H  H130  1  0.125867  0.002333  0.599867  1
  H  H131  1  0.125867  0.597533  0.997667  1
  H  H132  1  0.125867  0.400133  0.402467  1
  H  H133  1  0.792533  0.335667  0.266533  1
  H  H134  1  0.792533  0.930867  0.664333  1
  H  H135  1  0.792533  0.733467  0.069133  1
  H  H136  1  0.540800  0.331000  0.066800  1
  H  H137  1  0.540800  0.735800  0.669000  1
  H  H138  1  0.540800  0.933200  0.264200  1
  H  H139  1  0.874133  0.997667  0.400133  1
  H  H140  1  0.874133  0.402467  0.002333  1
  H  H141  1  0.874133  0.599867  0.597533  1
  H  H142  1  0.207467  0.664333  0.733467  1
  H  H143  1  0.207467  0.069133  0.335667  1
  H  H144  1  0.207467  0.266533  0.930867  1
  H  H145  1  0.289900  0.399400  0.952800  1
  H  H146  1  0.289900  0.553400  0.600600  1
  H  H147  1  0.289900  0.047200  0.446600  1
  H  H148  1  0.956567  0.732733  0.619467  1
  H  H149  1  0.956567  0.886733  0.267267  1
  H  H150  1  0.956567  0.380533  0.113267  1
  H  H151  1  0.623233  0.066067  0.286133  1
  H  H152  1  0.623233  0.220067  0.933933  1
  H  H153  1  0.623233  0.713867  0.779933  1
  H  H154  1  0.710100  0.600600  0.047200  1
  H  H155  1  0.710100  0.446600  0.399400  1
  H  H156  1  0.710100  0.952800  0.553400  1
  H  H157  1  0.043433  0.267267  0.380533  1
  H  H158  1  0.043433  0.113267  0.732733  1
  H  H159  1  0.043433  0.619467  0.886733  1
  H  H160  1  0.376767  0.933933  0.713867  1
  H  H161  1  0.376767  0.779933  0.066067  1
  H  H162  1  0.376767  0.286133  0.220067  1
  H  H163  1  0.289700  0.353300  0.979300  1
  H  H164  1  0.289700  0.626000  0.646700  1
  H  H165  1  0.289700  0.020700  0.374000  1
  H  H166  1  0.956367  0.686633  0.645967  1
  H  H167  1  0.956367  0.959333  0.313367  1
  H  H168  1  0.956367  0.354033  0.040667  1
  H  H169  1  0.623033  0.019967  0.312633  1
  H  H170  1  0.623033  0.292667  0.980033  1
  H  H171  1  0.623033  0.687367  0.707333  1
  H  H172  1  0.710300  0.646700  0.020700  1
  H  H173  1  0.710300  0.374000  0.353300  1
  H  H174  1  0.710300  0.979300  0.626000  1
  H  H175  1  0.043633  0.313367  0.354033  1
  H  H176  1  0.043633  0.040667  0.686633  1
  H  H177  1  0.043633  0.645967  0.959333  1
  H  H178  1  0.376967  0.980033  0.687367  1
  H  H179  1  0.376967  0.707333  0.019967  1
  H  H180  1  0.376967  0.312633  0.292667  1
  H  H181  1  0.301700  0.517900  0.875000  1.0
  H  H182  1  0.301700  0.357100  0.482100  1.0
  H  H183  1  0.301700  0.125000  0.642900  1.0
  H  H184  1  0.968367  0.851233  0.541667  1.0
  H  H185  1  0.968367  0.690433  0.148767  1.0
  H  H186  1  0.968367  0.458333  0.309567  1.0
  H  H187  1  0.635033  0.184567  0.208333  1.0
  H  H188  1  0.635033  0.023767  0.815433  1.0
  H  H189  1  0.635033  0.791667  0.976233  1.0
  H  H190  1  0.698300  0.482100  0.125000  1.0
  H  H191  1  0.698300  0.642900  0.517900  1.0
  H  H192  1  0.698300  0.875000  0.357100  1.0
  H  H193  1  0.031633  0.148767  0.458333  1.0
  H  H194  1  0.031633  0.309567  0.851233  1.0
  H  H195  1  0.031633  0.541667  0.690433  1.0
  H  H196  1  0.364967  0.815433  0.791667  1.0
  H  H197  1  0.364967  0.976233  0.184567  1.0
  H  H198  1  0.364967  0.208333  0.023767  1.0
  H  H199  1  0.326000  0.557700  0.890500  1.0
  H  H200  1  0.326000  0.332800  0.442300  1.0
  H  H201  1  0.326000  0.109500  0.667200  1.0
  H  H202  1  0.992667  0.891033  0.557167  1.0
  H  H203  1  0.992667  0.666133  0.108967  1.0
  H  H204  1  0.992667  0.442833  0.333867  1.0
  H  H205  1  0.659333  0.224367  0.223833  1.0
  H  H206  1  0.659333  0.999467  0.775633  1.0
  H  H207  1  0.659333  0.776167  0.000533  1.0
  H  H208  1  0.674000  0.442300  0.109500  1.0
  H  H209  1  0.674000  0.667200  0.557700  1.0
  H  H210  1  0.674000  0.890500  0.332800  1.0
  H  H211  1  0.007333  0.108967  0.442833  1.0
  H  H212  1  0.007333  0.333867  0.891033  1.0
  H  H213  1  0.007333  0.557167  0.666133  1.0
  H  H214  1  0.340667  0.775633  0.776167  1.0
  H  H215  1  0.340667  0.000533  0.224367  1.0
  H  H216  1  0.340667  0.223833  0.999467  1.0
  H  H217  1  0.402700  0.523900  0.848800  1.0
  H  H218  1  0.402700  0.324900  0.476100  1.0
  H  H219  1  0.402700  0.151200  0.675100  1.0
  H  H220  1  0.069367  0.857233  0.515467  1.0
  H  H221  1  0.069367  0.658233  0.142767  1.0
  H  H222  1  0.069367  0.484533  0.341767  1.0
  H  H223  1  0.736033  0.190567  0.182133  1.0
  H  H224  1  0.736033  0.991567  0.809433  1.0
  H  H225  1  0.736033  0.817867  0.008433  1.0
  H  H226  1  0.597300  0.476100  0.151200  1.0
  H  H227  1  0.597300  0.675100  0.523900  1.0
  H  H228  1  0.597300  0.848800  0.324900  1.0
  H  H229  1  0.930633  0.142767  0.484533  1.0
  H  H230  1  0.930633  0.341767  0.857233  1.0
  H  H231  1  0.930633  0.515467  0.658233  1.0
  H  H232  1  0.263967  0.809433  0.817867  1.0
  H  H233  1  0.263967  0.008433  0.190567  1.0
  H  H234  1  0.263967  0.182133  0.991567  1.0
  H  H235  1  0.380000  0.486000  0.835500  1.0
  H  H236  1  0.380000  0.349500  0.514000  1.0
  H  H237  1  0.380000  0.164500  0.650500  1.0
  H  H238  1  0.046667  0.819333  0.502167  1.0
  H  H239  1  0.046667  0.682833  0.180667  1.0
  H  H240  1  0.046667  0.497833  0.317167  1.0
  H  H241  1  0.713333  0.152667  0.168833  1.0
  H  H242  1  0.713333  0.016167  0.847333  1.0
  H  H243  1  0.713333  0.831167  0.983833  1.0
  H  H244  1  0.620000  0.514000  0.164500  1.0
  H  H245  1  0.620000  0.650500  0.486000  1.0
  H  H246  1  0.620000  0.835500  0.349500  1.0
  H  H247  1  0.953333  0.180667  0.497833  1.0
  H  H248  1  0.953333  0.317167  0.819333  1.0
  H  H249  1  0.953333  0.502167  0.682833  1.0
  H  H250  1  0.286667  0.847333  0.831167  1.0
  H  H251  1  0.286667  0.983833  0.152667  1.0
  H  H252  1  0.286667  0.168833  0.016167  1.0
  H  H253  1  0.389700  0.622500  0.944000  1.0
  H  H254  1  0.389700  0.321500  0.377500  1.0
  H  H255  1  0.389700  0.056000  0.678500  1.0
  H  H256  1  0.056367  0.955833  0.610667  1.0
  H  H257  1  0.056367  0.654833  0.044167  1.0
  H  H258  1  0.056367  0.389333  0.345167  1.0
  H  H259  1  0.723033  0.289167  0.277333  1.0
  H  H260  1  0.723033  0.988167  0.710833  1.0
  H  H261  1  0.723033  0.722667  0.011833  1.0
  H  H262  1  0.610300  0.377500  0.056000  1.0
  H  H263  1  0.610300  0.678500  0.622500  1.0
  H  H264  1  0.610300  0.944000  0.321500  1.0
  H  H265  1  0.943633  0.044167  0.389333  1.0
  H  H266  1  0.943633  0.345167  0.955833  1.0
  H  H267  1  0.943633  0.610667  0.654833  1.0
  H  H268  1  0.276967  0.710833  0.722667  1.0
  H  H269  1  0.276967  0.011833  0.289167  1.0
  H  H270  1  0.276967  0.277333  0.988167  1.0
  H  H271  1  0.468900  0.662600  0.953300  1.0
  H  H272  1  0.468900  0.290700  0.337400  1.0
  H  H273  1  0.468900  0.046700  0.709300  1.0
  H  H274  1  0.135567  0.995933  0.619967  1.0
  H  H275  1  0.135567  0.624033  0.004067  1.0
  H  H276  1  0.135567  0.380033  0.375967  1.0
  H  H277  1  0.802233  0.329267  0.286633  1.0
  H  H278  1  0.802233  0.957367  0.670733  1.0
  H  H279  1  0.802233  0.713367  0.042633  1.0
  H  H280  1  0.531100  0.337400  0.046700  1.0
  H  H281  1  0.531100  0.709300  0.662600  1.0
  H  H282  1  0.531100  0.953300  0.290700  1.0
  H  H283  1  0.864433  0.004067  0.380033  1.0
  H  H284  1  0.864433  0.375967  0.995933  1.0
  H  H285  1  0.864433  0.619967  0.624033  1.0
  H  H286  1  0.197767  0.670733  0.713367  1.0
  H  H287  1  0.197767  0.042633  0.329267  1.0
  H  H288  1  0.197767  0.286633  0.957367  1.0
  H  H289  1  0.259800  0.404900  0.552700  1.0
  H  H290  1  0.259800  0.147800  0.595100  1.0
  H  H291  1  0.259800  0.447300  0.852200  1.0
  H  H292  1  0.926467  0.738233  0.219367  1.0
  H  H293  1  0.926467  0.481133  0.261767  1.0
  H  H294  1  0.926467  0.780633  0.518867  1.0
  H  H295  1  0.593133  0.071567  0.886033  1.0
  H  H296  1  0.593133  0.814467  0.928433  1.0
  H  H297  1  0.593133  0.113967  0.185533  1.0
  H  H298  1  0.740200  0.595100  0.447300  1.0
  H  H299  1  0.740200  0.852200  0.404900  1.0
  H  H300  1  0.740200  0.552700  0.147800  1.0
  H  H301  1  0.073533  0.261767  0.780633  1.0
  H  H302  1  0.073533  0.518867  0.738233  1.0
  H  H303  1  0.073533  0.219367  0.481133  1.0
  H  H304  1  0.406867  0.928433  0.113967  1.0
  H  H305  1  0.406867  0.185533  0.071567  1.0
  H  H306  1  0.406867  0.886033  0.814467  1.0
  H  H307  1  0.233300  0.428100  0.590100  1.0
  H  H308  1  0.233300  0.162000  0.571900  1.0
  H  H309  1  0.233300  0.409900  0.838000  1.0
  H  H310  1  0.899967  0.761433  0.256767  1.0
  H  H311  1  0.899967  0.495333  0.238567  1.0
  H  H312  1  0.899967  0.743233  0.504667  1.0
  H  H313  1  0.566633  0.094767  0.923433  1.0
  H  H314  1  0.566633  0.828667  0.905233  1.0
  H  H315  1  0.566633  0.076567  0.171333  1.0
  H  H316  1  0.766700  0.571900  0.409900  1.0
  H  H317  1  0.766700  0.838000  0.428100  1.0
  H  H318  1  0.766700  0.590100  0.162000  1.0
  H  H319  1  0.100033  0.238567  0.743233  1.0
  H  H320  1  0.100033  0.504667  0.761433  1.0
  H  H321  1  0.100033  0.256767  0.495333  1.0
  H  H322  1  0.433367  0.905233  0.076567  1.0
  H  H323  1  0.433367  0.171333  0.094767  1.0
  H  H324  1  0.433367  0.923433  0.828667  1.0
  H  H325  1  0.309500  0.416700  0.621600  1.0
  H  H326  1  0.309500  0.204900  0.583300  1.0
  H  H327  1  0.309500  0.378400  0.795100  1.0
  H  H328  1  0.976167  0.750033  0.288267  1.0
  H  H329  1  0.976167  0.538233  0.249967  1.0
  H  H330  1  0.976167  0.711733  0.461767  1.0
  H  H331  1  0.642833  0.083367  0.954933  1.0
  H  H332  1  0.642833  0.871567  0.916633  1.0
  H  H333  1  0.642833  0.045067  0.128433  1.0
  H  H334  1  0.690500  0.583300  0.378400  1.0
  H  H335  1  0.690500  0.795100  0.416700  1.0
  H  H336  1  0.690500  0.621600  0.204900  1.0
  H  H337  1  0.023833  0.249967  0.711733  1.0
  H  H338  1  0.023833  0.461767  0.750033  1.0
  H  H339  1  0.023833  0.288267  0.538233  1.0
  H  H340  1  0.357167  0.916633  0.045067  1.0
  H  H341  1  0.357167  0.128433  0.083367  1.0
  H  H342  1  0.357167  0.954933  0.871567  1.0
  H  H343  1  0.332400  0.395300  0.584300  1.0
  H  H344  1  0.332400  0.189000  0.604700  1.0
  H  H345  1  0.332400  0.415700  0.811000  1.0
  H  H346  1  0.999067  0.728633  0.250967  1.0
  H  H347  1  0.999067  0.522333  0.271367  1.0
  H  H348  1  0.999067  0.749033  0.477667  1.0
  H  H349  1  0.665733  0.061967  0.917633  1.0
  H  H350  1  0.665733  0.855667  0.938033  1.0
  H  H351  1  0.665733  0.082367  0.144333  1.0
  H  H352  1  0.667600  0.604700  0.415700  1.0
  H  H353  1  0.667600  0.811000  0.395300  1.0
  H  H354  1  0.667600  0.584300  0.189000  1.0
  H  H355  1  0.000933  0.271367  0.749033  1.0
  H  H356  1  0.000933  0.477667  0.728633  1.0
  H  H357  1  0.000933  0.250967  0.522333  1.0
  H  H358  1  0.334267  0.938033  0.082367  1.0
  H  H359  1  0.334267  0.144333  0.061967  1.0
  H  H360  1  0.334267  0.917633  0.855667  1.0
  H  H361  1  0.261200  0.486000  0.833800  1.0
  H  H362  1  0.261200  0.347800  0.514000  1.0
  H  H363  1  0.261200  0.166200  0.652200  1.0
  H  H364  1  0.927867  0.819333  0.500467  1.0
  H  H365  1  0.927867  0.681133  0.180667  1.0
  H  H366  1  0.927867  0.499533  0.318867  1.0
  H  H367  1  0.594533  0.152667  0.167133  1.0
  H  H368  1  0.594533  0.014467  0.847333  1.0
  H  H369  1  0.594533  0.832867  0.985533  1.0
  H  H370  1  0.738800  0.514000  0.166200  1.0
  H  H371  1  0.738800  0.652200  0.486000  1.0
  H  H372  1  0.738800  0.833800  0.347800  1.0
  H  H373  1  0.072133  0.180667  0.499533  1.0
  H  H374  1  0.072133  0.318867  0.819333  1.0
  H  H375  1  0.072133  0.500467  0.681133  1.0
  H  H376  1  0.405467  0.847333  0.832867  1.0
  H  H377  1  0.405467  0.985533  0.152667  1.0
  H  H378  1  0.405467  0.167133  0.014467  1.0
  H  H379  1  0.232600  0.490900  0.802900  1.0
  H  H380  1  0.232600  0.312000  0.509100  1.0
  H  H381  1  0.232600  0.197100  0.688000  1.0
  H  H382  1  0.899267  0.824233  0.469567  1.0
  H  H383  1  0.899267  0.645333  0.175767  1.0
  H  H384  1  0.899267  0.530433  0.354667  1.0
  H  H385  1  0.565933  0.157567  0.136233  1.0
  H  H386  1  0.565933  0.978667  0.842433  1.0
  H  H387  1  0.565933  0.863767  0.021333  1.0
  H  H388  1  0.767400  0.509100  0.197100  1.0
  H  H389  1  0.767400  0.688000  0.490900  1.0
  H  H390  1  0.767400  0.802900  0.312000  1.0
  H  H391  1  0.100733  0.175767  0.530433  1.0
  H  H392  1  0.100733  0.354667  0.824233  1.0
  H  H393  1  0.100733  0.469567  0.645333  1.0
  H  H394  1  0.434067  0.842433  0.863767  1.0
  H  H395  1  0.434067  0.021333  0.157567  1.0
  H  H396  1  0.434067  0.136233  0.978667  1.0
  H  H397  1  0.307900  0.454400  0.759400  1.0
  H  H398  1  0.307900  0.305000  0.545600  1.0
  H  H399  1  0.307900  0.240600  0.695000  1.0
  H  H400  1  0.974567  0.787733  0.426067  1.0
  H  H401  1  0.974567  0.638333  0.212267  1.0
  H  H402  1  0.974567  0.573933  0.361667  1.0
  H  H403  1  0.641233  0.121067  0.092733  1.0
  H  H404  1  0.641233  0.971667  0.878933  1.0
  H  H405  1  0.641233  0.907267  0.028333  1.0
  H  H406  1  0.692100  0.545600  0.240600  1.0
  H  H407  1  0.692100  0.695000  0.454400  1.0
  H  H408  1  0.692100  0.759400  0.305000  1.0
  H  H409  1  0.025433  0.212267  0.573933  1.0
  H  H410  1  0.025433  0.361667  0.787733  1.0
  H  H411  1  0.025433  0.426067  0.638333  1.0
  H  H412  1  0.358767  0.878933  0.907267  1.0
  H  H413  1  0.358767  0.028333  0.121067  1.0
  H  H414  1  0.358767  0.092733  0.971667  1.0
  H  H415  1  0.331900  0.452000  0.791900  1.0
  H  H416  1  0.331900  0.339900  0.548000  1.0
  H  H417  1  0.331900  0.208100  0.660100  1.0
  H  H418  1  0.998567  0.785333  0.458567  1.0
  H  H419  1  0.998567  0.673233  0.214667  1.0
  H  H420  1  0.998567  0.541433  0.326767  1.0
  H  H421  1  0.665233  0.118667  0.125233  1.0
  H  H422  1  0.665233  0.006567  0.881333  1.0
  H  H423  1  0.665233  0.874767  0.993433  1.0
  H  H424  1  0.668100  0.548000  0.208100  1.0
  H  H425  1  0.668100  0.660100  0.452000  1.0
  H  H426  1  0.668100  0.791900  0.339900  1.0
  H  H427  1  0.001433  0.214667  0.541433  1.0
  H  H428  1  0.001433  0.326767  0.785333  1.0
  H  H429  1  0.001433  0.458567  0.673233  1.0
  H  H430  1  0.334767  0.881333  0.874767  1.0
  H  H431  1  0.334767  0.993433  0.118667  1.0
  H  H432  1  0.334767  0.125233  0.006567  1.0
  H  H433  1  0.189000  0.494900  0.738100  1.0
  H  H434  1  0.189000  0.243200  0.505100  1.0
  H  H435  1  0.189000  0.261900  0.756800  1.0
  H  H436  1  0.855667  0.828233  0.404767  1.0
  H  H437  1  0.855667  0.576533  0.171767  1.0
  H  H438  1  0.855667  0.595233  0.423467  1.0
  H  H439  1  0.522333  0.161567  0.071433  1.0
  H  H440  1  0.522333  0.909867  0.838433  1.0
  H  H441  1  0.522333  0.928567  0.090133  1.0
  H  H442  1  0.811000  0.505100  0.261900  1.0
  H  H443  1  0.811000  0.756800  0.494900  1.0
  H  H444  1  0.811000  0.738100  0.243200  1.0
  H  H445  1  0.144333  0.171767  0.595233  1.0
  H  H446  1  0.144333  0.423467  0.828233  1.0
  H  H447  1  0.144333  0.404767  0.576533  1.0
  H  H448  1  0.477667  0.838433  0.928567  1.0
  H  H449  1  0.477667  0.090133  0.161567  1.0
  H  H450  1  0.477667  0.071433  0.909867  1.0
  H  H451  1  0.189800  0.472600  0.666200  1.0
  H  H452  1  0.189800  0.193600  0.527400  1.0
  H  H453  1  0.189800  0.333800  0.806400  1.0
  H  H454  1  0.856467  0.805933  0.332867  1.0
  H  H455  1  0.856467  0.526933  0.194067  1.0
  H  H456  1  0.856467  0.667133  0.473067  1.0
  H  H457  1  0.523133  0.139267  0.999533  1.0
  H  H458  1  0.523133  0.860267  0.860733  1.0
  H  H459  1  0.523133  0.000467  0.139733  1.0
  H  H460  1  0.810200  0.527400  0.333800  1.0
  H  H461  1  0.810200  0.806400  0.472600  1.0
  H  H462  1  0.810200  0.666200  0.193600  1.0
  H  H463  1  0.143533  0.194067  0.667133  1.0
  H  H464  1  0.143533  0.473067  0.805933  1.0
  H  H465  1  0.143533  0.332867  0.526933  1.0
  H  H466  1  0.476867  0.860733  0.000467  1.0
  H  H467  1  0.476867  0.139733  0.139267  1.0
  H  H468  1  0.476867  0.999533  0.860267  1.0
  H  H469  1  0.300100  0.479800  0.892000  1.0
  H  H470  1  0.300100  0.412200  0.520200  1.0
  H  H471  1  0.300100  0.108000  0.587800  1.0
  H  H472  1  0.966767  0.813133  0.558667  1.0
  H  H473  1  0.966767  0.745533  0.186867  1.0
  H  H474  1  0.966767  0.441333  0.254467  1.0
  H  H475  1  0.633433  0.146467  0.225333  1.0
  H  H476  1  0.633433  0.078867  0.853533  1.0
  H  H477  1  0.633433  0.774667  0.921133  1.0
  H  H478  1  0.699900  0.520200  0.108000  1.0
  H  H479  1  0.699900  0.587800  0.479800  1.0
  H  H480  1  0.699900  0.892000  0.412200  1.0
  H  H481  1  0.033233  0.186867  0.441333  1.0
  H  H482  1  0.033233  0.254467  0.813133  1.0
  H  H483  1  0.033233  0.558667  0.745533  1.0
  H  H484  1  0.366567  0.853533  0.774667  1.0
  H  H485  1  0.366567  0.921133  0.146467  1.0
  H  H486  1  0.366567  0.225333  0.078867  1.0
  H  H487  1  0.325500  0.483600  0.928800  1.0
  H  H488  1  0.325500  0.445200  0.516400  1.0
  H  H489  1  0.325500  0.071200  0.554800  1.0
  H  H490  1  0.992167  0.816933  0.595467  1.0
  H  H491  1  0.992167  0.778533  0.183067  1.0
  H  H492  1  0.992167  0.404533  0.221467  1.0
  H  H493  1  0.658833  0.150267  0.262133  1.0
  H  H494  1  0.658833  0.111867  0.849733  1.0
  H  H495  1  0.658833  0.737867  0.888133  1.0
  H  H496  1  0.674500  0.516400  0.071200  1.0
  H  H497  1  0.674500  0.554800  0.483600  1.0
  H  H498  1  0.674500  0.928800  0.445200  1.0
  H  H499  1  0.007833  0.183067  0.404533  1.0
  H  H500  1  0.007833  0.221467  0.816933  1.0
  H  H501  1  0.007833  0.595467  0.778533  1.0
  H  H502  1  0.341167  0.849733  0.737867  1.0
  H  H503  1  0.341167  0.888133  0.150267  1.0
  H  H504  1  0.341167  0.262133  0.111867  1.0
  H  H505  1  0.405300  0.454900  0.891300  1.0
  H  H506  1  0.405300  0.436400  0.545100  1.0
  H  H507  1  0.405300  0.108700  0.563600  1.0
  H  H508  1  0.071967  0.788233  0.557967  1.0
  H  H509  1  0.071967  0.769733  0.211767  1.0
  H  H510  1  0.071967  0.442033  0.230267  1.0
  H  H511  1  0.738633  0.121567  0.224633  1.0
  H  H512  1  0.738633  0.103067  0.878433  1.0
  H  H513  1  0.738633  0.775367  0.896933  1.0
  H  H514  1  0.594700  0.545100  0.108700  1.0
  H  H515  1  0.594700  0.563600  0.454900  1.0
  H  H516  1  0.594700  0.891300  0.436400  1.0
  H  H517  1  0.928033  0.211767  0.442033  1.0
  H  H518  1  0.928033  0.230267  0.788233  1.0
  H  H519  1  0.928033  0.557967  0.769733  1.0
  H  H520  1  0.261367  0.878433  0.775367  1.0
  H  H521  1  0.261367  0.896933  0.121567  1.0
  H  H522  1  0.261367  0.224633  0.103067  1.0
  H  H523  1  0.379700  0.450800  0.856500  1.0
  H  H524  1  0.379700  0.405700  0.549200  1.0
  H  H525  1  0.379700  0.143500  0.594300  1.0
  H  H526  1  0.046367  0.784133  0.523167  1.0
  H  H527  1  0.046367  0.739033  0.215867  1.0
  H  H528  1  0.046367  0.476833  0.260967  1.0
  H  H529  1  0.713033  0.117467  0.189833  1.0
  H  H530  1  0.713033  0.072367  0.882533  1.0
  H  H531  1  0.713033  0.810167  0.927633  1.0
  H  H532  1  0.620300  0.549200  0.143500  1.0
  H  H533  1  0.620300  0.594300  0.450800  1.0
  H  H534  1  0.620300  0.856500  0.405700  1.0
  H  H535  1  0.953633  0.215867  0.476833  1.0
  H  H536  1  0.953633  0.260967  0.784133  1.0
  H  H537  1  0.953633  0.523167  0.739033  1.0
  H  H538  1  0.286967  0.882533  0.810167  1.0
  H  H539  1  0.286967  0.927633  0.117467  1.0
  H  H540  1  0.286967  0.189833  0.072367  1.0
  H  H541  1  0.376100  0.491400  0.996600  1.0
  H  H542  1  0.376100  0.505200  0.508600  1.0
  H  H543  1  0.376100  0.003400  0.494800  1.0
  H  H544  1  0.042767  0.824733  0.663267  1.0
  H  H545  1  0.042767  0.838533  0.175267  1.0
  H  H546  1  0.042767  0.336733  0.161467  1.0
  H  H547  1  0.709433  0.158067  0.329933  1.0
  H  H548  1  0.709433  0.171867  0.841933  1.0
  H  H549  1  0.709433  0.670067  0.828133  1.0
  H  H550  1  0.623900  0.508600  0.003400  1.0
  H  H551  1  0.623900  0.494800  0.491400  1.0
  H  H552  1  0.623900  0.996600  0.505200  1.0
  H  H553  1  0.957233  0.175267  0.336733  1.0
  H  H554  1  0.957233  0.161467  0.824733  1.0
  H  H555  1  0.957233  0.663267  0.838533  1.0
  H  H556  1  0.290567  0.841933  0.670067  1.0
  H  H557  1  0.290567  0.828133  0.158067  1.0
  H  H558  1  0.290567  0.329933  0.171867  1.0
  H  H559  1  0.457000  0.482000  0.025700  1.0
  H  H560  1  0.457000  0.543700  0.518000  1.0
  H  H561  1  0.457000  0.974300  0.456300  1.0
  H  H562  1  0.123667  0.815333  0.692367  1.0
  H  H563  1  0.123667  0.877033  0.184667  1.0
  H  H564  1  0.123667  0.307633  0.122967  1.0
  H  H565  1  0.790333  0.148667  0.359033  1.0
  H  H566  1  0.790333  0.210367  0.851333  1.0
  H  H567  1  0.790333  0.640967  0.789633  1.0
  H  H568  1  0.543000  0.518000  0.974300  1.0
  H  H569  1  0.543000  0.456300  0.482000  1.0
  H  H570  1  0.543000  0.025700  0.543700  1.0
  H  H571  1  0.876333  0.184667  0.307633  1.0
  H  H572  1  0.876333  0.122967  0.815333  1.0
  H  H573  1  0.876333  0.692367  0.877033  1.0
  H  H574  1  0.209667  0.851333  0.640967  1.0
  H  H575  1  0.209667  0.789633  0.148667  1.0
  H  H576  1  0.209667  0.359033  0.210367  1.0
  H  H577  1  0.495100  0.468400  0.935000  1.0
  H  H578  1  0.495100  0.466600  0.531600  1.0
  H  H579  1  0.495100  0.065000  0.533400  1.0
  H  H580  1  0.161767  0.801733  0.601667  1.0
  H  H581  1  0.161767  0.799933  0.198267  1.0
  H  H582  1  0.161767  0.398333  0.200067  1.0
  H  H583  1  0.828433  0.135067  0.268333  1.0
  H  H584  1  0.828433  0.133267  0.864933  1.0
  H  H585  1  0.828433  0.731667  0.866733  1.0
  H  H586  1  0.504900  0.531600  0.065000  1.0
  H  H587  1  0.504900  0.533400  0.468400  1.0
  H  H588  1  0.504900  0.935000  0.466600  1.0
  H  H589  1  0.838233  0.198267  0.398333  1.0
  H  H590  1  0.838233  0.200067  0.801733  1.0
  H  H591  1  0.838233  0.601667  0.799933  1.0
  H  H592  1  0.171567  0.864933  0.731667  1.0
  H  H593  1  0.171567  0.866733  0.135067  1.0
  H  H594  1  0.171567  0.268333  0.133267  1.0
  H  H595  1  0.482100  0.490200  0.959600  1.0
  H  H596  1  0.482100  0.469400  0.509800  1.0
  H  H597  1  0.482100  0.040400  0.530600  1.0
  H  H598  1  0.148767  0.823533  0.626267  1.0
  H  H599  1  0.148767  0.802733  0.176467  1.0
  H  H600  1  0.148767  0.373733  0.197267  1.0
  H  H601  1  0.815433  0.156867  0.292933  1.0
  H  H602  1  0.815433  0.136067  0.843133  1.0
  H  H603  1  0.815433  0.707067  0.863933  1.0
  H  H604  1  0.517900  0.509800  0.040400  1.0
  H  H605  1  0.517900  0.530600  0.490200  1.0
  H  H606  1  0.517900  0.959600  0.469400  1.0
  H  H607  1  0.851233  0.176467  0.373733  1.0
  H  H608  1  0.851233  0.197267  0.823533  1.0
  H  H609  1  0.851233  0.626267  0.802733  1.0
  H  H610  1  0.184567  0.843133  0.707067  1.0
  H  H611  1  0.184567  0.863933  0.156867  1.0
  H  H612  1  0.184567  0.292933  0.136067  1.0
  H  H613  1  0.615600  0.607800  0.860700  1.0
  H  H614  1  0.615600  0.252900  0.392200  1.0
  H  H615  1  0.615600  0.139300  0.747100  1.0
  H  H616  1  0.282267  0.941133  0.527367  1.0
  H  H617  1  0.282267  0.586233  0.058867  1.0
  H  H618  1  0.282267  0.472633  0.413767  1.0
  H  H619  1  0.948933  0.274467  0.194033  1.0
  H  H620  1  0.948933  0.919567  0.725533  1.0
  H  H621  1  0.948933  0.805967  0.080433  1.0
  H  H622  1  0.384400  0.392200  0.139300  1.0
  H  H623  1  0.384400  0.747100  0.607800  1.0
  H  H624  1  0.384400  0.860700  0.252900  1.0
  H  H625  1  0.717733  0.058867  0.472633  1.0
  H  H626  1  0.717733  0.413767  0.941133  1.0
  H  H627  1  0.717733  0.527367  0.586233  1.0
  H  H628  1  0.051067  0.725533  0.805967  1.0
  H  H629  1  0.051067  0.080433  0.274467  1.0
  H  H630  1  0.051067  0.194033  0.919567  1.0
  H  H631  1  0.563000  0.603800  0.867200  1.0
  H  H632  1  0.563000  0.263400  0.396200  1.0
  H  H633  1  0.563000  0.132800  0.736600  1.0
  H  H634  1  0.229667  0.937133  0.533867  1.0
  H  H635  1  0.229667  0.596733  0.062867  1.0
  H  H636  1  0.229667  0.466133  0.403267  1.0
  H  H637  1  0.896333  0.270467  0.200533  1.0
  H  H638  1  0.896333  0.930067  0.729533  1.0
  H  H639  1  0.896333  0.799467  0.069933  1.0
  H  H640  1  0.437000  0.396200  0.132800  1.0
  H  H641  1  0.437000  0.736600  0.603800  1.0
  H  H642  1  0.437000  0.867200  0.263400  1.0
  H  H643  1  0.770333  0.062867  0.466133  1.0
  H  H644  1  0.770333  0.403267  0.937133  1.0
  H  H645  1  0.770333  0.533867  0.596733  1.0
  H  H646  1  0.103667  0.729533  0.799467  1.0
  H  H647  1  0.103667  0.069933  0.270467  1.0
  H  H648  1  0.103667  0.200533  0.930067  1.0
  H  H649  1  0.556900  0.672900  0.914800  1.0
  H  H650  1  0.556900  0.241900  0.327100  1.0
  H  H651  1  0.556900  0.085200  0.758100  1.0
  H  H652  1  0.223567  0.006233  0.581467  1.0
  H  H653  1  0.223567  0.575233  0.993767  1.0
  H  H654  1  0.223567  0.418533  0.424767  1.0
  H  H655  1  0.890233  0.339567  0.248133  1.0
  H  H656  1  0.890233  0.908567  0.660433  1.0
  H  H657  1  0.890233  0.751867  0.091433  1.0
  H  H658  1  0.443100  0.327100  0.085200  1.0
  H  H659  1  0.443100  0.758100  0.672900  1.0
  H  H660  1  0.443100  0.914800  0.241900  1.0
  H  H661  1  0.776433  0.993767  0.418533  1.0
  H  H662  1  0.776433  0.424767  0.006233  1.0
  H  H663  1  0.776433  0.581467  0.575233  1.0
  H  H664  1  0.109767  0.660433  0.751867  1.0
  H  H665  1  0.109767  0.091433  0.339567  1.0
  H  H666  1  0.109767  0.248133  0.908567  1.0
  H  H667  1  0.616100  0.675500  0.907600  1.0
  H  H668  1  0.616100  0.232100  0.324500  1.0
  H  H669  1  0.616100  0.092400  0.767900  1.0
  H  H670  1  0.282767  0.008833  0.574267  1.0
  H  H671  1  0.282767  0.565433  0.991167  1.0
  H  H672  1  0.282767  0.425733  0.434567  1.0
  H  H673  1  0.949433  0.342167  0.240933  1.0
  H  H674  1  0.949433  0.898767  0.657833  1.0
  H  H675  1  0.949433  0.759067  0.101233  1.0
  H  H676  1  0.383900  0.324500  0.092400  1.0
  H  H677  1  0.383900  0.767900  0.675500  1.0
  H  H678  1  0.383900  0.907600  0.232100  1.0
  H  H679  1  0.717233  0.991167  0.425733  1.0
  H  H680  1  0.717233  0.434567  0.008833  1.0
  H  H681  1  0.717233  0.574267  0.565433  1.0
  H  H682  1  0.050567  0.657833  0.759067  1.0
  H  H683  1  0.050567  0.101233  0.342167  1.0
  H  H684  1  0.050567  0.240933  0.898767  1.0
  H  H685  1  0.617300  0.434200  0.947900  1.0
  H  H686  1  0.617300  0.513700  0.565800  1.0
  H  H687  1  0.617300  0.052100  0.486300  1.0
  H  H688  1  0.283967  0.767533  0.614567  1.0
  H  H689  1  0.283967  0.847033  0.232467  1.0
  H  H690  1  0.283967  0.385433  0.152967  1.0
  H  H691  1  0.950633  0.100867  0.281233  1.0
  H  H692  1  0.950633  0.180367  0.899133  1.0
  H  H693  1  0.950633  0.718767  0.819633  1.0
  H  H694  1  0.382700  0.565800  0.052100  1.0
  H  H695  1  0.382700  0.486300  0.434200  1.0
  H  H696  1  0.382700  0.947900  0.513700  1.0
  H  H697  1  0.716033  0.232467  0.385433  1.0
  H  H698  1  0.716033  0.152967  0.767533  1.0
  H  H699  1  0.716033  0.614567  0.847033  1.0
  H  H700  1  0.049367  0.899133  0.718767  1.0
  H  H701  1  0.049367  0.819633  0.100867  1.0
  H  H702  1  0.049367  0.281233  0.180367  1.0
  H  H703  1  0.561400  0.443900  0.950100  1.0
  H  H704  1  0.561400  0.506200  0.556100  1.0
  H  H705  1  0.561400  0.049900  0.493800  1.0
  H  H706  1  0.228067  0.777233  0.616767  1.0
  H  H707  1  0.228067  0.839533  0.222767  1.0
  H  H708  1  0.228067  0.383233  0.160467  1.0
  H  H709  1  0.894733  0.110567  0.283433  1.0
  H  H710  1  0.894733  0.172867  0.889433  1.0
  H  H711  1  0.894733  0.716567  0.827133  1.0
  H  H712  1  0.438600  0.556100  0.049900  1.0
  H  H713  1  0.438600  0.493800  0.443900  1.0
  H  H714  1  0.438600  0.950100  0.506200  1.0
  H  H715  1  0.771933  0.222767  0.383233  1.0
  H  H716  1  0.771933  0.160467  0.777233  1.0
  H  H717  1  0.771933  0.616767  0.839533  1.0
  H  H718  1  0.105267  0.889433  0.716567  1.0
  H  H719  1  0.105267  0.827133  0.110567  1.0
  H  H720  1  0.105267  0.283433  0.172867  1.0
  H  H721  1  0.561600  0.463300  0.021300  1.0
  H  H722  1  0.561600  0.558000  0.536700  1.0
  H  H723  1  0.561600  0.978700  0.442000  1.0
  H  H724  1  0.228267  0.796633  0.687967  1.0
  H  H725  1  0.228267  0.891333  0.203367  1.0
  H  H726  1  0.228267  0.312033  0.108667  1.0
  H  H727  1  0.894933  0.129967  0.354633  1.0
  H  H728  1  0.894933  0.224667  0.870033  1.0
  H  H729  1  0.894933  0.645367  0.775333  1.0
  H  H730  1  0.438400  0.536700  0.978700  1.0
  H  H731  1  0.438400  0.442000  0.463300  1.0
  H  H732  1  0.438400  0.021300  0.558000  1.0
  H  H733  1  0.771733  0.203367  0.312033  1.0
  H  H734  1  0.771733  0.108667  0.796633  1.0
  H  H735  1  0.771733  0.687967  0.891333  1.0
  H  H736  1  0.105067  0.870033  0.645367  1.0
  H  H737  1  0.105067  0.775333  0.129967  1.0
  H  H738  1  0.105067  0.354633  0.224667  1.0
  H  H739  1  0.616600  0.455100  0.021700  1.0
  H  H740  1  0.616600  0.566600  0.544900  1.0
  H  H741  1  0.616600  0.978300  0.433400  1.0
  H  H742  1  0.283267  0.788433  0.688367  1.0
  H  H743  1  0.283267  0.899933  0.211567  1.0
  H  H744  1  0.283267  0.311633  0.100067  1.0
  H  H745  1  0.949933  0.121767  0.355033  1.0
  H  H746  1  0.949933  0.233267  0.878233  1.0
  H  H747  1  0.949933  0.644967  0.766733  1.0
  H  H748  1  0.383400  0.544900  0.978300  1.0
  H  H749  1  0.383400  0.433400  0.455100  1.0
  H  H750  1  0.383400  0.021700  0.566600  1.0
  H  H751  1  0.716733  0.211567  0.311633  1.0
  H  H752  1  0.716733  0.100067  0.788433  1.0
  H  H753  1  0.716733  0.688367  0.899933  1.0
  H  H754  1  0.050067  0.878233  0.644967  1.0
  H  H755  1  0.050067  0.766733  0.121767  1.0
  H  H756  1  0.050067  0.355033  0.233267  1.0
  H  H757  1  0.650000  0.686500  0.876100  1.0
  H  H758  1  0.650000  0.189600  0.313500  1.0
  H  H759  1  0.650000  0.123900  0.810400  1.0
  H  H760  1  0.316667  0.019833  0.542767  1.0
  H  H761  1  0.316667  0.522933  0.980167  1.0
  H  H762  1  0.316667  0.457233  0.477067  1.0
  H  H763  1  0.983333  0.353167  0.209433  1.0
  H  H764  1  0.983333  0.856267  0.646833  1.0
  H  H765  1  0.983333  0.790567  0.143733  1.0
  H  H766  1  0.350000  0.313500  0.123900  1.0
  H  H767  1  0.350000  0.810400  0.686500  1.0
  H  H768  1  0.350000  0.876100  0.189600  1.0
  H  H769  1  0.683333  0.980167  0.457233  1.0
  H  H770  1  0.683333  0.477067  0.019833  1.0
  H  H771  1  0.683333  0.542767  0.522933  1.0
  H  H772  1  0.016667  0.646833  0.790567  1.0
  H  H773  1  0.016667  0.143733  0.353167  1.0
  H  H774  1  0.016667  0.209433  0.856267  1.0
  H  H775  1  0.635700  0.697700  0.844800  1.0
  H  H776  1  0.635700  0.147100  0.302300  1.0
  H  H777  1  0.635700  0.155200  0.852900  1.0
  H  H778  1  0.302367  0.031033  0.511467  1.0
  H  H779  1  0.302367  0.480433  0.968967  1.0
  H  H780  1  0.302367  0.488533  0.519567  1.0
  H  H781  1  0.969033  0.364367  0.178133  1.0
  H  H782  1  0.969033  0.813767  0.635633  1.0
  H  H783  1  0.969033  0.821867  0.186233  1.0
  H  H784  1  0.364300  0.302300  0.155200  1.0
  H  H785  1  0.364300  0.852900  0.697700  1.0
  H  H786  1  0.364300  0.844800  0.147100  1.0
  H  H787  1  0.697633  0.968967  0.488533  1.0
  H  H788  1  0.697633  0.519567  0.031033  1.0
  H  H789  1  0.697633  0.511467  0.480433  1.0
  H  H790  1  0.030967  0.635633  0.821867  1.0
  H  H791  1  0.030967  0.186233  0.364367  1.0
  H  H792  1  0.030967  0.178133  0.813767  1.0
  H  H793  1  0.641600  0.624800  0.794300  1.0
  H  H794  1  0.641600  0.169500  0.375200  1.0
  H  H795  1  0.641600  0.205700  0.830500  1.0
  H  H796  1  0.308267  0.958133  0.460967  1.0
  H  H797  1  0.308267  0.502833  0.041867  1.0
  H  H798  1  0.308267  0.539033  0.497167  1.0
  H  H799  1  0.974933  0.291467  0.127633  1.0
  H  H800  1  0.974933  0.836167  0.708533  1.0
  H  H801  1  0.974933  0.872367  0.163833  1.0
  H  H802  1  0.358400  0.375200  0.205700  1.0
  H  H803  1  0.358400  0.830500  0.624800  1.0
  H  H804  1  0.358400  0.794300  0.169500  1.0
  H  H805  1  0.691733  0.041867  0.539033  1.0
  H  H806  1  0.691733  0.497167  0.958133  1.0
  H  H807  1  0.691733  0.460967  0.502833  1.0
  H  H808  1  0.025067  0.708533  0.872367  1.0
  H  H809  1  0.025067  0.163833  0.291467  1.0
  H  H810  1  0.025067  0.127633  0.836167  1.0
  H  H811  1  0.656300  0.618900  0.826700  1.0
  H  H812  1  0.656300  0.207800  0.381100  1.0
  H  H813  1  0.656300  0.173300  0.792200  1.0
  H  H814  1  0.322967  0.952233  0.493367  1.0
  H  H815  1  0.322967  0.541133  0.047767  1.0
  H  H816  1  0.322967  0.506633  0.458867  1.0
  H  H817  1  0.989633  0.285567  0.160033  1.0
  H  H818  1  0.989633  0.874467  0.714433  1.0
  H  H819  1  0.989633  0.839967  0.125533  1.0
  H  H820  1  0.343700  0.381100  0.173300  1.0
  H  H821  1  0.343700  0.792200  0.618900  1.0
  H  H822  1  0.343700  0.826700  0.207800  1.0
  H  H823  1  0.677033  0.047767  0.506633  1.0
  H  H824  1  0.677033  0.458867  0.952233  1.0
  H  H825  1  0.677033  0.493367  0.541133  1.0
  H  H826  1  0.010367  0.714433  0.839967  1.0
  H  H827  1  0.010367  0.125533  0.285567  1.0
  H  H828  1  0.010367  0.160033  0.874467  1.0
  H  H829  1  0.596700  0.707500  0.779900  1.0
  H  H830  1  0.596700  0.072400  0.292500  1.0
  H  H831  1  0.596700  0.220100  0.927600  1.0
  H  H832  1  0.263367  0.040833  0.446567  1.0
  H  H833  1  0.263367  0.405733  0.959167  1.0
  H  H834  1  0.263367  0.553433  0.594267  1.0
  H  H835  1  0.930033  0.374167  0.113233  1.0
  H  H836  1  0.930033  0.739067  0.625833  1.0
  H  H837  1  0.930033  0.886767  0.260933  1.0
  H  H838  1  0.403300  0.292500  0.220100  1.0
  H  H839  1  0.403300  0.927600  0.707500  1.0
  H  H840  1  0.403300  0.779900  0.072400  1.0
  H  H841  1  0.736633  0.959167  0.553433  1.0
  H  H842  1  0.736633  0.594267  0.040833  1.0
  H  H843  1  0.736633  0.446567  0.405733  1.0
  H  H844  1  0.069967  0.625833  0.886767  1.0
  H  H845  1  0.069967  0.260933  0.374167  1.0
  H  H846  1  0.069967  0.113233  0.739067  1.0
  H  H847  1  0.596000  0.683700  0.707800  1.0
  H  H848  1  0.596000  0.024100  0.316300  1.0
  H  H849  1  0.596000  0.292200  0.975900  1.0
  H  H850  1  0.262667  0.017033  0.374467  1.0
  H  H851  1  0.262667  0.357433  0.982967  1.0
  H  H852  1  0.262667  0.625533  0.642567  1.0
  H  H853  1  0.929333  0.350367  0.041133  1.0
  H  H854  1  0.929333  0.690767  0.649633  1.0
  H  H855  1  0.929333  0.958867  0.309233  1.0
  H  H856  1  0.404000  0.316300  0.292200  1.0
  H  H857  1  0.404000  0.975900  0.683700  1.0
  H  H858  1  0.404000  0.707800  0.024100  1.0
  H  H859  1  0.737333  0.982967  0.625533  1.0
  H  H860  1  0.737333  0.642567  0.017033  1.0
  H  H861  1  0.737333  0.374467  0.357433  1.0
  H  H862  1  0.070667  0.649633  0.958867  1.0
  H  H863  1  0.070667  0.309233  0.350367  1.0
  H  H864  1  0.070667  0.041133  0.690767  1.0
  H  H865  1  0.650400  0.600500  0.594000  1.0
  H  H866  1  0.650400  0.993500  0.399500  1.0
  H  H867  1  0.650400  0.406000  0.006500  1.0
  H  H868  1  0.317067  0.933833  0.260667  1.0
  H  H869  1  0.317067  0.326833  0.066167  1.0
  H  H870  1  0.317067  0.739333  0.673167  1.0
  H  H871  1  0.983733  0.267167  0.927333  1.0
  H  H872  1  0.983733  0.660167  0.732833  1.0
  H  H873  1  0.983733  0.072667  0.339833  1.0
  H  H874  1  0.349600  0.399500  0.406000  1.0
  H  H875  1  0.349600  0.006500  0.600500  1.0
  H  H876  1  0.349600  0.594000  0.993500  1.0
  H  H877  1  0.682933  0.066167  0.739333  1.0
  H  H878  1  0.682933  0.673167  0.933833  1.0
  H  H879  1  0.682933  0.260667  0.326833  1.0
  H  H880  1  0.016267  0.732833  0.072667  1.0
  H  H881  1  0.016267  0.339833  0.267167  1.0
  H  H882  1  0.016267  0.927333  0.660167  1.0
  H  H883  1  0.635100  0.628700  0.632400  1.0
  H  H884  1  0.635100  0.003700  0.371300  1.0
  H  H885  1  0.635100  0.367600  0.996300  1.0
  H  H886  1  0.301767  0.962033  0.299067  1.0
  H  H887  1  0.301767  0.337033  0.037967  1.0
  H  H888  1  0.301767  0.700933  0.662967  1.0
  H  H889  1  0.968433  0.295367  0.965733  1.0
  H  H890  1  0.968433  0.670367  0.704633  1.0
  H  H891  1  0.968433  0.034267  0.329633  1.0
  H  H892  1  0.364900  0.371300  0.367600  1.0
  H  H893  1  0.364900  0.996300  0.628700  1.0
  H  H894  1  0.364900  0.632400  0.003700  1.0
  H  H895  1  0.698233  0.037967  0.700933  1.0
  H  H896  1  0.698233  0.662967  0.962033  1.0
  H  H897  1  0.698233  0.299067  0.337033  1.0
  H  H898  1  0.031567  0.704633  0.034267  1.0
  H  H899  1  0.031567  0.329633  0.295367  1.0
  H  H900  1  0.031567  0.965733  0.670367  1.0
  H  H901  1  0.639200  0.580500  0.654600  1.0
  H  H902  1  0.639200  0.074100  0.419500  1.0
  H  H903  1  0.639200  0.345400  0.925900  1.0
  H  H904  1  0.305867  0.913833  0.321267  1.0
  H  H905  1  0.305867  0.407433  0.086167  1.0
  H  H906  1  0.305867  0.678733  0.592567  1.0
  H  H907  1  0.972533  0.247167  0.987933  1.0
  H  H908  1  0.972533  0.740767  0.752833  1.0
  H  H909  1  0.972533  0.012067  0.259233  1.0
  H  H910  1  0.360800  0.419500  0.345400  1.0
  H  H911  1  0.360800  0.925900  0.580500  1.0
  H  H912  1  0.360800  0.654600  0.074100  1.0
  H  H913  1  0.694133  0.086167  0.678733  1.0
  H  H914  1  0.694133  0.592567  0.913833  1.0
  H  H915  1  0.694133  0.321267  0.407433  1.0
  H  H916  1  0.027467  0.752833  0.012067  1.0
  H  H917  1  0.027467  0.259233  0.247167  1.0
  H  H918  1  0.027467  0.987933  0.740767  1.0
  H  H919  1  0.655700  0.550400  0.616800  1.0
  H  H920  1  0.655700  0.066400  0.449600  1.0
  H  H921  1  0.655700  0.383200  0.933600  1.0
  H  H922  1  0.322367  0.883733  0.283467  1.0
  H  H923  1  0.322367  0.399733  0.116267  1.0
  H  H924  1  0.322367  0.716533  0.600267  1.0
  H  H925  1  0.989033  0.217067  0.950133  1.0
  H  H926  1  0.989033  0.733067  0.782933  1.0
  H  H927  1  0.989033  0.049867  0.266933  1.0
  H  H928  1  0.344300  0.449600  0.383200  1.0
  H  H929  1  0.344300  0.933600  0.550400  1.0
  H  H930  1  0.344300  0.616800  0.066400  1.0
  H  H931  1  0.677633  0.116267  0.716533  1.0
  H  H932  1  0.677633  0.600267  0.883733  1.0
  H  H933  1  0.677633  0.283467  0.399733  1.0
  H  H934  1  0.010967  0.782933  0.049867  1.0
  H  H935  1  0.010967  0.266933  0.217067  1.0
  H  H936  1  0.010967  0.950133  0.733067  1.0
  Pd  Pd937  1  0.317580  0.467250  0.843470  1.0
  Pd  Pd938  1  0.317580  0.376220  0.532750  1.0
  Pd  Pd939  1  0.317580  0.156530  0.623780  1.0
  Pd  Pd940  1  0.984247  0.800583  0.510137  1.0
  Pd  Pd941  1  0.984247  0.709553  0.199417  1.0
  Pd  Pd942  1  0.984247  0.489863  0.290447  1.0
  Pd  Pd943  1  0.650913  0.133917  0.176803  1.0
  Pd  Pd944  1  0.650913  0.042887  0.866083  1.0
  Pd  Pd945  1  0.650913  0.823197  0.957113  1.0
  Pd  Pd946  1  0.682420  0.532750  0.156530  1.0
  Pd  Pd947  1  0.682420  0.623780  0.467250  1.0
  Pd  Pd948  1  0.682420  0.843470  0.376220  1.0
  Pd  Pd949  1  0.015753  0.199417  0.489863  1.0
  Pd  Pd950  1  0.015753  0.290447  0.800583  1.0
  Pd  Pd951  1  0.015753  0.510137  0.709553  1.0
  Pd  Pd952  1  0.349087  0.866083  0.823197  1.0
  Pd  Pd953  1  0.349087  0.957113  0.133917  1.0
  Pd  Pd954  1  0.349087  0.176803  0.042887  1.0
  Pd  Pd955  1  0.665500  0.646130  0.878750  1.0
  Pd  Pd956  1  0.665500  0.232620  0.353870  1.0
  Pd  Pd957  1  0.665500  0.121250  0.767380  1.0
  Pd  Pd958  1  0.332167  0.979463  0.545417  1.0
  Pd  Pd959  1  0.332167  0.565953  0.020537  1.0
  Pd  Pd960  1  0.332167  0.454583  0.434047  1.0
  Pd  Pd961  1  0.998833  0.312797  0.212083  1.0
  Pd  Pd962  1  0.998833  0.899287  0.687203  1.0
  Pd  Pd963  1  0.998833  0.787917  0.100713  1.0
  Pd  Pd964  1  0.334500  0.353870  0.121250  1.0
  Pd  Pd965  1  0.334500  0.767380  0.646130  1.0
  Pd  Pd966  1  0.334500  0.878750  0.232620  1.0
  Pd  Pd967  1  0.667833  0.020537  0.454583  1.0
  Pd  Pd968  1  0.667833  0.434047  0.979463  1.0
  Pd  Pd969  1  0.667833  0.545417  0.565953  1.0
  Pd  Pd970  1  0.001167  0.687203  0.787917  1.0
  Pd  Pd971  1  0.001167  0.100713  0.312797  1.0
  Pd  Pd972  1  0.001167  0.212083  0.899287  1.0
  C  C973  1  0.382800  0.568700  0.878800  1
  C  C974  1  0.382800  0.310100  0.431300  1
  C  C975  1  0.382800  0.121200  0.689900  1
  C  C976  1  0.049467  0.902033  0.545467  1
  C  C977  1  0.049467  0.643433  0.097967  1
  C  C978  1  0.049467  0.454533  0.356567  1
  C  C979  1  0.716133  0.235367  0.212133  1
  C  C980  1  0.716133  0.976767  0.764633  1
  C  C981  1  0.716133  0.787867  0.023233  1
  C  C982  1  0.617200  0.431300  0.121200  1
  C  C983  1  0.617200  0.689900  0.568700  1
  C  C984  1  0.617200  0.878800  0.310100  1
  C  C985  1  0.950533  0.097967  0.454533  1
  C  C986  1  0.950533  0.356567  0.902033  1
  C  C987  1  0.950533  0.545467  0.643433  1
  C  C988  1  0.283867  0.764633  0.787867  1
  C  C989  1  0.283867  0.023233  0.235367  1
  C  C990  1  0.283867  0.212133  0.976767  1
  C  C991  1  0.393600  0.586300  0.883700  1
  C  C992  1  0.393600  0.297400  0.413700  1
  C  C993  1  0.393600  0.116300  0.702600  1
  C  C994  1  0.060267  0.919633  0.550367  1
  C  C995  1  0.060267  0.630733  0.080367  1
  C  C996  1  0.060267  0.449633  0.369267  1
  C  C997  1  0.726933  0.252967  0.217033  1
  C  C998  1  0.726933  0.964067  0.747033  1
  C  C999  1  0.726933  0.782967  0.035933  1
  C  C1000  1  0.606400  0.413700  0.116300  1
  C  C1001  1  0.606400  0.702600  0.586300  1
  C  C1002  1  0.606400  0.883700  0.297400  1
  C  C1003  1  0.939733  0.080367  0.449633  1
  C  C1004  1  0.939733  0.369267  0.919633  1
  C  C1005  1  0.939733  0.550367  0.630733  1
  C  C1006  1  0.273067  0.747033  0.782967  1
  C  C1007  1  0.273067  0.035933  0.252967  1
  C  C1008  1  0.273067  0.217033  0.964067  1
  C  C1009  1  0.403100  0.653400  0.904700  1
  C  C1010  1  0.403100  0.251300  0.346600  1
  C  C1011  1  0.403100  0.095300  0.748700  1
  C  C1012  1  0.069767  0.986733  0.571367  1
  C  C1013  1  0.069767  0.584633  0.013267  1
  C  C1014  1  0.069767  0.428633  0.415367  1
  C  C1015  1  0.736433  0.320067  0.238033  1
  C  C1016  1  0.736433  0.917967  0.679933  1
  C  C1017  1  0.736433  0.761967  0.082033  1
  C  C1018  1  0.596900  0.346600  0.095300  1
  C  C1019  1  0.596900  0.748700  0.653400  1
  C  C1020  1  0.596900  0.904700  0.251300  1
  C  C1021  1  0.930233  0.013267  0.428633  1
  C  C1022  1  0.930233  0.415367  0.986733  1
  C  C1023  1  0.930233  0.571367  0.584633  1
  C  C1024  1  0.263567  0.679933  0.761967  1
  C  C1025  1  0.263567  0.082033  0.320067  1
  C  C1026  1  0.263567  0.238033  0.917967  1
  C  C1027  1  0.389200  0.630900  0.898200  1
  C  C1028  1  0.389200  0.267300  0.369100  1
  C  C1029  1  0.389200  0.101800  0.732700  1
  C  C1030  1  0.055867  0.964233  0.564867  1
  C  C1031  1  0.055867  0.600633  0.035767  1
  C  C1032  1  0.055867  0.435133  0.399367  1
  C  C1033  1  0.722533  0.297567  0.231533  1
  C  C1034  1  0.722533  0.933967  0.702433  1
  C  C1035  1  0.722533  0.768467  0.066033  1
  C  C1036  1  0.610800  0.369100  0.101800  1
  C  C1037  1  0.610800  0.732700  0.630900  1
  C  C1038  1  0.610800  0.898200  0.267300  1
  C  C1039  1  0.944133  0.035767  0.435133  1
  C  C1040  1  0.944133  0.399367  0.964233  1
  C  C1041  1  0.944133  0.564867  0.600633  1
  C  C1042  1  0.277467  0.702433  0.768467  1
  C  C1043  1  0.277467  0.066033  0.297567  1
  C  C1044  1  0.277467  0.231533  0.933967  1
  C  C1045  1  0.408400  0.610400  0.890800  1
  C  C1046  1  0.408400  0.280400  0.389600  1
  C  C1047  1  0.408400  0.109200  0.719600  1
  C  C1048  1  0.075067  0.943733  0.557467  1
  C  C1049  1  0.075067  0.613733  0.056267  1
  C  C1050  1  0.075067  0.442533  0.386267  1
  C  C1051  1  0.741733  0.277067  0.224133  1
  C  C1052  1  0.741733  0.947067  0.722933  1
  C  C1053  1  0.741733  0.775867  0.052933  1
  C  C1054  1  0.591600  0.389600  0.109200  1
  C  C1055  1  0.591600  0.719600  0.610400  1
  C  C1056  1  0.591600  0.890800  0.280400  1
  C  C1057  1  0.924933  0.056267  0.442533  1
  C  C1058  1  0.924933  0.386267  0.943733  1
  C  C1059  1  0.924933  0.557467  0.613733  1
  C  C1060  1  0.258267  0.722933  0.775867  1
  C  C1061  1  0.258267  0.052933  0.277067  1
  C  C1062  1  0.258267  0.224133  0.947067  1
  C  C1063  1  0.441600  0.612300  0.889800  1
  C  C1064  1  0.441600  0.277500  0.387700  1
  C  C1065  1  0.441600  0.110200  0.722500  1
  C  C1066  1  0.108267  0.945633  0.556467  1
  C  C1067  1  0.108267  0.610833  0.054367  1
  C  C1068  1  0.108267  0.443533  0.389167  1
  C  C1069  1  0.774933  0.278967  0.223133  1
  C  C1070  1  0.774933  0.944167  0.721033  1
  C  C1071  1  0.774933  0.776867  0.055833  1
  C  C1072  1  0.558400  0.387700  0.110200  1
  C  C1073  1  0.558400  0.722500  0.612300  1
  C  C1074  1  0.558400  0.889800  0.277500  1
  C  C1075  1  0.891733  0.054367  0.443533  1
  C  C1076  1  0.891733  0.389167  0.945633  1
  C  C1077  1  0.891733  0.556467  0.610833  1
  C  C1078  1  0.225067  0.721033  0.776867  1
  C  C1079  1  0.225067  0.055833  0.278967  1
  C  C1080  1  0.225067  0.223133  0.944167  1
  C  C1081  1  0.455500  0.634800  0.896300  1
  C  C1082  1  0.455500  0.261500  0.365200  1
  C  C1083  1  0.455500  0.103700  0.738500  1
  C  C1084  1  0.122167  0.968133  0.562967  1
  C  C1085  1  0.122167  0.594833  0.031867  1
  C  C1086  1  0.122167  0.437033  0.405167  1
  C  C1087  1  0.788833  0.301467  0.229633  1
  C  C1088  1  0.788833  0.928167  0.698533  1
  C  C1089  1  0.788833  0.770367  0.071833  1
  C  C1090  1  0.544500  0.365200  0.103700  1
  C  C1091  1  0.544500  0.738500  0.634800  1
  C  C1092  1  0.544500  0.896300  0.261500  1
  C  C1093  1  0.877833  0.031867  0.437033  1
  C  C1094  1  0.877833  0.405167  0.968133  1
  C  C1095  1  0.877833  0.562967  0.594833  1
  C  C1096  1  0.211167  0.698533  0.770367  1
  C  C1097  1  0.211167  0.071833  0.301467  1
  C  C1098  1  0.211167  0.229633  0.928167  1
  C  C1099  1  0.436300  0.655300  0.903700  1
  C  C1100  1  0.436300  0.248400  0.344700  1
  C  C1101  1  0.436300  0.096300  0.751600  1
  C  C1102  1  0.102967  0.988633  0.570367  1
  C  C1103  1  0.102967  0.581733  0.011367  1
  C  C1104  1  0.102967  0.429633  0.418267  1
  C  C1105  1  0.769633  0.321967  0.237033  1
  C  C1106  1  0.769633  0.915067  0.678033  1
  C  C1107  1  0.769633  0.762967  0.084933  1
  C  C1108  1  0.563700  0.344700  0.096300  1
  C  C1109  1  0.563700  0.751600  0.655300  1
  C  C1110  1  0.563700  0.903700  0.248400  1
  C  C1111  1  0.897033  0.011367  0.429633  1
  C  C1112  1  0.897033  0.418267  0.988633  1
  C  C1113  1  0.897033  0.570367  0.581733  1
  C  C1114  1  0.230367  0.678033  0.762967  1
  C  C1115  1  0.230367  0.084933  0.321967  1
  C  C1116  1  0.230367  0.237033  0.915067  1
  C  C1117  1  0.491800  0.635500  0.894900  1
  C  C1118  1  0.491800  0.259400  0.364500  1
  C  C1119  1  0.491800  0.105100  0.740600  1
  C  C1120  1  0.158467  0.968833  0.561567  1
  C  C1121  1  0.158467  0.592733  0.031167  1
  C  C1122  1  0.158467  0.438433  0.407267  1
  C  C1123  1  0.825133  0.302167  0.228233  1
  C  C1124  1  0.825133  0.926067  0.697833  1
  C  C1125  1  0.825133  0.771767  0.073933  1
  C  C1126  1  0.508200  0.364500  0.105100  1
  C  C1127  1  0.508200  0.740600  0.635500  1
  C  C1128  1  0.508200  0.894900  0.259400  1
  C  C1129  1  0.841533  0.031167  0.438433  1
  C  C1130  1  0.841533  0.407267  0.968833  1
  C  C1131  1  0.841533  0.561567  0.592733  1
  C  C1132  1  0.174867  0.697833  0.771767  1
  C  C1133  1  0.174867  0.073933  0.302167  1
  C  C1134  1  0.174867  0.228233  0.926067  1
  C  C1135  1  0.518600  0.636100  0.893900  1
  C  C1136  1  0.518600  0.257800  0.363900  1
  C  C1137  1  0.518600  0.106100  0.742200  1
  C  C1138  1  0.185267  0.969433  0.560567  1
  C  C1139  1  0.185267  0.591133  0.030567  1
  C  C1140  1  0.185267  0.439433  0.408867  1
  C  C1141  1  0.851933  0.302767  0.227233  1
  C  C1142  1  0.851933  0.924467  0.697233  1
  C  C1143  1  0.851933  0.772767  0.075533  1
  C  C1144  1  0.481400  0.363900  0.106100  1
  C  C1145  1  0.481400  0.742200  0.636100  1
  C  C1146  1  0.481400  0.893900  0.257800  1
  C  C1147  1  0.814733  0.030567  0.439433  1
  C  C1148  1  0.814733  0.408867  0.969433  1
  C  C1149  1  0.814733  0.560567  0.591133  1
  C  C1150  1  0.148067  0.697233  0.772767  1
  C  C1151  1  0.148067  0.075533  0.302767  1
  C  C1152  1  0.148067  0.227233  0.924467  1
  C  C1153  1  0.385200  0.568600  0.883300  1
  C  C1154  1  0.385200  0.314700  0.431400  1
  C  C1155  1  0.385200  0.116700  0.685300  1
  C  C1156  1  0.051867  0.901933  0.549967  1
  C  C1157  1  0.051867  0.648033  0.098067  1
  C  C1158  1  0.051867  0.450033  0.351967  1
  C  C1159  1  0.718533  0.235267  0.216633  1
  C  C1160  1  0.718533  0.981367  0.764733  1
  C  C1161  1  0.718533  0.783367  0.018633  1
  C  C1162  1  0.614800  0.431400  0.116700  1
  C  C1163  1  0.614800  0.685300  0.568600  1
  C  C1164  1  0.614800  0.883300  0.314700  1
  C  C1165  1  0.948133  0.098067  0.450033  1
  C  C1166  1  0.948133  0.351967  0.901933  1
  C  C1167  1  0.948133  0.549967  0.648033  1
  C  C1168  1  0.281467  0.764733  0.783367  1
  C  C1169  1  0.281467  0.018633  0.235267  1
  C  C1170  1  0.281467  0.216633  0.981367  1
  C  C1171  1  0.397900  0.586100  0.891800  1
  C  C1172  1  0.397900  0.305700  0.413900  1
  C  C1173  1  0.397900  0.108200  0.694300  1
  C  C1174  1  0.064567  0.919433  0.558467  1
  C  C1175  1  0.064567  0.639033  0.080567  1
  C  C1176  1  0.064567  0.441533  0.360967  1
  C  C1177  1  0.731233  0.252767  0.225133  1
  C  C1178  1  0.731233  0.972367  0.747233  1
  C  C1179  1  0.731233  0.774867  0.027633  1
  C  C1180  1  0.602100  0.413900  0.108200  1
  C  C1181  1  0.602100  0.694300  0.586100  1
  C  C1182  1  0.602100  0.891800  0.305700  1
  C  C1183  1  0.935433  0.080567  0.441533  1
  C  C1184  1  0.935433  0.360967  0.919433  1
  C  C1185  1  0.935433  0.558467  0.639033  1
  C  C1186  1  0.268767  0.747233  0.774867  1
  C  C1187  1  0.268767  0.027633  0.252767  1
  C  C1188  1  0.268767  0.225133  0.972367  1
  C  C1189  1  0.416300  0.653500  0.932200  1
  C  C1190  1  0.416300  0.278700  0.346500  1
  C  C1191  1  0.416300  0.067800  0.721300  1
  C  C1192  1  0.082967  0.986833  0.598867  1
  C  C1193  1  0.082967  0.612033  0.013167  1
  C  C1194  1  0.082967  0.401133  0.387967  1
  C  C1195  1  0.749633  0.320167  0.265533  1
  C  C1196  1  0.749633  0.945367  0.679833  1
  C  C1197  1  0.749633  0.734467  0.054633  1
  C  C1198  1  0.583700  0.346500  0.067800  1
  C  C1199  1  0.583700  0.721300  0.653500  1
  C  C1200  1  0.583700  0.932200  0.278700  1
  C  C1201  1  0.917033  0.013167  0.401133  1
  C  C1202  1  0.917033  0.387967  0.986833  1
  C  C1203  1  0.917033  0.598867  0.612033  1
  C  C1204  1  0.250367  0.679833  0.734467  1
  C  C1205  1  0.250367  0.054633  0.320167  1
  C  C1206  1  0.250367  0.265533  0.945367  1
  C  C1207  1  0.399800  0.631400  0.921300  1
  C  C1208  1  0.399800  0.289900  0.368600  1
  C  C1209  1  0.399800  0.078700  0.710100  1
  C  C1210  1  0.066467  0.964733  0.587967  1
  C  C1211  1  0.066467  0.623233  0.035267  1
  C  C1212  1  0.066467  0.412033  0.376767  1
  C  C1213  1  0.733133  0.298067  0.254633  1
  C  C1214  1  0.733133  0.956567  0.701933  1
  C  C1215  1  0.733133  0.745367  0.043433  1
  C  C1216  1  0.600200  0.368600  0.078700  1
  C  C1217  1  0.600200  0.710100  0.631400  1
  C  C1218  1  0.600200  0.921300  0.289900  1
  C  C1219  1  0.933533  0.035267  0.412033  1
  C  C1220  1  0.933533  0.376767  0.964733  1
  C  C1221  1  0.933533  0.587967  0.623233  1
  C  C1222  1  0.266867  0.701933  0.745367  1
  C  C1223  1  0.266867  0.043433  0.298067  1
  C  C1224  1  0.266867  0.254633  0.956567  1
  C  C1225  1  0.415100  0.610100  0.904300  1
  C  C1226  1  0.415100  0.294200  0.389900  1
  C  C1227  1  0.415100  0.095700  0.705800  1
  C  C1228  1  0.081767  0.943433  0.570967  1
  C  C1229  1  0.081767  0.627533  0.056567  1
  C  C1230  1  0.081767  0.429033  0.372467  1
  C  C1231  1  0.748433  0.276767  0.237633  1
  C  C1232  1  0.748433  0.960867  0.723233  1
  C  C1233  1  0.748433  0.762367  0.039133  1
  C  C1234  1  0.584900  0.389900  0.095700  1
  C  C1235  1  0.584900  0.705800  0.610100  1
  C  C1236  1  0.584900  0.904300  0.294200  1
  C  C1237  1  0.918233  0.056567  0.429033  1
  C  C1238  1  0.918233  0.372467  0.943433  1
  C  C1239  1  0.918233  0.570967  0.627533  1
  C  C1240  1  0.251567  0.723233  0.762367  1
  C  C1241  1  0.251567  0.039133  0.276767  1
  C  C1242  1  0.251567  0.237633  0.960867  1
  C  C1243  1  0.447000  0.610800  0.898000  1
  C  C1244  1  0.447000  0.287200  0.389200  1
  C  C1245  1  0.447000  0.102000  0.712800  1
  C  C1246  1  0.113667  0.944133  0.564667  1
  C  C1247  1  0.113667  0.620533  0.055867  1
  C  C1248  1  0.113667  0.435333  0.379467  1
  C  C1249  1  0.780333  0.277467  0.231333  1
  C  C1250  1  0.780333  0.953867  0.722533  1
  C  C1251  1  0.780333  0.768667  0.046133  1
  C  C1252  1  0.553000  0.389200  0.102000  1
  C  C1253  1  0.553000  0.712800  0.610800  1
  C  C1254  1  0.553000  0.898000  0.287200  1
  C  C1255  1  0.886333  0.055867  0.435333  1
  C  C1256  1  0.886333  0.379467  0.944133  1
  C  C1257  1  0.886333  0.564667  0.620533  1
  C  C1258  1  0.219667  0.722533  0.768667  1
  C  C1259  1  0.219667  0.046133  0.277467  1
  C  C1260  1  0.219667  0.231333  0.953867  1
  C  C1261  1  0.463500  0.632900  0.908900  1
  C  C1262  1  0.463500  0.276000  0.367100  1
  C  C1263  1  0.463500  0.091100  0.724000  1
  C  C1264  1  0.130167  0.966233  0.575567  1
  C  C1265  1  0.130167  0.609333  0.033767  1
  C  C1266  1  0.130167  0.424433  0.390667  1
  C  C1267  1  0.796833  0.299567  0.242233  1
  C  C1268  1  0.796833  0.942667  0.700433  1
  C  C1269  1  0.796833  0.757767  0.057333  1
  C  C1270  1  0.536500  0.367100  0.091100  1
  C  C1271  1  0.536500  0.724000  0.632900  1
  C  C1272  1  0.536500  0.908900  0.276000  1
  C  C1273  1  0.869833  0.033767  0.424433  1
  C  C1274  1  0.869833  0.390667  0.966233  1
  C  C1275  1  0.869833  0.575567  0.609333  1
  C  C1276  1  0.203167  0.700433  0.757767  1
  C  C1277  1  0.203167  0.057333  0.299567  1
  C  C1278  1  0.203167  0.242233  0.942667  1
  C  C1279  1  0.448200  0.654300  0.926000  1
  C  C1280  1  0.448200  0.271700  0.345700  1
  C  C1281  1  0.448200  0.074000  0.728300  1
  C  C1282  1  0.114867  0.987633  0.592667  1
  C  C1283  1  0.114867  0.605033  0.012367  1
  C  C1284  1  0.114867  0.407333  0.394967  1
  C  C1285  1  0.781533  0.320967  0.259333  1
  C  C1286  1  0.781533  0.938367  0.679033  1
  C  C1287  1  0.781533  0.740667  0.061633  1
  C  C1288  1  0.551800  0.345700  0.074000  1
  C  C1289  1  0.551800  0.728300  0.654300  1
  C  C1290  1  0.551800  0.926000  0.271700  1
  C  C1291  1  0.885133  0.012367  0.407333  1
  C  C1292  1  0.885133  0.394967  0.987633  1
  C  C1293  1  0.885133  0.592667  0.605033  1
  C  C1294  1  0.218467  0.679033  0.740667  1
  C  C1295  1  0.218467  0.061633  0.320967  1
  C  C1296  1  0.218467  0.259333  0.938367  1
  C  C1297  1  0.497000  0.634400  0.902800  1
  C  C1298  1  0.497000  0.268400  0.365600  1
  C  C1299  1  0.497000  0.097200  0.731600  1
  C  C1300  1  0.163667  0.967733  0.569467  1
  C  C1301  1  0.163667  0.601733  0.032267  1
  C  C1302  1  0.163667  0.430533  0.398267  1
  C  C1303  1  0.830333  0.301067  0.236133  1
  C  C1304  1  0.830333  0.935067  0.698933  1
  C  C1305  1  0.830333  0.763867  0.064933  1
  C  C1306  1  0.503000  0.365600  0.097200  1
  C  C1307  1  0.503000  0.731600  0.634400  1
  C  C1308  1  0.503000  0.902800  0.268400  1
  C  C1309  1  0.836333  0.032267  0.430533  1
  C  C1310  1  0.836333  0.398267  0.967733  1
  C  C1311  1  0.836333  0.569467  0.601733  1
  C  C1312  1  0.169667  0.698933  0.763867  1
  C  C1313  1  0.169667  0.064933  0.301067  1
  C  C1314  1  0.169667  0.236133  0.935067  1
  C  C1315  1  0.521600  0.635400  0.898600  1
  C  C1316  1  0.521600  0.263200  0.364600  1
  C  C1317  1  0.521600  0.101400  0.736800  1
  C  C1318  1  0.188267  0.968733  0.565267  1
  C  C1319  1  0.188267  0.596533  0.031267  1
  C  C1320  1  0.188267  0.434733  0.403467  1
  C  C1321  1  0.854933  0.302067  0.231933  1
  C  C1322  1  0.854933  0.929867  0.697933  1
  C  C1323  1  0.854933  0.768067  0.070133  1
  C  C1324  1  0.478400  0.364600  0.101400  1
  C  C1325  1  0.478400  0.736800  0.635400  1
  C  C1326  1  0.478400  0.898600  0.263200  1
  C  C1327  1  0.811733  0.031267  0.434733  1
  C  C1328  1  0.811733  0.403467  0.968733  1
  C  C1329  1  0.811733  0.565267  0.596533  1
  C  C1330  1  0.145067  0.697933  0.768067  1
  C  C1331  1  0.145067  0.070133  0.302067  1
  C  C1332  1  0.145067  0.231933  0.929867  1
  C  C1333  1  0.481000  0.466800  0.917500  1
  C  C1334  1  0.481000  0.450700  0.533200  1
  C  C1335  1  0.481000  0.082500  0.549300  1
  C  C1336  1  0.147667  0.800133  0.584167  1
  C  C1337  1  0.147667  0.784033  0.199867  1
  C  C1338  1  0.147667  0.415833  0.215967  1
  C  C1339  1  0.814333  0.133467  0.250833  1
  C  C1340  1  0.814333  0.117367  0.866533  1
  C  C1341  1  0.814333  0.749167  0.882633  1
  C  C1342  1  0.519000  0.533200  0.082500  1
  C  C1343  1  0.519000  0.549300  0.466800  1
  C  C1344  1  0.519000  0.917500  0.450700  1
  C  C1345  1  0.852333  0.199867  0.415833  1
  C  C1346  1  0.852333  0.215967  0.800133  1
  C  C1347  1  0.852333  0.584167  0.784033  1
  C  C1348  1  0.185667  0.866533  0.749167  1
  C  C1349  1  0.185667  0.882633  0.133467  1
  C  C1350  1  0.185667  0.250833  0.117367  1
  C  C1351  1  0.297600  0.461800  0.999600  1
  C  C1352  1  0.297600  0.537800  0.538200  1
  C  C1353  1  0.297600  0.000400  0.462200  1
  C  C1354  1  0.964267  0.795133  0.666267  1
  C  C1355  1  0.964267  0.871133  0.204867  1
  C  C1356  1  0.964267  0.333733  0.128867  1
  C  C1357  1  0.630933  0.128467  0.332933  1
  C  C1358  1  0.630933  0.204467  0.871533  1
  C  C1359  1  0.630933  0.667067  0.795533  1
  C  C1360  1  0.702400  0.538200  0.000400  1
  C  C1361  1  0.702400  0.462200  0.461800  1
  C  C1362  1  0.702400  0.999600  0.537800  1
  C  C1363  1  0.035733  0.204867  0.333733  1
  C  C1364  1  0.035733  0.128867  0.795133  1
  C  C1365  1  0.035733  0.666267  0.871133  1
  C  C1366  1  0.369067  0.871533  0.667067  1
  C  C1367  1  0.369067  0.795533  0.128467  1
  C  C1368  1  0.369067  0.332933  0.204467  1
  C  C1369  1  0.295800  0.442400  0.995000  1
  C  C1370  1  0.295800  0.552600  0.557600  1
  C  C1371  1  0.295800  0.005000  0.447400  1
  C  C1372  1  0.962467  0.775733  0.661667  1
  C  C1373  1  0.962467  0.885933  0.224267  1
  C  C1374  1  0.962467  0.338333  0.114067  1
  C  C1375  1  0.629133  0.109067  0.328333  1
  C  C1376  1  0.629133  0.219267  0.890933  1
  C  C1377  1  0.629133  0.671667  0.780733  1
  C  C1378  1  0.704200  0.557600  0.005000  1
  C  C1379  1  0.704200  0.447400  0.442400  1
  C  C1380  1  0.704200  0.995000  0.552600  1
  C  C1381  1  0.037533  0.224267  0.338333  1
  C  C1382  1  0.037533  0.114067  0.775733  1
  C  C1383  1  0.037533  0.661667  0.885933  1
  C  C1384  1  0.370867  0.890933  0.671667  1
  C  C1385  1  0.370867  0.780733  0.109067  1
  C  C1386  1  0.370867  0.328333  0.219267  1
  C  C1387  1  0.289200  0.373100  0.962100  1
  C  C1388  1  0.289200  0.589000  0.626900  1
  C  C1389  1  0.289200  0.037900  0.411000  1
  C  C1390  1  0.955867  0.706433  0.628767  1
  C  C1391  1  0.955867  0.922333  0.293567  1
  C  C1392  1  0.955867  0.371233  0.077667  1
  C  C1393  1  0.622533  0.039767  0.295433  1
  C  C1394  1  0.622533  0.255667  0.960233  1
  C  C1395  1  0.622533  0.704567  0.744333  1
  C  C1396  1  0.710800  0.626900  0.037900  1
  C  C1397  1  0.710800  0.411000  0.373100  1
  C  C1398  1  0.710800  0.962100  0.589000  1
  C  C1399  1  0.044133  0.293567  0.371233  1
  C  C1400  1  0.044133  0.077667  0.706433  1
  C  C1401  1  0.044133  0.628767  0.922333  1
  C  C1402  1  0.377467  0.960233  0.704567  1
  C  C1403  1  0.377467  0.744333  0.039767  1
  C  C1404  1  0.377467  0.295433  0.255667  1
  C  C1405  1  0.290900  0.396700  0.965900  1
  C  C1406  1  0.290900  0.569200  0.603300  1
  C  C1407  1  0.290900  0.034100  0.430800  1
  C  C1408  1  0.957567  0.730033  0.632567  1
  C  C1409  1  0.957567  0.902533  0.269967  1
  C  C1410  1  0.957567  0.367433  0.097467  1
  C  C1411  1  0.624233  0.063367  0.299233  1
  C  C1412  1  0.624233  0.235867  0.936633  1
  C  C1413  1  0.624233  0.700767  0.764133  1
  C  C1414  1  0.709100  0.603300  0.034100  1
  C  C1415  1  0.709100  0.430800  0.396700  1
  C  C1416  1  0.709100  0.965900  0.569200  1
  C  C1417  1  0.042433  0.269967  0.367433  1
  C  C1418  1  0.042433  0.097467  0.730033  1
  C  C1419  1  0.042433  0.632567  0.902533  1
  C  C1420  1  0.375767  0.936633  0.700767  1
  C  C1421  1  0.375767  0.764133  0.063367  1
  C  C1422  1  0.375767  0.299233  0.235867  1
  C  C1423  1  0.294300  0.416400  0.989500  1
  C  C1424  1  0.294300  0.573100  0.583600  1
  C  C1425  1  0.294300  0.010500  0.426900  1
  C  C1426  1  0.960967  0.749733  0.656167  1
  C  C1427  1  0.960967  0.906433  0.250267  1
  C  C1428  1  0.960967  0.343833  0.093567  1
  C  C1429  1  0.627633  0.083067  0.322833  1
  C  C1430  1  0.627633  0.239767  0.916933  1
  C  C1431  1  0.627633  0.677167  0.760233  1
  C  C1432  1  0.705700  0.583600  0.010500  1
  C  C1433  1  0.705700  0.426900  0.416400  1
  C  C1434  1  0.705700  0.989500  0.573100  1
  C  C1435  1  0.039033  0.250267  0.343833  1
  C  C1436  1  0.039033  0.093567  0.749733  1
  C  C1437  1  0.039033  0.656167  0.906433  1
  C  C1438  1  0.372367  0.916933  0.677167  1
  C  C1439  1  0.372367  0.760233  0.083067  1
  C  C1440  1  0.372367  0.322833  0.239767  1
  C  C1441  1  0.295900  0.412500  0.009300  1
  C  C1442  1  0.295900  0.596800  0.587500  1
  C  C1443  1  0.295900  0.990700  0.403200  1
  C  C1444  1  0.962567  0.745833  0.675967  1
  C  C1445  1  0.962567  0.930133  0.254167  1
  C  C1446  1  0.962567  0.324033  0.069867  1
  C  C1447  1  0.629233  0.079167  0.342633  1
  C  C1448  1  0.629233  0.263467  0.920833  1
  C  C1449  1  0.629233  0.657367  0.736533  1
  C  C1450  1  0.704100  0.587500  0.990700  1
  C  C1451  1  0.704100  0.403200  0.412500  1
  C  C1452  1  0.704100  0.009300  0.596800  1
  C  C1453  1  0.037433  0.254167  0.324033  1
  C  C1454  1  0.037433  0.069867  0.745833  1
  C  C1455  1  0.037433  0.675967  0.930133  1
  C  C1456  1  0.370767  0.920833  0.657367  1
  C  C1457  1  0.370767  0.736533  0.079167  1
  C  C1458  1  0.370767  0.342633  0.263467  1
  C  C1459  1  0.294200  0.388900  0.005500  1
  C  C1460  1  0.294200  0.616600  0.611100  1
  C  C1461  1  0.294200  0.994500  0.383400  1
  C  C1462  1  0.960867  0.722233  0.672167  1
  C  C1463  1  0.960867  0.949933  0.277767  1
  C  C1464  1  0.960867  0.327833  0.050067  1
  C  C1465  1  0.627533  0.055567  0.338833  1
  C  C1466  1  0.627533  0.283267  0.944433  1
  C  C1467  1  0.627533  0.661167  0.716733  1
  C  C1468  1  0.705800  0.611100  0.994500  1
  C  C1469  1  0.705800  0.383400  0.388900  1
  C  C1470  1  0.705800  0.005500  0.616600  1
  C  C1471  1  0.039133  0.277767  0.327833  1
  C  C1472  1  0.039133  0.050067  0.722233  1
  C  C1473  1  0.039133  0.672167  0.949933  1
  C  C1474  1  0.372467  0.944433  0.661167  1
  C  C1475  1  0.372467  0.716733  0.055567  1
  C  C1476  1  0.372467  0.338833  0.283267  1
  C  C1477  1  0.290900  0.369100  0.981800  1
  C  C1478  1  0.290900  0.612700  0.630900  1
  C  C1479  1  0.290900  0.018200  0.387300  1
  C  C1480  1  0.957567  0.702433  0.648467  1
  C  C1481  1  0.957567  0.946033  0.297567  1
  C  C1482  1  0.957567  0.351533  0.053967  1
  C  C1483  1  0.624233  0.035767  0.315133  1
  C  C1484  1  0.624233  0.279367  0.964233  1
  C  C1485  1  0.624233  0.684867  0.720633  1
  C  C1486  1  0.709100  0.630900  0.018200  1
  C  C1487  1  0.709100  0.387300  0.369100  1
  C  C1488  1  0.709100  0.981800  0.612700  1
  C  C1489  1  0.042433  0.297567  0.351533  1
  C  C1490  1  0.042433  0.053967  0.702433  1
  C  C1491  1  0.042433  0.648467  0.946033  1
  C  C1492  1  0.375767  0.964233  0.684867  1
  C  C1493  1  0.375767  0.720633  0.035767  1
  C  C1494  1  0.375767  0.315133  0.279367  1
  C  C1495  1  0.296400  0.383200  0.025700  1
  C  C1496  1  0.296400  0.642500  0.616800  1
  C  C1497  1  0.296400  0.974300  0.357500  1
  C  C1498  1  0.963067  0.716533  0.692367  1
  C  C1499  1  0.963067  0.975833  0.283467  1
  C  C1500  1  0.963067  0.307633  0.024167  1
  C  C1501  1  0.629733  0.049867  0.359033  1
  C  C1502  1  0.629733  0.309167  0.950133  1
  C  C1503  1  0.629733  0.640967  0.690833  1
  C  C1504  1  0.703600  0.616800  0.974300  1
  C  C1505  1  0.703600  0.357500  0.383200  1
  C  C1506  1  0.703600  0.025700  0.642500  1
  C  C1507  1  0.036933  0.283467  0.307633  1
  C  C1508  1  0.036933  0.024167  0.716533  1
  C  C1509  1  0.036933  0.692367  0.975833  1
  C  C1510  1  0.370267  0.950133  0.640967  1
  C  C1511  1  0.370267  0.690833  0.049867  1
  C  C1512  1  0.370267  0.359033  0.309167  1
  C  C1513  1  0.298100  0.379400  0.040800  1
  C  C1514  1  0.298100  0.661400  0.620600  1
  C  C1515  1  0.298100  0.959200  0.338600  1
  C  C1516  1  0.964767  0.712733  0.707467  1
  C  C1517  1  0.964767  0.994733  0.287267  1
  C  C1518  1  0.964767  0.292533  0.005267  1
  C  C1519  1  0.631433  0.046067  0.374133  1
  C  C1520  1  0.631433  0.328067  0.953933  1
  C  C1521  1  0.631433  0.625867  0.671933  1
  C  C1522  1  0.701900  0.620600  0.959200  1
  C  C1523  1  0.701900  0.338600  0.379400  1
  C  C1524  1  0.701900  0.040800  0.661400  1
  C  C1525  1  0.035233  0.287267  0.292533  1
  C  C1526  1  0.035233  0.005267  0.712733  1
  C  C1527  1  0.035233  0.707467  0.994733  1
  C  C1528  1  0.368567  0.953933  0.625867  1
  C  C1529  1  0.368567  0.671933  0.046067  1
  C  C1530  1  0.368567  0.374133  0.328067  1
  C  C1531  1  0.322300  0.519900  0.870500  1.0
  C  C1532  1  0.322300  0.350600  0.480100  1.0
  C  C1533  1  0.322300  0.129500  0.649400  1.0
  C  C1534  1  0.988967  0.853233  0.537167  1.0
  C  C1535  1  0.988967  0.683933  0.146767  1.0
  C  C1536  1  0.988967  0.462833  0.316067  1.0
  C  C1537  1  0.655633  0.186567  0.203833  1.0
  C  C1538  1  0.655633  0.017267  0.813433  1.0
  C  C1539  1  0.655633  0.796167  0.982733  1.0
  C  C1540  1  0.677700  0.480100  0.129500  1.0
  C  C1541  1  0.677700  0.649400  0.519900  1.0
  C  C1542  1  0.677700  0.870500  0.350600  1.0
  C  C1543  1  0.011033  0.146767  0.462833  1.0
  C  C1544  1  0.011033  0.316067  0.853233  1.0
  C  C1545  1  0.011033  0.537167  0.683933  1.0
  C  C1546  1  0.344367  0.813433  0.796167  1.0
  C  C1547  1  0.344367  0.982733  0.186567  1.0
  C  C1548  1  0.344367  0.203833  0.017267  1.0
  C  C1549  1  0.337000  0.543500  0.879700  1.0
  C  C1550  1  0.337000  0.336200  0.456500  1.0
  C  C1551  1  0.337000  0.120300  0.663800  1.0
  C  C1552  1  0.003667  0.876833  0.546367  1.0
  C  C1553  1  0.003667  0.669533  0.123167  1.0
  C  C1554  1  0.003667  0.453633  0.330467  1.0
  C  C1555  1  0.670333  0.210167  0.213033  1.0
  C  C1556  1  0.670333  0.002867  0.789833  1.0
  C  C1557  1  0.670333  0.786967  0.997133  1.0
  C  C1558  1  0.663000  0.456500  0.120300  1.0
  C  C1559  1  0.663000  0.663800  0.543500  1.0
  C  C1560  1  0.663000  0.879700  0.336200  1.0
  C  C1561  1  0.996333  0.123167  0.453633  1.0
  C  C1562  1  0.996333  0.330467  0.876833  1.0
  C  C1563  1  0.996333  0.546367  0.669533  1.0
  C  C1564  1  0.329667  0.789833  0.786967  1.0
  C  C1565  1  0.329667  0.997133  0.210167  1.0
  C  C1566  1  0.329667  0.213033  0.002867  1.0
  C  C1567  1  0.368100  0.544600  0.871900  1.0
  C  C1568  1  0.368100  0.327300  0.455400  1.0
  C  C1569  1  0.368100  0.128100  0.672700  1.0
  C  C1570  1  0.034767  0.877933  0.538567  1.0
  C  C1571  1  0.034767  0.660633  0.122067  1.0
  C  C1572  1  0.034767  0.461433  0.339367  1.0
  C  C1573  1  0.701433  0.211267  0.205233  1.0
  C  C1574  1  0.701433  0.993967  0.788733  1.0
  C  C1575  1  0.701433  0.794767  0.006033  1.0
  C  C1576  1  0.631900  0.455400  0.128100  1.0
  C  C1577  1  0.631900  0.672700  0.544600  1.0
  C  C1578  1  0.631900  0.871900  0.327300  1.0
  C  C1579  1  0.965233  0.122067  0.461433  1.0
  C  C1580  1  0.965233  0.339367  0.877933  1.0
  C  C1581  1  0.965233  0.538567  0.660633  1.0
  C  C1582  1  0.298567  0.788733  0.794767  1.0
  C  C1583  1  0.298567  0.006033  0.211267  1.0
  C  C1584  1  0.298567  0.205233  0.993967  1.0
  C  C1585  1  0.382700  0.523000  0.854900  1.0
  C  C1586  1  0.382700  0.331900  0.477000  1.0
  C  C1587  1  0.382700  0.145100  0.668100  1.0
  C  C1588  1  0.049367  0.856333  0.521567  1.0
  C  C1589  1  0.049367  0.665233  0.143667  1.0
  C  C1590  1  0.049367  0.478433  0.334767  1.0
  C  C1591  1  0.716033  0.189667  0.188233  1.0
  C  C1592  1  0.716033  0.998567  0.810333  1.0
  C  C1593  1  0.716033  0.811767  0.001433  1.0
  C  C1594  1  0.617300  0.477000  0.145100  1.0
  C  C1595  1  0.617300  0.668100  0.523000  1.0
  C  C1596  1  0.617300  0.854900  0.331900  1.0
  C  C1597  1  0.950633  0.143667  0.478433  1.0
  C  C1598  1  0.950633  0.334767  0.856333  1.0
  C  C1599  1  0.950633  0.521567  0.665233  1.0
  C  C1600  1  0.283967  0.810333  0.811767  1.0
  C  C1601  1  0.283967  0.001433  0.189667  1.0
  C  C1602  1  0.283967  0.188233  0.998567  1.0
  C  C1603  1  0.369400  0.500500  0.846400  1.0
  C  C1604  1  0.369400  0.345900  0.499500  1.0
  C  C1605  1  0.369400  0.153600  0.654100  1.0
  C  C1606  1  0.036067  0.833833  0.513067  1.0
  C  C1607  1  0.036067  0.679233  0.166167  1.0
  C  C1608  1  0.036067  0.486933  0.320767  1.0
  C  C1609  1  0.702733  0.167167  0.179733  1.0
  C  C1610  1  0.702733  0.012567  0.832833  1.0
  C  C1611  1  0.702733  0.820267  0.987433  1.0
  C  C1612  1  0.630600  0.499500  0.153600  1.0
  C  C1613  1  0.630600  0.654100  0.500500  1.0
  C  C1614  1  0.630600  0.846400  0.345900  1.0
  C  C1615  1  0.963933  0.166167  0.486933  1.0
  C  C1616  1  0.963933  0.320767  0.833833  1.0
  C  C1617  1  0.963933  0.513067  0.679233  1.0
  C  C1618  1  0.297267  0.832833  0.820267  1.0
  C  C1619  1  0.297267  0.987433  0.167167  1.0
  C  C1620  1  0.297267  0.179733  0.012567  1.0
  C  C1621  1  0.387100  0.567500  0.887600  1.0
  C  C1622  1  0.387100  0.320100  0.432500  1.0
  C  C1623  1  0.387100  0.112400  0.679900  1.0
  C  C1624  1  0.053767  0.900833  0.554267  1.0
  C  C1625  1  0.053767  0.653433  0.099167  1.0
  C  C1626  1  0.053767  0.445733  0.346567  1.0
  C  C1627  1  0.720433  0.234167  0.220933  1.0
  C  C1628  1  0.720433  0.986767  0.765833  1.0
  C  C1629  1  0.720433  0.779067  0.013233  1.0
  C  C1630  1  0.612900  0.432500  0.112400  1.0
  C  C1631  1  0.612900  0.679900  0.567500  1.0
  C  C1632  1  0.612900  0.887600  0.320100  1.0
  C  C1633  1  0.946233  0.099167  0.445733  1.0
  C  C1634  1  0.946233  0.346567  0.900833  1.0
  C  C1635  1  0.946233  0.554267  0.653433  1.0
  C  C1636  1  0.279567  0.765833  0.779067  1.0
  C  C1637  1  0.279567  0.013233  0.234167  1.0
  C  C1638  1  0.279567  0.220933  0.986767  1.0
  C  C1639  1  0.401200  0.584200  0.899400  1.0
  C  C1640  1  0.401200  0.315200  0.415800  1.0
  C  C1641  1  0.401200  0.100600  0.684800  1.0
  C  C1642  1  0.067867  0.917533  0.566067  1.0
  C  C1643  1  0.067867  0.648533  0.082467  1.0
  C  C1644  1  0.067867  0.433933  0.351467  1.0
  C  C1645  1  0.734533  0.250867  0.232733  1.0
  C  C1646  1  0.734533  0.981867  0.749133  1.0
  C  C1647  1  0.734533  0.767267  0.018133  1.0
  C  C1648  1  0.598800  0.415800  0.100600  1.0
  C  C1649  1  0.598800  0.684800  0.584200  1.0
  C  C1650  1  0.598800  0.899400  0.315200  1.0
  C  C1651  1  0.932133  0.082467  0.433933  1.0
  C  C1652  1  0.932133  0.351467  0.917533  1.0
  C  C1653  1  0.932133  0.566067  0.648533  1.0
  C  C1654  1  0.265467  0.749133  0.767267  1.0
  C  C1655  1  0.265467  0.018133  0.250867  1.0
  C  C1656  1  0.265467  0.232733  0.981867  1.0
  C  C1657  1  0.427500  0.645500  0.952500  1.0
  C  C1658  1  0.427500  0.307000  0.354500  1.0
  C  C1659  1  0.427500  0.047500  0.693000  1.0
  C  C1660  1  0.094167  0.978833  0.619167  1.0
  C  C1661  1  0.094167  0.640333  0.021167  1.0
  C  C1662  1  0.094167  0.380833  0.359667  1.0
  C  C1663  1  0.760833  0.312167  0.285833  1.0
  C  C1664  1  0.760833  0.973667  0.687833  1.0
  C  C1665  1  0.760833  0.714167  0.026333  1.0
  C  C1666  1  0.572500  0.354500  0.047500  1.0
  C  C1667  1  0.572500  0.693000  0.645500  1.0
  C  C1668  1  0.572500  0.952500  0.307000  1.0
  C  C1669  1  0.905833  0.021167  0.380833  1.0
  C  C1670  1  0.905833  0.359667  0.978833  1.0
  C  C1671  1  0.905833  0.619167  0.640333  1.0
  C  C1672  1  0.239167  0.687833  0.714167  1.0
  C  C1673  1  0.239167  0.026333  0.312167  1.0
  C  C1674  1  0.239167  0.285833  0.973667  1.0
  C  C1675  1  0.409200  0.624600  0.938200  1.0
  C  C1676  1  0.409200  0.313600  0.375400  1.0
  C  C1677  1  0.409200  0.061800  0.686400  1.0
  C  C1678  1  0.075867  0.957933  0.604867  1.0
  C  C1679  1  0.075867  0.646933  0.042067  1.0
  C  C1680  1  0.075867  0.395133  0.353067  1.0
  C  C1681  1  0.742533  0.291267  0.271533  1.0
  C  C1682  1  0.742533  0.980267  0.708733  1.0
  C  C1683  1  0.742533  0.728467  0.019733  1.0
  C  C1684  1  0.590800  0.375400  0.061800  1.0
  C  C1685  1  0.590800  0.686400  0.624600  1.0
  C  C1686  1  0.590800  0.938200  0.313600  1.0
  C  C1687  1  0.924133  0.042067  0.395133  1.0
  C  C1688  1  0.924133  0.353067  0.957933  1.0
  C  C1689  1  0.924133  0.604867  0.646933  1.0
  C  C1690  1  0.257467  0.708733  0.728467  1.0
  C  C1691  1  0.257467  0.019733  0.291267  1.0
  C  C1692  1  0.257467  0.271533  0.980267  1.0
  C  C1693  1  0.420200  0.607000  0.915200  1.0
  C  C1694  1  0.420200  0.308200  0.393000  1.0
  C  C1695  1  0.420200  0.084800  0.691800  1.0
  C  C1696  1  0.086867  0.940333  0.581867  1.0
  C  C1697  1  0.086867  0.641533  0.059667  1.0
  C  C1698  1  0.086867  0.418133  0.358467  1.0
  C  C1699  1  0.753533  0.273667  0.248533  1.0
  C  C1700  1  0.753533  0.974867  0.726333  1.0
  C  C1701  1  0.753533  0.751467  0.025133  1.0
  C  C1702  1  0.579800  0.393000  0.084800  1.0
  C  C1703  1  0.579800  0.691800  0.607000  1.0
  C  C1704  1  0.579800  0.915200  0.308200  1.0
  C  C1705  1  0.913133  0.059667  0.418133  1.0
  C  C1706  1  0.913133  0.358467  0.940333  1.0
  C  C1707  1  0.913133  0.581867  0.641533  1.0
  C  C1708  1  0.246467  0.726333  0.751467  1.0
  C  C1709  1  0.246467  0.025133  0.273667  1.0
  C  C1710  1  0.246467  0.248533  0.974867  1.0
  C  C1711  1  0.449500  0.610300  0.906600  1.0
  C  C1712  1  0.449500  0.296300  0.389700  1.0
  C  C1713  1  0.449500  0.093400  0.703700  1.0
  C  C1714  1  0.116167  0.943633  0.573267  1.0
  C  C1715  1  0.116167  0.629633  0.056367  1.0
  C  C1716  1  0.116167  0.426733  0.370367  1.0
  C  C1717  1  0.782833  0.276967  0.239933  1.0
  C  C1718  1  0.782833  0.962967  0.723033  1.0
  C  C1719  1  0.782833  0.760067  0.037033  1.0
  C  C1720  1  0.550500  0.389700  0.093400  1.0
  C  C1721  1  0.550500  0.703700  0.610300  1.0
  C  C1722  1  0.550500  0.906600  0.296300  1.0
  C  C1723  1  0.883833  0.056367  0.426733  1.0
  C  C1724  1  0.883833  0.370367  0.943633  1.0
  C  C1725  1  0.883833  0.573267  0.629633  1.0
  C  C1726  1  0.217167  0.723033  0.760067  1.0
  C  C1727  1  0.217167  0.037033  0.276967  1.0
  C  C1728  1  0.217167  0.239933  0.962967  1.0
  C  C1729  1  0.467700  0.631100  0.920800  1.0
  C  C1730  1  0.467700  0.289700  0.368900  1.0
  C  C1731  1  0.467700  0.079200  0.710300  1.0
  C  C1732  1  0.134367  0.964433  0.587467  1.0
  C  C1733  1  0.134367  0.623033  0.035567  1.0
  C  C1734  1  0.134367  0.412533  0.376967  1.0
  C  C1735  1  0.801033  0.297767  0.254133  1.0
  C  C1736  1  0.801033  0.956367  0.702233  1.0
  C  C1737  1  0.801033  0.745867  0.043633  1.0
  C  C1738  1  0.532300  0.368900  0.079200  1.0
  C  C1739  1  0.532300  0.710300  0.631100  1.0
  C  C1740  1  0.532300  0.920800  0.289700  1.0
  C  C1741  1  0.865633  0.035567  0.412533  1.0
  C  C1742  1  0.865633  0.376967  0.964433  1.0
  C  C1743  1  0.865633  0.587467  0.623033  1.0
  C  C1744  1  0.198967  0.702233  0.745867  1.0
  C  C1745  1  0.198967  0.043633  0.297767  1.0
  C  C1746  1  0.198967  0.254133  0.956367  1.0
  C  C1747  1  0.456700  0.648700  0.943800  1.0
  C  C1748  1  0.456700  0.295100  0.351300  1.0
  C  C1749  1  0.456700  0.056200  0.704900  1.0
  C  C1750  1  0.123367  0.982033  0.610467  1.0
  C  C1751  1  0.123367  0.628433  0.017967  1.0
  C  C1752  1  0.123367  0.389533  0.371567  1.0
  C  C1753  1  0.790033  0.315367  0.277133  1.0
  C  C1754  1  0.790033  0.961767  0.684633  1.0
  C  C1755  1  0.790033  0.722867  0.038233  1.0
  C  C1756  1  0.543300  0.351300  0.056200  1.0
  C  C1757  1  0.543300  0.704900  0.648700  1.0
  C  C1758  1  0.543300  0.943800  0.295100  1.0
  C  C1759  1  0.876633  0.017967  0.389533  1.0
  C  C1760  1  0.876633  0.371567  0.982033  1.0
  C  C1761  1  0.876633  0.610467  0.628433  1.0
  C  C1762  1  0.209967  0.684633  0.722867  1.0
  C  C1763  1  0.209967  0.038233  0.315367  1.0
  C  C1764  1  0.209967  0.277133  0.961767  1.0
  C  C1765  1  0.499600  0.633200  0.910300  1.0
  C  C1766  1  0.499600  0.277100  0.366800  1.0
  C  C1767  1  0.499600  0.089700  0.722900  1.0
  C  C1768  1  0.166267  0.966533  0.576967  1.0
  C  C1769  1  0.166267  0.610433  0.033467  1.0
  C  C1770  1  0.166267  0.423033  0.389567  1.0
  C  C1771  1  0.832933  0.299867  0.243633  1.0
  C  C1772  1  0.832933  0.943767  0.700133  1.0
  C  C1773  1  0.832933  0.756367  0.056233  1.0
  C  C1774  1  0.500400  0.366800  0.089700  1.0
  C  C1775  1  0.500400  0.722900  0.633200  1.0
  C  C1776  1  0.500400  0.910300  0.277100  1.0
  C  C1777  1  0.833733  0.033467  0.423033  1.0
  C  C1778  1  0.833733  0.389567  0.966533  1.0
  C  C1779  1  0.833733  0.576967  0.610433  1.0
  C  C1780  1  0.167067  0.700133  0.756367  1.0
  C  C1781  1  0.167067  0.056233  0.299867  1.0
  C  C1782  1  0.167067  0.243633  0.943767  1.0
  C  C1783  1  0.523200  0.634800  0.902600  1.0
  C  C1784  1  0.523200  0.267800  0.365200  1.0
  C  C1785  1  0.523200  0.097400  0.732200  1.0
  C  C1786  1  0.189867  0.968133  0.569267  1.0
  C  C1787  1  0.189867  0.601133  0.031867  1.0
  C  C1788  1  0.189867  0.430733  0.398867  1.0
  C  C1789  1  0.856533  0.301467  0.235933  1.0
  C  C1790  1  0.856533  0.934467  0.698533  1.0
  C  C1791  1  0.856533  0.764067  0.065533  1.0
  C  C1792  1  0.476800  0.365200  0.097400  1.0
  C  C1793  1  0.476800  0.732200  0.634800  1.0
  C  C1794  1  0.476800  0.902600  0.267800  1.0
  C  C1795  1  0.810133  0.031867  0.430733  1.0
  C  C1796  1  0.810133  0.398867  0.968133  1.0
  C  C1797  1  0.810133  0.569267  0.601133  1.0
  C  C1798  1  0.143467  0.698533  0.764067  1.0
  C  C1799  1  0.143467  0.065533  0.301467  1.0
  C  C1800  1  0.143467  0.235933  0.934467  1.0
  C  C1801  1  0.269500  0.407300  0.567000  1.0
  C  C1802  1  0.269500  0.159700  0.592700  1.0
  C  C1803  1  0.269500  0.433000  0.840300  1.0
  C  C1804  1  0.936167  0.740633  0.233667  1.0
  C  C1805  1  0.936167  0.493033  0.259367  1.0
  C  C1806  1  0.936167  0.766333  0.506967  1.0
  C  C1807  1  0.602833  0.073967  0.900333  1.0
  C  C1808  1  0.602833  0.826367  0.926033  1.0
  C  C1809  1  0.602833  0.099667  0.173633  1.0
  C  C1810  1  0.730500  0.592700  0.433000  1.0
  C  C1811  1  0.730500  0.840300  0.407300  1.0
  C  C1812  1  0.730500  0.567000  0.159700  1.0
  C  C1813  1  0.063833  0.259367  0.766333  1.0
  C  C1814  1  0.063833  0.506967  0.740633  1.0
  C  C1815  1  0.063833  0.233667  0.493033  1.0
  C  C1816  1  0.397167  0.926033  0.099667  1.0
  C  C1817  1  0.397167  0.173633  0.073967  1.0
  C  C1818  1  0.397167  0.900333  0.826367  1.0
  C  C1819  1  0.253400  0.421600  0.589900  1.0
  C  C1820  1  0.253400  0.168300  0.578400  1.0
  C  C1821  1  0.253400  0.410100  0.831700  1.0
  C  C1822  1  0.920067  0.754933  0.256567  1.0
  C  C1823  1  0.920067  0.501633  0.245067  1.0
  C  C1824  1  0.920067  0.743433  0.498367  1.0
  C  C1825  1  0.586733  0.088267  0.923233  1.0
  C  C1826  1  0.586733  0.834967  0.911733  1.0
  C  C1827  1  0.586733  0.076767  0.165033  1.0
  C  C1828  1  0.746600  0.578400  0.410100  1.0
  C  C1829  1  0.746600  0.831700  0.421600  1.0
  C  C1830  1  0.746600  0.589900  0.168300  1.0
  C  C1831  1  0.079933  0.245067  0.743433  1.0
  C  C1832  1  0.079933  0.498367  0.754933  1.0
  C  C1833  1  0.079933  0.256567  0.501633  1.0
  C  C1834  1  0.413267  0.911733  0.076767  1.0
  C  C1835  1  0.413267  0.165033  0.088267  1.0
  C  C1836  1  0.413267  0.923233  0.834967  1.0
  C  C1837  1  0.267700  0.426200  0.612300  1.0
  C  C1838  1  0.267700  0.186100  0.573800  1.0
  C  C1839  1  0.267700  0.387700  0.813900  1.0
  C  C1840  1  0.934367  0.759533  0.278967  1.0
  C  C1841  1  0.934367  0.519433  0.240467  1.0
  C  C1842  1  0.934367  0.721033  0.480567  1.0
  C  C1843  1  0.601033  0.092867  0.945633  1.0
  C  C1844  1  0.601033  0.852767  0.907133  1.0
  C  C1845  1  0.601033  0.054367  0.147233  1.0
  C  C1846  1  0.732300  0.573800  0.387700  1.0
  C  C1847  1  0.732300  0.813900  0.426200  1.0
  C  C1848  1  0.732300  0.612300  0.186100  1.0
  C  C1849  1  0.065633  0.240467  0.721033  1.0
  C  C1850  1  0.065633  0.480567  0.759533  1.0
  C  C1851  1  0.065633  0.278967  0.519433  1.0
  C  C1852  1  0.398967  0.907133  0.054367  1.0
  C  C1853  1  0.398967  0.147233  0.092867  1.0
  C  C1854  1  0.398967  0.945633  0.852767  1.0
  C  C1855  1  0.298100  0.414900  0.608200  1.0
  C  C1856  1  0.298100  0.193300  0.585100  1.0
  C  C1857  1  0.298100  0.391800  0.806700  1.0
  C  C1858  1  0.964767  0.748233  0.274867  1.0
  C  C1859  1  0.964767  0.526633  0.251767  1.0
  C  C1860  1  0.964767  0.725133  0.473367  1.0
  C  C1861  1  0.631433  0.081567  0.941533  1.0
  C  C1862  1  0.631433  0.859967  0.918433  1.0
  C  C1863  1  0.631433  0.058467  0.140033  1.0
  C  C1864  1  0.701900  0.585100  0.391800  1.0
  C  C1865  1  0.701900  0.806700  0.414900  1.0
  C  C1866  1  0.701900  0.608200  0.193300  1.0
  C  C1867  1  0.035233  0.251767  0.725133  1.0
  C  C1868  1  0.035233  0.473367  0.748233  1.0
  C  C1869  1  0.035233  0.274867  0.526633  1.0
  C  C1870  1  0.368567  0.918433  0.058467  1.0
  C  C1871  1  0.368567  0.140033  0.081567  1.0
  C  C1872  1  0.368567  0.941533  0.859967  1.0
  C  C1873  1  0.311900  0.401600  0.585600  1.0
  C  C1874  1  0.311900  0.184000  0.598400  1.0
  C  C1875  1  0.311900  0.414400  0.816000  1.0
  C  C1876  1  0.978567  0.734933  0.252267  1.0
  C  C1877  1  0.978567  0.517333  0.265067  1.0
  C  C1878  1  0.978567  0.747733  0.482667  1.0
  C  C1879  1  0.645233  0.068267  0.918933  1.0
  C  C1880  1  0.645233  0.850667  0.931733  1.0
  C  C1881  1  0.645233  0.081067  0.149333  1.0
  C  C1882  1  0.688100  0.598400  0.414400  1.0
  C  C1883  1  0.688100  0.816000  0.401600  1.0
  C  C1884  1  0.688100  0.585600  0.184000  1.0
  C  C1885  1  0.021433  0.265067  0.747733  1.0
  C  C1886  1  0.021433  0.482667  0.734933  1.0
  C  C1887  1  0.021433  0.252267  0.517333  1.0
  C  C1888  1  0.354767  0.931733  0.081067  1.0
  C  C1889  1  0.354767  0.149333  0.068267  1.0
  C  C1890  1  0.354767  0.918933  0.850667  1.0
  C  C1891  1  0.251500  0.440500  0.636800  1.0
  C  C1892  1  0.251500  0.196300  0.559500  1.0
  C  C1893  1  0.251500  0.363200  0.803700  1.0
  C  C1894  1  0.918167  0.773833  0.303467  1.0
  C  C1895  1  0.918167  0.529633  0.226167  1.0
  C  C1896  1  0.918167  0.696533  0.470367  1.0
  C  C1897  1  0.584833  0.107167  0.970133  1.0
  C  C1898  1  0.584833  0.862967  0.892833  1.0
  C  C1899  1  0.584833  0.029867  0.137033  1.0
  C  C1900  1  0.748500  0.559500  0.363200  1.0
  C  C1901  1  0.748500  0.803700  0.440500  1.0
  C  C1902  1  0.748500  0.636800  0.196300  1.0
  C  C1903  1  0.081833  0.226167  0.696533  1.0
  C  C1904  1  0.081833  0.470367  0.773833  1.0
  C  C1905  1  0.081833  0.303467  0.529633  1.0
  C  C1906  1  0.415167  0.892833  0.029867  1.0
  C  C1907  1  0.415167  0.137033  0.107167  1.0
  C  C1908  1  0.415167  0.970133  0.862967  1.0
  C  C1909  1  0.239500  0.449800  0.655100  1.0
  C  C1910  1  0.239500  0.205300  0.550200  1.0
  C  C1911  1  0.239500  0.344900  0.794700  1.0
  C  C1912  1  0.906167  0.783133  0.321767  1.0
  C  C1913  1  0.906167  0.538633  0.216867  1.0
  C  C1914  1  0.906167  0.678233  0.461367  1.0
  C  C1915  1  0.572833  0.116467  0.988433  1.0
  C  C1916  1  0.572833  0.871967  0.883533  1.0
  C  C1917  1  0.572833  0.011567  0.128033  1.0
  C  C1918  1  0.760500  0.550200  0.344900  1.0
  C  C1919  1  0.760500  0.794700  0.449800  1.0
  C  C1920  1  0.760500  0.655100  0.205300  1.0
  C  C1921  1  0.093833  0.216867  0.678233  1.0
  C  C1922  1  0.093833  0.461367  0.783133  1.0
  C  C1923  1  0.093833  0.321767  0.538633  1.0
  C  C1924  1  0.427167  0.883533  0.011567  1.0
  C  C1925  1  0.427167  0.128033  0.116467  1.0
  C  C1926  1  0.427167  0.988433  0.871967  1.0
  C  C1927  1  0.270400  0.479500  0.818400  1.0
  C  C1928  1  0.270400  0.338900  0.520500  1.0
  C  C1929  1  0.270400  0.181600  0.661100  1.0
  C  C1930  1  0.937067  0.812833  0.485067  1.0
  C  C1931  1  0.937067  0.672233  0.187167  1.0
  C  C1932  1  0.937067  0.514933  0.327767  1.0
  C  C1933  1  0.603733  0.146167  0.151733  1.0
  C  C1934  1  0.603733  0.005567  0.853833  1.0
  C  C1935  1  0.603733  0.848267  0.994433  1.0
  C  C1936  1  0.729600  0.520500  0.181600  1.0
  C  C1937  1  0.729600  0.661100  0.479500  1.0
  C  C1938  1  0.729600  0.818400  0.338900  1.0
  C  C1939  1  0.062933  0.187167  0.514933  1.0
  C  C1940  1  0.062933  0.327767  0.812833  1.0
  C  C1941  1  0.062933  0.485067  0.672233  1.0
  C  C1942  1  0.396267  0.853833  0.848267  1.0
  C  C1943  1  0.396267  0.994433  0.146167  1.0
  C  C1944  1  0.396267  0.151733  0.005567  1.0
  C  C1945  1  0.252300  0.483000  0.800100  1.0
  C  C1946  1  0.252300  0.317100  0.517000  1.0
  C  C1947  1  0.252300  0.199900  0.682900  1.0
  C  C1948  1  0.918967  0.816333  0.466767  1.0
  C  C1949  1  0.918967  0.650433  0.183667  1.0
  C  C1950  1  0.918967  0.533233  0.349567  1.0
  C  C1951  1  0.585633  0.149667  0.133433  1.0
  C  C1952  1  0.585633  0.983767  0.850333  1.0
  C  C1953  1  0.585633  0.866567  0.016233  1.0
  C  C1954  1  0.747700  0.517000  0.199900  1.0
  C  C1955  1  0.747700  0.682900  0.483000  1.0
  C  C1956  1  0.747700  0.800100  0.317100  1.0
  C  C1957  1  0.081033  0.183667  0.533233  1.0
  C  C1958  1  0.081033  0.349567  0.816333  1.0
  C  C1959  1  0.081033  0.466767  0.650433  1.0
  C  C1960  1  0.414367  0.850333  0.866567  1.0
  C  C1961  1  0.414367  0.016233  0.149667  1.0
  C  C1962  1  0.414367  0.133433  0.983767  1.0
  C  C1963  1  0.267900  0.473400  0.779600  1.0
  C  C1964  1  0.267900  0.306200  0.526600  1.0
  C  C1965  1  0.267900  0.220400  0.693800  1.0
  C  C1966  1  0.934567  0.806733  0.446267  1.0
  C  C1967  1  0.934567  0.639533  0.193267  1.0
  C  C1968  1  0.934567  0.553733  0.360467  1.0
  C  C1969  1  0.601233  0.140067  0.112933  1.0
  C  C1970  1  0.601233  0.972867  0.859933  1.0
  C  C1971  1  0.601233  0.887067  0.027133  1.0
  C  C1972  1  0.732100  0.526600  0.220400  1.0
  C  C1973  1  0.732100  0.693800  0.473400  1.0
  C  C1974  1  0.732100  0.779600  0.306200  1.0
  C  C1975  1  0.065433  0.193267  0.553733  1.0
  C  C1976  1  0.065433  0.360467  0.806733  1.0
  C  C1977  1  0.065433  0.446267  0.639533  1.0
  C  C1978  1  0.398767  0.859933  0.887067  1.0
  C  C1979  1  0.398767  0.027133  0.140067  1.0
  C  C1980  1  0.398767  0.112933  0.972867  1.0
  C  C1981  1  0.298100  0.461000  0.774600  1.0
  C  C1982  1  0.298100  0.313600  0.539000  1.0
  C  C1983  1  0.298100  0.225400  0.686400  1.0
  C  C1984  1  0.964767  0.794333  0.441267  1.0
  C  C1985  1  0.964767  0.646933  0.205667  1.0
  C  C1986  1  0.964767  0.558733  0.353067  1.0
  C  C1987  1  0.631433  0.127667  0.107933  1.0
  C  C1988  1  0.631433  0.980267  0.872333  1.0
  C  C1989  1  0.631433  0.892067  0.019733  1.0
  C  C1990  1  0.701900  0.539000  0.225400  1.0
  C  C1991  1  0.701900  0.686400  0.461000  1.0
  C  C1992  1  0.701900  0.774600  0.313600  1.0
  C  C1993  1  0.035233  0.205667  0.558733  1.0
  C  C1994  1  0.035233  0.353067  0.794333  1.0
  C  C1995  1  0.035233  0.441267  0.646933  1.0
  C  C1996  1  0.368567  0.872333  0.892067  1.0
  C  C1997  1  0.368567  0.019733  0.127667  1.0
  C  C1998  1  0.368567  0.107933  0.980267  1.0
  C  C1999  1  0.312000  0.459500  0.794100  1.0
  C  C2000  1  0.312000  0.334600  0.540500  1.0
  C  C2001  1  0.312000  0.205900  0.665400  1.0
  C  C2002  1  0.978667  0.792833  0.460767  1.0
  C  C2003  1  0.978667  0.667933  0.207167  1.0
  C  C2004  1  0.978667  0.539233  0.332067  1.0
  C  C2005  1  0.645333  0.126167  0.127433  1.0
  C  C2006  1  0.645333  0.001267  0.873833  1.0
  C  C2007  1  0.645333  0.872567  0.998733  1.0
  C  C2008  1  0.688000  0.540500  0.205900  1.0
  C  C2009  1  0.688000  0.665400  0.459500  1.0
  C  C2010  1  0.688000  0.794100  0.334600  1.0
  C  C2011  1  0.021333  0.207167  0.539233  1.0
  C  C2012  1  0.021333  0.332067  0.792833  1.0
  C  C2013  1  0.021333  0.460767  0.667933  1.0
  C  C2014  1  0.354667  0.873833  0.872567  1.0
  C  C2015  1  0.354667  0.998733  0.126167  1.0
  C  C2016  1  0.354667  0.127433  0.001267  1.0
  C  C2017  1  0.253700  0.473100  0.757500  1.0
  C  C2018  1  0.253700  0.284400  0.526900  1.0
  C  C2019  1  0.253700  0.242500  0.715600  1.0
  C  C2020  1  0.920367  0.806433  0.424167  1.0
  C  C2021  1  0.920367  0.617733  0.193567  1.0
  C  C2022  1  0.920367  0.575833  0.382267  1.0
  C  C2023  1  0.587033  0.139767  0.090833  1.0
  C  C2024  1  0.587033  0.951067  0.860233  1.0
  C  C2025  1  0.587033  0.909167  0.048933  1.0
  C  C2026  1  0.746300  0.526900  0.242500  1.0
  C  C2027  1  0.746300  0.715600  0.473100  1.0
  C  C2028  1  0.746300  0.757500  0.284400  1.0
  C  C2029  1  0.079633  0.193567  0.575833  1.0
  C  C2030  1  0.079633  0.382267  0.806433  1.0
  C  C2031  1  0.079633  0.424167  0.617733  1.0
  C  C2032  1  0.412967  0.860233  0.909167  1.0
  C  C2033  1  0.412967  0.048933  0.139767  1.0
  C  C2034  1  0.412967  0.090833  0.951067  1.0
  C  C2035  1  0.243100  0.473700  0.741600  1.0
  C  C2036  1  0.243100  0.267900  0.526300  1.0
  C  C2037  1  0.243100  0.258400  0.732100  1.0
  C  C2038  1  0.909767  0.807033  0.408267  1.0
  C  C2039  1  0.909767  0.601233  0.192967  1.0
  C  C2040  1  0.909767  0.591733  0.398767  1.0
  C  C2041  1  0.576433  0.140367  0.074933  1.0
  C  C2042  1  0.576433  0.934567  0.859633  1.0
  C  C2043  1  0.576433  0.925067  0.065433  1.0
  C  C2044  1  0.756900  0.526300  0.258400  1.0
  C  C2045  1  0.756900  0.732100  0.473700  1.0
  C  C2046  1  0.756900  0.741600  0.267900  1.0
  C  C2047  1  0.090233  0.192967  0.591733  1.0
  C  C2048  1  0.090233  0.398767  0.807033  1.0
  C  C2049  1  0.090233  0.408267  0.601233  1.0
  C  C2050  1  0.423567  0.859633  0.925067  1.0
  C  C2051  1  0.423567  0.065433  0.140367  1.0
  C  C2052  1  0.423567  0.074933  0.934567  1.0
  C  C2053  1  0.184700  0.485900  0.702600  1.0
  C  C2054  1  0.184700  0.216700  0.514100  1.0
  C  C2055  1  0.184700  0.297400  0.783300  1.0
  C  C2056  1  0.851367  0.819233  0.369267  1.0
  C  C2057  1  0.851367  0.550033  0.180767  1.0
  C  C2058  1  0.851367  0.630733  0.449967  1.0
  C  C2059  1  0.518033  0.152567  0.035933  1.0
  C  C2060  1  0.518033  0.883367  0.847433  1.0
  C  C2061  1  0.518033  0.964067  0.116633  1.0
  C  C2062  1  0.815300  0.514100  0.297400  1.0
  C  C2063  1  0.815300  0.783300  0.485900  1.0
  C  C2064  1  0.815300  0.702600  0.216700  1.0
  C  C2065  1  0.148633  0.180767  0.630733  1.0
  C  C2066  1  0.148633  0.449967  0.819233  1.0
  C  C2067  1  0.148633  0.369267  0.550033  1.0
  C  C2068  1  0.481967  0.847433  0.964067  1.0
  C  C2069  1  0.481967  0.116633  0.152567  1.0
  C  C2070  1  0.481967  0.035933  0.883367  1.0
  C  C2071  1  0.198600  0.486100  0.722700  1.0
  C  C2072  1  0.198600  0.236600  0.513900  1.0
  C  C2073  1  0.198600  0.277300  0.763400  1.0
  C  C2074  1  0.865267  0.819433  0.389367  1.0
  C  C2075  1  0.865267  0.569933  0.180567  1.0
  C  C2076  1  0.865267  0.610633  0.430067  1.0
  C  C2077  1  0.531933  0.152767  0.056033  1.0
  C  C2078  1  0.531933  0.903267  0.847233  1.0
  C  C2079  1  0.531933  0.943967  0.096733  1.0
  C  C2080  1  0.801400  0.513900  0.277300  1.0
  C  C2081  1  0.801400  0.763400  0.486100  1.0
  C  C2082  1  0.801400  0.722700  0.236600  1.0
  C  C2083  1  0.134733  0.180567  0.610633  1.0
  C  C2084  1  0.134733  0.430067  0.819433  1.0
  C  C2085  1  0.134733  0.389367  0.569933  1.0
  C  C2086  1  0.468067  0.847233  0.943967  1.0
  C  C2087  1  0.468067  0.096733  0.152767  1.0
  C  C2088  1  0.468067  0.056033  0.903267  1.0
  C  C2089  1  0.227000  0.473400  0.720000  1.0
  C  C2090  1  0.227000  0.246600  0.526600  1.0
  C  C2091  1  0.227000  0.280000  0.753400  1.0
  C  C2092  1  0.893667  0.806733  0.386667  1.0
  C  C2093  1  0.893667  0.579933  0.193267  1.0
  C  C2094  1  0.893667  0.613333  0.420067  1.0
  C  C2095  1  0.560333  0.140067  0.053333  1.0
  C  C2096  1  0.560333  0.913267  0.859933  1.0
  C  C2097  1  0.560333  0.946667  0.086733  1.0
  C  C2098  1  0.773000  0.526600  0.280000  1.0
  C  C2099  1  0.773000  0.753400  0.473400  1.0
  C  C2100  1  0.773000  0.720000  0.246600  1.0
  C  C2101  1  0.106333  0.193267  0.613333  1.0
  C  C2102  1  0.106333  0.420067  0.806733  1.0
  C  C2103  1  0.106333  0.386667  0.579933  1.0
  C  C2104  1  0.439667  0.859933  0.946667  1.0
  C  C2105  1  0.439667  0.086733  0.140067  1.0
  C  C2106  1  0.439667  0.053333  0.913267  1.0
  C  C2107  1  0.241400  0.460300  0.697100  1.0
  C  C2108  1  0.241400  0.236800  0.539700  1.0
  C  C2109  1  0.241400  0.302900  0.763200  1.0
  C  C2110  1  0.908067  0.793633  0.363767  1.0
  C  C2111  1  0.908067  0.570133  0.206367  1.0
  C  C2112  1  0.908067  0.636233  0.429867  1.0
  C  C2113  1  0.574733  0.126967  0.030433  1.0
  C  C2114  1  0.574733  0.903467  0.873033  1.0
  C  C2115  1  0.574733  0.969567  0.096533  1.0
  C  C2116  1  0.758600  0.539700  0.302900  1.0
  C  C2117  1  0.758600  0.763200  0.460300  1.0
  C  C2118  1  0.758600  0.697100  0.236800  1.0
  C  C2119  1  0.091933  0.206367  0.636233  1.0
  C  C2120  1  0.091933  0.429867  0.793633  1.0
  C  C2121  1  0.091933  0.363767  0.570133  1.0
  C  C2122  1  0.425267  0.873033  0.969567  1.0
  C  C2123  1  0.425267  0.096533  0.126967  1.0
  C  C2124  1  0.425267  0.030433  0.903467  1.0
  C  C2125  1  0.227400  0.460100  0.677100  1.0
  C  C2126  1  0.227400  0.217000  0.539900  1.0
  C  C2127  1  0.227400  0.322900  0.783000  1.0
  C  C2128  1  0.894067  0.793433  0.343767  1.0
  C  C2129  1  0.894067  0.550333  0.206567  1.0
  C  C2130  1  0.894067  0.656233  0.449667  1.0
  C  C2131  1  0.560733  0.126767  0.010433  1.0
  C  C2132  1  0.560733  0.883667  0.873233  1.0
  C  C2133  1  0.560733  0.989567  0.116333  1.0
  C  C2134  1  0.772600  0.539900  0.322900  1.0
  C  C2135  1  0.772600  0.783000  0.460100  1.0
  C  C2136  1  0.772600  0.677100  0.217000  1.0
  C  C2137  1  0.105933  0.206567  0.656233  1.0
  C  C2138  1  0.105933  0.449667  0.793433  1.0
  C  C2139  1  0.105933  0.343767  0.550333  1.0
  C  C2140  1  0.439267  0.873233  0.989567  1.0
  C  C2141  1  0.439267  0.116333  0.126767  1.0
  C  C2142  1  0.439267  0.010433  0.883667  1.0
  C  C2143  1  0.199100  0.472800  0.679700  1.0
  C  C2144  1  0.199100  0.206900  0.527200  1.0
  C  C2145  1  0.199100  0.320300  0.793100  1.0
  C  C2146  1  0.865767  0.806133  0.346367  1.0
  C  C2147  1  0.865767  0.540233  0.193867  1.0
  C  C2148  1  0.865767  0.653633  0.459767  1.0
  C  C2149  1  0.532433  0.139467  0.013033  1.0
  C  C2150  1  0.532433  0.873567  0.860533  1.0
  C  C2151  1  0.532433  0.986967  0.126433  1.0
  C  C2152  1  0.800900  0.527200  0.320300  1.0
  C  C2153  1  0.800900  0.793100  0.472800  1.0
  C  C2154  1  0.800900  0.679700  0.206900  1.0
  C  C2155  1  0.134233  0.193867  0.653633  1.0
  C  C2156  1  0.134233  0.459767  0.806133  1.0
  C  C2157  1  0.134233  0.346367  0.540233  1.0
  C  C2158  1  0.467567  0.860533  0.986967  1.0
  C  C2159  1  0.467567  0.126433  0.139467  1.0
  C  C2160  1  0.467567  0.013033  0.873567  1.0
  C  C2161  1  0.321200  0.474900  0.891800  1.0
  C  C2162  1  0.321200  0.416900  0.525100  1.0
  C  C2163  1  0.321200  0.108200  0.583100  1.0
  C  C2164  1  0.987867  0.808233  0.558467  1.0
  C  C2165  1  0.987867  0.750233  0.191767  1.0
  C  C2166  1  0.987867  0.441533  0.249767  1.0
  C  C2167  1  0.654533  0.141567  0.225133  1.0
  C  C2168  1  0.654533  0.083567  0.858433  1.0
  C  C2169  1  0.654533  0.774867  0.916433  1.0
  C  C2170  1  0.678800  0.525100  0.108200  1.0
  C  C2171  1  0.678800  0.583100  0.474900  1.0
  C  C2172  1  0.678800  0.891800  0.416900  1.0
  C  C2173  1  0.012133  0.191767  0.441533  1.0
  C  C2174  1  0.012133  0.249767  0.808233  1.0
  C  C2175  1  0.012133  0.558467  0.750233  1.0
  C  C2176  1  0.345467  0.858433  0.774867  1.0
  C  C2177  1  0.345467  0.916433  0.141567  1.0
  C  C2178  1  0.345467  0.225133  0.083567  1.0
  C  C2179  1  0.337100  0.477300  0.914300  1.0
  C  C2180  1  0.337100  0.437000  0.522700  1.0
  C  C2181  1  0.337100  0.085700  0.563000  1.0
  C  C2182  1  0.003767  0.810633  0.580967  1.0
  C  C2183  1  0.003767  0.770333  0.189367  1.0
  C  C2184  1  0.003767  0.419033  0.229667  1.0
  C  C2185  1  0.670433  0.143967  0.247633  1.0
  C  C2186  1  0.670433  0.103667  0.856033  1.0
  C  C2187  1  0.670433  0.752367  0.896333  1.0
  C  C2188  1  0.662900  0.522700  0.085700  1.0
  C  C2189  1  0.662900  0.563000  0.477300  1.0
  C  C2190  1  0.662900  0.914300  0.437000  1.0
  C  C2191  1  0.996233  0.189367  0.419033  1.0
  C  C2192  1  0.996233  0.229667  0.810633  1.0
  C  C2193  1  0.996233  0.580967  0.770333  1.0
  C  C2194  1  0.329567  0.856033  0.752367  1.0
  C  C2195  1  0.329567  0.896333  0.143967  1.0
  C  C2196  1  0.329567  0.247633  0.103667  1.0
  C  C2197  1  0.367000  0.470600  0.913700  1.0
  C  C2198  1  0.367000  0.443100  0.529400  1.0
  C  C2199  1  0.367000  0.086300  0.556900  1.0
  C  C2200  1  0.033667  0.803933  0.580367  1.0
  C  C2201  1  0.033667  0.776433  0.196067  1.0
  C  C2202  1  0.033667  0.419633  0.223567  1.0
  C  C2203  1  0.700333  0.137267  0.247033  1.0
  C  C2204  1  0.700333  0.109767  0.862733  1.0
  C  C2205  1  0.700333  0.752967  0.890233  1.0
  C  C2206  1  0.633000  0.529400  0.086300  1.0
  C  C2207  1  0.633000  0.556900  0.470600  1.0
  C  C2208  1  0.633000  0.913700  0.443100  1.0
  C  C2209  1  0.966333  0.196067  0.419633  1.0
  C  C2210  1  0.966333  0.223567  0.803933  1.0
  C  C2211  1  0.966333  0.580367  0.776433  1.0
  C  C2212  1  0.299667  0.862733  0.752967  1.0
  C  C2213  1  0.299667  0.890233  0.137267  1.0
  C  C2214  1  0.299667  0.247033  0.109767  1.0
  C  C2215  1  0.384200  0.460200  0.892000  1.0
  C  C2216  1  0.384200  0.431800  0.539800  1.0
  C  C2217  1  0.384200  0.108000  0.568200  1.0
  C  C2218  1  0.050867  0.793533  0.558667  1.0
  C  C2219  1  0.050867  0.765133  0.206467  1.0
  C  C2220  1  0.050867  0.441333  0.234867  1.0
  C  C2221  1  0.717533  0.126867  0.225333  1.0
  C  C2222  1  0.717533  0.098467  0.873133  1.0
  C  C2223  1  0.717533  0.774667  0.901533  1.0
  C  C2224  1  0.615800  0.539800  0.108000  1.0
  C  C2225  1  0.615800  0.568200  0.460200  1.0
  C  C2226  1  0.615800  0.892000  0.431800  1.0
  C  C2227  1  0.949133  0.206467  0.441333  1.0
  C  C2228  1  0.949133  0.234867  0.793533  1.0
  C  C2229  1  0.949133  0.558667  0.765133  1.0
  C  C2230  1  0.282467  0.873133  0.774667  1.0
  C  C2231  1  0.282467  0.901533  0.126867  1.0
  C  C2232  1  0.282467  0.225333  0.098467  1.0
  C  C2233  1  0.368700  0.457900  0.871200  1.0
  C  C2234  1  0.368700  0.413300  0.542100  1.0
  C  C2235  1  0.368700  0.128800  0.586700  1.0
  C  C2236  1  0.035367  0.791233  0.537867  1.0
  C  C2237  1  0.035367  0.746633  0.208767  1.0
  C  C2238  1  0.035367  0.462133  0.253367  1.0
  C  C2239  1  0.702033  0.124567  0.204533  1.0
  C  C2240  1  0.702033  0.079967  0.875433  1.0
  C  C2241  1  0.702033  0.795467  0.920033  1.0
  C  C2242  1  0.631300  0.542100  0.128800  1.0
  C  C2243  1  0.631300  0.586700  0.457900  1.0
  C  C2244  1  0.631300  0.871200  0.413300  1.0
  C  C2245  1  0.964633  0.208767  0.462133  1.0
  C  C2246  1  0.964633  0.253367  0.791233  1.0
  C  C2247  1  0.964633  0.537867  0.746633  1.0
  C  C2248  1  0.297967  0.875433  0.795467  1.0
  C  C2249  1  0.297967  0.920033  0.124567  1.0
  C  C2250  1  0.297967  0.204533  0.079967  1.0
  C  C2251  1  0.382900  0.472400  0.935300  1.0
  C  C2252  1  0.382900  0.462900  0.527600  1.0
  C  C2253  1  0.382900  0.064700  0.537100  1.0
  C  C2254  1  0.049567  0.805733  0.601967  1.0
  C  C2255  1  0.049567  0.796233  0.194267  1.0
  C  C2256  1  0.049567  0.398033  0.203767  1.0
  C  C2257  1  0.716233  0.139067  0.268633  1.0
  C  C2258  1  0.716233  0.129567  0.860933  1.0
  C  C2259  1  0.716233  0.731367  0.870433  1.0
  C  C2260  1  0.617100  0.527600  0.064700  1.0
  C  C2261  1  0.617100  0.537100  0.472400  1.0
  C  C2262  1  0.617100  0.935300  0.462900  1.0
  C  C2263  1  0.950433  0.194267  0.398033  1.0
  C  C2264  1  0.950433  0.203767  0.805733  1.0
  C  C2265  1  0.950433  0.601967  0.796233  1.0
  C  C2266  1  0.283767  0.860933  0.731367  1.0
  C  C2267  1  0.283767  0.870433  0.139067  1.0
  C  C2268  1  0.283767  0.268633  0.129567  1.0
  C  C2269  1  0.396800  0.473900  0.951000  1.0
  C  C2270  1  0.396800  0.477100  0.526100  1.0
  C  C2271  1  0.396800  0.049000  0.522900  1.0
  C  C2272  1  0.063467  0.807233  0.617667  1.0
  C  C2273  1  0.063467  0.810433  0.192767  1.0
  C  C2274  1  0.063467  0.382333  0.189567  1.0
  C  C2275  1  0.730133  0.140567  0.284333  1.0
  C  C2276  1  0.730133  0.143767  0.859433  1.0
  C  C2277  1  0.730133  0.715667  0.856233  1.0
  C  C2278  1  0.603200  0.526100  0.049000  1.0
  C  C2279  1  0.603200  0.522900  0.473900  1.0
  C  C2280  1  0.603200  0.951000  0.477100  1.0
  C  C2281  1  0.936533  0.192767  0.382333  1.0
  C  C2282  1  0.936533  0.189567  0.807233  1.0
  C  C2283  1  0.936533  0.617667  0.810433  1.0
  C  C2284  1  0.269867  0.859433  0.715667  1.0
  C  C2285  1  0.269867  0.856233  0.140567  1.0
  C  C2286  1  0.269867  0.284333  0.143767  1.0
  C  C2287  1  0.414000  0.488200  0.014800  1.0
  C  C2288  1  0.414000  0.526600  0.511800  1.0
  C  C2289  1  0.414000  0.985200  0.473400  1.0
  C  C2290  1  0.080667  0.821533  0.681467  1.0
  C  C2291  1  0.080667  0.859933  0.178467  1.0
  C  C2292  1  0.080667  0.318533  0.140067  1.0
  C  C2293  1  0.747333  0.154867  0.348133  1.0
  C  C2294  1  0.747333  0.193267  0.845133  1.0
  C  C2295  1  0.747333  0.651867  0.806733  1.0
  C  C2296  1  0.586000  0.511800  0.985200  1.0
  C  C2297  1  0.586000  0.473400  0.488200  1.0
  C  C2298  1  0.586000  0.014800  0.526600  1.0
  C  C2299  1  0.919333  0.178467  0.318533  1.0
  C  C2300  1  0.919333  0.140067  0.821533  1.0
  C  C2301  1  0.919333  0.681467  0.859933  1.0
  C  C2302  1  0.252667  0.845133  0.651867  1.0
  C  C2303  1  0.252667  0.806733  0.154867  1.0
  C  C2304  1  0.252667  0.348133  0.193267  1.0
  C  C2305  1  0.397500  0.486400  0.994900  1.0
  C  C2306  1  0.397500  0.508500  0.513600  1.0
  C  C2307  1  0.397500  0.005100  0.491500  1.0
  C  C2308  1  0.064167  0.819733  0.661567  1.0
  C  C2309  1  0.064167  0.841833  0.180267  1.0
  C  C2310  1  0.064167  0.338433  0.158167  1.0
  C  C2311  1  0.730833  0.153067  0.328233  1.0
  C  C2312  1  0.730833  0.175167  0.846933  1.0
  C  C2313  1  0.730833  0.671767  0.824833  1.0
  C  C2314  1  0.602500  0.513600  0.005100  1.0
  C  C2315  1  0.602500  0.491500  0.486400  1.0
  C  C2316  1  0.602500  0.994900  0.508500  1.0
  C  C2317  1  0.935833  0.180267  0.338433  1.0
  C  C2318  1  0.935833  0.158167  0.819733  1.0
  C  C2319  1  0.935833  0.661567  0.841833  1.0
  C  C2320  1  0.269167  0.846933  0.671767  1.0
  C  C2321  1  0.269167  0.824833  0.153067  1.0
  C  C2322  1  0.269167  0.328233  0.175167  1.0
  C  C2323  1  0.412800  0.477100  0.972400  1.0
  C  C2324  1  0.412800  0.495300  0.522900  1.0
  C  C2325  1  0.412800  0.027600  0.504700  1.0
  C  C2326  1  0.079467  0.810433  0.639067  1.0
  C  C2327  1  0.079467  0.828633  0.189567  1.0
  C  C2328  1  0.079467  0.360933  0.171367  1.0
  C  C2329  1  0.746133  0.143767  0.305733  1.0
  C  C2330  1  0.746133  0.161967  0.856233  1.0
  C  C2331  1  0.746133  0.694267  0.838033  1.0
  C  C2332  1  0.587200  0.522900  0.027600  1.0
  C  C2333  1  0.587200  0.504700  0.477100  1.0
  C  C2334  1  0.587200  0.972400  0.495300  1.0
  C  C2335  1  0.920533  0.189567  0.360933  1.0
  C  C2336  1  0.920533  0.171367  0.810433  1.0
  C  C2337  1  0.920533  0.639067  0.828633  1.0
  C  C2338  1  0.253867  0.856233  0.694267  1.0
  C  C2339  1  0.253867  0.838033  0.143767  1.0
  C  C2340  1  0.253867  0.305733  0.161967  1.0
  C  C2341  1  0.444700  0.469600  0.969900  1.0
  C  C2342  1  0.444700  0.500300  0.530400  1.0
  C  C2343  1  0.444700  0.030100  0.499700  1.0
  C  C2344  1  0.111367  0.802933  0.636567  1.0
  C  C2345  1  0.111367  0.833633  0.197067  1.0
  C  C2346  1  0.111367  0.363433  0.166367  1.0
  C  C2347  1  0.778033  0.136267  0.303233  1.0
  C  C2348  1  0.778033  0.166967  0.863733  1.0
  C  C2349  1  0.778033  0.696767  0.833033  1.0
  C  C2350  1  0.555300  0.530400  0.030100  1.0
  C  C2351  1  0.555300  0.499700  0.469600  1.0
  C  C2352  1  0.555300  0.969900  0.500300  1.0
  C  C2353  1  0.888633  0.197067  0.363433  1.0
  C  C2354  1  0.888633  0.166367  0.802933  1.0
  C  C2355  1  0.888633  0.636567  0.833633  1.0
  C  C2356  1  0.221967  0.863733  0.696767  1.0
  C  C2357  1  0.221967  0.833033  0.136267  1.0
  C  C2358  1  0.221967  0.303233  0.166967  1.0
  C  C2359  1  0.461200  0.471500  0.989900  1.0
  C  C2360  1  0.461200  0.518400  0.528500  1.0
  C  C2361  1  0.461200  0.010100  0.481600  1.0
  C  C2362  1  0.127867  0.804833  0.656567  1.0
  C  C2363  1  0.127867  0.851733  0.195167  1.0
  C  C2364  1  0.127867  0.343433  0.148267  1.0
  C  C2365  1  0.794533  0.138167  0.323233  1.0
  C  C2366  1  0.794533  0.185067  0.861833  1.0
  C  C2367  1  0.794533  0.676767  0.814933  1.0
  C  C2368  1  0.538800  0.528500  0.010100  1.0
  C  C2369  1  0.538800  0.481600  0.471500  1.0
  C  C2370  1  0.538800  0.989900  0.518400  1.0
  C  C2371  1  0.872133  0.195167  0.343433  1.0
  C  C2372  1  0.872133  0.148267  0.804833  1.0
  C  C2373  1  0.872133  0.656567  0.851733  1.0
  C  C2374  1  0.205467  0.861833  0.676767  1.0
  C  C2375  1  0.205467  0.814933  0.138167  1.0
  C  C2376  1  0.205467  0.323233  0.185067  1.0
  C  C2377  1  0.445900  0.480800  0.012400  1.0
  C  C2378  1  0.445900  0.531600  0.519200  1.0
  C  C2379  1  0.445900  0.987600  0.468400  1.0
  C  C2380  1  0.112567  0.814133  0.679067  1.0
  C  C2381  1  0.112567  0.864933  0.185867  1.0
  C  C2382  1  0.112567  0.320933  0.135067  1.0
  C  C2383  1  0.779233  0.147467  0.345733  1.0
  C  C2384  1  0.779233  0.198267  0.852533  1.0
  C  C2385  1  0.779233  0.654267  0.801733  1.0
  C  C2386  1  0.554100  0.519200  0.987600  1.0
  C  C2387  1  0.554100  0.468400  0.480800  1.0
  C  C2388  1  0.554100  0.012400  0.531600  1.0
  C  C2389  1  0.887433  0.185867  0.320933  1.0
  C  C2390  1  0.887433  0.135067  0.814133  1.0
  C  C2391  1  0.887433  0.679067  0.864933  1.0
  C  C2392  1  0.220767  0.852533  0.654267  1.0
  C  C2393  1  0.220767  0.801733  0.147467  1.0
  C  C2394  1  0.220767  0.345733  0.198267  1.0
  C  C2395  1  0.475700  0.476000  0.944300  1.0
  C  C2396  1  0.475700  0.468300  0.524000  1.0
  C  C2397  1  0.475700  0.055700  0.531700  1.0
  C  C2398  1  0.142367  0.809333  0.610967  1.0
  C  C2399  1  0.142367  0.801633  0.190667  1.0
  C  C2400  1  0.142367  0.389033  0.198367  1.0
  C  C2401  1  0.809033  0.142667  0.277633  1.0
  C  C2402  1  0.809033  0.134967  0.857333  1.0
  C  C2403  1  0.809033  0.722367  0.865033  1.0
  C  C2404  1  0.524300  0.524000  0.055700  1.0
  C  C2405  1  0.524300  0.531700  0.476000  1.0
  C  C2406  1  0.524300  0.944300  0.468300  1.0
  C  C2407  1  0.857633  0.190667  0.389033  1.0
  C  C2408  1  0.857633  0.198367  0.809333  1.0
  C  C2409  1  0.857633  0.610967  0.801633  1.0
  C  C2410  1  0.190967  0.857333  0.722367  1.0
  C  C2411  1  0.190967  0.865033  0.142667  1.0
  C  C2412  1  0.190967  0.277633  0.134967  1.0
  C  C2413  1  0.454900  0.484200  0.930100  1.0
  C  C2414  1  0.454900  0.445900  0.515800  1.0
  C  C2415  1  0.454900  0.069900  0.554100  1.0
  C  C2416  1  0.121567  0.817533  0.596767  1.0
  C  C2417  1  0.121567  0.779233  0.182467  1.0
  C  C2418  1  0.121567  0.403233  0.220767  1.0
  C  C2419  1  0.788233  0.150867  0.263433  1.0
  C  C2420  1  0.788233  0.112567  0.849133  1.0
  C  C2421  1  0.788233  0.736567  0.887433  1.0
  C  C2422  1  0.545100  0.515800  0.069900  1.0
  C  C2423  1  0.545100  0.554100  0.484200  1.0
  C  C2424  1  0.545100  0.930100  0.445900  1.0
  C  C2425  1  0.878433  0.182467  0.403233  1.0
  C  C2426  1  0.878433  0.220767  0.817533  1.0
  C  C2427  1  0.878433  0.596767  0.779233  1.0
  C  C2428  1  0.211767  0.849133  0.736567  1.0
  C  C2429  1  0.211767  0.887433  0.150867  1.0
  C  C2430  1  0.211767  0.263433  0.112567  1.0
  C  C2431  1  0.604300  0.621500  0.872200  1.0
  C  C2432  1  0.604300  0.250700  0.378500  1.0
  C  C2433  1  0.604300  0.127800  0.749300  1.0
  C  C2434  1  0.270967  0.954833  0.538867  1.0
  C  C2435  1  0.270967  0.584033  0.045167  1.0
  C  C2436  1  0.270967  0.461133  0.415967  1.0
  C  C2437  1  0.937633  0.288167  0.205533  1.0
  C  C2438  1  0.937633  0.917367  0.711833  1.0
  C  C2439  1  0.937633  0.794467  0.082633  1.0
  C  C2440  1  0.395700  0.378500  0.127800  1.0
  C  C2441  1  0.395700  0.749300  0.621500  1.0
  C  C2442  1  0.395700  0.872200  0.250700  1.0
  C  C2443  1  0.729033  0.045167  0.461133  1.0
  C  C2444  1  0.729033  0.415967  0.954833  1.0
  C  C2445  1  0.729033  0.538867  0.584033  1.0
  C  C2446  1  0.062367  0.711833  0.794467  1.0
  C  C2447  1  0.062367  0.082633  0.288167  1.0
  C  C2448  1  0.062367  0.205533  0.917367  1.0
  C  C2449  1  0.572500  0.619200  0.876300  1.0
  C  C2450  1  0.572500  0.257100  0.380800  1.0
  C  C2451  1  0.572500  0.123700  0.742900  1.0
  C  C2452  1  0.239167  0.952533  0.542967  1.0
  C  C2453  1  0.239167  0.590433  0.047467  1.0
  C  C2454  1  0.239167  0.457033  0.409567  1.0
  C  C2455  1  0.905833  0.285867  0.209633  1.0
  C  C2456  1  0.905833  0.923767  0.714133  1.0
  C  C2457  1  0.905833  0.790367  0.076233  1.0
  C  C2458  1  0.427500  0.380800  0.123700  1.0
  C  C2459  1  0.427500  0.742900  0.619200  1.0
  C  C2460  1  0.427500  0.876300  0.257100  1.0
  C  C2461  1  0.760833  0.047467  0.457033  1.0
  C  C2462  1  0.760833  0.409567  0.952533  1.0
  C  C2463  1  0.760833  0.542967  0.590433  1.0
  C  C2464  1  0.094167  0.714133  0.790367  1.0
  C  C2465  1  0.094167  0.076233  0.285867  1.0
  C  C2466  1  0.094167  0.209633  0.923767  1.0
  C  C2467  1  0.554900  0.636900  0.891900  1.0
  C  C2468  1  0.554900  0.255000  0.363100  1.0
  C  C2469  1  0.554900  0.108100  0.745000  1.0
  C  C2470  1  0.221567  0.970233  0.558567  1.0
  C  C2471  1  0.221567  0.588333  0.029767  1.0
  C  C2472  1  0.221567  0.441433  0.411667  1.0
  C  C2473  1  0.888233  0.303567  0.225233  1.0
  C  C2474  1  0.888233  0.921667  0.696433  1.0
  C  C2475  1  0.888233  0.774767  0.078333  1.0
  C  C2476  1  0.445100  0.363100  0.108100  1.0
  C  C2477  1  0.445100  0.745000  0.636900  1.0
  C  C2478  1  0.445100  0.891900  0.255000  1.0
  C  C2479  1  0.778433  0.029767  0.441433  1.0
  C  C2480  1  0.778433  0.411667  0.970233  1.0
  C  C2481  1  0.778433  0.558567  0.588333  1.0
  C  C2482  1  0.111767  0.696433  0.774767  1.0
  C  C2483  1  0.111767  0.078333  0.303567  1.0
  C  C2484  1  0.111767  0.225233  0.921667  1.0
  C  C2485  1  0.568600  0.659100  0.904000  1.0
  C  C2486  1  0.568600  0.244900  0.340900  1.0
  C  C2487  1  0.568600  0.096000  0.755100  1.0
  C  C2488  1  0.235267  0.992433  0.570667  1.0
  C  C2489  1  0.235267  0.578233  0.007567  1.0
  C  C2490  1  0.235267  0.429333  0.421767  1.0
  C  C2491  1  0.901933  0.325767  0.237333  1.0
  C  C2492  1  0.901933  0.911567  0.674233  1.0
  C  C2493  1  0.901933  0.762667  0.088433  1.0
  C  C2494  1  0.431400  0.340900  0.096000  1.0
  C  C2495  1  0.431400  0.755100  0.659100  1.0
  C  C2496  1  0.431400  0.904000  0.244900  1.0
  C  C2497  1  0.764733  0.007567  0.429333  1.0
  C  C2498  1  0.764733  0.421767  0.992433  1.0
  C  C2499  1  0.764733  0.570667  0.578233  1.0
  C  C2500  1  0.098067  0.674233  0.762667  1.0
  C  C2501  1  0.098067  0.088433  0.325767  1.0
  C  C2502  1  0.098067  0.237333  0.911567  1.0
  C  C2503  1  0.605100  0.660800  0.899200  1.0
  C  C2504  1  0.605100  0.238400  0.339200  1.0
  C  C2505  1  0.605100  0.100800  0.761600  1.0
  C  C2506  1  0.271767  0.994133  0.565867  1.0
  C  C2507  1  0.271767  0.571733  0.005867  1.0
  C  C2508  1  0.271767  0.434133  0.428267  1.0
  C  C2509  1  0.938433  0.327467  0.232533  1.0
  C  C2510  1  0.938433  0.905067  0.672533  1.0
  C  C2511  1  0.938433  0.767467  0.094933  1.0
  C  C2512  1  0.394900  0.339200  0.100800  1.0
  C  C2513  1  0.394900  0.761600  0.660800  1.0
  C  C2514  1  0.394900  0.899200  0.238400  1.0
  C  C2515  1  0.728233  0.005867  0.434133  1.0
  C  C2516  1  0.728233  0.428267  0.994133  1.0
  C  C2517  1  0.728233  0.565867  0.571733  1.0
  C  C2518  1  0.061567  0.672533  0.767467  1.0
  C  C2519  1  0.061567  0.094933  0.327467  1.0
  C  C2520  1  0.061567  0.232533  0.905067  1.0
  C  C2521  1  0.605500  0.440100  0.962200  1.0
  C  C2522  1  0.605500  0.522100  0.559900  1.0
  C  C2523  1  0.605500  0.037800  0.477900  1.0
  C  C2524  1  0.272167  0.773433  0.628867  1.0
  C  C2525  1  0.272167  0.855433  0.226567  1.0
  C  C2526  1  0.272167  0.371133  0.144567  1.0
  C  C2527  1  0.938833  0.106767  0.295533  1.0
  C  C2528  1  0.938833  0.188767  0.893233  1.0
  C  C2529  1  0.938833  0.704467  0.811233  1.0
  C  C2530  1  0.394500  0.559900  0.037800  1.0
  C  C2531  1  0.394500  0.477900  0.440100  1.0
  C  C2532  1  0.394500  0.962200  0.522100  1.0
  C  C2533  1  0.727833  0.226567  0.371133  1.0
  C  C2534  1  0.727833  0.144567  0.773433  1.0
  C  C2535  1  0.727833  0.628867  0.855433  1.0
  C  C2536  1  0.061167  0.893233  0.704467  1.0
  C  C2537  1  0.061167  0.811233  0.106767  1.0
  C  C2538  1  0.061167  0.295533  0.188767  1.0
  C  C2539  1  0.572700  0.446100  0.963800  1.0
  C  C2540  1  0.572700  0.517700  0.553900  1.0
  C  C2541  1  0.572700  0.036200  0.482300  1.0
  C  C2542  1  0.239367  0.779433  0.630467  1.0
  C  C2543  1  0.239367  0.851033  0.220567  1.0
  C  C2544  1  0.239367  0.369533  0.148967  1.0
  C  C2545  1  0.906033  0.112767  0.297133  1.0
  C  C2546  1  0.906033  0.184367  0.887233  1.0
  C  C2547  1  0.906033  0.702867  0.815633  1.0
  C  C2548  1  0.427300  0.553900  0.036200  1.0
  C  C2549  1  0.427300  0.482300  0.446100  1.0
  C  C2550  1  0.427300  0.963800  0.517700  1.0
  C  C2551  1  0.760633  0.220567  0.369533  1.0
  C  C2552  1  0.760633  0.148967  0.779433  1.0
  C  C2553  1  0.760633  0.630467  0.851033  1.0
  C  C2554  1  0.093967  0.887233  0.702867  1.0
  C  C2555  1  0.093967  0.815633  0.112767  1.0
  C  C2556  1  0.093967  0.297133  0.184367  1.0
  C  C2557  1  0.557700  0.455200  0.985900  1.0
  C  C2558  1  0.557700  0.530700  0.544800  1.0
  C  C2559  1  0.557700  0.014100  0.469300  1.0
  C  C2560  1  0.224367  0.788533  0.652567  1.0
  C  C2561  1  0.224367  0.864033  0.211467  1.0
  C  C2562  1  0.224367  0.347433  0.135967  1.0
  C  C2563  1  0.891033  0.121867  0.319233  1.0
  C  C2564  1  0.891033  0.197367  0.878133  1.0
  C  C2565  1  0.891033  0.680767  0.802633  1.0
  C  C2566  1  0.442300  0.544800  0.014100  1.0
  C  C2567  1  0.442300  0.469300  0.455200  1.0
  C  C2568  1  0.442300  0.985900  0.530700  1.0
  C  C2569  1  0.775633  0.211467  0.347433  1.0
  C  C2570  1  0.775633  0.135967  0.788533  1.0
  C  C2571  1  0.775633  0.652567  0.864033  1.0
  C  C2572  1  0.108967  0.878133  0.680767  1.0
  C  C2573  1  0.108967  0.802633  0.121867  1.0
  C  C2574  1  0.108967  0.319233  0.197367  1.0
  C  C2575  1  0.573700  0.457800  0.007000  1.0
  C  C2576  1  0.573700  0.549200  0.542200  1.0
  C  C2577  1  0.573700  0.993000  0.450800  1.0
  C  C2578  1  0.240367  0.791133  0.673667  1.0
  C  C2579  1  0.240367  0.882533  0.208867  1.0
  C  C2580  1  0.240367  0.326333  0.117467  1.0
  C  C2581  1  0.907033  0.124467  0.340333  1.0
  C  C2582  1  0.907033  0.215867  0.875533  1.0
  C  C2583  1  0.907033  0.659667  0.784133  1.0
  C  C2584  1  0.426300  0.542200  0.993000  1.0
  C  C2585  1  0.426300  0.450800  0.457800  1.0
  C  C2586  1  0.426300  0.007000  0.549200  1.0
  C  C2587  1  0.759633  0.208867  0.326333  1.0
  C  C2588  1  0.759633  0.117467  0.791133  1.0
  C  C2589  1  0.759633  0.673667  0.882533  1.0
  C  C2590  1  0.092967  0.875533  0.659667  1.0
  C  C2591  1  0.092967  0.784133  0.124467  1.0
  C  C2592  1  0.092967  0.340333  0.215867  1.0
  C  C2593  1  0.605500  0.452900  0.007900  1.0
  C  C2594  1  0.605500  0.555000  0.547100  1.0
  C  C2595  1  0.605500  0.992100  0.445000  1.0
  C  C2596  1  0.272167  0.786233  0.674567  1.0
  C  C2597  1  0.272167  0.888333  0.213767  1.0
  C  C2598  1  0.272167  0.325433  0.111667  1.0
  C  C2599  1  0.938833  0.119567  0.341233  1.0
  C  C2600  1  0.938833  0.221667  0.880433  1.0
  C  C2601  1  0.938833  0.658767  0.778333  1.0
  C  C2602  1  0.394500  0.547100  0.992100  1.0
  C  C2603  1  0.394500  0.445000  0.452900  1.0
  C  C2604  1  0.394500  0.007900  0.555000  1.0
  C  C2605  1  0.727833  0.213767  0.325433  1.0
  C  C2606  1  0.727833  0.111667  0.786233  1.0
  C  C2607  1  0.727833  0.674567  0.888333  1.0
  C  C2608  1  0.061167  0.880433  0.658767  1.0
  C  C2609  1  0.061167  0.778333  0.119567  1.0
  C  C2610  1  0.061167  0.341233  0.221667  1.0
  C  C2611  1  0.522300  0.461100  0.988300  1.0
  C  C2612  1  0.522300  0.527200  0.538900  1.0
  C  C2613  1  0.522300  0.011700  0.472800  1.0
  C  C2614  1  0.188967  0.794433  0.654967  1.0
  C  C2615  1  0.188967  0.860533  0.205567  1.0
  C  C2616  1  0.188967  0.345033  0.139467  1.0
  C  C2617  1  0.855633  0.127767  0.321633  1.0
  C  C2618  1  0.855633  0.193867  0.872233  1.0
  C  C2619  1  0.855633  0.678367  0.806133  1.0
  C  C2620  1  0.477700  0.538900  0.011700  1.0
  C  C2621  1  0.477700  0.472800  0.461100  1.0
  C  C2622  1  0.477700  0.988300  0.527200  1.0
  C  C2623  1  0.811033  0.205567  0.345033  1.0
  C  C2624  1  0.811033  0.139467  0.794433  1.0
  C  C2625  1  0.811033  0.654967  0.860533  1.0
  C  C2626  1  0.144367  0.872233  0.678367  1.0
  C  C2627  1  0.144367  0.806133  0.127767  1.0
  C  C2628  1  0.144367  0.321633  0.193867  1.0
  C  C2629  1  0.496400  0.465800  0.989600  1.0
  C  C2630  1  0.496400  0.523800  0.534200  1.0
  C  C2631  1  0.496400  0.010400  0.476200  1.0
  C  C2632  1  0.163067  0.799133  0.656267  1.0
  C  C2633  1  0.163067  0.857133  0.200867  1.0
  C  C2634  1  0.163067  0.343733  0.142867  1.0
  C  C2635  1  0.829733  0.132467  0.322933  1.0
  C  C2636  1  0.829733  0.190467  0.867533  1.0
  C  C2637  1  0.829733  0.677067  0.809533  1.0
  C  C2638  1  0.503600  0.534200  0.010400  1.0
  C  C2639  1  0.503600  0.476200  0.465800  1.0
  C  C2640  1  0.503600  0.989600  0.523800  1.0
  C  C2641  1  0.836933  0.200867  0.343733  1.0
  C  C2642  1  0.836933  0.142867  0.799133  1.0
  C  C2643  1  0.836933  0.656267  0.857133  1.0
  C  C2644  1  0.170267  0.867533  0.677067  1.0
  C  C2645  1  0.170267  0.809533  0.132467  1.0
  C  C2646  1  0.170267  0.322933  0.190467  1.0
  C  C2647  1  0.648200  0.674400  0.859700  1.0
  C  C2648  1  0.648200  0.185300  0.325600  1.0
  C  C2649  1  0.648200  0.140300  0.814700  1.0
  C  C2650  1  0.314867  0.007733  0.526367  1.0
  C  C2651  1  0.314867  0.518633  0.992267  1.0
  C  C2652  1  0.314867  0.473633  0.481367  1.0
  C  C2653  1  0.981533  0.341067  0.193033  1.0
  C  C2654  1  0.981533  0.851967  0.658933  1.0
  C  C2655  1  0.981533  0.806967  0.148033  1.0
  C  C2656  1  0.351800  0.325600  0.140300  1.0
  C  C2657  1  0.351800  0.814700  0.674400  1.0
  C  C2658  1  0.351800  0.859700  0.185300  1.0
  C  C2659  1  0.685133  0.992267  0.473633  1.0
  C  C2660  1  0.685133  0.481367  0.007733  1.0
  C  C2661  1  0.685133  0.526367  0.518633  1.0
  C  C2662  1  0.018467  0.658933  0.806967  1.0
  C  C2663  1  0.018467  0.148033  0.341067  1.0
  C  C2664  1  0.018467  0.193033  0.851967  1.0
  C  C2665  1  0.639000  0.681500  0.840600  1.0
  C  C2666  1  0.639000  0.159100  0.318500  1.0
  C  C2667  1  0.639000  0.159400  0.840900  1.0
  C  C2668  1  0.305667  0.014833  0.507267  1.0
  C  C2669  1  0.305667  0.492433  0.985167  1.0
  C  C2670  1  0.305667  0.492733  0.507567  1.0
  C  C2671  1  0.972333  0.348167  0.173933  1.0
  C  C2672  1  0.972333  0.825767  0.651833  1.0
  C  C2673  1  0.972333  0.826067  0.174233  1.0
  C  C2674  1  0.361000  0.318500  0.159400  1.0
  C  C2675  1  0.361000  0.840900  0.681500  1.0
  C  C2676  1  0.361000  0.840600  0.159100  1.0
  C  C2677  1  0.694333  0.985167  0.492733  1.0
  C  C2678  1  0.694333  0.507567  0.014833  1.0
  C  C2679  1  0.694333  0.507267  0.492433  1.0
  C  C2680  1  0.027667  0.651833  0.826067  1.0
  C  C2681  1  0.027667  0.174233  0.348167  1.0
  C  C2682  1  0.027667  0.173933  0.825767  1.0
  C  C2683  1  0.635600  0.662200  0.816200  1.0
  C  C2684  1  0.635600  0.154000  0.337800  1.0
  C  C2685  1  0.635600  0.183800  0.846000  1.0
  C  C2686  1  0.302267  0.995533  0.482867  1.0
  C  C2687  1  0.302267  0.487333  0.004467  1.0
  C  C2688  1  0.302267  0.517133  0.512667  1.0
  C  C2689  1  0.968933  0.328867  0.149533  1.0
  C  C2690  1  0.968933  0.820667  0.671133  1.0
  C  C2691  1  0.968933  0.850467  0.179333  1.0
  C  C2692  1  0.364400  0.337800  0.183800  1.0
  C  C2693  1  0.364400  0.846000  0.662200  1.0
  C  C2694  1  0.364400  0.816200  0.154000  1.0
  C  C2695  1  0.697733  0.004467  0.517133  1.0
  C  C2696  1  0.697733  0.512667  0.995533  1.0
  C  C2697  1  0.697733  0.482867  0.487333  1.0
  C  C2698  1  0.031067  0.671133  0.850467  1.0
  C  C2699  1  0.031067  0.179333  0.328867  1.0
  C  C2700  1  0.031067  0.149533  0.820667  1.0
  C  C2701  1  0.642600  0.637900  0.810300  1.0
  C  C2702  1  0.642600  0.172400  0.362100  1.0
  C  C2703  1  0.642600  0.189700  0.827600  1.0
  C  C2704  1  0.309267  0.971233  0.476967  1.0
  C  C2705  1  0.309267  0.505733  0.028767  1.0
  C  C2706  1  0.309267  0.523033  0.494267  1.0
  C  C2707  1  0.975933  0.304567  0.143633  1.0
  C  C2708  1  0.975933  0.839067  0.695433  1.0
  C  C2709  1  0.975933  0.856367  0.160933  1.0
  C  C2710  1  0.357400  0.362100  0.189700  1.0
  C  C2711  1  0.357400  0.827600  0.637900  1.0
  C  C2712  1  0.357400  0.810300  0.172400  1.0
  C  C2713  1  0.690733  0.028767  0.523033  1.0
  C  C2714  1  0.690733  0.494267  0.971233  1.0
  C  C2715  1  0.690733  0.476967  0.505733  1.0
  C  C2716  1  0.024067  0.695433  0.856367  1.0
  C  C2717  1  0.024067  0.160933  0.304567  1.0
  C  C2718  1  0.024067  0.143633  0.839067  1.0
  C  C2719  1  0.651400  0.634800  0.830400  1.0
  C  C2720  1  0.651400  0.195600  0.365200  1.0
  C  C2721  1  0.651400  0.169600  0.804400  1.0
  C  C2722  1  0.318067  0.968133  0.497067  1.0
  C  C2723  1  0.318067  0.528933  0.031867  1.0
  C  C2724  1  0.318067  0.502933  0.471067  1.0
  C  C2725  1  0.984733  0.301467  0.163733  1.0
  C  C2726  1  0.984733  0.862267  0.698533  1.0
  C  C2727  1  0.984733  0.836267  0.137733  1.0
  C  C2728  1  0.348600  0.365200  0.169600  1.0
  C  C2729  1  0.348600  0.804400  0.634800  1.0
  C  C2730  1  0.348600  0.830400  0.195600  1.0
  C  C2731  1  0.681933  0.031867  0.502933  1.0
  C  C2732  1  0.681933  0.471067  0.968133  1.0
  C  C2733  1  0.681933  0.497067  0.528933  1.0
  C  C2734  1  0.015267  0.698533  0.836267  1.0
  C  C2735  1  0.015267  0.137733  0.301467  1.0
  C  C2736  1  0.015267  0.163733  0.862267  1.0
  C  C2737  1  0.627000  0.666100  0.795500  1.0
  C  C2738  1  0.627000  0.129400  0.333900  1.0
  C  C2739  1  0.627000  0.204500  0.870600  1.0
  C  C2740  1  0.293667  0.999433  0.462167  1.0
  C  C2741  1  0.293667  0.462733  0.000567  1.0
  C  C2742  1  0.293667  0.537833  0.537267  1.0
  C  C2743  1  0.960333  0.332767  0.128833  1.0
  C  C2744  1  0.960333  0.796067  0.667233  1.0
  C  C2745  1  0.960333  0.871167  0.203933  1.0
  C  C2746  1  0.373000  0.333900  0.204500  1.0
  C  C2747  1  0.373000  0.870600  0.666100  1.0
  C  C2748  1  0.373000  0.795500  0.129400  1.0
  C  C2749  1  0.706333  0.000567  0.537833  1.0
  C  C2750  1  0.706333  0.537267  0.999433  1.0
  C  C2751  1  0.706333  0.462167  0.462733  1.0
  C  C2752  1  0.039667  0.667233  0.871167  1.0
  C  C2753  1  0.039667  0.203933  0.332767  1.0
  C  C2754  1  0.039667  0.128833  0.796067  1.0
  C  C2755  1  0.621400  0.669200  0.780200  1.0
  C  C2756  1  0.621400  0.111000  0.330800  1.0
  C  C2757  1  0.621400  0.219800  0.889000  1.0
  C  C2758  1  0.288067  0.002533  0.446867  1.0
  C  C2759  1  0.288067  0.444333  0.997467  1.0
  C  C2760  1  0.288067  0.553133  0.555667  1.0
  C  C2761  1  0.954733  0.335867  0.113533  1.0
  C  C2762  1  0.954733  0.777667  0.664133  1.0
  C  C2763  1  0.954733  0.886467  0.222333  1.0
  C  C2764  1  0.378600  0.330800  0.219800  1.0
  C  C2765  1  0.378600  0.889000  0.669200  1.0
  C  C2766  1  0.378600  0.780200  0.111000  1.0
  C  C2767  1  0.711933  0.997467  0.553133  1.0
  C  C2768  1  0.711933  0.555667  0.002533  1.0
  C  C2769  1  0.711933  0.446867  0.444333  1.0
  C  C2770  1  0.045267  0.664133  0.886467  1.0
  C  C2771  1  0.045267  0.222333  0.335867  1.0
  C  C2772  1  0.045267  0.113533  0.777667  1.0
  C  C2773  1  0.594200  0.699200  0.744600  1.0
  C  C2774  1  0.594200  0.045400  0.300800  1.0
  C  C2775  1  0.594200  0.255400  0.954600  1.0
  C  C2776  1  0.260867  0.032533  0.411267  1.0
  C  C2777  1  0.260867  0.378733  0.967467  1.0
  C  C2778  1  0.260867  0.588733  0.621267  1.0
  C  C2779  1  0.927533  0.365867  0.077933  1.0
  C  C2780  1  0.927533  0.712067  0.634133  1.0
  C  C2781  1  0.927533  0.922067  0.287933  1.0
  C  C2782  1  0.405800  0.300800  0.255400  1.0
  C  C2783  1  0.405800  0.954600  0.699200  1.0
  C  C2784  1  0.405800  0.744600  0.045400  1.0
  C  C2785  1  0.739133  0.967467  0.588733  1.0
  C  C2786  1  0.739133  0.621267  0.032533  1.0
  C  C2787  1  0.739133  0.411267  0.378733  1.0
  C  C2788  1  0.072467  0.634133  0.922067  1.0
  C  C2789  1  0.072467  0.287933  0.365867  1.0
  C  C2790  1  0.072467  0.077933  0.712067  1.0
  C  C2791  1  0.601000  0.695300  0.763900  1.0
  C  C2792  1  0.601000  0.068600  0.304700  1.0
  C  C2793  1  0.601000  0.236100  0.931400  1.0
  C  C2794  1  0.267667  0.028633  0.430567  1.0
  C  C2795  1  0.267667  0.401933  0.971367  1.0
  C  C2796  1  0.267667  0.569433  0.598067  1.0
  C  C2797  1  0.934333  0.361967  0.097233  1.0
  C  C2798  1  0.934333  0.735267  0.638033  1.0
  C  C2799  1  0.934333  0.902767  0.264733  1.0
  C  C2800  1  0.399000  0.304700  0.236100  1.0
  C  C2801  1  0.399000  0.931400  0.695300  1.0
  C  C2802  1  0.399000  0.763900  0.068600  1.0
  C  C2803  1  0.732333  0.971367  0.569433  1.0
  C  C2804  1  0.732333  0.598067  0.028633  1.0
  C  C2805  1  0.732333  0.430567  0.401933  1.0
  C  C2806  1  0.065667  0.638033  0.902767  1.0
  C  C2807  1  0.065667  0.264733  0.361967  1.0
  C  C2808  1  0.065667  0.097233  0.735267  1.0
  C  C2809  1  0.614300  0.673200  0.759300  1.0
  C  C2810  1  0.614300  0.086100  0.326800  1.0
  C  C2811  1  0.614300  0.240700  0.913900  1.0
  C  C2812  1  0.280967  0.006533  0.425967  1.0
  C  C2813  1  0.280967  0.419433  0.993467  1.0
  C  C2814  1  0.280967  0.574033  0.580567  1.0
  C  C2815  1  0.947633  0.339867  0.092633  1.0
  C  C2816  1  0.947633  0.752767  0.660133  1.0
  C  C2817  1  0.947633  0.907367  0.247233  1.0
  C  C2818  1  0.385700  0.326800  0.240700  1.0
  C  C2819  1  0.385700  0.913900  0.673200  1.0
  C  C2820  1  0.385700  0.759300  0.086100  1.0
  C  C2821  1  0.719033  0.993467  0.574033  1.0
  C  C2822  1  0.719033  0.580567  0.006533  1.0
  C  C2823  1  0.719033  0.425967  0.419433  1.0
  C  C2824  1  0.052367  0.660133  0.907367  1.0
  C  C2825  1  0.052367  0.247233  0.339867  1.0
  C  C2826  1  0.052367  0.092633  0.752767  1.0
  C  C2827  1  0.620700  0.655000  0.735400  1.0
  C  C2828  1  0.620700  0.080400  0.345000  1.0
  C  C2829  1  0.620700  0.264600  0.919600  1.0
  C  C2830  1  0.287367  0.988333  0.402067  1.0
  C  C2831  1  0.287367  0.413733  0.011667  1.0
  C  C2832  1  0.287367  0.597933  0.586267  1.0
  C  C2833  1  0.954033  0.321667  0.068733  1.0
  C  C2834  1  0.954033  0.747067  0.678333  1.0
  C  C2835  1  0.954033  0.931267  0.252933  1.0
  C  C2836  1  0.379300  0.345000  0.264600  1.0
  C  C2837  1  0.379300  0.919600  0.655000  1.0
  C  C2838  1  0.379300  0.735400  0.080400  1.0
  C  C2839  1  0.712633  0.011667  0.597933  1.0
  C  C2840  1  0.712633  0.586267  0.988333  1.0
  C  C2841  1  0.712633  0.402067  0.413733  1.0
  C  C2842  1  0.045967  0.678333  0.931267  1.0
  C  C2843  1  0.045967  0.252933  0.321667  1.0
  C  C2844  1  0.045967  0.068733  0.747067  1.0
  C  C2845  1  0.613900  0.658900  0.716100  1.0
  C  C2846  1  0.613900  0.057200  0.341100  1.0
  C  C2847  1  0.613900  0.283900  0.942800  1.0
  C  C2848  1  0.280567  0.992233  0.382767  1.0
  C  C2849  1  0.280567  0.390533  0.007767  1.0
  C  C2850  1  0.280567  0.617233  0.609467  1.0
  C  C2851  1  0.947233  0.325567  0.049433  1.0
  C  C2852  1  0.947233  0.723867  0.674433  1.0
  C  C2853  1  0.947233  0.950567  0.276133  1.0
  C  C2854  1  0.386100  0.341100  0.283900  1.0
  C  C2855  1  0.386100  0.942800  0.658900  1.0
  C  C2856  1  0.386100  0.716100  0.057200  1.0
  C  C2857  1  0.719433  0.007767  0.617233  1.0
  C  C2858  1  0.719433  0.609467  0.992233  1.0
  C  C2859  1  0.719433  0.382767  0.390533  1.0
  C  C2860  1  0.052767  0.674433  0.950567  1.0
  C  C2861  1  0.052767  0.276133  0.325567  1.0
  C  C2862  1  0.052767  0.049433  0.723867  1.0
  C  C2863  1  0.600600  0.681100  0.720700  1.0
  C  C2864  1  0.600600  0.039600  0.318900  1.0
  C  C2865  1  0.600600  0.279300  0.960400  1.0
  C  C2866  1  0.267267  0.014433  0.387367  1.0
  C  C2867  1  0.267267  0.372933  0.985567  1.0
  C  C2868  1  0.267267  0.612633  0.627067  1.0
  C  C2869  1  0.933933  0.347767  0.054033  1.0
  C  C2870  1  0.933933  0.706267  0.652233  1.0
  C  C2871  1  0.933933  0.945967  0.293733  1.0
  C  C2872  1  0.399400  0.318900  0.279300  1.0
  C  C2873  1  0.399400  0.960400  0.681100  1.0
  C  C2874  1  0.399400  0.720700  0.039600  1.0
  C  C2875  1  0.732733  0.985567  0.612633  1.0
  C  C2876  1  0.732733  0.627067  0.014433  1.0
  C  C2877  1  0.732733  0.387367  0.372933  1.0
  C  C2878  1  0.066067  0.652233  0.945967  1.0
  C  C2879  1  0.066067  0.293733  0.347767  1.0
  C  C2880  1  0.066067  0.054033  0.706267  1.0
  C  C2881  1  0.620800  0.639800  0.690300  1.0
  C  C2882  1  0.620800  0.050500  0.360200  1.0
  C  C2883  1  0.620800  0.309700  0.949500  1.0
  C  C2884  1  0.287467  0.973133  0.356967  1.0
  C  C2885  1  0.287467  0.383833  0.026867  1.0
  C  C2886  1  0.287467  0.643033  0.616167  1.0
  C  C2887  1  0.954133  0.306467  0.023633  1.0
  C  C2888  1  0.954133  0.717167  0.693533  1.0
  C  C2889  1  0.954133  0.976367  0.282833  1.0
  C  C2890  1  0.379200  0.360200  0.309700  1.0
  C  C2891  1  0.379200  0.949500  0.639800  1.0
  C  C2892  1  0.379200  0.690300  0.050500  1.0
  C  C2893  1  0.712533  0.026867  0.643033  1.0
  C  C2894  1  0.712533  0.616167  0.973133  1.0
  C  C2895  1  0.712533  0.356967  0.383833  1.0
  C  C2896  1  0.045867  0.693533  0.976367  1.0
  C  C2897  1  0.045867  0.282833  0.306467  1.0
  C  C2898  1  0.045867  0.023633  0.717167  1.0
  C  C2899  1  0.626700  0.625000  0.671700  1.0
  C  C2900  1  0.626700  0.046700  0.375000  1.0
  C  C2901  1  0.626700  0.328300  0.953300  1.0
  C  C2902  1  0.293367  0.958333  0.338367  1.0
  C  C2903  1  0.293367  0.380033  0.041667  1.0
  C  C2904  1  0.293367  0.661633  0.619967  1.0
  C  C2905  1  0.960033  0.291667  0.005033  1.0
  C  C2906  1  0.960033  0.713367  0.708333  1.0
  C  C2907  1  0.960033  0.994967  0.286633  1.0
  C  C2908  1  0.373300  0.375000  0.328300  1.0
  C  C2909  1  0.373300  0.953300  0.625000  1.0
  C  C2910  1  0.373300  0.671700  0.046700  1.0
  C  C2911  1  0.706633  0.041667  0.661633  1.0
  C  C2912  1  0.706633  0.619967  0.958333  1.0
  C  C2913  1  0.706633  0.338367  0.380033  1.0
  C  C2914  1  0.039967  0.708333  0.994967  1.0
  C  C2915  1  0.039967  0.286633  0.291667  1.0
  C  C2916  1  0.039967  0.005033  0.713367  1.0
  C  C2917  1  0.648200  0.596300  0.606100  1.0
  C  C2918  1  0.648200  0.009800  0.403700  1.0
  C  C2919  1  0.648200  0.393900  0.990200  1.0
  C  C2920  1  0.314867  0.929633  0.272767  1.0
  C  C2921  1  0.314867  0.343133  0.070367  1.0
  C  C2922  1  0.314867  0.727233  0.656867  1.0
  C  C2923  1  0.981533  0.262967  0.939433  1.0
  C  C2924  1  0.981533  0.676467  0.737033  1.0
  C  C2925  1  0.981533  0.060567  0.323533  1.0
  C  C2926  1  0.351800  0.403700  0.393900  1.0
  C  C2927  1  0.351800  0.990200  0.596300  1.0
  C  C2928  1  0.351800  0.606100  0.009800  1.0
  C  C2929  1  0.685133  0.070367  0.727233  1.0
  C  C2930  1  0.685133  0.656867  0.929633  1.0
  C  C2931  1  0.685133  0.272767  0.343133  1.0
  C  C2932  1  0.018467  0.737033  0.060567  1.0
  C  C2933  1  0.018467  0.323533  0.262967  1.0
  C  C2934  1  0.018467  0.939433  0.676467  1.0
  C  C2935  1  0.639000  0.612700  0.628600  1.0
  C  C2936  1  0.639000  0.015900  0.387300  1.0
  C  C2937  1  0.639000  0.371400  0.984100  1.0
  C  C2938  1  0.305667  0.946033  0.295267  1.0
  C  C2939  1  0.305667  0.349233  0.053967  1.0
  C  C2940  1  0.305667  0.704733  0.650767  1.0
  C  C2941  1  0.972333  0.279367  0.961933  1.0
  C  C2942  1  0.972333  0.682567  0.720633  1.0
  C  C2943  1  0.972333  0.038067  0.317433  1.0
  C  C2944  1  0.361000  0.387300  0.371400  1.0
  C  C2945  1  0.361000  0.984100  0.612700  1.0
  C  C2946  1  0.361000  0.628600  0.015900  1.0
  C  C2947  1  0.694333  0.053967  0.704733  1.0
  C  C2948  1  0.694333  0.650767  0.946033  1.0
  C  C2949  1  0.694333  0.295267  0.349233  1.0
  C  C2950  1  0.027667  0.720633  0.038067  1.0
  C  C2951  1  0.027667  0.317433  0.279367  1.0
  C  C2952  1  0.027667  0.961933  0.682567  1.0
  C  C2953  1  0.635400  0.606300  0.645900  1.0
  C  C2954  1  0.635400  0.039600  0.393700  1.0
  C  C2955  1  0.635400  0.354100  0.960400  1.0
  C  C2956  1  0.302067  0.939633  0.312567  1.0
  C  C2957  1  0.302067  0.372933  0.060367  1.0
  C  C2958  1  0.302067  0.687433  0.627067  1.0
  C  C2959  1  0.968733  0.272967  0.979233  1.0
  C  C2960  1  0.968733  0.706267  0.727033  1.0
  C  C2961  1  0.968733  0.020767  0.293733  1.0
  C  C2962  1  0.364600  0.393700  0.354100  1.0
  C  C2963  1  0.364600  0.960400  0.606300  1.0
  C  C2964  1  0.364600  0.645900  0.039600  1.0
  C  C2965  1  0.697933  0.060367  0.687433  1.0
  C  C2966  1  0.697933  0.627067  0.939633  1.0
  C  C2967  1  0.697933  0.312567  0.372933  1.0
  C  C2968  1  0.031267  0.727033  0.020767  1.0
  C  C2969  1  0.031267  0.293733  0.272967  1.0
  C  C2970  1  0.031267  0.979233  0.706267  1.0
  C  C2971  1  0.641600  0.583900  0.641900  1.0
  C  C2972  1  0.641600  0.058000  0.416100  1.0
  C  C2973  1  0.641600  0.358100  0.942000  1.0
  C  C2974  1  0.308267  0.917233  0.308567  1.0
  C  C2975  1  0.308267  0.391333  0.082767  1.0
  C  C2976  1  0.308267  0.691433  0.608667  1.0
  C  C2977  1  0.974933  0.250567  0.975233  1.0
  C  C2978  1  0.974933  0.724667  0.749433  1.0
  C  C2979  1  0.974933  0.024767  0.275333  1.0
  C  C2980  1  0.358400  0.416100  0.358100  1.0
  C  C2981  1  0.358400  0.942000  0.583900  1.0
  C  C2982  1  0.358400  0.641900  0.058000  1.0
  C  C2983  1  0.691733  0.082767  0.691433  1.0
  C  C2984  1  0.691733  0.608667  0.917233  1.0
  C  C2985  1  0.691733  0.308567  0.391333  1.0
  C  C2986  1  0.025067  0.749433  0.024767  1.0
  C  C2987  1  0.025067  0.275333  0.250567  1.0
  C  C2988  1  0.025067  0.975233  0.724667  1.0
  C  C2989  1  0.651400  0.566000  0.619700  1.0
  C  C2990  1  0.651400  0.053700  0.434000  1.0
  C  C2991  1  0.651400  0.380300  0.946300  1.0
  C  C2992  1  0.318067  0.899333  0.286367  1.0
  C  C2993  1  0.318067  0.387033  0.100667  1.0
  C  C2994  1  0.318067  0.713633  0.612967  1.0
  C  C2995  1  0.984733  0.232667  0.953033  1.0
  C  C2996  1  0.984733  0.720367  0.767333  1.0
  C  C2997  1  0.984733  0.046967  0.279633  1.0
  C  C2998  1  0.348600  0.434000  0.380300  1.0
  C  C2999  1  0.348600  0.946300  0.566000  1.0
  C  C3000  1  0.348600  0.619700  0.053700  1.0
  C  C3001  1  0.681933  0.100667  0.713633  1.0
  C  C3002  1  0.681933  0.612967  0.899333  1.0
  C  C3003  1  0.681933  0.286367  0.387033  1.0
  C  C3004  1  0.015267  0.767333  0.046967  1.0
  C  C3005  1  0.015267  0.279633  0.232667  1.0
  C  C3006  1  0.015267  0.953033  0.720367  1.0
  Br  Br3007  1  0.379300  0.678500  0.913800  1
  Br  Br3008  1  0.379300  0.235300  0.321500  1
  Br  Br3009  1  0.379300  0.086200  0.764700  1
  Br  Br3010  1  0.045967  0.011833  0.580467  1
  Br  Br3011  1  0.045967  0.568633  0.988167  1
  Br  Br3012  1  0.045967  0.419533  0.431367  1
  Br  Br3013  1  0.712633  0.345167  0.247133  1
  Br  Br3014  1  0.712633  0.901967  0.654833  1
  Br  Br3015  1  0.712633  0.752867  0.098033  1
  Br  Br3016  1  0.620700  0.321500  0.086200  1
  Br  Br3017  1  0.620700  0.764700  0.678500  1
  Br  Br3018  1  0.620700  0.913800  0.235300  1
  Br  Br3019  1  0.954033  0.988167  0.419533  1
  Br  Br3020  1  0.954033  0.431367  0.011833  1
  Br  Br3021  1  0.954033  0.580467  0.568633  1
  Br  Br3022  1  0.287367  0.654833  0.752867  1
  Br  Br3023  1  0.287367  0.098033  0.345167  1
  Br  Br3024  1  0.287367  0.247133  0.901967  1
  Br  Br3025  1  0.395400  0.683000  0.955700  1
  Br  Br3026  1  0.395400  0.272700  0.317000  1
  Br  Br3027  1  0.395400  0.044300  0.727300  1
  Br  Br3028  1  0.062067  0.016333  0.622367  1
  Br  Br3029  1  0.062067  0.606033  0.983667  1
  Br  Br3030  1  0.062067  0.377633  0.393967  1
  Br  Br3031  1  0.728733  0.349667  0.289033  1
  Br  Br3032  1  0.728733  0.939367  0.650333  1
  Br  Br3033  1  0.728733  0.710967  0.060633  1
  Br  Br3034  1  0.604600  0.317000  0.044300  1
  Br  Br3035  1  0.604600  0.727300  0.683000  1
  Br  Br3036  1  0.604600  0.955700  0.272700  1
  Br  Br3037  1  0.937933  0.983667  0.377633  1
  Br  Br3038  1  0.937933  0.393967  0.016333  1
  Br  Br3039  1  0.937933  0.622367  0.606033  1
  Br  Br3040  1  0.271267  0.650333  0.710967  1
  Br  Br3041  1  0.271267  0.060633  0.349667  1
  Br  Br3042  1  0.271267  0.289033  0.939367  1
  Br  Br3043  1  0.284000  0.345700  0.929400  1
  Br  Br3044  1  0.284000  0.583700  0.654300  1
  Br  Br3045  1  0.284000  0.070600  0.416300  1
  Br  Br3046  1  0.950667  0.679033  0.596067  1
  Br  Br3047  1  0.950667  0.917033  0.320967  1
  Br  Br3048  1  0.950667  0.403933  0.082967  1
  Br  Br3049  1  0.617333  0.012367  0.262733  1
  Br  Br3050  1  0.617333  0.250367  0.987633  1
  Br  Br3051  1  0.617333  0.737267  0.749633  1
  Br  Br3052  1  0.716000  0.654300  0.070600  1
  Br  Br3053  1  0.716000  0.416300  0.345700  1
  Br  Br3054  1  0.716000  0.929400  0.583700  1
  Br  Br3055  1  0.049333  0.320967  0.403933  1
  Br  Br3056  1  0.049333  0.082967  0.679033  1
  Br  Br3057  1  0.049333  0.596067  0.917033  1
  Br  Br3058  1  0.382667  0.987633  0.737267  1
  Br  Br3059  1  0.382667  0.749633  0.012367  1
  Br  Br3060  1  0.382667  0.262733  0.250367  1
  Br  Br3061  1  0.414200  0.666400  0.979600  1.0
  Br  Br3062  1  0.414200  0.313200  0.333600  1.0
  Br  Br3063  1  0.414200  0.020400  0.686800  1.0
  Br  Br3064  1  0.080867  0.999733  0.646267  1.0
  Br  Br3065  1  0.080867  0.646533  0.000267  1.0
  Br  Br3066  1  0.080867  0.353733  0.353467  1.0
  Br  Br3067  1  0.747533  0.333067  0.312933  1.0
  Br  Br3068  1  0.747533  0.979867  0.666933  1.0
  Br  Br3069  1  0.747533  0.687067  0.020133  1.0
  Br  Br3070  1  0.585800  0.333600  0.020400  1.0
  Br  Br3071  1  0.585800  0.686800  0.666400  1.0
  Br  Br3072  1  0.585800  0.979600  0.313200  1.0
  Br  Br3073  1  0.919133  0.000267  0.353733  1.0
  Br  Br3074  1  0.919133  0.353467  0.999733  1.0
  Br  Br3075  1  0.919133  0.646267  0.646533  1.0
  Br  Br3076  1  0.252467  0.666933  0.687067  1.0
  Br  Br3077  1  0.252467  0.020133  0.333067  1.0
  Br  Br3078  1  0.252467  0.312933  0.979867  1.0
  Br  Br3079  1  0.146310  0.504120  0.708350  1.0
  Br  Br3080  1  0.146310  0.204230  0.495880  1.0
  Br  Br3081  1  0.146310  0.291650  0.795770  1.0
  Br  Br3082  1  0.812977  0.837453  0.375017  1.0
  Br  Br3083  1  0.812977  0.537563  0.162547  1.0
  Br  Br3084  1  0.812977  0.624983  0.462437  1.0
  Br  Br3085  1  0.479643  0.170787  0.041683  1.0
  Br  Br3086  1  0.479643  0.870897  0.829213  1.0
  Br  Br3087  1  0.479643  0.958317  0.129103  1.0
  Br  Br3088  1  0.853690  0.495880  0.291650  1.0
  Br  Br3089  1  0.853690  0.795770  0.504120  1.0
  Br  Br3090  1  0.853690  0.708350  0.204230  1.0
  Br  Br3091  1  0.187023  0.162547  0.624983  1.0
  Br  Br3092  1  0.187023  0.462437  0.837453  1.0
  Br  Br3093  1  0.187023  0.375017  0.537563  1.0
  Br  Br3094  1  0.520357  0.829213  0.958317  1.0
  Br  Br3095  1  0.520357  0.129103  0.170787  1.0
  Br  Br3096  1  0.520357  0.041683  0.870897  1.0
  Br  Br3097  1  0.392990  0.501150  0.044960  1.0
  Br  Br3098  1  0.392990  0.543810  0.498850  1.0
  Br  Br3099  1  0.392990  0.955040  0.456190  1.0
  Br  Br3100  1  0.059657  0.834483  0.711627  1.0
  Br  Br3101  1  0.059657  0.877143  0.165517  1.0
  Br  Br3102  1  0.059657  0.288373  0.122857  1.0
  Br  Br3103  1  0.726323  0.167817  0.378293  1.0
  Br  Br3104  1  0.726323  0.210477  0.832183  1.0
  Br  Br3105  1  0.726323  0.621707  0.789523  1.0
  Br  Br3106  1  0.607010  0.498850  0.955040  1.0
  Br  Br3107  1  0.607010  0.456190  0.501150  1.0
  Br  Br3108  1  0.607010  0.044960  0.543810  1.0
  Br  Br3109  1  0.940343  0.165517  0.288373  1.0
  Br  Br3110  1  0.940343  0.122857  0.834483  1.0
  Br  Br3111  1  0.940343  0.711627  0.877143  1.0
  Br  Br3112  1  0.273677  0.832183  0.621707  1.0
  Br  Br3113  1  0.273677  0.789523  0.167817  1.0
  Br  Br3114  1  0.273677  0.378293  0.210477  1.0
  Br  Br3115  1  0.576100  0.728500  0.750700  1.0
  Br  Br3116  1  0.576100  0.022200  0.271500  1.0
  Br  Br3117  1  0.576100  0.249300  0.977800  1.0
  Br  Br3118  1  0.242767  0.061833  0.417367  1.0
  Br  Br3119  1  0.242767  0.355533  0.938167  1.0
  Br  Br3120  1  0.242767  0.582633  0.644467  1.0
  Br  Br3121  1  0.909433  0.395167  0.084033  1.0
  Br  Br3122  1  0.909433  0.688867  0.604833  1.0
  Br  Br3123  1  0.909433  0.915967  0.311133  1.0
  Br  Br3124  1  0.423900  0.271500  0.249300  1.0
  Br  Br3125  1  0.423900  0.977800  0.728500  1.0
  Br  Br3126  1  0.423900  0.750700  0.022200  1.0
  Br  Br3127  1  0.757233  0.938167  0.582633  1.0
  Br  Br3128  1  0.757233  0.644467  0.061833  1.0
  Br  Br3129  1  0.757233  0.417367  0.355533  1.0
  Br  Br3130  1  0.090567  0.604833  0.915967  1.0
  Br  Br3131  1  0.090567  0.311133  0.395167  1.0
  Br  Br3132  1  0.090567  0.084033  0.688867  1.0
  N  N3133  1  0.340300  0.501000  0.854900  1.0
  N  N3134  1  0.340300  0.353900  0.499000  1.0
  N  N3135  1  0.340300  0.145100  0.646100  1.0
  N  N3136  1  0.006967  0.834333  0.521567  1.0
  N  N3137  1  0.006967  0.687233  0.165667  1.0
  N  N3138  1  0.006967  0.478433  0.312767  1.0
  N  N3139  1  0.673633  0.167667  0.188233  1.0
  N  N3140  1  0.673633  0.020567  0.832333  1.0
  N  N3141  1  0.673633  0.811767  0.979433  1.0
  N  N3142  1  0.659700  0.499000  0.145100  1.0
  N  N3143  1  0.659700  0.646100  0.501000  1.0
  N  N3144  1  0.659700  0.854900  0.353900  1.0
  N  N3145  1  0.993033  0.165667  0.478433  1.0
  N  N3146  1  0.993033  0.312767  0.834333  1.0
  N  N3147  1  0.993033  0.521567  0.687233  1.0
  N  N3148  1  0.326367  0.832333  0.811767  1.0
  N  N3149  1  0.326367  0.979433  0.167667  1.0
  N  N3150  1  0.326367  0.188233  0.020567  1.0
  N  N3151  1  0.296800  0.397700  0.565800  1.0
  N  N3152  1  0.296800  0.168100  0.602300  1.0
  N  N3153  1  0.296800  0.434200  0.831900  1.0
  N  N3154  1  0.963467  0.731033  0.232467  1.0
  N  N3155  1  0.963467  0.501433  0.268967  1.0
  N  N3156  1  0.963467  0.767533  0.498567  1.0
  N  N3157  1  0.630133  0.064367  0.899133  1.0
  N  N3158  1  0.630133  0.834767  0.935633  1.0
  N  N3159  1  0.630133  0.100867  0.165233  1.0
  N  N3160  1  0.703200  0.602300  0.434200  1.0
  N  N3161  1  0.703200  0.831900  0.397700  1.0
  N  N3162  1  0.703200  0.565800  0.168100  1.0
  N  N3163  1  0.036533  0.268967  0.767533  1.0
  N  N3164  1  0.036533  0.498567  0.731033  1.0
  N  N3165  1  0.036533  0.232467  0.501433  1.0
  N  N3166  1  0.369867  0.935633  0.100867  1.0
  N  N3167  1  0.369867  0.165233  0.064367  1.0
  N  N3168  1  0.369867  0.899133  0.834767  1.0
  N  N3169  1  0.297400  0.468300  0.815000  1.0
  N  N3170  1  0.297400  0.346700  0.531700  1.0
  N  N3171  1  0.297400  0.185000  0.653300  1.0
  N  N3172  1  0.964067  0.801633  0.481667  1.0
  N  N3173  1  0.964067  0.680033  0.198367  1.0
  N  N3174  1  0.964067  0.518333  0.319967  1.0
  N  N3175  1  0.630733  0.134967  0.148333  1.0
  N  N3176  1  0.630733  0.013367  0.865033  1.0
  N  N3177  1  0.630733  0.851667  0.986633  1.0
  N  N3178  1  0.702600  0.531700  0.185000  1.0
  N  N3179  1  0.702600  0.653300  0.468300  1.0
  N  N3180  1  0.702600  0.815000  0.346700  1.0
  N  N3181  1  0.035933  0.198367  0.518333  1.0
  N  N3182  1  0.035933  0.319967  0.801633  1.0
  N  N3183  1  0.035933  0.481667  0.680033  1.0
  N  N3184  1  0.369267  0.865033  0.851667  1.0
  N  N3185  1  0.369267  0.986633  0.134967  1.0
  N  N3186  1  0.369267  0.148333  0.013367  1.0
  N  N3187  1  0.339000  0.465600  0.872000  1.0
  N  N3188  1  0.339000  0.406400  0.534400  1.0
  N  N3189  1  0.339000  0.128000  0.593600  1.0
  N  N3190  1  0.005667  0.798933  0.538667  1.0
  N  N3191  1  0.005667  0.739733  0.201067  1.0
  N  N3192  1  0.005667  0.461333  0.260267  1.0
  N  N3193  1  0.672333  0.132267  0.205333  1.0
  N  N3194  1  0.672333  0.073067  0.867733  1.0
  N  N3195  1  0.672333  0.794667  0.926933  1.0
  N  N3196  1  0.661000  0.534400  0.128000  1.0
  N  N3197  1  0.661000  0.593600  0.465600  1.0
  N  N3198  1  0.661000  0.872000  0.406400  1.0
  N  N3199  1  0.994333  0.201067  0.461333  1.0
  N  N3200  1  0.994333  0.260267  0.798933  1.0
  N  N3201  1  0.994333  0.538667  0.739733  1.0
  N  N3202  1  0.327667  0.867733  0.794667  1.0
  N  N3203  1  0.327667  0.926933  0.132267  1.0
  N  N3204  1  0.327667  0.205333  0.073067  1.0
  N  N3205  1  0.618900  0.642000  0.883900  1.0
  N  N3206  1  0.618900  0.241900  0.358000  1.0
  N  N3207  1  0.618900  0.116100  0.758100  1.0
  N  N3208  1  0.285567  0.975333  0.550567  1.0
  N  N3209  1  0.285567  0.575233  0.024667  1.0
  N  N3210  1  0.285567  0.449433  0.424767  1.0
  N  N3211  1  0.952233  0.308667  0.217233  1.0
  N  N3212  1  0.952233  0.908567  0.691333  1.0
  N  N3213  1  0.952233  0.782767  0.091433  1.0
  N  N3214  1  0.381100  0.358000  0.116100  1.0
  N  N3215  1  0.381100  0.758100  0.642000  1.0
  N  N3216  1  0.381100  0.883900  0.241900  1.0
  N  N3217  1  0.714433  0.024667  0.449433  1.0
  N  N3218  1  0.714433  0.424767  0.975333  1.0
  N  N3219  1  0.714433  0.550567  0.575233  1.0
  N  N3220  1  0.047767  0.691333  0.782767  1.0
  N  N3221  1  0.047767  0.091433  0.308667  1.0
  N  N3222  1  0.047767  0.217233  0.908567  1.0
  N  N3223  1  0.618600  0.443900  0.984100  1.0
  N  N3224  1  0.618600  0.540200  0.556100  1.0
  N  N3225  1  0.618600  0.015900  0.459800  1.0
  N  N3226  1  0.285267  0.777233  0.650767  1.0
  N  N3227  1  0.285267  0.873533  0.222767  1.0
  N  N3228  1  0.285267  0.349233  0.126467  1.0
  N  N3229  1  0.951933  0.110567  0.317433  1.0
  N  N3230  1  0.951933  0.206867  0.889433  1.0
  N  N3231  1  0.951933  0.682567  0.793133  1.0
  N  N3232  1  0.381400  0.556100  0.015900  1.0
  N  N3233  1  0.381400  0.459800  0.443900  1.0
  N  N3234  1  0.381400  0.984100  0.540200  1.0
  N  N3235  1  0.714733  0.222767  0.349233  1.0
  N  N3236  1  0.714733  0.126467  0.777233  1.0
  N  N3237  1  0.714733  0.650767  0.873533  1.0
  N  N3238  1  0.048067  0.889433  0.682567  1.0
  N  N3239  1  0.048067  0.793133  0.110567  1.0
  N  N3240  1  0.048067  0.317433  0.206867  1.0
  N  N3241  1  0.653400  0.651600  0.853300  1.0
  N  N3242  1  0.653400  0.201700  0.348400  1.0
  N  N3243  1  0.653400  0.146700  0.798300  1.0
  N  N3244  1  0.320067  0.984933  0.519967  1.0
  N  N3245  1  0.320067  0.535033  0.015067  1.0
  N  N3246  1  0.320067  0.480033  0.464967  1.0
  N  N3247  1  0.986733  0.318267  0.186633  1.0
  N  N3248  1  0.986733  0.868367  0.681733  1.0
  N  N3249  1  0.986733  0.813367  0.131633  1.0
  N  N3250  1  0.346600  0.348400  0.146700  1.0
  N  N3251  1  0.346600  0.798300  0.651600  1.0
  N  N3252  1  0.346600  0.853300  0.201700  1.0
  N  N3253  1  0.679933  0.015067  0.480033  1.0
  N  N3254  1  0.679933  0.464967  0.984933  1.0
  N  N3255  1  0.679933  0.519967  0.535033  1.0
  N  N3256  1  0.013267  0.681733  0.813367  1.0
  N  N3257  1  0.013267  0.131633  0.318267  1.0
  N  N3258  1  0.013267  0.186633  0.868367  1.0
  N  N3259  1  0.654700  0.572000  0.601200  1.0
  N  N3260  1  0.654700  0.029200  0.428000  1.0
  N  N3261  1  0.654700  0.398800  0.970800  1.0
  N  N3262  1  0.321367  0.905333  0.267867  1.0
  N  N3263  1  0.321367  0.362533  0.094667  1.0
  N  N3264  1  0.321367  0.732133  0.637467  1.0
  N  N3265  1  0.988033  0.238667  0.934533  1.0
  N  N3266  1  0.988033  0.695867  0.761333  1.0
  N  N3267  1  0.988033  0.065467  0.304133  1.0
  N  N3268  1  0.345300  0.428000  0.398800  1.0
  N  N3269  1  0.345300  0.970800  0.572000  1.0
  N  N3270  1  0.345300  0.601200  0.029200  1.0
  N  N3271  1  0.678633  0.094667  0.732133  1.0
  N  N3272  1  0.678633  0.637467  0.905333  1.0
  N  N3273  1  0.678633  0.267867  0.362533  1.0
  N  N3274  1  0.011967  0.761333  0.065467  1.0
  N  N3275  1  0.011967  0.304133  0.238667  1.0
  N  N3276  1  0.011967  0.934533  0.695867  1.0
  O  O3277  1  0.463500  0.590200  0.881700  1.0
  O  O3278  1  0.463500  0.291500  0.409800  1.0
  O  O3279  1  0.463500  0.118300  0.708500  1.0
  O  O3280  1  0.130167  0.923533  0.548367  1.0
  O  O3281  1  0.130167  0.624833  0.076467  1.0
  O  O3282  1  0.130167  0.451633  0.375167  1.0
  O  O3283  1  0.796833  0.256867  0.215033  1.0
  O  O3284  1  0.796833  0.958167  0.743133  1.0
  O  O3285  1  0.796833  0.784967  0.041833  1.0
  O  O3286  1  0.536500  0.409800  0.118300  1.0
  O  O3287  1  0.536500  0.708500  0.590200  1.0
  O  O3288  1  0.536500  0.881700  0.291500  1.0
  O  O3289  1  0.869833  0.076467  0.451633  1.0
  O  O3290  1  0.869833  0.375167  0.923533  1.0
  O  O3291  1  0.869833  0.548367  0.624833  1.0
  O  O3292  1  0.203167  0.743133  0.784967  1.0
  O  O3293  1  0.203167  0.041833  0.256867  1.0
  O  O3294  1  0.203167  0.215033  0.958167  1.0
  O  O3295  1  0.270500  0.446500  0.693200  1.0
  O  O3296  1  0.270500  0.246700  0.553500  1.0
  O  O3297  1  0.270500  0.306800  0.753300  1.0
  O  O3298  1  0.937167  0.779833  0.359867  1.0
  O  O3299  1  0.937167  0.580033  0.220167  1.0
  O  O3300  1  0.937167  0.640133  0.419967  1.0
  O  O3301  1  0.603833  0.113167  0.026533  1.0
  O  O3302  1  0.603833  0.913367  0.886833  1.0
  O  O3303  1  0.603833  0.973467  0.086633  1.0
  O  O3304  1  0.729500  0.553500  0.306800  1.0
  O  O3305  1  0.729500  0.753300  0.446500  1.0
  O  O3306  1  0.729500  0.693200  0.246700  1.0
  O  O3307  1  0.062833  0.220167  0.640133  1.0
  O  O3308  1  0.062833  0.419967  0.779833  1.0
  O  O3309  1  0.062833  0.359867  0.580033  1.0
  O  O3310  1  0.396167  0.886833  0.973467  1.0
  O  O3311  1  0.396167  0.086633  0.113167  1.0
  O  O3312  1  0.396167  0.026533  0.913367  1.0
  O  O3313  1  0.460200  0.459700  0.949200  1.0
  O  O3314  1  0.460200  0.489500  0.540300  1.0
  O  O3315  1  0.460200  0.050800  0.510500  1.0
  O  O3316  1  0.126867  0.793033  0.615867  1.0
  O  O3317  1  0.126867  0.822833  0.206967  1.0
  O  O3318  1  0.126867  0.384133  0.177167  1.0
  O  O3319  1  0.793533  0.126367  0.282533  1.0
  O  O3320  1  0.793533  0.156167  0.873633  1.0
  O  O3321  1  0.793533  0.717467  0.843833  1.0
  O  O3322  1  0.539800  0.540300  0.050800  1.0
  O  O3323  1  0.539800  0.510500  0.459700  1.0
  O  O3324  1  0.539800  0.949200  0.489500  1.0
  O  O3325  1  0.873133  0.206967  0.384133  1.0
  O  O3326  1  0.873133  0.177167  0.793033  1.0
  O  O3327  1  0.873133  0.615867  0.822833  1.0
  O  O3328  1  0.206467  0.873633  0.717467  1.0
  O  O3329  1  0.206467  0.843833  0.126367  1.0
  O  O3330  1  0.206467  0.282533  0.156167  1.0
  O  O3331  1  0.634800  0.635400  0.731800  1.0
  O  O3332  1  0.634800  0.096400  0.364600  1.0
  O  O3333  1  0.634800  0.268200  0.903600  1.0
  O  O3334  1  0.301467  0.968733  0.398467  1.0
  O  O3335  1  0.301467  0.429733  0.031267  1.0
  O  O3336  1  0.301467  0.601533  0.570267  1.0
  O  O3337  1  0.968133  0.302067  0.065133  1.0
  O  O3338  1  0.968133  0.763067  0.697933  1.0
  O  O3339  1  0.968133  0.934867  0.236933  1.0
  O  O3340  1  0.365200  0.364600  0.268200  1.0
  O  O3341  1  0.365200  0.903600  0.635400  1.0
  O  O3342  1  0.365200  0.731800  0.096400  1.0
  O  O3343  1  0.698533  0.031267  0.601533  1.0
  O  O3344  1  0.698533  0.570267  0.968733  1.0
  O  O3345  1  0.698533  0.398467  0.429733  1.0
  O  O3346  1  0.031867  0.697933  0.934867  1.0
  O  O3347  1  0.031867  0.236933  0.302067  1.0
  O  O3348  1  0.031867  0.065133  0.763067  1.0
  F  F3349  1  0.380000  0.441500  0.810800  1
  F  F3350  1  0.380000  0.369300  0.558500  1
  F  F3351  1  0.380000  0.189200  0.630700  1
  F  F3352  1  0.046667  0.774833  0.477467  1
  F  F3353  1  0.046667  0.702633  0.225167  1
  F  F3354  1  0.046667  0.522533  0.297367  1
  F  F3355  1  0.713333  0.108167  0.144133  1
  F  F3356  1  0.713333  0.035967  0.891833  1
  F  F3357  1  0.713333  0.855867  0.964033  1
  F  F3358  1  0.620000  0.558500  0.189200  1
  F  F3359  1  0.620000  0.630700  0.441500  1
  F  F3360  1  0.620000  0.810800  0.369300  1
  F  F3361  1  0.953333  0.225167  0.522533  1
  F  F3362  1  0.953333  0.297367  0.774833  1
  F  F3363  1  0.953333  0.477467  0.702633  1
  F  F3364  1  0.286667  0.891833  0.855867  1
  F  F3365  1  0.286667  0.964033  0.108167  1
  F  F3366  1  0.286667  0.144133  0.035967  1
  F  F3367  1  0.423400  0.422000  0.809700  1
  F  F3368  1  0.423400  0.387700  0.578000  1
  F  F3369  1  0.423400  0.190300  0.612300  1
  F  F3370  1  0.090067  0.755333  0.476367  1
  F  F3371  1  0.090067  0.721033  0.244667  1
  F  F3372  1  0.090067  0.523633  0.278967  1
  F  F3373  1  0.756733  0.088667  0.143033  1
  F  F3374  1  0.756733  0.054367  0.911333  1
  F  F3375  1  0.756733  0.856967  0.945633  1
  F  F3376  1  0.576600  0.578000  0.190300  1
  F  F3377  1  0.576600  0.612300  0.422000  1
  F  F3378  1  0.576600  0.809700  0.387700  1
  F  F3379  1  0.909933  0.244667  0.523633  1
  F  F3380  1  0.909933  0.278967  0.755333  1
  F  F3381  1  0.909933  0.476367  0.721033  1
  F  F3382  1  0.243267  0.911333  0.856967  1
  F  F3383  1  0.243267  0.945633  0.088667  1
  F  F3384  1  0.243267  0.143033  0.054367  1
  F  F3385  1  0.407400  0.426800  0.776900  1
  F  F3386  1  0.407400  0.350100  0.573200  1
  F  F3387  1  0.407400  0.223100  0.649900  1
  F  F3388  1  0.074067  0.760133  0.443567  1
  F  F3389  1  0.074067  0.683433  0.239867  1
  F  F3390  1  0.074067  0.556433  0.316567  1
  F  F3391  1  0.740733  0.093467  0.110233  1
  F  F3392  1  0.740733  0.016767  0.906533  1
  F  F3393  1  0.740733  0.889767  0.983233  1
  F  F3394  1  0.592600  0.573200  0.223100  1
  F  F3395  1  0.592600  0.649900  0.426800  1
  F  F3396  1  0.592600  0.776900  0.350100  1
  F  F3397  1  0.925933  0.239867  0.556433  1
  F  F3398  1  0.925933  0.316567  0.760133  1
  F  F3399  1  0.925933  0.443567  0.683433  1
  F  F3400  1  0.259267  0.906533  0.889767  1
  F  F3401  1  0.259267  0.983233  0.093467  1
  F  F3402  1  0.259267  0.110233  0.016767  1
  F  F3403  1  0.379000  0.401300  0.785900  1
  F  F3404  1  0.379000  0.384600  0.598700  1
  F  F3405  1  0.379000  0.214100  0.615400  1
  F  F3406  1  0.045667  0.734633  0.452567  1
  F  F3407  1  0.045667  0.717933  0.265367  1
  F  F3408  1  0.045667  0.547433  0.282067  1
  F  F3409  1  0.712333  0.067967  0.119233  1
  F  F3410  1  0.712333  0.051267  0.932033  1
  F  F3411  1  0.712333  0.880767  0.948733  1
  F  F3412  1  0.621000  0.598700  0.214100  1
  F  F3413  1  0.621000  0.615400  0.401300  1
  F  F3414  1  0.621000  0.785900  0.384600  1
  F  F3415  1  0.954333  0.265367  0.547433  1
  F  F3416  1  0.954333  0.282067  0.734633  1
  F  F3417  1  0.954333  0.452567  0.717933  1
  F  F3418  1  0.287667  0.932033  0.880767  1
  F  F3419  1  0.287667  0.948733  0.067967  1
  F  F3420  1  0.287667  0.119233  0.051267  1
  F  F3421  1  0.291500  0.530900  0.946500  1
  F  F3422  1  0.291500  0.415600  0.469100  1
  F  F3423  1  0.291500  0.053500  0.584400  1
  F  F3424  1  0.958167  0.864233  0.613167  1
  F  F3425  1  0.958167  0.748933  0.135767  1
  F  F3426  1  0.958167  0.386833  0.251067  1
  F  F3427  1  0.624833  0.197567  0.279833  1
  F  F3428  1  0.624833  0.082267  0.802433  1
  F  F3429  1  0.624833  0.720167  0.917733  1
  F  F3430  1  0.708500  0.469100  0.053500  1
  F  F3431  1  0.708500  0.584400  0.530900  1
  F  F3432  1  0.708500  0.946500  0.415600  1
  F  F3433  1  0.041833  0.135767  0.386833  1
  F  F3434  1  0.041833  0.251067  0.864233  1
  F  F3435  1  0.041833  0.613167  0.748933  1
  F  F3436  1  0.375167  0.802433  0.720167  1
  F  F3437  1  0.375167  0.917733  0.197567  1
  F  F3438  1  0.375167  0.279833  0.082267  1
  F  F3439  1  0.303900  0.569900  0.954300  1
  F  F3440  1  0.303900  0.384400  0.430100  1
  F  F3441  1  0.303900  0.045700  0.615600  1
  F  F3442  1  0.970567  0.903233  0.620967  1
  F  F3443  1  0.970567  0.717733  0.096767  1
  F  F3444  1  0.970567  0.379033  0.282267  1
  F  F3445  1  0.637233  0.236567  0.287633  1
  F  F3446  1  0.637233  0.051067  0.763433  1
  F  F3447  1  0.637233  0.712367  0.948933  1
  F  F3448  1  0.696100  0.430100  0.045700  1
  F  F3449  1  0.696100  0.615600  0.569900  1
  F  F3450  1  0.696100  0.954300  0.384400  1
  F  F3451  1  0.029433  0.096767  0.379033  1
  F  F3452  1  0.029433  0.282267  0.903233  1
  F  F3453  1  0.029433  0.620967  0.717733  1
  F  F3454  1  0.362767  0.763433  0.712367  1
  F  F3455  1  0.362767  0.948933  0.236567  1
  F  F3456  1  0.362767  0.287633  0.051067  1
  F  F3457  1  0.333900  0.548200  0.964900  1
  F  F3458  1  0.333900  0.416700  0.451800  1
  F  F3459  1  0.333900  0.035100  0.583300  1
  F  F3460  1  0.000567  0.881533  0.631567  1
  F  F3461  1  0.000567  0.750033  0.118467  1
  F  F3462  1  0.000567  0.368433  0.249967  1
  F  F3463  1  0.667233  0.214867  0.298233  1
  F  F3464  1  0.667233  0.083367  0.785133  1
  F  F3465  1  0.667233  0.701767  0.916633  1
  F  F3466  1  0.666100  0.451800  0.035100  1
  F  F3467  1  0.666100  0.583300  0.548200  1
  F  F3468  1  0.666100  0.964900  0.416700  1
  F  F3469  1  0.999433  0.118467  0.368433  1
  F  F3470  1  0.999433  0.249967  0.881533  1
  F  F3471  1  0.999433  0.631567  0.750033  1
  F  F3472  1  0.332767  0.785133  0.701767  1
  F  F3473  1  0.332767  0.916633  0.214867  1
  F  F3474  1  0.332767  0.298233  0.083367  1
  F  F3475  1  0.331500  0.537600  0.925600  1
  F  F3476  1  0.331500  0.388000  0.462400  1
  F  F3477  1  0.331500  0.074400  0.612000  1
  F  F3478  1  0.998167  0.870933  0.592267  1
  F  F3479  1  0.998167  0.721333  0.129067  1
  F  F3480  1  0.998167  0.407733  0.278667  1
  F  F3481  1  0.664833  0.204267  0.258933  1
  F  F3482  1  0.664833  0.054667  0.795733  1
  F  F3483  1  0.664833  0.741067  0.945333  1
  F  F3484  1  0.668500  0.462400  0.074400  1
  F  F3485  1  0.668500  0.612000  0.537600  1
  F  F3486  1  0.668500  0.925600  0.388000  1
  F  F3487  1  0.001833  0.129067  0.407733  1
  F  F3488  1  0.001833  0.278667  0.870933  1
  F  F3489  1  0.001833  0.592267  0.721333  1
  F  F3490  1  0.335167  0.795733  0.741067  1
  F  F3491  1  0.335167  0.945333  0.204267  1
  F  F3492  1  0.335167  0.258933  0.054667  1
  F  F3493  1  0.334800  0.580900  0.076100  1
  F  F3494  1  0.334800  0.495200  0.419100  1
  F  F3495  1  0.334800  0.923900  0.504800  1
  F  F3496  1  0.001467  0.914233  0.742767  1
  F  F3497  1  0.001467  0.828533  0.085767  1
  F  F3498  1  0.001467  0.257233  0.171467  1
  F  F3499  1  0.668133  0.247567  0.409433  1
  F  F3500  1  0.668133  0.161867  0.752433  1
  F  F3501  1  0.668133  0.590567  0.838133  1
  F  F3502  1  0.665200  0.419100  0.923900  1
  F  F3503  1  0.665200  0.504800  0.580900  1
  F  F3504  1  0.665200  0.076100  0.495200  1
  F  F3505  1  0.998533  0.085767  0.257233  1
  F  F3506  1  0.998533  0.171467  0.914233  1
  F  F3507  1  0.998533  0.742767  0.828533  1
  F  F3508  1  0.331867  0.752433  0.590567  1
  F  F3509  1  0.331867  0.838133  0.247567  1
  F  F3510  1  0.331867  0.409433  0.161867  1
  F  F3511  1  0.342700  0.614300  0.112800  1
  F  F3512  1  0.342700  0.498500  0.385700  1
  F  F3513  1  0.342700  0.887200  0.501500  1
  F  F3514  1  0.009367  0.947633  0.779467  1
  F  F3515  1  0.009367  0.831833  0.052367  1
  F  F3516  1  0.009367  0.220533  0.168167  1
  F  F3517  1  0.676033  0.280967  0.446133  1
  F  F3518  1  0.676033  0.165167  0.719033  1
  F  F3519  1  0.676033  0.553867  0.834833  1
  F  F3520  1  0.657300  0.385700  0.887200  1
  F  F3521  1  0.657300  0.501500  0.614300  1
  F  F3522  1  0.657300  0.112800  0.498500  1
  F  F3523  1  0.990633  0.052367  0.220533  1
  F  F3524  1  0.990633  0.168167  0.947633  1
  F  F3525  1  0.990633  0.779467  0.831833  1
  F  F3526  1  0.323967  0.719033  0.553867  1
  F  F3527  1  0.323967  0.834833  0.280967  1
  F  F3528  1  0.323967  0.446133  0.165167  1
  F  F3529  1  0.357400  0.575900  0.106100  1
  F  F3530  1  0.357400  0.530200  0.424100  1
  F  F3531  1  0.357400  0.893900  0.469800  1
  F  F3532  1  0.024067  0.909233  0.772767  1
  F  F3533  1  0.024067  0.863533  0.090767  1
  F  F3534  1  0.024067  0.227233  0.136467  1
  F  F3535  1  0.690733  0.242567  0.439433  1
  F  F3536  1  0.690733  0.196867  0.757433  1
  F  F3537  1  0.690733  0.560567  0.803133  1
  F  F3538  1  0.642600  0.424100  0.893900  1
  F  F3539  1  0.642600  0.469800  0.575900  1
  F  F3540  1  0.642600  0.106100  0.530200  1
  F  F3541  1  0.975933  0.090767  0.227233  1
  F  F3542  1  0.975933  0.136467  0.909233  1
  F  F3543  1  0.975933  0.772767  0.863533  1
  F  F3544  1  0.309267  0.757433  0.560567  1
  F  F3545  1  0.309267  0.803133  0.242567  1
  F  F3546  1  0.309267  0.439433  0.196867  1
  F  F3547  1  0.304100  0.586500  0.108400  1
  F  F3548  1  0.304100  0.521900  0.413500  1
  F  F3549  1  0.304100  0.891600  0.478100  1
  F  F3550  1  0.970767  0.919833  0.775067  1
  F  F3551  1  0.970767  0.855233  0.080167  1
  F  F3552  1  0.970767  0.224933  0.144767  1
  F  F3553  1  0.637433  0.253167  0.441733  1
  F  F3554  1  0.637433  0.188567  0.746833  1
  F  F3555  1  0.637433  0.558267  0.811433  1
  F  F3556  1  0.695900  0.413500  0.891600  1
  F  F3557  1  0.695900  0.478100  0.586500  1
  F  F3558  1  0.695900  0.108400  0.521900  1
  F  F3559  1  0.029233  0.080167  0.224933  1
  F  F3560  1  0.029233  0.144767  0.919833  1
  F  F3561  1  0.029233  0.775067  0.855233  1
  F  F3562  1  0.362567  0.746833  0.558267  1
  F  F3563  1  0.362567  0.811433  0.253167  1
  F  F3564  1  0.362567  0.441733  0.188567  1
  F  F3565  1  0.239400  0.507900  0.919700  1
  F  F3566  1  0.239400  0.411800  0.492100  1
  F  F3567  1  0.239400  0.080300  0.588200  1
  F  F3568  1  0.906067  0.841233  0.586367  1
  F  F3569  1  0.906067  0.745133  0.158767  1
  F  F3570  1  0.906067  0.413633  0.254867  1
  F  F3571  1  0.572733  0.174567  0.253033  1
  F  F3572  1  0.572733  0.078467  0.825433  1
  F  F3573  1  0.572733  0.746967  0.921533  1
  F  F3574  1  0.760600  0.492100  0.080300  1
  F  F3575  1  0.760600  0.588200  0.507900  1
  F  F3576  1  0.760600  0.919700  0.411800  1
  F  F3577  1  0.093933  0.158767  0.413633  1
  F  F3578  1  0.093933  0.254867  0.841233  1
  F  F3579  1  0.093933  0.586367  0.745133  1
  F  F3580  1  0.427267  0.825433  0.746967  1
  F  F3581  1  0.427267  0.921533  0.174567  1
  F  F3582  1  0.427267  0.253033  0.078467  1
  F  F3583  1  0.239600  0.538200  0.909400  1
  F  F3584  1  0.239600  0.371200  0.461800  1
  F  F3585  1  0.239600  0.090600  0.628800  1
  F  F3586  1  0.906267  0.871533  0.576067  1
  F  F3587  1  0.906267  0.704533  0.128467  1
  F  F3588  1  0.906267  0.423933  0.295467  1
  F  F3589  1  0.572933  0.204867  0.242733  1
  F  F3590  1  0.572933  0.037867  0.795133  1
  F  F3591  1  0.572933  0.757267  0.962133  1
  F  F3592  1  0.760400  0.461800  0.090600  1
  F  F3593  1  0.760400  0.628800  0.538200  1
  F  F3594  1  0.760400  0.909400  0.371200  1
  F  F3595  1  0.093733  0.128467  0.423933  1
  F  F3596  1  0.093733  0.295467  0.871533  1
  F  F3597  1  0.093733  0.576067  0.704533  1
  F  F3598  1  0.427067  0.795133  0.757267  1
  F  F3599  1  0.427067  0.962133  0.204867  1
  F  F3600  1  0.427067  0.242733  0.037867  1
  F  F3601  1  0.286500  0.518400  0.907600  1
  F  F3602  1  0.286500  0.389200  0.481600  1
  F  F3603  1  0.286500  0.092400  0.610800  1
  F  F3604  1  0.953167  0.851733  0.574267  1
  F  F3605  1  0.953167  0.722533  0.148267  1
  F  F3606  1  0.953167  0.425733  0.277467  1
  F  F3607  1  0.619833  0.185067  0.240933  1
  F  F3608  1  0.619833  0.055867  0.814933  1
  F  F3609  1  0.619833  0.759067  0.944133  1
  F  F3610  1  0.713500  0.481600  0.092400  1
  F  F3611  1  0.713500  0.610800  0.518400  1
  F  F3612  1  0.713500  0.907600  0.389200  1
  F  F3613  1  0.046833  0.148267  0.425733  1
  F  F3614  1  0.046833  0.277467  0.851733  1
  F  F3615  1  0.046833  0.574267  0.722533  1
  F  F3616  1  0.380167  0.814933  0.759067  1
  F  F3617  1  0.380167  0.944133  0.185067  1
  F  F3618  1  0.380167  0.240933  0.055867  1
  F  F3619  1  0.244400  0.497500  0.881500  1
  F  F3620  1  0.244400  0.384000  0.502500  1
  F  F3621  1  0.244400  0.118500  0.616000  1
  F  F3622  1  0.911067  0.830833  0.548167  1
  F  F3623  1  0.911067  0.717333  0.169167  1
  F  F3624  1  0.911067  0.451833  0.282667  1
  F  F3625  1  0.577733  0.164167  0.214833  1
  F  F3626  1  0.577733  0.050667  0.835833  1
  F  F3627  1  0.577733  0.785167  0.949333  1
  F  F3628  1  0.755600  0.502500  0.118500  1
  F  F3629  1  0.755600  0.616000  0.497500  1
  F  F3630  1  0.755600  0.881500  0.384000  1
  F  F3631  1  0.088933  0.169167  0.451833  1
  F  F3632  1  0.088933  0.282667  0.830833  1
  F  F3633  1  0.088933  0.548167  0.717333  1
  F  F3634  1  0.422267  0.835833  0.785167  1
  F  F3635  1  0.422267  0.949333  0.164167  1
  F  F3636  1  0.422267  0.214833  0.050667  1
