
#######################################################################
#
#                 Cambridge Crystallographic Data Centre
#                                CCDC 
#
#######################################################################
#
# If this CIF has been generated from an entry in the Cambridge 
# Structural Database, then it will include bibliographic, chemical, 
# crystal, experimental, refinement or atomic coordinate data resulting 
# from the CCDC's data processing and validation procedures.
#
#######################################################################

data_BOSPEG
_chemical_formula_moiety         '12(Pd1 2+),24(C38 H33 Br1 N2 O6),24(B1 F4 1-)'
_chemical_name_systematic        
'Dodeca-palladium tetracosakis(2-(2-((5-(2-(2-(4-bromo-2,6-bis(pyridin-4-ylethynyl)phenoxy)ethoxy)ethoxy)naphthalen-1-yl)oxy)ethoxy)ethanol) tetracosakis(tetrafluoroborate)'
_symmetry_cell_setting           rhombohedral
_symmetry_space_group_name_H-M   'R -3'
_symmetry_Int_Tables_number      148
_space_group_name_Hall           '-R 3'
loop_
_symmetry_equiv_pos_site_id
_symmetry_equiv_pos_as_xyz
1 x,y,z
2 -y,x-y,z
3 -x+y,-x,z
4 2/3+x,1/3+y,1/3+z
5 2/3-y,1/3+x-y,1/3+z
6 2/3-x+y,1/3-x,1/3+z
7 1/3+x,2/3+y,2/3+z
8 1/3-y,2/3+x-y,2/3+z
9 1/3-x+y,2/3-x,2/3+z
10 -x,-y,-z
11 y,-x+y,-z
12 x-y,x,-z
13 1/3-x,2/3-y,2/3-z
14 1/3+y,2/3-x+y,2/3-z
15 1/3+x-y,2/3+x,2/3-z
16 2/3-x,1/3-y,1/3-z
17 2/3+y,1/3-x+y,1/3-z
18 2/3+x-y,1/3+x,1/3-z
_cell_length_a                   63.1380(3)
_cell_length_b                   63.1380(3)
_cell_length_c                   41.6090(3)
_cell_angle_alpha                90
_cell_angle_beta                 90
_cell_angle_gamma                120
_cell_volume                     143648
_exptl_crystal_colour            yellow
_exptl_crystal_description       block
_cell_formula_units_Z            3
loop_
_atom_site_label
_atom_site_type_symbol
_atom_site_fract_x
_atom_site_fract_y
_atom_site_fract_z
B2 B 0.5781(6) 0.3731(6) 0.6013(9)
F5 F 0.5585(5) 0.3693(6) 0.6200(6)
F6 F 0.5780(9) 0.3877(8) 0.5766(9)
F7 F 0.5732(10) 0.3501(7) 0.5926(12)
F8 F 0.5987(7) 0.3846(11) 0.6210(13)
B3 B 0.4533(6) 0.4001(6) 0.6854(8)
F9 F 0.4691(7) 0.4156(7) 0.7085(9)
F10 F 0.4301(6) 0.3844(7) 0.6961(11)
F11 F 0.4518(5) 0.4167(5) 0.6661(6)
F12 F 0.4624(6) 0.3880(5) 0.6685(9)
B4 B 0.4106(7) 0.5118(6) 0.6652(9)
F13 F 0.4191(7) 0.4952(6) 0.6652(7)
F14 F 0.3857(7) 0.4985(9) 0.6573(14)
F15 F 0.4241(10) 0.5302(8) 0.6426(12)
F16 F 0.4135(12) 0.5219(9) 0.6959(10)
Pd1 Pd 0.53275(4) 0.37622(4) 0.68242(4)
N1 N 0.4990(4) 0.3539(3) 0.6597(5)
C1 C 0.4801(6) 0.3506(4) 0.6777(7)
H1 H 0.4821 0.3571 0.6983
C2 C 0.4565(6) 0.3362(5) 0.6630(6)
H2 H 0.4423 0.3328 0.6740
C3 C 0.4554(5) 0.3273(4) 0.6319(6)
C4 C 0.4770(7) 0.3319(6) 0.6173(7)
H3 H 0.4761 0.3249 0.5973
C5 C 0.4995(6) 0.3459(5) 0.6306(7)
H4 H 0.5140 0.3495 0.6200
C6 C 0.4325(7) 0.3201(13) 0.6129(7)
C7 C 0.4158(7) 0.3152(12) 0.5988(8)
Br1 Br 0.3336(7) 0.3132(12) 0.5858(12)
C8 C 0.3545(7) 0.3070(9) 0.5725(9)
C9 C 0.3754(8) 0.3136(8) 0.5908(9)
H5 H 0.3775 0.3215 0.6103
C10 C 0.3930(7) 0.3082(7) 0.5798(11)
C11 C 0.3897(8) 0.2963(8) 0.5505(11)
C12 C 0.3689(9) 0.2897(8) 0.5323(9)
C13 C 0.3513(8) 0.2951(8) 0.5433(8)
H6 H 0.3374 0.2907 0.5311
C14 C 0.3668(7) 0.2771(11) 0.5004(11)
C15 C 0.3652(6) 0.2678(11) 0.4768(11)
O1 O 0.4098(4) 0.2915(4) 0.5365(5)
N2 N 0.6023(3) 0.1681(5) 0.7032(5)
C16 C 0.5927(4) 0.1597(6) 0.7305(6)
H7 H 0.5951 0.1478 0.7402
C17 C 0.5784(4) 0.1683(6) 0.7466(6)
H8 H 0.5719 0.1620 0.7667
C18 C 0.5738(5) 0.1861(9) 0.7323(6)
C19 C 0.5851(5) 0.1933(7) 0.7019(6)
H9 H 0.5833 0.2049 0.6905
C20 C 0.5984(5) 0.1840(7) 0.6881(7)
H10 H 0.6047 0.1890 0.6676
C21 C 0.5595(6) 0.1963(8) 0.7485(7)
C22 C 0.5502(7) 0.2053(9) 0.7605(7)
N3 N 0.5317(3) 0.3467(4) 0.7026(5)
C23 C 0.5205(4) 0.3389(5) 0.7296(6)
H11 H 0.5140 0.3478 0.7388
C24 C 0.5170(4) 0.3171(4) 0.7477(6)
H12 H 0.5091 0.3120 0.7674
C25 C 0.5266(5) 0.3062(6) 0.7321(6)
C26 C 0.5390(5) 0.3136(5) 0.7019(6)
H13 H 0.5456 0.3050 0.6921
C27 C 0.5405(5) 0.3346(6) 0.6880(7)
H14 H 0.5480 0.3399 0.6681
C28 C 0.5269(8) 0.2844(7) 0.7463(8)
C29 C 0.5263(7) 0.2679(7) 0.7569(7)
Br2 Br 0.49588(11) 0.20423(10) 0.85369(11)
C30 C 0.5141(2) 0.2167(4) 0.8153(3)
C31 C 0.5139(3) 0.2366(4) 0.8014(5)
H15 H 0.5051 0.2432 0.8110
C32 C 0.5266(4) 0.2466(3) 0.7730(6)
C33 C 0.5397(3) 0.2368(4) 0.7586(3)
C34 C 0.5399(4) 0.2170(4) 0.7726(6)
C35 C 0.5272(4) 0.2069(3) 0.8009(5)
H16 H 0.5274 0.1936 0.8102
O2 O 0.5535(4) 0.2467(4) 0.7295(4)
N4 N 0.5344(3) 0.4064(3) 0.6610(5)
C36 C 0.5251(4) 0.4169(5) 0.6788(7)
H17 H 0.5202 0.4122 0.6999
C37 C 0.5227(4) 0.4370(5) 0.6629(6)
H18 H 0.5164 0.4452 0.6745
C38 C 0.5294(4) 0.4431(5) 0.6330(7)
C39 C 0.5398(5) 0.4318(5) 0.6158(7)
H19 H 0.5451 0.4364 0.5947
C40 C 0.5421(5) 0.4133(5) 0.6313(7)
H20 H 0.5492 0.4057 0.6203
C41 C 0.5276(5) 0.4629(6) 0.6171(8)
C42 C 0.5261(6) 0.4771(6) 0.6032(8)
Br3 Br 0.49885(11) 0.54381(8) 0.60701(11)
C43 C 0.5118(2) 0.5266(3) 0.5860(6)
C44 C 0.5136(3) 0.5085(4) 0.6025(3)
H21 H 0.5086 0.5052 0.6239
C45 C 0.5229(3) 0.4953(3) 0.5872(7)
C46 C 0.5304(3) 0.5003(4) 0.5553(7)
C47 C 0.5285(3) 0.5184(5) 0.5388(4)
C48 C 0.5192(3) 0.5316(3) 0.5541(6)
H22 H 0.5180 0.5437 0.5430
O3 O 0.5403(5) 0.4895(4) 0.5398(5)
C49 C 0.5240(7) 0.4683(7) 0.5243(9)
H23 H 0.5316 0.4666 0.5049
H24 H 0.5098 0.4694 0.5179
C50 C 0.5158(18) 0.4459(8) 0.5451(18)
N5 N 0.3580(6) 0.2419(4) 0.3811(6)
C51 C 0.3785(8) 0.2507(5) 0.3957(10)
H25 H 0.3922 0.2529 0.3844
C52 C 0.3808(8) 0.2571(6) 0.4275(10)
H26 H 0.3962 0.2634 0.4370
C53 C 0.3631(8) 0.2550(5) 0.4451(6)
C54 C 0.3409(8) 0.2449(6) 0.4314(8)
H27 H 0.3271 0.2419 0.4431
C55 C 0.3392(8) 0.2384(6) 0.3949(10)
H28 H 0.3245 0.2321 0.3839
N6 N 0.5561(3) 0.5402(4) 0.3814(5)
C56 C 0.5599(4) 0.5221(5) 0.3945(7)
H29 H 0.5658 0.5137 0.3827
C57 C 0.5539(4) 0.5177(5) 0.4273(6)
H30 H 0.5561 0.5062 0.4386
C58 C 0.5448(4) 0.5307(5) 0.4423(8)
C59 C 0.5422(4) 0.5492(5) 0.4263(6)
H31 H 0.5367 0.5580 0.4384
C60 C 0.5471(5) 0.5550(6) 0.3945(7)
H32 H 0.5449 0.5666 0.3834
C61 C 0.5389(7) 0.5272(6) 0.4777(9)
C62 C 0.5342(6) 0.5238(6) 0.5036(9)
Pd2 Pd 0.35387(7) 0.23262(5) 0.33450(5)
N7 N 0.3484(7) 0.2017(5) 0.3466(4)
C63 C 0.3256(10) 0.1853(7) 0.3518(5)
H33 H 0.3135 0.1896 0.3500
C64 C 0.3185(8) 0.1591(6) 0.3610(5)
H34 H 0.3023 0.1471 0.3643
C65 C 0.3378(7) 0.1540(5) 0.3644(6)
C66 C 0.3621(9) 0.1724(7) 0.3574(7)
H35 H 0.3752 0.1695 0.3584
C67 C 0.3652(9) 0.1956(7) 0.3486(6)
H36 H 0.3811 0.2078 0.3437
C68 C 0.3339(8) 0.1294(6) 0.3730(12)
C69 C 0.3308(9) 0.1110(6) 0.3786(11)
Br4 Br 0.2715(8) 0.0222(6) 0.4239(12)
C70 C 0.3008(6) 0.0454(5) 0.4058(9)
C71 C 0.3047(6) 0.0686(5) 0.3990(8)
H37 H 0.2925 0.0724 0.4033
C72 C 0.3268(8) 0.0861(5) 0.3857(7)
C73 C 0.3450(9) 0.0804(6) 0.3793(8)
C74 C 0.3411(9) 0.0572(7) 0.3861(8)
C75 C 0.3189(7) 0.0396(6) 0.3994(9)
H38 H 0.3163 0.0241 0.4040
C76 C 0.3602(13) 0.0505(11) 0.3792(12)
C77 C 0.3750(12) 0.0467(10) 0.3733(13)
O4 O 0.3646(5) 0.0964(4) 0.3652(5)
N8 N 0.4280(9) 0.0292(8) 0.3453(4)
C78 C 0.4037(13) 0.0098(11) 0.3518(6)
H39 H 0.3995 -0.0065 0.3496
C79 C 0.3873(12) 0.0159(10) 0.3610(7)
H40 H 0.3713 0.0037 0.3649
C80 C 0.3937(9) 0.0396(8) 0.3646(6)
C81 C 0.4161(13) 0.0580(11) 0.3584(10)
H41 H 0.4195 0.0741 0.3608
C82 C 0.4340(11) 0.0537(9) 0.3486(8)
H42 H 0.4496 0.0664 0.3443
Pd1A Pd 0.62378(4) 0.15653(6) 0.68242(4)
N1A N 0.6461(3) 0.1451(5) 0.6597(5)
C1A C 0.6494(4) 0.1295(7) 0.6777(7)
H1A H 0.6429 0.1250 0.6983
C2A C 0.6638(5) 0.1203(8) 0.6630(6)
H2A H 0.6672 0.1095 0.6740
C3A C 0.6727(4) 0.1281(6) 0.6319(6)
C4A C 0.6681(6) 0.1451(9) 0.6173(7)
H3A H 0.6751 0.1512 0.5973
C5A C 0.6541(5) 0.1536(8) 0.6306(7)
H4A H 0.6505 0.1645 0.6200
C6A C 0.6799(13) 0.1124(15) 0.6129(7)
C7A C 0.6848(12) 0.1006(14) 0.5988(8)
Br1A Br 0.6868(12) 0.0204(14) 0.5858(12)
C8A C 0.6930(9) 0.0475(11) 0.5725(9)
C9A C 0.6864(8) 0.0618(11) 0.5908(9)
H5A H 0.6785 0.0560 0.6103
C10A C 0.6918(7) 0.0848(10) 0.5798(11)
C11A C 0.7037(8) 0.0934(11) 0.5505(11)
C12A C 0.7103(8) 0.0792(12) 0.5323(9)
C13A C 0.7049(8) 0.0562(11) 0.5433(8)
H6A H 0.7093 0.0467 0.5311
C14A C 0.7229(11) 0.0897(13) 0.5004(11)
C15A C 0.7322(11) 0.0974(13) 0.4768(11)
O1A O 0.7085(4) 0.1183(6) 0.5365(5)
N2A N 0.8319(5) 0.4342(6) 0.7032(5)
C16A C 0.8403(6) 0.4330(7) 0.7305(6)
H7A H 0.8522 0.4473 0.7402
C17A C 0.8317(6) 0.4101(7) 0.7466(6)
H8A H 0.8380 0.4099 0.7667
C18A C 0.8139(9) 0.3877(10) 0.7323(6)
C19A C 0.8067(7) 0.3918(9) 0.7019(6)
H9A H 0.7951 0.3784 0.6905
C20A C 0.8160(7) 0.4144(9) 0.6881(7)
H10A H 0.8110 0.4157 0.6676
C21A C 0.8037(8) 0.3632(10) 0.7485(7)
C22A C 0.7947(9) 0.3449(11) 0.7605(7)
N3A N 0.6533(4) 0.1850(5) 0.7026(5)
C23A C 0.6611(5) 0.1816(6) 0.7296(6)
H11A H 0.6522 0.1662 0.7388
C24A C 0.6829(4) 0.1999(6) 0.7477(6)
H12A H 0.6880 0.1971 0.7674
C25A C 0.6938(6) 0.2204(8) 0.7321(6)
C26A C 0.6864(5) 0.2254(7) 0.7019(6)
H13A H 0.6950 0.2406 0.6921
C27A C 0.6654(6) 0.2059(8) 0.6880(7)
H14A H 0.6601 0.2081 0.6681
C28A C 0.7156(7) 0.2425(11) 0.7463(8)
C29A C 0.7321(7) 0.2584(10) 0.7569(7)
Br2A Br 0.79577(10) 0.29165(15) 0.85369(11)
C30A C 0.7833(4) 0.2974(4) 0.8153(3)
C31A C 0.7634(4) 0.2773(5) 0.8014(5)
H15A H 0.7568 0.2619 0.8110
C32A C 0.7534(3) 0.2800(5) 0.7730(6)
C33A C 0.7632(4) 0.3029(5) 0.7586(3)
C34A C 0.7830(4) 0.3229(6) 0.7726(6)
C35A C 0.7931(3) 0.3203(5) 0.8009(5)
H16A H 0.8064 0.3338 0.8102
O2A O 0.7533(4) 0.3068(6) 0.7295(4)
N4A N 0.5936(3) 0.1280(4) 0.6610(5)
C36A C 0.5831(5) 0.1082(6) 0.6788(7)
H17A H 0.5878 0.1080 0.6999
C37A C 0.5630(5) 0.0857(6) 0.6629(6)
H18A H 0.5548 0.0712 0.6745
C38A C 0.5569(5) 0.0863(6) 0.6330(7)
C39A C 0.5682(5) 0.1080(7) 0.6158(7)
H19A H 0.5636 0.1087 0.5947
C40A C 0.5867(5) 0.1288(7) 0.6313(7)
H20A H 0.5943 0.1435 0.6203
C41A C 0.5371(6) 0.0647(8) 0.6171(8)
C42A C 0.5229(6) 0.0490(8) 0.6032(8)
Br3A Br 0.45619(8) -0.04496(14) 0.60701(11)
C43A C 0.4734(3) -0.0148(4) 0.5860(6)
C44A C 0.4915(4) 0.0051(5) 0.6025(3)
H21A H 0.4948 0.0034 0.6239
C45A C 0.5047(3) 0.0276(4) 0.5872(7)
C46A C 0.4997(4) 0.0301(5) 0.5553(7)
C47A C 0.4816(5) 0.0101(6) 0.5388(4)
C48A C 0.4684(3) -0.0124(4) 0.5541(6)
H22A H 0.4563 -0.0257 0.5430
O3A O 0.5105(4) 0.0508(6) 0.5398(5)
C49A C 0.5317(7) 0.0557(10) 0.5243(9)
H23A H 0.5334 0.0650 0.5049
H24A H 0.5306 0.0404 0.5179
C50A C 0.5541(8) 0.0699(20) 0.5451(18)
N5A N 0.7581(4) 0.1161(7) 0.3811(6)
C51A C 0.7493(5) 0.1278(9) 0.3957(10)
H25A H 0.7471 0.1393 0.3844
C52A C 0.7429(6) 0.1237(10) 0.4275(10)
H26A H 0.7366 0.1328 0.4370
C53A C 0.7450(5) 0.1081(9) 0.4451(6)
C54A C 0.7551(6) 0.0960(10) 0.4314(8)
H27A H 0.7581 0.0852 0.4431
C55A C 0.7616(6) 0.1008(10) 0.3949(10)
H28A H 0.7679 0.0924 0.3839
N6A N 0.4598(4) 0.0159(5) 0.3814(5)
C56A C 0.4779(5) 0.0378(6) 0.3945(7)
H29A H 0.4863 0.0521 0.3827
C57A C 0.4823(5) 0.0362(6) 0.4273(6)
H30A H 0.4938 0.0499 0.4386
C58A C 0.4693(5) 0.0141(6) 0.4423(8)
C59A C 0.4508(5) -0.0070(6) 0.4263(6)
H31A H 0.4420 -0.0213 0.4384
C60A C 0.4450(6) -0.0079(8) 0.3945(7)
H32A H 0.4334 -0.0217 0.3834
C61A C 0.4728(6) 0.0117(9) 0.4777(9)
C62A C 0.4762(6) 0.0104(8) 0.5036(9)
Pd2A Pd 0.76738(5) 0.12125(9) 0.33450(5)
N7A N 0.7983(5) 0.1467(9) 0.3466(4)
C63A C 0.8147(7) 0.1403(12) 0.3518(5)
H33A H 0.8104 0.1239 0.3500
C64A C 0.8409(6) 0.1594(10) 0.3610(5)
H34A H 0.8529 0.1552 0.3643
C65A C 0.8460(5) 0.1838(9) 0.3644(6)
C66A C 0.8276(7) 0.1897(11) 0.3574(7)
H35A H 0.8305 0.2057 0.3584
C67A C 0.8044(7) 0.1696(11) 0.3486(6)
H36A H 0.7922 0.1733 0.3437
C68A C 0.8706(6) 0.2045(10) 0.3730(12)
C69A C 0.8890(6) 0.2198(11) 0.3786(11)
Br4A Br 0.9778(6) 0.2493(10) 0.4239(12)
C70A C 0.9546(5) 0.2554(8) 0.4058(9)
C71A C 0.9314(5) 0.2361(8) 0.3990(8)
H37A H 0.9276 0.2201 0.4033
C72A C 0.9139(5) 0.2407(9) 0.3857(7)
C73A C 0.9196(6) 0.2646(11) 0.3793(8)
C74A C 0.9428(7) 0.2839(11) 0.3861(8)
C75A C 0.9604(6) 0.2793(9) 0.3994(9)
H38A H 0.9759 0.2922 0.4040
C76A C 0.9495(11) 0.3097(17) 0.3792(12)
C77A C 0.9533(10) 0.3283(16) 0.3733(13)
O4A O 0.9036(4) 0.2682(6) 0.3652(5)
N8A N 0.9708(8) 0.3988(12) 0.3453(4)
C78A C 0.9902(11) 0.3939(17) 0.3518(6)
H39A H 1.0065 0.4060 0.3496
C79A C 0.9841(10) 0.3714(16) 0.3610(7)
H40A H 0.9963 0.3676 0.3649
C80A C 0.9604(8) 0.3541(12) 0.3646(6)
C81A C 0.9420(11) 0.3581(17) 0.3584(10)
H41A H 0.9259 0.3454 0.3608
C82A C 0.9463(9) 0.3803(14) 0.3486(8)
H42A H 0.9336 0.3832 0.3443
Pd1B Pd 0.84347(6) 0.46725(4) 0.68242(4)
N1B N 0.8549(5) 0.5010(4) 0.6597(5)
C1B C 0.8705(7) 0.5199(6) 0.6777(7)
H1B H 0.8750 0.5179 0.6983
C2B C 0.8797(8) 0.5435(6) 0.6630(6)
H2B H 0.8905 0.5577 0.6740
C3B C 0.8719(6) 0.5446(5) 0.6319(6)
C4B C 0.8549(9) 0.5230(7) 0.6173(7)
H3B H 0.8488 0.5239 0.5973
C5B C 0.8464(8) 0.5005(6) 0.6306(7)
H4B H 0.8355 0.4860 0.6200
C6B C 0.8876(15) 0.5675(7) 0.6129(7)
C7B C 0.8994(14) 0.5842(7) 0.5988(8)
Br1B Br 0.9796(14) 0.6664(7) 0.5858(12)
C8B C 0.9525(11) 0.6455(7) 0.5725(9)
C9B C 0.9382(11) 0.6246(8) 0.5908(9)
H5B H 0.9440 0.6225 0.6103
C10B C 0.9152(10) 0.6070(7) 0.5798(11)
C11B C 0.9066(11) 0.6103(8) 0.5505(11)
C12B C 0.9208(12) 0.6311(9) 0.5323(9)
C13B C 0.9438(11) 0.6487(8) 0.5433(8)
H6B H 0.9533 0.6626 0.5311
C14B C 0.9103(13) 0.6332(7) 0.5004(11)
C15B C 0.9026(13) 0.6348(6) 0.4768(11)
O1B O 0.8817(6) 0.5902(4) 0.5365(5)
N2B N 0.5658(6) 0.3977(3) 0.7032(5)
C16B C 0.5670(7) 0.4073(4) 0.7305(6)
H7B H 0.5527 0.4049 0.7402
C17B C 0.5899(7) 0.4216(4) 0.7466(6)
H8B H 0.5901 0.4281 0.7667
C18B C 0.6123(10) 0.4262(5) 0.7323(6)
C19B C 0.6082(9) 0.4149(5) 0.7019(6)
H9B H 0.6216 0.4167 0.6905
C20B C 0.5856(9) 0.4016(5) 0.6881(7)
H10B H 0.5843 0.3953 0.6676
C21B C 0.6368(10) 0.4405(6) 0.7485(7)
C22B C 0.6551(11) 0.4498(7) 0.7605(7)
N3B N 0.8150(5) 0.4683(3) 0.7026(5)
C23B C 0.8184(6) 0.4795(4) 0.7296(6)
H11B H 0.8338 0.4860 0.7388
C24B C 0.8001(6) 0.4830(4) 0.7477(6)
H12B H 0.8029 0.4909 0.7674
C25B C 0.7796(8) 0.4734(5) 0.7321(6)
C26B C 0.7746(7) 0.4610(5) 0.7019(6)
H13B H 0.7594 0.4544 0.6921
C27B C 0.7941(8) 0.4595(5) 0.6880(7)
H14B H 0.7919 0.4520 0.6681
C28B C 0.7575(11) 0.4731(8) 0.7463(8)
C29B C 0.7416(10) 0.4737(7) 0.7569(7)
Br2B Br 0.70835(15) 0.50412(11) 0.85369(11)
C30B C 0.7026(4) 0.4859(2) 0.8153(3)
C31B C 0.7227(5) 0.4861(3) 0.8014(5)
H15B H 0.7381 0.4949 0.8110
C32B C 0.7200(5) 0.4734(4) 0.7730(6)
C33B C 0.6971(5) 0.4603(3) 0.7586(3)
C34B C 0.6771(6) 0.4601(4) 0.7726(6)
C35B C 0.6797(5) 0.4728(4) 0.8009(5)
H16B H 0.6662 0.4726 0.8102
O2B O 0.6932(6) 0.4465(4) 0.7295(4)
N4B N 0.8720(4) 0.4656(3) 0.6610(5)
C36B C 0.8918(6) 0.4749(4) 0.6788(7)
H17B H 0.8920 0.4798 0.6999
C37B C 0.9143(6) 0.4773(4) 0.6629(6)
H18B H 0.9288 0.4836 0.6745
C38B C 0.9137(6) 0.4706(4) 0.6330(7)
C39B C 0.8920(7) 0.4602(5) 0.6158(7)
H19B H 0.8913 0.4549 0.5947
C40B C 0.8712(7) 0.4579(5) 0.6313(7)
H20B H 0.8565 0.4508 0.6203
C41B C 0.9353(8) 0.4724(5) 0.6171(8)
C42B C 0.9510(8) 0.4739(6) 0.6032(8)
Br3B Br 1.04496(14) 0.50115(11) 0.60701(11)
C43B C 1.0148(4) 0.4882(2) 0.5860(6)
C44B C 0.9949(5) 0.4864(3) 0.6025(3)
H21B H 0.9966 0.4914 0.6239
C45B C 0.9724(4) 0.4771(3) 0.5872(7)
C46B C 0.9699(5) 0.4696(3) 0.5553(7)
C47B C 0.9899(6) 0.4715(3) 0.5388(4)
C48B C 1.0124(4) 0.4808(3) 0.5541(6)
H22B H 1.0257 0.4820 0.5430
O3B O 0.9492(6) 0.4597(5) 0.5398(5)
C49B C 0.9443(10) 0.4760(7) 0.5243(9)
H23B H 0.9350 0.4684 0.5049
H24B H 0.9596 0.4902 0.5179
C50B C 0.9301(20) 0.4842(18) 0.5451(18)
N5B N 0.8839(7) 0.6420(6) 0.3811(6)
C51B C 0.8722(9) 0.6215(8) 0.3957(10)
H25B H 0.8607 0.6078 0.3844
C52B C 0.8763(10) 0.6192(8) 0.4275(10)
H26B H 0.8672 0.6038 0.4370
C53B C 0.8919(9) 0.6369(8) 0.4451(6)
C54B C 0.9040(10) 0.6591(8) 0.4314(8)
H27B H 0.9148 0.6729 0.4431
C55B C 0.8992(10) 0.6608(8) 0.3949(10)
H28B H 0.9076 0.6755 0.3839
N6B N 0.9841(5) 0.4439(3) 0.3814(5)
C56B C 0.9622(6) 0.4401(4) 0.3945(7)
H29B H 0.9479 0.4342 0.3827
C57B C 0.9638(6) 0.4461(4) 0.4273(6)
H30B H 0.9501 0.4439 0.4386
C58B C 0.9859(6) 0.4552(4) 0.4423(8)
C59B C 1.0070(6) 0.4578(4) 0.4263(6)
H31B H 1.0213 0.4633 0.4384
C60B C 1.0079(8) 0.4529(5) 0.3945(7)
H32B H 1.0217 0.4551 0.3834
C61B C 0.9883(9) 0.4611(7) 0.4777(9)
C62B C 0.9896(8) 0.4658(6) 0.5036(9)
Pd2B Pd 0.87875(9) 0.64613(7) 0.33450(5)
N7B N 0.8533(9) 0.6516(7) 0.3466(4)
C63B C 0.8597(12) 0.6744(10) 0.3518(5)
H33B H 0.8761 0.6865 0.3500
C64B C 0.8406(10) 0.6815(8) 0.3610(5)
H34B H 0.8448 0.6977 0.3643
C65B C 0.8162(9) 0.6622(7) 0.3644(6)
C66B C 0.8103(11) 0.6379(9) 0.3574(7)
H35B H 0.7943 0.6248 0.3584
C67B C 0.8304(11) 0.6348(9) 0.3486(6)
H36B H 0.8267 0.6189 0.3437
C68B C 0.7955(10) 0.6661(8) 0.3730(12)
C69B C 0.7802(11) 0.6692(9) 0.3786(11)
Br4B Br 0.7507(10) 0.7285(8) 0.4239(12)
C70B C 0.7446(8) 0.6992(6) 0.4058(9)
C71B C 0.7639(8) 0.6953(6) 0.3990(8)
H37B H 0.7799 0.7075 0.4033
C72B C 0.7593(9) 0.6732(8) 0.3857(7)
C73B C 0.7354(11) 0.6550(9) 0.3793(8)
C74B C 0.7161(11) 0.6589(9) 0.3861(8)
C75B C 0.7207(9) 0.6811(7) 0.3994(9)
H38B H 0.7078 0.6837 0.4040
C76B C 0.6903(17) 0.6398(13) 0.3792(12)
C77B C 0.6717(16) 0.6250(12) 0.3733(13)
O4B O 0.7318(6) 0.6354(5) 0.3652(5)
N8B N 0.6012(12) 0.5720(9) 0.3453(4)
C78B C 0.6061(17) 0.5963(13) 0.3518(6)
H39B H 0.5940 0.6005 0.3496
C79B C 0.6286(16) 0.6127(12) 0.3610(7)
H40B H 0.6324 0.6287 0.3649
C80B C 0.6459(12) 0.6063(9) 0.3646(6)
C81B C 0.6419(17) 0.5839(13) 0.3584(10)
H41B H 0.6546 0.5805 0.3608
C82B C 0.6197(14) 0.5660(11) 0.3486(8)
H42B H 0.6168 0.5504 0.3443
Pd1M Pd 0.70955(4) 0.51014(6) -0.01575(4)
N1M N 0.6872(3) 0.5216(5) 0.0070(5)
C1M C 0.6839(4) 0.5372(7) -0.0110(7)
H1M H 0.6904 0.5417 -0.0316
C2M C 0.6695(5) 0.5464(8) 0.0037(6)
H2M H 0.6661 0.5572 -0.0073
C3M C 0.6606(4) 0.5386(6) 0.0348(6)
C4M C 0.6652(6) 0.5216(9) 0.0494(7)
H3M H 0.6582 0.5155 0.0694
C5M C 0.6792(5) 0.5131(8) 0.0361(7)
H4M H 0.6828 0.5022 0.0467
C6M C 0.6534(13) 0.5543(15) 0.0538(7)
C7M C 0.6485(12) 0.5661(14) 0.0679(8)
Br1M Br 0.6465(12) 0.6463(14) 0.0809(12)
C8M C 0.6403(9) 0.6192(11) 0.0942(9)
C9M C 0.6469(8) 0.6049(11) 0.0759(9)
H5M H 0.6548 0.6107 0.0564
C10M C 0.6415(7) 0.5819(10) 0.0869(11)
C11M C 0.6296(8) 0.5733(11) 0.1162(11)
C12M C 0.6230(8) 0.5875(12) 0.1344(9)
C13M C 0.6284(8) 0.6105(11) 0.1234(8)
H6M H 0.6240 0.6200 0.1356
C14M C 0.6104(11) 0.5770(13) 0.1663(11)
C15M C 0.6011(11) 0.5693(13) 0.1899(11)
O1M O 0.6248(4) 0.5484(6) 0.1302(5)
N2M N 0.5014(5) 0.2325(6) -0.0365(5)
C16M C 0.4930(6) 0.2337(7) -0.0638(6)
H7M H 0.4811 0.2194 -0.0735
C17M C 0.5016(6) 0.2566(7) -0.0799(6)
H8M H 0.4953 0.2568 -0.1000
C18M C 0.5194(9) 0.2790(10) -0.0656(6)
C19M C 0.5266(7) 0.2749(9) -0.0352(6)
H9M H 0.5382 0.2883 -0.0238
C20M C 0.5173(7) 0.2523(9) -0.0214(7)
H10M H 0.5223 0.2510 -0.0009
C21M C 0.5296(8) 0.3035(10) -0.0818(7)
C22M C 0.5386(9) 0.3218(11) -0.0938(7)
N3M N 0.6800(4) 0.4817(5) -0.0359(5)
C23M C 0.6722(5) 0.4851(6) -0.0629(6)
H11M H 0.6811 0.5005 -0.0721
C24M C 0.6504(4) 0.4668(6) -0.0810(6)
H12M H 0.6453 0.4696 -0.1007
C25M C 0.6395(6) 0.4463(8) -0.0654(6)
C26M C 0.6469(5) 0.4413(7) -0.0352(6)
H13M H 0.6383 0.4261 -0.0254
C27M C 0.6679(6) 0.4608(8) -0.0213(7)
H14M H 0.6732 0.4586 -0.0014
C28M C 0.6177(7) 0.4242(11) -0.0796(8)
C29M C 0.6012(7) 0.4083(10) -0.0902(7)
Br2M Br 0.53756(10) 0.37502(15) -0.18702(11)
C30M C 0.5500(4) 0.3693(4) -0.1486(3)
C31M C 0.5699(4) 0.3894(5) -0.1347(5)
H15M H 0.5765 0.4048 -0.1443
C32M C 0.5799(3) 0.3867(5) -0.1063(6)
C33M C 0.5701(4) 0.3638(5) -0.0919(3)
C34M C 0.5503(4) 0.3438(6) -0.1059(6)
C35M C 0.5402(3) 0.3464(5) -0.1342(5)
H16M H 0.5269 0.3329 -0.1435
O2M O 0.5800(4) 0.3599(6) -0.0628(4)
N4M N 0.7397(3) 0.5387(4) 0.0057(5)
C36M C 0.7502(5) 0.5585(6) -0.0121(7)
H17M H 0.7455 0.5587 -0.0332
C37M C 0.7703(5) 0.5810(6) 0.0038(6)
H18M H 0.7785 0.5955 -0.0078
C38M C 0.7764(5) 0.5804(6) 0.0337(7)
C39M C 0.7651(5) 0.5587(7) 0.0509(7)
H19M H 0.7697 0.5580 0.0720
C40M C 0.7466(5) 0.5379(7) 0.0354(7)
H20M H 0.7390 0.5232 0.0464
C41M C 0.7962(6) 0.6020(8) 0.0496(8)
C42M C 0.8104(6) 0.6177(8) 0.0635(8)
Br3M Br 0.87714(8) 0.71163(14) 0.05966(11)
C43M C 0.8599(3) 0.6815(4) 0.0807(6)
C44M C 0.8418(4) 0.6616(5) 0.0642(3)
H21M H 0.8385 0.6633 0.0428
C45M C 0.8286(3) 0.6391(4) 0.0795(7)
C46M C 0.8336(4) 0.6366(5) 0.1114(7)
C47M C 0.8517(5) 0.6566(6) 0.1279(4)
C48M C 0.8649(3) 0.6791(4) 0.1126(6)
H22M H 0.8770 0.6924 0.1237
O3M O 0.8228(4) 0.6159(6) 0.1269(5)
C49M C 0.8016(7) 0.6110(10) 0.1424(9)
H23M H 0.7999 0.6017 0.1618
H24M H 0.8027 0.6263 0.1488
C50M C 0.7792(8) 0.5968(20) 0.1216(18)
N5M N 0.5752(4) 0.5506(7) 0.2856(6)
C51M C 0.5840(5) 0.5389(9) 0.2710(10)
H25M H 0.5862 0.5274 0.2823
C52M C 0.5904(6) 0.5430(10) 0.2392(10)
H26M H 0.5967 0.5339 0.2297
C53M C 0.5883(5) 0.5586(9) 0.2216(6)
C54M C 0.5782(6) 0.5707(10) 0.2353(8)
H27M H 0.5752 0.5815 0.2236
C55M C 0.5717(6) 0.5659(10) 0.2718(10)
H28M H 0.5654 0.5743 0.2828
N6M N 0.8735(4) 0.6508(5) 0.2853(5)
C56M C 0.8554(5) 0.6289(6) 0.2722(7)
H29M H 0.8470 0.6146 0.2840
C57M C 0.8510(5) 0.6305(6) 0.2394(6)
H30M H 0.8395 0.6168 0.2281
C58M C 0.8640(5) 0.6526(6) 0.2244(8)
C59M C 0.8825(5) 0.6737(6) 0.2404(6)
H31M H 0.8913 0.6880 0.2283
C60M C 0.8883(6) 0.6746(8) 0.2722(7)
H32M H 0.8999 0.6884 0.2833
C61M C 0.8605(6) 0.6550(9) 0.1890(9)
C62M C 0.8571(6) 0.6563(8) 0.1631(9)
Pd2M Pd 0.56595(5) 0.54542(9) 0.33217(5)
N7M N 0.5350(5) 0.5200(9) 0.3201(4)
C63M C 0.5186(7) 0.5264(12) 0.3149(5)
H33M H 0.5229 0.5428 0.3167
C64M C 0.4924(6) 0.5073(10) 0.3057(5)
H34M H 0.4804 0.5115 0.3024
C65M C 0.4873(5) 0.4829(9) 0.3023(6)
C66M C 0.5057(7) 0.4770(11) 0.3093(7)
H35M H 0.5028 0.4610 0.3083
C67M C 0.5289(7) 0.4971(11) 0.3181(6)
H36M H 0.5411 0.4934 0.3230
C68M C 0.4627(6) 0.4622(10) 0.2937(12)
C69M C 0.4443(6) 0.4469(11) 0.2881(11)
Br4M Br 0.3555(6) 0.4174(10) 0.2428(12)
C70M C 0.3787(5) 0.4113(8) 0.2609(9)
C71M C 0.4019(5) 0.4306(8) 0.2677(8)
H37M H 0.4057 0.4466 0.2634
C72M C 0.4194(5) 0.4260(9) 0.2810(7)
C73M C 0.4137(6) 0.4021(11) 0.2874(8)
C74M C 0.3905(7) 0.3828(11) 0.2806(8)
C75M C 0.3729(6) 0.3874(9) 0.2673(9)
H38M H 0.3574 0.3745 0.2627
C76M C 0.3838(11) 0.3570(17) 0.2875(12)
C77M C 0.3800(10) 0.3384(16) 0.2934(13)
O4M O 0.4297(4) 0.3985(6) 0.3015(5)
N8M N 0.3625(8) 0.2679(12) 0.3214(4)
C78M C 0.3431(11) 0.2728(17) 0.3149(6)
H39M H 0.3268 0.2607 0.3171
C79M C 0.3492(10) 0.2953(16) 0.3057(7)
H40M H 0.3370 0.2991 0.3018
C80M C 0.3729(8) 0.3126(12) 0.3021(6)
C81M C 0.3913(11) 0.3086(17) 0.3083(10)
H41M H 0.4074 0.3213 0.3059
C82M C 0.3870(9) 0.2864(14) 0.3181(8)
H42M H 0.3997 0.2835 0.3224
Pd1N Pd 0.48986(6) 0.19942(4) -0.01575(4)
N1N N 0.4784(5) 0.1657(4) 0.0070(5)
C1N C 0.4628(7) 0.1468(6) -0.0110(7)
H1N H 0.4583 0.1488 -0.0316
C2N C 0.4536(8) 0.1232(6) 0.0037(6)
H2N H 0.4428 0.1090 -0.0073
C3N C 0.4614(6) 0.1221(5) 0.0348(6)
C4N C 0.4784(9) 0.1437(7) 0.0494(7)
H3N H 0.4845 0.1428 0.0694
C5N C 0.4869(8) 0.1662(6) 0.0361(7)
H4N H 0.4978 0.1807 0.0467
C6N C 0.4457(15) 0.0992(7) 0.0538(7)
C7N C 0.4339(14) 0.0825(7) 0.0679(8)
Br1N Br 0.3537(14) 0.0003(7) 0.0809(12)
C8N C 0.3808(11) 0.0212(7) 0.0942(9)
C9N C 0.3951(11) 0.0421(8) 0.0759(9)
H5N H 0.3893 0.0442 0.0564
C10N C 0.4181(10) 0.0597(7) 0.0869(11)
C11N C 0.4267(11) 0.0564(8) 0.1162(11)
C12N C 0.4125(12) 0.0356(9) 0.1344(9)
C13N C 0.3895(11) 0.0180(8) 0.1234(8)
H6N H 0.3800 0.0041 0.1356
C14N C 0.4230(13) 0.0335(7) 0.1663(11)
C15N C 0.4307(13) 0.0319(6) 0.1899(11)
O1N O 0.4516(6) 0.0765(4) 0.1302(5)
N2N N 0.7675(6) 0.2690(3) -0.0365(5)
C16N C 0.7663(7) 0.2594(4) -0.0638(6)
H7N H 0.7806 0.2618 -0.0735
C17N C 0.7434(7) 0.2451(4) -0.0799(6)
H8N H 0.7432 0.2386 -0.1000
C18N C 0.7210(10) 0.2405(5) -0.0656(6)
C19N C 0.7251(9) 0.2518(5) -0.0352(6)
H9N H 0.7117 0.2500 -0.0238
C20N C 0.7477(9) 0.2651(5) -0.0214(7)
H10N H 0.7490 0.2714 -0.0009
C21N C 0.6965(10) 0.2262(6) -0.0818(7)
C22N C 0.6782(11) 0.2169(7) -0.0938(7)
N3N N 0.5183(5) 0.1984(3) -0.0359(5)
C23N C 0.5149(6) 0.1872(4) -0.0629(6)
H11N H 0.4995 0.1807 -0.0721
C24N C 0.5332(6) 0.1837(4) -0.0810(6)
H12N H 0.5304 0.1758 -0.1007
C25N C 0.5537(8) 0.1933(5) -0.0654(6)
C26N C 0.5587(7) 0.2057(5) -0.0352(6)
H13N H 0.5739 0.2123 -0.0254
C27N C 0.5392(8) 0.2072(5) -0.0213(7)
H14N H 0.5414 0.2147 -0.0014
C28N C 0.5758(11) 0.1936(8) -0.0796(8)
C29N C 0.5917(10) 0.1930(7) -0.0902(7)
Br2N Br 0.62498(15) 0.16255(11) -0.18702(11)
C30N C 0.6307(4) 0.1808(2) -0.1486(3)
C31N C 0.6106(5) 0.1806(3) -0.1347(5)
H15N H 0.5952 0.1718 -0.1443
C32N C 0.6133(5) 0.1933(4) -0.1063(6)
C33N C 0.6362(5) 0.2064(3) -0.0919(3)
C34N C 0.6562(6) 0.2066(4) -0.1059(6)
C35N C 0.6536(5) 0.1939(4) -0.1342(5)
H16N H 0.6671 0.1941 -0.1435
O2N O 0.6401(6) 0.2202(4) -0.0628(4)
N4N N 0.4613(4) 0.2011(3) 0.0057(5)
C36N C 0.4415(6) 0.1918(4) -0.0121(7)
H17N H 0.4413 0.1869 -0.0332
C37N C 0.4190(6) 0.1894(4) 0.0038(6)
H18N H 0.4045 0.1831 -0.0078
C38N C 0.4196(6) 0.1961(4) 0.0337(7)
C39N C 0.4413(7) 0.2065(5) 0.0509(7)
H19N H 0.4420 0.2118 0.0720
C40N C 0.4621(7) 0.2088(5) 0.0354(7)
H20N H 0.4768 0.2159 0.0464
C41N C 0.3980(8) 0.1943(5) 0.0496(8)
C42N C 0.3823(8) 0.1928(6) 0.0635(8)
Br3N Br 0.28837(14) 0.16552(11) 0.05966(11)
C43N C 0.3185(4) 0.1785(2) 0.0807(6)
C44N C 0.3384(5) 0.1803(3) 0.0642(3)
H21N H 0.3367 0.1753 0.0428
C45N C 0.3609(4) 0.1896(3) 0.0795(7)
C46N C 0.3634(5) 0.1971(3) 0.1114(7)
C47N C 0.3434(6) 0.1952(3) 0.1279(4)
C48N C 0.3209(4) 0.1859(3) 0.1126(6)
H22N H 0.3076 0.1847 0.1237
O3N O 0.3841(6) 0.2070(5) 0.1269(5)
C49N C 0.3890(10) 0.1907(7) 0.1424(9)
H23N H 0.3983 0.1983 0.1618
H24N H 0.3737 0.1765 0.1488
C50N C 0.4032(20) 0.1825(18) 0.1216(18)
N5N N 0.4494(7) 0.0247(6) 0.2856(6)
C51N C 0.4611(9) 0.0452(8) 0.2710(10)
H25N H 0.4726 0.0589 0.2823
C52N C 0.4570(10) 0.0475(8) 0.2392(10)
H26N H 0.4661 0.0629 0.2297
C53N C 0.4414(9) 0.0298(8) 0.2216(6)
C54N C 0.4293(10) 0.0076(8) 0.2353(8)
H27N H 0.4185 -0.0062 0.2236
C55N C 0.4341(10) 0.0059(8) 0.2718(10)
H28N H 0.4257 -0.0088 0.2828
N6N N 0.3492(5) 0.2228(3) 0.2853(5)
C56N C 0.3711(6) 0.2266(4) 0.2722(7)
H29N H 0.3854 0.2325 0.2840
C57N C 0.3695(6) 0.2206(4) 0.2394(6)
H30N H 0.3832 0.2228 0.2281
C58N C 0.3474(6) 0.2115(4) 0.2244(8)
C59N C 0.3263(6) 0.2089(4) 0.2404(6)
H31N H 0.3120 0.2034 0.2283
C60N C 0.3254(8) 0.2138(5) 0.2722(7)
H32N H 0.3116 0.2116 0.2833
C61N C 0.3450(9) 0.2056(7) 0.1890(9)
C62N C 0.3437(8) 0.2009(6) 0.1631(9)
Pd2N Pd 0.45458(9) 0.02054(7) 0.33217(5)
N7N N 0.4800(9) 0.0151(7) 0.3201(4)
C63N C 0.4736(12) -0.0077(10) 0.3149(5)
H33N H 0.4572 -0.0198 0.3167
C64N C 0.4927(10) -0.0148(8) 0.3057(5)
H34N H 0.4885 -0.0310 0.3024
C65N C 0.5171(9) 0.0045(7) 0.3023(6)
C66N C 0.5230(11) 0.0288(9) 0.3093(7)
H35N H 0.5390 0.0419 0.3083
C67N C 0.5029(11) 0.0319(9) 0.3181(6)
H36N H 0.5066 0.0478 0.3230
C68N C 0.5378(10) 0.0006(8) 0.2937(12)
C69N C 0.5531(11) -0.0025(9) 0.2881(11)
Br4N Br 0.5826(10) -0.0618(8) 0.2428(12)
C70N C 0.5887(8) -0.0325(6) 0.2609(9)
C71N C 0.5694(8) -0.0286(6) 0.2677(8)
H37N H 0.5534 -0.0408 0.2634
C72N C 0.5740(9) -0.0065(8) 0.2810(7)
C73N C 0.5979(11) 0.0117(9) 0.2874(8)
C74N C 0.6172(11) 0.0078(9) 0.2806(8)
C75N C 0.6126(9) -0.0144(7) 0.2673(9)
H38N H 0.6255 -0.0170 0.2627
C76N C 0.6430(17) 0.0269(13) 0.2875(12)
C77N C 0.6616(16) 0.0417(12) 0.2934(13)
O4N O 0.6015(6) 0.0313(5) 0.3015(5)
N8N N 0.7321(12) 0.0947(9) 0.3214(4)
C78N C 0.7272(17) 0.0704(13) 0.3149(6)
H39N H 0.7393 0.0662 0.3171
C79N C 0.7047(16) 0.0540(12) 0.3057(7)
H40N H 0.7009 0.0380 0.3018
C80N C 0.6874(12) 0.0604(9) 0.3021(6)
C81N C 0.6914(17) 0.0828(13) 0.3083(10)
H41N H 0.6787 0.0862 0.3059
C82N C 0.7136(14) 0.1007(11) 0.3181(8)
H42N H 0.7165 0.1163 0.3224
Pd1L Pd 0.80058(4) 0.29045(4) -0.01575(4)
N1L N 0.8343(4) 0.3128(3) 0.0070(5)
C1L C 0.8532(6) 0.3161(4) -0.0110(7)
H1L H 0.8512 0.3096 -0.0316
C2L C 0.8768(6) 0.3305(5) 0.0037(6)
H2L H 0.8910 0.3339 -0.0073
C3L C 0.8779(5) 0.3394(4) 0.0348(6)
C4L C 0.8563(7) 0.3348(6) 0.0494(7)
H3L H 0.8572 0.3418 0.0694
C5L C 0.8338(6) 0.3208(5) 0.0361(7)
H4L H 0.8193 0.3172 0.0467
C6L C 0.9008(7) 0.3466(13) 0.0538(7)
C7L C 0.9175(7) 0.3515(12) 0.0679(8)
Br1L Br 0.9997(7) 0.3535(12) 0.0809(12)
C8L C 0.9788(7) 0.3597(9) 0.0942(9)
C9L C 0.9579(8) 0.3531(8) 0.0759(9)
H5L H 0.9558 0.3452 0.0564
C10L C 0.9403(7) 0.3585(7) 0.0869(11)
C11L C 0.9436(8) 0.3704(8) 0.1162(11)
C12L C 0.9644(9) 0.3770(8) 0.1344(9)
C13L C 0.9820(8) 0.3716(8) 0.1234(8)
H6L H 0.9959 0.3760 0.1356
C14L C 0.9665(7) 0.3896(11) 0.1663(11)
C15L C 0.9681(6) 0.3989(11) 0.1899(11)
O1L O 0.9235(4) 0.3752(4) 0.1302(5)
N2L N 0.7310(3) 0.4986(5) -0.0365(5)
C16L C 0.7406(4) 0.5070(6) -0.0638(6)
H7L H 0.7382 0.5189 -0.0735
C17L C 0.7549(4) 0.4984(6) -0.0799(6)
H8L H 0.7614 0.5047 -0.1000
C18L C 0.7595(5) 0.4806(9) -0.0656(6)
C19L C 0.7482(5) 0.4734(7) -0.0352(6)
H9L H 0.7500 0.4618 -0.0238
C20L C 0.7349(5) 0.4827(7) -0.0214(7)
H10L H 0.7286 0.4777 -0.0009
C21L C 0.7738(6) 0.4704(8) -0.0818(7)
C22L C 0.7831(7) 0.4614(9) -0.0938(7)
N3L N 0.8016(3) 0.3200(4) -0.0359(5)
C23L C 0.8128(4) 0.3278(5) -0.0629(6)
H11L H 0.8193 0.3189 -0.0721
C24L C 0.8163(4) 0.3496(4) -0.0810(6)
H12L H 0.8242 0.3547 -0.1007
C25L C 0.8067(5) 0.3605(6) -0.0654(6)
C26L C 0.7943(5) 0.3531(5) -0.0352(6)
H13L H 0.7877 0.3617 -0.0254
C27L C 0.7928(5) 0.3321(6) -0.0213(7)
H14L H 0.7853 0.3268 -0.0014
C28L C 0.8064(8) 0.3823(7) -0.0796(8)
C29L C 0.8070(7) 0.3988(7) -0.0902(7)
Br2L Br 0.83745(11) 0.46244(10) -0.18702(11)
C30L C 0.8192(2) 0.4500(4) -0.1486(3)
C31L C 0.8194(3) 0.4301(4) -0.1347(5)
H15L H 0.8282 0.4235 -0.1443
C32L C 0.8067(4) 0.4201(3) -0.1063(6)
C33L C 0.7936(3) 0.4299(4) -0.0919(3)
C34L C 0.7934(4) 0.4497(4) -0.1059(6)
C35L C 0.8061(4) 0.4598(3) -0.1342(5)
H16L H 0.8059 0.4731 -0.1435
O2L O 0.7798(4) 0.4200(4) -0.0628(4)
N4L N 0.7989(3) 0.2603(3) 0.0057(5)
C36L C 0.8082(4) 0.2498(5) -0.0121(7)
H17L H 0.8131 0.2545 -0.0332
C37L C 0.8106(4) 0.2297(5) 0.0038(6)
H18L H 0.8169 0.2215 -0.0078
C38L C 0.8039(4) 0.2236(5) 0.0337(7)
C39L C 0.7935(5) 0.2349(5) 0.0509(7)
H19L H 0.7882 0.2303 0.0720
C40L C 0.7912(5) 0.2534(5) 0.0354(7)
H20L H 0.7841 0.2610 0.0464
C41L C 0.8057(5) 0.2038(6) 0.0496(8)
C42L C 0.8072(6) 0.1896(6) 0.0635(8)
Br3L Br 0.83448(11) 0.12286(8) 0.05966(11)
C43L C 0.8215(2) 0.1401(3) 0.0807(6)
C44L C 0.8197(3) 0.1582(4) 0.0642(3)
H21L H 0.8247 0.1615 0.0428
C45L C 0.8104(3) 0.1714(3) 0.0795(7)
C46L C 0.8029(3) 0.1664(4) 0.1114(7)
C47L C 0.8048(3) 0.1483(5) 0.1279(4)
C48L C 0.8141(3) 0.1351(3) 0.1126(6)
H22L H 0.8153 0.1230 0.1237
O3L O 0.7930(5) 0.1772(4) 0.1269(5)
C49L C 0.8093(7) 0.1984(7) 0.1424(9)
H23L H 0.8017 0.2001 0.1618
H24L H 0.8235 0.1973 0.1488
C50L C 0.8175(18) 0.2208(8) 0.1216(18)
N5L N 0.9753(6) 0.4248(4) 0.2856(6)
C51L C 0.9548(8) 0.4160(5) 0.2710(10)
H25L H 0.9411 0.4138 0.2823
C52L C 0.9525(8) 0.4096(6) 0.2392(10)
H26L H 0.9371 0.4033 0.2297
C53L C 0.9702(8) 0.4117(5) 0.2216(6)
C54L C 0.9924(8) 0.4218(6) 0.2353(8)
H27L H 1.0062 0.4248 0.2236
C55L C 0.9941(8) 0.4283(6) 0.2718(10)
H28L H 1.0088 0.4346 0.2828
N6L N 0.7772(3) 0.1265(4) 0.2853(5)
C56L C 0.7734(4) 0.1446(5) 0.2722(7)
H29L H 0.7675 0.1530 0.2840
C57L C 0.7794(4) 0.1490(5) 0.2394(6)
H30L H 0.7772 0.1605 0.2281
C58L C 0.7885(4) 0.1360(5) 0.2244(8)
C59L C 0.7911(4) 0.1175(5) 0.2404(6)
H31L H 0.7966 0.1087 0.2283
C60L C 0.7862(5) 0.1117(6) 0.2722(7)
H32L H 0.7884 0.1001 0.2833
C61L C 0.7944(7) 0.1395(6) 0.1890(9)
C62L C 0.7991(6) 0.1429(6) 0.1631(9)
Pd2L Pd 0.97946(7) 0.43405(5) 0.33217(5)
N7L N 0.9849(7) 0.4650(5) 0.3201(4)
C63L C 1.0077(10) 0.4814(7) 0.3149(5)
H33L H 1.0198 0.4771 0.3167
C64L C 1.0148(8) 0.5076(6) 0.3057(5)
H34L H 1.0310 0.5196 0.3024
C65L C 0.9955(7) 0.5127(5) 0.3023(6)
C66L C 0.9712(9) 0.4943(7) 0.3093(7)
H35L H 0.9581 0.4972 0.3083
C67L C 0.9681(9) 0.4711(7) 0.3181(6)
H36L H 0.9522 0.4589 0.3230
C68L C 0.9994(8) 0.5373(6) 0.2937(12)
C69L C 1.0025(9) 0.5557(6) 0.2881(11)
Br4L Br 1.0618(8) 0.6445(6) 0.2428(12)
C70L C 1.0325(6) 0.6213(5) 0.2609(9)
C71L C 1.0286(6) 0.5981(5) 0.2677(8)
H37L H 1.0408 0.5943 0.2634
C72L C 1.0065(8) 0.5806(5) 0.2810(7)
C73L C 0.9883(9) 0.5863(6) 0.2874(8)
C74L C 0.9922(9) 0.6095(7) 0.2806(8)
C75L C 1.0144(7) 0.6271(6) 0.2673(9)
H38L H 1.0170 0.6426 0.2627
C76L C 0.9731(13) 0.6162(11) 0.2875(12)
C77L C 0.9583(12) 0.6200(10) 0.2934(13)
O4L O 0.9687(5) 0.5703(4) 0.3015(5)
N8L N 0.9053(9) 0.6375(8) 0.3214(4)
C78L C 0.9296(13) 0.6569(11) 0.3149(6)
H39L H 0.9338 0.6732 0.3171
C79L C 0.9460(12) 0.6508(10) 0.3057(7)
H40L H 0.9620 0.6630 0.3018
C80L C 0.9396(9) 0.6271(8) 0.3021(6)
C81L C 0.9172(13) 0.6087(11) 0.3083(10)
H41L H 0.9138 0.5926 0.3059
C82L C 0.8993(11) 0.6130(9) 0.3181(8)
H42L H 0.8837 0.6003 0.3224
B1 B 0.4840(5) 0.3889(6) 0.7470(7)
F1 F 0.4921(9) 0.4118(7) 0.7606(10)
F2 F 0.4618(6) 0.3712(8) 0.7604(11)
F3 F 0.4816(11) 0.3892(11) 0.7135(7)
F4 F 0.5025(4) 0.3840(3) 0.7556(6)
loop_
_geom_bond_atom_site_label_1
_geom_bond_atom_site_label_2
_geom_bond_site_symmetry_1
_geom_bond_site_symmetry_2
B1 F1 1_555 1_555
F2 B1 1_555 1_555
F3 B1 1_555 1_555
F4 B1 1_555 1_555
B2 F5 1_555 1_555
F6 B2 1_555 1_555
F7 B2 1_555 1_555
F8 B2 1_555 1_555
B3 F9 1_555 1_555
F10 B3 1_555 1_555
F11 B3 1_555 1_555
F12 B3 1_555 1_555
B4 F13 1_555 1_555
F14 B4 1_555 1_555
F15 B4 1_555 1_555
F16 B4 1_555 1_555
Pd1 N1 1_555 1_555
N1 C1 1_555 1_555
C1 H1 1_555 1_555
C2 C1 1_555 1_555
H2 C2 1_555 1_555
C3 C2 1_555 1_555
C4 C3 1_555 1_555
H3 C4 1_555 1_555
C5 N1 1_555 1_555
H4 C5 1_555 1_555
C6 C3 1_555 1_555
C7 C6 1_555 1_555
Br1 C8 1_555 1_555
C8 C9 1_555 1_555
C9 H5 1_555 1_555
C10 C7 1_555 1_555
C11 C10 1_555 1_555
C12 C11 1_555 1_555
C13 C8 1_555 1_555
H6 C13 1_555 1_555
C14 C12 1_555 1_555
C15 C14 1_555 1_555
O1 C11 1_555 1_555
N2 C16 1_555 1_555
C16 H7 1_555 1_555
C17 C16 1_555 1_555
H8 C17 1_555 1_555
C18 C17 1_555 1_555
C19 C18 1_555 1_555
H9 C19 1_555 1_555
C20 N2 1_555 1_555
H10 C20 1_555 1_555
C21 C18 1_555 1_555
C22 C21 1_555 1_555
N3 Pd1 1_555 1_555
C23 N3 1_555 1_555
H11 C23 1_555 1_555
C24 C23 1_555 1_555
H12 C24 1_555 1_555
C25 C24 1_555 1_555
C26 C25 1_555 1_555
H13 C26 1_555 1_555
C27 N3 1_555 1_555
H14 C27 1_555 1_555
C28 C25 1_555 1_555
C29 C28 1_555 1_555
Br2 C30 1_555 1_555
C30 C31 1_555 1_555
C31 H15 1_555 1_555
C32 C29 1_555 1_555
C33 C32 1_555 1_555
C34 C22 1_555 1_555
C35 C30 1_555 1_555
H16 C35 1_555 1_555
O2 C33 1_555 1_555
N4 Pd1 1_555 1_555
C36 N4 1_555 1_555
H17 C36 1_555 1_555
C37 C36 1_555 1_555
H18 C37 1_555 1_555
C38 C37 1_555 1_555
C39 C38 1_555 1_555
H19 C39 1_555 1_555
C40 N4 1_555 1_555
H20 C40 1_555 1_555
C41 C38 1_555 1_555
C42 C41 1_555 1_555
Br3 C43 1_555 1_555
C43 C44 1_555 1_555
C44 H21 1_555 1_555
C45 C42 1_555 1_555
C46 C45 1_555 1_555
C47 C46 1_555 1_555
C48 C43 1_555 1_555
H22 C48 1_555 1_555
O3 C46 1_555 1_555
C49 O3 1_555 1_555
H23 C49 1_555 1_555
H24 C49 1_555 1_555
C50 C49 1_555 1_555
N5 C51 1_555 1_555
C51 H25 1_555 1_555
C52 C51 1_555 1_555
H26 C52 1_555 1_555
C53 C15 1_555 1_555
C54 C53 1_555 1_555
H27 C54 1_555 1_555
C55 N5 1_555 1_555
H28 C55 1_555 1_555
N6 C56 1_555 1_555
C56 H29 1_555 1_555
C57 C56 1_555 1_555
H30 C57 1_555 1_555
C58 C57 1_555 1_555
C59 C58 1_555 1_555
H31 C59 1_555 1_555
C60 N6 1_555 1_555
H32 C60 1_555 1_555
C61 C58 1_555 1_555
C62 C47 1_555 1_555
Pd2 N5 1_555 1_555
N7 Pd2 1_555 1_555
C63 N7 1_555 1_555
H33 C63 1_555 1_555
C64 C63 1_555 1_555
H34 C64 1_555 1_555
C65 C64 1_555 1_555
C66 C65 1_555 1_555
H35 C66 1_555 1_555
C67 N7 1_555 1_555
H36 C67 1_555 1_555
C68 C65 1_555 1_555
C69 C68 1_555 1_555
Br4 C70 1_555 1_555
C70 C71 1_555 1_555
C71 H37 1_555 1_555
C72 C69 1_555 1_555
C73 C72 1_555 1_555
C74 C73 1_555 1_555
C75 C70 1_555 1_555
H38 C75 1_555 1_555
C76 C74 1_555 1_555
C77 C76 1_555 1_555
O4 C73 1_555 1_555
N8 C78 1_555 1_555
C78 H39 1_555 1_555
C79 C78 1_555 1_555
H40 C79 1_555 1_555
C80 C77 1_555 1_555
C81 C80 1_555 1_555
H41 C81 1_555 1_555
C82 N8 1_555 1_555
H42 C82 1_555 1_555
Pd1A N2 1_555 1_555
N1A Pd1A 1_555 1_555
C1A N1A 1_555 1_555
H1A C1A 1_555 1_555
C2A C1A 1_555 1_555
H2A C2A 1_555 1_555
C3A C2A 1_555 1_555
C4A C3A 1_555 1_555
H3A C4A 1_555 1_555
C5A N1A 1_555 1_555
H4A C5A 1_555 1_555
C6A C3A 1_555 1_555
C7A C6A 1_555 1_555
Br1A C8A 1_555 1_555
C8A C9A 1_555 1_555
C9A H5A 1_555 1_555
C10A C7A 1_555 1_555
C11A C10A 1_555 1_555
C12A C11A 1_555 1_555
C13A C8A 1_555 1_555
H6A C13A 1_555 1_555
C14A C12A 1_555 1_555
C15A C14A 1_555 1_555
O1A C11A 1_555 1_555
N2A C16A 1_555 1_555
C16A H7A 1_555 1_555
C17A C16A 1_555 1_555
H8A C17A 1_555 1_555
C18A C17A 1_555 1_555
C19A C18A 1_555 1_555
H9A C19A 1_555 1_555
C20A N2A 1_555 1_555
H10A C20A 1_555 1_555
C21A C18A 1_555 1_555
C22A C21A 1_555 1_555
N3A Pd1A 1_555 1_555
C23A N3A 1_555 1_555
H11A C23A 1_555 1_555
C24A C23A 1_555 1_555
H12A C24A 1_555 1_555
C25A C24A 1_555 1_555
C26A C25A 1_555 1_555
H13A C26A 1_555 1_555
C27A N3A 1_555 1_555
H14A C27A 1_555 1_555
C28A C25A 1_555 1_555
C29A C28A 1_555 1_555
Br2A C30A 1_555 1_555
C30A C31A 1_555 1_555
C31A H15A 1_555 1_555
C32A C29A 1_555 1_555
C33A C32A 1_555 1_555
C34A C22A 1_555 1_555
C35A C30A 1_555 1_555
H16A C35A 1_555 1_555
O2A C33A 1_555 1_555
N4A Pd1A 1_555 1_555
C36A N4A 1_555 1_555
H17A C36A 1_555 1_555
C37A C36A 1_555 1_555
H18A C37A 1_555 1_555
C38A C37A 1_555 1_555
C39A C38A 1_555 1_555
H19A C39A 1_555 1_555
C40A N4A 1_555 1_555
H20A C40A 1_555 1_555
C41A C38A 1_555 1_555
C42A C41A 1_555 1_555
Br3A C43A 1_555 1_555
C43A C44A 1_555 1_555
C44A H21A 1_555 1_555
C45A C42A 1_555 1_555
C46A C45A 1_555 1_555
C47A C46A 1_555 1_555
C48A C43A 1_555 1_555
H22A C48A 1_555 1_555
O3A C46A 1_555 1_555
C49A O3A 1_555 1_555
H23A C49A 1_555 1_555
H24A C49A 1_555 1_555
C50A C49A 1_555 1_555
N5A C51A 1_555 1_555
C51A H25A 1_555 1_555
C52A C51A 1_555 1_555
H26A C52A 1_555 1_555
C53A C15A 1_555 1_555
C54A C53A 1_555 1_555
H27A C54A 1_555 1_555
C55A N5A 1_555 1_555
H28A C55A 1_555 1_555
N6A C56A 1_555 1_555
C56A H29A 1_555 1_555
C57A C56A 1_555 1_555
H30A C57A 1_555 1_555
C58A C57A 1_555 1_555
C59A C58A 1_555 1_555
H31A C59A 1_555 1_555
C60A N6A 1_555 1_555
H32A C60A 1_555 1_555
C61A C58A 1_555 1_555
C62A C47A 1_555 1_555
Pd2A N5A 1_555 1_555
N7A Pd2A 1_555 1_555
C63A N7A 1_555 1_555
H33A C63A 1_555 1_555
C64A C63A 1_555 1_555
H34A C64A 1_555 1_555
C65A C64A 1_555 1_555
C66A C65A 1_555 1_555
H35A C66A 1_555 1_555
C67A N7A 1_555 1_555
H36A C67A 1_555 1_555
C68A C65A 1_555 1_555
C69A C68A 1_555 1_555
Br4A C70A 1_555 1_555
C70A C71A 1_555 1_555
C71A H37A 1_555 1_555
C72A C69A 1_555 1_555
C73A C72A 1_555 1_555
C74A C73A 1_555 1_555
C75A C70A 1_555 1_555
H38A C75A 1_555 1_555
C76A C74A 1_555 1_555
C77A C76A 1_555 1_555
O4A C73A 1_555 1_555
N8A C78A 1_555 1_555
C78A H39A 1_555 1_555
C79A C78A 1_555 1_555
H40A C79A 1_555 1_555
C80A C77A 1_555 1_555
C81A C80A 1_555 1_555
H41A C81A 1_555 1_555
C82A N8A 1_555 1_555
H42A C82A 1_555 1_555
Pd1B N2A 1_555 1_555
N1B Pd1B 1_555 1_555
C1B N1B 1_555 1_555
H1B C1B 1_555 1_555
C2B C1B 1_555 1_555
H2B C2B 1_555 1_555
C3B C2B 1_555 1_555
C4B C3B 1_555 1_555
H3B C4B 1_555 1_555
C5B N1B 1_555 1_555
H4B C5B 1_555 1_555
C6B C3B 1_555 1_555
C7B C6B 1_555 1_555
Br1B C8B 1_555 1_555
C8B C9B 1_555 1_555
C9B H5B 1_555 1_555
C10B C7B 1_555 1_555
C11B C10B 1_555 1_555
C12B C11B 1_555 1_555
C13B C8B 1_555 1_555
H6B C13B 1_555 1_555
C14B C12B 1_555 1_555
C15B C14B 1_555 1_555
O1B C11B 1_555 1_555
N2B Pd1 1_555 1_555
C16B N2B 1_555 1_555
H7B C16B 1_555 1_555
C17B C16B 1_555 1_555
H8B C17B 1_555 1_555
C18B C17B 1_555 1_555
C19B C18B 1_555 1_555
H9B C19B 1_555 1_555
C20B N2B 1_555 1_555
H10B C20B 1_555 1_555
C21B C18B 1_555 1_555
C22B C21B 1_555 1_555
N3B Pd1B 1_555 1_555
C23B N3B 1_555 1_555
H11B C23B 1_555 1_555
C24B C23B 1_555 1_555
H12B C24B 1_555 1_555
C25B C24B 1_555 1_555
C26B C25B 1_555 1_555
H13B C26B 1_555 1_555
C27B N3B 1_555 1_555
H14B C27B 1_555 1_555
C28B C25B 1_555 1_555
C29B C28B 1_555 1_555
Br2B C30B 1_555 1_555
C30B C31B 1_555 1_555
C31B H15B 1_555 1_555
C32B C29B 1_555 1_555
C33B C32B 1_555 1_555
C34B C22B 1_555 1_555
C35B C30B 1_555 1_555
H16B C35B 1_555 1_555
O2B C33B 1_555 1_555
N4B Pd1B 1_555 1_555
C36B N4B 1_555 1_555
H17B C36B 1_555 1_555
C37B C36B 1_555 1_555
H18B C37B 1_555 1_555
C38B C37B 1_555 1_555
C39B C38B 1_555 1_555
H19B C39B 1_555 1_555
C40B N4B 1_555 1_555
H20B C40B 1_555 1_555
C41B C38B 1_555 1_555
C42B C41B 1_555 1_555
Br3B C43B 1_555 1_555
C43B C44B 1_555 1_555
C44B H21B 1_555 1_555
C45B C42B 1_555 1_555
C46B C45B 1_555 1_555
C47B C46B 1_555 1_555
C48B C43B 1_555 1_555
H22B C48B 1_555 1_555
O3B C46B 1_555 1_555
C49B O3B 1_555 1_555
H23B C49B 1_555 1_555
H24B C49B 1_555 1_555
C50B C49B 1_555 1_555
N5B C51B 1_555 1_555
C51B H25B 1_555 1_555
C52B C51B 1_555 1_555
H26B C52B 1_555 1_555
C53B C15B 1_555 1_555
C54B C53B 1_555 1_555
H27B C54B 1_555 1_555
C55B N5B 1_555 1_555
H28B C55B 1_555 1_555
N6B C56B 1_555 1_555
C56B H29B 1_555 1_555
C57B C56B 1_555 1_555
H30B C57B 1_555 1_555
C58B C57B 1_555 1_555
C59B C58B 1_555 1_555
H31B C59B 1_555 1_555
C60B N6B 1_555 1_555
H32B C60B 1_555 1_555
C61B C58B 1_555 1_555
C62B C47B 1_555 1_555
Pd2B N5B 1_555 1_555
N7B Pd2B 1_555 1_555
C63B N7B 1_555 1_555
H33B C63B 1_555 1_555
C64B C63B 1_555 1_555
H34B C64B 1_555 1_555
C65B C64B 1_555 1_555
C66B C65B 1_555 1_555
H35B C66B 1_555 1_555
C67B N7B 1_555 1_555
H36B C67B 1_555 1_555
C68B C65B 1_555 1_555
C69B C68B 1_555 1_555
Br4B C70B 1_555 1_555
C70B C71B 1_555 1_555
C71B H37B 1_555 1_555
C72B C69B 1_555 1_555
C73B C72B 1_555 1_555
C74B C73B 1_555 1_555
C75B C70B 1_555 1_555
H38B C75B 1_555 1_555
C76B C74B 1_555 1_555
C77B C76B 1_555 1_555
O4B C73B 1_555 1_555
N8B C78B 1_555 1_555
C78B H39B 1_555 1_555
C79B C78B 1_555 1_555
H40B C79B 1_555 1_555
C80B C77B 1_555 1_555
C81B C80B 1_555 1_555
H41B C81B 1_555 1_555
C82B N8B 1_555 1_555
H42B C82B 1_555 1_555
Pd1M N1M 1_555 1_555
N1M C1M 1_555 1_555
C1M H1M 1_555 1_555
C2M C1M 1_555 1_555
H2M C2M 1_555 1_555
C3M C2M 1_555 1_555
C4M C3M 1_555 1_555
H3M C4M 1_555 1_555
C5M N1M 1_555 1_555
H4M C5M 1_555 1_555
C6M C3M 1_555 1_555
C7M C6M 1_555 1_555
Br1M C8M 1_555 1_555
C8M C9M 1_555 1_555
C9M H5M 1_555 1_555
C10M C7M 1_555 1_555
C11M C10M 1_555 1_555
C12M C11M 1_555 1_555
C13M C8M 1_555 1_555
H6M C13M 1_555 1_555
C14M C12M 1_555 1_555
C15M C14M 1_555 1_555
O1M C11M 1_555 1_555
N2M C16M 1_555 1_555
C16M H7M 1_555 1_555
C17M C16M 1_555 1_555
H8M C17M 1_555 1_555
C18M C17M 1_555 1_555
C19M C18M 1_555 1_555
H9M C19M 1_555 1_555
C20M N2M 1_555 1_555
H10M C20M 1_555 1_555
C21M C18M 1_555 1_555
C22M C21M 1_555 1_555
N3M Pd1M 1_555 1_555
C23M N3M 1_555 1_555
H11M C23M 1_555 1_555
C24M C23M 1_555 1_555
H12M C24M 1_555 1_555
C25M C24M 1_555 1_555
C26M C25M 1_555 1_555
H13M C26M 1_555 1_555
C27M N3M 1_555 1_555
H14M C27M 1_555 1_555
C28M C25M 1_555 1_555
C29M C28M 1_555 1_555
Br2M C30M 1_555 1_555
C30M C31M 1_555 1_555
C31M H15M 1_555 1_555
C32M C29M 1_555 1_555
C33M C32M 1_555 1_555
C34M C22M 1_555 1_555
C35M C30M 1_555 1_555
H16M C35M 1_555 1_555
O2M C33M 1_555 1_555
N4M Pd1M 1_555 1_555
C36M N4M 1_555 1_555
H17M C36M 1_555 1_555
C37M C36M 1_555 1_555
H18M C37M 1_555 1_555
C38M C37M 1_555 1_555
C39M C38M 1_555 1_555
H19M C39M 1_555 1_555
C40M N4M 1_555 1_555
H20M C40M 1_555 1_555
C41M C38M 1_555 1_555
C42M C41M 1_555 1_555
Br3M C43M 1_555 1_555
C43M C44M 1_555 1_555
C44M H21M 1_555 1_555
C45M C42M 1_555 1_555
C46M C45M 1_555 1_555
C47M C46M 1_555 1_555
C48M C43M 1_555 1_555
H22M C48M 1_555 1_555
O3M C46M 1_555 1_555
C49M O3M 1_555 1_555
H23M C49M 1_555 1_555
H24M C49M 1_555 1_555
C50M C49M 1_555 1_555
N5M C51M 1_555 1_555
C51M H25M 1_555 1_555
C52M C51M 1_555 1_555
H26M C52M 1_555 1_555
C53M C15M 1_555 1_555
C54M C53M 1_555 1_555
H27M C54M 1_555 1_555
C55M N5M 1_555 1_555
H28M C55M 1_555 1_555
N6M Pd2B 1_555 1_555
C56M N6M 1_555 1_555
H29M C56M 1_555 1_555
C57M C56M 1_555 1_555
H30M C57M 1_555 1_555
C58M C57M 1_555 1_555
C59M C58M 1_555 1_555
H31M C59M 1_555 1_555
C60M N6M 1_555 1_555
H32M C60M 1_555 1_555
C61M C58M 1_555 1_555
C62M C47M 1_555 1_555
Pd2M N6 1_555 1_555
N7M Pd2M 1_555 1_555
C63M N7M 1_555 1_555
H33M C63M 1_555 1_555
C64M C63M 1_555 1_555
H34M C64M 1_555 1_555
C65M C64M 1_555 1_555
C66M C65M 1_555 1_555
H35M C66M 1_555 1_555
C67M N7M 1_555 1_555
H36M C67M 1_555 1_555
C68M C65M 1_555 1_555
C69M C68M 1_555 1_555
Br4M C70M 1_555 1_555
C70M C71M 1_555 1_555
C71M H37M 1_555 1_555
C72M C69M 1_555 1_555
C73M C72M 1_555 1_555
C74M C73M 1_555 1_555
C75M C70M 1_555 1_555
H38M C75M 1_555 1_555
C76M C74M 1_555 1_555
C77M C76M 1_555 1_555
O4M C73M 1_555 1_555
N8M Pd2 1_555 1_555
C78M N8M 1_555 1_555
H39M C78M 1_555 1_555
C79M C78M 1_555 1_555
H40M C79M 1_555 1_555
C80M C77M 1_555 1_555
C81M C80M 1_555 1_555
H41M C81M 1_555 1_555
C82M N8M 1_555 1_555
H42M C82M 1_555 1_555
Pd1N N2M 1_555 1_555
N1N Pd1N 1_555 1_555
C1N N1N 1_555 1_555
H1N C1N 1_555 1_555
C2N C1N 1_555 1_555
H2N C2N 1_555 1_555
C3N C2N 1_555 1_555
C4N C3N 1_555 1_555
H3N C4N 1_555 1_555
C5N N1N 1_555 1_555
H4N C5N 1_555 1_555
C6N C3N 1_555 1_555
C7N C6N 1_555 1_555
Br1N C8N 1_555 1_555
C8N C9N 1_555 1_555
C9N H5N 1_555 1_555
C10N C7N 1_555 1_555
C11N C10N 1_555 1_555
C12N C11N 1_555 1_555
C13N C8N 1_555 1_555
H6N C13N 1_555 1_555
C14N C12N 1_555 1_555
C15N C14N 1_555 1_555
O1N C11N 1_555 1_555
N2N C16N 1_555 1_555
C16N H7N 1_555 1_555
C17N C16N 1_555 1_555
H8N C17N 1_555 1_555
C18N C17N 1_555 1_555
C19N C18N 1_555 1_555
H9N C19N 1_555 1_555
C20N N2N 1_555 1_555
H10N C20N 1_555 1_555
C21N C18N 1_555 1_555
C22N C21N 1_555 1_555
N3N Pd1N 1_555 1_555
C23N N3N 1_555 1_555
H11N C23N 1_555 1_555
C24N C23N 1_555 1_555
H12N C24N 1_555 1_555
C25N C24N 1_555 1_555
C26N C25N 1_555 1_555
H13N C26N 1_555 1_555
C27N N3N 1_555 1_555
H14N C27N 1_555 1_555
C28N C25N 1_555 1_555
C29N C28N 1_555 1_555
Br2N C30N 1_555 1_555
C30N C31N 1_555 1_555
C31N H15N 1_555 1_555
C32N C29N 1_555 1_555
C33N C32N 1_555 1_555
C34N C22N 1_555 1_555
C35N C30N 1_555 1_555
H16N C35N 1_555 1_555
O2N C33N 1_555 1_555
N4N Pd1N 1_555 1_555
C36N N4N 1_555 1_555
H17N C36N 1_555 1_555
C37N C36N 1_555 1_555
H18N C37N 1_555 1_555
C38N C37N 1_555 1_555
C39N C38N 1_555 1_555
H19N C39N 1_555 1_555
C40N N4N 1_555 1_555
H20N C40N 1_555 1_555
C41N C38N 1_555 1_555
C42N C41N 1_555 1_555
Br3N C43N 1_555 1_555
C43N C44N 1_555 1_555
C44N H21N 1_555 1_555
C45N C42N 1_555 1_555
C46N C45N 1_555 1_555
C47N C46N 1_555 1_555
C48N C43N 1_555 1_555
H22N C48N 1_555 1_555
O3N C46N 1_555 1_555
C49N O3N 1_555 1_555
H23N C49N 1_555 1_555
H24N C49N 1_555 1_555
C50N C49N 1_555 1_555
N5N C51N 1_555 1_555
C51N H25N 1_555 1_555
C52N C51N 1_555 1_555
H26N C52N 1_555 1_555
C53N C15N 1_555 1_555
C54N C53N 1_555 1_555
H27N C54N 1_555 1_555
C55N N5N 1_555 1_555
H28N C55N 1_555 1_555
N6N Pd2 1_555 1_555
C56N N6N 1_555 1_555
H29N C56N 1_555 1_555
C57N C56N 1_555 1_555
H30N C57N 1_555 1_555
C58N C57N 1_555 1_555
C59N C58N 1_555 1_555
H31N C59N 1_555 1_555
C60N N6N 1_555 1_555
H32N C60N 1_555 1_555
C61N C58N 1_555 1_555
C62N C47N 1_555 1_555
Pd2N N8 1_555 1_555
N7N Pd2N 1_555 1_555
C63N N7N 1_555 1_555
H33N C63N 1_555 1_555
C64N C63N 1_555 1_555
H34N C64N 1_555 1_555
C65N C64N 1_555 1_555
C66N C65N 1_555 1_555
H35N C66N 1_555 1_555
C67N N7N 1_555 1_555
H36N C67N 1_555 1_555
C68N C65N 1_555 1_555
C69N C68N 1_555 1_555
Br4N C70N 1_555 1_555
C70N C71N 1_555 1_555
C71N H37N 1_555 1_555
C72N C69N 1_555 1_555
C73N C72N 1_555 1_555
C74N C73N 1_555 1_555
C75N C70N 1_555 1_555
H38N C75N 1_555 1_555
C76N C74N 1_555 1_555
C77N C76N 1_555 1_555
O4N C73N 1_555 1_555
N8N Pd2A 1_555 1_555
C78N N8N 1_555 1_555
H39N C78N 1_555 1_555
C79N C78N 1_555 1_555
H40N C79N 1_555 1_555
C80N C77N 1_555 1_555
C81N C80N 1_555 1_555
H41N C81N 1_555 1_555
C82N N8N 1_555 1_555
H42N C82N 1_555 1_555
Pd1L N2N 1_555 1_555
N1L Pd1L 1_555 1_555
C1L N1L 1_555 1_555
H1L C1L 1_555 1_555
C2L C1L 1_555 1_555
H2L C2L 1_555 1_555
C3L C2L 1_555 1_555
C4L C3L 1_555 1_555
H3L C4L 1_555 1_555
C5L N1L 1_555 1_555
H4L C5L 1_555 1_555
C6L C3L 1_555 1_555
C7L C6L 1_555 1_555
Br1L C8L 1_555 1_555
C8L C9L 1_555 1_555
C9L H5L 1_555 1_555
C10L C7L 1_555 1_555
C11L C10L 1_555 1_555
C12L C11L 1_555 1_555
C13L C8L 1_555 1_555
H6L C13L 1_555 1_555
C14L C12L 1_555 1_555
C15L C14L 1_555 1_555
O1L C11L 1_555 1_555
N2L Pd1M 1_555 1_555
C16L N2L 1_555 1_555
H7L C16L 1_555 1_555
C17L C16L 1_555 1_555
H8L C17L 1_555 1_555
C18L C17L 1_555 1_555
C19L C18L 1_555 1_555
H9L C19L 1_555 1_555
C20L N2L 1_555 1_555
H10L C20L 1_555 1_555
C21L C18L 1_555 1_555
C22L C21L 1_555 1_555
N3L Pd1L 1_555 1_555
C23L N3L 1_555 1_555
H11L C23L 1_555 1_555
C24L C23L 1_555 1_555
H12L C24L 1_555 1_555
C25L C24L 1_555 1_555
C26L C25L 1_555 1_555
H13L C26L 1_555 1_555
C27L N3L 1_555 1_555
H14L C27L 1_555 1_555
C28L C25L 1_555 1_555
C29L C28L 1_555 1_555
Br2L C30L 1_555 1_555
C30L C31L 1_555 1_555
C31L H15L 1_555 1_555
C32L C29L 1_555 1_555
C33L C32L 1_555 1_555
C34L C22L 1_555 1_555
C35L C30L 1_555 1_555
H16L C35L 1_555 1_555
O2L C33L 1_555 1_555
N4L Pd1L 1_555 1_555
C36L N4L 1_555 1_555
H17L C36L 1_555 1_555
C37L C36L 1_555 1_555
H18L C37L 1_555 1_555
C38L C37L 1_555 1_555
C39L C38L 1_555 1_555
H19L C39L 1_555 1_555
C40L N4L 1_555 1_555
H20L C40L 1_555 1_555
C41L C38L 1_555 1_555
C42L C41L 1_555 1_555
Br3L C43L 1_555 1_555
C43L C44L 1_555 1_555
C44L H21L 1_555 1_555
C45L C42L 1_555 1_555
C46L C45L 1_555 1_555
C47L C46L 1_555 1_555
C48L C43L 1_555 1_555
H22L C48L 1_555 1_555
O3L C46L 1_555 1_555
C49L O3L 1_555 1_555
H23L C49L 1_555 1_555
H24L C49L 1_555 1_555
C50L C49L 1_555 1_555
N5L C51L 1_555 1_555
C51L H25L 1_555 1_555
C52L C51L 1_555 1_555
H26L C52L 1_555 1_555
C53L C15L 1_555 1_555
C54L C53L 1_555 1_555
H27L C54L 1_555 1_555
C55L N5L 1_555 1_555
H28L C55L 1_555 1_555
N6L Pd2A 1_555 1_555
C56L N6L 1_555 1_555
H29L C56L 1_555 1_555
C57L C56L 1_555 1_555
H30L C57L 1_555 1_555
C58L C57L 1_555 1_555
C59L C58L 1_555 1_555
H31L C59L 1_555 1_555
C60L N6L 1_555 1_555
H32L C60L 1_555 1_555
C61L C58L 1_555 1_555
C62L C47L 1_555 1_555
Pd2L N8A 1_555 1_555
N7L Pd2L 1_555 1_555
C63L N7L 1_555 1_555
H33L C63L 1_555 1_555
C64L C63L 1_555 1_555
H34L C64L 1_555 1_555
C65L C64L 1_555 1_555
C66L C65L 1_555 1_555
H35L C66L 1_555 1_555
C67L N7L 1_555 1_555
H36L C67L 1_555 1_555
C68L C65L 1_555 1_555
C69L C68L 1_555 1_555
Br4L C70L 1_555 1_555
C70L C71L 1_555 1_555
C71L H37L 1_555 1_555
C72L C69L 1_555 1_555
C73L C72L 1_555 1_555
C74L C73L 1_555 1_555
C75L C70L 1_555 1_555
H38L C75L 1_555 1_555
C76L C74L 1_555 1_555
C77L C76L 1_555 1_555
O4L C73L 1_555 1_555
N8L Pd2B 1_555 1_555
C78L N8L 1_555 1_555
H39L C78L 1_555 1_555
C79L C78L 1_555 1_555
H40L C79L 1_555 1_555
C80L C77L 1_555 1_555
C81L C80L 1_555 1_555
H41L C81L 1_555 1_555
C82L N8L 1_555 1_555
H42L C82L 1_555 1_555
C4 C5 1_555 1_555
C9 C10 1_555 1_555
C12 C13 1_555 1_555
C19 C20 1_555 1_555
C26 C27 1_555 1_555
C31 C32 1_555 1_555
C33 C34 1_555 1_555
C34 C35 1_555 1_555
C39 C40 1_555 1_555
C44 C45 1_555 1_555
C47 C48 1_555 1_555
C52 C53 1_555 1_555
C54 C55 1_555 1_555
C59 C60 1_555 1_555
C61 C62 1_555 1_555
C66 C67 1_555 1_555
C71 C72 1_555 1_555
C74 C75 1_555 1_555
C79 C80 1_555 1_555
C81 C82 1_555 1_555
C4A C5A 1_555 1_555
C9A C10A 1_555 1_555
C12A C13A 1_555 1_555
C19A C20A 1_555 1_555
C26A C27A 1_555 1_555
C31A C32A 1_555 1_555
C33A C34A 1_555 1_555
C34A C35A 1_555 1_555
C39A C40A 1_555 1_555
C44A C45A 1_555 1_555
C47A C48A 1_555 1_555
C52A C53A 1_555 1_555
C54A C55A 1_555 1_555
N6A Pd2N 1_555 1_555
C59A C60A 1_555 1_555
C61A C62A 1_555 1_555
C66A C67A 1_555 1_555
C71A C72A 1_555 1_555
C74A C75A 1_555 1_555
C79A C80A 1_555 1_555
C81A C82A 1_555 1_555
C4B C5B 1_555 1_555
C9B C10B 1_555 1_555
C12B C13B 1_555 1_555
C19B C20B 1_555 1_555
C26B C27B 1_555 1_555
C31B C32B 1_555 1_555
C33B C34B 1_555 1_555
C34B C35B 1_555 1_555
C39B C40B 1_555 1_555
C44B C45B 1_555 1_555
C47B C48B 1_555 1_555
C52B C53B 1_555 1_555
C54B C55B 1_555 1_555
N6B Pd2L 1_555 1_555
C59B C60B 1_555 1_555
C61B C62B 1_555 1_555
C66B C67B 1_555 1_555
C71B C72B 1_555 1_555
C74B C75B 1_555 1_555
N8B Pd2M 1_555 1_555
C79B C80B 1_555 1_555
C81B C82B 1_555 1_555
C4M C5M 1_555 1_555
C9M C10M 1_555 1_555
C12M C13M 1_555 1_555
C19M C20M 1_555 1_555
C26M C27M 1_555 1_555
C31M C32M 1_555 1_555
C33M C34M 1_555 1_555
C34M C35M 1_555 1_555
C39M C40M 1_555 1_555
C44M C45M 1_555 1_555
C47M C48M 1_555 1_555
N5M Pd2M 1_555 1_555
C52M C53M 1_555 1_555
C54M C55M 1_555 1_555
C59M C60M 1_555 1_555
C61M C62M 1_555 1_555
C66M C67M 1_555 1_555
C71M C72M 1_555 1_555
C74M C75M 1_555 1_555
C79M C80M 1_555 1_555
C81M C82M 1_555 1_555
C4N C5N 1_555 1_555
C9N C10N 1_555 1_555
C12N C13N 1_555 1_555
C19N C20N 1_555 1_555
C26N C27N 1_555 1_555
C31N C32N 1_555 1_555
C33N C34N 1_555 1_555
C34N C35N 1_555 1_555
C39N C40N 1_555 1_555
C44N C45N 1_555 1_555
C47N C48N 1_555 1_555
N5N Pd2N 1_555 1_555
C52N C53N 1_555 1_555
C54N C55N 1_555 1_555
C59N C60N 1_555 1_555
C61N C62N 1_555 1_555
C66N C67N 1_555 1_555
C71N C72N 1_555 1_555
C74N C75N 1_555 1_555
C79N C80N 1_555 1_555
C81N C82N 1_555 1_555
C4L C5L 1_555 1_555
C9L C10L 1_555 1_555
C12L C13L 1_555 1_555
C19L C20L 1_555 1_555
C26L C27L 1_555 1_555
C31L C32L 1_555 1_555
C33L C34L 1_555 1_555
C34L C35L 1_555 1_555
C39L C40L 1_555 1_555
C44L C45L 1_555 1_555
C47L C48L 1_555 1_555
N5L Pd2L 1_555 1_555
C52L C53L 1_555 1_555
C54L C55L 1_555 1_555
C59L C60L 1_555 1_555
C61L C62L 1_555 1_555
C66L C67L 1_555 1_555
C71L C72L 1_555 1_555
C74L C75L 1_555 1_555
C79L C80L 1_555 1_555
C81L C82L 1_555 1_555

#END
