# generated using pymatgen
data_B14H408Pd12C588N48F41
_symmetry_space_group_name_H-M   'P 1'
_cell_length_a   51.30800000
_cell_length_b   55.94300000
_cell_length_c   62.13500000
_cell_angle_alpha   90.00000000
_cell_angle_beta   90.00000000
_cell_angle_gamma   90.00000000
_symmetry_Int_Tables_number   1
_chemical_formula_structural   B14H408Pd12C588N48F41
_chemical_formula_sum   'B56 H1632 Pd48 C2352 N192 F164'
_cell_volume   178347.54719294
_cell_formula_units_Z   4
loop_
 _symmetry_equiv_pos_site_id
 _symmetry_equiv_pos_as_xyz
  1  'x, y, z'
loop_
 _atom_site_type_symbol
 _atom_site_label
 _atom_site_symmetry_multiplicity
 _atom_site_fract_x
 _atom_site_fract_y
 _atom_site_fract_z
 _atom_site_occupancy
  B  B1  1  0.445300  0.926700  0.276300  1.0
  B  B2  1  0.945300  0.073300  0.723700  1.0
  B  B3  1  0.054700  0.073300  0.776300  1.0
  B  B4  1  0.554700  0.926700  0.223700  1.0
  B  B5  1  0.554700  0.073300  0.723700  1.0
  B  B6  1  0.054700  0.926700  0.276300  1.0
  B  B7  1  0.945300  0.926700  0.223700  1.0
  B  B8  1  0.445300  0.073300  0.776300  1.0
  B  B9  1  0.250000  0.651500  0.786700  1.0
  B  B10  1  0.750000  0.348500  0.213300  1.0
  B  B11  1  0.250000  0.348500  0.286700  1.0
  B  B12  1  0.750000  0.651500  0.713300  1.0
  B  B13  1  0.250000  0.624300  0.931800  1.0
  B  B14  1  0.750000  0.375700  0.068200  1.0
  B  B15  1  0.250000  0.375700  0.431800  1.0
  B  B16  1  0.750000  0.624300  0.568200  1.0
  B  B17  1  0.418000  0.421800  0.755400  1.0
  B  B18  1  0.918000  0.578200  0.244600  1.0
  B  B19  1  0.082000  0.578200  0.255400  1.0
  B  B20  1  0.582000  0.421800  0.744600  1.0
  B  B21  1  0.582000  0.578200  0.244600  1.0
  B  B22  1  0.082000  0.421800  0.755400  1.0
  B  B23  1  0.918000  0.421800  0.744600  1.0
  B  B24  1  0.418000  0.578200  0.255400  1.0
  B  B25  1  0.344600  0.559900  0.700700  1.0
  B  B26  1  0.844600  0.440100  0.299300  1.0
  B  B27  1  0.155400  0.440100  0.200700  1.0
  B  B28  1  0.655400  0.559900  0.799300  1.0
  B  B29  1  0.655400  0.440100  0.299300  1.0
  B  B30  1  0.155400  0.559900  0.700700  1.0
  B  B31  1  0.844600  0.559900  0.799300  1.0
  B  B32  1  0.344600  0.440100  0.200700  1.0
  B  B33  1  0.530000  0.883400  0.292600  1.0
  B  B34  1  0.030000  0.116600  0.707400  1.0
  B  B35  1  0.970000  0.116600  0.792600  1.0
  B  B36  1  0.470000  0.883400  0.207400  1.0
  B  B37  1  0.470000  0.116600  0.707400  1.0
  B  B38  1  0.970000  0.883400  0.292600  1.0
  B  B39  1  0.030000  0.883400  0.207400  1.0
  B  B40  1  0.530000  0.116600  0.792600  1.0
  B  B41  1  0.465600  0.420300  0.683000  1.0
  B  B42  1  0.965600  0.579700  0.317000  1.0
  B  B43  1  0.034400  0.579700  0.183000  1.0
  B  B44  1  0.534400  0.420300  0.817000  1.0
  B  B45  1  0.534400  0.579700  0.317000  1.0
  B  B46  1  0.034400  0.420300  0.683000  1.0
  B  B47  1  0.965600  0.420300  0.817000  1.0
  B  B48  1  0.465600  0.579700  0.183000  1.0
  B  B49  1  0.437400  0.657000  0.426200  1.0
  B  B50  1  0.937400  0.343000  0.573800  1.0
  B  B51  1  0.062600  0.343000  0.926200  1.0
  B  B52  1  0.562600  0.657000  0.073800  1.0
  B  B53  1  0.562600  0.343000  0.573800  1.0
  B  B54  1  0.062600  0.657000  0.426200  1.0
  B  B55  1  0.937400  0.657000  0.073800  1.0
  B  B56  1  0.437400  0.343000  0.926200  1.0
  H  H57  1  0.278900  0.616200  0.826200  1.0
  H  H58  1  0.778900  0.383800  0.173800  1.0
  H  H59  1  0.221100  0.383800  0.326200  1.0
  H  H60  1  0.721100  0.616200  0.673800  1.0
  H  H61  1  0.721100  0.383800  0.173800  1.0
  H  H62  1  0.221100  0.616200  0.826200  1.0
  H  H63  1  0.778900  0.616200  0.673800  1.0
  H  H64  1  0.278900  0.383800  0.326200  1.0
  H  H65  1  0.312200  0.588400  0.822600  1.0
  H  H66  1  0.812200  0.411600  0.177400  1.0
  H  H67  1  0.187800  0.411600  0.322600  1.0
  H  H68  1  0.687800  0.588400  0.677400  1.0
  H  H69  1  0.687800  0.411600  0.177400  1.0
  H  H70  1  0.187800  0.588400  0.822600  1.0
  H  H71  1  0.812200  0.588400  0.677400  1.0
  H  H72  1  0.312200  0.411600  0.322600  1.0
  H  H73  1  0.318600  0.584500  0.887000  1.0
  H  H74  1  0.818600  0.415500  0.113000  1.0
  H  H75  1  0.181400  0.415500  0.387000  1.0
  H  H76  1  0.681400  0.584500  0.613000  1.0
  H  H77  1  0.681400  0.415500  0.113000  1.0
  H  H78  1  0.181400  0.584500  0.887000  1.0
  H  H79  1  0.818600  0.584500  0.613000  1.0
  H  H80  1  0.318600  0.415500  0.387000  1.0
  H  H81  1  0.285200  0.612200  0.890600  1.0
  H  H82  1  0.785200  0.387800  0.109400  1.0
  H  H83  1  0.214800  0.387800  0.390600  1.0
  H  H84  1  0.714800  0.612200  0.609400  1.0
  H  H85  1  0.714800  0.387800  0.109400  1.0
  H  H86  1  0.214800  0.612200  0.890600  1.0
  H  H87  1  0.785200  0.612200  0.609400  1.0
  H  H88  1  0.285200  0.387800  0.390600  1.0
  H  H89  1  0.353500  0.569900  0.874200  1.0
  H  H90  1  0.853500  0.430100  0.125800  1.0
  H  H91  1  0.146500  0.430100  0.374200  1.0
  H  H92  1  0.646500  0.569900  0.625800  1.0
  H  H93  1  0.646500  0.430100  0.125800  1.0
  H  H94  1  0.146500  0.569900  0.874200  1.0
  H  H95  1  0.853500  0.569900  0.625800  1.0
  H  H96  1  0.353500  0.430100  0.374200  1.0
  H  H97  1  0.332100  0.560900  0.814900  1.0
  H  H98  1  0.832100  0.439100  0.185100  1.0
  H  H99  1  0.167900  0.439100  0.314900  1.0
  H  H100  1  0.667900  0.560900  0.685100  1.0
  H  H101  1  0.667900  0.439100  0.185100  1.0
  H  H102  1  0.167900  0.560900  0.814900  1.0
  H  H103  1  0.832100  0.560900  0.685100  1.0
  H  H104  1  0.332100  0.439100  0.314900  1.0
  H  H105  1  0.397100  0.527600  0.837400  1.0
  H  H106  1  0.897100  0.472400  0.162600  1.0
  H  H107  1  0.102900  0.472400  0.337400  1.0
  H  H108  1  0.602900  0.527600  0.662600  1.0
  H  H109  1  0.602900  0.472400  0.162600  1.0
  H  H110  1  0.102900  0.527600  0.837400  1.0
  H  H111  1  0.897100  0.527600  0.662600  1.0
  H  H112  1  0.397100  0.472400  0.337400  1.0
  H  H113  1  0.389400  0.547100  0.869700  1.0
  H  H114  1  0.889400  0.452900  0.130300  1.0
  H  H115  1  0.110600  0.452900  0.369700  1.0
  H  H116  1  0.610600  0.547100  0.630300  1.0
  H  H117  1  0.610600  0.452900  0.130300  1.0
  H  H118  1  0.110600  0.547100  0.869700  1.0
  H  H119  1  0.889400  0.547100  0.630300  1.0
  H  H120  1  0.389400  0.452900  0.369700  1.0
  H  H121  1  0.273100  0.669600  0.898500  1.0
  H  H122  1  0.773100  0.330400  0.101500  1.0
  H  H123  1  0.226900  0.330400  0.398500  1.0
  H  H124  1  0.726900  0.669600  0.601500  1.0
  H  H125  1  0.726900  0.330400  0.101500  1.0
  H  H126  1  0.226900  0.669600  0.898500  1.0
  H  H127  1  0.773100  0.669600  0.601500  1.0
  H  H128  1  0.273100  0.330400  0.398500  1.0
  H  H129  1  0.302200  0.701000  0.902400  1.0
  H  H130  1  0.802200  0.299000  0.097600  1.0
  H  H131  1  0.197800  0.299000  0.402400  1.0
  H  H132  1  0.697800  0.701000  0.597600  1.0
  H  H133  1  0.697800  0.299000  0.097600  1.0
  H  H134  1  0.197800  0.701000  0.902400  1.0
  H  H135  1  0.802200  0.701000  0.597600  1.0
  H  H136  1  0.302200  0.299000  0.402400  1.0
  H  H137  1  0.316000  0.700100  0.838800  1.0
  H  H138  1  0.816000  0.299900  0.161200  1.0
  H  H139  1  0.184000  0.299900  0.338800  1.0
  H  H140  1  0.684000  0.700100  0.661200  1.0
  H  H141  1  0.684000  0.299900  0.161200  1.0
  H  H142  1  0.184000  0.700100  0.838800  1.0
  H  H143  1  0.816000  0.700100  0.661200  1.0
  H  H144  1  0.316000  0.299900  0.338800  1.0
  H  H145  1  0.286900  0.668700  0.834900  1.0
  H  H146  1  0.786900  0.331300  0.165100  1.0
  H  H147  1  0.213100  0.331300  0.334900  1.0
  H  H148  1  0.713100  0.668700  0.665100  1.0
  H  H149  1  0.713100  0.331300  0.165100  1.0
  H  H150  1  0.213100  0.668700  0.834900  1.0
  H  H151  1  0.786900  0.668700  0.665100  1.0
  H  H152  1  0.286900  0.331300  0.334900  1.0
  H  H153  1  0.324200  0.733100  0.903900  1.0
  H  H154  1  0.824200  0.266900  0.096100  1.0
  H  H155  1  0.175800  0.266900  0.403900  1.0
  H  H156  1  0.675800  0.733100  0.596100  1.0
  H  H157  1  0.675800  0.266900  0.096100  1.0
  H  H158  1  0.175800  0.733100  0.903900  1.0
  H  H159  1  0.824200  0.733100  0.596100  1.0
  H  H160  1  0.324200  0.266900  0.403900  1.0
  H  H161  1  0.354900  0.763500  0.905900  1.0
  H  H162  1  0.854900  0.236500  0.094100  1.0
  H  H163  1  0.145100  0.236500  0.405900  1.0
  H  H164  1  0.645100  0.763500  0.594100  1.0
  H  H165  1  0.645100  0.236500  0.094100  1.0
  H  H166  1  0.145100  0.763500  0.905900  1.0
  H  H167  1  0.854900  0.763500  0.594100  1.0
  H  H168  1  0.354900  0.236500  0.405900  1.0
  H  H169  1  0.374200  0.752200  0.844000  1.0
  H  H170  1  0.874200  0.247800  0.156000  1.0
  H  H171  1  0.125800  0.247800  0.344000  1.0
  H  H172  1  0.625800  0.752200  0.656000  1.0
  H  H173  1  0.625800  0.247800  0.156000  1.0
  H  H174  1  0.125800  0.752200  0.844000  1.0
  H  H175  1  0.874200  0.752200  0.656000  1.0
  H  H176  1  0.374200  0.247800  0.344000  1.0
  H  H177  1  0.343500  0.721800  0.842000  1.0
  H  H178  1  0.843500  0.278200  0.158000  1.0
  H  H179  1  0.156500  0.278200  0.342000  1.0
  H  H180  1  0.656500  0.721800  0.658000  1.0
  H  H181  1  0.656500  0.278200  0.158000  1.0
  H  H182  1  0.156500  0.721800  0.842000  1.0
  H  H183  1  0.843500  0.721800  0.658000  1.0
  H  H184  1  0.343500  0.278200  0.342000  1.0
  H  H185  1  0.460200  0.871000  0.869800  1.0
  H  H186  1  0.960200  0.129000  0.130200  1.0
  H  H187  1  0.039800  0.129000  0.369800  1.0
  H  H188  1  0.539800  0.871000  0.630200  1.0
  H  H189  1  0.539800  0.129000  0.130200  1.0
  H  H190  1  0.039800  0.871000  0.869800  1.0
  H  H191  1  0.960200  0.871000  0.630200  1.0
  H  H192  1  0.460200  0.129000  0.369800  1.0
  H  H193  1  0.469600  0.840000  0.893400  1.0
  H  H194  1  0.969600  0.160000  0.106600  1.0
  H  H195  1  0.030400  0.160000  0.393400  1.0
  H  H196  1  0.530400  0.840000  0.606600  1.0
  H  H197  1  0.530400  0.160000  0.106600  1.0
  H  H198  1  0.030400  0.840000  0.893400  1.0
  H  H199  1  0.969600  0.840000  0.606600  1.0
  H  H200  1  0.469600  0.160000  0.393400  1.0
  H  H201  1  0.441800  0.807500  0.896000  1.0
  H  H202  1  0.941800  0.192500  0.104000  1.0
  H  H203  1  0.058200  0.192500  0.396000  1.0
  H  H204  1  0.558200  0.807500  0.604000  1.0
  H  H205  1  0.558200  0.192500  0.104000  1.0
  H  H206  1  0.058200  0.807500  0.896000  1.0
  H  H207  1  0.941800  0.807500  0.604000  1.0
  H  H208  1  0.441800  0.192500  0.396000  1.0
  H  H209  1  0.387200  0.848300  0.834900  1.0
  H  H210  1  0.887200  0.151700  0.165100  1.0
  H  H211  1  0.112800  0.151700  0.334900  1.0
  H  H212  1  0.612800  0.848300  0.665100  1.0
  H  H213  1  0.612800  0.151700  0.165100  1.0
  H  H214  1  0.112800  0.848300  0.834900  1.0
  H  H215  1  0.887200  0.848300  0.665100  1.0
  H  H216  1  0.387200  0.151700  0.334900  1.0
  H  H217  1  0.371000  0.839400  0.854800  1.0
  H  H218  1  0.871000  0.160600  0.145200  1.0
  H  H219  1  0.129000  0.160600  0.354800  1.0
  H  H220  1  0.629000  0.839400  0.645200  1.0
  H  H221  1  0.629000  0.160600  0.145200  1.0
  H  H222  1  0.129000  0.839400  0.854800  1.0
  H  H223  1  0.871000  0.839400  0.645200  1.0
  H  H224  1  0.371000  0.160600  0.354800  1.0
  H  H225  1  0.384600  0.820900  0.839600  1.0
  H  H226  1  0.884600  0.179100  0.160400  1.0
  H  H227  1  0.115400  0.179100  0.339600  1.0
  H  H228  1  0.615400  0.820900  0.660400  1.0
  H  H229  1  0.615400  0.179100  0.160400  1.0
  H  H230  1  0.115400  0.820900  0.839600  1.0
  H  H231  1  0.884600  0.820900  0.660400  1.0
  H  H232  1  0.384600  0.179100  0.339600  1.0
  H  H233  1  0.405300  0.493000  0.775900  1.0
  H  H234  1  0.905300  0.507000  0.224100  1.0
  H  H235  1  0.094700  0.507000  0.275900  1.0
  H  H236  1  0.594700  0.493000  0.724100  1.0
  H  H237  1  0.594700  0.507000  0.224100  1.0
  H  H238  1  0.094700  0.493000  0.775900  1.0
  H  H239  1  0.905300  0.493000  0.724100  1.0
  H  H240  1  0.405300  0.507000  0.275900  1.0
  H  H241  1  0.397700  0.507800  0.810300  1.0
  H  H242  1  0.897700  0.492200  0.189700  1.0
  H  H243  1  0.102300  0.492200  0.310300  1.0
  H  H244  1  0.602300  0.507800  0.689700  1.0
  H  H245  1  0.602300  0.492200  0.189700  1.0
  H  H246  1  0.102300  0.507800  0.810300  1.0
  H  H247  1  0.897700  0.507800  0.689700  1.0
  H  H248  1  0.397700  0.492200  0.310300  1.0
  H  H249  1  0.335800  0.544400  0.788200  1.0
  H  H250  1  0.835800  0.455600  0.211800  1.0
  H  H251  1  0.164200  0.455600  0.288200  1.0
  H  H252  1  0.664200  0.544400  0.711800  1.0
  H  H253  1  0.664200  0.455600  0.211800  1.0
  H  H254  1  0.164200  0.544400  0.788200  1.0
  H  H255  1  0.835800  0.544400  0.711800  1.0
  H  H256  1  0.335800  0.455600  0.288200  1.0
  H  H257  1  0.343400  0.529600  0.753800  1.0
  H  H258  1  0.843400  0.470400  0.246200  1.0
  H  H259  1  0.156600  0.470400  0.253800  1.0
  H  H260  1  0.656600  0.529600  0.746200  1.0
  H  H261  1  0.656600  0.470400  0.246200  1.0
  H  H262  1  0.156600  0.529600  0.753800  1.0
  H  H263  1  0.843400  0.529600  0.746200  1.0
  H  H264  1  0.343400  0.470400  0.253800  1.0
  H  H265  1  0.401800  0.544500  0.729800  1.0
  H  H266  1  0.901800  0.455500  0.270200  1.0
  H  H267  1  0.098200  0.455500  0.229800  1.0
  H  H268  1  0.598200  0.544500  0.770200  1.0
  H  H269  1  0.598200  0.455500  0.270200  1.0
  H  H270  1  0.098200  0.544500  0.729800  1.0
  H  H271  1  0.901800  0.544500  0.770200  1.0
  H  H272  1  0.401800  0.455500  0.229800  1.0
  H  H273  1  0.441800  0.562500  0.723400  1.0
  H  H274  1  0.941800  0.437500  0.276600  1.0
  H  H275  1  0.058200  0.437500  0.223400  1.0
  H  H276  1  0.558200  0.562500  0.776600  1.0
  H  H277  1  0.558200  0.437500  0.276600  1.0
  H  H278  1  0.058200  0.562500  0.723400  1.0
  H  H279  1  0.941800  0.562500  0.776600  1.0
  H  H280  1  0.441800  0.437500  0.223400  1.0
  H  H281  1  0.477000  0.498500  0.727200  1.0
  H  H282  1  0.977000  0.501500  0.272800  1.0
  H  H283  1  0.023000  0.501500  0.227200  1.0
  H  H284  1  0.523000  0.498500  0.772800  1.0
  H  H285  1  0.523000  0.501500  0.272800  1.0
  H  H286  1  0.023000  0.498500  0.727200  1.0
  H  H287  1  0.977000  0.498500  0.772800  1.0
  H  H288  1  0.477000  0.501500  0.227200  1.0
  H  H289  1  0.437000  0.480400  0.733500  1.0
  H  H290  1  0.937000  0.519600  0.266500  1.0
  H  H291  1  0.063000  0.519600  0.233500  1.0
  H  H292  1  0.563000  0.480400  0.766500  1.0
  H  H293  1  0.563000  0.519600  0.266500  1.0
  H  H294  1  0.063000  0.480400  0.733500  1.0
  H  H295  1  0.937000  0.480400  0.766500  1.0
  H  H296  1  0.437000  0.519600  0.233500  1.0
  H  H297  1  0.509300  0.510400  0.717000  1.0
  H  H298  1  0.009300  0.489600  0.283000  1.0
  H  H299  1  0.990700  0.489600  0.217000  1.0
  H  H300  1  0.490700  0.510400  0.783000  1.0
  H  H301  1  0.490700  0.489600  0.283000  1.0
  H  H302  1  0.990700  0.510400  0.717000  1.0
  H  H303  1  0.009300  0.510400  0.783000  1.0
  H  H304  1  0.509300  0.489600  0.217000  1.0
  H  H305  1  0.550000  0.527100  0.710700  1.0
  H  H306  1  0.050000  0.472900  0.289300  1.0
  H  H307  1  0.950000  0.472900  0.210700  1.0
  H  H308  1  0.450000  0.527100  0.789300  1.0
  H  H309  1  0.450000  0.472900  0.289300  1.0
  H  H310  1  0.950000  0.527100  0.710700  1.0
  H  H311  1  0.050000  0.527100  0.789300  1.0
  H  H312  1  0.550000  0.472900  0.210700  1.0
  H  H313  1  0.519200  0.592800  0.717100  1.0
  H  H314  1  0.019200  0.407200  0.282900  1.0
  H  H315  1  0.980800  0.407200  0.217100  1.0
  H  H316  1  0.480800  0.592800  0.782900  1.0
  H  H317  1  0.480800  0.407200  0.282900  1.0
  H  H318  1  0.980800  0.592800  0.717100  1.0
  H  H319  1  0.019200  0.592800  0.782900  1.0
  H  H320  1  0.519200  0.407200  0.217100  1.0
  H  H321  1  0.478600  0.576100  0.723400  1.0
  H  H322  1  0.978600  0.423900  0.276600  1.0
  H  H323  1  0.021400  0.423900  0.223400  1.0
  H  H324  1  0.521400  0.576100  0.776600  1.0
  H  H325  1  0.521400  0.423900  0.276600  1.0
  H  H326  1  0.021400  0.576100  0.723400  1.0
  H  H327  1  0.978600  0.576100  0.776600  1.0
  H  H328  1  0.478600  0.423900  0.223400  1.0
  H  H329  1  0.624800  0.587700  0.730200  1.0
  H  H330  1  0.124800  0.412300  0.269800  1.0
  H  H331  1  0.875200  0.412300  0.230200  1.0
  H  H332  1  0.375200  0.587700  0.769800  1.0
  H  H333  1  0.375200  0.412300  0.269800  1.0
  H  H334  1  0.875200  0.587700  0.730200  1.0
  H  H335  1  0.124800  0.587700  0.769800  1.0
  H  H336  1  0.624800  0.412300  0.230200  1.0
  H  H337  1  0.661000  0.611200  0.723200  1.0
  H  H338  1  0.161000  0.388800  0.276800  1.0
  H  H339  1  0.839000  0.388800  0.223200  1.0
  H  H340  1  0.339000  0.611200  0.776800  1.0
  H  H341  1  0.339000  0.388800  0.276800  1.0
  H  H342  1  0.839000  0.611200  0.723200  1.0
  H  H343  1  0.161000  0.611200  0.776800  1.0
  H  H344  1  0.661000  0.388800  0.223200  1.0
  H  H345  1  0.663900  0.632300  0.691200  1.0
  H  H346  1  0.163900  0.367700  0.308800  1.0
  H  H347  1  0.836100  0.367700  0.191200  1.0
  H  H348  1  0.336100  0.632300  0.808800  1.0
  H  H349  1  0.336100  0.367700  0.308800  1.0
  H  H350  1  0.836100  0.632300  0.691200  1.0
  H  H351  1  0.163900  0.632300  0.808800  1.0
  H  H352  1  0.663900  0.367700  0.191200  1.0
  H  H353  1  0.584900  0.621200  0.660100  1.0
  H  H354  1  0.084900  0.378800  0.339900  1.0
  H  H355  1  0.915100  0.378800  0.160100  1.0
  H  H356  1  0.415100  0.621200  0.839900  1.0
  H  H357  1  0.415100  0.378800  0.339900  1.0
  H  H358  1  0.915100  0.621200  0.660100  1.0
  H  H359  1  0.084900  0.621200  0.839900  1.0
  H  H360  1  0.584900  0.378800  0.160100  1.0
  H  H361  1  0.570800  0.601500  0.673800  1.0
  H  H362  1  0.070800  0.398500  0.326200  1.0
  H  H363  1  0.929200  0.398500  0.173800  1.0
  H  H364  1  0.429200  0.601500  0.826200  1.0
  H  H365  1  0.429200  0.398500  0.326200  1.0
  H  H366  1  0.929200  0.601500  0.673800  1.0
  H  H367  1  0.070800  0.601500  0.826200  1.0
  H  H368  1  0.570800  0.398500  0.173800  1.0
  H  H369  1  0.591400  0.594100  0.656300  1.0
  H  H370  1  0.091400  0.405900  0.343700  1.0
  H  H371  1  0.908600  0.405900  0.156300  1.0
  H  H372  1  0.408600  0.594100  0.843700  1.0
  H  H373  1  0.408600  0.405900  0.343700  1.0
  H  H374  1  0.908600  0.594100  0.656300  1.0
  H  H375  1  0.091400  0.594100  0.843700  1.0
  H  H376  1  0.591400  0.405900  0.156300  1.0
  H  H377  1  0.392700  0.446300  0.709700  1.0
  H  H378  1  0.892700  0.553700  0.290300  1.0
  H  H379  1  0.107300  0.553700  0.209700  1.0
  H  H380  1  0.607300  0.446300  0.790300  1.0
  H  H381  1  0.607300  0.553700  0.290300  1.0
  H  H382  1  0.107300  0.446300  0.709700  1.0
  H  H383  1  0.892700  0.446300  0.790300  1.0
  H  H384  1  0.392700  0.553700  0.209700  1.0
  H  H385  1  0.406100  0.436000  0.675200  1.0
  H  H386  1  0.906100  0.564000  0.324800  1.0
  H  H387  1  0.093900  0.564000  0.175200  1.0
  H  H388  1  0.593900  0.436000  0.824800  1.0
  H  H389  1  0.593900  0.564000  0.324800  1.0
  H  H390  1  0.093900  0.436000  0.675200  1.0
  H  H391  1  0.906100  0.436000  0.824800  1.0
  H  H392  1  0.406100  0.564000  0.175200  1.0
  H  H393  1  0.389900  0.502500  0.654800  1.0
  H  H394  1  0.889900  0.497500  0.345200  1.0
  H  H395  1  0.110100  0.497500  0.154800  1.0
  H  H396  1  0.610100  0.502500  0.845200  1.0
  H  H397  1  0.610100  0.497500  0.345200  1.0
  H  H398  1  0.110100  0.502500  0.654800  1.0
  H  H399  1  0.889900  0.502500  0.845200  1.0
  H  H400  1  0.389900  0.497500  0.154800  1.0
  H  H401  1  0.376600  0.512900  0.689200  1.0
  H  H402  1  0.876600  0.487100  0.310800  1.0
  H  H403  1  0.123400  0.487100  0.189200  1.0
  H  H404  1  0.623400  0.512900  0.810800  1.0
  H  H405  1  0.623400  0.487100  0.310800  1.0
  H  H406  1  0.123400  0.512900  0.689200  1.0
  H  H407  1  0.876600  0.512900  0.810800  1.0
  H  H408  1  0.376600  0.487100  0.189200  1.0
  H  H409  1  0.413700  0.423600  0.644900  1.0
  H  H410  1  0.913700  0.576400  0.355100  1.0
  H  H411  1  0.086300  0.576400  0.144900  1.0
  H  H412  1  0.586300  0.423600  0.855100  1.0
  H  H413  1  0.586300  0.576400  0.355100  1.0
  H  H414  1  0.086300  0.423600  0.644900  1.0
  H  H415  1  0.913700  0.423600  0.855100  1.0
  H  H416  1  0.413700  0.576400  0.144900  1.0
  H  H417  1  0.427600  0.413100  0.610600  1.0
  H  H418  1  0.927600  0.586900  0.389400  1.0
  H  H419  1  0.072400  0.586900  0.110600  1.0
  H  H420  1  0.572400  0.413100  0.889400  1.0
  H  H421  1  0.572400  0.586900  0.389400  1.0
  H  H422  1  0.072400  0.413100  0.610600  1.0
  H  H423  1  0.927600  0.413100  0.889400  1.0
  H  H424  1  0.427600  0.586900  0.110600  1.0
  H  H425  1  0.421900  0.481700  0.592000  1.0
  H  H426  1  0.921900  0.518300  0.408000  1.0
  H  H427  1  0.078100  0.518300  0.092000  1.0
  H  H428  1  0.578100  0.481700  0.908000  1.0
  H  H429  1  0.578100  0.518300  0.408000  1.0
  H  H430  1  0.078100  0.481700  0.592000  1.0
  H  H431  1  0.921900  0.481700  0.908000  1.0
  H  H432  1  0.421900  0.518300  0.092000  1.0
  H  H433  1  0.408000  0.492200  0.626300  1.0
  H  H434  1  0.908000  0.507800  0.373700  1.0
  H  H435  1  0.092000  0.507800  0.126300  1.0
  H  H436  1  0.592000  0.492200  0.873700  1.0
  H  H437  1  0.592000  0.507800  0.373700  1.0
  H  H438  1  0.092000  0.492200  0.626300  1.0
  H  H439  1  0.908000  0.492200  0.873700  1.0
  H  H440  1  0.408000  0.507800  0.126300  1.0
  H  H441  1  0.471000  0.396500  0.551900  1.0
  H  H442  1  0.971000  0.603500  0.448100  1.0
  H  H443  1  0.029000  0.603500  0.051900  1.0
  H  H444  1  0.529000  0.396500  0.948100  1.0
  H  H445  1  0.529000  0.603500  0.448100  1.0
  H  H446  1  0.029000  0.396500  0.551900  1.0
  H  H447  1  0.971000  0.396500  0.948100  1.0
  H  H448  1  0.471000  0.603500  0.051900  1.0
  H  H449  1  0.494500  0.387800  0.521000  1.0
  H  H450  1  0.994500  0.612200  0.479000  1.0
  H  H451  1  0.005500  0.612200  0.021000  1.0
  H  H452  1  0.505500  0.387800  0.979000  1.0
  H  H453  1  0.505500  0.612200  0.479000  1.0
  H  H454  1  0.005500  0.387800  0.521000  1.0
  H  H455  1  0.994500  0.387800  0.979000  1.0
  H  H456  1  0.494500  0.612200  0.021000  1.0
  H  H457  1  0.498200  0.416100  0.493900  1.0
  H  H458  1  0.998200  0.583900  0.506100  1.0
  H  H459  1  0.001800  0.583900  0.993900  1.0
  H  H460  1  0.501800  0.416100  0.006100  1.0
  H  H461  1  0.501800  0.583900  0.506100  1.0
  H  H462  1  0.001800  0.416100  0.493900  1.0
  H  H463  1  0.998200  0.416100  0.006100  1.0
  H  H464  1  0.498200  0.583900  0.993900  1.0
  H  H465  1  0.456800  0.477900  0.542700  1.0
  H  H466  1  0.956800  0.522100  0.457300  1.0
  H  H467  1  0.043200  0.522100  0.042700  1.0
  H  H468  1  0.543200  0.477900  0.957300  1.0
  H  H469  1  0.543200  0.522100  0.457300  1.0
  H  H470  1  0.043200  0.477900  0.542700  1.0
  H  H471  1  0.956800  0.477900  0.957300  1.0
  H  H472  1  0.456800  0.522100  0.042700  1.0
  H  H473  1  0.431900  0.468700  0.530600  1.0
  H  H474  1  0.931900  0.531300  0.469400  1.0
  H  H475  1  0.068100  0.531300  0.030600  1.0
  H  H476  1  0.568100  0.468700  0.969400  1.0
  H  H477  1  0.568100  0.531300  0.469400  1.0
  H  H478  1  0.068100  0.468700  0.530600  1.0
  H  H479  1  0.931900  0.468700  0.969400  1.0
  H  H480  1  0.431900  0.531300  0.030600  1.0
  H  H481  1  0.454700  0.480500  0.517600  1.0
  H  H482  1  0.954700  0.519500  0.482400  1.0
  H  H483  1  0.045300  0.519500  0.017600  1.0
  H  H484  1  0.545300  0.480500  0.982400  1.0
  H  H485  1  0.545300  0.519500  0.482400  1.0
  H  H486  1  0.045300  0.480500  0.517600  1.0
  H  H487  1  0.954700  0.480500  0.982400  1.0
  H  H488  1  0.454700  0.519500  0.017600  1.0
  H  H489  1  0.359300  0.450300  0.751300  1.0
  H  H490  1  0.859300  0.549700  0.248700  1.0
  H  H491  1  0.140700  0.549700  0.251300  1.0
  H  H492  1  0.640700  0.450300  0.748700  1.0
  H  H493  1  0.640700  0.549700  0.248700  1.0
  H  H494  1  0.140700  0.450300  0.751300  1.0
  H  H495  1  0.859300  0.450300  0.748700  1.0
  H  H496  1  0.359300  0.549700  0.251300  1.0
  H  H497  1  0.319800  0.430600  0.754800  1.0
  H  H498  1  0.819800  0.569400  0.245200  1.0
  H  H499  1  0.180200  0.569400  0.254800  1.0
  H  H500  1  0.680200  0.430600  0.745200  1.0
  H  H501  1  0.680200  0.569400  0.245200  1.0
  H  H502  1  0.180200  0.430600  0.754800  1.0
  H  H503  1  0.819800  0.430600  0.745200  1.0
  H  H504  1  0.319800  0.569400  0.254800  1.0
  H  H505  1  0.284700  0.482200  0.720400  1.0
  H  H506  1  0.784700  0.517800  0.279600  1.0
  H  H507  1  0.215300  0.517800  0.220400  1.0
  H  H508  1  0.715300  0.482200  0.779600  1.0
  H  H509  1  0.715300  0.517800  0.279600  1.0
  H  H510  1  0.215300  0.482200  0.720400  1.0
  H  H511  1  0.784700  0.482200  0.779600  1.0
  H  H512  1  0.284700  0.517800  0.220400  1.0
  H  H513  1  0.324300  0.501900  0.716900  1.0
  H  H514  1  0.824300  0.498100  0.283100  1.0
  H  H515  1  0.175700  0.498100  0.216900  1.0
  H  H516  1  0.675700  0.501900  0.783100  1.0
  H  H517  1  0.675700  0.498100  0.283100  1.0
  H  H518  1  0.175700  0.501900  0.716900  1.0
  H  H519  1  0.824300  0.501900  0.783100  1.0
  H  H520  1  0.324300  0.498100  0.216900  1.0
  H  H521  1  0.288700  0.409200  0.744700  1.0
  H  H522  1  0.788700  0.590800  0.255300  1.0
  H  H523  1  0.211300  0.590800  0.244700  1.0
  H  H524  1  0.711300  0.409200  0.755300  1.0
  H  H525  1  0.711300  0.590800  0.255300  1.0
  H  H526  1  0.211300  0.409200  0.744700  1.0
  H  H527  1  0.788700  0.409200  0.755300  1.0
  H  H528  1  0.288700  0.590800  0.244700  1.0
  H  H529  1  0.250000  0.386800  0.748200  1.0
  H  H530  1  0.750000  0.613200  0.251800  1.0
  H  H531  1  0.250000  0.613200  0.248200  1.0
  H  H532  1  0.750000  0.386800  0.751800  1.0
  H  H533  1  0.250000  0.468600  0.734700  1.0
  H  H534  1  0.750000  0.531400  0.265300  1.0
  H  H535  1  0.250000  0.531400  0.234700  1.0
  H  H536  1  0.750000  0.468600  0.765300  1.0
  H  H537  1  0.545600  0.616500  0.359400  1.0
  H  H538  1  0.045600  0.383500  0.640600  1.0
  H  H539  1  0.954400  0.383500  0.859400  1.0
  H  H540  1  0.454400  0.616500  0.140600  1.0
  H  H541  1  0.454400  0.383500  0.640600  1.0
  H  H542  1  0.954400  0.616500  0.359400  1.0
  H  H543  1  0.045600  0.616500  0.140600  1.0
  H  H544  1  0.545600  0.383500  0.859400  1.0
  H  H545  1  0.583300  0.632900  0.374000  1.0
  H  H546  1  0.083300  0.367100  0.626000  1.0
  H  H547  1  0.916700  0.367100  0.874000  1.0
  H  H548  1  0.416700  0.632900  0.126000  1.0
  H  H549  1  0.416700  0.367100  0.626000  1.0
  H  H550  1  0.916700  0.632900  0.374000  1.0
  H  H551  1  0.083300  0.632900  0.126000  1.0
  H  H552  1  0.583300  0.367100  0.874000  1.0
  H  H553  1  0.542600  0.655500  0.425300  1.0
  H  H554  1  0.042600  0.344500  0.574700  1.0
  H  H555  1  0.957400  0.344500  0.925300  1.0
  H  H556  1  0.457400  0.655500  0.074700  1.0
  H  H557  1  0.457400  0.344500  0.574700  1.0
  H  H558  1  0.957400  0.655500  0.425300  1.0
  H  H559  1  0.042600  0.655500  0.074700  1.0
  H  H560  1  0.542600  0.344500  0.925300  1.0
  H  H561  1  0.504900  0.639100  0.410800  1.0
  H  H562  1  0.004900  0.360900  0.589200  1.0
  H  H563  1  0.995100  0.360900  0.910800  1.0
  H  H564  1  0.495100  0.639100  0.089200  1.0
  H  H565  1  0.495100  0.360900  0.589200  1.0
  H  H566  1  0.995100  0.639100  0.410800  1.0
  H  H567  1  0.004900  0.639100  0.089200  1.0
  H  H568  1  0.504900  0.360900  0.910800  1.0
  H  H569  1  0.605200  0.623200  0.398600  1.0
  H  H570  1  0.105200  0.376800  0.601400  1.0
  H  H571  1  0.894800  0.376800  0.898600  1.0
  H  H572  1  0.394800  0.623200  0.101400  1.0
  H  H573  1  0.394800  0.376800  0.601400  1.0
  H  H574  1  0.894800  0.623200  0.398600  1.0
  H  H575  1  0.105200  0.623200  0.101400  1.0
  H  H576  1  0.605200  0.376800  0.898600  1.0
  H  H577  1  0.582500  0.686500  0.422700  1.0
  H  H578  1  0.082500  0.313500  0.577300  1.0
  H  H579  1  0.917500  0.313500  0.922700  1.0
  H  H580  1  0.417500  0.686500  0.077300  1.0
  H  H581  1  0.417500  0.313500  0.577300  1.0
  H  H582  1  0.917500  0.686500  0.422700  1.0
  H  H583  1  0.082500  0.686500  0.077300  1.0
  H  H584  1  0.582500  0.313500  0.922700  1.0
  H  H585  1  0.652800  0.659800  0.438000  1.0
  H  H586  1  0.152800  0.340200  0.562000  1.0
  H  H587  1  0.847200  0.340200  0.938000  1.0
  H  H588  1  0.347200  0.659800  0.062000  1.0
  H  H589  1  0.347200  0.340200  0.562000  1.0
  H  H590  1  0.847200  0.659800  0.438000  1.0
  H  H591  1  0.152800  0.659800  0.062000  1.0
  H  H592  1  0.652800  0.340200  0.938000  1.0
  H  H593  1  0.644500  0.626500  0.416800  1.0
  H  H594  1  0.144500  0.373500  0.583200  1.0
  H  H595  1  0.855500  0.373500  0.916800  1.0
  H  H596  1  0.355500  0.626500  0.083200  1.0
  H  H597  1  0.355500  0.373500  0.583200  1.0
  H  H598  1  0.855500  0.626500  0.416800  1.0
  H  H599  1  0.144500  0.626500  0.083200  1.0
  H  H600  1  0.644500  0.373500  0.916800  1.0
  H  H601  1  0.500700  0.629900  0.325600  1.0
  H  H602  1  0.000700  0.370100  0.674400  1.0
  H  H603  1  0.999300  0.370100  0.825600  1.0
  H  H604  1  0.499300  0.629900  0.174400  1.0
  H  H605  1  0.499300  0.370100  0.674400  1.0
  H  H606  1  0.999300  0.629900  0.325600  1.0
  H  H607  1  0.000700  0.629900  0.174400  1.0
  H  H608  1  0.500700  0.370100  0.825600  1.0
  H  H609  1  0.517100  0.661100  0.301900  1.0
  H  H610  1  0.017100  0.338900  0.698100  1.0
  H  H611  1  0.982900  0.338900  0.801900  1.0
  H  H612  1  0.482900  0.661100  0.198100  1.0
  H  H613  1  0.482900  0.338900  0.698100  1.0
  H  H614  1  0.982900  0.661100  0.301900  1.0
  H  H615  1  0.017100  0.661100  0.198100  1.0
  H  H616  1  0.517100  0.338900  0.801900  1.0
  H  H617  1  0.486900  0.702000  0.350000  1.0
  H  H618  1  0.986900  0.298000  0.650000  1.0
  H  H619  1  0.013100  0.298000  0.850000  1.0
  H  H620  1  0.513100  0.702000  0.150000  1.0
  H  H621  1  0.513100  0.298000  0.650000  1.0
  H  H622  1  0.013100  0.702000  0.350000  1.0
  H  H623  1  0.986900  0.702000  0.150000  1.0
  H  H624  1  0.486900  0.298000  0.850000  1.0
  H  H625  1  0.479200  0.668200  0.369300  1.0
  H  H626  1  0.979200  0.331800  0.630700  1.0
  H  H627  1  0.020800  0.331800  0.869300  1.0
  H  H628  1  0.520800  0.668200  0.130700  1.0
  H  H629  1  0.520800  0.331800  0.630700  1.0
  H  H630  1  0.020800  0.668200  0.369300  1.0
  H  H631  1  0.979200  0.668200  0.130700  1.0
  H  H632  1  0.479200  0.331800  0.869300  1.0
  H  H633  1  0.520200  0.732700  0.335800  1.0
  H  H634  1  0.020200  0.267300  0.664200  1.0
  H  H635  1  0.979800  0.267300  0.835800  1.0
  H  H636  1  0.479800  0.732700  0.164200  1.0
  H  H637  1  0.479800  0.267300  0.664200  1.0
  H  H638  1  0.979800  0.732700  0.335800  1.0
  H  H639  1  0.020200  0.732700  0.164200  1.0
  H  H640  1  0.520200  0.267300  0.835800  1.0
  H  H641  1  0.498900  0.763700  0.281600  1.0
  H  H642  1  0.998900  0.236300  0.718400  1.0
  H  H643  1  0.001100  0.236300  0.781600  1.0
  H  H644  1  0.501100  0.763700  0.218400  1.0
  H  H645  1  0.501100  0.236300  0.718400  1.0
  H  H646  1  0.001100  0.763700  0.281600  1.0
  H  H647  1  0.998900  0.763700  0.218400  1.0
  H  H648  1  0.498900  0.236300  0.781600  1.0
  H  H649  1  0.498200  0.726500  0.266900  1.0
  H  H650  1  0.998200  0.273500  0.733100  1.0
  H  H651  1  0.001800  0.273500  0.766900  1.0
  H  H652  1  0.501800  0.726500  0.233100  1.0
  H  H653  1  0.501800  0.273500  0.733100  1.0
  H  H654  1  0.001800  0.726500  0.266900  1.0
  H  H655  1  0.998200  0.726500  0.233100  1.0
  H  H656  1  0.498200  0.273500  0.766900  1.0
  H  H657  1  0.500900  0.692500  0.287000  1.0
  H  H658  1  0.000900  0.307500  0.713000  1.0
  H  H659  1  0.999100  0.307500  0.787000  1.0
  H  H660  1  0.499100  0.692500  0.213000  1.0
  H  H661  1  0.499100  0.307500  0.713000  1.0
  H  H662  1  0.999100  0.692500  0.287000  1.0
  H  H663  1  0.000900  0.692500  0.213000  1.0
  H  H664  1  0.500900  0.307500  0.787000  1.0
  H  H665  1  0.501200  0.829600  0.308000  1.0
  H  H666  1  0.001200  0.170400  0.692000  1.0
  H  H667  1  0.998800  0.170400  0.808000  1.0
  H  H668  1  0.498800  0.829600  0.192000  1.0
  H  H669  1  0.498800  0.170400  0.692000  1.0
  H  H670  1  0.998800  0.829600  0.308000  1.0
  H  H671  1  0.001200  0.829600  0.192000  1.0
  H  H672  1  0.501200  0.170400  0.808000  1.0
  H  H673  1  0.510800  0.791600  0.295200  1.0
  H  H674  1  0.010800  0.208400  0.704800  1.0
  H  H675  1  0.989200  0.208400  0.795200  1.0
  H  H676  1  0.489200  0.791600  0.204800  1.0
  H  H677  1  0.489200  0.208400  0.704800  1.0
  H  H678  1  0.989200  0.791600  0.295200  1.0
  H  H679  1  0.010800  0.791600  0.204800  1.0
  H  H680  1  0.510800  0.208400  0.795200  1.0
  H  H681  1  0.482300  0.763000  0.349700  1.0
  H  H682  1  0.982300  0.237000  0.650300  1.0
  H  H683  1  0.017700  0.237000  0.849700  1.0
  H  H684  1  0.517700  0.763000  0.150300  1.0
  H  H685  1  0.517700  0.237000  0.650300  1.0
  H  H686  1  0.017700  0.763000  0.349700  1.0
  H  H687  1  0.982300  0.763000  0.150300  1.0
  H  H688  1  0.482300  0.237000  0.849700  1.0
  H  H689  1  0.472700  0.801000  0.362400  1.0
  H  H690  1  0.972700  0.199000  0.637600  1.0
  H  H691  1  0.027300  0.199000  0.862400  1.0
  H  H692  1  0.527300  0.801000  0.137600  1.0
  H  H693  1  0.527300  0.199000  0.637600  1.0
  H  H694  1  0.027300  0.801000  0.362400  1.0
  H  H695  1  0.972700  0.801000  0.137600  1.0
  H  H696  1  0.472700  0.199000  0.862400  1.0
  H  H697  1  0.553000  0.855900  0.346600  1.0
  H  H698  1  0.053000  0.144100  0.653400  1.0
  H  H699  1  0.947000  0.144100  0.846600  1.0
  H  H700  1  0.447000  0.855900  0.153400  1.0
  H  H701  1  0.447000  0.144100  0.653400  1.0
  H  H702  1  0.947000  0.855900  0.346600  1.0
  H  H703  1  0.053000  0.855900  0.153400  1.0
  H  H704  1  0.553000  0.144100  0.846600  1.0
  H  H705  1  0.588200  0.853700  0.366500  1.0
  H  H706  1  0.088200  0.146300  0.633500  1.0
  H  H707  1  0.911800  0.146300  0.866500  1.0
  H  H708  1  0.411800  0.853700  0.133500  1.0
  H  H709  1  0.411800  0.146300  0.633500  1.0
  H  H710  1  0.911800  0.853700  0.366500  1.0
  H  H711  1  0.088200  0.853700  0.133500  1.0
  H  H712  1  0.588200  0.146300  0.866500  1.0
  H  H713  1  0.548900  0.838200  0.411200  1.0
  H  H714  1  0.048900  0.161800  0.588800  1.0
  H  H715  1  0.951100  0.161800  0.911200  1.0
  H  H716  1  0.451100  0.838200  0.088800  1.0
  H  H717  1  0.451100  0.161800  0.588800  1.0
  H  H718  1  0.951100  0.838200  0.411200  1.0
  H  H719  1  0.048900  0.838200  0.088800  1.0
  H  H720  1  0.548900  0.161800  0.911200  1.0
  H  H721  1  0.514700  0.839700  0.393200  1.0
  H  H722  1  0.014700  0.160300  0.606800  1.0
  H  H723  1  0.985300  0.160300  0.893200  1.0
  H  H724  1  0.485300  0.839700  0.106800  1.0
  H  H725  1  0.485300  0.160300  0.606800  1.0
  H  H726  1  0.985300  0.839700  0.393200  1.0
  H  H727  1  0.014700  0.839700  0.106800  1.0
  H  H728  1  0.514700  0.160300  0.893200  1.0
  H  H729  1  0.509300  0.905400  0.334900  1.0
  H  H730  1  0.009300  0.094600  0.665100  1.0
  H  H731  1  0.990700  0.094600  0.834900  1.0
  H  H732  1  0.490700  0.905400  0.165100  1.0
  H  H733  1  0.490700  0.094600  0.665100  1.0
  H  H734  1  0.990700  0.905400  0.334900  1.0
  H  H735  1  0.009300  0.905400  0.165100  1.0
  H  H736  1  0.509300  0.094600  0.834900  1.0
  H  H737  1  0.506100  0.942900  0.348500  1.0
  H  H738  1  0.006100  0.057100  0.651500  1.0
  H  H739  1  0.993900  0.057100  0.848500  1.0
  H  H740  1  0.493900  0.942900  0.151500  1.0
  H  H741  1  0.493900  0.057100  0.651500  1.0
  H  H742  1  0.993900  0.942900  0.348500  1.0
  H  H743  1  0.006100  0.942900  0.151500  1.0
  H  H744  1  0.506100  0.057100  0.848500  1.0
  H  H745  1  0.451100  0.920600  0.390600  1.0
  H  H746  1  0.951100  0.079400  0.609400  1.0
  H  H747  1  0.048900  0.079400  0.890600  1.0
  H  H748  1  0.548900  0.920600  0.109400  1.0
  H  H749  1  0.548900  0.079400  0.609400  1.0
  H  H750  1  0.048900  0.920600  0.390600  1.0
  H  H751  1  0.951100  0.920600  0.109400  1.0
  H  H752  1  0.451100  0.079400  0.890600  1.0
  H  H753  1  0.453800  0.885800  0.376400  1.0
  H  H754  1  0.953800  0.114200  0.623600  1.0
  H  H755  1  0.046200  0.114200  0.876400  1.0
  H  H756  1  0.546200  0.885800  0.123600  1.0
  H  H757  1  0.546200  0.114200  0.623600  1.0
  H  H758  1  0.046200  0.885800  0.376400  1.0
  H  H759  1  0.953800  0.885800  0.123600  1.0
  H  H760  1  0.453800  0.114200  0.876400  1.0
  H  H761  1  0.509600  0.972900  0.371600  1.0
  H  H762  1  0.009600  0.027100  0.628400  1.0
  H  H763  1  0.990400  0.027100  0.871600  1.0
  H  H764  1  0.490400  0.972900  0.128400  1.0
  H  H765  1  0.490400  0.027100  0.628400  1.0
  H  H766  1  0.990400  0.972900  0.371600  1.0
  H  H767  1  0.009600  0.972900  0.128400  1.0
  H  H768  1  0.509600  0.027100  0.871600  1.0
  H  H769  1  0.504900  0.011300  0.384900  1.0
  H  H770  1  0.004900  0.988700  0.615100  1.0
  H  H771  1  0.995100  0.988700  0.884900  1.0
  H  H772  1  0.495100  0.011300  0.115100  1.0
  H  H773  1  0.495100  0.988700  0.615100  1.0
  H  H774  1  0.995100  0.011300  0.384900  1.0
  H  H775  1  0.004900  0.011300  0.115100  1.0
  H  H776  1  0.504900  0.988700  0.884900  1.0
  H  H777  1  0.433700  0.994500  0.407300  1.0
  H  H778  1  0.933700  0.005500  0.592700  1.0
  H  H779  1  0.066300  0.005500  0.907300  1.0
  H  H780  1  0.566300  0.994500  0.092700  1.0
  H  H781  1  0.566300  0.005500  0.592700  1.0
  H  H782  1  0.066300  0.994500  0.407300  1.0
  H  H783  1  0.933700  0.994500  0.092700  1.0
  H  H784  1  0.433700  0.005500  0.907300  1.0
  H  H785  1  0.438500  0.956000  0.394000  1.0
  H  H786  1  0.938500  0.044000  0.606000  1.0
  H  H787  1  0.061500  0.044000  0.894000  1.0
  H  H788  1  0.561500  0.956000  0.106000  1.0
  H  H789  1  0.561500  0.044000  0.606000  1.0
  H  H790  1  0.061500  0.956000  0.394000  1.0
  H  H791  1  0.938500  0.956000  0.106000  1.0
  H  H792  1  0.438500  0.044000  0.894000  1.0
  H  H793  1  0.458300  0.132700  0.442700  1.0
  H  H794  1  0.958300  0.867300  0.557300  1.0
  H  H795  1  0.041700  0.867300  0.942700  1.0
  H  H796  1  0.541700  0.132700  0.057300  1.0
  H  H797  1  0.541700  0.867300  0.557300  1.0
  H  H798  1  0.041700  0.132700  0.442700  1.0
  H  H799  1  0.958300  0.132700  0.057300  1.0
  H  H800  1  0.458300  0.867300  0.942700  1.0
  H  H801  1  0.491800  0.122300  0.419400  1.0
  H  H802  1  0.991800  0.877700  0.580600  1.0
  H  H803  1  0.008200  0.877700  0.919400  1.0
  H  H804  1  0.508200  0.122300  0.080600  1.0
  H  H805  1  0.508200  0.877700  0.580600  1.0
  H  H806  1  0.008200  0.122300  0.419400  1.0
  H  H807  1  0.991800  0.122300  0.080600  1.0
  H  H808  1  0.491800  0.877700  0.919400  1.0
  H  H809  1  0.494700  0.083600  0.406300  1.0
  H  H810  1  0.994700  0.916400  0.593700  1.0
  H  H811  1  0.005300  0.916400  0.906300  1.0
  H  H812  1  0.505300  0.083600  0.093700  1.0
  H  H813  1  0.505300  0.916400  0.593700  1.0
  H  H814  1  0.005300  0.083600  0.406300  1.0
  H  H815  1  0.994700  0.083600  0.093700  1.0
  H  H816  1  0.494700  0.916400  0.906300  1.0
  H  H817  1  0.426300  0.051100  0.453800  1.0
  H  H818  1  0.926300  0.948900  0.546200  1.0
  H  H819  1  0.073700  0.948900  0.953800  1.0
  H  H820  1  0.573700  0.051100  0.046200  1.0
  H  H821  1  0.573700  0.948900  0.546200  1.0
  H  H822  1  0.073700  0.051100  0.453800  1.0
  H  H823  1  0.926300  0.051100  0.046200  1.0
  H  H824  1  0.426300  0.948900  0.953800  1.0
  H  H825  1  0.420300  0.048300  0.429200  1.0
  H  H826  1  0.920300  0.951700  0.570800  1.0
  H  H827  1  0.079700  0.951700  0.929200  1.0
  H  H828  1  0.579700  0.048300  0.070800  1.0
  H  H829  1  0.579700  0.951700  0.570800  1.0
  H  H830  1  0.079700  0.048300  0.429200  1.0
  H  H831  1  0.920300  0.048300  0.070800  1.0
  H  H832  1  0.420300  0.951700  0.929200  1.0
  H  H833  1  0.405800  0.067900  0.442700  1.0
  H  H834  1  0.905800  0.932100  0.557300  1.0
  H  H835  1  0.094200  0.932100  0.942700  1.0
  H  H836  1  0.594200  0.067900  0.057300  1.0
  H  H837  1  0.594200  0.932100  0.557300  1.0
  H  H838  1  0.094200  0.067900  0.442700  1.0
  H  H839  1  0.905800  0.067900  0.057300  1.0
  H  H840  1  0.405800  0.932100  0.942700  1.0
  H  H841  1  0.471900  0.863900  0.297800  1.0
  H  H842  1  0.971900  0.136100  0.702200  1.0
  H  H843  1  0.028100  0.136100  0.797800  1.0
  H  H844  1  0.528100  0.863900  0.202200  1.0
  H  H845  1  0.528100  0.136100  0.702200  1.0
  H  H846  1  0.028100  0.863900  0.297800  1.0
  H  H847  1  0.971900  0.863900  0.202200  1.0
  H  H848  1  0.471900  0.136100  0.797800  1.0
  H  H849  1  0.433000  0.868200  0.279300  1.0
  H  H850  1  0.933000  0.131800  0.720700  1.0
  H  H851  1  0.067000  0.131800  0.779300  1.0
  H  H852  1  0.567000  0.868200  0.220700  1.0
  H  H853  1  0.567000  0.131800  0.720700  1.0
  H  H854  1  0.067000  0.868200  0.279300  1.0
  H  H855  1  0.933000  0.868200  0.220700  1.0
  H  H856  1  0.433000  0.131800  0.779300  1.0
  H  H857  1  0.393300  0.854600  0.333700  1.0
  H  H858  1  0.893300  0.145400  0.666300  1.0
  H  H859  1  0.106700  0.145400  0.833700  1.0
  H  H860  1  0.606700  0.854600  0.166300  1.0
  H  H861  1  0.606700  0.145400  0.666300  1.0
  H  H862  1  0.106700  0.854600  0.333700  1.0
  H  H863  1  0.893300  0.854600  0.166300  1.0
  H  H864  1  0.393300  0.145400  0.833700  1.0
  H  H865  1  0.432300  0.850200  0.352200  1.0
  H  H866  1  0.932300  0.149800  0.647800  1.0
  H  H867  1  0.067700  0.149800  0.852200  1.0
  H  H868  1  0.567700  0.850200  0.147800  1.0
  H  H869  1  0.567700  0.149800  0.647800  1.0
  H  H870  1  0.067700  0.850200  0.352200  1.0
  H  H871  1  0.932300  0.850200  0.147800  1.0
  H  H872  1  0.432300  0.149800  0.852200  1.0
  H  H873  1  0.402300  0.866500  0.264000  1.0
  H  H874  1  0.902300  0.133500  0.736000  1.0
  H  H875  1  0.097700  0.133500  0.764000  1.0
  H  H876  1  0.597700  0.866500  0.236000  1.0
  H  H877  1  0.597700  0.133500  0.736000  1.0
  H  H878  1  0.097700  0.866500  0.264000  1.0
  H  H879  1  0.902300  0.866500  0.236000  1.0
  H  H880  1  0.402300  0.133500  0.764000  1.0
  H  H881  1  0.363700  0.873500  0.245600  1.0
  H  H882  1  0.863700  0.126500  0.754400  1.0
  H  H883  1  0.136300  0.126500  0.745600  1.0
  H  H884  1  0.636300  0.873500  0.254400  1.0
  H  H885  1  0.636300  0.126500  0.754400  1.0
  H  H886  1  0.136300  0.873500  0.245600  1.0
  H  H887  1  0.863700  0.873500  0.254400  1.0
  H  H888  1  0.363700  0.126500  0.745600  1.0
  H  H889  1  0.324200  0.871100  0.301400  1.0
  H  H890  1  0.824200  0.128900  0.698600  1.0
  H  H891  1  0.175800  0.128900  0.801400  1.0
  H  H892  1  0.675800  0.871100  0.198600  1.0
  H  H893  1  0.675800  0.128900  0.698600  1.0
  H  H894  1  0.175800  0.871100  0.301400  1.0
  H  H895  1  0.824200  0.871100  0.198600  1.0
  H  H896  1  0.324200  0.128900  0.801400  1.0
  H  H897  1  0.362900  0.864200  0.319800  1.0
  H  H898  1  0.862900  0.135800  0.680200  1.0
  H  H899  1  0.137100  0.135800  0.819800  1.0
  H  H900  1  0.637100  0.864200  0.180200  1.0
  H  H901  1  0.637100  0.135800  0.680200  1.0
  H  H902  1  0.137100  0.864200  0.319800  1.0
  H  H903  1  0.862900  0.864200  0.180200  1.0
  H  H904  1  0.362900  0.135800  0.819800  1.0
  H  H905  1  0.289300  0.901600  0.213400  1.0
  H  H906  1  0.789300  0.098400  0.786600  1.0
  H  H907  1  0.210700  0.098400  0.713400  1.0
  H  H908  1  0.710700  0.901600  0.286600  1.0
  H  H909  1  0.710700  0.098400  0.786600  1.0
  H  H910  1  0.210700  0.901600  0.213400  1.0
  H  H911  1  0.789300  0.901600  0.286600  1.0
  H  H912  1  0.289300  0.098400  0.713400  1.0
  H  H913  1  0.250000  0.916400  0.199100  1.0
  H  H914  1  0.750000  0.083600  0.800900  1.0
  H  H915  1  0.250000  0.083600  0.699100  1.0
  H  H916  1  0.750000  0.916400  0.300900  1.0
  H  H917  1  0.431700  0.626500  0.372200  1.0
  H  H918  1  0.931700  0.373500  0.627800  1.0
  H  H919  1  0.068300  0.373500  0.872200  1.0
  H  H920  1  0.568300  0.626500  0.127800  1.0
  H  H921  1  0.568300  0.373500  0.627800  1.0
  H  H922  1  0.068300  0.626500  0.372200  1.0
  H  H923  1  0.931700  0.626500  0.127800  1.0
  H  H924  1  0.431700  0.373500  0.872200  1.0
  H  H925  1  0.393500  0.610900  0.358000  1.0
  H  H926  1  0.893500  0.389100  0.642000  1.0
  H  H927  1  0.106500  0.389100  0.858000  1.0
  H  H928  1  0.606500  0.610900  0.142000  1.0
  H  H929  1  0.606500  0.389100  0.642000  1.0
  H  H930  1  0.106500  0.610900  0.358000  1.0
  H  H931  1  0.893500  0.610900  0.142000  1.0
  H  H932  1  0.393500  0.389100  0.858000  1.0
  H  H933  1  0.435300  0.567700  0.319600  1.0
  H  H934  1  0.935300  0.432300  0.680400  1.0
  H  H935  1  0.064700  0.432300  0.819600  1.0
  H  H936  1  0.564700  0.567700  0.180400  1.0
  H  H937  1  0.564700  0.432300  0.680400  1.0
  H  H938  1  0.064700  0.567700  0.319600  1.0
  H  H939  1  0.935300  0.567700  0.180400  1.0
  H  H940  1  0.435300  0.432300  0.819600  1.0
  H  H941  1  0.473600  0.583300  0.333700  1.0
  H  H942  1  0.973600  0.416700  0.666300  1.0
  H  H943  1  0.026400  0.416700  0.833700  1.0
  H  H944  1  0.526400  0.583300  0.166300  1.0
  H  H945  1  0.526400  0.416700  0.666300  1.0
  H  H946  1  0.026400  0.583300  0.333700  1.0
  H  H947  1  0.973600  0.583300  0.166300  1.0
  H  H948  1  0.473600  0.416700  0.833700  1.0
  H  H949  1  0.404000  0.552800  0.310100  1.0
  H  H950  1  0.904000  0.447200  0.689900  1.0
  H  H951  1  0.096000  0.447200  0.810100  1.0
  H  H952  1  0.596000  0.552800  0.189900  1.0
  H  H953  1  0.596000  0.447200  0.689900  1.0
  H  H954  1  0.096000  0.552800  0.310100  1.0
  H  H955  1  0.904000  0.552800  0.189900  1.0
  H  H956  1  0.404000  0.447200  0.810100  1.0
  H  H957  1  0.365800  0.535100  0.298000  1.0
  H  H958  1  0.865800  0.464900  0.702000  1.0
  H  H959  1  0.134200  0.464900  0.798000  1.0
  H  H960  1  0.634200  0.535100  0.202000  1.0
  H  H961  1  0.634200  0.464900  0.702000  1.0
  H  H962  1  0.134200  0.535100  0.298000  1.0
  H  H963  1  0.865800  0.535100  0.202000  1.0
  H  H964  1  0.365800  0.464900  0.798000  1.0
  H  H965  1  0.323900  0.584400  0.329900  1.0
  H  H966  1  0.823900  0.415600  0.670100  1.0
  H  H967  1  0.176100  0.415600  0.829900  1.0
  H  H968  1  0.676100  0.584400  0.170100  1.0
  H  H969  1  0.676100  0.415600  0.670100  1.0
  H  H970  1  0.176100  0.584400  0.329900  1.0
  H  H971  1  0.823900  0.584400  0.170100  1.0
  H  H972  1  0.323900  0.415600  0.829900  1.0
  H  H973  1  0.362100  0.602100  0.342000  1.0
  H  H974  1  0.862100  0.397900  0.658000  1.0
  H  H975  1  0.137900  0.397900  0.842000  1.0
  H  H976  1  0.637900  0.602100  0.158000  1.0
  H  H977  1  0.637900  0.397900  0.658000  1.0
  H  H978  1  0.137900  0.602100  0.342000  1.0
  H  H979  1  0.862100  0.602100  0.158000  1.0
  H  H980  1  0.362100  0.397900  0.842000  1.0
  H  H981  1  0.288400  0.499600  0.276500  1.0
  H  H982  1  0.788400  0.500400  0.723500  1.0
  H  H983  1  0.211600  0.500400  0.776500  1.0
  H  H984  1  0.711600  0.499600  0.223500  1.0
  H  H985  1  0.711600  0.500400  0.723500  1.0
  H  H986  1  0.211600  0.499600  0.276500  1.0
  H  H987  1  0.788400  0.499600  0.223500  1.0
  H  H988  1  0.288400  0.500400  0.776500  1.0
  H  H989  1  0.250000  0.480900  0.266300  1.0
  H  H990  1  0.750000  0.519100  0.733700  1.0
  H  H991  1  0.250000  0.519100  0.766300  1.0
  H  H992  1  0.750000  0.480900  0.233700  1.0
  H  H993  1  0.465000  0.605100  0.412100  1.0
  H  H994  1  0.965000  0.394900  0.587900  1.0
  H  H995  1  0.035000  0.394900  0.912100  1.0
  H  H996  1  0.535000  0.605100  0.087900  1.0
  H  H997  1  0.535000  0.394900  0.587900  1.0
  H  H998  1  0.035000  0.605100  0.412100  1.0
  H  H999  1  0.965000  0.605100  0.087900  1.0
  H  H1000  1  0.465000  0.394900  0.912100  1.0
  H  H1001  1  0.462300  0.572700  0.435300  1.0
  H  H1002  1  0.962300  0.427300  0.564700  1.0
  H  H1003  1  0.037700  0.427300  0.935300  1.0
  H  H1004  1  0.537700  0.572700  0.064700  1.0
  H  H1005  1  0.537700  0.427300  0.564700  1.0
  H  H1006  1  0.037700  0.572700  0.435300  1.0
  H  H1007  1  0.962300  0.572700  0.064700  1.0
  H  H1008  1  0.462300  0.427300  0.935300  1.0
  H  H1009  1  0.507600  0.534300  0.395400  1.0
  H  H1010  1  0.007600  0.465700  0.604600  1.0
  H  H1011  1  0.992400  0.465700  0.895400  1.0
  H  H1012  1  0.492400  0.534300  0.104600  1.0
  H  H1013  1  0.492400  0.465700  0.604600  1.0
  H  H1014  1  0.992400  0.534300  0.395400  1.0
  H  H1015  1  0.007600  0.534300  0.104600  1.0
  H  H1016  1  0.507600  0.465700  0.895400  1.0
  H  H1017  1  0.510200  0.566700  0.372200  1.0
  H  H1018  1  0.010200  0.433300  0.627800  1.0
  H  H1019  1  0.989800  0.433300  0.872200  1.0
  H  H1020  1  0.489800  0.566700  0.127800  1.0
  H  H1021  1  0.489800  0.433300  0.627800  1.0
  H  H1022  1  0.989800  0.566700  0.372200  1.0
  H  H1023  1  0.010200  0.566700  0.127800  1.0
  H  H1024  1  0.510200  0.433300  0.872200  1.0
  H  H1025  1  0.468400  0.548000  0.460800  1.0
  H  H1026  1  0.968400  0.452000  0.539200  1.0
  H  H1027  1  0.031600  0.452000  0.960800  1.0
  H  H1028  1  0.531600  0.548000  0.039200  1.0
  H  H1029  1  0.531600  0.452000  0.539200  1.0
  H  H1030  1  0.031600  0.548000  0.460800  1.0
  H  H1031  1  0.968400  0.548000  0.039200  1.0
  H  H1032  1  0.468400  0.452000  0.960800  1.0
  H  H1033  1  0.465800  0.515000  0.483400  1.0
  H  H1034  1  0.965800  0.485000  0.516600  1.0
  H  H1035  1  0.034200  0.485000  0.983400  1.0
  H  H1036  1  0.534200  0.515000  0.016600  1.0
  H  H1037  1  0.534200  0.485000  0.516600  1.0
  H  H1038  1  0.034200  0.515000  0.483400  1.0
  H  H1039  1  0.965800  0.515000  0.016600  1.0
  H  H1040  1  0.465800  0.485000  0.983400  1.0
  H  H1041  1  0.499500  0.474400  0.437900  1.0
  H  H1042  1  0.999500  0.525600  0.562100  1.0
  H  H1043  1  0.000500  0.525600  0.937900  1.0
  H  H1044  1  0.500500  0.474400  0.062100  1.0
  H  H1045  1  0.500500  0.525600  0.562100  1.0
  H  H1046  1  0.000500  0.474400  0.437900  1.0
  H  H1047  1  0.999500  0.474400  0.062100  1.0
  H  H1048  1  0.499500  0.525600  0.937900  1.0
  H  H1049  1  0.502100  0.507300  0.415300  1.0
  H  H1050  1  0.002100  0.492700  0.584700  1.0
  H  H1051  1  0.997900  0.492700  0.915300  1.0
  H  H1052  1  0.497900  0.507300  0.084700  1.0
  H  H1053  1  0.497900  0.492700  0.584700  1.0
  H  H1054  1  0.997900  0.507300  0.415300  1.0
  H  H1055  1  0.002100  0.507300  0.084700  1.0
  H  H1056  1  0.502100  0.492700  0.915300  1.0
  H  H1057  1  0.660000  0.725800  0.477000  1.0
  H  H1058  1  0.160000  0.274200  0.523000  1.0
  H  H1059  1  0.840000  0.274200  0.977000  1.0
  H  H1060  1  0.340000  0.725800  0.023000  1.0
  H  H1061  1  0.340000  0.274200  0.523000  1.0
  H  H1062  1  0.840000  0.725800  0.477000  1.0
  H  H1063  1  0.160000  0.725800  0.023000  1.0
  H  H1064  1  0.660000  0.274200  0.977000  1.0
  H  H1065  1  0.657900  0.700700  0.447400  1.0
  H  H1066  1  0.157900  0.299300  0.552600  1.0
  H  H1067  1  0.842100  0.299300  0.947400  1.0
  H  H1068  1  0.342100  0.700700  0.052600  1.0
  H  H1069  1  0.342100  0.299300  0.552600  1.0
  H  H1070  1  0.842100  0.700700  0.447400  1.0
  H  H1071  1  0.157900  0.700700  0.052600  1.0
  H  H1072  1  0.657900  0.299300  0.947400  1.0
  H  H1073  1  0.581100  0.691800  0.457100  1.0
  H  H1074  1  0.081100  0.308200  0.542900  1.0
  H  H1075  1  0.918900  0.308200  0.957100  1.0
  H  H1076  1  0.418900  0.691800  0.042900  1.0
  H  H1077  1  0.418900  0.308200  0.542900  1.0
  H  H1078  1  0.918900  0.691800  0.457100  1.0
  H  H1079  1  0.081100  0.691800  0.042900  1.0
  H  H1080  1  0.581100  0.308200  0.957100  1.0
  H  H1081  1  0.583200  0.717000  0.486700  1.0
  H  H1082  1  0.083200  0.283000  0.513300  1.0
  H  H1083  1  0.916800  0.283000  0.986700  1.0
  H  H1084  1  0.416800  0.717000  0.013300  1.0
  H  H1085  1  0.416800  0.283000  0.513300  1.0
  H  H1086  1  0.916800  0.717000  0.486700  1.0
  H  H1087  1  0.083200  0.717000  0.013300  1.0
  H  H1088  1  0.583200  0.283000  0.986700  1.0
  H  H1089  1  0.659800  0.721900  0.529900  1.0
  H  H1090  1  0.159800  0.278100  0.470100  1.0
  H  H1091  1  0.840200  0.278100  0.029900  1.0
  H  H1092  1  0.340200  0.721900  0.970100  1.0
  H  H1093  1  0.340200  0.278100  0.470100  1.0
  H  H1094  1  0.840200  0.721900  0.529900  1.0
  H  H1095  1  0.159800  0.721900  0.970100  1.0
  H  H1096  1  0.659800  0.278100  0.029900  1.0
  H  H1097  1  0.661100  0.699500  0.561400  1.0
  H  H1098  1  0.161100  0.300500  0.438600  1.0
  H  H1099  1  0.838900  0.300500  0.061400  1.0
  H  H1100  1  0.338900  0.699500  0.938600  1.0
  H  H1101  1  0.338900  0.300500  0.438600  1.0
  H  H1102  1  0.838900  0.699500  0.561400  1.0
  H  H1103  1  0.161100  0.699500  0.938600  1.0
  H  H1104  1  0.661100  0.300500  0.061400  1.0
  H  H1105  1  0.585100  0.713200  0.571300  1.0
  H  H1106  1  0.085100  0.286800  0.428700  1.0
  H  H1107  1  0.914900  0.286800  0.071300  1.0
  H  H1108  1  0.414900  0.713200  0.928700  1.0
  H  H1109  1  0.414900  0.286800  0.428700  1.0
  H  H1110  1  0.914900  0.713200  0.571300  1.0
  H  H1111  1  0.085100  0.713200  0.928700  1.0
  H  H1112  1  0.585100  0.286800  0.071300  1.0
  H  H1113  1  0.583900  0.735600  0.539900  1.0
  H  H1114  1  0.083900  0.264400  0.460100  1.0
  H  H1115  1  0.916100  0.264400  0.039900  1.0
  H  H1116  1  0.416100  0.735600  0.960100  1.0
  H  H1117  1  0.416100  0.264400  0.460100  1.0
  H  H1118  1  0.916100  0.735600  0.539900  1.0
  H  H1119  1  0.083900  0.735600  0.960100  1.0
  H  H1120  1  0.583900  0.264400  0.039900  1.0
  H  H1121  1  0.659900  0.663900  0.577100  1.0
  H  H1122  1  0.159900  0.336100  0.422900  1.0
  H  H1123  1  0.840100  0.336100  0.077100  1.0
  H  H1124  1  0.340100  0.663900  0.922900  1.0
  H  H1125  1  0.340100  0.336100  0.422900  1.0
  H  H1126  1  0.840100  0.663900  0.577100  1.0
  H  H1127  1  0.159900  0.663900  0.922900  1.0
  H  H1128  1  0.659900  0.336100  0.077100  1.0
  H  H1129  1  0.660900  0.641800  0.608700  1.0
  H  H1130  1  0.160900  0.358200  0.391300  1.0
  H  H1131  1  0.839100  0.358200  0.108700  1.0
  H  H1132  1  0.339100  0.641800  0.891300  1.0
  H  H1133  1  0.339100  0.358200  0.391300  1.0
  H  H1134  1  0.839100  0.641800  0.608700  1.0
  H  H1135  1  0.160900  0.641800  0.891300  1.0
  H  H1136  1  0.660900  0.358200  0.108700  1.0
  H  H1137  1  0.598000  0.677200  0.630300  1.0
  H  H1138  1  0.098000  0.322800  0.369700  1.0
  H  H1139  1  0.902000  0.322800  0.130300  1.0
  H  H1140  1  0.402000  0.677200  0.869700  1.0
  H  H1141  1  0.402000  0.322800  0.369700  1.0
  H  H1142  1  0.902000  0.677200  0.630300  1.0
  H  H1143  1  0.098000  0.677200  0.869700  1.0
  H  H1144  1  0.598000  0.322800  0.130300  1.0
  H  H1145  1  0.596900  0.699300  0.598700  1.0
  H  H1146  1  0.096900  0.300700  0.401300  1.0
  H  H1147  1  0.903100  0.300700  0.098700  1.0
  H  H1148  1  0.403100  0.699300  0.901300  1.0
  H  H1149  1  0.403100  0.300700  0.401300  1.0
  H  H1150  1  0.903100  0.699300  0.598700  1.0
  H  H1151  1  0.096900  0.699300  0.901300  1.0
  H  H1152  1  0.596900  0.300700  0.098700  1.0
  H  H1153  1  0.661900  0.786700  0.528000  1.0
  H  H1154  1  0.161900  0.213300  0.472000  1.0
  H  H1155  1  0.838100  0.213300  0.028000  1.0
  H  H1156  1  0.338100  0.786700  0.972000  1.0
  H  H1157  1  0.338100  0.213300  0.472000  1.0
  H  H1158  1  0.838100  0.786700  0.528000  1.0
  H  H1159  1  0.161900  0.786700  0.972000  1.0
  H  H1160  1  0.661900  0.213300  0.028000  1.0
  H  H1161  1  0.661600  0.820000  0.550200  1.0
  H  H1162  1  0.161600  0.180000  0.449800  1.0
  H  H1163  1  0.838400  0.180000  0.050200  1.0
  H  H1164  1  0.338400  0.820000  0.949800  1.0
  H  H1165  1  0.338400  0.180000  0.449800  1.0
  H  H1166  1  0.838400  0.820000  0.550200  1.0
  H  H1167  1  0.161600  0.820000  0.949800  1.0
  H  H1168  1  0.661600  0.180000  0.050200  1.0
  H  H1169  1  0.583600  0.816100  0.554400  1.0
  H  H1170  1  0.083600  0.183900  0.445600  1.0
  H  H1171  1  0.916400  0.183900  0.054400  1.0
  H  H1172  1  0.416400  0.816100  0.945600  1.0
  H  H1173  1  0.416400  0.183900  0.445600  1.0
  H  H1174  1  0.916400  0.816100  0.554400  1.0
  H  H1175  1  0.083600  0.816100  0.945600  1.0
  H  H1176  1  0.583600  0.183900  0.054400  1.0
  H  H1177  1  0.583800  0.782800  0.532200  1.0
  H  H1178  1  0.083800  0.217200  0.467800  1.0
  H  H1179  1  0.916200  0.217200  0.032200  1.0
  H  H1180  1  0.416200  0.782800  0.967800  1.0
  H  H1181  1  0.416200  0.217200  0.467800  1.0
  H  H1182  1  0.916200  0.782800  0.532200  1.0
  H  H1183  1  0.083800  0.782800  0.967800  1.0
  H  H1184  1  0.583800  0.217200  0.032200  1.0
  H  H1185  1  0.662100  0.846200  0.568000  1.0
  H  H1186  1  0.162100  0.153800  0.432000  1.0
  H  H1187  1  0.837900  0.153800  0.068000  1.0
  H  H1188  1  0.337900  0.846200  0.932000  1.0
  H  H1189  1  0.337900  0.153800  0.432000  1.0
  H  H1190  1  0.837900  0.846200  0.568000  1.0
  H  H1191  1  0.162100  0.846200  0.932000  1.0
  H  H1192  1  0.662100  0.153800  0.068000  1.0
  H  H1193  1  0.664000  0.880000  0.589500  1.0
  H  H1194  1  0.164000  0.120000  0.410500  1.0
  H  H1195  1  0.836000  0.120000  0.089500  1.0
  H  H1196  1  0.336000  0.880000  0.910500  1.0
  H  H1197  1  0.336000  0.120000  0.410500  1.0
  H  H1198  1  0.836000  0.880000  0.589500  1.0
  H  H1199  1  0.164000  0.880000  0.910500  1.0
  H  H1200  1  0.664000  0.120000  0.089500  1.0
  H  H1201  1  0.585900  0.879600  0.594700  1.0
  H  H1202  1  0.085900  0.120400  0.405300  1.0
  H  H1203  1  0.914100  0.120400  0.094700  1.0
  H  H1204  1  0.414100  0.879600  0.905300  1.0
  H  H1205  1  0.414100  0.120400  0.405300  1.0
  H  H1206  1  0.914100  0.879600  0.594700  1.0
  H  H1207  1  0.085900  0.879600  0.905300  1.0
  H  H1208  1  0.585900  0.120400  0.094700  1.0
  H  H1209  1  0.584000  0.845800  0.573100  1.0
  H  H1210  1  0.084000  0.154200  0.426900  1.0
  H  H1211  1  0.916000  0.154200  0.073100  1.0
  H  H1212  1  0.416000  0.845800  0.926900  1.0
  H  H1213  1  0.416000  0.154200  0.426900  1.0
  H  H1214  1  0.916000  0.845800  0.573100  1.0
  H  H1215  1  0.084000  0.845800  0.926900  1.0
  H  H1216  1  0.584000  0.154200  0.073100  1.0
  H  H1217  1  0.627200  0.995100  0.668300  1.0
  H  H1218  1  0.127200  0.004900  0.331700  1.0
  H  H1219  1  0.872800  0.004900  0.168300  1.0
  H  H1220  1  0.372800  0.995100  0.831700  1.0
  H  H1221  1  0.372800  0.004900  0.331700  1.0
  H  H1222  1  0.872800  0.995100  0.668300  1.0
  H  H1223  1  0.127200  0.995100  0.831700  1.0
  H  H1224  1  0.627200  0.004900  0.168300  1.0
  H  H1225  1  0.665800  0.974800  0.661700  1.0
  H  H1226  1  0.165800  0.025200  0.338300  1.0
  H  H1227  1  0.834200  0.025200  0.161700  1.0
  H  H1228  1  0.334200  0.974800  0.838300  1.0
  H  H1229  1  0.334200  0.025200  0.338300  1.0
  H  H1230  1  0.834200  0.974800  0.661700  1.0
  H  H1231  1  0.165800  0.974800  0.838300  1.0
  H  H1232  1  0.665800  0.025200  0.161700  1.0
  H  H1233  1  0.665600  0.940300  0.641100  1.0
  H  H1234  1  0.165600  0.059700  0.358900  1.0
  H  H1235  1  0.834400  0.059700  0.141100  1.0
  H  H1236  1  0.334400  0.940300  0.858900  1.0
  H  H1237  1  0.334400  0.059700  0.358900  1.0
  H  H1238  1  0.834400  0.940300  0.641100  1.0
  H  H1239  1  0.165600  0.940300  0.858900  1.0
  H  H1240  1  0.665600  0.059700  0.141100  1.0
  H  H1241  1  0.564900  0.951200  0.632800  1.0
  H  H1242  1  0.064900  0.048800  0.367200  1.0
  H  H1243  1  0.935100  0.048800  0.132800  1.0
  H  H1244  1  0.435100  0.951200  0.867200  1.0
  H  H1245  1  0.435100  0.048800  0.367200  1.0
  H  H1246  1  0.935100  0.951200  0.632800  1.0
  H  H1247  1  0.064900  0.951200  0.867200  1.0
  H  H1248  1  0.564900  0.048800  0.132800  1.0
  H  H1249  1  0.574800  0.927700  0.643800  1.0
  H  H1250  1  0.074800  0.072300  0.356200  1.0
  H  H1251  1  0.925200  0.072300  0.143800  1.0
  H  H1252  1  0.425200  0.927700  0.856200  1.0
  H  H1253  1  0.425200  0.072300  0.356200  1.0
  H  H1254  1  0.925200  0.927700  0.643800  1.0
  H  H1255  1  0.074800  0.927700  0.856200  1.0
  H  H1256  1  0.574800  0.072300  0.143800  1.0
  H  H1257  1  0.580600  0.932500  0.619400  1.0
  H  H1258  1  0.080600  0.067500  0.380600  1.0
  H  H1259  1  0.919400  0.067500  0.119400  1.0
  H  H1260  1  0.419400  0.932500  0.880600  1.0
  H  H1261  1  0.419400  0.067500  0.380600  1.0
  H  H1262  1  0.919400  0.932500  0.619400  1.0
  H  H1263  1  0.080600  0.932500  0.880600  1.0
  H  H1264  1  0.580600  0.067500  0.119400  1.0
  H  H1265  1  0.582900  0.784500  0.482200  1.0
  H  H1266  1  0.082900  0.215500  0.517800  1.0
  H  H1267  1  0.917100  0.215500  0.982200  1.0
  H  H1268  1  0.417100  0.784500  0.017800  1.0
  H  H1269  1  0.417100  0.215500  0.517800  1.0
  H  H1270  1  0.917100  0.784500  0.482200  1.0
  H  H1271  1  0.082900  0.784500  0.017800  1.0
  H  H1272  1  0.582900  0.215500  0.982200  1.0
  H  H1273  1  0.582900  0.813900  0.455900  1.0
  H  H1274  1  0.082900  0.186100  0.544100  1.0
  H  H1275  1  0.917100  0.186100  0.955900  1.0
  H  H1276  1  0.417100  0.813900  0.044100  1.0
  H  H1277  1  0.417100  0.186100  0.544100  1.0
  H  H1278  1  0.917100  0.813900  0.455900  1.0
  H  H1279  1  0.082900  0.813900  0.044100  1.0
  H  H1280  1  0.582900  0.186100  0.955900  1.0
  H  H1281  1  0.660100  0.805500  0.448200  1.0
  H  H1282  1  0.160100  0.194500  0.551800  1.0
  H  H1283  1  0.839900  0.194500  0.948200  1.0
  H  H1284  1  0.339900  0.805500  0.051800  1.0
  H  H1285  1  0.339900  0.194500  0.551800  1.0
  H  H1286  1  0.839900  0.805500  0.448200  1.0
  H  H1287  1  0.160100  0.805500  0.051800  1.0
  H  H1288  1  0.660100  0.194500  0.948200  1.0
  H  H1289  1  0.660200  0.776100  0.474500  1.0
  H  H1290  1  0.160200  0.223900  0.525500  1.0
  H  H1291  1  0.839800  0.223900  0.974500  1.0
  H  H1292  1  0.339800  0.776100  0.025500  1.0
  H  H1293  1  0.339800  0.223900  0.525500  1.0
  H  H1294  1  0.839800  0.776100  0.474500  1.0
  H  H1295  1  0.160200  0.776100  0.025500  1.0
  H  H1296  1  0.660200  0.223900  0.974500  1.0
  H  H1297  1  0.655000  0.845200  0.437600  1.0
  H  H1298  1  0.155000  0.154800  0.562400  1.0
  H  H1299  1  0.845000  0.154800  0.937600  1.0
  H  H1300  1  0.345000  0.845200  0.062400  1.0
  H  H1301  1  0.345000  0.154800  0.562400  1.0
  H  H1302  1  0.845000  0.845200  0.437600  1.0
  H  H1303  1  0.155000  0.845200  0.062400  1.0
  H  H1304  1  0.655000  0.154800  0.937600  1.0
  H  H1305  1  0.650800  0.872300  0.409500  1.0
  H  H1306  1  0.150800  0.127700  0.590500  1.0
  H  H1307  1  0.849200  0.127700  0.909500  1.0
  H  H1308  1  0.349200  0.872300  0.090500  1.0
  H  H1309  1  0.349200  0.127700  0.590500  1.0
  H  H1310  1  0.849200  0.872300  0.409500  1.0
  H  H1311  1  0.150800  0.872300  0.090500  1.0
  H  H1312  1  0.650800  0.127700  0.909500  1.0
  H  H1313  1  0.613600  0.871900  0.388200  1.0
  H  H1314  1  0.113600  0.128100  0.611800  1.0
  H  H1315  1  0.886400  0.128100  0.888200  1.0
  H  H1316  1  0.386400  0.871900  0.111800  1.0
  H  H1317  1  0.386400  0.128100  0.611800  1.0
  H  H1318  1  0.886400  0.871900  0.388200  1.0
  H  H1319  1  0.113600  0.871900  0.111800  1.0
  H  H1320  1  0.613600  0.128100  0.888200  1.0
  H  H1321  1  0.584900  0.817500  0.423100  1.0
  H  H1322  1  0.084900  0.182500  0.576900  1.0
  H  H1323  1  0.915100  0.182500  0.923100  1.0
  H  H1324  1  0.415100  0.817500  0.076900  1.0
  H  H1325  1  0.415100  0.182500  0.576900  1.0
  H  H1326  1  0.915100  0.817500  0.423100  1.0
  H  H1327  1  0.084900  0.817500  0.076900  1.0
  H  H1328  1  0.584900  0.182500  0.923100  1.0
  H  H1329  1  0.413300  0.024300  0.771200  1.0
  H  H1330  1  0.913300  0.975700  0.228800  1.0
  H  H1331  1  0.086700  0.975700  0.271200  1.0
  H  H1332  1  0.586700  0.024300  0.728800  1.0
  H  H1333  1  0.586700  0.975700  0.228800  1.0
  H  H1334  1  0.086700  0.024300  0.771200  1.0
  H  H1335  1  0.913300  0.024300  0.728800  1.0
  H  H1336  1  0.413300  0.975700  0.271200  1.0
  H  H1337  1  0.434500  0.985000  0.783500  1.0
  H  H1338  1  0.934500  0.015000  0.216500  1.0
  H  H1339  1  0.065500  0.015000  0.283500  1.0
  H  H1340  1  0.565500  0.985000  0.716500  1.0
  H  H1341  1  0.565500  0.015000  0.216500  1.0
  H  H1342  1  0.065500  0.985000  0.783500  1.0
  H  H1343  1  0.934500  0.985000  0.716500  1.0
  H  H1344  1  0.434500  0.015000  0.283500  1.0
  H  H1345  1  0.364200  0.958200  0.763400  1.0
  H  H1346  1  0.864200  0.041800  0.236600  1.0
  H  H1347  1  0.135800  0.041800  0.263400  1.0
  H  H1348  1  0.635800  0.958200  0.736600  1.0
  H  H1349  1  0.635800  0.041800  0.236600  1.0
  H  H1350  1  0.135800  0.958200  0.763400  1.0
  H  H1351  1  0.864200  0.958200  0.736600  1.0
  H  H1352  1  0.364200  0.041800  0.263400  1.0
  H  H1353  1  0.356900  0.991100  0.741000  1.0
  H  H1354  1  0.856900  0.008900  0.259000  1.0
  H  H1355  1  0.143100  0.008900  0.241000  1.0
  H  H1356  1  0.643100  0.991100  0.759000  1.0
  H  H1357  1  0.643100  0.008900  0.259000  1.0
  H  H1358  1  0.143100  0.991100  0.741000  1.0
  H  H1359  1  0.856900  0.991100  0.759000  1.0
  H  H1360  1  0.356900  0.008900  0.241000  1.0
  H  H1361  1  0.443500  0.954300  0.791300  1.0
  H  H1362  1  0.943500  0.045700  0.208700  1.0
  H  H1363  1  0.056500  0.045700  0.291300  1.0
  H  H1364  1  0.556500  0.954300  0.708700  1.0
  H  H1365  1  0.556500  0.045700  0.208700  1.0
  H  H1366  1  0.056500  0.954300  0.791300  1.0
  H  H1367  1  0.943500  0.954300  0.708700  1.0
  H  H1368  1  0.443500  0.045700  0.291300  1.0
  H  H1369  1  0.451000  0.922100  0.813900  1.0
  H  H1370  1  0.951000  0.077900  0.186100  1.0
  H  H1371  1  0.049000  0.077900  0.313900  1.0
  H  H1372  1  0.549000  0.922100  0.686100  1.0
  H  H1373  1  0.549000  0.077900  0.186100  1.0
  H  H1374  1  0.049000  0.922100  0.813900  1.0
  H  H1375  1  0.951000  0.922100  0.686100  1.0
  H  H1376  1  0.451000  0.077900  0.313900  1.0
  H  H1377  1  0.376100  0.902100  0.807700  1.0
  H  H1378  1  0.876100  0.097900  0.192300  1.0
  H  H1379  1  0.123900  0.097900  0.307700  1.0
  H  H1380  1  0.623900  0.902100  0.692300  1.0
  H  H1381  1  0.623900  0.097900  0.192300  1.0
  H  H1382  1  0.123900  0.902100  0.807700  1.0
  H  H1383  1  0.876100  0.902100  0.692300  1.0
  H  H1384  1  0.376100  0.097900  0.307700  1.0
  H  H1385  1  0.368700  0.934400  0.785100  1.0
  H  H1386  1  0.868700  0.065600  0.214900  1.0
  H  H1387  1  0.131300  0.065600  0.285100  1.0
  H  H1388  1  0.631300  0.934400  0.714900  1.0
  H  H1389  1  0.631300  0.065600  0.214900  1.0
  H  H1390  1  0.131300  0.934400  0.785100  1.0
  H  H1391  1  0.868700  0.934400  0.714900  1.0
  H  H1392  1  0.368700  0.065600  0.285100  1.0
  H  H1393  1  0.437600  0.054700  0.735600  1.0
  H  H1394  1  0.937600  0.945300  0.264400  1.0
  H  H1395  1  0.062400  0.945300  0.235600  1.0
  H  H1396  1  0.562400  0.054700  0.764400  1.0
  H  H1397  1  0.562400  0.945300  0.264400  1.0
  H  H1398  1  0.062400  0.054700  0.735600  1.0
  H  H1399  1  0.937600  0.054700  0.764400  1.0
  H  H1400  1  0.437600  0.945300  0.235600  1.0
  H  H1401  1  0.477400  0.045200  0.720100  1.0
  H  H1402  1  0.977400  0.954800  0.279900  1.0
  H  H1403  1  0.022600  0.954800  0.220100  1.0
  H  H1404  1  0.522600  0.045200  0.779900  1.0
  H  H1405  1  0.522600  0.954800  0.279900  1.0
  H  H1406  1  0.022600  0.045200  0.720100  1.0
  H  H1407  1  0.977400  0.045200  0.779900  1.0
  H  H1408  1  0.477400  0.954800  0.220100  1.0
  H  H1409  1  0.442000  0.997100  0.682000  1.0
  H  H1410  1  0.942000  0.002900  0.318000  1.0
  H  H1411  1  0.058000  0.002900  0.182000  1.0
  H  H1412  1  0.558000  0.997100  0.818000  1.0
  H  H1413  1  0.558000  0.002900  0.318000  1.0
  H  H1414  1  0.058000  0.997100  0.682000  1.0
  H  H1415  1  0.942000  0.997100  0.818000  1.0
  H  H1416  1  0.442000  0.002900  0.182000  1.0
  H  H1417  1  0.402200  0.006500  0.697500  1.0
  H  H1418  1  0.902200  0.993500  0.302500  1.0
  H  H1419  1  0.097800  0.993500  0.197500  1.0
  H  H1420  1  0.597800  0.006500  0.802500  1.0
  H  H1421  1  0.597800  0.993500  0.302500  1.0
  H  H1422  1  0.097800  0.006500  0.697500  1.0
  H  H1423  1  0.902200  0.006500  0.802500  1.0
  H  H1424  1  0.402200  0.993500  0.197500  1.0
  H  H1425  1  0.510300  0.041300  0.701400  1.0
  H  H1426  1  0.010300  0.958700  0.298600  1.0
  H  H1427  1  0.989700  0.958700  0.201400  1.0
  H  H1428  1  0.489700  0.041300  0.798600  1.0
  H  H1429  1  0.489700  0.958700  0.298600  1.0
  H  H1430  1  0.989700  0.041300  0.701400  1.0
  H  H1431  1  0.010300  0.041300  0.798600  1.0
  H  H1432  1  0.510300  0.958700  0.201400  1.0
  H  H1433  1  0.549900  0.029900  0.686300  1.0
  H  H1434  1  0.049900  0.970100  0.313700  1.0
  H  H1435  1  0.950100  0.970100  0.186300  1.0
  H  H1436  1  0.450100  0.029900  0.813700  1.0
  H  H1437  1  0.450100  0.970100  0.313700  1.0
  H  H1438  1  0.950100  0.029900  0.686300  1.0
  H  H1439  1  0.049900  0.029900  0.813700  1.0
  H  H1440  1  0.549900  0.970100  0.186300  1.0
  H  H1441  1  0.515400  0.972800  0.659400  1.0
  H  H1442  1  0.015400  0.027200  0.340600  1.0
  H  H1443  1  0.984600  0.027200  0.159400  1.0
  H  H1444  1  0.484600  0.972800  0.840600  1.0
  H  H1445  1  0.484600  0.027200  0.340600  1.0
  H  H1446  1  0.984600  0.972800  0.659400  1.0
  H  H1447  1  0.015400  0.972800  0.840600  1.0
  H  H1448  1  0.515400  0.027200  0.159400  1.0
  H  H1449  1  0.475900  0.984100  0.674400  1.0
  H  H1450  1  0.975900  0.015900  0.325600  1.0
  H  H1451  1  0.024100  0.015900  0.174400  1.0
  H  H1452  1  0.524100  0.984100  0.825600  1.0
  H  H1453  1  0.524100  0.015900  0.325600  1.0
  H  H1454  1  0.024100  0.984100  0.674400  1.0
  H  H1455  1  0.975900  0.984100  0.825600  1.0
  H  H1456  1  0.475900  0.015900  0.174400  1.0
  H  H1457  1  0.396200  0.091200  0.732000  1.0
  H  H1458  1  0.896200  0.908800  0.268000  1.0
  H  H1459  1  0.103800  0.908800  0.232000  1.0
  H  H1460  1  0.603800  0.091200  0.768000  1.0
  H  H1461  1  0.603800  0.908800  0.268000  1.0
  H  H1462  1  0.103800  0.091200  0.732000  1.0
  H  H1463  1  0.896200  0.091200  0.768000  1.0
  H  H1464  1  0.396200  0.908800  0.232000  1.0
  H  H1465  1  0.387800  0.124400  0.710800  1.0
  H  H1466  1  0.887800  0.875600  0.289200  1.0
  H  H1467  1  0.112200  0.875600  0.210800  1.0
  H  H1468  1  0.612200  0.124400  0.789200  1.0
  H  H1469  1  0.612200  0.875600  0.289200  1.0
  H  H1470  1  0.112200  0.124400  0.710800  1.0
  H  H1471  1  0.887800  0.124400  0.789200  1.0
  H  H1472  1  0.387800  0.875600  0.210800  1.0
  H  H1473  1  0.336200  0.086200  0.676300  1.0
  H  H1474  1  0.836200  0.913800  0.323700  1.0
  H  H1475  1  0.163800  0.913800  0.176300  1.0
  H  H1476  1  0.663800  0.086200  0.823700  1.0
  H  H1477  1  0.663800  0.913800  0.323700  1.0
  H  H1478  1  0.163800  0.086200  0.676300  1.0
  H  H1479  1  0.836200  0.086200  0.823700  1.0
  H  H1480  1  0.336200  0.913800  0.176300  1.0
  H  H1481  1  0.344600  0.053000  0.697500  1.0
  H  H1482  1  0.844600  0.947000  0.302500  1.0
  H  H1483  1  0.155400  0.947000  0.197500  1.0
  H  H1484  1  0.655400  0.053000  0.802500  1.0
  H  H1485  1  0.655400  0.947000  0.302500  1.0
  H  H1486  1  0.155400  0.053000  0.697500  1.0
  H  H1487  1  0.844600  0.053000  0.802500  1.0
  H  H1488  1  0.344600  0.947000  0.197500  1.0
  H  H1489  1  0.388700  0.147800  0.687400  1.0
  H  H1490  1  0.888700  0.852200  0.312600  1.0
  H  H1491  1  0.111300  0.852200  0.187400  1.0
  H  H1492  1  0.611300  0.147800  0.812600  1.0
  H  H1493  1  0.611300  0.852200  0.312600  1.0
  H  H1494  1  0.111300  0.147800  0.687400  1.0
  H  H1495  1  0.888700  0.147800  0.812600  1.0
  H  H1496  1  0.388700  0.852200  0.187400  1.0
  H  H1497  1  0.384600  0.178700  0.662700  1.0
  H  H1498  1  0.884600  0.821300  0.337300  1.0
  H  H1499  1  0.115400  0.821300  0.162700  1.0
  H  H1500  1  0.615400  0.178700  0.837300  1.0
  H  H1501  1  0.615400  0.821300  0.337300  1.0
  H  H1502  1  0.115400  0.178700  0.662700  1.0
  H  H1503  1  0.884600  0.178700  0.837300  1.0
  H  H1504  1  0.384600  0.821300  0.162700  1.0
  H  H1505  1  0.352400  0.177200  0.636600  1.0
  H  H1506  1  0.852400  0.822800  0.363400  1.0
  H  H1507  1  0.147600  0.822800  0.136600  1.0
  H  H1508  1  0.647600  0.177200  0.863400  1.0
  H  H1509  1  0.647600  0.822800  0.363400  1.0
  H  H1510  1  0.147600  0.177200  0.636600  1.0
  H  H1511  1  0.852400  0.177200  0.863400  1.0
  H  H1512  1  0.352400  0.822800  0.136600  1.0
  H  H1513  1  0.328100  0.114000  0.659800  1.0
  H  H1514  1  0.828100  0.886000  0.340200  1.0
  H  H1515  1  0.171900  0.886000  0.159800  1.0
  H  H1516  1  0.671900  0.114000  0.840200  1.0
  H  H1517  1  0.671900  0.886000  0.340200  1.0
  H  H1518  1  0.171900  0.114000  0.659800  1.0
  H  H1519  1  0.828100  0.114000  0.840200  1.0
  H  H1520  1  0.328100  0.886000  0.159800  1.0
  H  H1521  1  0.361900  0.062100  0.773200  1.0
  H  H1522  1  0.861900  0.937900  0.226800  1.0
  H  H1523  1  0.138100  0.937900  0.273200  1.0
  H  H1524  1  0.638100  0.062100  0.726800  1.0
  H  H1525  1  0.638100  0.937900  0.226800  1.0
  H  H1526  1  0.138100  0.062100  0.773200  1.0
  H  H1527  1  0.861900  0.062100  0.726800  1.0
  H  H1528  1  0.361900  0.937900  0.273200  1.0
  H  H1529  1  0.322300  0.070100  0.789800  1.0
  H  H1530  1  0.822300  0.929900  0.210200  1.0
  H  H1531  1  0.177700  0.929900  0.289800  1.0
  H  H1532  1  0.677700  0.070100  0.710200  1.0
  H  H1533  1  0.677700  0.929900  0.210200  1.0
  H  H1534  1  0.177700  0.070100  0.789800  1.0
  H  H1535  1  0.822300  0.070100  0.710200  1.0
  H  H1536  1  0.322300  0.929900  0.289800  1.0
  H  H1537  1  0.284600  0.038900  0.740500  1.0
  H  H1538  1  0.784600  0.961100  0.259500  1.0
  H  H1539  1  0.215400  0.961100  0.240500  1.0
  H  H1540  1  0.715400  0.038900  0.759500  1.0
  H  H1541  1  0.715400  0.961100  0.259500  1.0
  H  H1542  1  0.215400  0.038900  0.740500  1.0
  H  H1543  1  0.784600  0.038900  0.759500  1.0
  H  H1544  1  0.284600  0.961100  0.240500  1.0
  H  H1545  1  0.324200  0.030900  0.724000  1.0
  H  H1546  1  0.824200  0.969100  0.276000  1.0
  H  H1547  1  0.175800  0.969100  0.224000  1.0
  H  H1548  1  0.675800  0.030900  0.776000  1.0
  H  H1549  1  0.675800  0.969100  0.276000  1.0
  H  H1550  1  0.175800  0.030900  0.724000  1.0
  H  H1551  1  0.824200  0.030900  0.776000  1.0
  H  H1552  1  0.324200  0.969100  0.224000  1.0
  H  H1553  1  0.285800  0.073000  0.803800  1.0
  H  H1554  1  0.785800  0.927000  0.196200  1.0
  H  H1555  1  0.214200  0.927000  0.303800  1.0
  H  H1556  1  0.714200  0.073000  0.696200  1.0
  H  H1557  1  0.714200  0.927000  0.196200  1.0
  H  H1558  1  0.214200  0.073000  0.803800  1.0
  H  H1559  1  0.785800  0.073000  0.696200  1.0
  H  H1560  1  0.285800  0.927000  0.303800  1.0
  H  H1561  1  0.250000  0.082600  0.823700  1.0
  H  H1562  1  0.750000  0.917400  0.176300  1.0
  H  H1563  1  0.250000  0.917400  0.323700  1.0
  H  H1564  1  0.750000  0.082600  0.676300  1.0
  H  H1565  1  0.250000  0.055400  0.754800  1.0
  H  H1566  1  0.750000  0.944600  0.245200  1.0
  H  H1567  1  0.250000  0.944600  0.254800  1.0
  H  H1568  1  0.750000  0.055400  0.745200  1.0
  H  H1569  1  0.282900  0.178400  0.596600  1.0
  H  H1570  1  0.782900  0.821600  0.403400  1.0
  H  H1571  1  0.217100  0.821600  0.096600  1.0
  H  H1572  1  0.717100  0.178400  0.903400  1.0
  H  H1573  1  0.717100  0.821600  0.403400  1.0
  H  H1574  1  0.217100  0.178400  0.596600  1.0
  H  H1575  1  0.782900  0.178400  0.903400  1.0
  H  H1576  1  0.282900  0.821600  0.096600  1.0
  H  H1577  1  0.315900  0.180500  0.622000  1.0
  H  H1578  1  0.815900  0.819500  0.378000  1.0
  H  H1579  1  0.184100  0.819500  0.122000  1.0
  H  H1580  1  0.684100  0.180500  0.878000  1.0
  H  H1581  1  0.684100  0.819500  0.378000  1.0
  H  H1582  1  0.184100  0.180500  0.622000  1.0
  H  H1583  1  0.815900  0.180500  0.878000  1.0
  H  H1584  1  0.315900  0.819500  0.122000  1.0
  H  H1585  1  0.310900  0.109500  0.631200  1.0
  H  H1586  1  0.810900  0.890500  0.368800  1.0
  H  H1587  1  0.189100  0.890500  0.131200  1.0
  H  H1588  1  0.689100  0.109500  0.868800  1.0
  H  H1589  1  0.689100  0.890500  0.368800  1.0
  H  H1590  1  0.189100  0.109500  0.631200  1.0
  H  H1591  1  0.810900  0.109500  0.868800  1.0
  H  H1592  1  0.310900  0.890500  0.131200  1.0
  H  H1593  1  0.277900  0.107400  0.605700  1.0
  H  H1594  1  0.777900  0.892600  0.394300  1.0
  H  H1595  1  0.222100  0.892600  0.105700  1.0
  H  H1596  1  0.722100  0.107400  0.894300  1.0
  H  H1597  1  0.722100  0.892600  0.394300  1.0
  H  H1598  1  0.222100  0.107400  0.605700  1.0
  H  H1599  1  0.777900  0.107400  0.894300  1.0
  H  H1600  1  0.277900  0.892600  0.105700  1.0
  H  H1601  1  0.277500  0.169900  0.542200  1.0
  H  H1602  1  0.777500  0.830100  0.457800  1.0
  H  H1603  1  0.222500  0.830100  0.042200  1.0
  H  H1604  1  0.722500  0.169900  0.957800  1.0
  H  H1605  1  0.722500  0.830100  0.457800  1.0
  H  H1606  1  0.222500  0.169900  0.542200  1.0
  H  H1607  1  0.777500  0.169900  0.957800  1.0
  H  H1608  1  0.277500  0.830100  0.042200  1.0
  H  H1609  1  0.313800  0.165800  0.520200  1.0
  H  H1610  1  0.813800  0.834200  0.479800  1.0
  H  H1611  1  0.186200  0.834200  0.020200  1.0
  H  H1612  1  0.686200  0.165800  0.979800  1.0
  H  H1613  1  0.686200  0.834200  0.479800  1.0
  H  H1614  1  0.186200  0.165800  0.520200  1.0
  H  H1615  1  0.813800  0.165800  0.979800  1.0
  H  H1616  1  0.313800  0.834200  0.020200  1.0
  H  H1617  1  0.320300  0.097000  0.538200  1.0
  H  H1618  1  0.820300  0.903000  0.461800  1.0
  H  H1619  1  0.179700  0.903000  0.038200  1.0
  H  H1620  1  0.679700  0.097000  0.961800  1.0
  H  H1621  1  0.679700  0.903000  0.461800  1.0
  H  H1622  1  0.179700  0.097000  0.538200  1.0
  H  H1623  1  0.820300  0.097000  0.961800  1.0
  H  H1624  1  0.320300  0.903000  0.038200  1.0
  H  H1625  1  0.284100  0.101200  0.560100  1.0
  H  H1626  1  0.784100  0.898800  0.439900  1.0
  H  H1627  1  0.215900  0.898800  0.060100  1.0
  H  H1628  1  0.715900  0.101200  0.939900  1.0
  H  H1629  1  0.715900  0.898800  0.439900  1.0
  H  H1630  1  0.215900  0.101200  0.560100  1.0
  H  H1631  1  0.784100  0.101200  0.939900  1.0
  H  H1632  1  0.284100  0.898800  0.060100  1.0
  H  H1633  1  0.357900  0.159000  0.513500  1.0
  H  H1634  1  0.857900  0.841000  0.486500  1.0
  H  H1635  1  0.142100  0.841000  0.013500  1.0
  H  H1636  1  0.642100  0.159000  0.986500  1.0
  H  H1637  1  0.642100  0.841000  0.486500  1.0
  H  H1638  1  0.142100  0.159000  0.513500  1.0
  H  H1639  1  0.857900  0.159000  0.986500  1.0
  H  H1640  1  0.357900  0.841000  0.013500  1.0
  H  H1641  1  0.393900  0.149600  0.492500  1.0
  H  H1642  1  0.893900  0.850400  0.507500  1.0
  H  H1643  1  0.106100  0.850400  0.992500  1.0
  H  H1644  1  0.606100  0.149600  0.007500  1.0
  H  H1645  1  0.606100  0.850400  0.507500  1.0
  H  H1646  1  0.106100  0.149600  0.492500  1.0
  H  H1647  1  0.893900  0.149600  0.007500  1.0
  H  H1648  1  0.393900  0.850400  0.992500  1.0
  H  H1649  1  0.364600  0.084000  0.482200  1.0
  H  H1650  1  0.864600  0.916000  0.517800  1.0
  H  H1651  1  0.135400  0.916000  0.982200  1.0
  H  H1652  1  0.635400  0.084000  0.017800  1.0
  H  H1653  1  0.635400  0.916000  0.517800  1.0
  H  H1654  1  0.135400  0.084000  0.482200  1.0
  H  H1655  1  0.864600  0.084000  0.017800  1.0
  H  H1656  1  0.364600  0.916000  0.982200  1.0
  H  H1657  1  0.328700  0.093400  0.503200  1.0
  H  H1658  1  0.828700  0.906600  0.496800  1.0
  H  H1659  1  0.171300  0.906600  0.003200  1.0
  H  H1660  1  0.671300  0.093400  0.996800  1.0
  H  H1661  1  0.671300  0.906600  0.496800  1.0
  H  H1662  1  0.171300  0.093400  0.503200  1.0
  H  H1663  1  0.828700  0.093400  0.996800  1.0
  H  H1664  1  0.328700  0.906600  0.003200  1.0
  H  H1665  1  0.267500  0.868100  0.276300  0.5
  H  H1666  1  0.767500  0.131900  0.723700  0.5
  H  H1667  1  0.232500  0.131900  0.776300  0.5
  H  H1668  1  0.732500  0.868100  0.223700  0.5
  H  H1669  1  0.732500  0.131900  0.723700  0.5
  H  H1670  1  0.232500  0.868100  0.276300  0.5
  H  H1671  1  0.767500  0.868100  0.223700  0.5
  H  H1672  1  0.267500  0.131900  0.776300  0.5
  H  H1673  1  0.243300  0.852800  0.269300  0.5
  H  H1674  1  0.743300  0.147200  0.730700  0.5
  H  H1675  1  0.256700  0.147200  0.769300  0.5
  H  H1676  1  0.756700  0.852800  0.230700  0.5
  H  H1677  1  0.756700  0.147200  0.730700  0.5
  H  H1678  1  0.256700  0.852800  0.269300  0.5
  H  H1679  1  0.743300  0.852800  0.230700  0.5
  H  H1680  1  0.243300  0.147200  0.769300  0.5
  H  H1681  1  0.239200  0.877600  0.280600  0.5
  H  H1682  1  0.739200  0.122400  0.719400  0.5
  H  H1683  1  0.260800  0.122400  0.780600  0.5
  H  H1684  1  0.760800  0.877600  0.219400  0.5
  H  H1685  1  0.760800  0.122400  0.719400  0.5
  H  H1686  1  0.260800  0.877600  0.280600  0.5
  H  H1687  1  0.739200  0.877600  0.219400  0.5
  H  H1688  1  0.239200  0.122400  0.780600  0.5
  H  H1689  1  0.232400  0.564300  0.314900  0.5
  H  H1690  1  0.732400  0.435700  0.685100  0.5
  H  H1691  1  0.267600  0.435700  0.814900  0.5
  H  H1692  1  0.767600  0.564300  0.185100  0.5
  H  H1693  1  0.767600  0.435700  0.685100  0.5
  H  H1694  1  0.267600  0.564300  0.314900  0.5
  H  H1695  1  0.732400  0.564300  0.185100  0.5
  H  H1696  1  0.232400  0.435700  0.814900  0.5
  H  H1697  1  0.258900  0.572000  0.304500  0.5
  H  H1698  1  0.758900  0.428000  0.695500  0.5
  H  H1699  1  0.241100  0.428000  0.804500  0.5
  H  H1700  1  0.741100  0.572000  0.195500  0.5
  H  H1701  1  0.741100  0.428000  0.695500  0.5
  H  H1702  1  0.241100  0.572000  0.304500  0.5
  H  H1703  1  0.758900  0.572000  0.195500  0.5
  H  H1704  1  0.258900  0.428000  0.804500  0.5
  H  H1705  1  0.258700  0.556400  0.325500  0.5
  H  H1706  1  0.758700  0.443600  0.674500  0.5
  H  H1707  1  0.241300  0.443600  0.825500  0.5
  H  H1708  1  0.741300  0.556400  0.174500  0.5
  H  H1709  1  0.741300  0.443600  0.674500  0.5
  H  H1710  1  0.241300  0.556400  0.325500  0.5
  H  H1711  1  0.758700  0.556400  0.174500  0.5
  H  H1712  1  0.258700  0.443600  0.825500  0.5
  Pd  Pd1713  1  0.250000  0.641100  0.862380  1.0
  Pd  Pd1714  1  0.750000  0.358900  0.137620  1.0
  Pd  Pd1715  1  0.250000  0.358900  0.362380  1.0
  Pd  Pd1716  1  0.750000  0.641100  0.637620  1.0
  Pd  Pd1717  1  0.380060  0.494990  0.732500  1.0
  Pd  Pd1718  1  0.880060  0.505010  0.267500  1.0
  Pd  Pd1719  1  0.119940  0.505010  0.232500  1.0
  Pd  Pd1720  1  0.619940  0.494990  0.767500  1.0
  Pd  Pd1721  1  0.619940  0.505010  0.267500  1.0
  Pd  Pd1722  1  0.119940  0.494990  0.732500  1.0
  Pd  Pd1723  1  0.880060  0.494990  0.767500  1.0
  Pd  Pd1724  1  0.380060  0.505010  0.232500  1.0
  Pd  Pd1725  1  0.489280  0.617130  0.369090  1.0
  Pd  Pd1726  1  0.989280  0.382870  0.630910  1.0
  Pd  Pd1727  1  0.010720  0.382870  0.869090  1.0
  Pd  Pd1728  1  0.510720  0.617130  0.130910  1.0
  Pd  Pd1729  1  0.510720  0.382870  0.630910  1.0
  Pd  Pd1730  1  0.010720  0.617130  0.369090  1.0
  Pd  Pd1731  1  0.989280  0.617130  0.130910  1.0
  Pd  Pd1732  1  0.489280  0.382870  0.869090  1.0
  Pd  Pd1733  1  0.621750  0.754870  0.506040  1.0
  Pd  Pd1734  1  0.121750  0.245130  0.493960  1.0
  Pd  Pd1735  1  0.878250  0.245130  0.006040  1.0
  Pd  Pd1736  1  0.378250  0.754870  0.993960  1.0
  Pd  Pd1737  1  0.378250  0.245130  0.493960  1.0
  Pd  Pd1738  1  0.878250  0.754870  0.506040  1.0
  Pd  Pd1739  1  0.121750  0.754870  0.993960  1.0
  Pd  Pd1740  1  0.621750  0.245130  0.006040  1.0
  Pd  Pd1741  1  0.381530  0.038040  0.732980  1.0
  Pd  Pd1742  1  0.881530  0.961960  0.267020  1.0
  Pd  Pd1743  1  0.118470  0.961960  0.232980  1.0
  Pd  Pd1744  1  0.618470  0.038040  0.767020  1.0
  Pd  Pd1745  1  0.618470  0.961960  0.267020  1.0
  Pd  Pd1746  1  0.118470  0.038040  0.732980  1.0
  Pd  Pd1747  1  0.881530  0.038040  0.767020  1.0
  Pd  Pd1748  1  0.381530  0.961960  0.232980  1.0
  Pd  Pd1749  1  0.488000  0.853590  0.346680  1.0
  Pd  Pd1750  1  0.988000  0.146410  0.653320  1.0
  Pd  Pd1751  1  0.012000  0.146410  0.846680  1.0
  Pd  Pd1752  1  0.512000  0.853590  0.153320  1.0
  Pd  Pd1753  1  0.512000  0.146410  0.653320  1.0
  Pd  Pd1754  1  0.012000  0.853590  0.346680  1.0
  Pd  Pd1755  1  0.988000  0.853590  0.153320  1.0
  Pd  Pd1756  1  0.488000  0.146410  0.846680  1.0
  Pd  Pd1757  1  0.250000  0.141020  0.575700  1.0
  Pd  Pd1758  1  0.750000  0.858980  0.424300  1.0
  Pd  Pd1759  1  0.250000  0.858980  0.075700  1.0
  Pd  Pd1760  1  0.750000  0.141020  0.924300  1.0
  C  C1761  1  0.286840  0.609800  0.838400  1.0
  C  C1762  1  0.786840  0.390200  0.161600  1.0
  C  C1763  1  0.213160  0.390200  0.338400  1.0
  C  C1764  1  0.713160  0.609800  0.661600  1.0
  C  C1765  1  0.713160  0.390200  0.161600  1.0
  C  C1766  1  0.213160  0.609800  0.838400  1.0
  C  C1767  1  0.786840  0.609800  0.661600  1.0
  C  C1768  1  0.286840  0.390200  0.338400  1.0
  C  C1769  1  0.306800  0.593180  0.836230  1.0
  C  C1770  1  0.806800  0.406820  0.163770  1.0
  C  C1771  1  0.193200  0.406820  0.336230  1.0
  C  C1772  1  0.693200  0.593180  0.663770  1.0
  C  C1773  1  0.693200  0.406820  0.163770  1.0
  C  C1774  1  0.193200  0.593180  0.836230  1.0
  C  C1775  1  0.806800  0.593180  0.663770  1.0
  C  C1776  1  0.306800  0.406820  0.336230  1.0
  C  C1777  1  0.318680  0.583690  0.854430  1.0
  C  C1778  1  0.818680  0.416310  0.145570  1.0
  C  C1779  1  0.181320  0.416310  0.354430  1.0
  C  C1780  1  0.681320  0.583690  0.645570  1.0
  C  C1781  1  0.681320  0.416310  0.145570  1.0
  C  C1782  1  0.181320  0.583690  0.854430  1.0
  C  C1783  1  0.818680  0.583690  0.645570  1.0
  C  C1784  1  0.318680  0.416310  0.354430  1.0
  C  C1785  1  0.310600  0.590820  0.874800  1.0
  C  C1786  1  0.810600  0.409180  0.125200  1.0
  C  C1787  1  0.189400  0.409180  0.374800  1.0
  C  C1788  1  0.689400  0.590820  0.625200  1.0
  C  C1789  1  0.689400  0.409180  0.125200  1.0
  C  C1790  1  0.189400  0.590820  0.874800  1.0
  C  C1791  1  0.810600  0.590820  0.625200  1.0
  C  C1792  1  0.310600  0.409180  0.374800  1.0
  C  C1793  1  0.290640  0.607450  0.876960  1.0
  C  C1794  1  0.790640  0.392550  0.123040  1.0
  C  C1795  1  0.209360  0.392550  0.376960  1.0
  C  C1796  1  0.709360  0.607450  0.623040  1.0
  C  C1797  1  0.709360  0.392550  0.123040  1.0
  C  C1798  1  0.209360  0.607450  0.876960  1.0
  C  C1799  1  0.790640  0.607450  0.623040  1.0
  C  C1800  1  0.290640  0.392550  0.376960  1.0
  C  C1801  1  0.356010  0.563440  0.860560  1.0
  C  C1802  1  0.856010  0.436560  0.139440  1.0
  C  C1803  1  0.143990  0.436560  0.360560  1.0
  C  C1804  1  0.643990  0.563440  0.639440  1.0
  C  C1805  1  0.643990  0.436560  0.139440  1.0
  C  C1806  1  0.143990  0.563440  0.860560  1.0
  C  C1807  1  0.856010  0.563440  0.639440  1.0
  C  C1808  1  0.356010  0.436560  0.360560  1.0
  C  C1809  1  0.338770  0.569160  0.846500  1.0
  C  C1810  1  0.838770  0.430840  0.153500  1.0
  C  C1811  1  0.161230  0.430840  0.346500  1.0
  C  C1812  1  0.661230  0.569160  0.653500  1.0
  C  C1813  1  0.661230  0.430840  0.153500  1.0
  C  C1814  1  0.161230  0.569160  0.846500  1.0
  C  C1815  1  0.838770  0.569160  0.653500  1.0
  C  C1816  1  0.338770  0.430840  0.346500  1.0
  C  C1817  1  0.343400  0.557470  0.826140  1.0
  C  C1818  1  0.843400  0.442530  0.173860  1.0
  C  C1819  1  0.156600  0.442530  0.326140  1.0
  C  C1820  1  0.656600  0.557470  0.673860  1.0
  C  C1821  1  0.656600  0.442530  0.173860  1.0
  C  C1822  1  0.156600  0.557470  0.826140  1.0
  C  C1823  1  0.843400  0.557470  0.673860  1.0
  C  C1824  1  0.343400  0.442530  0.326140  1.0
  C  C1825  1  0.365270  0.540030  0.821830  1.0
  C  C1826  1  0.865270  0.459970  0.178170  1.0
  C  C1827  1  0.134730  0.459970  0.321830  1.0
  C  C1828  1  0.634730  0.540030  0.678170  1.0
  C  C1829  1  0.634730  0.459970  0.178170  1.0
  C  C1830  1  0.134730  0.540030  0.821830  1.0
  C  C1831  1  0.865270  0.540030  0.678170  1.0
  C  C1832  1  0.365270  0.459970  0.321830  1.0
  C  C1833  1  0.382490  0.537250  0.838930  1.0
  C  C1834  1  0.882490  0.462750  0.161070  1.0
  C  C1835  1  0.117510  0.462750  0.338930  1.0
  C  C1836  1  0.617510  0.537250  0.661070  1.0
  C  C1837  1  0.617510  0.462750  0.161070  1.0
  C  C1838  1  0.117510  0.537250  0.838930  1.0
  C  C1839  1  0.882490  0.537250  0.661070  1.0
  C  C1840  1  0.382490  0.462750  0.338930  1.0
  C  C1841  1  0.377860  0.548970  0.858280  1.0
  C  C1842  1  0.877860  0.451030  0.141720  1.0
  C  C1843  1  0.122140  0.451030  0.358280  1.0
  C  C1844  1  0.622140  0.548970  0.641720  1.0
  C  C1845  1  0.622140  0.451030  0.141720  1.0
  C  C1846  1  0.122140  0.548970  0.858280  1.0
  C  C1847  1  0.877860  0.548970  0.641720  1.0
  C  C1848  1  0.377860  0.451030  0.358280  1.0
  C  C1849  1  0.281700  0.675700  0.886550  1.0
  C  C1850  1  0.781700  0.324300  0.113450  1.0
  C  C1851  1  0.218300  0.324300  0.386550  1.0
  C  C1852  1  0.718300  0.675700  0.613450  1.0
  C  C1853  1  0.718300  0.324300  0.113450  1.0
  C  C1854  1  0.218300  0.675700  0.886550  1.0
  C  C1855  1  0.781700  0.675700  0.613450  1.0
  C  C1856  1  0.281700  0.324300  0.386550  1.0
  C  C1857  1  0.299140  0.694520  0.888890  1.0
  C  C1858  1  0.799140  0.305480  0.111110  1.0
  C  C1859  1  0.200860  0.305480  0.388890  1.0
  C  C1860  1  0.700860  0.694520  0.611110  1.0
  C  C1861  1  0.700860  0.305480  0.111110  1.0
  C  C1862  1  0.200860  0.694520  0.888890  1.0
  C  C1863  1  0.799140  0.694520  0.611110  1.0
  C  C1864  1  0.299140  0.305480  0.388890  1.0
  C  C1865  1  0.311990  0.703670  0.871000  1.0
  C  C1866  1  0.811990  0.296330  0.129000  1.0
  C  C1867  1  0.188010  0.296330  0.371000  1.0
  C  C1868  1  0.688010  0.703670  0.629000  1.0
  C  C1869  1  0.688010  0.296330  0.129000  1.0
  C  C1870  1  0.188010  0.703670  0.871000  1.0
  C  C1871  1  0.811990  0.703670  0.629000  1.0
  C  C1872  1  0.311990  0.296330  0.371000  1.0
  C  C1873  1  0.307390  0.693980  0.850760  1.0
  C  C1874  1  0.807390  0.306020  0.149240  1.0
  C  C1875  1  0.192610  0.306020  0.350760  1.0
  C  C1876  1  0.692610  0.693980  0.649240  1.0
  C  C1877  1  0.692610  0.306020  0.149240  1.0
  C  C1878  1  0.192610  0.693980  0.850760  1.0
  C  C1879  1  0.807390  0.693980  0.649240  1.0
  C  C1880  1  0.307390  0.306020  0.350760  1.0
  C  C1881  1  0.289940  0.675140  0.848400  1.0
  C  C1882  1  0.789940  0.324860  0.151600  1.0
  C  C1883  1  0.210060  0.324860  0.348400  1.0
  C  C1884  1  0.710060  0.675140  0.651600  1.0
  C  C1885  1  0.710060  0.324860  0.151600  1.0
  C  C1886  1  0.210060  0.675140  0.848400  1.0
  C  C1887  1  0.789940  0.675140  0.651600  1.0
  C  C1888  1  0.289940  0.324860  0.348400  1.0
  C  C1889  1  0.330850  0.724420  0.872760  1.0
  C  C1890  1  0.830850  0.275580  0.127240  1.0
  C  C1891  1  0.169150  0.275580  0.372760  1.0
  C  C1892  1  0.669150  0.724420  0.627240  1.0
  C  C1893  1  0.669150  0.275580  0.127240  1.0
  C  C1894  1  0.169150  0.724420  0.872760  1.0
  C  C1895  1  0.830850  0.724420  0.627240  1.0
  C  C1896  1  0.330850  0.275580  0.372760  1.0
  C  C1897  1  0.334260  0.736930  0.891900  1.0
  C  C1898  1  0.834260  0.263070  0.108100  1.0
  C  C1899  1  0.165740  0.263070  0.391900  1.0
  C  C1900  1  0.665740  0.736930  0.608100  1.0
  C  C1901  1  0.665740  0.263070  0.108100  1.0
  C  C1902  1  0.165740  0.736930  0.891900  1.0
  C  C1903  1  0.834260  0.736930  0.608100  1.0
  C  C1904  1  0.334260  0.263070  0.391900  1.0
  C  C1905  1  0.352630  0.755120  0.893100  1.0
  C  C1906  1  0.852630  0.244880  0.106900  1.0
  C  C1907  1  0.147370  0.244880  0.393100  1.0
  C  C1908  1  0.647370  0.755120  0.606900  1.0
  C  C1909  1  0.647370  0.244880  0.106900  1.0
  C  C1910  1  0.147370  0.755120  0.893100  1.0
  C  C1911  1  0.852630  0.755120  0.606900  1.0
  C  C1912  1  0.352630  0.244880  0.393100  1.0
  C  C1913  1  0.367590  0.760840  0.875170  1.0
  C  C1914  1  0.867590  0.239160  0.124830  1.0
  C  C1915  1  0.132410  0.239160  0.375170  1.0
  C  C1916  1  0.632410  0.760840  0.624830  1.0
  C  C1917  1  0.632410  0.239160  0.124830  1.0
  C  C1918  1  0.132410  0.760840  0.875170  1.0
  C  C1919  1  0.867590  0.760840  0.624830  1.0
  C  C1920  1  0.367590  0.239160  0.375170  1.0
  C  C1921  1  0.364190  0.748370  0.856040  1.0
  C  C1922  1  0.864190  0.251630  0.143960  1.0
  C  C1923  1  0.135810  0.251630  0.356040  1.0
  C  C1924  1  0.635810  0.748370  0.643960  1.0
  C  C1925  1  0.635810  0.251630  0.143960  1.0
  C  C1926  1  0.135810  0.748370  0.856040  1.0
  C  C1927  1  0.864190  0.748370  0.643960  1.0
  C  C1928  1  0.364190  0.251630  0.356040  1.0
  C  C1929  1  0.345820  0.730150  0.854840  1.0
  C  C1930  1  0.845820  0.269850  0.145160  1.0
  C  C1931  1  0.154180  0.269850  0.354840  1.0
  C  C1932  1  0.654180  0.730150  0.645160  1.0
  C  C1933  1  0.654180  0.269850  0.145160  1.0
  C  C1934  1  0.154180  0.730150  0.854840  1.0
  C  C1935  1  0.845820  0.730150  0.645160  1.0
  C  C1936  1  0.345820  0.269850  0.354840  1.0
  C  C1937  1  0.384700  0.780400  0.876000  1.0
  C  C1938  1  0.884700  0.219600  0.124000  1.0
  C  C1939  1  0.115300  0.219600  0.376000  1.0
  C  C1940  1  0.615300  0.780400  0.624000  1.0
  C  C1941  1  0.615300  0.219600  0.124000  1.0
  C  C1942  1  0.115300  0.780400  0.876000  1.0
  C  C1943  1  0.884700  0.780400  0.624000  1.0
  C  C1944  1  0.384700  0.219600  0.376000  1.0
  C  C1945  1  0.398800  0.798500  0.875700  1.0
  C  C1946  1  0.898800  0.201500  0.124300  1.0
  C  C1947  1  0.101200  0.201500  0.375700  1.0
  C  C1948  1  0.601200  0.798500  0.624300  1.0
  C  C1949  1  0.601200  0.201500  0.124300  1.0
  C  C1950  1  0.101200  0.798500  0.875700  1.0
  C  C1951  1  0.898800  0.798500  0.624300  1.0
  C  C1952  1  0.398800  0.201500  0.375700  1.0
  C  C1953  1  0.415700  0.818900  0.873900  1.0
  C  C1954  1  0.915700  0.181100  0.126100  1.0
  C  C1955  1  0.084300  0.181100  0.373900  1.0
  C  C1956  1  0.584300  0.818900  0.626100  1.0
  C  C1957  1  0.584300  0.181100  0.126100  1.0
  C  C1958  1  0.084300  0.818900  0.873900  1.0
  C  C1959  1  0.915700  0.818900  0.626100  1.0
  C  C1960  1  0.415700  0.181100  0.373900  1.0
  C  C1961  1  0.410000  0.837400  0.859700  1.0
  C  C1962  1  0.910000  0.162600  0.140300  1.0
  C  C1963  1  0.090000  0.162600  0.359700  1.0
  C  C1964  1  0.590000  0.837400  0.640300  1.0
  C  C1965  1  0.590000  0.162600  0.140300  1.0
  C  C1966  1  0.090000  0.837400  0.859700  1.0
  C  C1967  1  0.910000  0.837400  0.640300  1.0
  C  C1968  1  0.410000  0.162600  0.359700  1.0
  C  C1969  1  0.426700  0.856900  0.858200  1.0
  C  C1970  1  0.926700  0.143100  0.141800  1.0
  C  C1971  1  0.073300  0.143100  0.358200  1.0
  C  C1972  1  0.573300  0.856900  0.641800  1.0
  C  C1973  1  0.573300  0.143100  0.141800  1.0
  C  C1974  1  0.073300  0.856900  0.858200  1.0
  C  C1975  1  0.926700  0.856900  0.641800  1.0
  C  C1976  1  0.426700  0.143100  0.358200  1.0
  C  C1977  1  0.449000  0.857900  0.870800  1.0
  C  C1978  1  0.949000  0.142100  0.129200  1.0
  C  C1979  1  0.051000  0.142100  0.370800  1.0
  C  C1980  1  0.551000  0.857900  0.629200  1.0
  C  C1981  1  0.551000  0.142100  0.129200  1.0
  C  C1982  1  0.051000  0.857900  0.870800  1.0
  C  C1983  1  0.949000  0.857900  0.629200  1.0
  C  C1984  1  0.449000  0.142100  0.370800  1.0
  C  C1985  1  0.454700  0.839400  0.885000  1.0
  C  C1986  1  0.954700  0.160600  0.115000  1.0
  C  C1987  1  0.045300  0.160600  0.385000  1.0
  C  C1988  1  0.545300  0.839400  0.615000  1.0
  C  C1989  1  0.545300  0.160600  0.115000  1.0
  C  C1990  1  0.045300  0.839400  0.885000  1.0
  C  C1991  1  0.954700  0.839400  0.615000  1.0
  C  C1992  1  0.454700  0.160600  0.385000  1.0
  C  C1993  1  0.438000  0.819900  0.886500  1.0
  C  C1994  1  0.938000  0.180100  0.113500  1.0
  C  C1995  1  0.062000  0.180100  0.386500  1.0
  C  C1996  1  0.562000  0.819900  0.613500  1.0
  C  C1997  1  0.562000  0.180100  0.113500  1.0
  C  C1998  1  0.062000  0.819900  0.886500  1.0
  C  C1999  1  0.938000  0.819900  0.613500  1.0
  C  C2000  1  0.438000  0.180100  0.386500  1.0
  C  C2001  1  0.386100  0.836400  0.846000  1.0
  C  C2002  1  0.886100  0.163600  0.154000  1.0
  C  C2003  1  0.113900  0.163600  0.346000  1.0
  C  C2004  1  0.613900  0.836400  0.654000  1.0
  C  C2005  1  0.613900  0.163600  0.154000  1.0
  C  C2006  1  0.113900  0.836400  0.846000  1.0
  C  C2007  1  0.886100  0.836400  0.654000  1.0
  C  C2008  1  0.386100  0.163600  0.346000  1.0
  C  C2009  1  0.420800  0.876400  0.844200  1.0
  C  C2010  1  0.920800  0.123600  0.155800  1.0
  C  C2011  1  0.079200  0.123600  0.344200  1.0
  C  C2012  1  0.579200  0.876400  0.655800  1.0
  C  C2013  1  0.579200  0.123600  0.155800  1.0
  C  C2014  1  0.079200  0.876400  0.844200  1.0
  C  C2015  1  0.920800  0.876400  0.655800  1.0
  C  C2016  1  0.420800  0.123600  0.344200  1.0
  C  C2017  1  0.416900  0.892100  0.830400  1.0
  C  C2018  1  0.916900  0.107900  0.169600  1.0
  C  C2019  1  0.083100  0.107900  0.330400  1.0
  C  C2020  1  0.583100  0.892100  0.669600  1.0
  C  C2021  1  0.583100  0.107900  0.169600  1.0
  C  C2022  1  0.083100  0.892100  0.830400  1.0
  C  C2023  1  0.916900  0.892100  0.669600  1.0
  C  C2024  1  0.416900  0.107900  0.330400  1.0
  C  C2025  1  0.391360  0.503290  0.778390  1.0
  C  C2026  1  0.891360  0.496710  0.221610  1.0
  C  C2027  1  0.108640  0.496710  0.278390  1.0
  C  C2028  1  0.608640  0.503290  0.721610  1.0
  C  C2029  1  0.608640  0.496710  0.221610  1.0
  C  C2030  1  0.108640  0.503290  0.778390  1.0
  C  C2031  1  0.891360  0.503290  0.721610  1.0
  C  C2032  1  0.391360  0.496710  0.278390  1.0
  C  C2033  1  0.386800  0.512140  0.798960  1.0
  C  C2034  1  0.886800  0.487860  0.201040  1.0
  C  C2035  1  0.113200  0.487860  0.298960  1.0
  C  C2036  1  0.613200  0.512140  0.701040  1.0
  C  C2037  1  0.613200  0.487860  0.201040  1.0
  C  C2038  1  0.113200  0.512140  0.798960  1.0
  C  C2039  1  0.886800  0.512140  0.701040  1.0
  C  C2040  1  0.386800  0.487860  0.298960  1.0
  C  C2041  1  0.365990  0.527520  0.802610  1.0
  C  C2042  1  0.865990  0.472480  0.197390  1.0
  C  C2043  1  0.134010  0.472480  0.302610  1.0
  C  C2044  1  0.634010  0.527520  0.697390  1.0
  C  C2045  1  0.634010  0.472480  0.197390  1.0
  C  C2046  1  0.134010  0.527520  0.802610  1.0
  C  C2047  1  0.865990  0.527520  0.697390  1.0
  C  C2048  1  0.365990  0.472480  0.302610  1.0
  C  C2049  1  0.349750  0.534070  0.785710  1.0
  C  C2050  1  0.849750  0.465930  0.214290  1.0
  C  C2051  1  0.150250  0.465930  0.285710  1.0
  C  C2052  1  0.650250  0.534070  0.714290  1.0
  C  C2053  1  0.650250  0.465930  0.214290  1.0
  C  C2054  1  0.150250  0.534070  0.785710  1.0
  C  C2055  1  0.849750  0.534070  0.714290  1.0
  C  C2056  1  0.349750  0.465930  0.285710  1.0
  C  C2057  1  0.354310  0.525220  0.765140  1.0
  C  C2058  1  0.854310  0.474780  0.234860  1.0
  C  C2059  1  0.145690  0.474780  0.265140  1.0
  C  C2060  1  0.645690  0.525220  0.734860  1.0
  C  C2061  1  0.645690  0.474780  0.234860  1.0
  C  C2062  1  0.145690  0.525220  0.765140  1.0
  C  C2063  1  0.854310  0.525220  0.734860  1.0
  C  C2064  1  0.354310  0.474780  0.265140  1.0
  C  C2065  1  0.416870  0.535250  0.729260  1.0
  C  C2066  1  0.916870  0.464750  0.270740  1.0
  C  C2067  1  0.083130  0.464750  0.229260  1.0
  C  C2068  1  0.583130  0.535250  0.770740  1.0
  C  C2069  1  0.583130  0.464750  0.270740  1.0
  C  C2070  1  0.083130  0.535250  0.729260  1.0
  C  C2071  1  0.916870  0.535250  0.770740  1.0
  C  C2072  1  0.416870  0.464750  0.229260  1.0
  C  C2073  1  0.440830  0.546050  0.725440  1.0
  C  C2074  1  0.940830  0.453950  0.274560  1.0
  C  C2075  1  0.059170  0.453950  0.225440  1.0
  C  C2076  1  0.559170  0.546050  0.774560  1.0
  C  C2077  1  0.559170  0.453950  0.274560  1.0
  C  C2078  1  0.059170  0.546050  0.725440  1.0
  C  C2079  1  0.940830  0.546050  0.774560  1.0
  C  C2080  1  0.440830  0.453950  0.225440  1.0
  C  C2081  1  0.463350  0.532260  0.724670  1.0
  C  C2082  1  0.963350  0.467740  0.275330  1.0
  C  C2083  1  0.036650  0.467740  0.224670  1.0
  C  C2084  1  0.536650  0.532260  0.775330  1.0
  C  C2085  1  0.536650  0.467740  0.275330  1.0
  C  C2086  1  0.036650  0.532260  0.724670  1.0
  C  C2087  1  0.963350  0.532260  0.775330  1.0
  C  C2088  1  0.463350  0.467740  0.224670  1.0
  C  C2089  1  0.461920  0.507680  0.727710  1.0
  C  C2090  1  0.961920  0.492320  0.272290  1.0
  C  C2091  1  0.038080  0.492320  0.227710  1.0
  C  C2092  1  0.538080  0.507680  0.772290  1.0
  C  C2093  1  0.538080  0.492320  0.272290  1.0
  C  C2094  1  0.038080  0.507680  0.727710  1.0
  C  C2095  1  0.961920  0.507680  0.772290  1.0
  C  C2096  1  0.461920  0.492320  0.227710  1.0
  C  C2097  1  0.437960  0.496880  0.731520  1.0
  C  C2098  1  0.937960  0.503120  0.268480  1.0
  C  C2099  1  0.062040  0.503120  0.231520  1.0
  C  C2100  1  0.562040  0.496880  0.768480  1.0
  C  C2101  1  0.562040  0.503120  0.268480  1.0
  C  C2102  1  0.062040  0.496880  0.731520  1.0
  C  C2103  1  0.937960  0.496880  0.768480  1.0
  C  C2104  1  0.437960  0.503120  0.231520  1.0
  C  C2105  1  0.511280  0.526890  0.717040  1.0
  C  C2106  1  0.011280  0.473110  0.282960  1.0
  C  C2107  1  0.988720  0.473110  0.217040  1.0
  C  C2108  1  0.488720  0.526890  0.782960  1.0
  C  C2109  1  0.488720  0.473110  0.282960  1.0
  C  C2110  1  0.988720  0.526890  0.717040  1.0
  C  C2111  1  0.011280  0.526890  0.782960  1.0
  C  C2112  1  0.511280  0.473110  0.217040  1.0
  C  C2113  1  0.535650  0.536920  0.713260  1.0
  C  C2114  1  0.035650  0.463080  0.286740  1.0
  C  C2115  1  0.964350  0.463080  0.213260  1.0
  C  C2116  1  0.464350  0.536920  0.786740  1.0
  C  C2117  1  0.464350  0.463080  0.286740  1.0
  C  C2118  1  0.964350  0.536920  0.713260  1.0
  C  C2119  1  0.035650  0.536920  0.786740  1.0
  C  C2120  1  0.535650  0.463080  0.213260  1.0
  C  C2121  1  0.538630  0.561620  0.713270  1.0
  C  C2122  1  0.038630  0.438380  0.286730  1.0
  C  C2123  1  0.961370  0.438380  0.213270  1.0
  C  C2124  1  0.461370  0.561620  0.786730  1.0
  C  C2125  1  0.461370  0.438380  0.286730  1.0
  C  C2126  1  0.961370  0.561620  0.713270  1.0
  C  C2127  1  0.038630  0.561620  0.786730  1.0
  C  C2128  1  0.538630  0.438380  0.213270  1.0
  C  C2129  1  0.517250  0.576280  0.717060  1.0
  C  C2130  1  0.017250  0.423720  0.282940  1.0
  C  C2131  1  0.982750  0.423720  0.217060  1.0
  C  C2132  1  0.482750  0.576280  0.782940  1.0
  C  C2133  1  0.482750  0.423720  0.282940  1.0
  C  C2134  1  0.982750  0.576280  0.717060  1.0
  C  C2135  1  0.017250  0.576280  0.782940  1.0
  C  C2136  1  0.517250  0.423720  0.217060  1.0
  C  C2137  1  0.492880  0.566260  0.720830  1.0
  C  C2138  1  0.992880  0.433740  0.279170  1.0
  C  C2139  1  0.007120  0.433740  0.220830  1.0
  C  C2140  1  0.507120  0.566260  0.779170  1.0
  C  C2141  1  0.507120  0.433740  0.279170  1.0
  C  C2142  1  0.007120  0.566260  0.720830  1.0
  C  C2143  1  0.992880  0.566260  0.779170  1.0
  C  C2144  1  0.492880  0.433740  0.220830  1.0
  C  C2145  1  0.489900  0.541570  0.720820  1.0
  C  C2146  1  0.989900  0.458430  0.279180  1.0
  C  C2147  1  0.010100  0.458430  0.220820  1.0
  C  C2148  1  0.510100  0.541570  0.779180  1.0
  C  C2149  1  0.510100  0.458430  0.279180  1.0
  C  C2150  1  0.010100  0.541570  0.720820  1.0
  C  C2151  1  0.989900  0.541570  0.779180  1.0
  C  C2152  1  0.489900  0.458430  0.220820  1.0
  C  C2153  1  0.563500  0.571700  0.710900  1.0
  C  C2154  1  0.063500  0.428300  0.289100  1.0
  C  C2155  1  0.936500  0.428300  0.210900  1.0
  C  C2156  1  0.436500  0.571700  0.789100  1.0
  C  C2157  1  0.436500  0.428300  0.289100  1.0
  C  C2158  1  0.936500  0.571700  0.710900  1.0
  C  C2159  1  0.063500  0.571700  0.789100  1.0
  C  C2160  1  0.563500  0.428300  0.210900  1.0
  C  C2161  1  0.583700  0.581400  0.707100  1.0
  C  C2162  1  0.083700  0.418600  0.292900  1.0
  C  C2163  1  0.916300  0.418600  0.207100  1.0
  C  C2164  1  0.416300  0.581400  0.792900  1.0
  C  C2165  1  0.416300  0.418600  0.292900  1.0
  C  C2166  1  0.916300  0.581400  0.707100  1.0
  C  C2167  1  0.083700  0.581400  0.792900  1.0
  C  C2168  1  0.583700  0.418600  0.207100  1.0
  C  C2169  1  0.605900  0.594700  0.702300  1.0
  C  C2170  1  0.105900  0.405300  0.297700  1.0
  C  C2171  1  0.894100  0.405300  0.202300  1.0
  C  C2172  1  0.394100  0.594700  0.797700  1.0
  C  C2173  1  0.394100  0.405300  0.297700  1.0
  C  C2174  1  0.894100  0.594700  0.702300  1.0
  C  C2175  1  0.105900  0.594700  0.797700  1.0
  C  C2176  1  0.605900  0.405300  0.202300  1.0
  C  C2177  1  0.625900  0.596200  0.717300  1.0
  C  C2178  1  0.125900  0.403800  0.282700  1.0
  C  C2179  1  0.874100  0.403800  0.217300  1.0
  C  C2180  1  0.374100  0.596200  0.782700  1.0
  C  C2181  1  0.374100  0.403800  0.282700  1.0
  C  C2182  1  0.874100  0.596200  0.717300  1.0
  C  C2183  1  0.125900  0.596200  0.782700  1.0
  C  C2184  1  0.625900  0.403800  0.217300  1.0
  C  C2185  1  0.647600  0.610300  0.713200  1.0
  C  C2186  1  0.147600  0.389700  0.286800  1.0
  C  C2187  1  0.852400  0.389700  0.213200  1.0
  C  C2188  1  0.352400  0.610300  0.786800  1.0
  C  C2189  1  0.352400  0.389700  0.286800  1.0
  C  C2190  1  0.852400  0.610300  0.713200  1.0
  C  C2191  1  0.147600  0.610300  0.786800  1.0
  C  C2192  1  0.647600  0.389700  0.213200  1.0
  C  C2193  1  0.649400  0.622900  0.694000  1.0
  C  C2194  1  0.149400  0.377100  0.306000  1.0
  C  C2195  1  0.850600  0.377100  0.194000  1.0
  C  C2196  1  0.350600  0.622900  0.806000  1.0
  C  C2197  1  0.350600  0.377100  0.306000  1.0
  C  C2198  1  0.850600  0.622900  0.694000  1.0
  C  C2199  1  0.149400  0.622900  0.806000  1.0
  C  C2200  1  0.649400  0.377100  0.194000  1.0
  C  C2201  1  0.629400  0.621500  0.678900  1.0
  C  C2202  1  0.129400  0.378500  0.321100  1.0
  C  C2203  1  0.870600  0.378500  0.178900  1.0
  C  C2204  1  0.370600  0.621500  0.821100  1.0
  C  C2205  1  0.370600  0.378500  0.321100  1.0
  C  C2206  1  0.870600  0.621500  0.678900  1.0
  C  C2207  1  0.129400  0.621500  0.821100  1.0
  C  C2208  1  0.629400  0.378500  0.178900  1.0
  C  C2209  1  0.607660  0.607400  0.683100  1.0
  C  C2210  1  0.107660  0.392600  0.316900  1.0
  C  C2211  1  0.892340  0.392600  0.183100  1.0
  C  C2212  1  0.392340  0.607400  0.816900  1.0
  C  C2213  1  0.392340  0.392600  0.316900  1.0
  C  C2214  1  0.892340  0.607400  0.683100  1.0
  C  C2215  1  0.107660  0.607400  0.816900  1.0
  C  C2216  1  0.607660  0.392600  0.183100  1.0
  C  C2217  1  0.586900  0.605900  0.666900  1.0
  C  C2218  1  0.086900  0.394100  0.333100  1.0
  C  C2219  1  0.913100  0.394100  0.166900  1.0
  C  C2220  1  0.413100  0.605900  0.833100  1.0
  C  C2221  1  0.413100  0.394100  0.333100  1.0
  C  C2222  1  0.913100  0.605900  0.666900  1.0
  C  C2223  1  0.086900  0.605900  0.833100  1.0
  C  C2224  1  0.586900  0.394100  0.166900  1.0
  C  C2225  1  0.392200  0.457600  0.698660  1.0
  C  C2226  1  0.892200  0.542400  0.301340  1.0
  C  C2227  1  0.107800  0.542400  0.198660  1.0
  C  C2228  1  0.607800  0.457600  0.801340  1.0
  C  C2229  1  0.607800  0.542400  0.301340  1.0
  C  C2230  1  0.107800  0.457600  0.698660  1.0
  C  C2231  1  0.892200  0.457600  0.801340  1.0
  C  C2232  1  0.392200  0.542400  0.198660  1.0
  C  C2233  1  0.400160  0.451400  0.678030  1.0
  C  C2234  1  0.900160  0.548600  0.321970  1.0
  C  C2235  1  0.099840  0.548600  0.178030  1.0
  C  C2236  1  0.599840  0.451400  0.821970  1.0
  C  C2237  1  0.599840  0.548600  0.321970  1.0
  C  C2238  1  0.099840  0.451400  0.678030  1.0
  C  C2239  1  0.900160  0.451400  0.821970  1.0
  C  C2240  1  0.400160  0.548600  0.178030  1.0
  C  C2241  1  0.399320  0.468220  0.661580  1.0
  C  C2242  1  0.899320  0.531780  0.338420  1.0
  C  C2243  1  0.100680  0.531780  0.161580  1.0
  C  C2244  1  0.600680  0.468220  0.838420  1.0
  C  C2245  1  0.600680  0.531780  0.338420  1.0
  C  C2246  1  0.100680  0.468220  0.661580  1.0
  C  C2247  1  0.899320  0.468220  0.838420  1.0
  C  C2248  1  0.399320  0.531780  0.161580  1.0
  C  C2249  1  0.390500  0.491250  0.665770  1.0
  C  C2250  1  0.890500  0.508750  0.334230  1.0
  C  C2251  1  0.109500  0.508750  0.165770  1.0
  C  C2252  1  0.609500  0.491250  0.834230  1.0
  C  C2253  1  0.609500  0.508750  0.334230  1.0
  C  C2254  1  0.109500  0.491250  0.665770  1.0
  C  C2255  1  0.890500  0.491250  0.834230  1.0
  C  C2256  1  0.390500  0.508750  0.165770  1.0
  C  C2257  1  0.382500  0.497450  0.686400  1.0
  C  C2258  1  0.882500  0.502550  0.313600  1.0
  C  C2259  1  0.117500  0.502550  0.186400  1.0
  C  C2260  1  0.617500  0.497450  0.813600  1.0
  C  C2261  1  0.617500  0.502550  0.313600  1.0
  C  C2262  1  0.117500  0.497450  0.686400  1.0
  C  C2263  1  0.882500  0.497450  0.813600  1.0
  C  C2264  1  0.382500  0.502550  0.186400  1.0
  C  C2265  1  0.409470  0.458890  0.638970  1.0
  C  C2266  1  0.909470  0.541110  0.361030  1.0
  C  C2267  1  0.090530  0.541110  0.138970  1.0
  C  C2268  1  0.590530  0.458890  0.861030  1.0
  C  C2269  1  0.590530  0.541110  0.361030  1.0
  C  C2270  1  0.090530  0.458890  0.638970  1.0
  C  C2271  1  0.909470  0.458890  0.861030  1.0
  C  C2272  1  0.409470  0.541110  0.138970  1.0
  C  C2273  1  0.415300  0.435200  0.634280  1.0
  C  C2274  1  0.915300  0.564800  0.365720  1.0
  C  C2275  1  0.084700  0.564800  0.134280  1.0
  C  C2276  1  0.584700  0.435200  0.865720  1.0
  C  C2277  1  0.584700  0.564800  0.365720  1.0
  C  C2278  1  0.084700  0.435200  0.634280  1.0
  C  C2279  1  0.915300  0.435200  0.865720  1.0
  C  C2280  1  0.415300  0.564800  0.134280  1.0
  C  C2281  1  0.423700  0.428920  0.613750  1.0
  C  C2282  1  0.923700  0.571080  0.386250  1.0
  C  C2283  1  0.076300  0.571080  0.113750  1.0
  C  C2284  1  0.576300  0.428920  0.886250  1.0
  C  C2285  1  0.576300  0.571080  0.386250  1.0
  C  C2286  1  0.076300  0.428920  0.613750  1.0
  C  C2287  1  0.923700  0.428920  0.886250  1.0
  C  C2288  1  0.423700  0.571080  0.113750  1.0
  C  C2289  1  0.426100  0.446330  0.597930  1.0
  C  C2290  1  0.926100  0.553670  0.402070  1.0
  C  C2291  1  0.073900  0.553670  0.097930  1.0
  C  C2292  1  0.573900  0.446330  0.902070  1.0
  C  C2293  1  0.573900  0.553670  0.402070  1.0
  C  C2294  1  0.073900  0.446330  0.597930  1.0
  C  C2295  1  0.926100  0.446330  0.902070  1.0
  C  C2296  1  0.426100  0.553670  0.097930  1.0
  C  C2297  1  0.420300  0.470020  0.602610  1.0
  C  C2298  1  0.920300  0.529980  0.397390  1.0
  C  C2299  1  0.079700  0.529980  0.102610  1.0
  C  C2300  1  0.579700  0.470020  0.897390  1.0
  C  C2301  1  0.579700  0.529980  0.397390  1.0
  C  C2302  1  0.079700  0.470020  0.602610  1.0
  C  C2303  1  0.920300  0.470020  0.897390  1.0
  C  C2304  1  0.420300  0.529980  0.102610  1.0
  C  C2305  1  0.411900  0.476300  0.623140  1.0
  C  C2306  1  0.911900  0.523700  0.376860  1.0
  C  C2307  1  0.088100  0.523700  0.123140  1.0
  C  C2308  1  0.588100  0.476300  0.876860  1.0
  C  C2309  1  0.588100  0.523700  0.376860  1.0
  C  C2310  1  0.088100  0.476300  0.623140  1.0
  C  C2311  1  0.911900  0.476300  0.876860  1.0
  C  C2312  1  0.411900  0.523700  0.123140  1.0
  C  C2313  1  0.435400  0.440300  0.578500  1.0
  C  C2314  1  0.935400  0.559700  0.421500  1.0
  C  C2315  1  0.064600  0.559700  0.078500  1.0
  C  C2316  1  0.564600  0.440300  0.921500  1.0
  C  C2317  1  0.564600  0.559700  0.421500  1.0
  C  C2318  1  0.064600  0.440300  0.578500  1.0
  C  C2319  1  0.935400  0.440300  0.921500  1.0
  C  C2320  1  0.435400  0.559700  0.078500  1.0
  C  C2321  1  0.446000  0.435400  0.562400  1.0
  C  C2322  1  0.946000  0.564600  0.437600  1.0
  C  C2323  1  0.054000  0.564600  0.062400  1.0
  C  C2324  1  0.554000  0.435400  0.937600  1.0
  C  C2325  1  0.554000  0.564600  0.437600  1.0
  C  C2326  1  0.054000  0.435400  0.562400  1.0
  C  C2327  1  0.946000  0.435400  0.937600  1.0
  C  C2328  1  0.446000  0.564600  0.062400  1.0
  C  C2329  1  0.460500  0.430000  0.543300  1.0
  C  C2330  1  0.960500  0.570000  0.456700  1.0
  C  C2331  1  0.039500  0.570000  0.043300  1.0
  C  C2332  1  0.539500  0.430000  0.956700  1.0
  C  C2333  1  0.539500  0.570000  0.456700  1.0
  C  C2334  1  0.039500  0.430000  0.543300  1.0
  C  C2335  1  0.960500  0.430000  0.956700  1.0
  C  C2336  1  0.460500  0.570000  0.043300  1.0
  C  C2337  1  0.472400  0.407800  0.541000  1.0
  C  C2338  1  0.972400  0.592200  0.459000  1.0
  C  C2339  1  0.027600  0.592200  0.041000  1.0
  C  C2340  1  0.527600  0.407800  0.959000  1.0
  C  C2341  1  0.527600  0.592200  0.459000  1.0
  C  C2342  1  0.027600  0.407800  0.541000  1.0
  C  C2343  1  0.972400  0.407800  0.959000  1.0
  C  C2344  1  0.472400  0.592200  0.041000  1.0
  C  C2345  1  0.486500  0.402600  0.522500  1.0
  C  C2346  1  0.986500  0.597400  0.477500  1.0
  C  C2347  1  0.013500  0.597400  0.022500  1.0
  C  C2348  1  0.513500  0.402600  0.977500  1.0
  C  C2349  1  0.513500  0.597400  0.477500  1.0
  C  C2350  1  0.013500  0.402600  0.522500  1.0
  C  C2351  1  0.986500  0.402600  0.977500  1.0
  C  C2352  1  0.486500  0.597400  0.022500  1.0
  C  C2353  1  0.488700  0.419500  0.506300  1.0
  C  C2354  1  0.988700  0.580500  0.493700  1.0
  C  C2355  1  0.011300  0.580500  0.006300  1.0
  C  C2356  1  0.511300  0.419500  0.993700  1.0
  C  C2357  1  0.511300  0.580500  0.493700  1.0
  C  C2358  1  0.011300  0.419500  0.506300  1.0
  C  C2359  1  0.988700  0.419500  0.993700  1.0
  C  C2360  1  0.488700  0.580500  0.006300  1.0
  C  C2361  1  0.476800  0.441700  0.508500  1.0
  C  C2362  1  0.976800  0.558300  0.491500  1.0
  C  C2363  1  0.023200  0.558300  0.008500  1.0
  C  C2364  1  0.523200  0.441700  0.991500  1.0
  C  C2365  1  0.523200  0.558300  0.491500  1.0
  C  C2366  1  0.023200  0.441700  0.508500  1.0
  C  C2367  1  0.976800  0.441700  0.991500  1.0
  C  C2368  1  0.476800  0.558300  0.008500  1.0
  C  C2369  1  0.462700  0.446900  0.527050  1.0
  C  C2370  1  0.962700  0.553100  0.472950  1.0
  C  C2371  1  0.037300  0.553100  0.027050  1.0
  C  C2372  1  0.537300  0.446900  0.972950  1.0
  C  C2373  1  0.537300  0.553100  0.472950  1.0
  C  C2374  1  0.037300  0.446900  0.527050  1.0
  C  C2375  1  0.962700  0.446900  0.972950  1.0
  C  C2376  1  0.462700  0.553100  0.027050  1.0
  C  C2377  1  0.450500  0.470500  0.529700  1.0
  C  C2378  1  0.950500  0.529500  0.470300  1.0
  C  C2379  1  0.049500  0.529500  0.029700  1.0
  C  C2380  1  0.549500  0.470500  0.970300  1.0
  C  C2381  1  0.549500  0.529500  0.470300  1.0
  C  C2382  1  0.049500  0.470500  0.529700  1.0
  C  C2383  1  0.950500  0.470500  0.970300  1.0
  C  C2384  1  0.450500  0.529500  0.029700  1.0
  C  C2385  1  0.344390  0.456680  0.745100  1.0
  C  C2386  1  0.844390  0.543320  0.254900  1.0
  C  C2387  1  0.155610  0.543320  0.245100  1.0
  C  C2388  1  0.655610  0.456680  0.754900  1.0
  C  C2389  1  0.655610  0.543320  0.254900  1.0
  C  C2390  1  0.155610  0.456680  0.745100  1.0
  C  C2391  1  0.844390  0.456680  0.754900  1.0
  C  C2392  1  0.344390  0.543320  0.245100  1.0
  C  C2393  1  0.320700  0.444860  0.747200  1.0
  C  C2394  1  0.820700  0.555140  0.252800  1.0
  C  C2395  1  0.179300  0.555140  0.247200  1.0
  C  C2396  1  0.679300  0.444860  0.752800  1.0
  C  C2397  1  0.679300  0.555140  0.252800  1.0
  C  C2398  1  0.179300  0.444860  0.747200  1.0
  C  C2399  1  0.820700  0.444860  0.752800  1.0
  C  C2400  1  0.320700  0.555140  0.247200  1.0
  C  C2401  1  0.298340  0.454400  0.738000  1.0
  C  C2402  1  0.798340  0.545600  0.262000  1.0
  C  C2403  1  0.201660  0.545600  0.238000  1.0
  C  C2404  1  0.701660  0.454400  0.762000  1.0
  C  C2405  1  0.701660  0.545600  0.262000  1.0
  C  C2406  1  0.201660  0.454400  0.738000  1.0
  C  C2407  1  0.798340  0.454400  0.762000  1.0
  C  C2408  1  0.298340  0.545600  0.238000  1.0
  C  C2409  1  0.299670  0.475800  0.726600  1.0
  C  C2410  1  0.799670  0.524200  0.273400  1.0
  C  C2411  1  0.200330  0.524200  0.226600  1.0
  C  C2412  1  0.700330  0.475800  0.773400  1.0
  C  C2413  1  0.700330  0.524200  0.273400  1.0
  C  C2414  1  0.200330  0.475800  0.726600  1.0
  C  C2415  1  0.799670  0.475800  0.773400  1.0
  C  C2416  1  0.299670  0.524200  0.226600  1.0
  C  C2417  1  0.323400  0.487590  0.724510  1.0
  C  C2418  1  0.823400  0.512410  0.275490  1.0
  C  C2419  1  0.176600  0.512410  0.224510  1.0
  C  C2420  1  0.676600  0.487590  0.775490  1.0
  C  C2421  1  0.676600  0.512410  0.275490  1.0
  C  C2422  1  0.176600  0.487590  0.724510  1.0
  C  C2423  1  0.823400  0.487590  0.775490  1.0
  C  C2424  1  0.323400  0.512410  0.224510  1.0
  C  C2425  1  0.274200  0.442000  0.740300  1.0
  C  C2426  1  0.774200  0.558000  0.259700  1.0
  C  C2427  1  0.225800  0.558000  0.240300  1.0
  C  C2428  1  0.725800  0.442000  0.759700  1.0
  C  C2429  1  0.725800  0.558000  0.259700  1.0
  C  C2430  1  0.225800  0.442000  0.740300  1.0
  C  C2431  1  0.774200  0.442000  0.759700  1.0
  C  C2432  1  0.274200  0.558000  0.240300  1.0
  C  C2433  1  0.272900  0.417200  0.743700  1.0
  C  C2434  1  0.772900  0.582800  0.256300  1.0
  C  C2435  1  0.227100  0.582800  0.243700  1.0
  C  C2436  1  0.727100  0.417200  0.756300  1.0
  C  C2437  1  0.727100  0.582800  0.256300  1.0
  C  C2438  1  0.227100  0.417200  0.743700  1.0
  C  C2439  1  0.772900  0.417200  0.756300  1.0
  C  C2440  1  0.272900  0.582800  0.243700  1.0
  C  C2441  1  0.250000  0.403200  0.745800  1.0
  C  C2442  1  0.750000  0.596800  0.254200  1.0
  C  C2443  1  0.250000  0.596800  0.245800  1.0
  C  C2444  1  0.750000  0.403200  0.754200  1.0
  C  C2445  1  0.250000  0.452400  0.738100  1.0
  C  C2446  1  0.750000  0.547600  0.261900  1.0
  C  C2447  1  0.250000  0.547600  0.238100  1.0
  C  C2448  1  0.750000  0.452400  0.761900  1.0
  C  C2449  1  0.545000  0.624300  0.372650  1.0
  C  C2450  1  0.045000  0.375700  0.627350  1.0
  C  C2451  1  0.955000  0.375700  0.872650  1.0
  C  C2452  1  0.455000  0.624300  0.127350  1.0
  C  C2453  1  0.455000  0.375700  0.627350  1.0
  C  C2454  1  0.955000  0.624300  0.372650  1.0
  C  C2455  1  0.045000  0.624300  0.127350  1.0
  C  C2456  1  0.545000  0.375700  0.872650  1.0
  C  C2457  1  0.567550  0.634100  0.381300  1.0
  C  C2458  1  0.067550  0.365900  0.618700  1.0
  C  C2459  1  0.932450  0.365900  0.881300  1.0
  C  C2460  1  0.432450  0.634100  0.118700  1.0
  C  C2461  1  0.432450  0.365900  0.618700  1.0
  C  C2462  1  0.932450  0.634100  0.381300  1.0
  C  C2463  1  0.067550  0.634100  0.118700  1.0
  C  C2464  1  0.567550  0.365900  0.881300  1.0
  C  C2465  1  0.566630  0.645800  0.401100  1.0
  C  C2466  1  0.066630  0.354200  0.598900  1.0
  C  C2467  1  0.933370  0.354200  0.901100  1.0
  C  C2468  1  0.433370  0.645800  0.098900  1.0
  C  C2469  1  0.433370  0.354200  0.598900  1.0
  C  C2470  1  0.933370  0.645800  0.401100  1.0
  C  C2471  1  0.066630  0.645800  0.098900  1.0
  C  C2472  1  0.566630  0.354200  0.901100  1.0
  C  C2473  1  0.543200  0.647700  0.412130  1.0
  C  C2474  1  0.043200  0.352300  0.587870  1.0
  C  C2475  1  0.956800  0.352300  0.912130  1.0
  C  C2476  1  0.456800  0.647700  0.087870  1.0
  C  C2477  1  0.456800  0.352300  0.587870  1.0
  C  C2478  1  0.956800  0.647700  0.412130  1.0
  C  C2479  1  0.043200  0.647700  0.087870  1.0
  C  C2480  1  0.543200  0.352300  0.912130  1.0
  C  C2481  1  0.520600  0.637900  0.403430  1.0
  C  C2482  1  0.020600  0.362100  0.596570  1.0
  C  C2483  1  0.979400  0.362100  0.903430  1.0
  C  C2484  1  0.479400  0.637900  0.096570  1.0
  C  C2485  1  0.479400  0.362100  0.596570  1.0
  C  C2486  1  0.979400  0.637900  0.403430  1.0
  C  C2487  1  0.020600  0.637900  0.096570  1.0
  C  C2488  1  0.520600  0.362100  0.903430  1.0
  C  C2489  1  0.608510  0.636560  0.407110  1.0
  C  C2490  1  0.108510  0.363440  0.592890  1.0
  C  C2491  1  0.891490  0.363440  0.907110  1.0
  C  C2492  1  0.391490  0.636560  0.092890  1.0
  C  C2493  1  0.391490  0.363440  0.592890  1.0
  C  C2494  1  0.891490  0.636560  0.407110  1.0
  C  C2495  1  0.108510  0.636560  0.092890  1.0
  C  C2496  1  0.608510  0.363440  0.907110  1.0
  C  C2497  1  0.589950  0.654550  0.408880  1.0
  C  C2498  1  0.089950  0.345450  0.591120  1.0
  C  C2499  1  0.910050  0.345450  0.908880  1.0
  C  C2500  1  0.410050  0.654550  0.091120  1.0
  C  C2501  1  0.410050  0.345450  0.591120  1.0
  C  C2502  1  0.910050  0.654550  0.408880  1.0
  C  C2503  1  0.089950  0.654550  0.091120  1.0
  C  C2504  1  0.589950  0.345450  0.908880  1.0
  C  C2505  1  0.594950  0.674510  0.421540  1.0
  C  C2506  1  0.094950  0.325490  0.578460  1.0
  C  C2507  1  0.905050  0.325490  0.921540  1.0
  C  C2508  1  0.405050  0.674510  0.078460  1.0
  C  C2509  1  0.405050  0.325490  0.578460  1.0
  C  C2510  1  0.905050  0.674510  0.421540  1.0
  C  C2511  1  0.094950  0.674510  0.078460  1.0
  C  C2512  1  0.594950  0.325490  0.921540  1.0
  C  C2513  1  0.618510  0.676470  0.432440  1.0
  C  C2514  1  0.118510  0.323530  0.567560  1.0
  C  C2515  1  0.881490  0.323530  0.932440  1.0
  C  C2516  1  0.381490  0.676470  0.067560  1.0
  C  C2517  1  0.381490  0.323530  0.567560  1.0
  C  C2518  1  0.881490  0.676470  0.432440  1.0
  C  C2519  1  0.118510  0.676470  0.067560  1.0
  C  C2520  1  0.618510  0.323530  0.932440  1.0
  C  C2521  1  0.637070  0.658480  0.430670  1.0
  C  C2522  1  0.137070  0.341520  0.569330  1.0
  C  C2523  1  0.862930  0.341520  0.930670  1.0
  C  C2524  1  0.362930  0.658480  0.069330  1.0
  C  C2525  1  0.362930  0.341520  0.569330  1.0
  C  C2526  1  0.862930  0.658480  0.430670  1.0
  C  C2527  1  0.137070  0.658480  0.069330  1.0
  C  C2528  1  0.637070  0.341520  0.930670  1.0
  C  C2529  1  0.632070  0.638520  0.418000  1.0
  C  C2530  1  0.132070  0.361480  0.582000  1.0
  C  C2531  1  0.867930  0.361480  0.918000  1.0
  C  C2532  1  0.367930  0.638520  0.082000  1.0
  C  C2533  1  0.367930  0.361480  0.582000  1.0
  C  C2534  1  0.867930  0.638520  0.418000  1.0
  C  C2535  1  0.132070  0.638520  0.082000  1.0
  C  C2536  1  0.632070  0.361480  0.918000  1.0
  C  C2537  1  0.499500  0.645300  0.331200  1.0
  C  C2538  1  0.999500  0.354700  0.668800  1.0
  C  C2539  1  0.000500  0.354700  0.831200  1.0
  C  C2540  1  0.500500  0.645300  0.168800  1.0
  C  C2541  1  0.500500  0.354700  0.668800  1.0
  C  C2542  1  0.000500  0.645300  0.331200  1.0
  C  C2543  1  0.999500  0.645300  0.168800  1.0
  C  C2544  1  0.499500  0.354700  0.831200  1.0
  C  C2545  1  0.508840  0.663940  0.315000  1.0
  C  C2546  1  0.008840  0.336060  0.685000  1.0
  C  C2547  1  0.991160  0.336060  0.815000  1.0
  C  C2548  1  0.491160  0.663940  0.185000  1.0
  C  C2549  1  0.491160  0.336060  0.685000  1.0
  C  C2550  1  0.991160  0.663940  0.315000  1.0
  C  C2551  1  0.008840  0.663940  0.185000  1.0
  C  C2552  1  0.508840  0.336060  0.815000  1.0
  C  C2553  1  0.502430  0.686010  0.323790  1.0
  C  C2554  1  0.002430  0.313990  0.676210  1.0
  C  C2555  1  0.997570  0.313990  0.823790  1.0
  C  C2556  1  0.497570  0.686010  0.176210  1.0
  C  C2557  1  0.497570  0.313990  0.676210  1.0
  C  C2558  1  0.997570  0.686010  0.323790  1.0
  C  C2559  1  0.002430  0.686010  0.176210  1.0
  C  C2560  1  0.502430  0.313990  0.823790  1.0
  C  C2561  1  0.491190  0.687270  0.344110  1.0
  C  C2562  1  0.991190  0.312730  0.655890  1.0
  C  C2563  1  0.008810  0.312730  0.844110  1.0
  C  C2564  1  0.508810  0.687270  0.155890  1.0
  C  C2565  1  0.508810  0.312730  0.655890  1.0
  C  C2566  1  0.008810  0.687270  0.344110  1.0
  C  C2567  1  0.991190  0.687270  0.155890  1.0
  C  C2568  1  0.491190  0.312730  0.844110  1.0
  C  C2569  1  0.486370  0.666450  0.355650  1.0
  C  C2570  1  0.986370  0.333550  0.644350  1.0
  C  C2571  1  0.013630  0.333550  0.855650  1.0
  C  C2572  1  0.513630  0.666450  0.144350  1.0
  C  C2573  1  0.513630  0.333550  0.644350  1.0
  C  C2574  1  0.013630  0.666450  0.355650  1.0
  C  C2575  1  0.986370  0.666450  0.144350  1.0
  C  C2576  1  0.486370  0.333550  0.855650  1.0
  C  C2577  1  0.506060  0.709040  0.313980  1.0
  C  C2578  1  0.006060  0.290960  0.686020  1.0
  C  C2579  1  0.993940  0.290960  0.813980  1.0
  C  C2580  1  0.493940  0.709040  0.186020  1.0
  C  C2581  1  0.493940  0.290960  0.686020  1.0
  C  C2582  1  0.993940  0.709040  0.313980  1.0
  C  C2583  1  0.006060  0.709040  0.186020  1.0
  C  C2584  1  0.506060  0.290960  0.813980  1.0
  C  C2585  1  0.511870  0.731300  0.322520  1.0
  C  C2586  1  0.011870  0.268700  0.677480  1.0
  C  C2587  1  0.988130  0.268700  0.822520  1.0
  C  C2588  1  0.488130  0.731300  0.177480  1.0
  C  C2589  1  0.488130  0.268700  0.677480  1.0
  C  C2590  1  0.988130  0.731300  0.322520  1.0
  C  C2591  1  0.011870  0.731300  0.177480  1.0
  C  C2592  1  0.511870  0.268700  0.822520  1.0
  C  C2593  1  0.504860  0.751900  0.310580  1.0
  C  C2594  1  0.004860  0.248100  0.689420  1.0
  C  C2595  1  0.995140  0.248100  0.810580  1.0
  C  C2596  1  0.495140  0.751900  0.189420  1.0
  C  C2597  1  0.495140  0.248100  0.689420  1.0
  C  C2598  1  0.995140  0.751900  0.310580  1.0
  C  C2599  1  0.004860  0.751900  0.189420  1.0
  C  C2600  1  0.504860  0.248100  0.810580  1.0
  C  C2601  1  0.501030  0.750220  0.290170  1.0
  C  C2602  1  0.001030  0.249780  0.709830  1.0
  C  C2603  1  0.998970  0.249780  0.790170  1.0
  C  C2604  1  0.498970  0.750220  0.209830  1.0
  C  C2605  1  0.498970  0.249780  0.709830  1.0
  C  C2606  1  0.998970  0.750220  0.290170  1.0
  C  C2607  1  0.001030  0.750220  0.209830  1.0
  C  C2608  1  0.501030  0.249780  0.790170  1.0
  C  C2609  1  0.500220  0.727950  0.281670  1.0
  C  C2610  1  0.000220  0.272050  0.718330  1.0
  C  C2611  1  0.999780  0.272050  0.781670  1.0
  C  C2612  1  0.499780  0.727950  0.218330  1.0
  C  C2613  1  0.499780  0.272050  0.718330  1.0
  C  C2614  1  0.999780  0.727950  0.281670  1.0
  C  C2615  1  0.000220  0.727950  0.218330  1.0
  C  C2616  1  0.500220  0.272050  0.781670  1.0
  C  C2617  1  0.502250  0.707370  0.293570  1.0
  C  C2618  1  0.002250  0.292630  0.706430  1.0
  C  C2619  1  0.997750  0.292630  0.793570  1.0
  C  C2620  1  0.497750  0.707370  0.206430  1.0
  C  C2621  1  0.497750  0.292630  0.706430  1.0
  C  C2622  1  0.997750  0.707370  0.293570  1.0
  C  C2623  1  0.002250  0.707370  0.206430  1.0
  C  C2624  1  0.502250  0.292630  0.793570  1.0
  C  C2625  1  0.497450  0.816230  0.316320  1.0
  C  C2626  1  0.997450  0.183770  0.683680  1.0
  C  C2627  1  0.002550  0.183770  0.816320  1.0
  C  C2628  1  0.502550  0.816230  0.183680  1.0
  C  C2629  1  0.502550  0.183770  0.683680  1.0
  C  C2630  1  0.002550  0.816230  0.316320  1.0
  C  C2631  1  0.997450  0.816230  0.183680  1.0
  C  C2632  1  0.497450  0.183770  0.816320  1.0
  C  C2633  1  0.503200  0.793470  0.308690  1.0
  C  C2634  1  0.003200  0.206530  0.691310  1.0
  C  C2635  1  0.996800  0.206530  0.808690  1.0
  C  C2636  1  0.496800  0.793470  0.191310  1.0
  C  C2637  1  0.496800  0.206530  0.691310  1.0
  C  C2638  1  0.996800  0.793470  0.308690  1.0
  C  C2639  1  0.003200  0.793470  0.191310  1.0
  C  C2640  1  0.503200  0.206530  0.808690  1.0
  C  C2641  1  0.497530  0.773520  0.321190  1.0
  C  C2642  1  0.997530  0.226480  0.678810  1.0
  C  C2643  1  0.002470  0.226480  0.821190  1.0
  C  C2644  1  0.502470  0.773520  0.178810  1.0
  C  C2645  1  0.502470  0.226480  0.678810  1.0
  C  C2646  1  0.002470  0.773520  0.321190  1.0
  C  C2647  1  0.997530  0.773520  0.178810  1.0
  C  C2648  1  0.497530  0.226480  0.821190  1.0
  C  C2649  1  0.486110  0.776360  0.341320  1.0
  C  C2650  1  0.986110  0.223640  0.658680  1.0
  C  C2651  1  0.013890  0.223640  0.841320  1.0
  C  C2652  1  0.513890  0.776360  0.158680  1.0
  C  C2653  1  0.513890  0.223640  0.658680  1.0
  C  C2654  1  0.013890  0.776360  0.341320  1.0
  C  C2655  1  0.986110  0.776360  0.158680  1.0
  C  C2656  1  0.486110  0.223640  0.841320  1.0
  C  C2657  1  0.480360  0.799130  0.348940  1.0
  C  C2658  1  0.980360  0.200870  0.651060  1.0
  C  C2659  1  0.019640  0.200870  0.848940  1.0
  C  C2660  1  0.519640  0.799130  0.151060  1.0
  C  C2661  1  0.519640  0.200870  0.651060  1.0
  C  C2662  1  0.019640  0.799130  0.348940  1.0
  C  C2663  1  0.980360  0.799130  0.151060  1.0
  C  C2664  1  0.480360  0.200870  0.848940  1.0
  C  C2665  1  0.549920  0.852180  0.360940  1.0
  C  C2666  1  0.049920  0.147820  0.639060  1.0
  C  C2667  1  0.950080  0.147820  0.860940  1.0
  C  C2668  1  0.450080  0.852180  0.139060  1.0
  C  C2669  1  0.450080  0.147820  0.639060  1.0
  C  C2670  1  0.950080  0.852180  0.360940  1.0
  C  C2671  1  0.049920  0.852180  0.139060  1.0
  C  C2672  1  0.549920  0.147820  0.860940  1.0
  C  C2673  1  0.572450  0.850580  0.373270  1.0
  C  C2674  1  0.072450  0.149420  0.626730  1.0
  C  C2675  1  0.927550  0.149420  0.873270  1.0
  C  C2676  1  0.427550  0.850580  0.126730  1.0
  C  C2677  1  0.427550  0.149420  0.626730  1.0
  C  C2678  1  0.927550  0.850580  0.373270  1.0
  C  C2679  1  0.072450  0.850580  0.126730  1.0
  C  C2680  1  0.572450  0.149420  0.873270  1.0
  C  C2681  1  0.573080  0.845650  0.391240  1.0
  C  C2682  1  0.073080  0.154350  0.608760  1.0
  C  C2683  1  0.926920  0.154350  0.891240  1.0
  C  C2684  1  0.426920  0.845650  0.108760  1.0
  C  C2685  1  0.426920  0.154350  0.608760  1.0
  C  C2686  1  0.926920  0.845650  0.391240  1.0
  C  C2687  1  0.073080  0.845650  0.108760  1.0
  C  C2688  1  0.573080  0.154350  0.891240  1.0
  C  C2689  1  0.551200  0.842370  0.396870  1.0
  C  C2690  1  0.051200  0.157630  0.603130  1.0
  C  C2691  1  0.948800  0.157630  0.896870  1.0
  C  C2692  1  0.448800  0.842370  0.103130  1.0
  C  C2693  1  0.448800  0.157630  0.603130  1.0
  C  C2694  1  0.948800  0.842370  0.396870  1.0
  C  C2695  1  0.051200  0.842370  0.103130  1.0
  C  C2696  1  0.551200  0.157630  0.896870  1.0
  C  C2697  1  0.528660  0.843990  0.384540  1.0
  C  C2698  1  0.028660  0.156010  0.615460  1.0
  C  C2699  1  0.971340  0.156010  0.884540  1.0
  C  C2700  1  0.471340  0.843990  0.115460  1.0
  C  C2701  1  0.471340  0.156010  0.615460  1.0
  C  C2702  1  0.971340  0.843990  0.384540  1.0
  C  C2703  1  0.028660  0.843990  0.115460  1.0
  C  C2704  1  0.528660  0.156010  0.884540  1.0
  C  C2705  1  0.497650  0.908240  0.346050  1.0
  C  C2706  1  0.997650  0.091760  0.653950  1.0
  C  C2707  1  0.002350  0.091760  0.846050  1.0
  C  C2708  1  0.502350  0.908240  0.153950  1.0
  C  C2709  1  0.502350  0.091760  0.653950  1.0
  C  C2710  1  0.002350  0.908240  0.346050  1.0
  C  C2711  1  0.997650  0.908240  0.153950  1.0
  C  C2712  1  0.497650  0.091760  0.846050  1.0
  C  C2713  1  0.495240  0.931220  0.354350  1.0
  C  C2714  1  0.995240  0.068780  0.645650  1.0
  C  C2715  1  0.004760  0.068780  0.854350  1.0
  C  C2716  1  0.504760  0.931220  0.145650  1.0
  C  C2717  1  0.504760  0.068780  0.645650  1.0
  C  C2718  1  0.004760  0.931220  0.354350  1.0
  C  C2719  1  0.995240  0.931220  0.145650  1.0
  C  C2720  1  0.495240  0.068780  0.854350  1.0
  C  C2721  1  0.477750  0.938730  0.370900  1.0
  C  C2722  1  0.977750  0.061270  0.629100  1.0
  C  C2723  1  0.022250  0.061270  0.870900  1.0
  C  C2724  1  0.522250  0.938730  0.129100  1.0
  C  C2725  1  0.522250  0.061270  0.629100  1.0
  C  C2726  1  0.022250  0.938730  0.370900  1.0
  C  C2727  1  0.977750  0.938730  0.129100  1.0
  C  C2728  1  0.477750  0.061270  0.870900  1.0
  C  C2729  1  0.462580  0.918270  0.379170  1.0
  C  C2730  1  0.962580  0.081730  0.620830  1.0
  C  C2731  1  0.037420  0.081730  0.879170  1.0
  C  C2732  1  0.537420  0.918270  0.120830  1.0
  C  C2733  1  0.537420  0.081730  0.620830  1.0
  C  C2734  1  0.037420  0.918270  0.379170  1.0
  C  C2735  1  0.962580  0.918270  0.120830  1.0
  C  C2736  1  0.462580  0.081730  0.879170  1.0
  C  C2737  1  0.465020  0.897290  0.370870  1.0
  C  C2738  1  0.965020  0.102710  0.629130  1.0
  C  C2739  1  0.034980  0.102710  0.870870  1.0
  C  C2740  1  0.534980  0.897290  0.129130  1.0
  C  C2741  1  0.534980  0.102710  0.629130  1.0
  C  C2742  1  0.034980  0.897290  0.370870  1.0
  C  C2743  1  0.965020  0.897290  0.129130  1.0
  C  C2744  1  0.465020  0.102710  0.870870  1.0
  C  C2745  1  0.474500  0.960610  0.381520  1.0
  C  C2746  1  0.974500  0.039390  0.618480  1.0
  C  C2747  1  0.025500  0.039390  0.881520  1.0
  C  C2748  1  0.525500  0.960610  0.118480  1.0
  C  C2749  1  0.525500  0.039390  0.618480  1.0
  C  C2750  1  0.025500  0.960610  0.381520  1.0
  C  C2751  1  0.974500  0.960610  0.118480  1.0
  C  C2752  1  0.474500  0.039390  0.881520  1.0
  C  C2753  1  0.494380  0.977250  0.378780  1.0
  C  C2754  1  0.994380  0.022750  0.621220  1.0
  C  C2755  1  0.005620  0.022750  0.878780  1.0
  C  C2756  1  0.505620  0.977250  0.121220  1.0
  C  C2757  1  0.505620  0.022750  0.621220  1.0
  C  C2758  1  0.005620  0.977250  0.378780  1.0
  C  C2759  1  0.994380  0.977250  0.121220  1.0
  C  C2760  1  0.494380  0.022750  0.878780  1.0
  C  C2761  1  0.491550  0.000250  0.386740  1.0
  C  C2762  1  0.991550  0.999750  0.613260  1.0
  C  C2763  1  0.008450  0.999750  0.886740  1.0
  C  C2764  1  0.508450  0.000250  0.113260  1.0
  C  C2765  1  0.508450  0.999750  0.613260  1.0
  C  C2766  1  0.008450  0.000250  0.386740  1.0
  C  C2767  1  0.991550  0.000250  0.113260  1.0
  C  C2768  1  0.491550  0.999750  0.886740  1.0
  C  C2769  1  0.468800  0.006760  0.397440  1.0
  C  C2770  1  0.968800  0.993240  0.602560  1.0
  C  C2771  1  0.031200  0.993240  0.897440  1.0
  C  C2772  1  0.531200  0.006760  0.102560  1.0
  C  C2773  1  0.531200  0.993240  0.602560  1.0
  C  C2774  1  0.031200  0.006760  0.397440  1.0
  C  C2775  1  0.968800  0.006760  0.102560  1.0
  C  C2776  1  0.468800  0.993240  0.897440  1.0
  C  C2777  1  0.448940  0.990170  0.400170  1.0
  C  C2778  1  0.948940  0.009830  0.599830  1.0
  C  C2779  1  0.051060  0.009830  0.900170  1.0
  C  C2780  1  0.551060  0.990170  0.099830  1.0
  C  C2781  1  0.551060  0.009830  0.599830  1.0
  C  C2782  1  0.051060  0.990170  0.400170  1.0
  C  C2783  1  0.948940  0.990170  0.099830  1.0
  C  C2784  1  0.448940  0.009830  0.900170  1.0
  C  C2785  1  0.451770  0.967090  0.392220  1.0
  C  C2786  1  0.951770  0.032910  0.607780  1.0
  C  C2787  1  0.048230  0.032910  0.892220  1.0
  C  C2788  1  0.548230  0.967090  0.107780  1.0
  C  C2789  1  0.548230  0.032910  0.607780  1.0
  C  C2790  1  0.048230  0.967090  0.392220  1.0
  C  C2791  1  0.951770  0.967090  0.107780  1.0
  C  C2792  1  0.451770  0.032910  0.892220  1.0
  C  C2793  1  0.468600  0.028100  0.409500  1.0
  C  C2794  1  0.968600  0.971900  0.590500  1.0
  C  C2795  1  0.031400  0.971900  0.909500  1.0
  C  C2796  1  0.531400  0.028100  0.090500  1.0
  C  C2797  1  0.531400  0.971900  0.590500  1.0
  C  C2798  1  0.031400  0.028100  0.409500  1.0
  C  C2799  1  0.968600  0.028100  0.090500  1.0
  C  C2800  1  0.468600  0.971900  0.909500  1.0
  C  C2801  1  0.464700  0.048000  0.413900  1.0
  C  C2802  1  0.964700  0.952000  0.586100  1.0
  C  C2803  1  0.035300  0.952000  0.913900  1.0
  C  C2804  1  0.535300  0.048000  0.086100  1.0
  C  C2805  1  0.535300  0.952000  0.586100  1.0
  C  C2806  1  0.035300  0.048000  0.413900  1.0
  C  C2807  1  0.964700  0.048000  0.086100  1.0
  C  C2808  1  0.464700  0.952000  0.913900  1.0
  C  C2809  1  0.463000  0.070700  0.421700  1.0
  C  C2810  1  0.963000  0.929300  0.578300  1.0
  C  C2811  1  0.037000  0.929300  0.921700  1.0
  C  C2812  1  0.537000  0.070700  0.078300  1.0
  C  C2813  1  0.537000  0.929300  0.578300  1.0
  C  C2814  1  0.037000  0.070700  0.421700  1.0
  C  C2815  1  0.963000  0.070700  0.078300  1.0
  C  C2816  1  0.463000  0.929300  0.921700  1.0
  C  C2817  1  0.442900  0.076900  0.435700  1.0
  C  C2818  1  0.942900  0.923100  0.564300  1.0
  C  C2819  1  0.057100  0.923100  0.935700  1.0
  C  C2820  1  0.557100  0.076900  0.064300  1.0
  C  C2821  1  0.557100  0.923100  0.564300  1.0
  C  C2822  1  0.057100  0.076900  0.435700  1.0
  C  C2823  1  0.942900  0.076900  0.064300  1.0
  C  C2824  1  0.442900  0.923100  0.935700  1.0
  C  C2825  1  0.441200  0.100100  0.443500  1.0
  C  C2826  1  0.941200  0.899900  0.556500  1.0
  C  C2827  1  0.058800  0.899900  0.943500  1.0
  C  C2828  1  0.558800  0.100100  0.056500  1.0
  C  C2829  1  0.558800  0.899900  0.556500  1.0
  C  C2830  1  0.058800  0.100100  0.443500  1.0
  C  C2831  1  0.941200  0.100100  0.056500  1.0
  C  C2832  1  0.441200  0.899900  0.943500  1.0
  C  C2833  1  0.459500  0.117200  0.437400  1.0
  C  C2834  1  0.959500  0.882800  0.562600  1.0
  C  C2835  1  0.040500  0.882800  0.937400  1.0
  C  C2836  1  0.540500  0.117200  0.062600  1.0
  C  C2837  1  0.540500  0.882800  0.562600  1.0
  C  C2838  1  0.040500  0.117200  0.437400  1.0
  C  C2839  1  0.959500  0.117200  0.062600  1.0
  C  C2840  1  0.459500  0.882800  0.937400  1.0
  C  C2841  1  0.479500  0.111000  0.423400  1.0
  C  C2842  1  0.979500  0.889000  0.576600  1.0
  C  C2843  1  0.020500  0.889000  0.923400  1.0
  C  C2844  1  0.520500  0.111000  0.076600  1.0
  C  C2845  1  0.520500  0.889000  0.576600  1.0
  C  C2846  1  0.020500  0.111000  0.423400  1.0
  C  C2847  1  0.979500  0.111000  0.076600  1.0
  C  C2848  1  0.479500  0.889000  0.923400  1.0
  C  C2849  1  0.481300  0.087700  0.415600  1.0
  C  C2850  1  0.981300  0.912300  0.584400  1.0
  C  C2851  1  0.018700  0.912300  0.915600  1.0
  C  C2852  1  0.518700  0.087700  0.084400  1.0
  C  C2853  1  0.518700  0.912300  0.584400  1.0
  C  C2854  1  0.018700  0.087700  0.415600  1.0
  C  C2855  1  0.981300  0.087700  0.084400  1.0
  C  C2856  1  0.481300  0.912300  0.915600  1.0
  C  C2857  1  0.422000  0.059500  0.440800  1.0
  C  C2858  1  0.922000  0.940500  0.559200  1.0
  C  C2859  1  0.078000  0.940500  0.940800  1.0
  C  C2860  1  0.578000  0.059500  0.059200  1.0
  C  C2861  1  0.578000  0.940500  0.559200  1.0
  C  C2862  1  0.078000  0.059500  0.440800  1.0
  C  C2863  1  0.922000  0.059500  0.059200  1.0
  C  C2864  1  0.422000  0.940500  0.940800  1.0
  C  C2865  1  0.421000  0.106500  0.457400  1.0
  C  C2866  1  0.921000  0.893500  0.542600  1.0
  C  C2867  1  0.079000  0.893500  0.957400  1.0
  C  C2868  1  0.579000  0.106500  0.042600  1.0
  C  C2869  1  0.579000  0.893500  0.542600  1.0
  C  C2870  1  0.079000  0.106500  0.457400  1.0
  C  C2871  1  0.921000  0.106500  0.042600  1.0
  C  C2872  1  0.421000  0.893500  0.957400  1.0
  C  C2873  1  0.402700  0.111700  0.469100  1.0
  C  C2874  1  0.902700  0.888300  0.530900  1.0
  C  C2875  1  0.097300  0.888300  0.969100  1.0
  C  C2876  1  0.597300  0.111700  0.030900  1.0
  C  C2877  1  0.597300  0.888300  0.530900  1.0
  C  C2878  1  0.097300  0.111700  0.469100  1.0
  C  C2879  1  0.902700  0.111700  0.030900  1.0
  C  C2880  1  0.402700  0.888300  0.969100  1.0
  C  C2881  1  0.456200  0.862000  0.305000  1.0
  C  C2882  1  0.956200  0.138000  0.695000  1.0
  C  C2883  1  0.043800  0.138000  0.805000  1.0
  C  C2884  1  0.543800  0.862000  0.195000  1.0
  C  C2885  1  0.543800  0.138000  0.695000  1.0
  C  C2886  1  0.043800  0.862000  0.305000  1.0
  C  C2887  1  0.956200  0.862000  0.195000  1.0
  C  C2888  1  0.456200  0.138000  0.805000  1.0
  C  C2889  1  0.432800  0.864600  0.293880  1.0
  C  C2890  1  0.932800  0.135400  0.706120  1.0
  C  C2891  1  0.067200  0.135400  0.793880  1.0
  C  C2892  1  0.567200  0.864600  0.206120  1.0
  C  C2893  1  0.567200  0.135400  0.706120  1.0
  C  C2894  1  0.067200  0.864600  0.293880  1.0
  C  C2895  1  0.932800  0.864600  0.206120  1.0
  C  C2896  1  0.432800  0.135400  0.793880  1.0
  C  C2897  1  0.409300  0.861840  0.304620  1.0
  C  C2898  1  0.909300  0.138160  0.695380  1.0
  C  C2899  1  0.090700  0.138160  0.804620  1.0
  C  C2900  1  0.590700  0.861840  0.195380  1.0
  C  C2901  1  0.590700  0.138160  0.695380  1.0
  C  C2902  1  0.090700  0.861840  0.304620  1.0
  C  C2903  1  0.909300  0.861840  0.195380  1.0
  C  C2904  1  0.409300  0.138160  0.804620  1.0
  C  C2905  1  0.409000  0.856500  0.326460  1.0
  C  C2906  1  0.909000  0.143500  0.673540  1.0
  C  C2907  1  0.091000  0.143500  0.826460  1.0
  C  C2908  1  0.591000  0.856500  0.173540  1.0
  C  C2909  1  0.591000  0.143500  0.673540  1.0
  C  C2910  1  0.091000  0.856500  0.326460  1.0
  C  C2911  1  0.909000  0.856500  0.173540  1.0
  C  C2912  1  0.409000  0.143500  0.826460  1.0
  C  C2913  1  0.432400  0.853800  0.337550  1.0
  C  C2914  1  0.932400  0.146200  0.662450  1.0
  C  C2915  1  0.067600  0.146200  0.837550  1.0
  C  C2916  1  0.567600  0.853800  0.162450  1.0
  C  C2917  1  0.567600  0.146200  0.662450  1.0
  C  C2918  1  0.067600  0.853800  0.337550  1.0
  C  C2919  1  0.932400  0.853800  0.162450  1.0
  C  C2920  1  0.432400  0.146200  0.837550  1.0
  C  C2921  1  0.386400  0.864630  0.293710  1.0
  C  C2922  1  0.886400  0.135370  0.706290  1.0
  C  C2923  1  0.113600  0.135370  0.793710  1.0
  C  C2924  1  0.613600  0.864630  0.206290  1.0
  C  C2925  1  0.613600  0.135370  0.706290  1.0
  C  C2926  1  0.113600  0.864630  0.293710  1.0
  C  C2927  1  0.886400  0.864630  0.206290  1.0
  C  C2928  1  0.386400  0.135370  0.793710  1.0
  C  C2929  1  0.386700  0.867400  0.271480  1.0
  C  C2930  1  0.886700  0.132600  0.728520  1.0
  C  C2931  1  0.113300  0.132600  0.771480  1.0
  C  C2932  1  0.613300  0.867400  0.228520  1.0
  C  C2933  1  0.613300  0.132600  0.728520  1.0
  C  C2934  1  0.113300  0.867400  0.271480  1.0
  C  C2935  1  0.886700  0.867400  0.228520  1.0
  C  C2936  1  0.386700  0.132600  0.771480  1.0
  C  C2937  1  0.363500  0.871600  0.260470  1.0
  C  C2938  1  0.863500  0.128400  0.739530  1.0
  C  C2939  1  0.136500  0.128400  0.760470  1.0
  C  C2940  1  0.636500  0.871600  0.239530  1.0
  C  C2941  1  0.636500  0.128400  0.739530  1.0
  C  C2942  1  0.136500  0.871600  0.260470  1.0
  C  C2943  1  0.863500  0.871600  0.239530  1.0
  C  C2944  1  0.363500  0.128400  0.760470  1.0
  C  C2945  1  0.340100  0.873010  0.271680  1.0
  C  C2946  1  0.840100  0.126990  0.728320  1.0
  C  C2947  1  0.159900  0.126990  0.771680  1.0
  C  C2948  1  0.659900  0.873010  0.228320  1.0
  C  C2949  1  0.659900  0.126990  0.728320  1.0
  C  C2950  1  0.159900  0.873010  0.271680  1.0
  C  C2951  1  0.840100  0.873010  0.228320  1.0
  C  C2952  1  0.340100  0.126990  0.771680  1.0
  C  C2953  1  0.339900  0.870200  0.293910  1.0
  C  C2954  1  0.839900  0.129800  0.706090  1.0
  C  C2955  1  0.160100  0.129800  0.793910  1.0
  C  C2956  1  0.660100  0.870200  0.206090  1.0
  C  C2957  1  0.660100  0.129800  0.706090  1.0
  C  C2958  1  0.160100  0.870200  0.293910  1.0
  C  C2959  1  0.839900  0.870200  0.206090  1.0
  C  C2960  1  0.339900  0.129800  0.793910  1.0
  C  C2961  1  0.363000  0.866000  0.304930  1.0
  C  C2962  1  0.863000  0.134000  0.695070  1.0
  C  C2963  1  0.137000  0.134000  0.804930  1.0
  C  C2964  1  0.637000  0.866000  0.195070  1.0
  C  C2965  1  0.637000  0.134000  0.695070  1.0
  C  C2966  1  0.137000  0.866000  0.304930  1.0
  C  C2967  1  0.863000  0.866000  0.195070  1.0
  C  C2968  1  0.363000  0.134000  0.804930  1.0
  C  C2969  1  0.317500  0.876800  0.260600  1.0
  C  C2970  1  0.817500  0.123200  0.739400  1.0
  C  C2971  1  0.182500  0.123200  0.760600  1.0
  C  C2972  1  0.682500  0.876800  0.239400  1.0
  C  C2973  1  0.682500  0.123200  0.739400  1.0
  C  C2974  1  0.182500  0.876800  0.260600  1.0
  C  C2975  1  0.817500  0.876800  0.239400  1.0
  C  C2976  1  0.317500  0.123200  0.760600  1.0
  C  C2977  1  0.297500  0.880300  0.250200  1.0
  C  C2978  1  0.797500  0.119700  0.749800  1.0
  C  C2979  1  0.202500  0.119700  0.750200  1.0
  C  C2980  1  0.702500  0.880300  0.249800  1.0
  C  C2981  1  0.702500  0.119700  0.749800  1.0
  C  C2982  1  0.202500  0.880300  0.250200  1.0
  C  C2983  1  0.797500  0.880300  0.249800  1.0
  C  C2984  1  0.297500  0.119700  0.750200  1.0
  C  C2985  1  0.273700  0.886300  0.240400  1.0
  C  C2986  1  0.773700  0.113700  0.759600  1.0
  C  C2987  1  0.226300  0.113700  0.740400  1.0
  C  C2988  1  0.726300  0.886300  0.259600  1.0
  C  C2989  1  0.726300  0.113700  0.759600  1.0
  C  C2990  1  0.226300  0.886300  0.240400  1.0
  C  C2991  1  0.773700  0.886300  0.259600  1.0
  C  C2992  1  0.273700  0.113700  0.740400  1.0
  C  C2993  1  0.273700  0.898600  0.220400  1.0
  C  C2994  1  0.773700  0.101400  0.779600  1.0
  C  C2995  1  0.226300  0.101400  0.720400  1.0
  C  C2996  1  0.726300  0.898600  0.279600  1.0
  C  C2997  1  0.726300  0.101400  0.779600  1.0
  C  C2998  1  0.226300  0.898600  0.220400  1.0
  C  C2999  1  0.773700  0.898600  0.279600  1.0
  C  C3000  1  0.273700  0.101400  0.720400  1.0
  C  C3001  1  0.250000  0.906400  0.211000  1.0
  C  C3002  1  0.750000  0.093600  0.789000  1.0
  C  C3003  1  0.250000  0.093600  0.711000  1.0
  C  C3004  1  0.750000  0.906400  0.289000  1.0
  C  C3005  1  0.250000  0.880600  0.249800  1.0
  C  C3006  1  0.750000  0.119400  0.750200  1.0
  C  C3007  1  0.250000  0.119400  0.749800  1.0
  C  C3008  1  0.750000  0.880600  0.250200  1.0
  C  C3009  1  0.250000  0.868800  0.270800  1.0
  C  C3010  1  0.750000  0.131200  0.729200  1.0
  C  C3011  1  0.250000  0.131200  0.770800  1.0
  C  C3012  1  0.750000  0.868800  0.229200  1.0
  C  C3013  1  0.432460  0.614700  0.361670  1.0
  C  C3014  1  0.932460  0.385300  0.638330  1.0
  C  C3015  1  0.067540  0.385300  0.861670  1.0
  C  C3016  1  0.567540  0.614700  0.138330  1.0
  C  C3017  1  0.567540  0.385300  0.638330  1.0
  C  C3018  1  0.067540  0.614700  0.361670  1.0
  C  C3019  1  0.932460  0.614700  0.138330  1.0
  C  C3020  1  0.432460  0.385300  0.861670  1.0
  C  C3021  1  0.409550  0.605360  0.353180  1.0
  C  C3022  1  0.909550  0.394640  0.646820  1.0
  C  C3023  1  0.090450  0.394640  0.853180  1.0
  C  C3024  1  0.590450  0.605360  0.146820  1.0
  C  C3025  1  0.590450  0.394640  0.646820  1.0
  C  C3026  1  0.090450  0.605360  0.353180  1.0
  C  C3027  1  0.909550  0.605360  0.146820  1.0
  C  C3028  1  0.409550  0.394640  0.853180  1.0
  C  C3029  1  0.410640  0.587770  0.337410  1.0
  C  C3030  1  0.910640  0.412230  0.662590  1.0
  C  C3031  1  0.089360  0.412230  0.837410  1.0
  C  C3032  1  0.589360  0.587770  0.162590  1.0
  C  C3033  1  0.589360  0.412230  0.662590  1.0
  C  C3034  1  0.089360  0.587770  0.337410  1.0
  C  C3035  1  0.910640  0.587770  0.162590  1.0
  C  C3036  1  0.410640  0.412230  0.837410  1.0
  C  C3037  1  0.434620  0.579520  0.330130  1.0
  C  C3038  1  0.934620  0.420480  0.669870  1.0
  C  C3039  1  0.065380  0.420480  0.830130  1.0
  C  C3040  1  0.565380  0.579520  0.169870  1.0
  C  C3041  1  0.565380  0.420480  0.669870  1.0
  C  C3042  1  0.065380  0.579520  0.330130  1.0
  C  C3043  1  0.934620  0.579520  0.169870  1.0
  C  C3044  1  0.434620  0.420480  0.830130  1.0
  C  C3045  1  0.457520  0.588850  0.338620  1.0
  C  C3046  1  0.957520  0.411150  0.661380  1.0
  C  C3047  1  0.042480  0.411150  0.838620  1.0
  C  C3048  1  0.542480  0.588850  0.161380  1.0
  C  C3049  1  0.542480  0.411150  0.661380  1.0
  C  C3050  1  0.042480  0.588850  0.338620  1.0
  C  C3051  1  0.957520  0.588850  0.161380  1.0
  C  C3052  1  0.457520  0.411150  0.838620  1.0
  C  C3053  1  0.386800  0.579200  0.327280  1.0
  C  C3054  1  0.886800  0.420800  0.672720  1.0
  C  C3055  1  0.113200  0.420800  0.827280  1.0
  C  C3056  1  0.613200  0.579200  0.172720  1.0
  C  C3057  1  0.613200  0.420800  0.672720  1.0
  C  C3058  1  0.113200  0.579200  0.327280  1.0
  C  C3059  1  0.886800  0.579200  0.172720  1.0
  C  C3060  1  0.386800  0.420800  0.827280  1.0
  C  C3061  1  0.387920  0.559160  0.314100  1.0
  C  C3062  1  0.887920  0.440840  0.685900  1.0
  C  C3063  1  0.112080  0.440840  0.814100  1.0
  C  C3064  1  0.612080  0.559160  0.185900  1.0
  C  C3065  1  0.612080  0.440840  0.685900  1.0
  C  C3066  1  0.112080  0.559160  0.314100  1.0
  C  C3067  1  0.887920  0.559160  0.185900  1.0
  C  C3068  1  0.387920  0.440840  0.814100  1.0
  C  C3069  1  0.365040  0.548600  0.306900  1.0
  C  C3070  1  0.865040  0.451400  0.693100  1.0
  C  C3071  1  0.134960  0.451400  0.806900  1.0
  C  C3072  1  0.634960  0.548600  0.193100  1.0
  C  C3073  1  0.634960  0.451400  0.693100  1.0
  C  C3074  1  0.134960  0.548600  0.306900  1.0
  C  C3075  1  0.865040  0.548600  0.193100  1.0
  C  C3076  1  0.365040  0.451400  0.806900  1.0
  C  C3077  1  0.341040  0.558000  0.312780  1.0
  C  C3078  1  0.841040  0.442000  0.687220  1.0
  C  C3079  1  0.158960  0.442000  0.812780  1.0
  C  C3080  1  0.658960  0.558000  0.187220  1.0
  C  C3081  1  0.658960  0.442000  0.687220  1.0
  C  C3082  1  0.158960  0.558000  0.312780  1.0
  C  C3083  1  0.841040  0.558000  0.187220  1.0
  C  C3084  1  0.341040  0.442000  0.812780  1.0
  C  C3085  1  0.339920  0.578100  0.326000  1.0
  C  C3086  1  0.839920  0.421900  0.674000  1.0
  C  C3087  1  0.160080  0.421900  0.826000  1.0
  C  C3088  1  0.660080  0.578100  0.174000  1.0
  C  C3089  1  0.660080  0.421900  0.674000  1.0
  C  C3090  1  0.160080  0.578100  0.326000  1.0
  C  C3091  1  0.839920  0.578100  0.174000  1.0
  C  C3092  1  0.339920  0.421900  0.826000  1.0
  C  C3093  1  0.362800  0.588660  0.333210  1.0
  C  C3094  1  0.862800  0.411340  0.666790  1.0
  C  C3095  1  0.137200  0.411340  0.833210  1.0
  C  C3096  1  0.637200  0.588660  0.166790  1.0
  C  C3097  1  0.637200  0.411340  0.666790  1.0
  C  C3098  1  0.137200  0.588660  0.333210  1.0
  C  C3099  1  0.862800  0.588660  0.166790  1.0
  C  C3100  1  0.362800  0.411340  0.833210  1.0
  C  C3101  1  0.318200  0.546300  0.306800  1.0
  C  C3102  1  0.818200  0.453700  0.693200  1.0
  C  C3103  1  0.181800  0.453700  0.806800  1.0
  C  C3104  1  0.681800  0.546300  0.193200  1.0
  C  C3105  1  0.681800  0.453700  0.693200  1.0
  C  C3106  1  0.181800  0.546300  0.306800  1.0
  C  C3107  1  0.818200  0.546300  0.193200  1.0
  C  C3108  1  0.318200  0.453700  0.806800  1.0
  C  C3109  1  0.298300  0.537500  0.299500  1.0
  C  C3110  1  0.798300  0.462500  0.700500  1.0
  C  C3111  1  0.201700  0.462500  0.799500  1.0
  C  C3112  1  0.701700  0.537500  0.200500  1.0
  C  C3113  1  0.701700  0.462500  0.700500  1.0
  C  C3114  1  0.201700  0.537500  0.299500  1.0
  C  C3115  1  0.798300  0.537500  0.200500  1.0
  C  C3116  1  0.298300  0.462500  0.799500  1.0
  C  C3117  1  0.274400  0.527500  0.292900  1.0
  C  C3118  1  0.774400  0.472500  0.707100  1.0
  C  C3119  1  0.225600  0.472500  0.792900  1.0
  C  C3120  1  0.725600  0.527500  0.207100  1.0
  C  C3121  1  0.725600  0.472500  0.707100  1.0
  C  C3122  1  0.225600  0.527500  0.292900  1.0
  C  C3123  1  0.774400  0.527500  0.207100  1.0
  C  C3124  1  0.274400  0.472500  0.792900  1.0
  C  C3125  1  0.272700  0.506600  0.280700  1.0
  C  C3126  1  0.772700  0.493400  0.719300  1.0
  C  C3127  1  0.227300  0.493400  0.780700  1.0
  C  C3128  1  0.727300  0.506600  0.219300  1.0
  C  C3129  1  0.727300  0.493400  0.719300  1.0
  C  C3130  1  0.227300  0.506600  0.280700  1.0
  C  C3131  1  0.772700  0.506600  0.219300  1.0
  C  C3132  1  0.272700  0.493400  0.780700  1.0
  C  C3133  1  0.250000  0.495000  0.274300  1.0
  C  C3134  1  0.750000  0.505000  0.725700  1.0
  C  C3135  1  0.250000  0.505000  0.774300  1.0
  C  C3136  1  0.750000  0.495000  0.225700  1.0
  C  C3137  1  0.250000  0.537100  0.298600  1.0
  C  C3138  1  0.750000  0.462900  0.701400  1.0
  C  C3139  1  0.250000  0.462900  0.798600  1.0
  C  C3140  1  0.750000  0.537100  0.201400  1.0
  C  C3141  1  0.250000  0.559500  0.312100  1.0
  C  C3142  1  0.750000  0.440500  0.687900  1.0
  C  C3143  1  0.250000  0.440500  0.812100  1.0
  C  C3144  1  0.750000  0.559500  0.187900  1.0
  C  C3145  1  0.473500  0.590930  0.408770  1.0
  C  C3146  1  0.973500  0.409070  0.591230  1.0
  C  C3147  1  0.026500  0.409070  0.908770  1.0
  C  C3148  1  0.526500  0.590930  0.091230  1.0
  C  C3149  1  0.526500  0.409070  0.591230  1.0
  C  C3150  1  0.026500  0.590930  0.408770  1.0
  C  C3151  1  0.973500  0.590930  0.091230  1.0
  C  C3152  1  0.473500  0.409070  0.908770  1.0
  C  C3153  1  0.471930  0.571530  0.422680  1.0
  C  C3154  1  0.971930  0.428470  0.577320  1.0
  C  C3155  1  0.028070  0.428470  0.922680  1.0
  C  C3156  1  0.528070  0.571530  0.077320  1.0
  C  C3157  1  0.528070  0.428470  0.577320  1.0
  C  C3158  1  0.028070  0.571530  0.422680  1.0
  C  C3159  1  0.971930  0.571530  0.077320  1.0
  C  C3160  1  0.471930  0.428470  0.922680  1.0
  C  C3161  1  0.484700  0.550330  0.417690  1.0
  C  C3162  1  0.984700  0.449670  0.582310  1.0
  C  C3163  1  0.015300  0.449670  0.917690  1.0
  C  C3164  1  0.515300  0.550330  0.082310  1.0
  C  C3165  1  0.515300  0.449670  0.582310  1.0
  C  C3166  1  0.015300  0.550330  0.417690  1.0
  C  C3167  1  0.984700  0.550330  0.082310  1.0
  C  C3168  1  0.484700  0.449670  0.917690  1.0
  C  C3169  1  0.499040  0.548530  0.398780  1.0
  C  C3170  1  0.999040  0.451470  0.601220  1.0
  C  C3171  1  0.000960  0.451470  0.898780  1.0
  C  C3172  1  0.500960  0.548530  0.101220  1.0
  C  C3173  1  0.500960  0.451470  0.601220  1.0
  C  C3174  1  0.000960  0.548530  0.398780  1.0
  C  C3175  1  0.999040  0.548530  0.101220  1.0
  C  C3176  1  0.499040  0.451470  0.898780  1.0
  C  C3177  1  0.500600  0.567930  0.384870  1.0
  C  C3178  1  0.000600  0.432070  0.615130  1.0
  C  C3179  1  0.999400  0.432070  0.884870  1.0
  C  C3180  1  0.499400  0.567930  0.115130  1.0
  C  C3181  1  0.499400  0.432070  0.615130  1.0
  C  C3182  1  0.999400  0.567930  0.384870  1.0
  C  C3183  1  0.000600  0.567930  0.115130  1.0
  C  C3184  1  0.500600  0.432070  0.884870  1.0
  C  C3185  1  0.485500  0.530920  0.435830  1.0
  C  C3186  1  0.985500  0.469080  0.564170  1.0
  C  C3187  1  0.014500  0.469080  0.935830  1.0
  C  C3188  1  0.514500  0.530920  0.064170  1.0
  C  C3189  1  0.514500  0.469080  0.564170  1.0
  C  C3190  1  0.014500  0.530920  0.435830  1.0
  C  C3191  1  0.985500  0.530920  0.064170  1.0
  C  C3192  1  0.485500  0.469080  0.935830  1.0
  C  C3193  1  0.474600  0.533230  0.456210  1.0
  C  C3194  1  0.974600  0.466770  0.543790  1.0
  C  C3195  1  0.025400  0.466770  0.956210  1.0
  C  C3196  1  0.525400  0.533230  0.043790  1.0
  C  C3197  1  0.525400  0.466770  0.543790  1.0
  C  C3198  1  0.025400  0.533230  0.456210  1.0
  C  C3199  1  0.974600  0.533230  0.043790  1.0
  C  C3200  1  0.474600  0.466770  0.956210  1.0
  C  C3201  1  0.473100  0.513490  0.469740  1.0
  C  C3202  1  0.973100  0.486510  0.530260  1.0
  C  C3203  1  0.026900  0.486510  0.969740  1.0
  C  C3204  1  0.526900  0.513490  0.030260  1.0
  C  C3205  1  0.526900  0.486510  0.530260  1.0
  C  C3206  1  0.026900  0.513490  0.469740  1.0
  C  C3207  1  0.973100  0.513490  0.030260  1.0
  C  C3208  1  0.473100  0.486510  0.969740  1.0
  C  C3209  1  0.482400  0.491440  0.462880  1.0
  C  C3210  1  0.982400  0.508560  0.537120  1.0
  C  C3211  1  0.017600  0.508560  0.962880  1.0
  C  C3212  1  0.517600  0.491440  0.037120  1.0
  C  C3213  1  0.517600  0.508560  0.537120  1.0
  C  C3214  1  0.017600  0.491440  0.462880  1.0
  C  C3215  1  0.982400  0.491440  0.037120  1.0
  C  C3216  1  0.482400  0.508560  0.962880  1.0
  C  C3217  1  0.493300  0.489120  0.442510  1.0
  C  C3218  1  0.993300  0.510880  0.557490  1.0
  C  C3219  1  0.006700  0.510880  0.942510  1.0
  C  C3220  1  0.506700  0.489120  0.057490  1.0
  C  C3221  1  0.506700  0.510880  0.557490  1.0
  C  C3222  1  0.006700  0.489120  0.442510  1.0
  C  C3223  1  0.993300  0.489120  0.057490  1.0
  C  C3224  1  0.493300  0.510880  0.942510  1.0
  C  C3225  1  0.494800  0.508860  0.428980  1.0
  C  C3226  1  0.994800  0.491140  0.571020  1.0
  C  C3227  1  0.005200  0.491140  0.928980  1.0
  C  C3228  1  0.505200  0.508860  0.071020  1.0
  C  C3229  1  0.505200  0.491140  0.571020  1.0
  C  C3230  1  0.005200  0.508860  0.428980  1.0
  C  C3231  1  0.994800  0.508860  0.071020  1.0
  C  C3232  1  0.494800  0.491140  0.928980  1.0
  C  C3233  1  0.481400  0.471600  0.477000  1.0
  C  C3234  1  0.981400  0.528400  0.523000  1.0
  C  C3235  1  0.018600  0.528400  0.977000  1.0
  C  C3236  1  0.518600  0.471600  0.023000  1.0
  C  C3237  1  0.518600  0.528400  0.523000  1.0
  C  C3238  1  0.018600  0.471600  0.477000  1.0
  C  C3239  1  0.981400  0.471600  0.023000  1.0
  C  C3240  1  0.481400  0.528400  0.977000  1.0
  C  C3241  1  0.481300  0.460000  0.492900  1.0
  C  C3242  1  0.981300  0.540000  0.507100  1.0
  C  C3243  1  0.018700  0.540000  0.992900  1.0
  C  C3244  1  0.518700  0.460000  0.007100  1.0
  C  C3245  1  0.518700  0.540000  0.507100  1.0
  C  C3246  1  0.018700  0.460000  0.492900  1.0
  C  C3247  1  0.981300  0.460000  0.007100  1.0
  C  C3248  1  0.481300  0.540000  0.992900  1.0
  C  C3249  1  0.644170  0.719010  0.473040  1.0
  C  C3250  1  0.144170  0.280990  0.526960  1.0
  C  C3251  1  0.855830  0.280990  0.973040  1.0
  C  C3252  1  0.355830  0.719010  0.026960  1.0
  C  C3253  1  0.355830  0.280990  0.526960  1.0
  C  C3254  1  0.855830  0.719010  0.473040  1.0
  C  C3255  1  0.144170  0.719010  0.026960  1.0
  C  C3256  1  0.644170  0.280990  0.973040  1.0
  C  C3257  1  0.642960  0.703940  0.455280  1.0
  C  C3258  1  0.142960  0.296060  0.544720  1.0
  C  C3259  1  0.857040  0.296060  0.955280  1.0
  C  C3260  1  0.357040  0.703940  0.044720  1.0
  C  C3261  1  0.357040  0.296060  0.544720  1.0
  C  C3262  1  0.857040  0.703940  0.455280  1.0
  C  C3263  1  0.142960  0.703940  0.044720  1.0
  C  C3264  1  0.642960  0.296060  0.955280  1.0
  C  C3265  1  0.619300  0.693750  0.449310  1.0
  C  C3266  1  0.119300  0.306250  0.550690  1.0
  C  C3267  1  0.880700  0.306250  0.949310  1.0
  C  C3268  1  0.380700  0.693750  0.050690  1.0
  C  C3269  1  0.380700  0.306250  0.550690  1.0
  C  C3270  1  0.880700  0.693750  0.449310  1.0
  C  C3271  1  0.119300  0.693750  0.050690  1.0
  C  C3272  1  0.619300  0.306250  0.949310  1.0
  C  C3273  1  0.596930  0.698620  0.461090  1.0
  C  C3274  1  0.096930  0.301380  0.538910  1.0
  C  C3275  1  0.903070  0.301380  0.961090  1.0
  C  C3276  1  0.403070  0.698620  0.038910  1.0
  C  C3277  1  0.403070  0.301380  0.538910  1.0
  C  C3278  1  0.903070  0.698620  0.461090  1.0
  C  C3279  1  0.096930  0.698620  0.038910  1.0
  C  C3280  1  0.596930  0.301380  0.961090  1.0
  C  C3281  1  0.598140  0.713690  0.478850  1.0
  C  C3282  1  0.098140  0.286310  0.521150  1.0
  C  C3283  1  0.901860  0.286310  0.978850  1.0
  C  C3284  1  0.401860  0.713690  0.021150  1.0
  C  C3285  1  0.401860  0.286310  0.521150  1.0
  C  C3286  1  0.901860  0.713690  0.478850  1.0
  C  C3287  1  0.098140  0.713690  0.021150  1.0
  C  C3288  1  0.598140  0.286310  0.978850  1.0
  C  C3289  1  0.644870  0.720140  0.538230  1.0
  C  C3290  1  0.144870  0.279860  0.461770  1.0
  C  C3291  1  0.855130  0.279860  0.038230  1.0
  C  C3292  1  0.355130  0.720140  0.961770  1.0
  C  C3293  1  0.355130  0.279860  0.461770  1.0
  C  C3294  1  0.855130  0.720140  0.538230  1.0
  C  C3295  1  0.144870  0.720140  0.961770  1.0
  C  C3296  1  0.644870  0.279860  0.038230  1.0
  C  C3297  1  0.645620  0.706760  0.557070  1.0
  C  C3298  1  0.145620  0.293240  0.442930  1.0
  C  C3299  1  0.854380  0.293240  0.057070  1.0
  C  C3300  1  0.354380  0.706760  0.942930  1.0
  C  C3301  1  0.354380  0.293240  0.442930  1.0
  C  C3302  1  0.854380  0.706760  0.557070  1.0
  C  C3303  1  0.145620  0.706760  0.942930  1.0
  C  C3304  1  0.645620  0.293240  0.057070  1.0
  C  C3305  1  0.623240  0.704160  0.569470  1.0
  C  C3306  1  0.123240  0.295840  0.430530  1.0
  C  C3307  1  0.876760  0.295840  0.069470  1.0
  C  C3308  1  0.376760  0.704160  0.930530  1.0
  C  C3309  1  0.376760  0.295840  0.430530  1.0
  C  C3310  1  0.876760  0.704160  0.569470  1.0
  C  C3311  1  0.123240  0.704160  0.930530  1.0
  C  C3312  1  0.623240  0.295840  0.069470  1.0
  C  C3313  1  0.600120  0.714950  0.563030  1.0
  C  C3314  1  0.100120  0.285050  0.436970  1.0
  C  C3315  1  0.899880  0.285050  0.063030  1.0
  C  C3316  1  0.399880  0.714950  0.936970  1.0
  C  C3317  1  0.399880  0.285050  0.436970  1.0
  C  C3318  1  0.899880  0.714950  0.563030  1.0
  C  C3319  1  0.100120  0.714950  0.936970  1.0
  C  C3320  1  0.600120  0.285050  0.063030  1.0
  C  C3321  1  0.599370  0.728340  0.544190  1.0
  C  C3322  1  0.099370  0.271660  0.455810  1.0
  C  C3323  1  0.900630  0.271660  0.044190  1.0
  C  C3324  1  0.400630  0.728340  0.955810  1.0
  C  C3325  1  0.400630  0.271660  0.455810  1.0
  C  C3326  1  0.900630  0.728340  0.544190  1.0
  C  C3327  1  0.099370  0.728340  0.955810  1.0
  C  C3328  1  0.599370  0.271660  0.044190  1.0
  C  C3329  1  0.647450  0.666550  0.587770  1.0
  C  C3330  1  0.147450  0.333450  0.412230  1.0
  C  C3331  1  0.852550  0.333450  0.087770  1.0
  C  C3332  1  0.352550  0.666550  0.912230  1.0
  C  C3333  1  0.352550  0.333450  0.412230  1.0
  C  C3334  1  0.852550  0.666550  0.587770  1.0
  C  C3335  1  0.147450  0.666550  0.912230  1.0
  C  C3336  1  0.647450  0.333450  0.087770  1.0
  C  C3337  1  0.648100  0.653320  0.606700  1.0
  C  C3338  1  0.148100  0.346680  0.393300  1.0
  C  C3339  1  0.851900  0.346680  0.106700  1.0
  C  C3340  1  0.351900  0.653320  0.893300  1.0
  C  C3341  1  0.351900  0.346680  0.393300  1.0
  C  C3342  1  0.851900  0.653320  0.606700  1.0
  C  C3343  1  0.148100  0.653320  0.893300  1.0
  C  C3344  1  0.648100  0.346680  0.106700  1.0
  C  C3345  1  0.629600  0.657320  0.622620  1.0
  C  C3346  1  0.129600  0.342680  0.377380  1.0
  C  C3347  1  0.870400  0.342680  0.122620  1.0
  C  C3348  1  0.370400  0.657320  0.877380  1.0
  C  C3349  1  0.370400  0.342680  0.377380  1.0
  C  C3350  1  0.870400  0.657320  0.622620  1.0
  C  C3351  1  0.129600  0.657320  0.877380  1.0
  C  C3352  1  0.629600  0.342680  0.122620  1.0
  C  C3353  1  0.610380  0.674540  0.619600  1.0
  C  C3354  1  0.110380  0.325460  0.380400  1.0
  C  C3355  1  0.889620  0.325460  0.119600  1.0
  C  C3356  1  0.389620  0.674540  0.880400  1.0
  C  C3357  1  0.389620  0.325460  0.380400  1.0
  C  C3358  1  0.889620  0.674540  0.619600  1.0
  C  C3359  1  0.110380  0.674540  0.880400  1.0
  C  C3360  1  0.610380  0.325460  0.119600  1.0
  C  C3361  1  0.609720  0.687760  0.600670  1.0
  C  C3362  1  0.109720  0.312240  0.399330  1.0
  C  C3363  1  0.890280  0.312240  0.100670  1.0
  C  C3364  1  0.390280  0.687760  0.899330  1.0
  C  C3365  1  0.390280  0.312240  0.399330  1.0
  C  C3366  1  0.890280  0.687760  0.600670  1.0
  C  C3367  1  0.109720  0.687760  0.899330  1.0
  C  C3368  1  0.609720  0.312240  0.100670  1.0
  C  C3369  1  0.628260  0.683770  0.584750  1.0
  C  C3370  1  0.128260  0.316230  0.415250  1.0
  C  C3371  1  0.871740  0.316230  0.084750  1.0
  C  C3372  1  0.371740  0.683770  0.915250  1.0
  C  C3373  1  0.371740  0.316230  0.415250  1.0
  C  C3374  1  0.871740  0.683770  0.584750  1.0
  C  C3375  1  0.128260  0.683770  0.915250  1.0
  C  C3376  1  0.628260  0.316230  0.084750  1.0
  C  C3377  1  0.631700  0.644700  0.642600  1.0
  C  C3378  1  0.131700  0.355300  0.357400  1.0
  C  C3379  1  0.868300  0.355300  0.142600  1.0
  C  C3380  1  0.368300  0.644700  0.857400  1.0
  C  C3381  1  0.368300  0.355300  0.357400  1.0
  C  C3382  1  0.868300  0.644700  0.642600  1.0
  C  C3383  1  0.131700  0.644700  0.857400  1.0
  C  C3384  1  0.631700  0.355300  0.142600  1.0
  C  C3385  1  0.631600  0.634100  0.659100  1.0
  C  C3386  1  0.131600  0.365900  0.340900  1.0
  C  C3387  1  0.868400  0.365900  0.159100  1.0
  C  C3388  1  0.368400  0.634100  0.840900  1.0
  C  C3389  1  0.368400  0.365900  0.340900  1.0
  C  C3390  1  0.868400  0.634100  0.659100  1.0
  C  C3391  1  0.131600  0.634100  0.840900  1.0
  C  C3392  1  0.631600  0.365900  0.159100  1.0
  C  C3393  1  0.646180  0.792600  0.533280  1.0
  C  C3394  1  0.146180  0.207400  0.466720  1.0
  C  C3395  1  0.853820  0.207400  0.033280  1.0
  C  C3396  1  0.353820  0.792600  0.966720  1.0
  C  C3397  1  0.353820  0.207400  0.466720  1.0
  C  C3398  1  0.853820  0.792600  0.533280  1.0
  C  C3399  1  0.146180  0.792600  0.966720  1.0
  C  C3400  1  0.646180  0.207400  0.033280  1.0
  C  C3401  1  0.646050  0.812500  0.546600  1.0
  C  C3402  1  0.146050  0.187500  0.453400  1.0
  C  C3403  1  0.853950  0.187500  0.046600  1.0
  C  C3404  1  0.353950  0.812500  0.953400  1.0
  C  C3405  1  0.353950  0.187500  0.453400  1.0
  C  C3406  1  0.853950  0.812500  0.546600  1.0
  C  C3407  1  0.146050  0.812500  0.953400  1.0
  C  C3408  1  0.646050  0.187500  0.046600  1.0
  C  C3409  1  0.622610  0.821360  0.554520  1.0
  C  C3410  1  0.122610  0.178640  0.445480  1.0
  C  C3411  1  0.877390  0.178640  0.054520  1.0
  C  C3412  1  0.377390  0.821360  0.945480  1.0
  C  C3413  1  0.377390  0.178640  0.445480  1.0
  C  C3414  1  0.877390  0.821360  0.554520  1.0
  C  C3415  1  0.122610  0.821360  0.945480  1.0
  C  C3416  1  0.622610  0.178640  0.054520  1.0
  C  C3417  1  0.599290  0.810210  0.549120  1.0
  C  C3418  1  0.099290  0.189790  0.450880  1.0
  C  C3419  1  0.900710  0.189790  0.049120  1.0
  C  C3420  1  0.400710  0.810210  0.950880  1.0
  C  C3421  1  0.400710  0.189790  0.450880  1.0
  C  C3422  1  0.900710  0.810210  0.549120  1.0
  C  C3423  1  0.099290  0.810210  0.950880  1.0
  C  C3424  1  0.599290  0.189790  0.049120  1.0
  C  C3425  1  0.599420  0.790200  0.535800  1.0
  C  C3426  1  0.099420  0.209800  0.464200  1.0
  C  C3427  1  0.900580  0.209800  0.035800  1.0
  C  C3428  1  0.400580  0.790200  0.964200  1.0
  C  C3429  1  0.400580  0.209800  0.464200  1.0
  C  C3430  1  0.900580  0.790200  0.535800  1.0
  C  C3431  1  0.099420  0.790200  0.964200  1.0
  C  C3432  1  0.599420  0.209800  0.035800  1.0
  C  C3433  1  0.622840  0.842640  0.568430  1.0
  C  C3434  1  0.122840  0.157360  0.431570  1.0
  C  C3435  1  0.877160  0.157360  0.068430  1.0
  C  C3436  1  0.377160  0.842640  0.931570  1.0
  C  C3437  1  0.377160  0.157360  0.431570  1.0
  C  C3438  1  0.877160  0.842640  0.568430  1.0
  C  C3439  1  0.122840  0.842640  0.931570  1.0
  C  C3440  1  0.622840  0.157360  0.068430  1.0
  C  C3441  1  0.646800  0.852900  0.573300  1.0
  C  C3442  1  0.146800  0.147100  0.426700  1.0
  C  C3443  1  0.853200  0.147100  0.073300  1.0
  C  C3444  1  0.353200  0.852900  0.926700  1.0
  C  C3445  1  0.353200  0.147100  0.426700  1.0
  C  C3446  1  0.853200  0.852900  0.573300  1.0
  C  C3447  1  0.146800  0.852900  0.926700  1.0
  C  C3448  1  0.646800  0.147100  0.073300  1.0
  C  C3449  1  0.647900  0.873200  0.586200  1.0
  C  C3450  1  0.147900  0.126800  0.413800  1.0
  C  C3451  1  0.852100  0.126800  0.086200  1.0
  C  C3452  1  0.352100  0.873200  0.913800  1.0
  C  C3453  1  0.352100  0.126800  0.413800  1.0
  C  C3454  1  0.852100  0.873200  0.586200  1.0
  C  C3455  1  0.147900  0.873200  0.913800  1.0
  C  C3456  1  0.647900  0.126800  0.086200  1.0
  C  C3457  1  0.625100  0.883200  0.594200  1.0
  C  C3458  1  0.125100  0.116800  0.405800  1.0
  C  C3459  1  0.874900  0.116800  0.094200  1.0
  C  C3460  1  0.374900  0.883200  0.905800  1.0
  C  C3461  1  0.374900  0.116800  0.405800  1.0
  C  C3462  1  0.874900  0.883200  0.594200  1.0
  C  C3463  1  0.125100  0.883200  0.905800  1.0
  C  C3464  1  0.625100  0.116800  0.094200  1.0
  C  C3465  1  0.601200  0.872900  0.589300  1.0
  C  C3466  1  0.101200  0.127100  0.410700  1.0
  C  C3467  1  0.898800  0.127100  0.089300  1.0
  C  C3468  1  0.398800  0.872900  0.910700  1.0
  C  C3469  1  0.398800  0.127100  0.410700  1.0
  C  C3470  1  0.898800  0.872900  0.589300  1.0
  C  C3471  1  0.101200  0.872900  0.910700  1.0
  C  C3472  1  0.601200  0.127100  0.089300  1.0
  C  C3473  1  0.600000  0.852700  0.576420  1.0
  C  C3474  1  0.100000  0.147300  0.423580  1.0
  C  C3475  1  0.900000  0.147300  0.076420  1.0
  C  C3476  1  0.400000  0.852700  0.923580  1.0
  C  C3477  1  0.400000  0.147300  0.423580  1.0
  C  C3478  1  0.900000  0.852700  0.576420  1.0
  C  C3479  1  0.100000  0.852700  0.923580  1.0
  C  C3480  1  0.600000  0.147300  0.076420  1.0
  C  C3481  1  0.626500  0.900900  0.610700  1.0
  C  C3482  1  0.126500  0.099100  0.389300  1.0
  C  C3483  1  0.873500  0.099100  0.110700  1.0
  C  C3484  1  0.373500  0.900900  0.889300  1.0
  C  C3485  1  0.373500  0.099100  0.389300  1.0
  C  C3486  1  0.873500  0.900900  0.610700  1.0
  C  C3487  1  0.126500  0.900900  0.889300  1.0
  C  C3488  1  0.626500  0.099100  0.110700  1.0
  C  C3489  1  0.626700  0.918200  0.623300  1.0
  C  C3490  1  0.126700  0.081800  0.376700  1.0
  C  C3491  1  0.873300  0.081800  0.123300  1.0
  C  C3492  1  0.373300  0.918200  0.876700  1.0
  C  C3493  1  0.373300  0.081800  0.376700  1.0
  C  C3494  1  0.873300  0.918200  0.623300  1.0
  C  C3495  1  0.126700  0.918200  0.876700  1.0
  C  C3496  1  0.626700  0.081800  0.123300  1.0
  C  C3497  1  0.626800  0.939800  0.635300  1.0
  C  C3498  1  0.126800  0.060200  0.364700  1.0
  C  C3499  1  0.873200  0.060200  0.135300  1.0
  C  C3500  1  0.373200  0.939800  0.864700  1.0
  C  C3501  1  0.373200  0.060200  0.364700  1.0
  C  C3502  1  0.873200  0.939800  0.635300  1.0
  C  C3503  1  0.126800  0.939800  0.864700  1.0
  C  C3504  1  0.626800  0.060200  0.135300  1.0
  C  C3505  1  0.603600  0.952000  0.639300  1.0
  C  C3506  1  0.103600  0.048000  0.360700  1.0
  C  C3507  1  0.896400  0.048000  0.139300  1.0
  C  C3508  1  0.396400  0.952000  0.860700  1.0
  C  C3509  1  0.396400  0.048000  0.360700  1.0
  C  C3510  1  0.896400  0.952000  0.639300  1.0
  C  C3511  1  0.103600  0.952000  0.860700  1.0
  C  C3512  1  0.603600  0.048000  0.139300  1.0
  C  C3513  1  0.603800  0.972700  0.651600  1.0
  C  C3514  1  0.103800  0.027300  0.348400  1.0
  C  C3515  1  0.896200  0.027300  0.151600  1.0
  C  C3516  1  0.396200  0.972700  0.848400  1.0
  C  C3517  1  0.396200  0.027300  0.348400  1.0
  C  C3518  1  0.896200  0.972700  0.651600  1.0
  C  C3519  1  0.103800  0.972700  0.848400  1.0
  C  C3520  1  0.603800  0.027300  0.151600  1.0
  C  C3521  1  0.627100  0.981300  0.660000  1.0
  C  C3522  1  0.127100  0.018700  0.340000  1.0
  C  C3523  1  0.872900  0.018700  0.160000  1.0
  C  C3524  1  0.372900  0.981300  0.840000  1.0
  C  C3525  1  0.372900  0.018700  0.340000  1.0
  C  C3526  1  0.872900  0.981300  0.660000  1.0
  C  C3527  1  0.127100  0.981300  0.840000  1.0
  C  C3528  1  0.627100  0.018700  0.160000  1.0
  C  C3529  1  0.650200  0.969100  0.656100  1.0
  C  C3530  1  0.150200  0.030900  0.343900  1.0
  C  C3531  1  0.849800  0.030900  0.156100  1.0
  C  C3532  1  0.349800  0.969100  0.843900  1.0
  C  C3533  1  0.349800  0.030900  0.343900  1.0
  C  C3534  1  0.849800  0.969100  0.656100  1.0
  C  C3535  1  0.150200  0.969100  0.843900  1.0
  C  C3536  1  0.650200  0.030900  0.156100  1.0
  C  C3537  1  0.650100  0.948400  0.643800  1.0
  C  C3538  1  0.150100  0.051600  0.356200  1.0
  C  C3539  1  0.849900  0.051600  0.143800  1.0
  C  C3540  1  0.349900  0.948400  0.856200  1.0
  C  C3541  1  0.349900  0.051600  0.356200  1.0
  C  C3542  1  0.849900  0.948400  0.643800  1.0
  C  C3543  1  0.150100  0.948400  0.856200  1.0
  C  C3544  1  0.650100  0.051600  0.143800  1.0
  C  C3545  1  0.578800  0.939700  0.633300  1.0
  C  C3546  1  0.078800  0.060300  0.366700  1.0
  C  C3547  1  0.921200  0.060300  0.133300  1.0
  C  C3548  1  0.421200  0.939700  0.866700  1.0
  C  C3549  1  0.421200  0.060300  0.366700  1.0
  C  C3550  1  0.921200  0.939700  0.633300  1.0
  C  C3551  1  0.078800  0.939700  0.866700  1.0
  C  C3552  1  0.578800  0.060300  0.133300  1.0
  C  C3553  1  0.580700  0.985200  0.656300  1.0
  C  C3554  1  0.080700  0.014800  0.343700  1.0
  C  C3555  1  0.919300  0.014800  0.156300  1.0
  C  C3556  1  0.419300  0.985200  0.843700  1.0
  C  C3557  1  0.419300  0.014800  0.343700  1.0
  C  C3558  1  0.919300  0.985200  0.656300  1.0
  C  C3559  1  0.080700  0.985200  0.843700  1.0
  C  C3560  1  0.580700  0.014800  0.156300  1.0
  C  C3561  1  0.560200  0.994200  0.661000  1.0
  C  C3562  1  0.060200  0.005800  0.339000  1.0
  C  C3563  1  0.939800  0.005800  0.161000  1.0
  C  C3564  1  0.439800  0.994200  0.839000  1.0
  C  C3565  1  0.439800  0.005800  0.339000  1.0
  C  C3566  1  0.939800  0.994200  0.661000  1.0
  C  C3567  1  0.060200  0.994200  0.839000  1.0
  C  C3568  1  0.560200  0.005800  0.161000  1.0
  C  C3569  1  0.598400  0.788700  0.475400  1.0
  C  C3570  1  0.098400  0.211300  0.524600  1.0
  C  C3571  1  0.901600  0.211300  0.975400  1.0
  C  C3572  1  0.401600  0.788700  0.024600  1.0
  C  C3573  1  0.401600  0.211300  0.524600  1.0
  C  C3574  1  0.901600  0.788700  0.475400  1.0
  C  C3575  1  0.098400  0.788700  0.024600  1.0
  C  C3576  1  0.598400  0.211300  0.975400  1.0
  C  C3577  1  0.598400  0.806300  0.459600  1.0
  C  C3578  1  0.098400  0.193700  0.540400  1.0
  C  C3579  1  0.901600  0.193700  0.959600  1.0
  C  C3580  1  0.401600  0.806300  0.040400  1.0
  C  C3581  1  0.401600  0.193700  0.540400  1.0
  C  C3582  1  0.901600  0.806300  0.459600  1.0
  C  C3583  1  0.098400  0.806300  0.040400  1.0
  C  C3584  1  0.598400  0.193700  0.959600  1.0
  C  C3585  1  0.621500  0.812600  0.449400  1.0
  C  C3586  1  0.121500  0.187400  0.550600  1.0
  C  C3587  1  0.878500  0.187400  0.949400  1.0
  C  C3588  1  0.378500  0.812600  0.050600  1.0
  C  C3589  1  0.378500  0.187400  0.550600  1.0
  C  C3590  1  0.878500  0.812600  0.449400  1.0
  C  C3591  1  0.121500  0.812600  0.050600  1.0
  C  C3592  1  0.621500  0.187400  0.949400  1.0
  C  C3593  1  0.644600  0.801300  0.455000  1.0
  C  C3594  1  0.144600  0.198700  0.545000  1.0
  C  C3595  1  0.855400  0.198700  0.955000  1.0
  C  C3596  1  0.355400  0.801300  0.045000  1.0
  C  C3597  1  0.355400  0.198700  0.545000  1.0
  C  C3598  1  0.855400  0.801300  0.455000  1.0
  C  C3599  1  0.144600  0.801300  0.045000  1.0
  C  C3600  1  0.644600  0.198700  0.955000  1.0
  C  C3601  1  0.644700  0.783700  0.470700  1.0
  C  C3602  1  0.144700  0.216300  0.529300  1.0
  C  C3603  1  0.855300  0.216300  0.970700  1.0
  C  C3604  1  0.355300  0.783700  0.029300  1.0
  C  C3605  1  0.355300  0.216300  0.529300  1.0
  C  C3606  1  0.855300  0.783700  0.470700  1.0
  C  C3607  1  0.144700  0.783700  0.029300  1.0
  C  C3608  1  0.644700  0.216300  0.970700  1.0
  C  C3609  1  0.620380  0.828710  0.433150  1.0
  C  C3610  1  0.120380  0.171290  0.566850  1.0
  C  C3611  1  0.879620  0.171290  0.933150  1.0
  C  C3612  1  0.379620  0.828710  0.066850  1.0
  C  C3613  1  0.379620  0.171290  0.566850  1.0
  C  C3614  1  0.879620  0.828710  0.433150  1.0
  C  C3615  1  0.120380  0.828710  0.066850  1.0
  C  C3616  1  0.620380  0.171290  0.933150  1.0
  C  C3617  1  0.640110  0.845110  0.429060  1.0
  C  C3618  1  0.140110  0.154890  0.570940  1.0
  C  C3619  1  0.859890  0.154890  0.929060  1.0
  C  C3620  1  0.359890  0.845110  0.070940  1.0
  C  C3621  1  0.359890  0.154890  0.570940  1.0
  C  C3622  1  0.859890  0.845110  0.429060  1.0
  C  C3623  1  0.140110  0.845110  0.070940  1.0
  C  C3624  1  0.640110  0.154890  0.929060  1.0
  C  C3625  1  0.637590  0.861300  0.412220  1.0
  C  C3626  1  0.137590  0.138700  0.587780  1.0
  C  C3627  1  0.862410  0.138700  0.912220  1.0
  C  C3628  1  0.362410  0.861300  0.087780  1.0
  C  C3629  1  0.362410  0.138700  0.587780  1.0
  C  C3630  1  0.862410  0.861300  0.412220  1.0
  C  C3631  1  0.137590  0.861300  0.087780  1.0
  C  C3632  1  0.637590  0.138700  0.912220  1.0
  C  C3633  1  0.615320  0.861090  0.399480  1.0
  C  C3634  1  0.115320  0.138910  0.600520  1.0
  C  C3635  1  0.884680  0.138910  0.899480  1.0
  C  C3636  1  0.384680  0.861090  0.100520  1.0
  C  C3637  1  0.384680  0.138910  0.600520  1.0
  C  C3638  1  0.884680  0.861090  0.399480  1.0
  C  C3639  1  0.115320  0.861090  0.100520  1.0
  C  C3640  1  0.615320  0.138910  0.899480  1.0
  C  C3641  1  0.595580  0.844690  0.403570  1.0
  C  C3642  1  0.095580  0.155310  0.596430  1.0
  C  C3643  1  0.904420  0.155310  0.903570  1.0
  C  C3644  1  0.404420  0.844690  0.096430  1.0
  C  C3645  1  0.404420  0.155310  0.596430  1.0
  C  C3646  1  0.904420  0.844690  0.403570  1.0
  C  C3647  1  0.095580  0.844690  0.096430  1.0
  C  C3648  1  0.595580  0.155310  0.903570  1.0
  C  C3649  1  0.598110  0.828500  0.420410  1.0
  C  C3650  1  0.098110  0.171500  0.579590  1.0
  C  C3651  1  0.901890  0.171500  0.920410  1.0
  C  C3652  1  0.401890  0.828500  0.079590  1.0
  C  C3653  1  0.401890  0.171500  0.579590  1.0
  C  C3654  1  0.901890  0.828500  0.420410  1.0
  C  C3655  1  0.098110  0.828500  0.079590  1.0
  C  C3656  1  0.598110  0.171500  0.920410  1.0
  C  C3657  1  0.406900  0.009500  0.766800  1.0
  C  C3658  1  0.906900  0.990500  0.233200  1.0
  C  C3659  1  0.093100  0.990500  0.266800  1.0
  C  C3660  1  0.593100  0.009500  0.733200  1.0
  C  C3661  1  0.593100  0.990500  0.233200  1.0
  C  C3662  1  0.093100  0.009500  0.766800  1.0
  C  C3663  1  0.906900  0.009500  0.733200  1.0
  C  C3664  1  0.406900  0.990500  0.266800  1.0
  C  C3665  1  0.418490  0.986510  0.776660  1.0
  C  C3666  1  0.918490  0.013490  0.223340  1.0
  C  C3667  1  0.081510  0.013490  0.276660  1.0
  C  C3668  1  0.581510  0.986510  0.723340  1.0
  C  C3669  1  0.581510  0.013490  0.223340  1.0
  C  C3670  1  0.081510  0.986510  0.776660  1.0
  C  C3671  1  0.918490  0.986510  0.723340  1.0
  C  C3672  1  0.418490  0.013490  0.276660  1.0
  C  C3673  1  0.400100  0.968340  0.773190  1.0
  C  C3674  1  0.900100  0.031660  0.226810  1.0
  C  C3675  1  0.099900  0.031660  0.273190  1.0
  C  C3676  1  0.599900  0.968340  0.726810  1.0
  C  C3677  1  0.599900  0.031660  0.226810  1.0
  C  C3678  1  0.099900  0.968340  0.773190  1.0
  C  C3679  1  0.900100  0.968340  0.726810  1.0
  C  C3680  1  0.400100  0.031660  0.273190  1.0
  C  C3681  1  0.376470  0.970370  0.762380  1.0
  C  C3682  1  0.876470  0.029630  0.237620  1.0
  C  C3683  1  0.123530  0.029630  0.262380  1.0
  C  C3684  1  0.623530  0.970370  0.737620  1.0
  C  C3685  1  0.623530  0.029630  0.237620  1.0
  C  C3686  1  0.123530  0.970370  0.762380  1.0
  C  C3687  1  0.876470  0.970370  0.737620  1.0
  C  C3688  1  0.376470  0.029630  0.262380  1.0
  C  C3689  1  0.371260  0.990520  0.750050  1.0
  C  C3690  1  0.871260  0.009480  0.249950  1.0
  C  C3691  1  0.128740  0.009480  0.250050  1.0
  C  C3692  1  0.628740  0.990520  0.749950  1.0
  C  C3693  1  0.628740  0.009480  0.249950  1.0
  C  C3694  1  0.128740  0.990520  0.750050  1.0
  C  C3695  1  0.871260  0.990520  0.749950  1.0
  C  C3696  1  0.371260  0.009480  0.250050  1.0
  C  C3697  1  0.405350  0.947630  0.785960  1.0
  C  C3698  1  0.905350  0.052370  0.214040  1.0
  C  C3699  1  0.094650  0.052370  0.285960  1.0
  C  C3700  1  0.594650  0.947630  0.714040  1.0
  C  C3701  1  0.594650  0.052370  0.214040  1.0
  C  C3702  1  0.094650  0.947630  0.785960  1.0
  C  C3703  1  0.905350  0.947630  0.714040  1.0
  C  C3704  1  0.405350  0.052370  0.285960  1.0
  C  C3705  1  0.430030  0.943880  0.794580  1.0
  C  C3706  1  0.930030  0.056120  0.205420  1.0
  C  C3707  1  0.069970  0.056120  0.294580  1.0
  C  C3708  1  0.569970  0.943880  0.705420  1.0
  C  C3709  1  0.569970  0.056120  0.205420  1.0
  C  C3710  1  0.069970  0.943880  0.794580  1.0
  C  C3711  1  0.930030  0.943880  0.705420  1.0
  C  C3712  1  0.430030  0.056120  0.294580  1.0
  C  C3713  1  0.434510  0.924540  0.808100  1.0
  C  C3714  1  0.934510  0.075460  0.191900  1.0
  C  C3715  1  0.065490  0.075460  0.308100  1.0
  C  C3716  1  0.565490  0.924540  0.691900  1.0
  C  C3717  1  0.565490  0.075460  0.191900  1.0
  C  C3718  1  0.065490  0.924540  0.808100  1.0
  C  C3719  1  0.934510  0.924540  0.691900  1.0
  C  C3720  1  0.434510  0.075460  0.308100  1.0
  C  C3721  1  0.414310  0.908880  0.813000  1.0
  C  C3722  1  0.914310  0.091120  0.187000  1.0
  C  C3723  1  0.085690  0.091120  0.313000  1.0
  C  C3724  1  0.585690  0.908880  0.687000  1.0
  C  C3725  1  0.585690  0.091120  0.187000  1.0
  C  C3726  1  0.085690  0.908880  0.813000  1.0
  C  C3727  1  0.914310  0.908880  0.687000  1.0
  C  C3728  1  0.414310  0.091120  0.313000  1.0
  C  C3729  1  0.389640  0.912590  0.804390  1.0
  C  C3730  1  0.889640  0.087410  0.195610  1.0
  C  C3731  1  0.110360  0.087410  0.304390  1.0
  C  C3732  1  0.610360  0.912590  0.695610  1.0
  C  C3733  1  0.610360  0.087410  0.195610  1.0
  C  C3734  1  0.110360  0.912590  0.804390  1.0
  C  C3735  1  0.889640  0.912590  0.695610  1.0
  C  C3736  1  0.389640  0.087410  0.304390  1.0
  C  C3737  1  0.385160  0.931960  0.790870  1.0
  C  C3738  1  0.885160  0.068040  0.209130  1.0
  C  C3739  1  0.114840  0.068040  0.290870  1.0
  C  C3740  1  0.614840  0.931960  0.709130  1.0
  C  C3741  1  0.614840  0.068040  0.209130  1.0
  C  C3742  1  0.114840  0.931960  0.790870  1.0
  C  C3743  1  0.885160  0.931960  0.709130  1.0
  C  C3744  1  0.385160  0.068040  0.290870  1.0
  C  C3745  1  0.438480  0.043130  0.724840  1.0
  C  C3746  1  0.938480  0.956870  0.275160  1.0
  C  C3747  1  0.061520  0.956870  0.224840  1.0
  C  C3748  1  0.561520  0.043130  0.775160  1.0
  C  C3749  1  0.561520  0.956870  0.275160  1.0
  C  C3750  1  0.061520  0.043130  0.724840  1.0
  C  C3751  1  0.938480  0.043130  0.775160  1.0
  C  C3752  1  0.438480  0.956870  0.224840  1.0
  C  C3753  1  0.462330  0.037480  0.715540  1.0
  C  C3754  1  0.962330  0.962520  0.284460  1.0
  C  C3755  1  0.037670  0.962520  0.215540  1.0
  C  C3756  1  0.537670  0.037480  0.784460  1.0
  C  C3757  1  0.537670  0.962520  0.284460  1.0
  C  C3758  1  0.037670  0.037480  0.715540  1.0
  C  C3759  1  0.962330  0.037480  0.784460  1.0
  C  C3760  1  0.462330  0.962520  0.215540  1.0
  C  C3761  1  0.463660  0.020200  0.699490  1.0
  C  C3762  1  0.963660  0.979800  0.300510  1.0
  C  C3763  1  0.036340  0.979800  0.199490  1.0
  C  C3764  1  0.536340  0.020200  0.800510  1.0
  C  C3765  1  0.536340  0.979800  0.300510  1.0
  C  C3766  1  0.036340  0.020200  0.699490  1.0
  C  C3767  1  0.963660  0.020200  0.800510  1.0
  C  C3768  1  0.463660  0.979800  0.199490  1.0
  C  C3769  1  0.441130  0.008620  0.692730  1.0
  C  C3770  1  0.941130  0.991380  0.307270  1.0
  C  C3771  1  0.058870  0.991380  0.192730  1.0
  C  C3772  1  0.558870  0.008620  0.807270  1.0
  C  C3773  1  0.558870  0.991380  0.307270  1.0
  C  C3774  1  0.058870  0.008620  0.692730  1.0
  C  C3775  1  0.941130  0.008620  0.807270  1.0
  C  C3776  1  0.441130  0.991380  0.192730  1.0
  C  C3777  1  0.417280  0.014290  0.702030  1.0
  C  C3778  1  0.917280  0.985710  0.297970  1.0
  C  C3779  1  0.082720  0.985710  0.202030  1.0
  C  C3780  1  0.582720  0.014290  0.797970  1.0
  C  C3781  1  0.582720  0.985710  0.297970  1.0
  C  C3782  1  0.082720  0.014290  0.702030  1.0
  C  C3783  1  0.917280  0.014290  0.797970  1.0
  C  C3784  1  0.417280  0.985710  0.202030  1.0
  C  C3785  1  0.489190  0.013830  0.689370  1.0
  C  C3786  1  0.989190  0.986170  0.310630  1.0
  C  C3787  1  0.010810  0.986170  0.189370  1.0
  C  C3788  1  0.510810  0.013830  0.810630  1.0
  C  C3789  1  0.510810  0.986170  0.310630  1.0
  C  C3790  1  0.010810  0.013830  0.689370  1.0
  C  C3791  1  0.989190  0.013830  0.810630  1.0
  C  C3792  1  0.489190  0.986170  0.189370  1.0
  C  C3793  1  0.511350  0.027550  0.692940  1.0
  C  C3794  1  0.011350  0.972450  0.307060  1.0
  C  C3795  1  0.988650  0.972450  0.192940  1.0
  C  C3796  1  0.488650  0.027550  0.807060  1.0
  C  C3797  1  0.488650  0.972450  0.307060  1.0
  C  C3798  1  0.988650  0.027550  0.692940  1.0
  C  C3799  1  0.011350  0.027550  0.807060  1.0
  C  C3800  1  0.511350  0.972450  0.192940  1.0
  C  C3801  1  0.535020  0.020760  0.683930  1.0
  C  C3802  1  0.035020  0.979240  0.316070  1.0
  C  C3803  1  0.964980  0.979240  0.183930  1.0
  C  C3804  1  0.464980  0.020760  0.816070  1.0
  C  C3805  1  0.464980  0.979240  0.316070  1.0
  C  C3806  1  0.964980  0.020760  0.683930  1.0
  C  C3807  1  0.035020  0.020760  0.816070  1.0
  C  C3808  1  0.535020  0.979240  0.183930  1.0
  C  C3809  1  0.536530  0.000270  0.671340  1.0
  C  C3810  1  0.036530  0.999730  0.328660  1.0
  C  C3811  1  0.963470  0.999730  0.171340  1.0
  C  C3812  1  0.463470  0.000270  0.828660  1.0
  C  C3813  1  0.463470  0.999730  0.328660  1.0
  C  C3814  1  0.963470  0.000270  0.671340  1.0
  C  C3815  1  0.036530  0.000270  0.828660  1.0
  C  C3816  1  0.536530  0.999730  0.171340  1.0
  C  C3817  1  0.514360  0.986550  0.667770  1.0
  C  C3818  1  0.014360  0.013450  0.332230  1.0
  C  C3819  1  0.985640  0.013450  0.167770  1.0
  C  C3820  1  0.485640  0.986550  0.832230  1.0
  C  C3821  1  0.485640  0.013450  0.332230  1.0
  C  C3822  1  0.985640  0.986550  0.667770  1.0
  C  C3823  1  0.014360  0.986550  0.832230  1.0
  C  C3824  1  0.514360  0.013450  0.167770  1.0
  C  C3825  1  0.490690  0.993330  0.676780  1.0
  C  C3826  1  0.990690  0.006670  0.323220  1.0
  C  C3827  1  0.009310  0.006670  0.176780  1.0
  C  C3828  1  0.509310  0.993330  0.823220  1.0
  C  C3829  1  0.509310  0.006670  0.323220  1.0
  C  C3830  1  0.009310  0.993330  0.676780  1.0
  C  C3831  1  0.990690  0.993330  0.823220  1.0
  C  C3832  1  0.490690  0.006670  0.176780  1.0
  C  C3833  1  0.384170  0.090190  0.720820  1.0
  C  C3834  1  0.884170  0.909810  0.279180  1.0
  C  C3835  1  0.115830  0.909810  0.220820  1.0
  C  C3836  1  0.615830  0.090190  0.779180  1.0
  C  C3837  1  0.615830  0.909810  0.279180  1.0
  C  C3838  1  0.115830  0.090190  0.720820  1.0
  C  C3839  1  0.884170  0.090190  0.779180  1.0
  C  C3840  1  0.384170  0.909810  0.220820  1.0
  C  C3841  1  0.379110  0.110090  0.708110  1.0
  C  C3842  1  0.879110  0.889910  0.291890  1.0
  C  C3843  1  0.120890  0.889910  0.208110  1.0
  C  C3844  1  0.620890  0.110090  0.791890  1.0
  C  C3845  1  0.620890  0.889910  0.291890  1.0
  C  C3846  1  0.120890  0.110090  0.708110  1.0
  C  C3847  1  0.879110  0.110090  0.791890  1.0
  C  C3848  1  0.379110  0.889910  0.208110  1.0
  C  C3849  1  0.361140  0.108610  0.691430  1.0
  C  C3850  1  0.861140  0.891390  0.308570  1.0
  C  C3851  1  0.138860  0.891390  0.191430  1.0
  C  C3852  1  0.638860  0.108610  0.808570  1.0
  C  C3853  1  0.638860  0.891390  0.308570  1.0
  C  C3854  1  0.138860  0.108610  0.691430  1.0
  C  C3855  1  0.861140  0.108610  0.808570  1.0
  C  C3856  1  0.361140  0.891390  0.191430  1.0
  C  C3857  1  0.348230  0.087190  0.687450  1.0
  C  C3858  1  0.848230  0.912810  0.312550  1.0
  C  C3859  1  0.151770  0.912810  0.187450  1.0
  C  C3860  1  0.651770  0.087190  0.812550  1.0
  C  C3861  1  0.651770  0.912810  0.312550  1.0
  C  C3862  1  0.151770  0.087190  0.687450  1.0
  C  C3863  1  0.848230  0.087190  0.812550  1.0
  C  C3864  1  0.348230  0.912810  0.187450  1.0
  C  C3865  1  0.353290  0.067320  0.700170  1.0
  C  C3866  1  0.853290  0.932680  0.299830  1.0
  C  C3867  1  0.146710  0.932680  0.200170  1.0
  C  C3868  1  0.646710  0.067320  0.799830  1.0
  C  C3869  1  0.646710  0.932680  0.299830  1.0
  C  C3870  1  0.146710  0.067320  0.700170  1.0
  C  C3871  1  0.853290  0.067320  0.799830  1.0
  C  C3872  1  0.353290  0.932680  0.200170  1.0
  C  C3873  1  0.358780  0.127810  0.676010  1.0
  C  C3874  1  0.858780  0.872190  0.323990  1.0
  C  C3875  1  0.141220  0.872190  0.176010  1.0
  C  C3876  1  0.641220  0.127810  0.823990  1.0
  C  C3877  1  0.641220  0.872190  0.323990  1.0
  C  C3878  1  0.141220  0.127810  0.676010  1.0
  C  C3879  1  0.858780  0.127810  0.823990  1.0
  C  C3880  1  0.358780  0.872190  0.176010  1.0
  C  C3881  1  0.375720  0.147200  0.676910  1.0
  C  C3882  1  0.875720  0.852800  0.323090  1.0
  C  C3883  1  0.124280  0.852800  0.176910  1.0
  C  C3884  1  0.624280  0.147200  0.823090  1.0
  C  C3885  1  0.624280  0.852800  0.323090  1.0
  C  C3886  1  0.124280  0.147200  0.676910  1.0
  C  C3887  1  0.875720  0.147200  0.823090  1.0
  C  C3888  1  0.375720  0.852800  0.176910  1.0
  C  C3889  1  0.373330  0.165750  0.662130  1.0
  C  C3890  1  0.873330  0.834250  0.337870  1.0
  C  C3891  1  0.126670  0.834250  0.162130  1.0
  C  C3892  1  0.626670  0.165750  0.837870  1.0
  C  C3893  1  0.626670  0.834250  0.337870  1.0
  C  C3894  1  0.126670  0.165750  0.662130  1.0
  C  C3895  1  0.873330  0.165750  0.837870  1.0
  C  C3896  1  0.373330  0.834250  0.162130  1.0
  C  C3897  1  0.354020  0.164860  0.646460  1.0
  C  C3898  1  0.854020  0.835140  0.353540  1.0
  C  C3899  1  0.145980  0.835140  0.146460  1.0
  C  C3900  1  0.645980  0.164860  0.853540  1.0
  C  C3901  1  0.645980  0.835140  0.353540  1.0
  C  C3902  1  0.145980  0.164860  0.646460  1.0
  C  C3903  1  0.854020  0.164860  0.853540  1.0
  C  C3904  1  0.354020  0.835140  0.146460  1.0
  C  C3905  1  0.337080  0.145480  0.645580  1.0
  C  C3906  1  0.837080  0.854520  0.354420  1.0
  C  C3907  1  0.162920  0.854520  0.145580  1.0
  C  C3908  1  0.662920  0.145480  0.854420  1.0
  C  C3909  1  0.662920  0.854520  0.354420  1.0
  C  C3910  1  0.162920  0.145480  0.645580  1.0
  C  C3911  1  0.837080  0.145480  0.854420  1.0
  C  C3912  1  0.337080  0.854520  0.145580  1.0
  C  C3913  1  0.339470  0.126980  0.660350  1.0
  C  C3914  1  0.839470  0.873020  0.339650  1.0
  C  C3915  1  0.160530  0.873020  0.160350  1.0
  C  C3916  1  0.660530  0.126980  0.839650  1.0
  C  C3917  1  0.660530  0.873020  0.339650  1.0
  C  C3918  1  0.160530  0.126980  0.660350  1.0
  C  C3919  1  0.839470  0.126980  0.839650  1.0
  C  C3920  1  0.339470  0.873020  0.160350  1.0
  C  C3921  1  0.346400  0.057420  0.766680  1.0
  C  C3922  1  0.846400  0.942580  0.233320  1.0
  C  C3923  1  0.153600  0.942580  0.266680  1.0
  C  C3924  1  0.653600  0.057420  0.733320  1.0
  C  C3925  1  0.653600  0.942580  0.233320  1.0
  C  C3926  1  0.153600  0.057420  0.766680  1.0
  C  C3927  1  0.846400  0.057420  0.733320  1.0
  C  C3928  1  0.346400  0.942580  0.266680  1.0
  C  C3929  1  0.322690  0.062240  0.776590  1.0
  C  C3930  1  0.822690  0.937760  0.223410  1.0
  C  C3931  1  0.177310  0.937760  0.276590  1.0
  C  C3932  1  0.677310  0.062240  0.723410  1.0
  C  C3933  1  0.677310  0.937760  0.223410  1.0
  C  C3934  1  0.177310  0.062240  0.776590  1.0
  C  C3935  1  0.822690  0.062240  0.723410  1.0
  C  C3936  1  0.322690  0.937760  0.276590  1.0
  C  C3937  1  0.299530  0.055300  0.766780  1.0
  C  C3938  1  0.799530  0.944700  0.233220  1.0
  C  C3939  1  0.200470  0.944700  0.266780  1.0
  C  C3940  1  0.700470  0.055300  0.733220  1.0
  C  C3941  1  0.700470  0.944700  0.233220  1.0
  C  C3942  1  0.200470  0.055300  0.766780  1.0
  C  C3943  1  0.799530  0.055300  0.733220  1.0
  C  C3944  1  0.299530  0.944700  0.266780  1.0
  C  C3945  1  0.300110  0.043550  0.747090  1.0
  C  C3946  1  0.800110  0.956450  0.252910  1.0
  C  C3947  1  0.199890  0.956450  0.247090  1.0
  C  C3948  1  0.699890  0.043550  0.752910  1.0
  C  C3949  1  0.699890  0.956450  0.252910  1.0
  C  C3950  1  0.199890  0.043550  0.747090  1.0
  C  C3951  1  0.800110  0.043550  0.752910  1.0
  C  C3952  1  0.300110  0.956450  0.247090  1.0
  C  C3953  1  0.323820  0.038740  0.737180  1.0
  C  C3954  1  0.823820  0.961260  0.262820  1.0
  C  C3955  1  0.176180  0.961260  0.237180  1.0
  C  C3956  1  0.676180  0.038740  0.762820  1.0
  C  C3957  1  0.676180  0.961260  0.262820  1.0
  C  C3958  1  0.176180  0.038740  0.737180  1.0
  C  C3959  1  0.823820  0.038740  0.762820  1.0
  C  C3960  1  0.323820  0.961260  0.237180  1.0
  C  C3961  1  0.275200  0.060400  0.776800  1.0
  C  C3962  1  0.775200  0.939600  0.223200  1.0
  C  C3963  1  0.224800  0.939600  0.276800  1.0
  C  C3964  1  0.724800  0.060400  0.723200  1.0
  C  C3965  1  0.724800  0.939600  0.223200  1.0
  C  C3966  1  0.224800  0.060400  0.776800  1.0
  C  C3967  1  0.775200  0.060400  0.723200  1.0
  C  C3968  1  0.275200  0.939600  0.276800  1.0
  C  C3969  1  0.270100  0.069800  0.796900  1.0
  C  C3970  1  0.770100  0.930200  0.203100  1.0
  C  C3971  1  0.229900  0.930200  0.296900  1.0
  C  C3972  1  0.729900  0.069800  0.703100  1.0
  C  C3973  1  0.729900  0.930200  0.203100  1.0
  C  C3974  1  0.229900  0.069800  0.796900  1.0
  C  C3975  1  0.770100  0.069800  0.703100  1.0
  C  C3976  1  0.270100  0.930200  0.296900  1.0
  C  C3977  1  0.250000  0.076100  0.810000  1.0
  C  C3978  1  0.750000  0.923900  0.190000  1.0
  C  C3979  1  0.250000  0.923900  0.310000  1.0
  C  C3980  1  0.750000  0.076100  0.690000  1.0
  C  C3981  1  0.250000  0.058700  0.769500  1.0
  C  C3982  1  0.750000  0.941300  0.230500  1.0
  C  C3983  1  0.250000  0.941300  0.269500  1.0
  C  C3984  1  0.750000  0.058700  0.730500  1.0
  C  C3985  1  0.288520  0.164590  0.603510  1.0
  C  C3986  1  0.788520  0.835410  0.396490  1.0
  C  C3987  1  0.211480  0.835410  0.103510  1.0
  C  C3988  1  0.711480  0.164590  0.896490  1.0
  C  C3989  1  0.711480  0.835410  0.396490  1.0
  C  C3990  1  0.211480  0.164590  0.603510  1.0
  C  C3991  1  0.788520  0.164590  0.896490  1.0
  C  C3992  1  0.288520  0.835410  0.103510  1.0
  C  C3993  1  0.308300  0.165830  0.618760  1.0
  C  C3994  1  0.808300  0.834170  0.381240  1.0
  C  C3995  1  0.191700  0.834170  0.118760  1.0
  C  C3996  1  0.691700  0.165830  0.881240  1.0
  C  C3997  1  0.691700  0.834170  0.381240  1.0
  C  C3998  1  0.191700  0.165830  0.618760  1.0
  C  C3999  1  0.808300  0.165830  0.881240  1.0
  C  C4000  1  0.308300  0.834170  0.118760  1.0
  C  C4001  1  0.316700  0.145190  0.629120  1.0
  C  C4002  1  0.816700  0.854810  0.370880  1.0
  C  C4003  1  0.183300  0.854810  0.129120  1.0
  C  C4004  1  0.683300  0.145190  0.870880  1.0
  C  C4005  1  0.683300  0.854810  0.370880  1.0
  C  C4006  1  0.183300  0.145190  0.629120  1.0
  C  C4007  1  0.816700  0.145190  0.870880  1.0
  C  C4008  1  0.316700  0.854810  0.129120  1.0
  C  C4009  1  0.305300  0.123310  0.624230  1.0
  C  C4010  1  0.805300  0.876690  0.375770  1.0
  C  C4011  1  0.194700  0.876690  0.124230  1.0
  C  C4012  1  0.694700  0.123310  0.875770  1.0
  C  C4013  1  0.694700  0.876690  0.375770  1.0
  C  C4014  1  0.194700  0.123310  0.624230  1.0
  C  C4015  1  0.805300  0.123310  0.875770  1.0
  C  C4016  1  0.305300  0.876690  0.124230  1.0
  C  C4017  1  0.285500  0.122070  0.608980  1.0
  C  C4018  1  0.785500  0.877930  0.391020  1.0
  C  C4019  1  0.214500  0.877930  0.108980  1.0
  C  C4020  1  0.714500  0.122070  0.891020  1.0
  C  C4021  1  0.714500  0.877930  0.391020  1.0
  C  C4022  1  0.214500  0.122070  0.608980  1.0
  C  C4023  1  0.785500  0.122070  0.891020  1.0
  C  C4024  1  0.285500  0.877930  0.108980  1.0
  C  C4025  1  0.286100  0.155310  0.541380  1.0
  C  C4026  1  0.786100  0.844690  0.458620  1.0
  C  C4027  1  0.213900  0.844690  0.041380  1.0
  C  C4028  1  0.713900  0.155310  0.958620  1.0
  C  C4029  1  0.713900  0.844690  0.458620  1.0
  C  C4030  1  0.213900  0.155310  0.541380  1.0
  C  C4031  1  0.786100  0.155310  0.958620  1.0
  C  C4032  1  0.286100  0.844690  0.041380  1.0
  C  C4033  1  0.307830  0.152810  0.528220  1.0
  C  C4034  1  0.807830  0.847190  0.471780  1.0
  C  C4035  1  0.192170  0.847190  0.028220  1.0
  C  C4036  1  0.692170  0.152810  0.971780  1.0
  C  C4037  1  0.692170  0.847190  0.471780  1.0
  C  C4038  1  0.192170  0.152810  0.528220  1.0
  C  C4039  1  0.807830  0.152810  0.971780  1.0
  C  C4040  1  0.307830  0.847190  0.028220  1.0
  C  C4041  1  0.320660  0.130970  0.527010  1.0
  C  C4042  1  0.820660  0.869030  0.472990  1.0
  C  C4043  1  0.179340  0.869030  0.027010  1.0
  C  C4044  1  0.679340  0.130970  0.972990  1.0
  C  C4045  1  0.679340  0.869030  0.472990  1.0
  C  C4046  1  0.179340  0.130970  0.527010  1.0
  C  C4047  1  0.820660  0.130970  0.972990  1.0
  C  C4048  1  0.320660  0.869030  0.027010  1.0
  C  C4049  1  0.311760  0.111630  0.538970  1.0
  C  C4050  1  0.811760  0.888370  0.461030  1.0
  C  C4051  1  0.188240  0.888370  0.038970  1.0
  C  C4052  1  0.688240  0.111630  0.961030  1.0
  C  C4053  1  0.688240  0.888370  0.461030  1.0
  C  C4054  1  0.188240  0.111630  0.538970  1.0
  C  C4055  1  0.811760  0.111630  0.961030  1.0
  C  C4056  1  0.311760  0.888370  0.038970  1.0
  C  C4057  1  0.290030  0.114130  0.552140  1.0
  C  C4058  1  0.790030  0.885870  0.447860  1.0
  C  C4059  1  0.209970  0.885870  0.052140  1.0
  C  C4060  1  0.709970  0.114130  0.947860  1.0
  C  C4061  1  0.709970  0.885870  0.447860  1.0
  C  C4062  1  0.209970  0.114130  0.552140  1.0
  C  C4063  1  0.790030  0.114130  0.947860  1.0
  C  C4064  1  0.290030  0.885870  0.052140  1.0
  C  C4065  1  0.339740  0.127120  0.510440  1.0
  C  C4066  1  0.839740  0.872880  0.489560  1.0
  C  C4067  1  0.160260  0.872880  0.010440  1.0
  C  C4068  1  0.660260  0.127120  0.989560  1.0
  C  C4069  1  0.660260  0.872880  0.489560  1.0
  C  C4070  1  0.160260  0.127120  0.510440  1.0
  C  C4071  1  0.839740  0.127120  0.989560  1.0
  C  C4072  1  0.339740  0.872880  0.010440  1.0
  C  C4073  1  0.359300  0.143970  0.507240  1.0
  C  C4074  1  0.859300  0.856030  0.492760  1.0
  C  C4075  1  0.140700  0.856030  0.007240  1.0
  C  C4076  1  0.640700  0.143970  0.992760  1.0
  C  C4077  1  0.640700  0.856030  0.492760  1.0
  C  C4078  1  0.140700  0.143970  0.507240  1.0
  C  C4079  1  0.859300  0.143970  0.992760  1.0
  C  C4080  1  0.359300  0.856030  0.007240  1.0
  C  C4081  1  0.380800  0.138300  0.494650  1.0
  C  C4082  1  0.880800  0.861700  0.505350  1.0
  C  C4083  1  0.119200  0.861700  0.994650  1.0
  C  C4084  1  0.619200  0.138300  0.005350  1.0
  C  C4085  1  0.619200  0.861700  0.505350  1.0
  C  C4086  1  0.119200  0.138300  0.494650  1.0
  C  C4087  1  0.880800  0.138300  0.005350  1.0
  C  C4088  1  0.380800  0.861700  0.994650  1.0
  C  C4089  1  0.382800  0.115900  0.485260  1.0
  C  C4090  1  0.882800  0.884100  0.514740  1.0
  C  C4091  1  0.117200  0.884100  0.985260  1.0
  C  C4092  1  0.617200  0.115900  0.014740  1.0
  C  C4093  1  0.617200  0.884100  0.514740  1.0
  C  C4094  1  0.117200  0.115900  0.485260  1.0
  C  C4095  1  0.882800  0.115900  0.014740  1.0
  C  C4096  1  0.382800  0.884100  0.985260  1.0
  C  C4097  1  0.363300  0.099020  0.488460  1.0
  C  C4098  1  0.863300  0.900980  0.511540  1.0
  C  C4099  1  0.136700  0.900980  0.988460  1.0
  C  C4100  1  0.636700  0.099020  0.011540  1.0
  C  C4101  1  0.636700  0.900980  0.511540  1.0
  C  C4102  1  0.136700  0.099020  0.488460  1.0
  C  C4103  1  0.863300  0.099020  0.011540  1.0
  C  C4104  1  0.363300  0.900980  0.988460  1.0
  C  C4105  1  0.341700  0.104640  0.501040  1.0
  C  C4106  1  0.841700  0.895360  0.498960  1.0
  C  C4107  1  0.158300  0.895360  0.001040  1.0
  C  C4108  1  0.658300  0.104640  0.998960  1.0
  C  C4109  1  0.658300  0.895360  0.498960  1.0
  C  C4110  1  0.158300  0.104640  0.501040  1.0
  C  C4111  1  0.841700  0.104640  0.998960  1.0
  C  C4112  1  0.341700  0.895360  0.001040  1.0
  N  N4113  1  0.278760  0.616940  0.858760  1.0
  N  N4114  1  0.778760  0.383060  0.141240  1.0
  N  N4115  1  0.221240  0.383060  0.358760  1.0
  N  N4116  1  0.721240  0.616940  0.641240  1.0
  N  N4117  1  0.721240  0.383060  0.141240  1.0
  N  N4118  1  0.221240  0.616940  0.858760  1.0
  N  N4119  1  0.778760  0.616940  0.641240  1.0
  N  N4120  1  0.278760  0.383060  0.358760  1.0
  N  N4121  1  0.277090  0.666010  0.866300  1.0
  N  N4122  1  0.777090  0.333990  0.133700  1.0
  N  N4123  1  0.222910  0.333990  0.366300  1.0
  N  N4124  1  0.722910  0.666010  0.633700  1.0
  N  N4125  1  0.722910  0.333990  0.133700  1.0
  N  N4126  1  0.222910  0.666010  0.866300  1.0
  N  N4127  1  0.777090  0.666010  0.633700  1.0
  N  N4128  1  0.277090  0.333990  0.366300  1.0
  N  N4129  1  0.375120  0.509840  0.761490  1.0
  N  N4130  1  0.875120  0.490160  0.238510  1.0
  N  N4131  1  0.124880  0.490160  0.261490  1.0
  N  N4132  1  0.624880  0.509840  0.738510  1.0
  N  N4133  1  0.624880  0.490160  0.238510  1.0
  N  N4134  1  0.124880  0.509840  0.761490  1.0
  N  N4135  1  0.875120  0.509840  0.738510  1.0
  N  N4136  1  0.375120  0.490160  0.261490  1.0
  N  N4137  1  0.415440  0.510670  0.732300  1.0
  N  N4138  1  0.915440  0.489330  0.267700  1.0
  N  N4139  1  0.084560  0.489330  0.232300  1.0
  N  N4140  1  0.584560  0.510670  0.767700  1.0
  N  N4141  1  0.584560  0.489330  0.267700  1.0
  N  N4142  1  0.084560  0.510670  0.732300  1.0
  N  N4143  1  0.915440  0.510670  0.767700  1.0
  N  N4144  1  0.415440  0.489330  0.232300  1.0
  N  N4145  1  0.383340  0.480620  0.702850  1.0
  N  N4146  1  0.883340  0.519380  0.297150  1.0
  N  N4147  1  0.116660  0.519380  0.202850  1.0
  N  N4148  1  0.616660  0.480620  0.797150  1.0
  N  N4149  1  0.616660  0.519380  0.297150  1.0
  N  N4150  1  0.116660  0.480620  0.702850  1.0
  N  N4151  1  0.883340  0.480620  0.797150  1.0
  N  N4152  1  0.383340  0.519380  0.202850  1.0
  N  N4153  1  0.345720  0.478040  0.733800  1.0
  N  N4154  1  0.845720  0.521960  0.266200  1.0
  N  N4155  1  0.154280  0.521960  0.233800  1.0
  N  N4156  1  0.654280  0.478040  0.766200  1.0
  N  N4157  1  0.654280  0.521960  0.266200  1.0
  N  N4158  1  0.154280  0.478040  0.733800  1.0
  N  N4159  1  0.845720  0.478040  0.766200  1.0
  N  N4160  1  0.345720  0.521960  0.233800  1.0
  N  N4161  1  0.521520  0.626200  0.383690  1.0
  N  N4162  1  0.021520  0.373800  0.616310  1.0
  N  N4163  1  0.978480  0.373800  0.883690  1.0
  N  N4164  1  0.478480  0.626200  0.116310  1.0
  N  N4165  1  0.478480  0.373800  0.616310  1.0
  N  N4166  1  0.978480  0.626200  0.383690  1.0
  N  N4167  1  0.021520  0.626200  0.116310  1.0
  N  N4168  1  0.521520  0.373800  0.883690  1.0
  N  N4169  1  0.490900  0.645200  0.349400  1.0
  N  N4170  1  0.990900  0.354800  0.650600  1.0
  N  N4171  1  0.009100  0.354800  0.849400  1.0
  N  N4172  1  0.509100  0.645200  0.150600  1.0
  N  N4173  1  0.509100  0.354800  0.650600  1.0
  N  N4174  1  0.009100  0.645200  0.349400  1.0
  N  N4175  1  0.990900  0.645200  0.150600  1.0
  N  N4176  1  0.490900  0.354800  0.849400  1.0
  N  N4177  1  0.486030  0.819050  0.336440  1.0
  N  N4178  1  0.986030  0.180950  0.663560  1.0
  N  N4179  1  0.013970  0.180950  0.836440  1.0
  N  N4180  1  0.513970  0.819050  0.163560  1.0
  N  N4181  1  0.513970  0.180950  0.663560  1.0
  N  N4182  1  0.013970  0.819050  0.336440  1.0
  N  N4183  1  0.986030  0.819050  0.163560  1.0
  N  N4184  1  0.486030  0.180950  0.836440  1.0
  N  N4185  1  0.520020  0.848850  0.366630  1.0
  N  N4186  1  0.020020  0.151150  0.633370  1.0
  N  N4187  1  0.979980  0.151150  0.866630  1.0
  N  N4188  1  0.479980  0.848850  0.133370  1.0
  N  N4189  1  0.479980  0.151150  0.633370  1.0
  N  N4190  1  0.979980  0.848850  0.366630  1.0
  N  N4191  1  0.020020  0.848850  0.133370  1.0
  N  N4192  1  0.520020  0.151150  0.866630  1.0
  N  N4193  1  0.482520  0.888820  0.354310  1.0
  N  N4194  1  0.982520  0.111180  0.645690  1.0
  N  N4195  1  0.017480  0.111180  0.854310  1.0
  N  N4196  1  0.517480  0.888820  0.145690  1.0
  N  N4197  1  0.517480  0.111180  0.645690  1.0
  N  N4198  1  0.017480  0.888820  0.354310  1.0
  N  N4199  1  0.982520  0.888820  0.145690  1.0
  N  N4200  1  0.482520  0.111180  0.854310  1.0
  N  N4201  1  0.456000  0.856620  0.326800  1.0
  N  N4202  1  0.956000  0.143380  0.673200  1.0
  N  N4203  1  0.044000  0.143380  0.826800  1.0
  N  N4204  1  0.544000  0.856620  0.173200  1.0
  N  N4205  1  0.544000  0.143380  0.673200  1.0
  N  N4206  1  0.044000  0.856620  0.326800  1.0
  N  N4207  1  0.956000  0.856620  0.173200  1.0
  N  N4208  1  0.456000  0.143380  0.826800  1.0
  N  N4209  1  0.456440  0.606440  0.354390  1.0
  N  N4210  1  0.956440  0.393560  0.645610  1.0
  N  N4211  1  0.043560  0.393560  0.854390  1.0
  N  N4212  1  0.543560  0.606440  0.145610  1.0
  N  N4213  1  0.543560  0.393560  0.645610  1.0
  N  N4214  1  0.043560  0.606440  0.354390  1.0
  N  N4215  1  0.956440  0.606440  0.145610  1.0
  N  N4216  1  0.456440  0.393560  0.854390  1.0
  N  N4217  1  0.487850  0.589130  0.389860  1.0
  N  N4218  1  0.987850  0.410870  0.610140  1.0
  N  N4219  1  0.012150  0.410870  0.889860  1.0
  N  N4220  1  0.512150  0.589130  0.110140  1.0
  N  N4221  1  0.512150  0.410870  0.610140  1.0
  N  N4222  1  0.012150  0.589130  0.389860  1.0
  N  N4223  1  0.987850  0.589130  0.110140  1.0
  N  N4224  1  0.487850  0.410870  0.889860  1.0
  N  N4225  1  0.621770  0.723890  0.484830  1.0
  N  N4226  1  0.121770  0.276110  0.515170  1.0
  N  N4227  1  0.878230  0.276110  0.984830  1.0
  N  N4228  1  0.378230  0.723890  0.015170  1.0
  N  N4229  1  0.378230  0.276110  0.515170  1.0
  N  N4230  1  0.878230  0.723890  0.484830  1.0
  N  N4231  1  0.121770  0.723890  0.015170  1.0
  N  N4232  1  0.621770  0.276110  0.984830  1.0
  N  N4233  1  0.621740  0.730940  0.531800  1.0
  N  N4234  1  0.121740  0.269060  0.468200  1.0
  N  N4235  1  0.878260  0.269060  0.031800  1.0
  N  N4236  1  0.378260  0.730940  0.968200  1.0
  N  N4237  1  0.378260  0.269060  0.468200  1.0
  N  N4238  1  0.878260  0.730940  0.531800  1.0
  N  N4239  1  0.121740  0.730940  0.968200  1.0
  N  N4240  1  0.621740  0.269060  0.031800  1.0
  N  N4241  1  0.622900  0.781430  0.527880  1.0
  N  N4242  1  0.122900  0.218570  0.472120  1.0
  N  N4243  1  0.877100  0.218570  0.027880  1.0
  N  N4244  1  0.377100  0.781430  0.972120  1.0
  N  N4245  1  0.377100  0.218570  0.472120  1.0
  N  N4246  1  0.877100  0.781430  0.527880  1.0
  N  N4247  1  0.122900  0.781430  0.972120  1.0
  N  N4248  1  0.622900  0.218570  0.027880  1.0
  N  N4249  1  0.621500  0.777400  0.480940  1.0
  N  N4250  1  0.121500  0.222600  0.519060  1.0
  N  N4251  1  0.878500  0.222600  0.980940  1.0
  N  N4252  1  0.378500  0.777400  0.019060  1.0
  N  N4253  1  0.378500  0.222600  0.519060  1.0
  N  N4254  1  0.878500  0.777400  0.480940  1.0
  N  N4255  1  0.121500  0.777400  0.019060  1.0
  N  N4256  1  0.621500  0.222600  0.980940  1.0
  N  N4257  1  0.387400  0.008800  0.751700  1.0
  N  N4258  1  0.887400  0.991200  0.248300  1.0
  N  N4259  1  0.112600  0.991200  0.251700  1.0
  N  N4260  1  0.612600  0.008800  0.748300  1.0
  N  N4261  1  0.612600  0.991200  0.248300  1.0
  N  N4262  1  0.112600  0.008800  0.751700  1.0
  N  N4263  1  0.887400  0.008800  0.748300  1.0
  N  N4264  1  0.387400  0.991200  0.251700  1.0
  N  N4265  1  0.415950  0.031550  0.718090  1.0
  N  N4266  1  0.915950  0.968450  0.281910  1.0
  N  N4267  1  0.084050  0.968450  0.218090  1.0
  N  N4268  1  0.584050  0.031550  0.781910  1.0
  N  N4269  1  0.584050  0.968450  0.281910  1.0
  N  N4270  1  0.084050  0.031550  0.718090  1.0
  N  N4271  1  0.915950  0.031550  0.781910  1.0
  N  N4272  1  0.415950  0.968450  0.218090  1.0
  N  N4273  1  0.371260  0.068790  0.716850  1.0
  N  N4274  1  0.871260  0.931210  0.283150  1.0
  N  N4275  1  0.128740  0.931210  0.216850  1.0
  N  N4276  1  0.628740  0.068790  0.783150  1.0
  N  N4277  1  0.628740  0.931210  0.283150  1.0
  N  N4278  1  0.128740  0.068790  0.716850  1.0
  N  N4279  1  0.871260  0.068790  0.783150  1.0
  N  N4280  1  0.371260  0.931210  0.216850  1.0
  N  N4281  1  0.346970  0.045670  0.746980  1.0
  N  N4282  1  0.846970  0.954330  0.253020  1.0
  N  N4283  1  0.153030  0.954330  0.246980  1.0
  N  N4284  1  0.653030  0.045670  0.753020  1.0
  N  N4285  1  0.653030  0.954330  0.253020  1.0
  N  N4286  1  0.153030  0.045670  0.746980  1.0
  N  N4287  1  0.846970  0.045670  0.753020  1.0
  N  N4288  1  0.346970  0.954330  0.246980  1.0
  N  N4289  1  0.277130  0.142710  0.598610  1.0
  N  N4290  1  0.777130  0.857290  0.401390  1.0
  N  N4291  1  0.222870  0.857290  0.098610  1.0
  N  N4292  1  0.722870  0.142710  0.901390  1.0
  N  N4293  1  0.722870  0.857290  0.401390  1.0
  N  N4294  1  0.222870  0.142710  0.598610  1.0
  N  N4295  1  0.777130  0.142710  0.901390  1.0
  N  N4296  1  0.277130  0.857290  0.098610  1.0
  N  N4297  1  0.277190  0.135970  0.553340  1.0
  N  N4298  1  0.777190  0.864030  0.446660  1.0
  N  N4299  1  0.222810  0.864030  0.053340  1.0
  N  N4300  1  0.722810  0.135970  0.946660  1.0
  N  N4301  1  0.722810  0.864030  0.446660  1.0
  N  N4302  1  0.222810  0.135970  0.553340  1.0
  N  N4303  1  0.777190  0.135970  0.946660  1.0
  N  N4304  1  0.277190  0.864030  0.053340  1.0
  F  F4305  1  0.250000  0.059700  0.583700  1.0
  F  F4306  1  0.750000  0.940300  0.416300  1.0
  F  F4307  1  0.250000  0.940300  0.083700  1.0
  F  F4308  1  0.750000  0.059700  0.916300  1.0
  F  F4309  1  0.446800  0.907500  0.263300  1.0
  F  F4310  1  0.946800  0.092500  0.736700  1.0
  F  F4311  1  0.053200  0.092500  0.763300  1.0
  F  F4312  1  0.553200  0.907500  0.236700  1.0
  F  F4313  1  0.553200  0.092500  0.736700  1.0
  F  F4314  1  0.053200  0.907500  0.263300  1.0
  F  F4315  1  0.946800  0.907500  0.236700  1.0
  F  F4316  1  0.446800  0.092500  0.763300  1.0
  F  F4317  1  0.451400  0.920700  0.296500  1.0
  F  F4318  1  0.951400  0.079300  0.703500  1.0
  F  F4319  1  0.048600  0.079300  0.796500  1.0
  F  F4320  1  0.548600  0.920700  0.203500  1.0
  F  F4321  1  0.548600  0.079300  0.703500  1.0
  F  F4322  1  0.048600  0.920700  0.296500  1.0
  F  F4323  1  0.951400  0.920700  0.203500  1.0
  F  F4324  1  0.451400  0.079300  0.796500  1.0
  F  F4325  1  0.462600  0.942600  0.268900  1.0
  F  F4326  1  0.962600  0.057400  0.731100  1.0
  F  F4327  1  0.037400  0.057400  0.768900  1.0
  F  F4328  1  0.537400  0.942600  0.231100  1.0
  F  F4329  1  0.537400  0.057400  0.731100  1.0
  F  F4330  1  0.037400  0.942600  0.268900  1.0
  F  F4331  1  0.962600  0.942600  0.231100  1.0
  F  F4332  1  0.462600  0.057400  0.768900  1.0
  F  F4333  1  0.420800  0.934500  0.275700  1.0
  F  F4334  1  0.920800  0.065500  0.724300  1.0
  F  F4335  1  0.079200  0.065500  0.775700  1.0
  F  F4336  1  0.579200  0.934500  0.224300  1.0
  F  F4337  1  0.579200  0.065500  0.724300  1.0
  F  F4338  1  0.079200  0.934500  0.275700  1.0
  F  F4339  1  0.920800  0.934500  0.224300  1.0
  F  F4340  1  0.420800  0.065500  0.775700  1.0
  F  F4341  1  0.340600  0.997700  0.690100  1.0
  F  F4342  1  0.840600  0.002300  0.309900  1.0
  F  F4343  1  0.159400  0.002300  0.190100  1.0
  F  F4344  1  0.659400  0.997700  0.809900  1.0
  F  F4345  1  0.659400  0.002300  0.309900  1.0
  F  F4346  1  0.159400  0.997700  0.690100  1.0
  F  F4347  1  0.840600  0.997700  0.809900  1.0
  F  F4348  1  0.340600  0.002300  0.190100  1.0
  F  F4349  1  0.250000  0.649000  0.808200  1.0
  F  F4350  1  0.750000  0.351000  0.191800  1.0
  F  F4351  1  0.250000  0.351000  0.308200  1.0
  F  F4352  1  0.750000  0.649000  0.691800  1.0
  F  F4353  1  0.250000  0.633300  0.911800  1.0
  F  F4354  1  0.750000  0.366700  0.088200  1.0
  F  F4355  1  0.250000  0.366700  0.411800  1.0
  F  F4356  1  0.750000  0.633300  0.588200  1.0
  F  F4357  1  0.411200  0.446100  0.752000  1.0
  F  F4358  1  0.911200  0.553900  0.248000  1.0
  F  F4359  1  0.088800  0.553900  0.252000  1.0
  F  F4360  1  0.588800  0.446100  0.748000  1.0
  F  F4361  1  0.588800  0.553900  0.248000  1.0
  F  F4362  1  0.088800  0.446100  0.752000  1.0
  F  F4363  1  0.911200  0.446100  0.748000  1.0
  F  F4364  1  0.411200  0.553900  0.252000  1.0
  F  F4365  1  0.352000  0.543800  0.716400  1.0
  F  F4366  1  0.852000  0.456200  0.283600  1.0
  F  F4367  1  0.148000  0.456200  0.216400  1.0
  F  F4368  1  0.648000  0.543800  0.783600  1.0
  F  F4369  1  0.648000  0.456200  0.283600  1.0
  F  F4370  1  0.148000  0.543800  0.716400  1.0
  F  F4371  1  0.852000  0.543800  0.783600  1.0
  F  F4372  1  0.352000  0.456200  0.216400  1.0
  F  F4373  1  0.543300  0.755000  0.510100  1.0
  F  F4374  1  0.043300  0.245000  0.489900  1.0
  F  F4375  1  0.956700  0.245000  0.010100  1.0
  F  F4376  1  0.456700  0.755000  0.989900  1.0
  F  F4377  1  0.456700  0.245000  0.489900  1.0
  F  F4378  1  0.956700  0.755000  0.510100  1.0
  F  F4379  1  0.043300  0.755000  0.989900  1.0
  F  F4380  1  0.543300  0.245000  0.010100  1.0
  F  F4381  1  0.700200  0.757700  0.501200  1.0
  F  F4382  1  0.200200  0.242300  0.498800  1.0
  F  F4383  1  0.799800  0.242300  0.001200  1.0
  F  F4384  1  0.299800  0.757700  0.998800  1.0
  F  F4385  1  0.299800  0.242300  0.498800  1.0
  F  F4386  1  0.799800  0.757700  0.501200  1.0
  F  F4387  1  0.200200  0.757700  0.998800  1.0
  F  F4388  1  0.700200  0.242300  0.001200  1.0
  F  F4389  1  0.519400  0.874000  0.309700  1.0
  F  F4390  1  0.019400  0.126000  0.690300  1.0
  F  F4391  1  0.980600  0.126000  0.809700  1.0
  F  F4392  1  0.480600  0.874000  0.190300  1.0
  F  F4393  1  0.480600  0.126000  0.690300  1.0
  F  F4394  1  0.980600  0.874000  0.309700  1.0
  F  F4395  1  0.019400  0.874000  0.190300  1.0
  F  F4396  1  0.519400  0.126000  0.809700  1.0
  F  F4397  1  0.555000  0.879300  0.291200  1.0
  F  F4398  1  0.055000  0.120700  0.708800  1.0
  F  F4399  1  0.945000  0.120700  0.791200  1.0
  F  F4400  1  0.445000  0.879300  0.208800  1.0
  F  F4401  1  0.445000  0.120700  0.708800  1.0
  F  F4402  1  0.945000  0.879300  0.291200  1.0
  F  F4403  1  0.055000  0.879300  0.208800  1.0
  F  F4404  1  0.555000  0.120700  0.791200  1.0
  F  F4405  1  0.525800  0.907300  0.293100  1.0
  F  F4406  1  0.025800  0.092700  0.706900  1.0
  F  F4407  1  0.974200  0.092700  0.793100  1.0
  F  F4408  1  0.474200  0.907300  0.206900  1.0
  F  F4409  1  0.474200  0.092700  0.706900  1.0
  F  F4410  1  0.974200  0.907300  0.293100  1.0
  F  F4411  1  0.025800  0.907300  0.206900  1.0
  F  F4412  1  0.525800  0.092700  0.793100  1.0
  F  F4413  1  0.517900  0.874600  0.275100  1.0
  F  F4414  1  0.017900  0.125400  0.724900  1.0
  F  F4415  1  0.982100  0.125400  0.775100  1.0
  F  F4416  1  0.482100  0.874600  0.224900  1.0
  F  F4417  1  0.482100  0.125400  0.724900  1.0
  F  F4418  1  0.982100  0.874600  0.275100  1.0
  F  F4419  1  0.017900  0.874600  0.224900  1.0
  F  F4420  1  0.517900  0.125400  0.775100  1.0
  F  F4421  1  0.447600  0.829700  0.394000  1.0
  F  F4422  1  0.947600  0.170300  0.606000  1.0
  F  F4423  1  0.052400  0.170300  0.894000  1.0
  F  F4424  1  0.552400  0.829700  0.106000  1.0
  F  F4425  1  0.552400  0.170300  0.606000  1.0
  F  F4426  1  0.052400  0.829700  0.394000  1.0
  F  F4427  1  0.947600  0.829700  0.106000  1.0
  F  F4428  1  0.447600  0.170300  0.894000  1.0
  F  F4429  1  0.479100  0.415800  0.665300  1.0
  F  F4430  1  0.979100  0.584200  0.334700  1.0
  F  F4431  1  0.020900  0.584200  0.165300  1.0
  F  F4432  1  0.520900  0.415800  0.834700  1.0
  F  F4433  1  0.520900  0.584200  0.334700  1.0
  F  F4434  1  0.020900  0.415800  0.665300  1.0
  F  F4435  1  0.979100  0.415800  0.834700  1.0
  F  F4436  1  0.479100  0.584200  0.165300  1.0
  F  F4437  1  0.443900  0.406600  0.682500  1.0
  F  F4438  1  0.943900  0.593400  0.317500  1.0
  F  F4439  1  0.056100  0.593400  0.182500  1.0
  F  F4440  1  0.556100  0.406600  0.817500  1.0
  F  F4441  1  0.556100  0.593400  0.317500  1.0
  F  F4442  1  0.056100  0.406600  0.682500  1.0
  F  F4443  1  0.943900  0.406600  0.817500  1.0
  F  F4444  1  0.443900  0.593400  0.182500  1.0
  F  F4445  1  0.459700  0.443300  0.684000  1.0
  F  F4446  1  0.959700  0.556700  0.316000  1.0
  F  F4447  1  0.040300  0.556700  0.184000  1.0
  F  F4448  1  0.540300  0.443300  0.816000  1.0
  F  F4449  1  0.540300  0.556700  0.316000  1.0
  F  F4450  1  0.040300  0.443300  0.684000  1.0
  F  F4451  1  0.959700  0.443300  0.816000  1.0
  F  F4452  1  0.459700  0.556700  0.184000  1.0
  F  F4453  1  0.479800  0.414300  0.700300  1.0
  F  F4454  1  0.979800  0.585700  0.299700  1.0
  F  F4455  1  0.020200  0.585700  0.200300  1.0
  F  F4456  1  0.520200  0.414300  0.799700  1.0
  F  F4457  1  0.520200  0.585700  0.299700  1.0
  F  F4458  1  0.020200  0.414300  0.700300  1.0
  F  F4459  1  0.979800  0.414300  0.799700  1.0
  F  F4460  1  0.479800  0.585700  0.200300  1.0
  F  F4461  1  0.454000  0.652500  0.409000  1.0
  F  F4462  1  0.954000  0.347500  0.591000  1.0
  F  F4463  1  0.046000  0.347500  0.909000  1.0
  F  F4464  1  0.546000  0.652500  0.091000  1.0
  F  F4465  1  0.546000  0.347500  0.591000  1.0
  F  F4466  1  0.046000  0.652500  0.409000  1.0
  F  F4467  1  0.954000  0.652500  0.091000  1.0
  F  F4468  1  0.454000  0.347500  0.909000  1.0
