
#######################################################################
#
#                 Cambridge Crystallographic Data Centre
#                                CCDC 
#
#######################################################################
#
# If this CIF has been generated from an entry in the Cambridge 
# Structural Database, then it will include bibliographic, chemical, 
# crystal, experimental, refinement or atomic coordinate data resulting 
# from the CCDC's data processing and validation procedures.
#
#######################################################################

data_BUFVIJ
_chemical_formula_moiety         
'C72 H48 Fe2 N12 O21 S6 2-,H12 Fe1 O6 2+,17.97(H2 O1)'
_chemical_name_systematic        
"tris(\m-2,2'-oxybis(5-((pyridin-2-ylmethylene)amino)benzenesulfonato))-di-iron(ii) hexaaqua-iron(ii) hydrate"
_symmetry_cell_setting           triclinic
_symmetry_space_group_name_H-M   'P -1'
_symmetry_Int_Tables_number      2
_space_group_name_Hall           '-P 1'
loop_
_symmetry_equiv_pos_site_id
_symmetry_equiv_pos_as_xyz
1 x,y,z
2 -x,-y,-z
_cell_length_a                   15.8610(8)
_cell_length_b                   15.9946(7)
_cell_length_c                   22.5064(8)
_cell_angle_alpha                97.075(3)
_cell_angle_beta                 102.500(4)
_cell_angle_gamma                97.641(4)
_cell_volume                     5456.28
_exptl_crystal_colour            violet
_exptl_crystal_description       block
_cell_formula_units_Z            2
loop_
_atom_site_label
_atom_site_type_symbol
_atom_site_fract_x
_atom_site_fract_y
_atom_site_fract_z
O22 O 0.8753(12) 0.1356(10) 0.7445(10)
O23 O 0.7142(7) 0.1746(9) 0.7641(5)
Fe3 Fe 0.0239(3) 0.5509(3) 0.45857(19)
O24 O -0.1158(12) 0.4918(11) 0.4762(7)
O25 O -0.0842(12) 0.6040(11) 0.3961(7)
O26 O 0.0881(18) 0.5194(16) 0.3897(9)
O27 O 0.1046(11) 0.6721(9) 0.4866(8)
O28 O 0.0496(11) 0.5742(10) 0.5663(8)
Fe3A Fe -0.0239(3) 0.4491(3) 0.54143(19)
O24A O 0.1158(12) 0.5082(11) 0.5238(7)
O25A O 0.0842(12) 0.3960(11) 0.6039(7)
O26A O -0.0881(18) 0.4806(16) 0.6103(9)
O27A O -0.1046(11) 0.3279(9) 0.5134(8)
O28A O -0.0496(11) 0.4258(10) 0.4337(8)
O29 O 0.2834(10) 0.6995(10) 0.5312(9)
O30 O 0.076(3) 0.693(3) 0.8709(18)
O31 O 0.8139(5) 0.8829(5) 0.7341(3)
O32 O 0.721(3) 0.311(3) 0.939(2)
O33 O 0.111(2) 0.383(3) 0.1084(17)
O34 O 0.1808(16) 0.8478(19) 0.8240(13)
O35 O 0.3453(5) 0.1066(5) 0.2371(3)
O36 O 0.0608(18) 0.283(2) 0.9941(12)
O37 O 0.666(3) 0.317(3) 0.595(2)
O38 O 0.961(3) 0.161(3) 0.9465(18)
O39 O 0.1949(12) 0.6322(10) 0.9506(8)
O40 O 0.1001(12) 0.4279(14) 0.8448(11)
O41 O 0.9635(15) 0.288(2) 0.2350(11)
O42 O 0.2052(12) 0.8139(14) 0.9503(9)
O43 O 0.1162(15) 0.6552(14) 0.6750(12)
O44 O 0.7925(15) 0.179(2) 0.2933(14)
O45 O 0.2001(10) 0.5234(9) 0.6895(6)
O46 O 0.6297(6) 0.7236(6) 0.7820(4)
O47 O 0.7686(8) 0.6430(7) 0.7908(5)
O48 O 0.4569(9) 0.6368(7) 0.7412(5)
O49 O 0.237(4) 0.448(3) 0.497(3)
O50 O 0.192(3) 0.399(2) 0.4009(18)
O51 O 0.8610(7) 0.7271(7) 0.7194(5)
Fe1 Fe 0.35614(10) 0.23622(9) 1.00544(6)
Fe2 Fe 0.28072(10) 0.13847(9) 0.49163(6)
S1 S 0.5299(3) 0.4343(3) 0.66565(18)
S2 S 0.6304(2) 0.0819(2) 0.89256(16)
S3 S 0.3404(2) 0.52599(19) 0.85726(13)
S4 S 0.4257(2) -0.1108(2) 0.65622(16)
S5 S 0.0391(2) 0.0113(2) 0.82975(13)
S6 S -0.0246(2) 0.1722(2) 0.60960(13)
O1 O 0.5059(6) 0.0282(7) 0.7673(3)
O2 O 0.0556(4) 0.1024(5) 0.7233(3)
O3 O 0.4206(6) 0.4412(5) 0.7605(3)
O4 O 0.5781(8) 0.3922(9) 0.7162(6)
O5 O 0.5401(9) 0.5225(7) 0.6851(5)
O6 O 0.5494(8) 0.4124(8) 0.6059(5)
O7 O 0.6625(7) 0.1550(7) 0.8677(5)
O8 O 0.6503(5) 0.0022(5) 0.8648(4)
O9 O 0.6565(6) 0.0954(7) 0.9603(4)
O10 O 0.2611(6) 0.4895(6) 0.8108(4)
O11 O 0.3252(7) 0.5472(6) 0.9180(4)
O12 O 0.3956(7) 0.5940(5) 0.8388(4)
O13 O 0.3787(7) -0.1231(8) 0.7043(5)
O14 O 0.3773(7) -0.1442(6) 0.5944(5)
O15 O 0.5123(6) -0.1352(6) 0.6687(4)
O16 O -0.0512(5) 0.0167(6) 0.8022(4)
O17 O 0.0555(6) -0.0014(6) 0.8943(4)
O18 O 0.0742(7) -0.0500(6) 0.7913(4)
O19 O -0.0944(5) 0.1226(5) 0.6276(4)
O20 O -0.0455(6) 0.1802(6) 0.5449(4)
O21 O 0.0084(7) 0.2532(5) 0.6498(4)
N1 N 0.1663(5) 0.1397(5) 0.4363(3)
N2 N 0.2464(5) 0.2381(5) 0.5360(3)
N3 N 0.3460(6) 0.2156(6) 0.4487(3)
N4 N 0.4006(6) 0.1506(6) 0.5464(4)
N5 N 0.3015(6) 0.0353(6) 0.4429(4)
N6 N 0.2235(5) 0.0493(5) 0.5307(3)
N7 N 0.4549(6) 0.2893(5) 0.9731(3)
N8 N 0.4572(6) 0.2118(6) 1.0659(3)
N9 N 0.3523(6) 0.3479(5) 1.0542(3)
N10 N 0.2610(6) 0.2756(5) 0.9496(4)
N11 N 0.2697(6) 0.1748(5) 1.0419(3)
N12 N 0.3449(5) 0.1189(5) 0.9578(3)
C1 C 0.1258(7) 0.0864(6) 0.3852(4)
H1 H 0.1535 0.0405 0.3724
C2 C 0.0455(7) 0.0939(8) 0.3499(5)
H2 H 0.0185 0.0534 0.3140
C3 C 0.0042(8) 0.1618(10) 0.3671(5)
H3 H -0.0507 0.1684 0.3428
C4 C 0.0446(8) 0.2192(8) 0.4202(5)
H4 H 0.0178 0.2652 0.4339
C5 C 0.1269(7) 0.2064(7) 0.4528(4)
C6 C 0.1755(8) 0.2606(6) 0.5085(4)
H5 H 0.1562 0.3106 0.5242
C7 C 0.2922(7) 0.2905(6) 0.5942(4)
C8 C 0.3727(8) 0.3386(7) 0.5997(4)
H6 H 0.3978 0.3385 0.5650
C9 C 0.4176(9) 0.3873(8) 0.6559(5)
C10 C 0.3781(8) 0.3887(6) 0.7054(4)
C11 C 0.2967(9) 0.3423(8) 0.6995(5)
H7 H 0.2695 0.3447 0.7332
C12 C 0.2547(8) 0.2918(8) 0.6435(5)
H8 H 0.1993 0.2578 0.6394
C13 C 0.4289(8) 0.4044(7) 0.8131(4)
C14 C 0.4002(8) 0.4402(6) 0.8626(5)
C15 C 0.4114(7) 0.4038(6) 0.9172(5)
H9 H 0.3940 0.4294 0.9520
C16 C 0.4484(7) 0.3296(7) 0.9192(4)
C17 C 0.4782(8) 0.2936(7) 0.8689(5)
H10 H 0.5044 0.2437 0.8710
C18 C 0.4689(8) 0.3311(7) 0.8168(5)
H11 H 0.4896 0.3075 0.7829
C19 C 0.5302(8) 0.2850(7) 1.0036(4)
H12 H 0.5810 0.3109 0.9928
C20 C 0.5369(7) 0.2391(7) 1.0558(5)
C21 C 0.6148(8) 0.2254(8) 1.0923(5)
H13 H 0.6696 0.2429 1.0831
C22 C 0.6095(9) 0.1846(8) 1.1432(5)
H14 H 0.6610 0.1748 1.1701
C23 C 0.5290(9) 0.1591(9) 1.1535(5)
H15 H 0.5247 0.1318 1.1881
C24 C 0.4547(9) 0.1722(7) 1.1149(4)
H16 H 0.3996 0.1528 1.1229
C25 C 0.4028(8) 0.3810(7) 1.1119(4)
H17 H 0.4463 0.3515 1.1316
C26 C 0.3896(10) 0.4577(8) 1.1410(5)
H18 H 0.4230 0.4790 1.1818
C27 C 0.3319(10) 0.5031(8) 1.1141(5)
H19 H 0.3253 0.5566 1.1346
C28 C 0.2825(10) 0.4704(9) 1.0562(5)
H20 H 0.2413 0.5015 1.0355
C29 C 0.2928(8) 0.3919(7) 1.0277(5)
C30 C 0.2426(8) 0.3491(7) 0.9680(5)
H21 H 0.1986 0.3737 0.9436
C31 C 0.2081(6) 0.2315(7) 0.8906(4)
C32 C 0.1535(7) 0.1580(7) 0.8883(4)
H22 H 0.1500 0.1366 0.9254
C33 C 0.1017(6) 0.1124(7) 0.8314(4)
C34 C 0.1075(6) 0.1441(7) 0.7784(4)
C35 C 0.1606(8) 0.2204(9) 0.7807(5)
H23 H 0.1618 0.2430 0.7438
C36 C 0.2126(8) 0.2649(8) 0.8364(5)
H24 H 0.2503 0.3168 0.8376
C37 C 0.0972(7) 0.0903(8) 0.6756(5)
C38 C 0.1683(7) 0.0450(9) 0.6831(5)
H25 H 0.1878 0.0235 0.7204
C39 C 0.2094(7) 0.0325(8) 0.6345(5)
H26 H 0.2590 0.0043 0.6394
C40 C 0.1793(7) 0.0602(7) 0.5800(4)
C41 C 0.1055(7) 0.0987(6) 0.5719(4)
H27 H 0.0833 0.1153 0.5332
C42 C 0.0632(6) 0.1137(7) 0.6189(4)
C43 C 0.2286(7) -0.0270(7) 0.5093(4)
H28 H 0.2036 -0.0742 0.5251
C44 C 0.2732(7) -0.0398(6) 0.4604(5)
C45 C 0.2826(8) -0.1178(7) 0.4328(5)
H29 H 0.2630 -0.1684 0.4474
C46 C 0.3216(8) -0.1219(9) 0.3828(6)
H30 H 0.3288 -0.1752 0.3624
C47 C 0.3490(8) -0.0475(8) 0.3642(5)
H31 H 0.3741 -0.0489 0.3294
C48 C 0.3409(8) 0.0308(8) 0.3951(5)
H32 H 0.3634 0.0820 0.3825
C49 C 0.2310(8) 0.2049(8) 1.0854(5)
H33 H 0.2445 0.2638 1.1022
C50 C 0.1703(9) 0.1504(10) 1.1067(5)
H34 H 0.1432 0.1732 1.1373
C51 C 0.1511(9) 0.0686(10) 1.0847(6)
H35 H 0.1110 0.0326 1.1000
C52 C 0.1889(9) 0.0346(9) 1.0394(5)
H36 H 0.1746 -0.0245 1.0230
C53 C 0.2467(7) 0.0868(7) 1.0188(4)
C54 C 0.2921(7) 0.0625(7) 0.9723(4)
H37 H 0.2827 0.0049 0.9525
C55 C 0.3838(7) 0.0940(6) 0.9077(4)
C56 C 0.4728(7) 0.0933(6) 0.9203(5)
H38 H 0.5068 0.1073 0.9616
C57 C 0.5127(7) 0.0721(6) 0.8729(5)
C58 C 0.4647(9) 0.0530(9) 0.8145(5)
C59 C 0.3762(9) 0.0512(11) 0.8016(5)
H39 H 0.3426 0.0354 0.7604
C60 C 0.3356(9) 0.0721(10) 0.8484(5)
H40 H 0.2741 0.0712 0.8393
C61 C 0.4776(9) 0.0583(10) 0.7120(5)
C62 C 0.4922(11) 0.1443(10) 0.7109(5)
H41 H 0.5210 0.1824 0.7476
C63 C 0.4660(11) 0.1753(9) 0.6578(5)
H42 H 0.4730 0.2352 0.6575
C64 C 0.4283(8) 0.1178(8) 0.6028(4)
C65 C 0.4180(7) 0.0322(7) 0.6032(5)
H43 H 0.3948 -0.0058 0.5656
C66 C 0.4409(8) -0.0007(8) 0.6579(5)
C67 C 0.4609(7) 0.1975(8) 0.5284(4)
H44 H 0.5206 0.2062 0.5500
C68 C 0.4325(8) 0.2362(8) 0.4732(5)
C69 C 0.4881(9) 0.2855(9) 0.4505(6)
H45 H 0.5490 0.2964 0.4694
C70 C 0.4552(10) 0.3211(9) 0.3982(6)
H46 H 0.4925 0.3581 0.3813
C71 C 0.3675(9) 0.3006(8) 0.3724(5)
H47 H 0.3433 0.3222 0.3361
C72 C 0.3136(9) 0.2490(7) 0.3983(4)
H48 H 0.2525 0.2368 0.3802
loop_
_geom_bond_atom_site_label_1
_geom_bond_atom_site_label_2
_geom_bond_site_symmetry_1
_geom_bond_site_symmetry_2
Fe1 N7 1_555 1_555
Fe2 N1 1_555 1_555
S1 O4 1_555 1_555
S2 O7 1_555 1_555
S3 O10 1_555 1_555
S4 O13 1_555 1_555
S5 O16 1_555 1_555
S6 O19 1_555 1_555
O1 C58 1_555 1_555
O2 C34 1_555 1_555
O3 C10 1_555 1_555
O5 S1 1_555 1_555
O6 S1 1_555 1_555
O8 S2 1_555 1_555
O9 S2 1_555 1_555
O11 S3 1_555 1_555
O12 S3 1_555 1_555
O14 S4 1_555 1_555
O15 S4 1_555 1_555
O17 S5 1_555 1_555
O18 S5 1_555 1_555
O20 S6 1_555 1_555
O21 S6 1_555 1_555
N1 C1 1_555 1_555
N2 Fe2 1_555 1_555
N3 Fe2 1_555 1_555
N4 Fe2 1_555 1_555
N5 Fe2 1_555 1_555
N6 Fe2 1_555 1_555
N7 C16 1_555 1_555
N8 Fe1 1_555 1_555
N9 Fe1 1_555 1_555
N10 Fe1 1_555 1_555
N11 Fe1 1_555 1_555
N12 Fe1 1_555 1_555
C1 H1 1_555 1_555
C2 C1 1_555 1_555
H2 C2 1_555 1_555
C3 C2 1_555 1_555
H3 C3 1_555 1_555
C4 C3 1_555 1_555
H4 C4 1_555 1_555
C5 N1 1_555 1_555
C6 N2 1_555 1_555
H5 C6 1_555 1_555
C7 N2 1_555 1_555
C8 C7 1_555 1_555
H6 C8 1_555 1_555
C9 S1 1_555 1_555
C10 C9 1_555 1_555
C11 C10 1_555 1_555
H7 C11 1_555 1_555
C12 C7 1_555 1_555
H8 C12 1_555 1_555
C13 O3 1_555 1_555
C14 S3 1_555 1_555
C15 C14 1_555 1_555
H9 C15 1_555 1_555
C16 C15 1_555 1_555
C17 C16 1_555 1_555
H10 C17 1_555 1_555
C18 C13 1_555 1_555
H11 C18 1_555 1_555
C19 N7 1_555 1_555
H12 C19 1_555 1_555
C20 N8 1_555 1_555
C21 C20 1_555 1_555
H13 C21 1_555 1_555
C22 C21 1_555 1_555
H14 C22 1_555 1_555
C23 C22 1_555 1_555
H15 C23 1_555 1_555
C24 N8 1_555 1_555
H16 C24 1_555 1_555
C25 N9 1_555 1_555
H17 C25 1_555 1_555
C26 C25 1_555 1_555
H18 C26 1_555 1_555
C27 C26 1_555 1_555
H19 C27 1_555 1_555
C28 C27 1_555 1_555
H20 C28 1_555 1_555
C29 N9 1_555 1_555
C30 N10 1_555 1_555
H21 C30 1_555 1_555
C31 N10 1_555 1_555
C32 C31 1_555 1_555
H22 C32 1_555 1_555
C33 S5 1_555 1_555
C34 C33 1_555 1_555
C35 C34 1_555 1_555
H23 C35 1_555 1_555
C36 C31 1_555 1_555
H24 C36 1_555 1_555
C37 O2 1_555 1_555
C38 C37 1_555 1_555
H25 C38 1_555 1_555
C39 C38 1_555 1_555
H26 C39 1_555 1_555
C40 N6 1_555 1_555
C41 C40 1_555 1_555
H27 C41 1_555 1_555
C42 S6 1_555 1_555
C43 N6 1_555 1_555
H28 C43 1_555 1_555
C44 N5 1_555 1_555
C45 C44 1_555 1_555
H29 C45 1_555 1_555
C46 C45 1_555 1_555
H30 C46 1_555 1_555
C47 C46 1_555 1_555
H31 C47 1_555 1_555
C48 N5 1_555 1_555
H32 C48 1_555 1_555
C49 N11 1_555 1_555
H33 C49 1_555 1_555
C50 C49 1_555 1_555
H34 C50 1_555 1_555
C51 C50 1_555 1_555
H35 C51 1_555 1_555
C52 C51 1_555 1_555
H36 C52 1_555 1_555
C53 N11 1_555 1_555
C54 N12 1_555 1_555
H37 C54 1_555 1_555
C55 N12 1_555 1_555
C56 C55 1_555 1_555
H38 C56 1_555 1_555
C57 S2 1_555 1_555
C58 C57 1_555 1_555
C59 C58 1_555 1_555
H39 C59 1_555 1_555
C60 C55 1_555 1_555
H40 C60 1_555 1_555
C61 O1 1_555 1_555
C62 C61 1_555 1_555
H41 C62 1_555 1_555
C63 C62 1_555 1_555
H42 C63 1_555 1_555
C64 N4 1_555 1_555
C65 C64 1_555 1_555
H43 C65 1_555 1_555
C66 S4 1_555 1_555
C67 N4 1_555 1_555
H44 C67 1_555 1_555
C68 N3 1_555 1_555
C69 C68 1_555 1_555
H45 C69 1_555 1_555
C70 C69 1_555 1_555
H46 C70 1_555 1_555
C71 C70 1_555 1_555
H47 C71 1_555 1_555
C72 N3 1_555 1_555
H48 C72 1_555 1_555
Fe3 O24 1_555 1_555
O24 Fe3A 1_555 1_555
O25 Fe3 1_555 1_555
O26 Fe3 1_555 1_555
O27 Fe3 1_555 1_555
O28 Fe3 1_555 1_555
Fe3A Fe3 1_555 1_555
O24A Fe3 1_555 1_555
O25A Fe3A 1_555 1_555
O26A Fe3A 1_555 1_555
O27A Fe3A 1_555 1_555
O28A Fe3 1_555 1_555
C4 C5 1_555 1_555
C5 C6 1_555 1_555
C8 C9 1_555 1_555
C11 C12 1_555 1_555
C13 C14 1_555 1_555
C17 C18 1_555 1_555
C19 C20 1_555 1_555
C23 C24 1_555 1_555
C28 C29 1_555 1_555
C29 C30 1_555 1_555
C32 C33 1_555 1_555
C35 C36 1_555 1_555
C37 C42 1_555 1_555
C39 C40 1_555 1_555
C41 C42 1_555 1_555
C43 C44 1_555 1_555
C47 C48 1_555 1_555
C52 C53 1_555 1_555
C53 C54 1_555 1_555
C56 C57 1_555 1_555
C59 C60 1_555 1_555
C61 C66 1_555 1_555
C63 C64 1_555 1_555
C65 C66 1_555 1_555
C67 C68 1_555 1_555
C71 C72 1_555 1_555
O28 Fe3A 1_555 1_555
Fe3A O24A 1_555 1_555
Fe3A O28A 1_555 1_555

#END
