
#######################################################################
#
#                 Cambridge Crystallographic Data Centre
#                                CCDC 
#
#######################################################################
#
# If this CIF has been generated from an entry in the Cambridge 
# Structural Database, then it will include bibliographic, chemical, 
# crystal, experimental, refinement or atomic coordinate data resulting 
# from the CCDC's data processing and validation procedures.
#
#######################################################################

data_BUPDIA
_chemical_formula_moiety         'C160 H96 N32 Zn4,2(C6 H5 Cl1 O1)'
_chemical_name_systematic        
'Cyclo-tetrakis(\m~2~-5,10,15,20-tetrakis(4-pyridyl)porphyrin-zinc(ii)) 2-chlorophenol solvate'
_symmetry_cell_setting           tetragonal
_symmetry_space_group_name_H-M   'P 42/n'
_symmetry_Int_Tables_number      86
_space_group_name_Hall           '-P 4bc'
loop_
_symmetry_equiv_pos_site_id
_symmetry_equiv_pos_as_xyz
1 x,y,z
2 1/2-x,1/2-y,z
3 -y,1/2+x,1/2+z
4 1/2+y,-x,1/2+z
5 -x,-y,-z
6 1/2+x,1/2+y,-z
7 y,1/2-x,1/2-z
8 1/2-y,x,1/2-z
_cell_length_a                   23.5744(3)
_cell_length_b                   23.5744(3)
_cell_length_c                   15.0025(3)
_cell_angle_alpha                90
_cell_angle_beta                 90
_cell_angle_gamma                90
_cell_volume                     8337.67
_exptl_crystal_colour            purple
_exptl_crystal_description       prism
_cell_formula_units_Z            2
loop_
_atom_site_label
_atom_site_type_symbol
_atom_site_fract_x
_atom_site_fract_y
_atom_site_fract_z
Zn1 Zn 0.521760(16) 0.150921(16) 0.31497(3)
C1 C 0.47865(14) 0.27214(14) 0.3490(3)
C2 C 0.46508(15) 0.31067(15) 0.4197(2)
H1 H 0.4466 0.3463 0.4138
C3 C 0.48364(16) 0.28676(15) 0.4966(3)
H2 H 0.4808 0.3025 0.5547
C4 C 0.50829(15) 0.23336(14) 0.4733(2)
C5 C 0.53198(16) 0.19517(16) 0.5350(3)
C6 C 0.55187(16) 0.14089(15) 0.5152(3)
C7 C 0.57528(18) 0.10188(16) 0.5795(3)
H3 H 0.5799 0.1084 0.6416
C8 C 0.58925(17) 0.05442(17) 0.5347(3)
H4 H 0.6050 0.0209 0.5599
C9 C 0.57607(15) 0.06336(15) 0.4413(3)
C10 C 0.58868(14) 0.02570(14) 0.3726(3)
C11 C 0.58565(14) 0.03804(15) 0.2814(3)
C12 C 0.60135(16) 0.00087(17) 0.2097(3)
H5 H 0.6154 -0.0367 0.2153
C13 C 0.59248(15) 0.02936(15) 0.1323(3)
H6 H 0.5995 0.0157 0.0738
C14 C 0.57057(15) 0.08401(15) 0.1557(3)
C15 C 0.55553(16) 0.12630(16) 0.0943(3)
C16 C 0.53087(15) 0.17880(15) 0.1142(2)
C17 C 0.51530(16) 0.22155(16) 0.0495(3)
H7 H 0.5220 0.2202 -0.0130
C18 C 0.48934(17) 0.26398(16) 0.0952(3)
H8 H 0.4732 0.2974 0.0705
C19 C 0.49099(15) 0.24869(15) 0.1878(2)
C20 C 0.47100(14) 0.28197(14) 0.2575(2)
N1 N 0.50417(11) 0.22472(11) 0.38350(19)
N2 N 0.55273(12) 0.11688(12) 0.4320(2)
N3 N 0.56633(12) 0.08868(12) 0.2464(2)
N4 N 0.51608(12) 0.19645(12) 0.19757(19)
C21 C 0.53682(18) 0.21350(16) 0.6294(3)
C22 C 0.5784(2) 0.2484(3) 0.6578(4)
H9 H 0.6052 0.2628 0.6163
C23 C 0.5824(2) 0.2633(3) 0.7461(5)
H10 H 0.6122 0.2883 0.7630
N5 N 0.5480(2) 0.2454(2) 0.8084(3)
C24 C 0.5069(3) 0.2110(3) 0.7815(4)
H11 H 0.4812 0.1966 0.8248
C25 C 0.4996(3) 0.1951(2) 0.6937(3)
H12 H 0.4687 0.1713 0.6776
C26 C 0.60942(16) -0.03127(15) 0.4000(3)
C27 C 0.57574(18) -0.06807(17) 0.4460(3)
H13 H 0.5379 -0.0581 0.4608
C28 C 0.5978(2) -0.12081(17) 0.4710(3)
H14 H 0.5733 -0.1462 0.5015
N6 N 0.64990(15) -0.13770(14) 0.4555(3)
C29 C 0.68231(19) -0.10098(19) 0.4131(4)
H15 H 0.7204 -0.1116 0.4012
C30 C 0.66464(16) -0.04810(17) 0.3850(3)
H16 H 0.6904 -0.0234 0.3555
C31 C 0.56723(17) 0.11438(16) -0.0023(3)
C32 C 0.6155(2) 0.1331(2) -0.0428(3)
H17 H 0.6426 0.1539 -0.0094
C33 C 0.6256(2) 0.1221(2) -0.1326(3)
H18 H 0.6601 0.1348 -0.1587
N7 N 0.5892(2) 0.09463(18) -0.1823(3)
C34 C 0.5414(3) 0.0761(2) -0.1423(4)
H19 H 0.5146 0.0557 -0.1770
C35 C 0.5297(2) 0.0853(2) -0.0543(3)
H20 H 0.4954 0.0714 -0.0292
C36 C 0.44188(15) 0.33695(14) 0.2323(2)
C37 C 0.38496(17) 0.33885(17) 0.2092(3)
H21 H 0.3634 0.3049 0.2049
C38 C 0.35997(17) 0.39121(17) 0.1923(3)
H22 H 0.3207 0.3921 0.1785
N8 N 0.38816(12) 0.44004(12) 0.19453(18)
C39 C 0.44319(16) 0.43659(17) 0.2121(3)
H23 H 0.4647 0.4706 0.2118
C40 C 0.47105(16) 0.38637(15) 0.2308(3)
H24 H 0.5106 0.3866 0.2426
Zn1F Zn 0.150921(16) -0.021760(16) 0.18503(3)
Zn1G Zn 0.349079(16) 0.521760(16) 0.18503(3)
Zn1A Zn -0.021760(16) 0.349079(16) 0.31497(3)
C1F C 0.27214(14) 0.02135(14) 0.1510(3)
C1G C 0.22786(14) 0.47865(14) 0.1510(3)
C1A C 0.02135(14) 0.22786(14) 0.3490(3)
C2F C 0.31067(15) 0.03492(15) 0.0803(2)
C2G C 0.18933(15) 0.46508(15) 0.0803(2)
C2A C 0.03492(15) 0.18933(15) 0.4197(2)
H1F H 0.3463 0.0534 0.0862
H1G H 0.1537 0.4466 0.0862
H1A H 0.0534 0.1537 0.4138
C3F C 0.28676(15) 0.01636(16) 0.0034(3)
C3G C 0.21324(15) 0.48364(16) 0.0034(3)
C3A C 0.01636(16) 0.21324(15) 0.4966(3)
H2F H 0.3025 0.0192 -0.0547
H2G H 0.1975 0.4808 -0.0547
H2A H 0.0192 0.1975 0.5547
C4F C 0.23336(14) -0.00829(15) 0.0267(2)
C4G C 0.26664(14) 0.50829(15) 0.0267(2)
C4A C -0.00829(15) 0.26664(14) 0.4733(2)
C5F C 0.19517(16) -0.03198(16) -0.0350(3)
C5G C 0.30483(16) 0.53198(16) -0.0350(3)
C5A C -0.03198(16) 0.30483(16) 0.5350(3)
C6F C 0.14089(15) -0.05187(16) -0.0152(3)
C6G C 0.35911(15) 0.55187(16) -0.0152(3)
C6A C -0.05187(16) 0.35911(15) 0.5152(3)
C7F C 0.10188(16) -0.07528(18) -0.0795(3)
C7G C 0.39812(16) 0.57528(18) -0.0795(3)
C7A C -0.07528(18) 0.39812(16) 0.5795(3)
H3F H 0.1084 -0.0799 -0.1416
H3G H 0.3916 0.5799 -0.1416
H3A H -0.0799 0.3916 0.6416
C8F C 0.05442(17) -0.08925(17) -0.0347(3)
C8G C 0.44558(17) 0.58925(17) -0.0347(3)
C8A C -0.08925(17) 0.44558(17) 0.5347(3)
H4F H 0.0209 -0.1050 -0.0599
H4G H 0.4791 0.6050 -0.0599
H4A H -0.1050 0.4791 0.5599
C9F C 0.06336(15) -0.07607(15) 0.0587(3)
C9G C 0.43664(15) 0.57607(15) 0.0587(3)
C9A C -0.07607(15) 0.43664(15) 0.4413(3)
C10F C 0.02570(14) -0.08868(14) 0.1274(3)
C10G C 0.47430(14) 0.58868(14) 0.1274(3)
C10A C -0.08868(14) 0.47430(14) 0.3726(3)
C11F C 0.03804(15) -0.08565(14) 0.2186(3)
C11G C 0.46196(15) 0.58565(14) 0.2186(3)
C11A C -0.08565(14) 0.46196(15) 0.2814(3)
C12F C 0.00087(17) -0.10135(16) 0.2903(3)
C12G C 0.49913(17) 0.60135(16) 0.2903(3)
C12A C -0.10135(16) 0.49913(17) 0.2097(3)
H5F H -0.0367 -0.1154 0.2847
H5G H 0.5367 0.6154 0.2847
H5A H -0.1154 0.5367 0.2153
C13F C 0.02936(15) -0.09248(15) 0.3677(3)
C13G C 0.47064(15) 0.59248(15) 0.3677(3)
C13A C -0.09248(15) 0.47064(15) 0.1323(3)
H6F H 0.0157 -0.0995 0.4262
H6G H 0.4843 0.5995 0.4262
H6A H -0.0995 0.4843 0.0738
C14F C 0.08401(15) -0.07057(15) 0.3443(3)
C14G C 0.41599(15) 0.57057(15) 0.3443(3)
C14A C -0.07057(15) 0.41599(15) 0.1557(3)
C15F C 0.12630(16) -0.05553(16) 0.4057(3)
C15G C 0.37370(16) 0.55553(16) 0.4057(3)
C15A C -0.05553(16) 0.37370(16) 0.0943(3)
C16F C 0.17880(15) -0.03087(15) 0.3858(2)
C16G C 0.32120(15) 0.53087(15) 0.3858(2)
C16A C -0.03087(15) 0.32120(15) 0.1142(2)
C17F C 0.22155(16) -0.01530(16) 0.4505(3)
C17G C 0.27845(16) 0.51530(16) 0.4505(3)
C17A C -0.01530(16) 0.27845(16) 0.0495(3)
H7F H 0.2202 -0.0220 0.5130
H7G H 0.2798 0.5220 0.5130
H7A H -0.0220 0.2798 -0.0130
C18F C 0.26398(16) 0.01066(17) 0.4048(3)
C18G C 0.23602(16) 0.48934(17) 0.4048(3)
C18A C 0.01066(17) 0.23602(16) 0.0952(3)
H8F H 0.2974 0.0268 0.4295
H8G H 0.2026 0.4732 0.4295
H8A H 0.0268 0.2026 0.0705
C19F C 0.24869(15) 0.00901(15) 0.3122(2)
C19G C 0.25131(15) 0.49099(15) 0.3122(2)
C19A C 0.00901(15) 0.25131(15) 0.1878(2)
C20F C 0.28197(14) 0.02900(14) 0.2425(2)
C20G C 0.21803(14) 0.47100(14) 0.2425(2)
C20A C 0.02900(14) 0.21803(14) 0.2575(2)
N1F N 0.22472(11) -0.00417(11) 0.11650(19)
N1G N 0.27528(11) 0.50417(11) 0.11650(19)
N1A N -0.00417(11) 0.27528(11) 0.38350(19)
N2F N 0.11688(12) -0.05273(12) 0.0680(2)
N2G N 0.38312(12) 0.55273(12) 0.0680(2)
N2A N -0.05273(12) 0.38312(12) 0.4320(2)
N3F N 0.08868(12) -0.06633(12) 0.2536(2)
N3G N 0.41132(12) 0.56633(12) 0.2536(2)
N3A N -0.06633(12) 0.41132(12) 0.2464(2)
N4F N 0.19645(12) -0.01608(12) 0.30243(19)
N4G N 0.30355(12) 0.51608(12) 0.30243(19)
N4A N -0.01608(12) 0.30355(12) 0.19757(19)
C21F C 0.21350(16) -0.03682(18) -0.1294(3)
C21G C 0.28650(16) 0.53682(18) -0.1294(3)
C21A C -0.03682(18) 0.28650(16) 0.6294(3)
C22F C 0.2484(3) -0.0784(2) -0.1578(4)
C22G C 0.2516(3) 0.5784(2) -0.1578(4)
C22A C -0.0784(2) 0.2516(3) 0.6578(4)
H9F H 0.2628 -0.1052 -0.1163
H9G H 0.2372 0.6052 -0.1163
H9A H -0.1052 0.2372 0.6163
C23F C 0.2633(3) -0.0824(2) -0.2461(5)
C23G C 0.2367(3) 0.5824(2) -0.2461(5)
C23A C -0.0824(2) 0.2367(3) 0.7461(5)
H10F H 0.2883 -0.1122 -0.2630
H10G H 0.2117 0.6122 -0.2630
H10A H -0.1122 0.2117 0.7630
N5F N 0.2454(2) -0.0480(2) -0.3084(3)
N5G N 0.2546(2) 0.5480(2) -0.3084(3)
N5A N -0.0480(2) 0.2546(2) 0.8084(3)
C24F C 0.2110(3) -0.0069(3) -0.2815(4)
C24G C 0.2890(3) 0.5069(3) -0.2815(4)
C24A C -0.0069(3) 0.2890(3) 0.7815(4)
H11F H 0.1966 0.0188 -0.3248
H11G H 0.3034 0.4812 -0.3248
H11A H 0.0188 0.3034 0.8248
C25F C 0.1951(2) 0.0004(3) -0.1937(3)
C25G C 0.3049(2) 0.4996(3) -0.1937(3)
C25A C 0.0004(3) 0.3049(2) 0.6937(3)
H12F H 0.1713 0.0313 -0.1776
H12G H 0.3287 0.4687 -0.1776
H12A H 0.0313 0.3287 0.6776
C26F C -0.03127(15) -0.10942(16) 0.1000(3)
C26G C 0.53127(15) 0.60942(16) 0.1000(3)
C26A C -0.10942(16) 0.53127(15) 0.4000(3)
C27F C -0.06807(17) -0.07574(18) 0.0540(3)
C27G C 0.56807(17) 0.57574(18) 0.0540(3)
C27A C -0.07574(18) 0.56807(17) 0.4460(3)
H13F H -0.0581 -0.0379 0.0392
H13G H 0.5581 0.5379 0.0392
H13A H -0.0379 0.5581 0.4608
C28F C -0.12081(17) -0.0978(2) 0.0290(3)
C28G C 0.62081(17) 0.5978(2) 0.0290(3)
C28A C -0.0978(2) 0.62081(17) 0.4710(3)
H14F H -0.1462 -0.0733 -0.0015
H14G H 0.6462 0.5733 -0.0015
H14A H -0.0733 0.6462 0.5015
N6F N -0.13770(14) -0.14990(15) 0.0445(3)
N6G N 0.63770(14) 0.64990(15) 0.0445(3)
N6A N -0.14990(15) 0.63770(14) 0.4555(3)
C29F C -0.10098(19) -0.18231(19) 0.0869(4)
C29G C 0.60098(19) 0.68231(19) 0.0869(4)
C29A C -0.18231(19) 0.60098(19) 0.4131(4)
H15F H -0.1116 -0.2204 0.0988
H15G H 0.6116 0.7204 0.0988
H15A H -0.2204 0.6116 0.4012
C30F C -0.04810(17) -0.16464(16) 0.1150(3)
C30G C 0.54810(17) 0.66464(16) 0.1150(3)
C30A C -0.16464(16) 0.54810(17) 0.3850(3)
H16F H -0.0234 -0.1904 0.1445
H16G H 0.5234 0.6904 0.1445
H16A H -0.1904 0.5234 0.3555
C31F C 0.11438(16) -0.06723(17) 0.5023(3)
C31G C 0.38562(16) 0.56723(17) 0.5023(3)
C31A C -0.06723(17) 0.38562(16) -0.0023(3)
C32F C 0.1331(2) -0.1155(2) 0.5428(3)
C32G C 0.3669(2) 0.6155(2) 0.5428(3)
C32A C -0.1155(2) 0.3669(2) -0.0428(3)
H17F H 0.1539 -0.1426 0.5094
H17G H 0.3461 0.6426 0.5094
H17A H -0.1426 0.3461 -0.0094
C33F C 0.1221(2) -0.1256(2) 0.6326(3)
C33G C 0.3779(2) 0.6256(2) 0.6326(3)
C33A C -0.1256(2) 0.3779(2) -0.1326(3)
H18F H 0.1348 -0.1601 0.6587
H18G H 0.3652 0.6601 0.6587
H18A H -0.1601 0.3652 -0.1587
N7F N 0.09463(18) -0.0892(2) 0.6823(3)
N7G N 0.40537(18) 0.5892(2) 0.6823(3)
N7A N -0.0892(2) 0.40537(18) -0.1823(3)
C34F C 0.0761(2) -0.0414(3) 0.6423(4)
C34G C 0.4239(2) 0.5414(3) 0.6423(4)
C34A C -0.0414(3) 0.4239(2) -0.1423(4)
H19F H 0.0557 -0.0146 0.6770
H19G H 0.4443 0.5146 0.6770
H19A H -0.0146 0.4443 -0.1770
C35F C 0.0853(2) -0.0297(2) 0.5543(3)
C35G C 0.4147(2) 0.5297(2) 0.5543(3)
C35A C -0.0297(2) 0.4147(2) -0.0543(3)
H20F H 0.0714 0.0046 0.5292
H20G H 0.4286 0.4954 0.5292
H20A H 0.0046 0.4286 -0.0292
C36F C 0.33695(14) 0.05812(15) 0.2677(2)
C36G C 0.16305(14) 0.44188(15) 0.2677(2)
C36A C 0.05812(15) 0.16305(14) 0.2323(2)
C37F C 0.33885(17) 0.11504(17) 0.2908(3)
C37G C 0.16115(17) 0.38496(17) 0.2908(3)
C37A C 0.11504(17) 0.16115(17) 0.2092(3)
H21F H 0.3049 0.1366 0.2951
H21G H 0.1951 0.3634 0.2951
H21A H 0.1366 0.1951 0.2049
C38F C 0.39121(17) 0.14003(17) 0.3077(3)
C38G C 0.10879(17) 0.35997(17) 0.3077(3)
C38A C 0.14003(17) 0.10879(17) 0.1923(3)
H22F H 0.3921 0.1793 0.3215
H22G H 0.1079 0.3207 0.3215
H22A H 0.1793 0.1079 0.1785
N8F N 0.44004(12) 0.11184(12) 0.30547(18)
N8G N 0.05996(12) 0.38816(12) 0.30547(18)
N8A N 0.11184(12) 0.05996(12) 0.19453(18)
C39F C 0.43659(17) 0.05681(16) 0.2879(3)
C39G C 0.06341(17) 0.44319(16) 0.2879(3)
C39A C 0.05681(16) 0.06341(17) 0.2121(3)
H23F H 0.4706 0.0353 0.2882
H23G H 0.0294 0.4647 0.2882
H23A H 0.0353 0.0294 0.2118
C40F C 0.38637(15) 0.02895(16) 0.2692(3)
C40G C 0.11363(15) 0.47105(16) 0.2692(3)
C40A C 0.02895(16) 0.11363(15) 0.2308(3)
H24F H 0.3866 -0.0106 0.2574
H24G H 0.1134 0.5106 0.2574
H24A H -0.0106 0.1134 0.2426
loop_
_geom_bond_atom_site_label_1
_geom_bond_atom_site_label_2
_geom_bond_site_symmetry_1
_geom_bond_site_symmetry_2
Zn1 N1 1_555 1_555
C1 C2 1_555 1_555
C2 H1 1_555 1_555
C3 C2 1_555 1_555
H2 C3 1_555 1_555
C4 C3 1_555 1_555
C5 C4 1_555 1_555
C6 C5 1_555 1_555
C7 C6 1_555 1_555
H3 C7 1_555 1_555
C8 C7 1_555 1_555
H4 C8 1_555 1_555
C9 C8 1_555 1_555
C10 C9 1_555 1_555
C11 C10 1_555 1_555
C12 C11 1_555 1_555
H5 C12 1_555 1_555
C13 C12 1_555 1_555
H6 C13 1_555 1_555
C14 C13 1_555 1_555
C15 C14 1_555 1_555
C16 C15 1_555 1_555
C17 C16 1_555 1_555
H7 C17 1_555 1_555
C18 C17 1_555 1_555
H8 C18 1_555 1_555
C19 C18 1_555 1_555
C20 C1 1_555 1_555
N1 C1 1_555 1_555
N2 Zn1 1_555 1_555
N3 Zn1 1_555 1_555
N4 Zn1 1_555 1_555
C21 C5 1_555 1_555
C22 C21 1_555 1_555
H9 C22 1_555 1_555
C23 C22 1_555 1_555
H10 C23 1_555 1_555
N5 C23 1_555 1_555
C24 N5 1_555 1_555
H11 C24 1_555 1_555
C25 C21 1_555 1_555
H12 C25 1_555 1_555
C26 C10 1_555 1_555
C27 C26 1_555 1_555
H13 C27 1_555 1_555
C28 C27 1_555 1_555
H14 C28 1_555 1_555
N6 C28 1_555 1_555
C29 N6 1_555 1_555
H15 C29 1_555 1_555
C30 C26 1_555 1_555
H16 C30 1_555 1_555
C31 C15 1_555 1_555
C32 C31 1_555 1_555
H17 C32 1_555 1_555
C33 C32 1_555 1_555
H18 C33 1_555 1_555
N7 C33 1_555 1_555
C34 N7 1_555 1_555
H19 C34 1_555 1_555
C35 C31 1_555 1_555
H20 C35 1_555 1_555
C36 C20 1_555 1_555
C37 C36 1_555 1_555
H21 C37 1_555 1_555
C38 C37 1_555 1_555
H22 C38 1_555 1_555
N8 C38 1_555 1_555
C39 N8 1_555 1_555
H23 C39 1_555 1_555
C40 C36 1_555 1_555
H24 C40 1_555 1_555
Zn1F N1F 1_555 1_555
Zn1G N8 1_555 1_555
Zn1A N1A 1_555 1_555
C1F C2F 1_555 1_555
C1G C2G 1_555 1_555
C1A C2A 1_555 1_555
C2F H1F 1_555 1_555
C2G H1G 1_555 1_555
C2A H1A 1_555 1_555
C3F C2F 1_555 1_555
C3G C2G 1_555 1_555
C3A C2A 1_555 1_555
H2F C3F 1_555 1_555
H2G C3G 1_555 1_555
H2A C3A 1_555 1_555
C4F C3F 1_555 1_555
C4G C3G 1_555 1_555
C4A C3A 1_555 1_555
C5F C4F 1_555 1_555
C5G C4G 1_555 1_555
C5A C4A 1_555 1_555
C6F C5F 1_555 1_555
C6G C5G 1_555 1_555
C6A C5A 1_555 1_555
C7F C6F 1_555 1_555
C7G C6G 1_555 1_555
C7A C6A 1_555 1_555
H3F C7F 1_555 1_555
H3G C7G 1_555 1_555
H3A C7A 1_555 1_555
C8F C7F 1_555 1_555
C8G C7G 1_555 1_555
C8A C7A 1_555 1_555
H4F C8F 1_555 1_555
H4G C8G 1_555 1_555
H4A C8A 1_555 1_555
C9F C8F 1_555 1_555
C9G C8G 1_555 1_555
C9A C8A 1_555 1_555
C10F C9F 1_555 1_555
C10G C9G 1_555 1_555
C10A C9A 1_555 1_555
C11F C10F 1_555 1_555
C11G C10G 1_555 1_555
C11A C10A 1_555 1_555
C12F C11F 1_555 1_555
C12G C11G 1_555 1_555
C12A C11A 1_555 1_555
H5F C12F 1_555 1_555
H5G C12G 1_555 1_555
H5A C12A 1_555 1_555
C13F C12F 1_555 1_555
C13G C12G 1_555 1_555
C13A C12A 1_555 1_555
H6F C13F 1_555 1_555
H6G C13G 1_555 1_555
H6A C13A 1_555 1_555
C14F C13F 1_555 1_555
C14G C13G 1_555 1_555
C14A C13A 1_555 1_555
C15F C14F 1_555 1_555
C15G C14G 1_555 1_555
C15A C14A 1_555 1_555
C16F C15F 1_555 1_555
C16G C15G 1_555 1_555
C16A C15A 1_555 1_555
C17F C16F 1_555 1_555
C17G C16G 1_555 1_555
C17A C16A 1_555 1_555
H7F C17F 1_555 1_555
H7G C17G 1_555 1_555
H7A C17A 1_555 1_555
C18F C17F 1_555 1_555
C18G C17G 1_555 1_555
C18A C17A 1_555 1_555
H8F C18F 1_555 1_555
H8G C18G 1_555 1_555
H8A C18A 1_555 1_555
C19F C18F 1_555 1_555
C19G C18G 1_555 1_555
C19A C18A 1_555 1_555
C20F C1F 1_555 1_555
C20G C1G 1_555 1_555
C20A C1A 1_555 1_555
N1F C1F 1_555 1_555
N1G Zn1G 1_555 1_555
N1A C1A 1_555 1_555
N2F Zn1F 1_555 1_555
N2G Zn1G 1_555 1_555
N2A Zn1A 1_555 1_555
N3F Zn1F 1_555 1_555
N3G Zn1G 1_555 1_555
N3A Zn1A 1_555 1_555
N4F Zn1F 1_555 1_555
N4G Zn1G 1_555 1_555
N4A Zn1A 1_555 1_555
C21F C5F 1_555 1_555
C21G C5G 1_555 1_555
C21A C5A 1_555 1_555
C22F C21F 1_555 1_555
C22G C21G 1_555 1_555
C22A C21A 1_555 1_555
H9F C22F 1_555 1_555
H9G C22G 1_555 1_555
H9A C22A 1_555 1_555
C23F C22F 1_555 1_555
C23G C22G 1_555 1_555
C23A C22A 1_555 1_555
H10F C23F 1_555 1_555
H10G C23G 1_555 1_555
H10A C23A 1_555 1_555
N5F C23F 1_555 1_555
N5G C23G 1_555 1_555
N5A C23A 1_555 1_555
C24F N5F 1_555 1_555
C24G N5G 1_555 1_555
C24A N5A 1_555 1_555
H11F C24F 1_555 1_555
H11G C24G 1_555 1_555
H11A C24A 1_555 1_555
C25F C21F 1_555 1_555
C25G C21G 1_555 1_555
C25A C21A 1_555 1_555
H12F C25F 1_555 1_555
H12G C25G 1_555 1_555
H12A C25A 1_555 1_555
C26F C10F 1_555 1_555
C26G C10G 1_555 1_555
C26A C10A 1_555 1_555
C27F C26F 1_555 1_555
C27G C26G 1_555 1_555
C27A C26A 1_555 1_555
H13F C27F 1_555 1_555
H13G C27G 1_555 1_555
H13A C27A 1_555 1_555
C28F C27F 1_555 1_555
C28G C27G 1_555 1_555
C28A C27A 1_555 1_555
H14F C28F 1_555 1_555
H14G C28G 1_555 1_555
H14A C28A 1_555 1_555
N6F C28F 1_555 1_555
N6G C28G 1_555 1_555
N6A C28A 1_555 1_555
C29F N6F 1_555 1_555
C29G N6G 1_555 1_555
C29A N6A 1_555 1_555
H15F C29F 1_555 1_555
H15G C29G 1_555 1_555
H15A C29A 1_555 1_555
C30F C26F 1_555 1_555
C30G C26G 1_555 1_555
C30A C26A 1_555 1_555
H16F C30F 1_555 1_555
H16G C30G 1_555 1_555
H16A C30A 1_555 1_555
C31F C15F 1_555 1_555
C31G C15G 1_555 1_555
C31A C15A 1_555 1_555
C32F C31F 1_555 1_555
C32G C31G 1_555 1_555
C32A C31A 1_555 1_555
H17F C32F 1_555 1_555
H17G C32G 1_555 1_555
H17A C32A 1_555 1_555
C33F C32F 1_555 1_555
C33G C32G 1_555 1_555
C33A C32A 1_555 1_555
H18F C33F 1_555 1_555
H18G C33G 1_555 1_555
H18A C33A 1_555 1_555
N7F C33F 1_555 1_555
N7G C33G 1_555 1_555
N7A C33A 1_555 1_555
C34F N7F 1_555 1_555
C34G N7G 1_555 1_555
C34A N7A 1_555 1_555
H19F C34F 1_555 1_555
H19G C34G 1_555 1_555
H19A C34A 1_555 1_555
C35F C31F 1_555 1_555
C35G C31G 1_555 1_555
C35A C31A 1_555 1_555
H20F C35F 1_555 1_555
H20G C35G 1_555 1_555
H20A C35A 1_555 1_555
C36F C20F 1_555 1_555
C36G C20G 1_555 1_555
C36A C20A 1_555 1_555
C37F C36F 1_555 1_555
C37G C36G 1_555 1_555
C37A C36A 1_555 1_555
H21F C37F 1_555 1_555
H21G C37G 1_555 1_555
H21A C37A 1_555 1_555
C38F C37F 1_555 1_555
C38G C37G 1_555 1_555
C38A C37A 1_555 1_555
H22F C38F 1_555 1_555
H22G C38G 1_555 1_555
H22A C38A 1_555 1_555
N8F Zn1 1_555 1_555
N8G Zn1A 1_555 1_555
N8A Zn1F 1_555 1_555
C39F N8F 1_555 1_555
C39G N8G 1_555 1_555
C39A N8A 1_555 1_555
H23F C39F 1_555 1_555
H23G C39G 1_555 1_555
H23A C39A 1_555 1_555
C40F C36F 1_555 1_555
C40G C36G 1_555 1_555
C40A C36A 1_555 1_555
H24F C40F 1_555 1_555
H24G C40G 1_555 1_555
H24A C40A 1_555 1_555
C4 N1 1_555 1_555
C6 N2 1_555 1_555
C9 N2 1_555 1_555
C11 N3 1_555 1_555
C14 N3 1_555 1_555
C16 N4 1_555 1_555
C19 C20 1_555 1_555
C19 N4 1_555 1_555
C24 C25 1_555 1_555
C29 C30 1_555 1_555
C34 C35 1_555 1_555
C39 C40 1_555 1_555
C1G N1G 1_555 1_555
C4F N1F 1_555 1_555
C4G N1G 1_555 1_555
C4A N1A 1_555 1_555
C6F N2F 1_555 1_555
C6G N2G 1_555 1_555
C6A N2A 1_555 1_555
C9F N2F 1_555 1_555
C9G N2G 1_555 1_555
C9A N2A 1_555 1_555
C11F N3F 1_555 1_555
C11G N3G 1_555 1_555
C11A N3A 1_555 1_555
C14F N3F 1_555 1_555
C14G N3G 1_555 1_555
C14A N3A 1_555 1_555
C16F N4F 1_555 1_555
C16G N4G 1_555 1_555
C16A N4A 1_555 1_555
C19F C20F 1_555 1_555
C19F N4F 1_555 1_555
C19G C20G 1_555 1_555
C19G N4G 1_555 1_555
C19A C20A 1_555 1_555
C19A N4A 1_555 1_555
C24F C25F 1_555 1_555
C24G C25G 1_555 1_555
C24A C25A 1_555 1_555
C29F C30F 1_555 1_555
C29G C30G 1_555 1_555
C29A C30A 1_555 1_555
C34F C35F 1_555 1_555
C34G C35G 1_555 1_555
C34A C35A 1_555 1_555
C38F N8F 1_555 1_555
C38G N8G 1_555 1_555
C38A N8A 1_555 1_555
C39F C40F 1_555 1_555
C39G C40G 1_555 1_555
C39A C40A 1_555 1_555

#END
