# generated using pymatgen
data_ZnCu2P2H267C262N26(O5F4)3
_symmetry_space_group_name_H-M   'P 1'
_cell_length_a   15.98120000
_cell_length_b   27.90800000
_cell_length_c   34.35500000
_cell_angle_alpha   70.84300000
_cell_angle_beta   79.69500000
_cell_angle_gamma   73.70400000
_symmetry_Int_Tables_number   1
_chemical_formula_structural   ZnCu2P2H267C262N26(O5F4)3
_chemical_formula_sum   'Zn2 Cu4 P4 H534 C524 N52 O30 F24'
_cell_volume   13828.62021145
_cell_formula_units_Z   2
loop_
 _symmetry_equiv_pos_site_id
 _symmetry_equiv_pos_as_xyz
  1  'x, y, z'
loop_
 _atom_site_type_symbol
 _atom_site_label
 _atom_site_symmetry_multiplicity
 _atom_site_fract_x
 _atom_site_fract_y
 _atom_site_fract_z
 _atom_site_occupancy
  Zn  Zn1  1  0.060550  0.836180  0.070750  1
  Zn  Zn2  1  0.939450  0.163820  0.929250  1
  Cu  Cu3  1  0.802120  0.048820  0.480220  1
  Cu  Cu4  1  0.197880  0.951180  0.519780  1
  Cu  Cu5  1  0.171960  0.668300  0.646390  1.0
  Cu  Cu6  1  0.828040  0.331700  0.353610  1.0
  P  P7  1  0.685900  0.788600  0.488600  1
  P  P8  1  0.314100  0.211400  0.511400  1
  P  P9  1  0.366000  0.857500  0.649300  1
  P  P10  1  0.634000  0.142500  0.350700  1
  H  H11  1  0.472000  0.737900  0.541100  1
  H  H12  1  0.528000  0.262100  0.458900  1
  H  H13  1  0.418700  0.746700  0.607000  1
  H  H14  1  0.581300  0.253300  0.393000  1
  H  H15  1  0.347100  0.609500  0.639400  1
  H  H16  1  0.652900  0.390500  0.360600  1
  H  H17  1  0.400500  0.600700  0.573500  1
  H  H18  1  0.599500  0.399300  0.426500  1
  H  H19  1  0.365500  0.718900  0.747100  1
  H  H20  1  0.634500  0.281100  0.252900  1
  H  H21  1  0.439400  0.707200  0.679900  1
  H  H22  1  0.560600  0.292800  0.320100  1
  H  H23  1  0.057600  0.014000  0.097400  1
  H  H24  1  0.942400  0.986000  0.902600  1
  H  H25  1  0.234100  0.063700  0.136300  1
  H  H26  1  0.765900  0.936300  0.863700  1
  H  H27  1  0.289800  0.914900  0.131000  1
  H  H28  1  0.710200  0.085100  0.869000  1
  H  H29  1  0.963600  0.141300  0.085100  1
  H  H30  1  0.036400  0.858700  0.914900  1
  H  H31  1  0.972700  0.079500  0.099100  1
  H  H32  1  0.027300  0.920500  0.900900  1
  H  H33  1  0.031000  0.106000  0.059200  1
  H  H34  1  0.969000  0.894000  0.940800  1
  H  H35  1  0.995300  0.132200  0.158300  1
  H  H36  1  0.004700  0.867800  0.841700  1
  H  H37  1  0.082100  0.091500  0.176500  1
  H  H38  1  0.917900  0.908500  0.823500  1
  H  H39  1  0.003600  0.070700  0.169900  1
  H  H40  1  0.996400  0.929300  0.830100  1
  H  H41  1  0.078200  0.177900  0.095300  1
  H  H42  1  0.921800  0.822100  0.904700  1
  H  H43  1  0.147000  0.145600  0.067600  1
  H  H44  1  0.853000  0.854400  0.932400  1
  H  H45  1  0.167900  0.140600  0.112800  1
  H  H46  1  0.832100  0.859400  0.887200  1
  H  H47  1  0.338000  0.906000  0.195100  1
  H  H48  1  0.662000  0.094000  0.804900  1
  H  H49  1  0.305300  0.955300  0.212700  1
  H  H50  1  0.694700  0.044700  0.787300  1
  H  H51  1  0.406800  0.925700  0.210900  1
  H  H52  1  0.593200  0.074300  0.789100  1
  H  H53  1  0.344700  0.040900  0.170900  1
  H  H54  1  0.655300  0.959100  0.829100  1
  H  H55  1  0.402800  0.044800  0.127400  1
  H  H56  1  0.597200  0.955200  0.872600  1
  H  H57  1  0.446000  0.011100  0.169500  1
  H  H58  1  0.554000  0.988900  0.830500  1
  H  H59  1  0.425100  0.913500  0.126200  1
  H  H60  1  0.574900  0.086500  0.873800  1
  H  H61  1  0.496300  0.933500  0.140100  1
  H  H62  1  0.503700  0.066500  0.859900  1
  H  H63  1  0.448600  0.967600  0.099100  1
  H  H64  1  0.551400  0.032400  0.900900  1
  H  H65  1  0.188600  0.927600  0.920700  1
  H  H66  1  0.811400  0.072400  0.079300  1
  H  H67  1  0.414100  0.897800  0.847700  1
  H  H68  1  0.585900  0.102200  0.152300  1
  H  H69  1  0.377300  0.796100  0.961000  1
  H  H70  1  0.622700  0.203900  0.039000  1
  H  H71  1  0.243200  0.046000  0.846900  1
  H  H72  1  0.756800  0.954000  0.153100  1
  H  H73  1  0.309400  0.007600  0.880100  1
  H  H74  1  0.690600  0.992400  0.119900  1
  H  H75  1  0.208000  0.006800  0.888100  1
  H  H76  1  0.792000  0.993200  0.111900  1
  H  H77  1  0.170400  0.996200  0.808900  1
  H  H78  1  0.829600  0.003800  0.191100  1
  H  H79  1  0.145700  0.965100  0.855900  1
  H  H80  1  0.854300  0.034900  0.144100  1
  H  H81  1  0.200600  0.933800  0.824300  1
  H  H82  1  0.799400  0.066200  0.175700  1
  H  H83  1  0.314200  0.015600  0.786300  1
  H  H84  1  0.685800  0.984400  0.213700  1
  H  H85  1  0.354000  0.954500  0.792200  1
  H  H86  1  0.646000  0.045500  0.207800  1
  H  H87  1  0.394800  0.984700  0.813600  1
  H  H88  1  0.605200  0.015300  0.186400  1
  H  H89  1  0.470100  0.729000  0.933500  1
  H  H90  1  0.529900  0.271000  0.066500  1
  H  H91  1  0.521400  0.752300  0.956100  1
  H  H92  1  0.478600  0.247700  0.043900  1
  H  H93  1  0.572900  0.724900  0.921600  1
  H  H94  1  0.427100  0.275100  0.078400  1
  H  H95  1  0.475800  0.825300  0.833900  1
  H  H96  1  0.524200  0.174700  0.166100  1
  H  H97  1  0.439600  0.774600  0.859100  1
  H  H98  1  0.560400  0.225400  0.140900  1
  H  H99  1  0.542500  0.769100  0.846500  1
  H  H100  1  0.457500  0.230900  0.153500  1
  H  H101  1  0.558000  0.861400  0.868700  1
  H  H102  1  0.442000  0.138600  0.131300  1
  H  H103  1  0.626800  0.806100  0.881400  1
  H  H104  1  0.373200  0.193900  0.118600  1
  H  H105  1  0.576500  0.833300  0.916200  1
  H  H106  1  0.423500  0.166700  0.083800  1
  H  H107  1  0.064900  0.645800  0.057900  1
  H  H108  1  0.935100  0.354200  0.942100  1
  H  H109  1  0.899900  0.602500  0.006300  1
  H  H110  1  0.100100  0.397500  0.993700  1
  H  H111  1  0.857500  0.753600  0.003800  1
  H  H112  1  0.142500  0.246400  0.996200  1
  H  H113  1  0.147400  0.515100  0.081200  1
  H  H114  1  0.852600  0.484900  0.918800  1
  H  H115  1  0.085300  0.559900  0.099900  1
  H  H116  1  0.914700  0.440100  0.900100  1
  H  H117  1  0.154300  0.574500  0.060600  1
  H  H118  1  0.845700  0.425500  0.939400  1
  H  H119  1  0.126400  0.512800  0.011200  1
  H  H120  1  0.873600  0.487200  0.988800  1
  H  H121  1  0.127100  0.573100  0.990400  1
  H  H122  1  0.872900  0.426900  0.009600  1
  H  H123  1  0.045700  0.552400  0.987000  1
  H  H124  1  0.954300  0.447600  0.013000  1
  H  H125  1  0.016000  0.487800  0.074700  1
  H  H126  1  0.984000  0.512200  0.925300  1
  H  H127  1  0.940700  0.528100  0.047200  1
  H  H128  1  0.059300  0.471900  0.952800  1
  H  H129  1  0.949900  0.533500  0.091100  1
  H  H130  1  0.050100  0.466500  0.908900  1
  H  H131  1  0.717400  0.645100  0.016500  1
  H  H132  1  0.282600  0.354900  0.983500  1
  H  H133  1  0.784000  0.619400  0.984100  1
  H  H134  1  0.216000  0.380600  0.015900  1
  H  H135  1  0.692500  0.658400  0.970400  1
  H  H136  1  0.307500  0.341600  0.029600  1
  H  H137  1  0.860200  0.675600  0.923400  1
  H  H138  1  0.139800  0.324400  0.076600  1
  H  H139  1  0.850100  0.735700  0.919500  1
  H  H140  1  0.149900  0.264300  0.080500  1
  H  H141  1  0.770600  0.717600  0.910500  1
  H  H142  1  0.229400  0.282400  0.089500  1
  H  H143  1  0.697400  0.740200  0.009800  1
  H  H144  1  0.302600  0.259800  0.990200  1
  H  H145  1  0.666800  0.754500  0.964600  1
  H  H146  1  0.333200  0.245500  0.035400  1
  H  H147  1  0.744900  0.776100  0.970700  1
  H  H148  1  0.255100  0.223900  0.029300  1
  H  H149  1  0.749300  0.834800  0.179400  1
  H  H150  1  0.250700  0.165200  0.820600  1
  H  H151  1  0.734000  0.759000  0.302300  1
  H  H152  1  0.266000  0.241000  0.697700  1
  H  H153  1  0.971100  0.760400  0.236600  1
  H  H154  1  0.028900  0.239600  0.763400  1
  H  H155  1  0.528600  0.812800  0.212000  1
  H  H156  1  0.471400  0.187200  0.788000  1
  H  H157  1  0.611500  0.764400  0.213100  1
  H  H158  1  0.388500  0.235600  0.786900  1
  H  H159  1  0.615700  0.820900  0.182000  1
  H  H160  1  0.384300  0.179100  0.818000  1
  H  H161  1  0.538200  0.886500  0.237700  1
  H  H162  1  0.461800  0.113500  0.762300  1
  H  H163  1  0.628100  0.891900  0.209300  1
  H  H164  1  0.371900  0.108100  0.790700  1
  H  H165  1  0.623700  0.881800  0.258200  1
  H  H166  1  0.376300  0.118200  0.741800  1
  H  H167  1  0.520100  0.798200  0.284400  1
  H  H168  1  0.479900  0.201800  0.715600  1
  H  H169  1  0.601400  0.795000  0.307100  1
  H  H170  1  0.398600  0.205000  0.692900  1
  H  H171  1  0.602100  0.748800  0.289100  1
  H  H172  1  0.397900  0.251200  0.710900  1
  H  H173  1  0.789400  0.693500  0.349200  1
  H  H174  1  0.210600  0.306500  0.650800  1
  H  H175  1  0.879900  0.659200  0.367600  1
  H  H176  1  0.120100  0.340800  0.632400  1
  H  H177  1  0.858300  0.657200  0.324500  1
  H  H178  1  0.141700  0.342800  0.675500  1
  H  H179  1  0.826900  0.780900  0.349100  1
  H  H180  1  0.173100  0.219100  0.650900  1
  H  H181  1  0.922700  0.789000  0.330000  1
  H  H182  1  0.077300  0.211000  0.670000  1
  H  H183  1  0.911100  0.742800  0.371500  1
  H  H184  1  0.088900  0.257200  0.628500  1
  H  H185  1  0.026000  0.722800  0.295500  1
  H  H186  1  0.974000  0.277200  0.704500  1
  H  H187  1  0.994700  0.673300  0.295200  1
  H  H188  1  0.005300  0.326700  0.704800  1
  H  H189  1  0.015300  0.677500  0.337700  1
  H  H190  1  0.984700  0.322500  0.662300  1
  H  H191  1  0.605400  0.925900  0.525700  1.0
  H  H192  1  0.394600  0.074100  0.474300  1.0
  H  H193  1  0.525700  0.942600  0.586300  1.0
  H  H194  1  0.474300  0.057400  0.413700  1.0
  H  H195  1  0.552800  0.096100  0.534100  1.0
  H  H196  1  0.447200  0.903900  0.465900  1.0
  H  H197  1  0.626100  0.074300  0.477100  1.0
  H  H198  1  0.373900  0.925700  0.522900  1.0
  H  H199  1  0.538300  0.956100  0.632900  1.0
  H  H200  1  0.461700  0.043900  0.367100  1.0
  H  H201  1  0.435600  0.975500  0.642600  1.0
  H  H202  1  0.564400  0.024500  0.357400  1.0
  H  H203  1  0.482600  0.958800  0.706100  1.0
  H  H204  1  0.517400  0.041200  0.293900  1.0
  H  H205  1  0.568000  0.982700  0.686100  1.0
  H  H206  1  0.432000  0.017300  0.313900  1.0
  H  H207  1  0.546700  0.059400  0.678500  1.0
  H  H208  1  0.453300  0.940600  0.321500  1.0
  H  H209  1  0.458300  0.100600  0.678400  1.0
  H  H210  1  0.541700  0.899400  0.321600  1.0
  H  H211  1  0.571200  0.119200  0.608200  1.0
  H  H212  1  0.428800  0.880800  0.391800  1.0
  H  H213  1  0.506900  0.158600  0.633200  1.0
  H  H214  1  0.493100  0.841400  0.366800  1.0
  H  H215  1  0.644800  0.167800  0.663800  1.0
  H  H216  1  0.355200  0.832200  0.336200  1.0
  H  H217  1  0.698300  0.138300  0.630700  1.0
  H  H218  1  0.301700  0.861700  0.369300  1.0
  H  H219  1  0.734800  0.119000  0.712000  1.0
  H  H220  1  0.265200  0.881000  0.288000  1.0
  H  H221  1  0.736700  0.066200  0.702400  1.0
  H  H222  1  0.263300  0.933800  0.297600  1.0
  H  H223  1  0.861100  0.159200  0.681900  1.0
  H  H224  1  0.138900  0.840800  0.318100  1.0
  H  H225  1  0.811300  0.180100  0.640700  1.0
  H  H226  1  0.188700  0.819900  0.359300  1.0
  H  H227  1  0.992900  0.130400  0.648300  1.0
  H  H228  1  0.007100  0.869600  0.351700  1.0
  H  H229  1  0.948600  0.123000  0.612900  1.0
  H  H230  1  0.051400  0.877000  0.387100  1.0
  H  H231  1  0.075100  0.152900  0.596000  1.0
  H  H232  1  0.924900  0.847100  0.404000  1.0
  H  H233  1  0.072500  0.213200  0.587600  1.0
  H  H234  1  0.927500  0.786800  0.412400  1.0
  H  H235  1  0.992100  0.223100  0.523800  1.0
  H  H236  1  0.007900  0.776900  0.476200  1.0
  H  H237  1  0.099100  0.206500  0.520100  1.0
  H  H238  1  0.900900  0.793500  0.479900  1.0
  H  H239  1  0.045800  0.194200  0.461000  1.0
  H  H240  1  0.954200  0.805800  0.539000  1.0
  H  H241  1  0.018700  0.159600  0.413400  1.0
  H  H242  1  0.981300  0.840400  0.586600  1.0
  H  H243  1  0.953700  0.038800  0.503200  1.0
  H  H244  1  0.046300  0.961200  0.496800  1.0
  H  H245  1  0.986700  0.068000  0.551700  1.0
  H  H246  1  0.013300  0.932000  0.448300  1.0
  H  H247  1  0.040800  0.054500  0.330800  1.0
  H  H248  1  0.959200  0.945500  0.669200  1.0
  H  H249  1  0.061800  0.095600  0.378100  1.0
  H  H250  1  0.938200  0.904400  0.621900  1.0
  H  H251  1  0.627200  0.937100  0.453800  1.0
  H  H252  1  0.372800  0.062900  0.546200  1.0
  H  H253  1  0.722500  0.924200  0.394700  1.0
  H  H254  1  0.277500  0.075800  0.605300  1.0
  H  H255  1  0.831700  0.894300  0.283700  1.0
  H  H256  1  0.168300  0.105700  0.716300  1.0
  H  H257  1  0.049300  0.991400  0.237400  1.0
  H  H258  1  0.950700  0.008600  0.762600  1.0
  H  H259  1  0.321900  0.909800  0.988100  1.0
  H  H260  1  0.678100  0.090200  0.011900  1.0
  H  H261  1  0.283900  0.949100  0.048500  1.0
  H  H262  1  0.716100  0.050900  0.951500  1.0
  H  H263  1  0.817900  0.748100  0.160700  1.0
  H  H264  1  0.182100  0.251900  0.839300  1.0
  H  H265  1  0.854800  0.711100  0.099300  1.0
  H  H266  1  0.145200  0.288900  0.900700  1.0
  H  H267  1  0.275400  0.769200  0.851100  1.0
  H  H268  1  0.724600  0.230800  0.148900  1.0
  H  H269  1  0.887400  0.684300  0.742200  1.0
  H  H270  1  0.112600  0.315700  0.257800  1.0
  H  H271  1  0.952000  0.699600  0.791600  1.0
  H  H272  1  0.048000  0.300400  0.208400  1.0
  H  H273  1  0.897100  0.615700  0.705400  1.0
  H  H274  1  0.102900  0.384300  0.294600  1.0
  H  H275  1  0.854100  0.594700  0.652600  1.0
  H  H276  1  0.145900  0.405300  0.347400  1.0
  H  H277  1  0.960900  0.706100  0.566800  1.0
  H  H278  1  0.039100  0.293900  0.433200  1.0
  H  H279  1  0.003900  0.727100  0.619600  1.0
  H  H280  1  0.996100  0.272900  0.380400  1.0
  H  H281  1  0.764300  0.633600  0.559100  1.0
  H  H282  1  0.235700  0.366400  0.440900  1.0
  H  H283  1  0.809900  0.676800  0.526600  1.0
  H  H284  1  0.190100  0.323200  0.473400  1.0
  H  H285  1  0.812400  0.615000  0.493900  1.0
  H  H286  1  0.187600  0.385000  0.506100  1.0
  H  H287  1  0.855000  0.567900  0.531700  1.0
  H  H288  1  0.145000  0.432100  0.468300  1.0
  H  H289  1  0.934300  0.687600  0.470300  1.0
  H  H290  1  0.065700  0.312400  0.529700  1.0
  H  H291  1  0.992600  0.660200  0.509600  1.0
  H  H292  1  0.007400  0.339800  0.490400  1.0
  H  H293  1  0.028700  0.625300  0.436100  1.0
  H  H294  1  0.971300  0.374700  0.563900  1.0
  H  H295  1  0.087300  0.600800  0.474200  1.0
  H  H296  1  0.912700  0.399200  0.525800  1.0
  H  H297  1  0.178300  0.614100  0.407000  1.0
  H  H298  1  0.821700  0.385900  0.593000  1.0
  H  H299  1  0.164800  0.673400  0.377000  1.0
  H  H300  1  0.835200  0.326600  0.623000  1.0
  H  H301  1  0.310000  0.626400  0.412800  1.0
  H  H302  1  0.690000  0.373600  0.587200  1.0
  H  H303  1  0.253500  0.650600  0.448400  1.0
  H  H304  1  0.746500  0.349400  0.551600  1.0
  H  H305  1  0.404400  0.671300  0.381400  1.0
  H  H306  1  0.595600  0.328700  0.618600  1.0
  H  H307  1  0.378300  0.733100  0.359300  1.0
  H  H308  1  0.621700  0.266900  0.640700  1.0
  H  H309  1  0.358500  0.715300  0.444100  1.0
  H  H310  1  0.641500  0.284700  0.555900  1.0
  H  H311  1  0.420000  0.749200  0.410800  1.0
  H  H312  1  0.580000  0.250800  0.589200  1.0
  H  H313  1  0.602000  0.662000  0.453700  1.0
  H  H314  1  0.398000  0.338000  0.546300  1.0
  H  H315  1  0.567400  0.720500  0.423200  1.0
  H  H316  1  0.432600  0.279500  0.576800  1.0
  H  H317  1  0.438500  0.733900  0.471600  1.0
  H  H318  1  0.561500  0.266100  0.528400  1.0
  H  H319  1  0.523400  0.721300  0.495400  1.0
  H  H320  1  0.476600  0.278700  0.504600  1.0
  H  H321  1  0.773900  0.149800  0.427200  1.0
  H  H322  1  0.226100  0.850200  0.572800  1.0
  H  H323  1  0.759600  0.199000  0.566300  1.0
  H  H324  1  0.240400  0.801000  0.433700  1.0
  H  H325  1  0.764000  0.110500  0.600300  1.0
  H  H326  1  0.236000  0.889500  0.399700  1.0
  H  H327  1  0.815800  0.935900  0.535800  1.0
  H  H328  1  0.184200  0.064100  0.464200  1.0
  H  H329  1  0.727000  0.948500  0.651900  1.0
  H  H330  1  0.273000  0.051500  0.348100  1.0
  H  H331  1  0.723800  0.040500  0.626600  1.0
  H  H332  1  0.276200  0.959500  0.373400  1.0
  H  H333  1  0.739100  0.860200  0.563900  1.0
  H  H334  1  0.260900  0.139800  0.436100  1.0
  H  H335  1  0.760400  0.722700  0.644500  1.0
  H  H336  1  0.239600  0.277300  0.355500  1.0
  H  H337  1  0.769700  0.742000  0.594900  1.0
  H  H338  1  0.230300  0.258000  0.405100  1.0
  H  H339  1  0.621800  0.782900  0.593700  1.0
  H  H340  1  0.378200  0.217100  0.406300  1.0
  H  H341  1  0.610200  0.772400  0.643000  1.0
  H  H342  1  0.389800  0.227600  0.357000  1.0
  H  H343  1  0.565300  0.704600  0.626700  1.0
  H  H344  1  0.434700  0.295400  0.373300  1.0
  H  H345  1  0.662400  0.687700  0.604600  1.0
  H  H346  1  0.337600  0.312300  0.395400  1.0
  H  H347  1  0.677800  0.621100  0.739000  1.0
  H  H348  1  0.322200  0.378900  0.261000  1.0
  H  H349  1  0.626900  0.547200  0.778600  1.0
  H  H350  1  0.373100  0.452800  0.221400  1.0
  H  H351  1  0.517500  0.550700  0.679600  1.0
  H  H352  1  0.482500  0.449300  0.320400  1.0
  H  H353  1  0.568400  0.624600  0.640000  1.0
  H  H354  1  0.431600  0.375400  0.360000  1.0
  H  H355  1  0.466200  0.586600  0.783000  1.0
  H  H356  1  0.533800  0.413400  0.217000  1.0
  H  H357  1  0.355300  0.604300  0.836100  1.0
  H  H358  1  0.644700  0.395700  0.163900  1.0
  H  H359  1  0.315800  0.461600  0.870200  1.0
  H  H360  1  0.684200  0.538400  0.129800  1.0
  H  H361  1  0.415900  0.442300  0.815600  1.0
  H  H362  1  0.584100  0.557700  0.184400  1.0
  H  H363  1  0.332300  0.593400  0.909700  1.0
  H  H364  1  0.667700  0.406600  0.090300  1.0
  H  H365  1  0.233700  0.595900  0.930300  1.0
  H  H366  1  0.766300  0.404100  0.069700  1.0
  H  H367  1  0.252300  0.624300  0.882100  1.0
  H  H368  1  0.747700  0.375700  0.117900  1.0
  H  H369  1  0.147500  0.562200  0.915800  1.0
  H  H370  1  0.852500  0.437800  0.084200  1.0
  H  H371  1  0.169400  0.524400  0.887100  1.0
  H  H372  1  0.830600  0.475600  0.112900  1.0
  H  H373  1  0.166600  0.585200  0.866800  1.0
  H  H374  1  0.833400  0.414800  0.133200  1.0
  H  H375  1  0.355300  0.494800  0.938500  1.0
  H  H376  1  0.644700  0.505200  0.061500  1.0
  H  H377  1  0.285200  0.469000  0.930100  1.0
  H  H378  1  0.714800  0.531000  0.069900  1.0
  H  H379  1  0.255300  0.509300  0.956900  1.0
  H  H380  1  0.744700  0.490700  0.043100  1.0
  H  H381  1  0.557500  0.443400  0.846000  1.0
  H  H382  1  0.442500  0.556600  0.154000  1.0
  H  H383  1  0.675200  0.377000  0.875100  1.0
  H  H384  1  0.324800  0.623000  0.124900  1.0
  H  H385  1  0.803700  0.387800  0.760800  1.0
  H  H386  1  0.196300  0.612200  0.239200  1.0
  H  H387  1  0.686000  0.454300  0.731700  1.0
  H  H388  1  0.314000  0.545700  0.268300  1.0
  H  H389  1  0.877200  0.381900  0.854500  1.0
  H  H390  1  0.122800  0.618100  0.145500  1.0
  H  H391  1  0.909700  0.324300  0.884600  1.0
  H  H392  1  0.090300  0.675700  0.115400  1.0
  H  H393  1  0.812800  0.358000  0.892800  1.0
  H  H394  1  0.187200  0.642000  0.107200  1.0
  H  H395  1  0.776800  0.262200  0.849800  1.0
  H  H396  1  0.223200  0.737800  0.150200  1.0
  H  H397  1  0.745600  0.285000  0.888500  1.0
  H  H398  1  0.254400  0.715000  0.111500  1.0
  H  H399  1  0.843700  0.251300  0.883000  1.0
  H  H400  1  0.156300  0.748700  0.117000  1.0
  H  H401  1  0.918800  0.347600  0.793000  1.0
  H  H402  1  0.081200  0.652400  0.207000  1.0
  H  H403  1  0.884300  0.299700  0.791500  1.0
  H  H404  1  0.115700  0.700300  0.208500  1.0
  H  H405  1  0.952800  0.290400  0.823500  1.0
  H  H406  1  0.047200  0.709600  0.176500  1.0
  H  H407  1  0.581000  0.405700  0.741500  1.0
  H  H408  1  0.419000  0.594300  0.258500  1.0
  H  H409  1  0.519700  0.372900  0.701700  1.0
  H  H410  1  0.480300  0.627100  0.298300  1.0
  H  H411  1  0.320900  0.503100  0.682000  1.0
  H  H412  1  0.679100  0.496900  0.318000  1.0
  H  H413  1  0.382200  0.535900  0.721900  1.0
  H  H414  1  0.617800  0.464100  0.278100  1.0
  H  H415  1  0.299100  0.443500  0.611100  1.0
  H  H416  1  0.700900  0.556500  0.388900  1.0
  H  H417  1  0.369200  0.476800  0.606100  1.0
  H  H418  1  0.630800  0.523200  0.393900  1.0
  H  H419  1  0.282800  0.483600  0.637500  1.0
  H  H420  1  0.717200  0.516400  0.362500  1.0
  H  H421  1  0.391500  0.367000  0.628900  1.0
  H  H422  1  0.608500  0.633000  0.371100  1.0
  H  H423  1  0.445500  0.342600  0.668700  1.0
  H  H424  1  0.554500  0.657400  0.331300  1.0
  H  H425  1  0.478300  0.384800  0.628900  1.0
  H  H426  1  0.521700  0.615200  0.371100  1.0
  H  H427  1  0.259900  0.391600  0.672100  1.0
  H  H428  1  0.740100  0.608400  0.327900  1.0
  H  H429  1  0.256000  0.436200  0.692500  1.0
  H  H430  1  0.744000  0.563800  0.307500  1.0
  H  H431  1  0.305000  0.377000  0.713800  1.0
  H  H432  1  0.695000  0.623000  0.286200  1.0
  H  H433  1  0.797600  0.230900  0.391600  1.0
  H  H434  1  0.202400  0.769100  0.608400  1.0
  H  H435  1  0.798000  0.270500  0.530500  1.0
  H  H436  1  0.202000  0.729500  0.469500  1.0
  H  H437  1  0.798000  0.353100  0.490500  1.0
  H  H438  1  0.202000  0.646900  0.509500  1.0
  H  H439  1  0.862700  0.442600  0.311300  1.0
  H  H440  1  0.137300  0.557400  0.688700  1.0
  H  H441  1  0.910600  0.488100  0.402100  1.0
  H  H442  1  0.089400  0.511900  0.597900  1.0
  H  H443  1  0.869500  0.411100  0.452300  1.0
  H  H444  1  0.130500  0.588900  0.547700  1.0
  H  H445  1  0.846400  0.525800  0.270800  1.0
  H  H446  1  0.153600  0.474200  0.729200  1.0
  H  H447  1  0.826300  0.636900  0.218700  1.0
  H  H448  1  0.173700  0.363100  0.781300  1.0
  H  H449  1  0.908700  0.660200  0.218000  1.0
  H  H450  1  0.091300  0.339800  0.782000  1.0
  H  H451  1  0.948500  0.632800  0.163200  1.0
  H  H452  1  0.051500  0.367200  0.836800  1.0
  H  H453  1  0.996600  0.584400  0.197900  1.0
  H  H454  1  0.003400  0.415600  0.802100  1.0
  H  H455  1  0.911000  0.579200  0.144300  1.0
  H  H456  1  0.089000  0.420800  0.855700  1.0
  H  H457  1  0.940000  0.532900  0.185400  1.0
  H  H458  1  0.060000  0.467100  0.814600  1.0
  H  H459  1  0.681900  0.618700  0.221000  1.0
  H  H460  1  0.318100  0.381300  0.779000  1.0
  H  H461  1  0.558600  0.676700  0.189900  1.0
  H  H462  1  0.441400  0.323300  0.810100  1.0
  H  H463  1  0.691400  0.684800  0.076700  1.0
  H  H464  1  0.308600  0.315200  0.923300  1.0
  H  H465  1  0.814700  0.626800  0.107800  1.0
  H  H466  1  0.185300  0.373200  0.892200  1.0
  H  H467  1  0.500600  0.784700  0.031000  1.0
  H  H468  1  0.499400  0.215300  0.969000  1.0
  H  H469  1  0.547500  0.860600  0.993100  1.0
  H  H470  1  0.452500  0.139400  0.006900  1.0
  H  H471  1  0.674400  0.847600  0.089500  1.0
  H  H472  1  0.325600  0.152400  0.910500  1.0
  H  H473  1  0.627600  0.771700  0.127400  1.0
  H  H474  1  0.372400  0.228300  0.872600  1.0
  H  H475  1  0.678900  0.948700  0.950900  1.0
  H  H476  1  0.321100  0.051300  0.049100  1.0
  H  H477  1  0.584600  0.937400  0.968700  1.0
  H  H478  1  0.415400  0.062600  0.031300  1.0
  H  H479  1  0.662100  0.893000  0.956100  1.0
  H  H480  1  0.337900  0.107000  0.043900  1.0
  H  H481  1  0.649700  0.983100  0.010600  1.0
  H  H482  1  0.350300  0.016900  0.989400  1.0
  H  H483  1  0.622100  0.949000  0.056200  1.0
  H  H484  1  0.377900  0.051000  0.943800  1.0
  H  H485  1  0.562000  0.962700  0.019600  1.0
  H  H486  1  0.438000  0.037300  0.980400  1.0
  H  H487  1  0.801500  0.922000  0.995100  1.0
  H  H488  1  0.198500  0.078000  0.004900  1.0
  H  H489  1  0.811300  0.861200  0.001900  1.0
  H  H490  1  0.188700  0.138800  0.998100  1.0
  H  H491  1  0.800200  0.882500  0.041000  1.0
  H  H492  1  0.199800  0.117500  0.959000  1.0
  H  H493  1  0.578600  0.625400  0.100200  1.0
  H  H494  1  0.421400  0.374600  0.899800  1.0
  H  H495  1  0.522000  0.589600  0.060900  1.0
  H  H496  1  0.478000  0.410400  0.939100  1.0
  H  H497  1  0.333100  0.723300  0.028900  1.0
  H  H498  1  0.666900  0.276700  0.971100  1.0
  H  H499  1  0.389700  0.759100  0.068200  1.0
  H  H500  1  0.610300  0.240900  0.931800  1.0
  H  H501  1  0.311800  0.697000  0.979000  1.0
  H  H502  1  0.688200  0.303000  0.021000  1.0
  H  H503  1  0.249700  0.669900  0.016800  1.0
  H  H504  1  0.750300  0.330100  0.983200  1.0
  H  H505  1  0.282300  0.647100  0.978200  1.0
  H  H506  1  0.717700  0.352900  0.021800  1.0
  H  H507  1  0.311800  0.578200  0.068600  1.0
  H  H508  1  0.688200  0.421800  0.931400  1.0
  H  H509  1  0.407000  0.546500  0.055400  1.0
  H  H510  1  0.593000  0.453500  0.944600  1.0
  H  H511  1  0.328100  0.559600  0.027900  1.0
  H  H512  1  0.671900  0.440400  0.972100  1.0
  H  H513  1  0.473600  0.648700  0.965300  1.0
  H  H514  1  0.526400  0.351300  0.034700  1.0
  H  H515  1  0.428900  0.606100  0.961300  1.0
  H  H516  1  0.571100  0.393900  0.038700  1.0
  H  H517  1  0.503500  0.588900  0.992000  1.0
  H  H518  1  0.496500  0.411100  0.008000  1.0
  H  H519  1  0.429500  0.662900  0.166900  1.0
  H  H520  1  0.570500  0.337100  0.833100  1.0
  H  H521  1  0.323200  0.681700  0.219700  1.0
  H  H522  1  0.676800  0.318300  0.780300  1.0
  H  H523  1  0.355700  0.829400  0.184900  1.0
  H  H524  1  0.644300  0.170600  0.815100  1.0
  H  H525  1  0.462100  0.810600  0.132100  1.0
  H  H526  1  0.537900  0.189400  0.867900  1.0
  H  H527  1  0.279500  0.690900  0.288200  1.0
  H  H528  1  0.720500  0.309100  0.711800  1.0
  H  H529  1  0.204700  0.703400  0.258500  1.0
  H  H530  1  0.795300  0.296600  0.741500  1.0
  H  H531  1  0.185200  0.727100  0.296700  1.0
  H  H532  1  0.814800  0.272900  0.703300  1.0
  H  H533  1  0.190600  0.835700  0.211400  1.0
  H  H534  1  0.809400  0.164300  0.788600  1.0
  H  H535  1  0.135200  0.811000  0.253200  1.0
  H  H536  1  0.864800  0.189000  0.746800  1.0
  H  H537  1  0.152100  0.787000  0.215300  1.0
  H  H538  1  0.847900  0.213000  0.784700  1.0
  H  H539  1  0.336300  0.814400  0.254600  1.0
  H  H540  1  0.663700  0.185600  0.745400  1.0
  H  H541  1  0.367000  0.755000  0.282000  1.0
  H  H542  1  0.633000  0.245000  0.718000  1.0
  H  H543  1  0.279100  0.792000  0.296500  1.0
  H  H544  1  0.720900  0.208000  0.703500  1.0
  C  C545  1  0.441300  0.668500  0.551100  1
  C  C546  1  0.558700  0.331500  0.448900  1
  C  C547  1  0.446700  0.711800  0.561000  1
  C  C548  1  0.553300  0.288200  0.439000  1
  C  C549  1  0.415000  0.717100  0.600200  1
  C  C550  1  0.585000  0.282900  0.399800  1
  C  C551  1  0.377900  0.678900  0.629400  1
  C  C552  1  0.622100  0.321100  0.370600  1
  C  C553  1  0.372500  0.635500  0.619400  1
  C  C554  1  0.627500  0.364500  0.380600  1
  C  C555  1  0.404200  0.630300  0.580300  1
  C  C556  1  0.595800  0.369700  0.419700  1
  C  C557  1  0.331900  0.684900  0.668200  1
  C  C558  1  0.668100  0.315100  0.331800  1
  C  C559  1  0.211400  0.692400  0.714400  1
  C  C560  1  0.788600  0.307600  0.285600  1
  C  C561  1  0.246800  0.707900  0.741400  1
  C  C562  1  0.753200  0.292100  0.258600  1
  C  C563  1  0.335300  0.710900  0.729500  1
  C  C564  1  0.664700  0.289100  0.270500  1
  C  C565  1  0.382200  0.702100  0.689900  1
  C  C566  1  0.617800  0.297900  0.310100  1
  C  C567  1  0.169900  0.958300  0.112800  1
  C  C568  1  0.830100  0.041700  0.887200  1
  C  C569  1  0.112900  0.007300  0.107200  1
  C  C570  1  0.887100  0.992700  0.892800  1
  C  C571  1  0.136800  0.046600  0.116000  1
  C  C572  1  0.863200  0.953400  0.884000  1
  C  C573  1  0.217800  0.036800  0.130300  1
  C  C574  1  0.782200  0.963200  0.869700  1
  C  C575  1  0.274800  0.987700  0.135900  1
  C  C576  1  0.725200  0.012300  0.864100  1
  C  C577  1  0.250800  0.948500  0.127100  1
  C  C578  1  0.749200  0.051500  0.872900  1
  C  C579  1  0.076800  0.099100  0.114400  1
  C  C580  1  0.923200  0.900900  0.885600  1
  C  C581  1  0.004400  0.107200  0.087000  1
  C  C582  1  0.995600  0.892800  0.913000  1
  C  C583  1  0.035700  0.098300  0.158800  1
  C  C584  1  0.964300  0.901700  0.841200  1
  C  C585  1  0.121500  0.145000  0.095800  1
  C  C586  1  0.878500  0.855000  0.904200  1
  C  C587  1  0.368400  0.973400  0.153100  1
  C  C588  1  0.631600  0.026600  0.846900  1
  C  C589  1  0.353300  0.936800  0.196900  1
  C  C590  1  0.646700  0.063200  0.803100  1
  C  C591  1  0.392700  0.021900  0.155400  1
  C  C592  1  0.607300  0.978100  0.844600  1
  C  C593  1  0.441200  0.944400  0.127300  1
  C  C594  1  0.558800  0.055600  0.872700  1
  C  C595  1  0.274700  0.859600  0.946700  1
  C  C596  1  0.725300  0.140400  0.053300  1
  C  C597  1  0.244700  0.905800  0.916300  1
  C  C598  1  0.755300  0.094200  0.083700  1
  C  C599  1  0.296600  0.920000  0.879400  1
  C  C600  1  0.703400  0.080000  0.120600  1
  C  C601  1  0.378600  0.888000  0.872900  1
  C  C602  1  0.621400  0.112000  0.127100  1
  C  C603  1  0.408700  0.841900  0.903300  1
  C  C604  1  0.591300  0.158100  0.096700  1
  C  C605  1  0.356700  0.827700  0.940200  1
  C  C606  1  0.643300  0.172300  0.059800  1
  C  C607  1  0.276300  0.969300  0.844400  1
  C  C608  1  0.723700  0.030700  0.155600  1
  C  C609  1  0.258000  0.011200  0.866900  1
  C  C610  1  0.742000  0.988800  0.133100  1
  C  C611  1  0.190500  0.965800  0.832300  1
  C  C612  1  0.809500  0.034200  0.167700  1
  C  C613  1  0.340700  0.982200  0.805600  1
  C  C614  1  0.659300  0.017800  0.194400  1
  C  C615  1  0.497400  0.799700  0.896200  1
  C  C616  1  0.502600  0.200300  0.103800  1
  C  C617  1  0.517300  0.746700  0.929900  1
  C  C618  1  0.482700  0.253300  0.070100  1
  C  C619  1  0.488000  0.791400  0.855200  1
  C  C620  1  0.512000  0.208600  0.144800  1
  C  C621  1  0.571400  0.827700  0.890100  1
  C  C622  1  0.428600  0.172300  0.109900  1
  C  C623  1  0.965100  0.705800  0.032400  1
  C  C624  1  0.034900  0.294200  0.967600  1
  C  C625  1  0.014500  0.654500  0.043600  1
  C  C626  1  0.985500  0.345500  0.956400  1
  C  C627  1  0.990200  0.616000  0.033900  1
  C  C628  1  0.009800  0.384000  0.966100  1
  C  C629  1  0.916500  0.628800  0.013000  1
  C  C630  1  0.083500  0.371200  0.987000  1
  C  C631  1  0.867000  0.680100  0.001800  1
  C  C632  1  0.133000  0.319900  0.998200  1
  C  C633  1  0.891300  0.718600  0.011500  1
  C  C634  1  0.108700  0.281400  0.988500  1
  C  C635  1  0.044800  0.560400  0.045400  1
  C  C636  1  0.955200  0.439600  0.954600  1
  C  C637  1  0.114300  0.551700  0.074400  1
  C  C638  1  0.885700  0.448300  0.925600  1
  C  C639  1  0.090100  0.548600  0.004800  1
  C  C640  1  0.909900  0.451400  0.995200  1
  C  C641  1  0.982100  0.524100  0.066500  1
  C  C642  1  0.017900  0.475900  0.933500  1
  C  C643  1  0.783900  0.697400  0.973400  1
  C  C644  1  0.216100  0.302600  0.026600  1
  C  C645  1  0.740500  0.650800  0.987400  1
  C  C646  1  0.259500  0.349200  0.012600  1
  C  C647  1  0.819400  0.707500  0.927500  1
  C  C648  1  0.180600  0.292500  0.072500  1
  C  C649  1  0.717200  0.746500  0.980300  1
  C  C650  1  0.282800  0.253500  0.019700  1
  C  C651  1  0.868200  0.800000  0.202100  1
  C  C652  1  0.131800  0.200000  0.797900  1
  C  C653  1  0.777300  0.814500  0.203800  1
  C  C654  1  0.222700  0.185500  0.796200  1
  C  C655  1  0.727300  0.799200  0.241100  1
  C  C656  1  0.272700  0.200800  0.758900  1
  C  C657  1  0.768100  0.769400  0.276800  1
  C  C658  1  0.231900  0.230600  0.723200  1
  C  C659  1  0.859000  0.754900  0.275100  1
  C  C660  1  0.141000  0.245100  0.724900  1
  C  C661  1  0.909000  0.770200  0.237800  1
  C  C662  1  0.091000  0.229800  0.762200  1
  C  C663  1  0.627900  0.814700  0.243000  1
  C  C664  1  0.372100  0.185300  0.757000  1
  C  C665  1  0.592700  0.802000  0.209500  1
  C  C666  1  0.407300  0.198000  0.790500  1
  C  C667  1  0.602100  0.874200  0.236400  1
  C  C668  1  0.397900  0.125800  0.763600  1
  C  C669  1  0.583900  0.786600  0.284700  1
  C  C670  1  0.416100  0.213400  0.715300  1
  C  C671  1  0.896000  0.725900  0.318600  1
  C  C672  1  0.104000  0.274100  0.681400  1
  C  C673  1  0.851800  0.679700  0.342200  1
  C  C674  1  0.148200  0.320300  0.657800  1
  C  C675  1  0.888500  0.763100  0.344700  1
  C  C676  1  0.111500  0.236900  0.655300  1
  C  C677  1  0.991600  0.697300  0.311100  1
  C  C678  1  0.008400  0.302700  0.688900  1
  C  C679  1  0.625400  0.998000  0.498300  1.0
  C  C680  1  0.374600  0.002000  0.501700  1.0
  C  C681  1  0.594800  0.959600  0.529200  1.0
  C  C682  1  0.405200  0.040400  0.470800  1.0
  C  C683  1  0.549100  0.968500  0.565000  1.0
  C  C684  1  0.450900  0.031500  0.435000  1.0
  C  C685  1  0.539700  0.020000  0.567900  1.0
  C  C686  1  0.460300  0.980000  0.432100  1.0
  C  C687  1  0.565700  0.061100  0.533000  1.0
  C  C688  1  0.434300  0.938900  0.467000  1.0
  C  C689  1  0.607700  0.048300  0.500100  1.0
  C  C690  1  0.392300  0.951700  0.499900  1.0
  C  C691  1  0.492000  0.985000  0.639800  1.0
  C  C692  1  0.508000  0.015000  0.360200  1.0
  C  C693  1  0.506000  0.985200  0.683000  1.0
  C  C694  1  0.494000  0.014800  0.317000  1.0
  C  C695  1  0.497000  0.079200  0.661300  1.0
  C  C696  1  0.503000  0.920800  0.338700  1.0
  C  C697  1  0.544000  0.122900  0.635600  1.0
  C  C698  1  0.456000  0.877100  0.364400  1.0
  C  C699  1  0.671500  0.133000  0.659700  1.0
  C  C700  1  0.328500  0.867000  0.340300  1.0
  C  C701  1  0.742600  0.102600  0.689600  1.0
  C  C702  1  0.257400  0.897400  0.310400  1.0
  C  C703  1  0.855700  0.151200  0.656600  1.0
  C  C704  1  0.144300  0.848800  0.343400  1.0
  C  C705  1  0.944800  0.146200  0.630000  1.0
  C  C706  1  0.055200  0.853800  0.370000  1.0
  C  C707  1  0.042500  0.189100  0.583200  1.0
  C  C708  1  0.957500  0.810900  0.416800  1.0
  C  C709  1  0.044600  0.198100  0.536300  1.0
  C  C710  1  0.955400  0.801900  0.463700  1.0
  C  C711  1  0.020900  0.131800  0.512600  1.0
  C  C712  1  0.979100  0.868200  0.487400  1.0
  C  C713  1  0.029100  0.162000  0.469500  1.0
  C  C714  1  0.970900  0.838000  0.530500  1.0
  C  C715  1  0.011300  0.141300  0.442000  1.0
  C  C716  1  0.988700  0.858700  0.558000  1.0
  C  C717  1  0.983300  0.095600  0.452600  1.0
  C  C718  1  0.016700  0.904400  0.547400  1.0
  C  C719  1  0.974100  0.069900  0.494400  1.0
  C  C720  1  0.025900  0.930100  0.505600  1.0
  C  C721  1  0.993100  0.087300  0.523300  1.0
  C  C722  1  0.006900  0.912700  0.476700  1.0
  C  C723  1  0.964200  0.074700  0.421800  1.0
  C  C724  1  0.035800  0.925300  0.578200  1.0
  C  C725  1  0.884500  0.030800  0.406000  1.0
  C  C726  1  0.115500  0.969200  0.594000  1.0
  C  C727  1  0.939900  0.028000  0.369100  1.0
  C  C728  1  0.060100  0.972000  0.630900  1.0
  C  C729  1  0.005700  0.053200  0.356400  1.0
  C  C730  1  0.994300  0.946800  0.643600  1.0
  C  C731  1  0.016900  0.077200  0.384600  1.0
  C  C732  1  0.983100  0.922800  0.615400  1.0
  C  C733  1  0.918500  0.999400  0.340100  1.0
  C  C734  1  0.081500  0.000600  0.659900  1.0
  C  C735  1  0.850000  0.973600  0.353800  1.0
  C  C736  1  0.150000  0.026400  0.646200  1.0
  C  C737  1  0.792000  0.974100  0.391300  1.0
  C  C738  1  0.208000  0.025900  0.608700  1.0
  C  C739  1  0.807600  0.003000  0.417000  1.0
  C  C740  1  0.192400  0.997000  0.583000  1.0
  C  C741  1  0.685200  0.992100  0.462000  1.0
  C  C742  1  0.314800  0.007900  0.538000  1.0
  C  C743  1  0.672200  0.955500  0.442900  1.0
  C  C744  1  0.327800  0.044500  0.557100  1.0
  C  C745  1  0.729300  0.948200  0.407400  1.0
  C  C746  1  0.270700  0.051800  0.592600  1.0
  C  C747  1  0.890200  0.940200  0.296300  1.0
  C  C748  1  0.109800  0.059800  0.703700  1.0
  C  C749  1  0.955800  0.972500  0.282800  1.0
  C  C750  1  0.044200  0.027500  0.717200  1.0
  C  C751  1  0.876700  0.912800  0.275800  1.0
  C  C752  1  0.123300  0.087200  0.724200  1.0
  C  C753  1  0.007900  0.970400  0.246700  1.0
  C  C754  1  0.992100  0.029600  0.753300  1.0
  C  C755  1  0.937700  0.913000  0.239200  1.0
  C  C756  1  0.062300  0.087000  0.760800  1.0
  C  C757  1  0.004000  0.941600  0.224600  1.0
  C  C758  1  0.996000  0.058400  0.775400  1.0
  C  C759  1  0.033600  0.908600  0.169100  1.0
  C  C760  1  0.966400  0.091400  0.830900  1.0
  C  C761  1  0.973900  0.876600  0.185500  1.0
  C  C762  1  0.026100  0.123400  0.814500  1.0
  C  C763  1  0.977500  0.846700  0.155400  1.0
  C  C764  1  0.022500  0.153300  0.844600  1.0
  C  C765  1  0.076500  0.899400  0.129400  1.0
  C  C766  1  0.923500  0.100600  0.870600  1.0
  C  C767  1  0.140900  0.918600  0.103100  1.0
  C  C768  1  0.859100  0.081400  0.896900  1.0
  C  C769  1  0.185100  0.902500  0.066600  1.0
  C  C770  1  0.814900  0.097500  0.933400  1.0
  C  C771  1  0.217700  0.872300  0.014500  1.0
  C  C772  1  0.782300  0.127700  0.985500  1.0
  C  C773  1  0.276700  0.904200  0.010000  1.0
  C  C774  1  0.723300  0.095800  0.990000  1.0
  C  C775  1  0.257400  0.925800  0.042900  1.0
  C  C776  1  0.742600  0.074200  0.957100  1.0
  C  C777  1  0.214500  0.844800  0.987700  1.0
  C  C778  1  0.785500  0.155200  0.012300  1.0
  C  C779  1  0.162100  0.810800  0.991100  1.0
  C  C780  1  0.837900  0.189200  0.008900  1.0
  C  C781  1  0.054900  0.770000  0.016200  1.0
  C  C782  1  0.945100  0.230000  0.983800  1.0
  C  C783  1  0.990400  0.747300  0.038500  1.0
  C  C784  1  0.009600  0.252700  0.961500  1.0
  C  C785  1  0.953000  0.757700  0.075700  1.0
  C  C786  1  0.047000  0.242300  0.924300  1.0
  C  C787  1  0.916300  0.790100  0.135200  1.0
  C  C788  1  0.083700  0.209900  0.864800  1.0
  C  C789  1  0.861700  0.756000  0.138500  1.0
  C  C790  1  0.138300  0.244000  0.861500  1.0
  C  C791  1  0.881900  0.735000  0.103600  1.0
  C  C792  1  0.118100  0.265000  0.896400  1.0
  C  C793  1  0.921200  0.813800  0.163700  1.0
  C  C794  1  0.078800  0.186200  0.836300  1.0
  C  C795  1  0.089900  0.759100  0.974800  1.0
  C  C796  1  0.910100  0.240900  0.025200  1.0
  C  C797  1  0.160000  0.783600  0.960000  1.0
  C  C798  1  0.840000  0.216400  0.040000  1.0
  C  C799  1  0.109600  0.741500  0.915300  1.0
  C  C800  1  0.890400  0.258500  0.084700  1.0
  C  C801  1  0.185100  0.760900  0.902300  1.0
  C  C802  1  0.814900  0.239100  0.097700  1.0
  C  C803  1  0.061700  0.716600  0.891800  1.0
  C  C804  1  0.938300  0.283400  0.108200  1.0
  C  C805  1  0.223700  0.757100  0.862000  1.0
  C  C806  1  0.776300  0.242900  0.138000  1.0
  C  C807  1  0.107700  0.720600  0.849700  1.0
  C  C808  1  0.892300  0.279400  0.150300  1.0
  C  C809  1  0.189700  0.736500  0.837800  1.0
  C  C810  1  0.810300  0.263500  0.162200  1.0
  C  C811  1  0.200300  0.715700  0.778600  1.0
  C  C812  1  0.799700  0.284300  0.221400  1.0
  C  C813  1  0.114000  0.710200  0.790000  1.0
  C  C814  1  0.886000  0.289800  0.210000  1.0
  C  C815  1  0.071900  0.699400  0.759000  1.0
  C  C816  1  0.928100  0.300600  0.241000  1.0
  C  C817  1  0.120300  0.693800  0.722200  1.0
  C  C818  1  0.879700  0.306200  0.277800  1.0
  C  C819  1  0.995100  0.681100  0.700300  1.0
  C  C820  1  0.004900  0.318900  0.299700  1.0
  C  C821  1  0.946700  0.686700  0.737100  1.0
  C  C822  1  0.053300  0.313300  0.262900  1.0
  C  C823  1  0.985100  0.695800  0.766400  1.0
  C  C824  1  0.014900  0.304200  0.233600  1.0
  C  C825  1  0.954500  0.673400  0.667500  1.0
  C  C826  1  0.045500  0.326600  0.332500  1.0
  C  C827  1  0.910000  0.634100  0.677300  1.0
  C  C828  1  0.090000  0.365900  0.322700  1.0
  C  C829  1  0.884500  0.621600  0.645900  1.0
  C  C830  1  0.115500  0.378400  0.354100  1.0
  C  C831  1  0.903400  0.648400  0.604700  1.0
  C  C832  1  0.096600  0.351600  0.395300  1.0
  C  C833  1  0.947900  0.687700  0.594900  1.0
  C  C834  1  0.052100  0.312300  0.405100  1.0
  C  C835  1  0.973500  0.700200  0.626300  1.0
  C  C836  1  0.026500  0.299800  0.373700  1.0
  C  C837  1  0.820900  0.639900  0.543900  1.0
  C  C838  1  0.179100  0.360100  0.456100  1.0
  C  C839  1  0.853300  0.604600  0.515300  1.0
  C  C840  1  0.146700  0.395400  0.484700  1.0
  C  C841  1  0.974000  0.655300  0.485400  1.0
  C  C842  1  0.026000  0.344700  0.514600  1.0
  C  C843  1  0.052000  0.633800  0.457200  1.0
  C  C844  1  0.948000  0.366200  0.542800  1.0
  C  C845  1  0.175800  0.650500  0.405400  1.0
  C  C846  1  0.824200  0.349500  0.594600  1.0
  C  C847  1  0.260400  0.654700  0.418400  1.0
  C  C848  1  0.739600  0.345300  0.581600  1.0
  C  C849  1  0.370500  0.705300  0.385400  1.0
  C  C850  1  0.629500  0.294700  0.614600  1.0
  C  C851  1  0.404800  0.714800  0.420700  1.0
  C  C852  1  0.595200  0.285200  0.579300  1.0
  C  C853  1  0.550000  0.690700  0.445100  1.0
  C  C854  1  0.450000  0.309300  0.554900  1.0
  C  C855  1  0.491200  0.706700  0.481700  1.0
  C  C856  1  0.508800  0.293300  0.518300  1.0
  C  C857  1  0.775200  0.159800  0.486600  1.0
  C  C858  1  0.224800  0.840200  0.513400  1.0
  C  C859  1  0.779800  0.173000  0.441000  1.0
  C  C860  1  0.220200  0.827000  0.559000  1.0
  C  C861  1  0.780700  0.193100  0.505300  1.0
  C  C862  1  0.219300  0.806900  0.494700  1.0
  C  C863  1  0.767200  0.175100  0.550900  1.0
  C  C864  1  0.232800  0.824900  0.449100  1.0
  C  C865  1  0.765700  0.124300  0.571000  1.0
  C  C866  1  0.234300  0.875700  0.429000  1.0
  C  C867  1  0.767000  0.093800  0.545300  1.0
  C  C868  1  0.233000  0.906200  0.454700  1.0
  C  C869  1  0.768800  0.039800  0.565000  1.0
  C  C870  1  0.231200  0.960200  0.435000  1.0
  C  C871  1  0.795600  0.957500  0.553600  1.0
  C  C872  1  0.204400  0.042500  0.446400  1.0
  C  C873  1  0.767400  0.936500  0.595000  1.0
  C  C874  1  0.232600  0.063500  0.405000  1.0
  C  C875  1  0.742600  0.964800  0.623600  1.0
  C  C876  1  0.257400  0.035200  0.376400  1.0
  C  C877  1  0.741500  0.018900  0.608700  1.0
  C  C878  1  0.258500  0.981100  0.391300  1.0
  C  C879  1  0.772300  0.881300  0.612100  1.0
  C  C880  1  0.227700  0.118700  0.387900  1.0
  C  C881  1  0.752400  0.849600  0.591800  1.0
  C  C882  1  0.247600  0.150400  0.408200  1.0
  C  C883  1  0.738600  0.751400  0.620000  1.0
  C  C884  1  0.261400  0.248600  0.380000  1.0
  C  C885  1  0.642600  0.758400  0.620200  1.0
  C  C886  1  0.357400  0.241600  0.379800  1.0
  C  C887  1  0.627900  0.703200  0.626400  1.0
  C  C888  1  0.372100  0.296800  0.373600  1.0
  C  C889  1  0.627900  0.629800  0.685800  1.0
  C  C890  1  0.372100  0.370200  0.314200  1.0
  C  C891  1  0.645200  0.606800  0.726900  1.0
  C  C892  1  0.354800  0.393200  0.273100  1.0
  C  C893  1  0.615000  0.562900  0.750400  1.0
  C  C894  1  0.385000  0.437100  0.249600  1.0
  C  C895  1  0.567400  0.542000  0.732800  1.0
  C  C896  1  0.432600  0.458000  0.267200  1.0
  C  C897  1  0.550100  0.565000  0.691700  1.0
  C  C898  1  0.449900  0.435000  0.308300  1.0
  C  C899  1  0.580300  0.608900  0.668100  1.0
  C  C900  1  0.419700  0.391100  0.331900  1.0
  C  C901  1  0.530800  0.492800  0.763700  1.0
  C  C902  1  0.469200  0.507200  0.236300  1.0
  C  C903  1  0.451500  0.511100  0.795400  1.0
  C  C904  1  0.548500  0.488900  0.204600  1.0
  C  C905  1  0.436400  0.561000  0.800300  1.0
  C  C906  1  0.563600  0.439000  0.199700  1.0
  C  C907  1  0.372400  0.569900  0.833600  1.0
  C  C908  1  0.627600  0.430100  0.166400  1.0
  C  C909  1  0.334800  0.534700  0.861200  1.0
  C  C910  1  0.665200  0.465300  0.138800  1.0
  C  C911  1  0.347600  0.486400  0.853200  1.0
  C  C912  1  0.652400  0.513600  0.146800  1.0
  C  C913  1  0.406600  0.475000  0.820500  1.0
  C  C914  1  0.593400  0.525000  0.179500  1.0
  C  C915  1  0.275000  0.544300  0.895400  1.0
  C  C916  1  0.725000  0.455700  0.104600  1.0
  C  C917  1  0.273200  0.593800  0.905300  1.0
  C  C918  1  0.726800  0.406200  0.094700  1.0
  C  C919  1  0.182000  0.554900  0.890900  1.0
  C  C920  1  0.818000  0.445100  0.109100  1.0
  C  C921  1  0.294300  0.500700  0.933400  1.0
  C  C922  1  0.705700  0.499300  0.066600  1.0
  C  C923  1  0.610700  0.455100  0.786100  1.0
  C  C924  1  0.389300  0.544900  0.213900  1.0
  C  C925  1  0.607500  0.432100  0.828700  1.0
  C  C926  1  0.392500  0.567900  0.171300  1.0
  C  C927  1  0.677400  0.392700  0.846000  1.0
  C  C928  1  0.322600  0.607300  0.154000  1.0
  C  C929  1  0.750500  0.376200  0.820700  1.0
  C  C930  1  0.249500  0.623800  0.179300  1.0
  C  C931  1  0.753700  0.399100  0.778100  1.0
  C  C932  1  0.246300  0.600900  0.221900  1.0
  C  C933  1  0.683800  0.438600  0.760800  1.0
  C  C934  1  0.316200  0.561400  0.239200  1.0
  C  C935  1  0.824300  0.326700  0.843000  1.0
  C  C936  1  0.175700  0.673300  0.157000  1.0
  C  C937  1  0.859300  0.350000  0.871400  1.0
  C  C938  1  0.140700  0.650000  0.128600  1.0
  C  C939  1  0.795000  0.276800  0.868400  1.0
  C  C940  1  0.205000  0.723200  0.131600  1.0
  C  C941  1  0.902500  0.315000  0.809600  1.0
  C  C942  1  0.097500  0.685000  0.190400  1.0
  C  C943  1  0.487300  0.473900  0.735500  1.0
  C  C944  1  0.512700  0.526100  0.264500  1.0
  C  C945  1  0.528200  0.425500  0.729500  1.0
  C  C946  1  0.471800  0.574500  0.270500  1.0
  C  C947  1  0.491800  0.406000  0.705800  1.0
  C  C948  1  0.508200  0.594000  0.294200  1.0
  C  C949  1  0.414500  0.434900  0.688100  1.0
  C  C950  1  0.585500  0.565100  0.311900  1.0
  C  C951  1  0.373700  0.483300  0.694100  1.0
  C  C952  1  0.626300  0.516700  0.305900  1.0
  C  C953  1  0.410100  0.502800  0.717800  1.0
  C  C954  1  0.589900  0.497200  0.282200  1.0
  C  C955  1  0.378000  0.413500  0.661700  1.0
  C  C956  1  0.622000  0.586500  0.338300  1.0
  C  C957  1  0.327400  0.458700  0.625600  1.0
  C  C958  1  0.672600  0.541300  0.374400  1.0
  C  C959  1  0.427000  0.374200  0.645900  1.0
  C  C960  1  0.573000  0.625800  0.354100  1.0
  C  C961  1  0.292000  0.403700  0.687300  1.0
  C  C962  1  0.708000  0.596300  0.312700  1.0
  C  C963  1  0.801100  0.257100  0.439100  1.0
  C  C964  1  0.198900  0.742900  0.560900  1.0
  C  C965  1  0.793100  0.220800  0.421000  1.0
  C  C966  1  0.206900  0.779200  0.579000  1.0
  C  C967  1  0.792900  0.244900  0.484300  1.0
  C  C968  1  0.207100  0.755100  0.515700  1.0
  C  C969  1  0.798400  0.279500  0.501300  1.0
  C  C970  1  0.201600  0.720500  0.498700  1.0
  C  C971  1  0.804300  0.326200  0.478200  1.0
  C  C972  1  0.195700  0.673800  0.521800  1.0
  C  C973  1  0.820500  0.336500  0.434400  1.0
  C  C974  1  0.179500  0.663500  0.565600  1.0
  C  C975  1  0.840700  0.387900  0.404000  1.0
  C  C976  1  0.159300  0.612100  0.596000  1.0
  C  C977  1  0.866200  0.435400  0.340100  1.0
  C  C978  1  0.133800  0.564600  0.659900  1.0
  C  C979  1  0.895100  0.469500  0.351300  1.0
  C  C980  1  0.104900  0.530500  0.648700  1.0
  C  C981  1  0.894300  0.463300  0.393400  1.0
  C  C982  1  0.105700  0.536700  0.606600  1.0
  C  C983  1  0.868500  0.419000  0.423300  1.0
  C  C984  1  0.131500  0.581000  0.576700  1.0
  C  C985  1  0.920000  0.513500  0.320300  1.0
  C  C986  1  0.080000  0.486500  0.679700  1.0
  C  C987  1  0.885600  0.537500  0.281200  1.0
  C  C988  1  0.114400  0.462500  0.718800  1.0
  C  C989  1  0.890000  0.628300  0.220000  1.0
  C  C990  1  0.110000  0.371700  0.780000  1.0
  C  C991  1  0.938400  0.604100  0.188200  1.0
  C  C992  1  0.061600  0.395900  0.811800  1.0
  C  C993  1  0.905000  0.569200  0.174900  1.0
  C  C994  1  0.095000  0.430800  0.825100  1.0
  C  C995  1  0.759900  0.617300  0.167300  1.0
  C  C996  1  0.240100  0.382700  0.832700  1.0
  C  C997  1  0.683900  0.632100  0.191700  1.0
  C  C998  1  0.316100  0.367900  0.808300  1.0
  C  C999  1  0.610600  0.666667  0.173200  1.0
  C  C1000  1  0.389400  0.333333  0.826800  1.0
  C  C1001  1  0.613400  0.686200  0.130400  1.0
  C  C1002  1  0.386600  0.313800  0.869600  1.0
  C  C1003  1  0.689500  0.671400  0.106000  1.0
  C  C1004  1  0.310500  0.328600  0.894000  1.0
  C  C1005  1  0.762700  0.636900  0.124400  1.0
  C  C1006  1  0.237300  0.363100  0.875600  1.0
  C  C1007  1  0.525100  0.722700  0.111400  1.0
  C  C1008  1  0.474900  0.277300  0.888600  1.0
  C  C1009  1  0.559700  0.771000  0.082700  1.0
  C  C1010  1  0.440300  0.229000  0.917300  1.0
  C  C1011  1  0.535900  0.797500  0.042900  1.0
  C  C1012  1  0.464100  0.202500  0.957100  1.0
  C  C1013  1  0.563700  0.842600  0.020400  1.0
  C  C1014  1  0.436300  0.157400  0.979600  1.0
  C  C1015  1  0.615400  0.861300  0.037800  1.0
  C  C1016  1  0.384600  0.138700  0.962200  1.0
  C  C1017  1  0.639200  0.834800  0.077700  1.0
  C  C1018  1  0.360800  0.165200  0.922300  1.0
  C  C1019  1  0.611300  0.789700  0.100100  1.0
  C  C1020  1  0.388700  0.210300  0.899900  1.0
  C  C1021  1  0.678000  0.900800  0.015200  1.0
  C  C1022  1  0.322000  0.099200  0.984800  1.0
  C  C1023  1  0.648000  0.922100  0.968000  1.0
  C  C1024  1  0.352000  0.077900  0.032000  1.0
  C  C1025  1  0.622000  0.954300  0.026500  1.0
  C  C1026  1  0.378000  0.045700  0.973500  1.0
  C  C1027  1  0.783000  0.890600  0.013100  1.0
  C  C1028  1  0.217000  0.109400  0.986900  1.0
  C  C1029  1  0.489500  0.695600  0.087900  1.0
  C  C1030  1  0.510500  0.304400  0.912100  1.0
  C  C1031  1  0.528800  0.645300  0.085800  1.0
  C  C1032  1  0.471200  0.354700  0.914200  1.0
  C  C1033  1  0.495200  0.624000  0.062400  1.0
  C  C1034  1  0.504800  0.376000  0.937600  1.0
  C  C1035  1  0.422200  0.653100  0.041200  1.0
  C  C1036  1  0.577800  0.346900  0.958800  1.0
  C  C1037  1  0.382900  0.703500  0.043400  1.0
  C  C1038  1  0.617100  0.296500  0.956600  1.0
  C  C1039  1  0.416500  0.724700  0.066700  1.0
  C  C1040  1  0.583500  0.275300  0.933300  1.0
  C  C1041  1  0.379600  0.627700  0.017400  1.0
  C  C1042  1  0.620400  0.372300  0.982600  1.0
  C  C1043  1  0.298500  0.663700  0.995900  1.0
  C  C1044  1  0.701500  0.336300  0.004100  1.0
  C  C1045  1  0.354100  0.572500  0.045100  1.0
  C  C1046  1  0.645900  0.427500  0.954900  1.0
  C  C1047  1  0.453700  0.616800  0.980300  1.0
  C  C1048  1  0.546300  0.383200  0.019700  1.0
  C  C1049  1  0.455800  0.735000  0.144500  1.0
  C  C1050  1  0.544200  0.265000  0.855500  1.0
  C  C1051  1  0.414500  0.696700  0.170500  1.0
  C  C1052  1  0.585500  0.303300  0.829500  1.0
  C  C1053  1  0.351400  0.707900  0.201900  1.0
  C  C1054  1  0.648600  0.292100  0.798100  1.0
  C  C1055  1  0.329500  0.757300  0.207200  1.0
  C  C1056  1  0.670500  0.242700  0.792800  1.0
  C  C1057  1  0.370700  0.795600  0.181200  1.0
  C  C1058  1  0.629300  0.204400  0.818800  1.0
  C  C1059  1  0.433900  0.784400  0.149800  1.0
  C  C1060  1  0.566100  0.215600  0.850200  1.0
  C  C1061  1  0.261200  0.765900  0.247300  1.0
  C  C1062  1  0.738800  0.234100  0.752700  1.0
  C  C1063  1  0.229800  0.717500  0.275200  1.0
  C  C1064  1  0.770200  0.282500  0.724800  1.0
  C  C1065  1  0.177300  0.803200  0.230300  1.0
  C  C1066  1  0.822700  0.196800  0.769700  1.0
  C  C1067  1  0.316200  0.783500  0.272600  1.0
  C  C1068  1  0.683800  0.216500  0.727400  1.0
  N  N1069  1  0.248400  0.683200  0.679400  1
  N  N1070  1  0.751600  0.316800  0.320600  1
  N  N1071  1  0.901700  0.052300  0.432500  1.0
  N  N1072  1  0.098300  0.947700  0.567500  1.0
  N  N1073  1  0.753800  0.013800  0.450800  1.0
  N  N1074  1  0.246200  0.986200  0.549200  1.0
  N  N1075  1  0.834500  0.944500  0.334900  1.0
  N  N1076  1  0.165500  0.055500  0.665100  1.0
  N  N1077  1  0.973300  0.999100  0.306600  1.0
  N  N1078  1  0.026700  0.000900  0.693400  1.0
  N  N1079  1  0.919200  0.878600  0.220200  1.0
  N  N1080  1  0.080800  0.121400  0.779800  1.0
  N  N1081  1  0.048000  0.936700  0.188300  1.0
  N  N1082  1  0.952000  0.063300  0.811700  1.0
  N  N1083  1  0.039000  0.862900  0.124600  1.0
  N  N1084  1  0.961000  0.137100  0.875400  1.0
  N  N1085  1  0.163900  0.871500  0.052000  1.0
  N  N1086  1  0.836100  0.128500  0.948000  1.0
  N  N1087  1  0.098800  0.801400  0.019900  1.0
  N  N1088  1  0.901200  0.198600  0.980100  1.0
  N  N1089  1  0.972600  0.791300  0.096100  1.0
  N  N1090  1  0.027400  0.208700  0.903900  1.0
  N  N1091  1  0.207000  0.788200  0.923300  1.0
  N  N1092  1  0.793000  0.211800  0.076700  1.0
  N  N1093  1  0.060000  0.736900  0.954800  1.0
  N  N1094  1  0.940000  0.263100  0.045200  1.0
  N  N1095  1  0.238500  0.732400  0.800900  1.0
  N  N1096  1  0.761500  0.267600  0.199100  1.0
  N  N1097  1  0.066400  0.708300  0.824800  1.0
  N  N1098  1  0.933600  0.291700  0.175200  1.0
  N  N1099  1  0.081900  0.684600  0.692900  1.0
  N  N1100  1  0.918100  0.315400  0.307100  1.0
  N  N1101  1  0.771400  0.111400  0.504200  1.0
  N  N1102  1  0.228600  0.888600  0.495800  1.0
  N  N1103  1  0.793700  0.005700  0.540200  1.0
  N  N1104  1  0.206300  0.994300  0.459800  1.0
  N  N1105  1  0.788200  0.850500  0.653400  1.0
  N  N1106  1  0.211800  0.149500  0.346600  1.0
  N  N1107  1  0.778200  0.799700  0.658500  1.0
  N  N1108  1  0.221800  0.200300  0.341500  1.0
  N  N1109  1  0.756000  0.799200  0.620400  1.0
  N  N1110  1  0.244000  0.200800  0.379600  1.0
  N  N1111  1  0.818600  0.303900  0.417100  1.0
  N  N1112  1  0.181400  0.696100  0.582900  1.0
  N  N1113  1  0.842100  0.392600  0.365200  1.0
  N  N1114  1  0.157900  0.607400  0.634800  1.0
  N  N1115  1  0.975900  0.543200  0.323800  1.0
  N  N1116  1  0.024100  0.456800  0.676200  1.0
  N  N1117  1  0.976100  0.585500  0.286900  1.0
  N  N1118  1  0.023900  0.414500  0.713100  1.0
  N  N1119  1  0.920300  0.581900  0.260600  1.0
  N  N1120  1  0.079700  0.418100  0.739400  1.0
  O  O1121  1  0.956000  0.908200  0.034300  1
  O  O1122  1  0.044000  0.091800  0.965700  1
  O  O1123  1  0.490900  0.030900  0.604000  1.0
  O  O1124  1  0.509100  0.969100  0.396000  1.0
  O  O1125  1  0.451100  0.037800  0.676400  1.0
  O  O1126  1  0.548900  0.962200  0.323600  1.0
  O  O1127  1  0.604600  0.104400  0.667000  1.0
  O  O1128  1  0.395400  0.895600  0.333000  1.0
  O  O1129  1  0.828700  0.102600  0.667800  1.0
  O  O1130  1  0.171300  0.897400  0.332200  1.0
  O  O1131  1  0.954000  0.197200  0.603400  1.0
  O  O1132  1  0.046000  0.802800  0.396600  1.0
  O  O1133  1  0.042800  0.144100  0.546000  1.0
  O  O1134  1  0.957200  0.855900  0.454000  1.0
  O  O1135  1  0.880600  0.632200  0.573600  1.0
  O  O1136  1  0.119400  0.367800  0.426400  1.0
  O  O1137  1  0.940000  0.609100  0.495700  1.0
  O  O1138  1  0.060000  0.390900  0.504300  1.0
  O  O1139  1  0.109900  0.668100  0.436000  1.0
  O  O1140  1  0.890100  0.331900  0.564000  1.0
  O  O1141  1  0.278500  0.705000  0.395400  1.0
  O  O1142  1  0.721500  0.295000  0.604600  1.0
  O  O1143  1  0.481400  0.673900  0.434500  1.0
  O  O1144  1  0.518600  0.326100  0.565500  1.0
  O  O1145  1  0.465100  0.661100  0.511300  1.0
  O  O1146  1  0.534900  0.338900  0.488700  1.0
  O  O1147  1  0.659800  0.674600  0.666800  1.0
  O  O1148  1  0.340200  0.325400  0.333200  1.0
  O  O1149  1  0.819500  0.572100  0.189700  1.0
  O  O1150  1  0.180500  0.427900  0.810300  1.0
  F  F1151  1  0.712700  0.831600  0.449200  1
  F  F1152  1  0.287300  0.168400  0.550800  1
  F  F1153  1  0.657000  0.744400  0.526700  1
  F  F1154  1  0.343000  0.255600  0.473300  1
  F  F1155  1  0.697600  0.749800  0.462600  1
  F  F1156  1  0.302400  0.250200  0.537400  1
  F  F1157  1  0.586300  0.809200  0.481000  1
  F  F1158  1  0.413700  0.190800  0.519000  1
  F  F1159  1  0.675200  0.829100  0.513100  1
  F  F1160  1  0.324800  0.170900  0.486900  1
  F  F1161  1  0.786100  0.769000  0.495400  1
  F  F1162  1  0.213900  0.231000  0.504600  1
  F  F1163  1  0.338200  0.828100  0.695600  1
  F  F1164  1  0.661800  0.171900  0.304400  1
  F  F1165  1  0.436400  0.871100  0.668100  1
  F  F1166  1  0.563600  0.128900  0.331900  1
  F  F1167  1  0.297100  0.906900  0.657700  1
  F  F1168  1  0.702900  0.093100  0.342300  1
  F  F1169  1  0.436100  0.805500  0.647400  1
  F  F1170  1  0.563900  0.194500  0.352600  1
  F  F1171  1  0.390300  0.891300  0.604100  1
  F  F1172  1  0.609700  0.108700  0.395900  1
  F  F1173  1  0.292800  0.835800  0.640300  1
  F  F1174  1  0.707200  0.164200  0.359700  1
