
#######################################################################
#
#                 Cambridge Crystallographic Data Centre
#                                CCDC 
#
#######################################################################
#
# If this CIF has been generated from an entry in the Cambridge 
# Structural Database, then it will include bibliographic, chemical, 
# crystal, experimental, refinement or atomic coordinate data resulting 
# from the CCDC's data processing and validation procedures.
#
#######################################################################

data_BUSNIN
_chemical_formula_moiety         
'C524 H546 Cu4 N52 O28 Zn2 4+,4(F6 P1 1-),2(H2 O1)'
_chemical_name_systematic        
"bis(\m~3~-5,10,15,20-tetrakis(3,5-di-t-butylphenyl)-di(6,9,12,15,18,21-hexaoxa-31,35,38,42,47,50-hexaazanonacyclo[24.20.4.2^2,5^.2^22,25^.0^29,49^.0^30,43^.0^32,41^.0^34,39^.0^44,48^]tetrapentaconta-1(46),2,4,22,24,26,28,30(43),31,34,38,41,44,47,49,51,53-heptadecaene)(36,37-b:36',37'-l)porphyrinato)-bis(\m~2~-4,4'-(phenanthrene-2,7-diyldibenzene-4,1-diyl)bis(1-(3-[4-(4-tert-butyltrityl)phenoxy]propyl)-1H-1,2,3-triazole))-tetra-copper-di-zinc tetrakis(hexafluorophosphate dihydrate)"
_symmetry_cell_setting           triclinic
_symmetry_space_group_name_H-M   'P -1'
_symmetry_Int_Tables_number      2
_space_group_name_Hall           '-P 1'
loop_
_symmetry_equiv_pos_site_id
_symmetry_equiv_pos_as_xyz
1 x,y,z
2 -x,-y,-z
_cell_length_a                   15.9812(19)
_cell_length_b                   27.908(4)
_cell_length_c                   34.355(4)
_cell_angle_alpha                70.843(5)
_cell_angle_beta                 79.695(6)
_cell_angle_gamma                73.704(6)
_cell_volume                     13828.6
_exptl_crystal_colour            brown
_exptl_crystal_description       prism
_cell_formula_units_Z            1
loop_
_atom_site_label
_atom_site_type_symbol
_atom_site_fract_x
_atom_site_fract_y
_atom_site_fract_z
O1 O 0.9560(9) -0.0918(6) 0.0343(4)
P1 P 0.6859(6) 0.7886(3) 0.4886(4)
F1 F 0.7127(12) 0.8316(6) 0.4492(3)
F2 F 0.6570(13) 0.7444(6) 0.5267(3)
F3 F 0.6976(15) 0.7498(6) 0.4626(4)
F4 F 0.5863(7) 0.8092(7) 0.4810(6)
F5 F 0.6752(15) 0.8291(7) 0.5131(5)
F6 F 0.7861(8) 0.7690(8) 0.4954(7)
P2 P 0.3660(14) 0.8575(7) 0.6493(5)
F7 F 0.3382(18) 0.8281(8) 0.6956(6)
F8 F 0.4364(19) 0.8711(13) 0.6681(12)
F9 F 0.2971(17) 0.9069(9) 0.6577(8)
F10 F 0.4361(14) 0.8055(8) 0.6474(9)
F11 F 0.3903(19) 0.8913(12) 0.6041(6)
F12 F 0.2928(18) 0.8358(13) 0.6403(7)
Cu1 Cu 0.80212(15) 0.04882(9) 0.48022(6)
Cu2 Cu 1.17196(16) -0.33170(10) -0.35361(6)
Zn1 Zn 1.06055(15) -0.16382(9) 0.07075(6)
C1 C 0.6254(11) -0.0020(9) 0.4983(6)
C2 C 0.5948(11) -0.0404(8) 0.5292(5)
H1 H 0.6054 -0.0741 0.5257
C3 C 0.5491(11) -0.0315(9) 0.5650(5)
H2 H 0.5257 -0.0574 0.5863
C4 C 0.5397(13) 0.0200(12) 0.5679(6)
C5 C 0.5657(14) 0.0611(10) 0.5330(9)
H3 H 0.5528 0.0961 0.5341
C6 C 0.6077(10) 0.0483(9) 0.5001(5)
H4 H 0.6261 0.0743 0.4771
O2 O 0.4909(10) 0.0309(8) 0.6040(6)
C7 C 0.492(2) -0.0150(8) 0.6398(7)
H5 H 0.5383 -0.0439 0.6329
H6 H 0.4356 -0.0245 0.6426
C8 C 0.506(2) -0.0148(9) 0.6830(7)
H7 H 0.4826 -0.0412 0.7061
H8 H 0.568 -0.0173 0.6861
O3 O 0.4511(13) 0.0378(11) 0.6764(9)
C9 C 0.497(3) 0.0792(10) 0.6613(14)
H9 H 0.5467 0.0594 0.6785
H10 H 0.4583 0.1006 0.6784
C10 C 0.544(2) 0.1229(15) 0.6356(10)
H11 H 0.5712 0.1192 0.6082
H12 H 0.5069 0.1586 0.6332
O4 O 0.6046(19) 0.1044(13) 0.6670(8)
C11 C 0.6715(14) 0.1330(8) 0.6597(11)
H13 H 0.6448 0.1678 0.6638
H14 H 0.6983 0.1383 0.6307
C12 C 0.7426(14) 0.1026(10) 0.6896(6)
H15 H 0.7348 0.119 0.712
H16 H 0.7367 0.0662 0.7024
O5 O 0.8287(12) 0.1026(7) 0.6678(7)
C13 C 0.8557(16) 0.1512(7) 0.6566(7)
H17 H 0.8611 0.1592 0.6819
H18 H 0.8113 0.1801 0.6407
C14 C 0.9448(10) 0.1462(7) 0.6300(7)
H19 H 0.9929 0.1304 0.6483
H20 H 0.9486 0.123 0.6129
O6 O 0.9540(12) 0.1972(7) 0.6034(5)
C15 C 1.0425(12) 0.1891(12) 0.5832(7)
H21 H 1.0751 0.1529 0.596
H22 H 1.0725 0.2132 0.5876
C16 C 1.0446(17) 0.1981(8) 0.5363(6)
H23 H 0.9921 0.2231 0.5238
H24 H 1.0991 0.2065 0.5201
O7 O 1.0428(10) 0.1441(7) 0.5460(4)
C17 C 1.0209(12) 0.1318(10) 0.5126(7)
C18 C 1.0291(11) 0.1620(8) 0.4695(7)
H25 H 1.0458 0.1942 0.461
C19 C 1.0113(12) 0.1413(8) 0.4420(6)
H26 H 1.0187 0.1596 0.4134
C20 C 0.9833(11) 0.0956(9) 0.4526(8)
C21 C 0.9741(10) 0.0699(7) 0.4944(6)
H27 H 0.9537 0.0388 0.5032
C22 C 0.9931(11) 0.0873(9) 0.5233(6)
H28 H 0.9867 0.068 0.5517
C23 C 0.9642(14) 0.0747(8) 0.4218(7)
N1 N 0.9017(10) 0.0523(6) 0.4325(4)
C24 C 0.8845(13) 0.0308(6) 0.4060(6)
C25 C 0.9399(13) 0.0280(7) 0.3691(5)
C26 C 1.0057(12) 0.0532(7) 0.3564(5)
H29 H 1.0408 0.0545 0.3308
C27 C 1.0169(10) 0.0772(6) 0.3846(5)
H30 H 1.0618 0.0956 0.3781
C28 C 0.9185(14) -0.0006(7) 0.3401(6)
C29 C 0.8500(14) -0.0264(7) 0.3538(6)
C30 C 0.7920(14) -0.0259(7) 0.3913(6)
C31 C 0.8076(12) 0.0030(7) 0.4170(6)
N2 N 0.7538(10) 0.0138(5) 0.4508(4)
C32 C 0.6852(13) -0.0079(7) 0.4620(5)
C33 C 0.6722(12) -0.0445(7) 0.4429(6)
H31 H 0.6272 -0.0629 0.4538
C34 C 0.7293(12) -0.0518(7) 0.4074(6)
H32 H 0.7225 -0.0758 0.3947
N3 N 0.8345(9) -0.0555(6) 0.3349(4)
N4 N 0.9733(9) -0.0009(5) 0.3066(5)
C35 C 0.8902(13) -0.0598(7) 0.2963(6)
C36 C 0.9558(13) -0.0275(8) 0.2828(6)
C37 C 0.8767(10) -0.0872(6) 0.2758(5)
H33 H 0.8317 -0.1057 0.2837
C38 C 1.0079(12) -0.0296(7) 0.2467(6)
H34 H 1.0493 -0.0086 0.2374
C39 C 0.9377(15) -0.0870(8) 0.2392(6)
C40 C 1.0040(12) -0.0584(8) 0.2246(6)
N5 N 0.9192(8) -0.1214(5) 0.2202(4)
N6 N 1.0480(8) -0.0633(5) 0.1883(4)
C41 C 1.0336(13) -0.0914(7) 0.1691(5)
C42 C 0.9739(13) -0.1234(7) 0.1855(6)
C43 C 0.9775(13) -0.1533(7) 0.1554(6)
N7 N 1.0390(9) -0.1371(6) 0.1246(4)
C44 C 1.0765(13) -0.1006(7) 0.1294(6)
C45 C 1.1409(12) -0.0814(7) 0.1031(6)
C46 C 1.1851(14) -0.0975(7) 0.0666(6)
N8 N 1.1639(8) -0.1285(5) 0.0520(4)
C47 C 1.2177(12) -0.1277(8) 0.0145(5)
C48 C 1.2767(12) -0.0958(7) 0.0100(5)
H35 H 1.3219 -0.0902 -0.0119
C49 C 1.2574(13) -0.0742(7) 0.0429(6)
H36 H 1.2839 -0.0509 0.0485
C50 C 1.2145(12) -0.1552(8) -0.0123(5)
C51 C 1.1621(15) -0.1892(8) -0.0089(6)
N9 N 1.0988(12) -0.1986(6) 0.0199(4)
C52 C 1.0549(14) -0.2300(8) 0.0162(6)
C53 C 0.9904(14) -0.2527(8) 0.0385(6)
C54 C 0.9530(13) -0.2423(7) 0.0757(7)
N10 N 0.9726(9) -0.2087(5) 0.0961(4)
C55 C 0.9163(12) -0.2099(7) 0.1352(6)
C56 C 0.8617(12) -0.2440(7) 0.1385(5)
H37 H 0.8179 -0.2519 0.1607
C57 C 0.8819(13) -0.2650(7) 0.1036(6)
H38 H 0.8548 -0.2889 0.0993
C58 C 0.9212(12) -0.1862(7) 0.1637(6)
C59 C 1.0899(14) -0.2409(7) -0.0252(6)
C60 C 1.1600(14) -0.2164(7) -0.0400(6)
N11 N 1.2070(9) -0.2118(5) -0.0767(5)
N12 N 1.0600(8) -0.2631(5) -0.0452(4)
C61 C 1.1096(14) -0.2585(7) -0.0847(5)
C62 C 1.1851(14) -0.2391(8) -0.0977(6)
C63 C 1.0617(12) -0.2834(7) -0.1082(6)
C64 C 1.2237(11) -0.2429(6) -0.1380(6)
H39 H 1.2754 -0.2308 -0.1489
C65 C 1.1077(16) -0.2794(7) -0.1503(6)
C66 C 1.1897(16) -0.2635(8) -0.1622(7)
N13 N 1.2385(8) -0.2676(5) -0.1991(5)
N14 N 1.0664(10) -0.2917(5) -0.1752(5)
C67 C 1.2003(14) -0.2843(6) -0.2214(5)
C68 C 1.1140(16) -0.2898(7) -0.2100(6)
C69 C 1.0719(10) -0.3006(4) -0.2410(3)
C70 C 1.1203(7) -0.3062(4) -0.2778(4)
N15 N 1.0819(9) -0.3154(3) -0.3071(3)
C71 C 0.9951(9) -0.3189(4) -0.2997(4)
C72 C 0.9467(7) -0.3133(4) -0.2629(5)
H40 H 0.8874 -0.3157 -0.2578
C73 C 0.9851(9) -0.3042(4) -0.2336(3)
H41 H 0.952 -0.3004 -0.2084
C74 C 0.9545(8) -0.3266(5) -0.3325(4)
C75 C 0.9100(8) -0.3659(5) -0.3227(3)
H42 H 0.8971 -0.3843 -0.2946
C76 C 0.8845(8) -0.3784(4) -0.3541(4)
H43 H 0.8541 -0.4053 -0.3474
C77 C 0.9034(8) -0.3516(5) -0.3953(4)
C78 C 0.9479(8) -0.3123(5) -0.4051(3)
H44 H 0.9609 -0.2939 -0.4332
C79 C 0.9735(7) -0.2998(4) -0.3737(5)
H45 H 1.0039 -0.2729 -0.3804
O8 O 0.8806(10) -0.3678(7) -0.4264(5)
C80 C 0.8209(13) -0.3601(15) -0.4561(7)
H46 H 0.7643 -0.3664 -0.4409
H47 H 0.8099 -0.3232 -0.4734
C81 C 0.8533(19) -0.3954(12) -0.4847(11)
H48 H 0.8124 -0.385 -0.5061
H49 H 0.855 -0.4321 -0.4683
O9 O 0.9400(17) -0.3909(12) -0.5043(9)
C82 C 0.974(2) -0.3447(13) -0.5146(13)
H50 H 0.9343 -0.3124 -0.5297
H51 H 0.9926 -0.3398 -0.4904
C83 C 1.052(2) -0.3662(13) -0.5428(10)
H52 H 1.0287 -0.3747 -0.5639
H53 H 1.0873 -0.3992 -0.5258
O10 O 1.1099(19) -0.3319(8) -0.5640(8)
C84 C 1.1758(18) -0.3495(11) -0.5946(8)
H54 H 1.1783 -0.3859 -0.593
H55 H 1.1648 -0.3266 -0.623
C85 C 1.2604(16) -0.3453(10) -0.5816(7)
H56 H 1.31 -0.3736 -0.5872
H57 H 1.2535 -0.3494 -0.5516
O11 O 1.2785(12) -0.2950(7) -0.6046(7)
C86 C 1.3705(14) -0.2947(11) -0.6146(5)
H58 H 1.4044 -0.3287 -0.6186
H59 H 1.3783 -0.2669 -0.6407
C87 C 1.4048(12) -0.2852(10) -0.5793(9)
H60 H 1.3585 -0.2847 -0.5559
H61 H 1.42 -0.2508 -0.5892
O12 O 1.4814(18) -0.3261(7) -0.5655(6)
C88 C 1.5500(12) -0.3093(12) -0.5549(9)
H62 H 1.602 -0.338 -0.5463
H63 H 1.5674 -0.2795 -0.5768
C89 C 1.4912(19) -0.2933(8) -0.5183(7)
H64 H 1.4385 -0.2661 -0.5284
H65 H 1.5234 -0.2787 -0.5046
O13 O 1.4651(11) -0.3389(7) -0.4887(4)
C90 C 1.4413(8) -0.3315(6) -0.4489(3)
C91 C 1.4467(8) -0.2882(5) -0.4390(4)
H66 H 1.472 -0.2621 -0.4589
C92 C 1.4150(8) -0.2829(5) -0.3998(5)
H67 H 1.4187 -0.2533 -0.393
C93 C 1.3779(7) -0.3211(6) -0.3706(3)
C94 C 1.3725(7) -0.3645(5) -0.3806(4)
H68 H 1.3471 -0.3905 -0.3606
C95 C 1.4042(8) -0.3697(5) -0.4197(5)
H69 H 1.4005 -0.3993 -0.4265
C96 C 1.3319(15) -0.3151(7) -0.3318(6)
N16 N 1.2484(11) -0.3168(5) -0.3206(4)
C97 C 1.2114(11) -0.3076(6) -0.2856(5)
C98 C 1.2468(14) -0.2921(7) -0.2586(6)
C99 C 1.3353(14) -0.2891(6) -0.2705(5)
H70 H 1.3655 -0.2811 -0.2529
C100 C 1.3822(13) -0.2979(7) -0.3101(6)
H71 H 1.4394 -0.2928 -0.3201
C101 C 1.1699(12) -0.0417(6) 0.1128(3)
C102 C 1.1129(7) 0.0073(8) 0.1072(3)
H72 H 1.0576 0.014 0.0974
C103 C 1.1368(10) 0.0466(5) 0.1160(3)
C104 C 1.2178(12) 0.0368(6) 0.1303(4)
H73 H 1.2341 0.0637 0.1363
C105 C 1.2748(7) -0.0123(8) 0.1359(3)
C106 C 1.2508(10) -0.0515(5) 0.1271(3)
H74 H 1.2898 -0.0851 0.131
C107 C 1.0768(11) 0.0991(8) 0.1144(6)
C108 C 1.0044(14) 0.1072(8) 0.0870(6)
H75 H 0.9636 0.1413 0.0851
H76 H 0.9727 0.0795 0.0991
H77 H 1.031 0.106 0.0592
C109 C 1.0357(14) 0.0983(9) 0.1588(5)
H78 H 0.9953 0.1322 0.1583
H79 H 1.0821 0.0915 0.1765
H80 H 1.0036 0.0707 0.1699
C110 C 1.1215(14) 0.1450(8) 0.0958(7)
H81 H 1.0782 0.1779 0.0953
H82 H 1.147 0.1456 0.0676
H83 H 1.1679 0.1406 0.1128
C111 C 1.3684(9) -0.0266(7) 0.1531(5)
C112 C 1.3533(13) -0.0632(9) 0.1969(5)
H84 H 1.338 -0.094 0.1951
H85 H 1.3053 -0.0447 0.2127
H86 H 1.4068 -0.0743 0.2109
C113 C 1.3927(15) 0.0219(7) 0.1554(8)
H87 H 1.3447 0.0409 0.1709
H88 H 1.4028 0.0448 0.1274
H89 H 1.446 0.0111 0.1695
C114 C 1.4412(11) -0.0556(7) 0.1273(5)
H90 H 1.4251 -0.0865 0.1262
H91 H 1.4963 -0.0665 0.1401
H92 H 1.4486 -0.0324 0.0991
C115 C 1.2747(9) -0.1404(6) -0.0533(3)
C116 C 1.2447(7) -0.0942(5) -0.0837(5)
H93 H 1.1886 -0.0724 -0.0793
C117 C 1.2966(10) -0.0800(4) -0.1206(4)
C118 C 1.3786(9) -0.1120(6) -0.1271(3)
H94 H 1.4141 -0.1022 -0.1523
C119 C 1.4087(6) -0.1581(6) -0.0967(5)
C120 C 1.3567(10) -0.1723(4) -0.0598(4)
H95 H 1.3773 -0.2039 -0.039
C121 C 1.2763(12) -0.0307(6) -0.1556(5)
C122 C 1.258(2) 0.0112(10) -0.1331(7)
H96 H 1.2432 0.046 -0.1531
H97 H 1.3094 0.0076 -0.1199
H98 H 1.208 0.0068 -0.1119
C123 C 1.1905(14) -0.0342(11) -0.1677(8)
H99 H 1.1704 -0.0038 -0.1911
H100 H 1.1457 -0.0349 -0.1441
H101 H 1.2006 -0.0662 -0.1757
C124 C 1.3407(12) -0.0178(9) -0.1944(6)
H102 H 1.3142 0.0156 -0.2137
H103 H 1.354 -0.0455 -0.2078
H104 H 1.3948 -0.0153 -0.1864
C125 C 1.4974(10) -0.2003(7) -0.1038(5)
C126 C 1.5173(12) -0.2533(7) -0.0701(5)
H105 H 1.4701 -0.271 -0.0665
H106 H 1.5214 -0.2477 -0.0439
H107 H 1.5729 -0.2751 -0.0784
C127 C 1.4880(17) -0.2086(10) -0.1448(6)
H108 H 1.4758 -0.1747 -0.1661
H109 H 1.4396 -0.2254 -0.1409
H110 H 1.5425 -0.2309 -0.1535
C128 C 1.5714(15) -0.1723(7) -0.1099(7)
H111 H 1.558 -0.1386 -0.1313
H112 H 1.6268 -0.1939 -0.1186
H113 H 1.5765 -0.1667 -0.0838
C129 C 0.9651(11) -0.2942(6) 0.0324(4)
C130 C 1.0145(7) -0.3455(8) 0.0436(3)
H114 H 1.0649 -0.3542 0.0579
C131 C 0.9902(10) -0.3840(5) 0.0339(4)
C132 C 0.9165(11) -0.3712(7) 0.0130(4)
H115 H 0.8999 -0.3975 0.0063
C133 C 0.8670(7) -0.3199(8) 0.0018(3)
C134 C 0.8913(10) -0.2814(5) 0.0115(4)
H116 H 0.8575 -0.2464 0.0038
C135 C 1.0448(12) -0.4396(6) 0.0454(6)
C136 C 1.1143(16) -0.4483(9) 0.0744(7)
H117 H 1.1474 -0.4849 0.0812
H118 H 1.0853 -0.4401 0.0999
H119 H 1.1543 -0.4255 0.0606
C137 C 1.0901(15) -0.4514(10) 0.0048(5)
H120 H 1.1264 -0.4872 0.0112
H121 H 1.1271 -0.4269 -0.0096
H122 H 1.0457 -0.4476 -0.013
C138 C 0.9821(14) -0.4759(10) 0.0665(8)
H123 H 1.016 -0.5122 0.0747
H124 H 0.9407 -0.4719 0.0472
H125 H 0.9499 -0.4665 0.0911
C139 C 0.7839(9) -0.3026(7) -0.0266(4)
C140 C 0.7405(13) -0.3492(6) -0.0126(5)
H126 H 0.7174 -0.3549 0.0165
H127 H 0.784 -0.3806 -0.0159
H128 H 0.6925 -0.3416 -0.0296
C141 C 0.8194(12) -0.2925(9) -0.0725(5)
H129 H 0.8602 -0.3244 -0.0766
H130 H 0.8501 -0.2643 -0.0805
H131 H 0.7706 -0.2824 -0.0895
C142 C 0.7172(13) -0.2535(7) -0.0197(6)
H132 H 0.6974 -0.2598 0.0098
H133 H 0.6668 -0.2455 -0.0354
H134 H 0.7449 -0.2239 -0.0293
C143 C 0.8682(9) -0.2000(4) 0.2021(3)
C144 C 0.7773(9) -0.1855(4) 0.2038(3)
H135 H 0.7493 -0.1652 0.1794
C145 C 0.7273(6) -0.2008(5) 0.2411(5)
C146 C 0.7681(9) -0.2306(5) 0.2768(3)
H136 H 0.734 -0.241 0.3023
C147 C 0.8590(10) -0.2451(4) 0.2751(3)
C148 C 0.9090(6) -0.2298(4) 0.2378(5)
H137 H 0.9711 -0.2396 0.2366
C149 C 0.6279(12) -0.1853(8) 0.2430(5)
C150 C 0.5927(16) -0.1980(11) 0.2095(9)
H138 H 0.5286 -0.1872 0.212
H139 H 0.6115 -0.2356 0.2131
H140 H 0.6157 -0.1791 0.182
C151 C 0.6021(13) -0.1258(8) 0.2364(7)
H141 H 0.5382 -0.1135 0.2377
H142 H 0.6281 -0.1081 0.2093
H143 H 0.6237 -0.1182 0.2582
C152 C 0.5839(15) -0.2134(8) 0.2847(7)
H144 H 0.5201 -0.2018 0.2844
H145 H 0.6014 -0.205 0.3071
H146 H 0.6021 -0.2512 0.2891
C153 C 0.8960(17) -0.2741(11) 0.3186(7)
C154 C 0.8518(16) -0.3203(9) 0.3422(7)
H147 H 0.7894 -0.3065 0.3492
H148 H 0.8799 -0.3408 0.3676
H149 H 0.8583 -0.3428 0.3245
C155 C 0.8885(17) -0.2369(9) 0.3447(7)
H150 H 0.8269 -0.2191 0.3491
H151 H 0.9227 -0.211 0.33
H152 H 0.9111 -0.2572 0.3715
C156 C 0.9916(16) -0.3027(8) 0.3111(5)
H153 H 1.026 -0.2772 0.2955
H154 H 0.9947 -0.3267 0.2952
H155 H 1.0153 -0.3225 0.3377
N17 N 0.7714(9) 0.1114(7) 0.5042(5)
C157 C 0.7752(11) 0.1598(9) 0.4866(7)
C158 C 0.7798(10) 0.1730(7) 0.4410(5)
H156 H 0.7739 0.1498 0.4272
C159 C 0.7807(11) 0.1931(9) 0.5053(6)
C160 C 0.7672(13) 0.1751(9) 0.5509(7)
H157 H 0.7596 0.199 0.5663
C161 C 0.7657(13) 0.1243(10) 0.5710(7)
H158 H 0.764 0.1105 0.6003
C162 C 0.7670(12) 0.0938(9) 0.5453(8)
C163 C 0.7688(12) 0.0398(10) 0.5650(6)
N18 N 0.7937(9) 0.0057(6) 0.5402(4)
C164 C 0.7956(10) -0.0425(8) 0.5536(5)
H159 H 0.8158 -0.0641 0.5358
C165 C 0.7674(11) -0.0635(7) 0.5950(7)
C166 C 0.7426(11) -0.0352(8) 0.6236(5)
H160 H 0.727 -0.0515 0.6519
C167 C 0.7415(12) 0.0189(8) 0.6087(5)
H161 H 0.7238 0.0405 0.6266
C168 C 0.7723(8) -0.1187(5) 0.6121(5)
N19 N 0.7882(8) -0.1495(7) 0.6534(4)
N20 N 0.7782(8) -0.2003(6) 0.6585(4)
N21 N 0.7560(8) -0.2008(6) 0.6204(5)
C169 C 0.7524(8) -0.1504(7) 0.5918(3)
H162 H 0.7391 -0.1398 0.5639
C170 C 0.7386(15) -0.2486(8) 0.6200(6)
H163 H 0.7604 -0.2773 0.6445
H164 H 0.7697 -0.258 0.5949
C171 C 0.6426(14) -0.2416(9) 0.6202(6)
H165 H 0.6218 -0.2171 0.5937
H166 H 0.6102 -0.2276 0.643
C172 C 0.6279(14) -0.2968(9) 0.6264(7)
H167 H 0.5653 -0.2954 0.6267
H168 H 0.6624 -0.3123 0.6046
O14 O 0.6598(9) -0.3254(6) 0.6668(5)
C173 C 0.6279(9) -0.3702(5) 0.6858(5)
C174 C 0.6452(8) -0.3932(7) 0.7269(6)
H169 H 0.6778 -0.3789 0.739
C175 C 0.6150(9) -0.4371(7) 0.7504(3)
H170 H 0.6269 -0.4528 0.7786
C176 C 0.5674(9) -0.4580(5) 0.7328(5)
C177 C 0.5501(7) -0.4350(6) 0.6917(5)
H171 H 0.5175 -0.4493 0.6796
C178 C 0.5803(9) -0.3911(6) 0.6681(3)
H172 H 0.5684 -0.3754 0.64
C179 C 0.5308(13) -0.5072(7) 0.7637(6)
C180 C 0.4515(14) -0.4889(10) 0.7954(6)
C181 C 0.4364(13) -0.4390(8) 0.8003(5)
H173 H 0.4662 -0.4134 0.783
C182 C 0.3724(16) -0.4301(9) 0.8336(8)
H174 H 0.3553 -0.3957 0.8361
C183 C 0.3348(16) -0.4653(11) 0.8612(7)
C184 C 0.3476(14) -0.5136(9) 0.8532(6)
H175 H 0.3158 -0.5384 0.8702
C185 C 0.4066(13) -0.5250(8) 0.8205(7)
H176 H 0.4159 -0.5577 0.8156
C186 C 0.275(2) -0.4557(11) 0.8954(8)
C187 C 0.2732(19) -0.4062(11) 0.9053(8)
H177 H 0.3323 -0.4066 0.9097
H178 H 0.2337 -0.4041 0.9303
H179 H 0.2523 -0.3757 0.8821
C188 C 0.1820(17) -0.4451(13) 0.8909(8)
H180 H 0.1475 -0.4378 0.9158
H181 H 0.1694 -0.4756 0.8871
H182 H 0.1666 -0.4148 0.8668
C189 C 0.2943(19) -0.4993(10) 0.9334(7)
H183 H 0.3553 -0.5052 0.9385
H184 H 0.2852 -0.531 0.9301
H185 H 0.2553 -0.4907 0.9569
C190 C 0.6107(9) -0.5449(5) 0.7861(5)
C191 C 0.6075(9) -0.5679(6) 0.8287(5)
H186 H 0.5575 -0.5566 0.846
C192 C 0.6774(12) -0.6073(6) 0.8460(3)
H187 H 0.6752 -0.623 0.8751
C193 C 0.7505(9) -0.6238(5) 0.8207(5)
C194 C 0.7537(8) -0.6009(6) 0.7781(5)
H188 H 0.8037 -0.6122 0.7608
C195 C 0.6838(11) -0.5614(6) 0.7608(3)
H189 H 0.686 -0.5457 0.7317
C196 C 0.8243(15) -0.6733(11) 0.8430(7)
C197 C 0.8593(13) -0.6500(8) 0.8714(6)
H190 H 0.8772 -0.6181 0.8545
H191 H 0.9097 -0.6757 0.8846
H192 H 0.8128 -0.642 0.8928
C198 C 0.7950(14) -0.7232(9) 0.8684(7)
H193 H 0.7768 -0.7378 0.8498
H194 H 0.7456 -0.715 0.8885
H195 H 0.8437 -0.7487 0.883
C199 C 0.9025(16) -0.6850(9) 0.8096(7)
H196 H 0.9188 -0.6524 0.793
H197 H 0.8843 -0.7003 0.7915
H198 H 0.9528 -0.7096 0.8235
C200 C 0.4873(11) -0.5261(7) 0.7355(3)
C201 C 0.5282(7) -0.5745(6) 0.7295(4)
H199 H 0.581 -0.5943 0.7415
C202 C 0.4918(11) -0.5940(4) 0.7058(5)
H200 H 0.5197 -0.6271 0.7017
C203 C 0.4145(11) -0.5651(7) 0.6881(4)
C204 C 0.3737(7) -0.5167(6) 0.6941(4)
H201 H 0.3209 -0.4969 0.682
C205 C 0.4101(10) -0.4972(4) 0.7178(4)
H202 H 0.3822 -0.4641 0.7219
C206 C 0.378(2) -0.5865(14) 0.6617(10)
C207 C 0.3274(18) -0.5413(11) 0.6256(9)
H203 H 0.2991 -0.5565 0.6111
H204 H 0.3692 -0.5232 0.6061
H205 H 0.2828 -0.5164 0.6375
C208 C 0.427(2) -0.6258(12) 0.6459(8)
H206 H 0.3915 -0.633 0.6289
H207 H 0.4455 -0.6574 0.6687
H208 H 0.4783 -0.6152 0.6289
C209 C 0.292(2) -0.5963(15) 0.6873(11)
H209 H 0.2599 -0.6084 0.6721
H210 H 0.256 -0.5638 0.6925
H211 H 0.305 -0.623 0.7138
N22 N 0.8186(9) 0.3039(8) 0.4171(4)
C210 C 0.8011(11) 0.2571(9) 0.4391(7)
C211 C 0.7931(9) 0.2208(9) 0.4210(5)
H212 H 0.7976 0.2309 0.3916
C212 C 0.7929(11) 0.2449(10) 0.4843(6)
C213 C 0.7984(13) 0.2795(8) 0.5013(6)
H213 H 0.798 0.2705 0.5305
C214 C 0.8043(12) 0.3262(8) 0.4782(7)
H214 H 0.798 0.3531 0.4905
C215 C 0.8205(12) 0.3365(9) 0.4344(7)
C216 C 0.8407(13) 0.3879(10) 0.4040(8)
N23 N 0.8421(10) 0.3926(7) 0.3652(5)
C217 C 0.8662(14) 0.4354(10) 0.3401(7)
H215 H 0.8627 0.4426 0.3113
C218 C 0.8951(15) 0.4695(9) 0.3513(7)
C219 C 0.8943(13) 0.4633(8) 0.3934(7)
H216 H 0.9106 0.4881 0.4021
C220 C 0.8685(13) 0.4190(9) 0.4233(7)
H217 H 0.8695 0.4111 0.4523
C221 C 0.9200(14) 0.5135(6) 0.3203(6)
N24 N 0.9759(12) 0.5432(9) 0.3238(6)
N25 N 0.9761(12) 0.5855(7) 0.2869(7)
N26 N 0.9203(14) 0.5819(7) 0.2606(4)
C222 C 0.8856(11) 0.5375(9) 0.2812(7)
H218 H 0.8464 0.5258 0.2708
C223 C 0.890(2) 0.6283(10) 0.2200(8)
H219 H 0.8263 0.6369 0.2187
H220 H 0.9087 0.6602 0.218
C224 C 0.9384(19) 0.6041(11) 0.1882(8)
H221 H 0.9485 0.6328 0.1632
H222 H 0.9966 0.5844 0.1979
C225 C 0.905(2) 0.5692(12) 0.1749(9)
H223 H 0.911 0.5792 0.1443
H224 H 0.94 0.5329 0.1854
O15 O 0.8195(15) 0.5721(8) 0.1897(6)
C226 C 0.7599(11) 0.6173(6) 0.1673(7)
C227 C 0.6839(15) 0.6321(7) 0.1917(4)
H225 H 0.6819 0.6187 0.221
C228 C 0.6106(11) 0.6666(7) 0.1732(6)
H226 H 0.5586 0.6767 0.1899
C229 C 0.6134(11) 0.6862(5) 0.1304(6)
C230 C 0.6895(15) 0.6714(6) 0.1060(4)
H227 H 0.6914 0.6848 0.0767
C231 C 0.7627(10) 0.6369(7) 0.1244(6)
H228 H 0.8147 0.6268 0.1078
C232 C 0.5251(15) 0.7227(8) 0.1114(6)
C233 C 0.5597(13) 0.7710(6) 0.0827(7)
C234 C 0.5359(10) 0.7975(10) 0.0429(8)
H229 H 0.5006 0.7847 0.031
C235 C 0.5637(14) 0.8426(9) 0.0204(4)
H230 H 0.5475 0.8606 -0.0069
C236 C 0.6154(14) 0.8613(6) 0.0378(7)
C237 C 0.6392(11) 0.8348(9) 0.0777(8)
H231 H 0.6744 0.8476 0.0895
C238 C 0.6113(13) 0.7897(8) 0.1001(4)
H232 H 0.6276 0.7717 0.1274
C239 C 0.678(3) 0.9008(17) 0.0152(14)
C240 C 0.648(2) 0.9221(12) -0.0320(9)
H233 H 0.6789 0.9487 -0.0491
H234 H 0.5846 0.9374 -0.0313
H235 H 0.6621 0.893 -0.0439
C241 C 0.622(3) 0.9543(14) 0.0265(12)
H236 H 0.6497 0.9831 0.0106
H237 H 0.6221 0.949 0.0562
H238 H 0.562 0.9627 0.0196
C242 C 0.783(3) 0.8906(15) 0.0131(12)
H239 H 0.8015 0.922 -0.0049
H240 H 0.8113 0.8612 0.0019
H241 H 0.8002 0.8825 0.041
C243 C 0.4895(11) 0.6956(7) 0.0879(4)
C244 C 0.5288(8) 0.6453(7) 0.0858(4)
H242 H 0.5786 0.6254 0.1002
C245 C 0.4952(11) 0.6240(5) 0.0624(5)
H243 H 0.522 0.5896 0.0609
C246 C 0.4222(11) 0.6531(7) 0.0412(4)
C247 C 0.3829(8) 0.7035(7) 0.0434(4)
H244 H 0.3331 0.7233 0.0289
C248 C 0.4165(11) 0.7247(5) 0.0667(5)
H245 H 0.3897 0.7591 0.0682
C249 C 0.3796(17) 0.6277(13) 0.0174(8)
C250 C 0.2985(15) 0.6637(11) -0.0041(8)
H246 H 0.3118 0.697 -0.021
H247 H 0.2497 0.6699 0.0168
H248 H 0.2823 0.6471 -0.0218
C251 C 0.3541(17) 0.5725(11) 0.0451(8)
H249 H 0.3118 0.5782 0.0686
H250 H 0.407 0.5465 0.0554
H251 H 0.3281 0.5596 0.0279
C252 C 0.4537(16) 0.6168(10) -0.0197(8)
H252 H 0.4736 0.6487 -0.0347
H253 H 0.4289 0.6061 -0.0387
H254 H 0.5035 0.5889 -0.008
C253 C 0.4558(8) 0.7350(7) 0.1445(4)
C254 C 0.4145(10) 0.6967(5) 0.1705(5)
H255 H 0.4295 0.6629 0.1669
C255 C 0.3514(9) 0.7079(6) 0.2019(4)
H256 H 0.3232 0.6817 0.2197
C256 C 0.3295(7) 0.7573(7) 0.2072(4)
C257 C 0.3707(10) 0.7956(5) 0.1812(5)
H257 H 0.3557 0.8294 0.1849
C258 C 0.4339(10) 0.7844(6) 0.1498(4)
H258 H 0.4621 0.8106 0.1321
C259 C 0.2612(15) 0.7659(10) 0.2473(6)
C260 C 0.2298(11) 0.7175(7) 0.2752(5)
H259 H 0.2795 0.6909 0.2882
H260 H 0.2047 0.7034 0.2585
H261 H 0.1852 0.7271 0.2967
C261 C 0.1773(13) 0.8032(8) 0.2303(6)
H262 H 0.1906 0.8357 0.2114
H263 H 0.1352 0.811 0.2532
H264 H 0.1521 0.787 0.2153
C262 C 0.3162(13) 0.7835(8) 0.2726(5)
H265 H 0.3363 0.8144 0.2546
H266 H 0.367 0.755 0.282
H267 H 0.2791 0.792 0.2965
Cu2A Cu 0.82804(16) 0.33170(10) 0.35361(6)
C1A C 1.3746(11) 0.0020(9) -0.4983(6)
C2A C 1.4052(11) 0.0404(8) -0.5292(5)
H1A H 1.3946 0.0741 -0.5257
C3A C 1.4509(11) 0.0315(9) -0.5650(5)
H2A H 1.4743 0.0574 -0.5863
C4A C 1.4603(13) -0.0200(12) -0.5679(6)
C5A C 1.4343(14) -0.0611(10) -0.5330(9)
H3A H 1.4472 -0.0961 -0.5341
C6A C 1.3923(10) -0.0483(9) -0.5001(5)
H4A H 1.3739 -0.0743 -0.4771
O2A O 1.5091(10) -0.0309(8) -0.6040(6)
C7A C 1.508(2) 0.0150(8) -0.6398(7)
H5A H 1.4617 0.0439 -0.6329
H6A H 1.5644 0.0245 -0.6426
C8A C 1.494(2) 0.0148(9) -0.6830(7)
H7A H 1.5174 0.0412 -0.7061
H8A H 1.432 0.0173 -0.6861
O3A O 1.5489(13) -0.0378(11) -0.6764(9)
C9A C 1.503(3) -0.0792(10) -0.6613(14)
H9A H 1.4533 -0.0594 -0.6785
H10A H 1.5417 -0.1006 -0.6784
C10A C 1.456(2) -0.1229(15) -0.6356(10)
H11A H 1.4288 -0.1192 -0.6082
H12A H 1.4931 -0.1586 -0.6332
O4A O 1.3954(19) -0.1044(13) -0.6670(8)
C11A C 1.3285(14) -0.1330(8) -0.6597(11)
H13A H 1.3552 -0.1678 -0.6638
H14A H 1.3017 -0.1383 -0.6307
C12A C 1.2574(14) -0.1026(10) -0.6896(6)
H15A H 1.2652 -0.119 -0.712
H16A H 1.2633 -0.0662 -0.7024
O5A O 1.1713(12) -0.1026(7) -0.6678(7)
C13A C 1.1443(16) -0.1512(7) -0.6566(7)
H17A H 1.1389 -0.1592 -0.6819
H18A H 1.1887 -0.1801 -0.6407
C14A C 1.0552(10) -0.1462(7) -0.6300(7)
H19A H 1.0071 -0.1304 -0.6483
H20A H 1.0514 -0.123 -0.6129
O6A O 1.0460(12) -0.1972(7) -0.6034(5)
C15A C 0.9575(12) -0.1891(12) -0.5832(7)
H21A H 0.9249 -0.1529 -0.596
H22A H 0.9275 -0.2132 -0.5876
C16A C 0.9554(17) -0.1981(8) -0.5363(6)
H23A H 1.0079 -0.2231 -0.5238
H24A H 0.9009 -0.2065 -0.5201
O7A O 0.9572(10) -0.1441(7) -0.5460(4)
C17A C 0.9791(12) -0.1318(10) -0.5126(7)
C18A C 0.9709(11) -0.1620(8) -0.4695(7)
H25A H 0.9542 -0.1942 -0.461
C19A C 0.9887(12) -0.1413(8) -0.4420(6)
H26A H 0.9813 -0.1596 -0.4134
C20A C 1.0167(11) -0.0956(9) -0.4526(8)
C21A C 1.0259(10) -0.0699(7) -0.4944(6)
H27A H 1.0463 -0.0388 -0.5032
C22A C 1.0069(11) -0.0873(9) -0.5233(6)
H28A H 1.0133 -0.068 -0.5517
C23A C 1.0358(14) -0.0747(8) -0.4218(7)
N1A N 1.0983(10) -0.0523(6) -0.4325(4)
C24A C 1.1155(13) -0.0308(6) -0.4060(6)
C25A C 1.0601(13) -0.0280(7) -0.3691(5)
C26A C 0.9943(12) -0.0532(7) -0.3564(5)
H29A H 0.9592 -0.0545 -0.3308
C27A C 0.9831(10) -0.0772(6) -0.3846(5)
H30A H 0.9382 -0.0956 -0.3781
C28A C 1.0815(14) 0.0006(7) -0.3401(6)
C29A C 1.1500(14) 0.0264(7) -0.3538(6)
C30A C 1.2080(14) 0.0259(7) -0.3913(6)
C31A C 1.1924(12) -0.0030(7) -0.4170(6)
N2A N 1.2462(10) -0.0138(5) -0.4508(4)
C32A C 1.3148(13) 0.0079(7) -0.4620(5)
C33A C 1.3278(12) 0.0445(7) -0.4429(6)
H31A H 1.3728 0.0629 -0.4538
C34A C 1.2707(12) 0.0518(7) -0.4074(6)
H32A H 1.2775 0.0758 -0.3947
N3A N 1.1655(9) 0.0555(6) -0.3349(4)
N4A N 1.0267(9) 0.0009(5) -0.3066(5)
C35A C 1.1098(13) 0.0598(7) -0.2963(6)
C36A C 1.0442(13) 0.0275(8) -0.2828(6)
C37A C 1.1233(10) 0.0872(6) -0.2758(5)
H33A H 1.1683 0.1057 -0.2837
C38A C 0.9921(12) 0.0296(7) -0.2467(6)
H34A H 0.9507 0.0086 -0.2374
C39A C 1.0623(15) 0.0870(8) -0.2392(6)
C40A C 0.9960(12) 0.0584(8) -0.2246(6)
N5A N 1.0808(8) 0.1214(5) -0.2202(4)
N6A N 0.9520(8) 0.0633(5) -0.1883(4)
C41A C 0.9664(13) 0.0914(7) -0.1691(5)
C42A C 1.0261(13) 0.1234(7) -0.1855(6)
C43A C 1.0225(13) 0.1533(7) -0.1554(6)
N7A N 0.9610(9) 0.1371(6) -0.1246(4)
C44A C 0.9235(13) 0.1006(7) -0.1294(6)
C45A C 0.8591(12) 0.0814(7) -0.1031(6)
C46A C 0.8149(14) 0.0975(7) -0.0666(6)
N8A N 0.8361(8) 0.1285(5) -0.0520(4)
C47A C 0.7823(12) 0.1277(8) -0.0145(5)
C48A C 0.7233(12) 0.0958(7) -0.0100(5)
H35A H 0.6781 0.0902 0.0119
C49A C 0.7426(13) 0.0742(7) -0.0429(6)
H36A H 0.7161 0.0509 -0.0485
C50A C 0.7855(12) 0.1552(8) 0.0123(5)
C51A C 0.8379(15) 0.1892(8) 0.0089(6)
N9A N 0.9012(12) 0.1986(6) -0.0199(4)
C52A C 0.9451(14) 0.2300(8) -0.0162(6)
C53A C 1.0096(14) 0.2527(8) -0.0385(6)
C54A C 1.0470(13) 0.2423(7) -0.0757(7)
N10A N 1.0274(9) 0.2087(5) -0.0961(4)
C55A C 1.0837(12) 0.2099(7) -0.1352(6)
C56A C 1.1383(12) 0.2440(7) -0.1385(5)
H37A H 1.1821 0.2519 -0.1607
C57A C 1.1181(13) 0.2650(7) -0.1036(6)
H38A H 1.1452 0.2889 -0.0993
C58A C 1.0788(12) 0.1862(7) -0.1637(6)
C59A C 0.9101(14) 0.2409(7) 0.0252(6)
C60A C 0.8400(14) 0.2164(7) 0.0400(6)
N11A N 0.7930(9) 0.2118(5) 0.0767(5)
N12A N 0.9400(8) 0.2631(5) 0.0452(4)
C61A C 0.8904(14) 0.2585(7) 0.0847(5)
C62A C 0.8149(14) 0.2391(8) 0.0977(6)
C63A C 0.9383(12) 0.2834(7) 0.1082(6)
C64A C 0.7763(11) 0.2429(6) 0.1380(6)
H39A H 0.7246 0.2308 0.1489
C65A C 0.8923(16) 0.2794(7) 0.1503(6)
C66A C 0.8103(16) 0.2635(8) 0.1622(7)
N13A N 0.7615(8) 0.2676(5) 0.1991(5)
N14A N 0.9336(10) 0.2917(5) 0.1752(5)
C67A C 0.7997(14) 0.2843(6) 0.2214(5)
C68A C 0.8860(16) 0.2898(7) 0.2100(6)
C69A C 0.9281(10) 0.3006(4) 0.2410(3)
C70A C 0.8797(7) 0.3062(4) 0.2778(4)
N15A N 0.9181(9) 0.3154(3) 0.3071(3)
C71A C 1.0049(9) 0.3189(4) 0.2997(4)
C72A C 1.0533(7) 0.3133(4) 0.2629(5)
H40A H 1.1126 0.3157 0.2578
C73A C 1.0149(9) 0.3042(4) 0.2336(3)
H41A H 1.048 0.3004 0.2084
C74A C 1.0455(8) 0.3266(5) 0.3325(4)
C75A C 1.0900(8) 0.3659(5) 0.3227(3)
H42A H 1.1029 0.3843 0.2946
C76A C 1.1155(8) 0.3784(4) 0.3541(4)
H43A H 1.1459 0.4053 0.3474
C77A C 1.0966(8) 0.3516(5) 0.3953(4)
C78A C 1.0521(8) 0.3123(5) 0.4051(3)
H44A H 1.0391 0.2939 0.4332
C79A C 1.0265(7) 0.2998(4) 0.3737(5)
H45A H 0.9961 0.2729 0.3804
O8A O 1.1194(10) 0.3678(7) 0.4264(5)
C80A C 1.1791(13) 0.3601(15) 0.4561(7)
H46A H 1.2357 0.3664 0.4409
H47A H 1.1901 0.3232 0.4734
C81A C 1.1467(19) 0.3954(12) 0.4847(11)
H48A H 1.1876 0.385 0.5061
H49A H 1.145 0.4321 0.4683
O9A O 1.0600(17) 0.3909(12) 0.5043(9)
C82A C 1.026(2) 0.3447(13) 0.5146(13)
H50A H 1.0657 0.3124 0.5297
H51A H 1.0074 0.3398 0.4904
C83A C 0.948(2) 0.3662(13) 0.5428(10)
H52A H 0.9713 0.3747 0.5639
H53A H 0.9127 0.3992 0.5258
O10A O 0.8901(19) 0.3319(8) 0.5640(8)
C84A C 0.8242(18) 0.3495(11) 0.5946(8)
H54A H 0.8217 0.3859 0.593
H55A H 0.8352 0.3266 0.623
C85A C 0.7396(16) 0.3453(10) 0.5816(7)
H56A H 0.69 0.3736 0.5872
H57A H 0.7465 0.3494 0.5516
O11A O 0.7215(12) 0.2950(7) 0.6046(7)
C86A C 0.6295(14) 0.2947(11) 0.6146(5)
H58A H 0.5956 0.3287 0.6186
H59A H 0.6217 0.2669 0.6407
C87A C 0.5952(12) 0.2852(10) 0.5793(9)
H60A H 0.6415 0.2847 0.5559
H61A H 0.58 0.2508 0.5892
O12A O 0.5186(18) 0.3261(7) 0.5655(6)
C88A C 0.4500(12) 0.3093(12) 0.5549(9)
H62A H 0.398 0.338 0.5463
H63A H 0.4326 0.2795 0.5768
C89A C 0.5088(19) 0.2933(8) 0.5183(7)
H64A H 0.5615 0.2661 0.5284
H65A H 0.4766 0.2787 0.5046
O13A O 0.5349(11) 0.3389(7) 0.4887(4)
N17A N 1.2286(9) -0.1114(7) -0.5042(5)
C157A C 1.2248(11) -0.1598(9) -0.4866(7)
C158A C 1.2202(10) -0.1730(7) -0.4410(5)
H156A H 1.2261 -0.1498 -0.4272
C159A C 1.2193(11) -0.1931(9) -0.5053(6)
C160A C 1.2328(13) -0.1751(9) -0.5509(7)
H157A H 1.2404 -0.199 -0.5663
C161A C 1.2343(13) -0.1243(10) -0.5710(7)
H158A H 1.236 -0.1105 -0.6003
C162A C 1.2330(12) -0.0938(9) -0.5453(8)
C163A C 1.2312(12) -0.0398(10) -0.5650(6)
N18A N 1.2063(9) -0.0057(6) -0.5402(4)
C164A C 1.2044(10) 0.0425(8) -0.5536(5)
H159A H 1.1842 0.0641 -0.5358
C165A C 1.2326(11) 0.0635(7) -0.5950(7)
C166A C 1.2574(11) 0.0352(8) -0.6236(5)
H160A H 1.273 0.0515 -0.6519
C167A C 1.2585(12) -0.0189(8) -0.6087(5)
H161A H 1.2762 -0.0405 -0.6266
C168A C 1.2277(8) 0.1187(5) -0.6121(5)
N19A N 1.2118(8) 0.1495(7) -0.6534(4)
N20A N 1.2218(8) 0.2003(6) -0.6585(4)
N21A N 1.2440(8) 0.2008(6) -0.6204(5)
C169A C 1.2476(8) 0.1504(7) -0.5918(3)
H162A H 1.2609 0.1398 -0.5639
C170A C 1.2614(15) 0.2486(8) -0.6200(6)
H163A H 1.2396 0.2773 -0.6445
H164A H 1.2303 0.258 -0.5949
C171A C 1.3574(14) 0.2416(9) -0.6202(6)
H165A H 1.3782 0.2171 -0.5937
H166A H 1.3898 0.2276 -0.643
C172A C 1.3721(14) 0.2968(9) -0.6264(7)
H167A H 1.4347 0.2954 -0.6267
H168A H 1.3376 0.3123 -0.6046
O14A O 1.3402(9) 0.3254(6) -0.6668(5)
C173A C 1.3721(9) 0.3702(5) -0.6858(5)
C174A C 1.3548(8) 0.3932(7) -0.7269(6)
H169A H 1.3222 0.3789 -0.739
C175A C 1.3850(9) 0.4371(7) -0.7504(3)
H170A H 1.3731 0.4528 -0.7786
C176A C 1.4326(9) 0.4580(5) -0.7328(5)
C177A C 1.4499(7) 0.4350(6) -0.6917(5)
H171A H 1.4825 0.4493 -0.6796
C178A C 1.4197(9) 0.3911(6) -0.6681(3)
H172A H 1.4316 0.3754 -0.64
C179A C 1.4692(13) 0.5072(7) -0.7637(6)
C180A C 1.5485(14) 0.4889(10) -0.7954(6)
C181A C 1.5636(13) 0.4390(8) -0.8003(5)
H173A H 1.5338 0.4134 -0.783
C182A C 1.6276(16) 0.4301(9) -0.8336(8)
H174A H 1.6447 0.3957 -0.8361
C183A C 1.6652(16) 0.4653(11) -0.8612(7)
C184A C 1.6524(14) 0.5136(9) -0.8532(6)
H175A H 1.6842 0.5384 -0.8702
C185A C 1.5934(13) 0.5250(8) -0.8205(7)
H176A H 1.5841 0.5577 -0.8156
C186A C 1.725(2) 0.4557(11) -0.8954(8)
C187A C 1.7268(19) 0.4062(11) -0.9053(8)
H177A H 1.6677 0.4066 -0.9097
H178A H 1.7663 0.4041 -0.9303
H179A H 1.7477 0.3757 -0.8821
C188A C 1.8180(17) 0.4451(13) -0.8909(8)
H180A H 1.8525 0.4378 -0.9158
H181A H 1.8306 0.4756 -0.8871
H182A H 1.8334 0.4148 -0.8668
C189A C 1.7057(19) 0.4993(10) -0.9334(7)
H183A H 1.6447 0.5052 -0.9385
H184A H 1.7148 0.531 -0.9301
H185A H 1.7447 0.4907 -0.9569
C190A C 1.3893(9) 0.5449(5) -0.7861(5)
C191A C 1.3925(9) 0.5679(6) -0.8287(5)
H186A H 1.4425 0.5566 -0.846
C192A C 1.3226(12) 0.6073(6) -0.8460(3)
H187A H 1.3248 0.623 -0.8751
C193A C 1.2495(9) 0.6238(5) -0.8207(5)
C194A C 1.2463(8) 0.6009(6) -0.7781(5)
H188A H 1.1963 0.6122 -0.7608
C195A C 1.3162(11) 0.5614(6) -0.7608(3)
H189A H 1.314 0.5457 -0.7317
C196A C 1.1757(15) 0.6733(11) -0.8430(7)
C197A C 1.1407(13) 0.6500(8) -0.8714(6)
H190A H 1.1228 0.6181 -0.8545
H191A H 1.0903 0.6757 -0.8846
H192A H 1.1872 0.642 -0.8928
C198A C 1.2050(14) 0.7232(9) -0.8684(7)
H193A H 1.2232 0.7378 -0.8498
H194A H 1.2544 0.715 -0.8885
H195A H 1.1563 0.7487 -0.883
C199A C 1.0975(16) 0.6850(9) -0.8096(7)
H196A H 1.0812 0.6524 -0.793
H197A H 1.1157 0.7003 -0.7915
H198A H 1.0472 0.7096 -0.8235
C200A C 1.5127(11) 0.5261(7) -0.7355(3)
C201A C 1.4718(7) 0.5745(6) -0.7295(4)
H199A H 1.419 0.5943 -0.7415
C202A C 1.5082(11) 0.5940(4) -0.7058(5)
H200A H 1.4803 0.6271 -0.7017
C203A C 1.5855(11) 0.5651(7) -0.6881(4)
C204A C 1.6263(7) 0.5167(6) -0.6941(4)
H201A H 1.6791 0.4969 -0.682
C205A C 1.5899(10) 0.4972(4) -0.7178(4)
H202A H 1.6178 0.4641 -0.7219
C206A C 1.622(2) 0.5865(14) -0.6617(10)
C207A C 1.6726(18) 0.5413(11) -0.6256(9)
H203A H 1.7009 0.5565 -0.6111
H204A H 1.6308 0.5232 -0.6061
H205A H 1.7172 0.5164 -0.6375
C208A C 1.573(2) 0.6258(12) -0.6459(8)
H206A H 1.6085 0.633 -0.6289
H207A H 1.5545 0.6574 -0.6687
H208A H 1.5217 0.6152 -0.6289
C209A C 1.708(2) 0.5963(15) -0.6873(11)
H209A H 1.7401 0.6084 -0.6721
H210A H 1.744 0.5638 -0.6925
H211A H 1.695 0.623 -0.7138
N22A N 1.1814(9) -0.3039(8) -0.4171(4)
C210A C 1.1989(11) -0.2571(9) -0.4391(7)
C211A C 1.2069(9) -0.2208(9) -0.4210(5)
H212A H 1.2024 -0.2309 -0.3916
C212A C 1.2071(11) -0.2449(10) -0.4843(6)
C213A C 1.2016(13) -0.2795(8) -0.5013(6)
H213A H 1.202 -0.2705 -0.5305
C214A C 1.1957(12) -0.3262(8) -0.4782(7)
H214A H 1.202 -0.3531 -0.4905
C215A C 1.1795(12) -0.3365(9) -0.4344(7)
C216A C 1.1593(13) -0.3879(10) -0.4040(8)
N23A N 1.1579(10) -0.3926(7) -0.3652(5)
C217A C 1.1338(14) -0.4354(10) -0.3401(7)
H215A H 1.1373 -0.4426 -0.3113
C218A C 1.1049(15) -0.4695(9) -0.3513(7)
C219A C 1.1057(13) -0.4633(8) -0.3934(7)
H216A H 1.0894 -0.4881 -0.4021
C220A C 1.1315(13) -0.4190(9) -0.4233(7)
H217A H 1.1305 -0.4111 -0.4523
C221A C 1.0800(14) -0.5135(6) -0.3203(6)
N24A N 1.0241(12) -0.5432(9) -0.3238(6)
N25A N 1.0239(12) -0.5855(7) -0.2869(7)
N26A N 1.0797(14) -0.5819(7) -0.2606(4)
C222A C 1.1144(11) -0.5375(9) -0.2812(7)
H218A H 1.1536 -0.5258 -0.2708
C223A C 1.110(2) -0.6283(10) -0.2200(8)
H219A H 1.1737 -0.6369 -0.2187
H220A H 1.0913 -0.6602 -0.218
C224A C 1.0616(19) -0.6041(11) -0.1882(8)
H221A H 1.0515 -0.6328 -0.1632
H222A H 1.0034 -0.5844 -0.1979
C225A C 1.095(2) -0.5692(12) -0.1749(9)
H223A H 1.089 -0.5792 -0.1443
H224A H 1.06 -0.5329 -0.1854
O15A O 1.1805(15) -0.5721(8) -0.1897(6)
C226A C 1.2401(11) -0.6173(6) -0.1673(7)
C227A C 1.3161(15) -0.6321(7) -0.1917(4)
H225A H 1.3181 -0.6187 -0.221
C228A C 1.3894(11) -0.6666(7) -0.1732(6)
H226A H 1.4414 -0.6767 -0.1899
C229A C 1.3866(11) -0.6862(5) -0.1304(6)
C230A C 1.3105(15) -0.6714(6) -0.1060(4)
H227A H 1.3086 -0.6848 -0.0767
C231A C 1.2373(10) -0.6369(7) -0.1244(6)
H228A H 1.1853 -0.6268 -0.1078
C232A C 1.4749(15) -0.7227(8) -0.1114(6)
C233A C 1.4403(13) -0.7710(6) -0.0827(7)
C234A C 1.4641(10) -0.7975(10) -0.0429(8)
H229A H 1.4994 -0.7847 -0.031
C235A C 1.4363(14) -0.8426(9) -0.0204(4)
H230A H 1.4525 -0.8606 0.0069
C236A C 1.3846(14) -0.8613(6) -0.0378(7)
C237A C 1.3608(11) -0.8348(9) -0.0777(8)
H231A H 1.3256 -0.8476 -0.0895
C238A C 1.3887(13) -0.7897(8) -0.1001(4)
H232A H 1.3724 -0.7717 -0.1274
C239A C 1.322(3) -0.9008(17) -0.0152(14)
C240A C 1.352(2) -0.9221(12) 0.0320(9)
H233A H 1.3211 -0.9487 0.0491
H234A H 1.4154 -0.9374 0.0313
H235A H 1.3379 -0.893 0.0439
C241A C 1.378(3) -0.9543(14) -0.0265(12)
H236A H 1.3503 -0.9831 -0.0106
H237A H 1.3779 -0.949 -0.0562
H238A H 1.438 -0.9627 -0.0196
C242A C 1.217(3) -0.8906(15) -0.0131(12)
H239A H 1.1985 -0.922 0.0049
H240A H 1.1887 -0.8612 -0.0019
H241A H 1.1998 -0.8825 -0.041
C243A C 1.5105(11) -0.6956(7) -0.0879(4)
C244A C 1.4712(8) -0.6453(7) -0.0858(4)
H242A H 1.4214 -0.6254 -0.1002
C245A C 1.5048(11) -0.6240(5) -0.0624(5)
H243A H 1.478 -0.5896 -0.0609
C246A C 1.5778(11) -0.6531(7) -0.0412(4)
C247A C 1.6171(8) -0.7035(7) -0.0434(4)
H244A H 1.6669 -0.7233 -0.0289
C248A C 1.5835(11) -0.7247(5) -0.0667(5)
H245A H 1.6103 -0.7591 -0.0682
C249A C 1.6204(17) -0.6277(13) -0.0174(8)
C250A C 1.7015(15) -0.6637(11) 0.0041(8)
H246A H 1.6882 -0.697 0.021
H247A H 1.7503 -0.6699 -0.0168
H248A H 1.7177 -0.6471 0.0218
C251A C 1.6459(17) -0.5725(11) -0.0451(8)
H249A H 1.6882 -0.5782 -0.0686
H250A H 1.593 -0.5465 -0.0554
H251A H 1.6719 -0.5596 -0.0279
C252A C 1.5463(16) -0.6168(10) 0.0197(8)
H252A H 1.5264 -0.6487 0.0347
H253A H 1.5711 -0.6061 0.0387
H254A H 1.4965 -0.5889 0.008
C253A C 1.5442(8) -0.7350(7) -0.1445(4)
C254A C 1.5855(10) -0.6967(5) -0.1705(5)
H255A H 1.5705 -0.6629 -0.1669
C255A C 1.6486(9) -0.7079(6) -0.2019(4)
H256A H 1.6768 -0.6817 -0.2197
C256A C 1.6705(7) -0.7573(7) -0.2072(4)
C257A C 1.6293(10) -0.7956(5) -0.1812(5)
H257A H 1.6443 -0.8294 -0.1849
C258A C 1.5661(10) -0.7844(6) -0.1498(4)
H258A H 1.5379 -0.8106 -0.1321
C259A C 1.7388(15) -0.7659(10) -0.2473(6)
C260A C 1.7702(11) -0.7175(7) -0.2752(5)
H259A H 1.7205 -0.6909 -0.2882
H260A H 1.7953 -0.7034 -0.2585
H261A H 1.8148 -0.7271 -0.2967
C261A C 1.8227(13) -0.8032(8) -0.2303(6)
H262A H 1.8094 -0.8357 -0.2114
H263A H 1.8648 -0.811 -0.2532
H264A H 1.8479 -0.787 -0.2153
C262A C 1.6838(13) -0.7835(8) -0.2726(5)
H265A H 1.6637 -0.8144 -0.2546
H266A H 1.633 -0.755 -0.282
H267A H 1.7209 -0.792 -0.2965
loop_
_geom_bond_atom_site_label_1
_geom_bond_atom_site_label_2
_geom_bond_site_symmetry_1
_geom_bond_site_symmetry_2
Cu1 N1 1_555 1_555
Cu2 N15 1_555 1_555
Zn1 N7 1_555 1_555
P1 F1 1_555 1_555
F2 P1 1_555 1_555
F3 P1 1_555 1_555
F4 P1 1_555 1_555
F5 P1 1_555 1_555
F6 P1 1_555 1_555
P2 F7 1_555 1_555
F8 P2 1_555 1_555
F9 P2 1_555 1_555
F10 P2 1_555 1_555
F11 P2 1_555 1_555
F12 P2 1_555 1_555
C1 C2 1_555 1_555
C2 H1 1_555 1_555
C3 C2 1_555 1_555
H2 C3 1_555 1_555
C4 C3 1_555 1_555
C5 C4 1_555 1_555
H3 C5 1_555 1_555
C6 C1 1_555 1_555
H4 C6 1_555 1_555
O2 C4 1_555 1_555
C7 O2 1_555 1_555
H5 C7 1_555 1_555
H6 C7 1_555 1_555
C8 C7 1_555 1_555
H7 C8 1_555 1_555
H8 C8 1_555 1_555
O3 C8 1_555 1_555
C9 O3 1_555 1_555
H9 C9 1_555 1_555
H10 C9 1_555 1_555
C10 C9 1_555 1_555
H11 C10 1_555 1_555
H12 C10 1_555 1_555
O4 C10 1_555 1_555
C11 O4 1_555 1_555
H13 C11 1_555 1_555
H14 C11 1_555 1_555
C12 C11 1_555 1_555
H15 C12 1_555 1_555
H16 C12 1_555 1_555
O5 C12 1_555 1_555
C13 O5 1_555 1_555
H17 C13 1_555 1_555
H18 C13 1_555 1_555
C14 C13 1_555 1_555
H19 C14 1_555 1_555
H20 C14 1_555 1_555
O6 C14 1_555 1_555
C15 O6 1_555 1_555
H21 C15 1_555 1_555
H22 C15 1_555 1_555
C16 C15 1_555 1_555
H23 C16 1_555 1_555
H24 C16 1_555 1_555
O7 C16 1_555 1_555
C17 O7 1_555 1_555
C18 C17 1_555 1_555
H25 C18 1_555 1_555
C19 C18 1_555 1_555
H26 C19 1_555 1_555
C20 C19 1_555 1_555
C21 C20 1_555 1_555
H27 C21 1_555 1_555
C22 C17 1_555 1_555
H28 C22 1_555 1_555
C23 C20 1_555 1_555
N1 C23 1_555 1_555
C24 N1 1_555 1_555
C25 C24 1_555 1_555
C26 C25 1_555 1_555
H29 C26 1_555 1_555
C27 C23 1_555 1_555
H30 C27 1_555 1_555
C28 C25 1_555 1_555
C29 C28 1_555 1_555
C30 C29 1_555 1_555
C31 C24 1_555 1_555
N2 Cu1 1_555 1_555
C32 C1 1_555 1_555
C33 C32 1_555 1_555
H31 C33 1_555 1_555
C34 C30 1_555 1_555
H32 C34 1_555 1_555
N3 C29 1_555 1_555
N4 C28 1_555 1_555
C35 N3 1_555 1_555
C36 N4 1_555 1_555
C37 C35 1_555 1_555
H33 C37 1_555 1_555
C38 C36 1_555 1_555
H34 C38 1_555 1_555
C39 C37 1_555 1_555
C40 C38 1_555 1_555
N5 C39 1_555 1_555
N6 C40 1_555 1_555
C41 N6 1_555 1_555
C42 N5 1_555 1_555
C43 C42 1_555 1_555
N7 C43 1_555 1_555
C44 C41 1_555 1_555
C45 C44 1_555 1_555
C46 C45 1_555 1_555
N8 Zn1 1_555 1_555
C47 N8 1_555 1_555
C48 C47 1_555 1_555
H35 C48 1_555 1_555
C49 C46 1_555 1_555
H36 C49 1_555 1_555
C50 C47 1_555 1_555
C51 C50 1_555 1_555
N9 Zn1 1_555 1_555
C52 N9 1_555 1_555
C53 C52 1_555 1_555
C54 C53 1_555 1_555
N10 Zn1 1_555 1_555
C55 N10 1_555 1_555
C56 C55 1_555 1_555
H37 C56 1_555 1_555
C57 C54 1_555 1_555
H38 C57 1_555 1_555
C58 C43 1_555 1_555
C59 C52 1_555 1_555
C60 C51 1_555 1_555
N11 C60 1_555 1_555
N12 C59 1_555 1_555
C61 N12 1_555 1_555
C62 N11 1_555 1_555
C63 C61 1_555 1_555
C64 C62 1_555 1_555
H39 C64 1_555 1_555
C65 C63 1_555 1_555
C66 C64 1_555 1_555
N13 C66 1_555 1_555
N14 C65 1_555 1_555
C67 N13 1_555 1_555
C68 N14 1_555 1_555
C69 C68 1_555 1_555
C70 C69 1_555 1_555
N15 C70 1_555 1_555
C71 N15 1_555 1_555
C72 C71 1_555 1_555
H40 C72 1_555 1_555
C73 C69 1_555 1_555
H41 C73 1_555 1_555
C74 C71 1_555 1_555
C75 C74 1_555 1_555
H42 C75 1_555 1_555
C76 C75 1_555 1_555
H43 C76 1_555 1_555
C77 C76 1_555 1_555
C78 C77 1_555 1_555
H44 C78 1_555 1_555
C79 C74 1_555 1_555
H45 C79 1_555 1_555
O8 C77 1_555 1_555
C80 O8 1_555 1_555
H46 C80 1_555 1_555
H47 C80 1_555 1_555
C81 C80 1_555 1_555
H48 C81 1_555 1_555
H49 C81 1_555 1_555
O9 C81 1_555 1_555
C82 O9 1_555 1_555
H50 C82 1_555 1_555
H51 C82 1_555 1_555
C83 C82 1_555 1_555
H52 C83 1_555 1_555
H53 C83 1_555 1_555
O10 C83 1_555 1_555
C84 O10 1_555 1_555
H54 C84 1_555 1_555
H55 C84 1_555 1_555
C85 C84 1_555 1_555
H56 C85 1_555 1_555
H57 C85 1_555 1_555
O11 C85 1_555 1_555
C86 O11 1_555 1_555
H58 C86 1_555 1_555
H59 C86 1_555 1_555
C87 C86 1_555 1_555
H60 C87 1_555 1_555
H61 C87 1_555 1_555
O12 C87 1_555 1_555
C88 O12 1_555 1_555
H62 C88 1_555 1_555
H63 C88 1_555 1_555
C89 C88 1_555 1_555
H64 C89 1_555 1_555
H65 C89 1_555 1_555
O13 C89 1_555 1_555
C90 O13 1_555 1_555
C91 C90 1_555 1_555
H66 C91 1_555 1_555
C92 C91 1_555 1_555
H67 C92 1_555 1_555
C93 C92 1_555 1_555
C94 C93 1_555 1_555
H68 C94 1_555 1_555
C95 C90 1_555 1_555
H69 C95 1_555 1_555
C96 C93 1_555 1_555
N16 Cu2 1_555 1_555
C97 C70 1_555 1_555
C98 C67 1_555 1_555
C99 C98 1_555 1_555
H70 C99 1_555 1_555
C100 C96 1_555 1_555
H71 C100 1_555 1_555
C101 C45 1_555 1_555
C102 C101 1_555 1_555
H72 C102 1_555 1_555
C103 C102 1_555 1_555
C104 C103 1_555 1_555
H73 C104 1_555 1_555
C105 C104 1_555 1_555
C106 C101 1_555 1_555
H74 C106 1_555 1_555
C107 C103 1_555 1_555
C108 C107 1_555 1_555
H75 C108 1_555 1_555
H76 C108 1_555 1_555
H77 C108 1_555 1_555
C109 C107 1_555 1_555
H78 C109 1_555 1_555
H79 C109 1_555 1_555
H80 C109 1_555 1_555
C110 C107 1_555 1_555
H81 C110 1_555 1_555
H82 C110 1_555 1_555
H83 C110 1_555 1_555
C111 C105 1_555 1_555
C112 C111 1_555 1_555
H84 C112 1_555 1_555
H85 C112 1_555 1_555
H86 C112 1_555 1_555
C113 C111 1_555 1_555
H87 C113 1_555 1_555
H88 C113 1_555 1_555
H89 C113 1_555 1_555
C114 C111 1_555 1_555
H90 C114 1_555 1_555
H91 C114 1_555 1_555
H92 C114 1_555 1_555
C115 C50 1_555 1_555
C116 C115 1_555 1_555
H93 C116 1_555 1_555
C117 C116 1_555 1_555
C118 C117 1_555 1_555
H94 C118 1_555 1_555
C119 C118 1_555 1_555
C120 C115 1_555 1_555
H95 C120 1_555 1_555
C121 C117 1_555 1_555
C122 C121 1_555 1_555
H96 C122 1_555 1_555
H97 C122 1_555 1_555
H98 C122 1_555 1_555
C123 C121 1_555 1_555
H99 C123 1_555 1_555
H100 C123 1_555 1_555
H101 C123 1_555 1_555
C124 C121 1_555 1_555
H102 C124 1_555 1_555
H103 C124 1_555 1_555
H104 C124 1_555 1_555
C125 C119 1_555 1_555
C126 C125 1_555 1_555
H105 C126 1_555 1_555
H106 C126 1_555 1_555
H107 C126 1_555 1_555
C127 C125 1_555 1_555
H108 C127 1_555 1_555
H109 C127 1_555 1_555
H110 C127 1_555 1_555
C128 C125 1_555 1_555
H111 C128 1_555 1_555
H112 C128 1_555 1_555
H113 C128 1_555 1_555
C129 C53 1_555 1_555
C130 C129 1_555 1_555
H114 C130 1_555 1_555
C131 C130 1_555 1_555
C132 C131 1_555 1_555
H115 C132 1_555 1_555
C133 C132 1_555 1_555
C134 C129 1_555 1_555
H116 C134 1_555 1_555
C135 C131 1_555 1_555
C136 C135 1_555 1_555
H117 C136 1_555 1_555
H118 C136 1_555 1_555
H119 C136 1_555 1_555
C137 C135 1_555 1_555
H120 C137 1_555 1_555
H121 C137 1_555 1_555
H122 C137 1_555 1_555
C138 C135 1_555 1_555
H123 C138 1_555 1_555
H124 C138 1_555 1_555
H125 C138 1_555 1_555
C139 C133 1_555 1_555
C140 C139 1_555 1_555
H126 C140 1_555 1_555
H127 C140 1_555 1_555
H128 C140 1_555 1_555
C141 C139 1_555 1_555
H129 C141 1_555 1_555
H130 C141 1_555 1_555
H131 C141 1_555 1_555
C142 C139 1_555 1_555
H132 C142 1_555 1_555
H133 C142 1_555 1_555
H134 C142 1_555 1_555
C143 C58 1_555 1_555
C144 C143 1_555 1_555
H135 C144 1_555 1_555
C145 C144 1_555 1_555
C146 C145 1_555 1_555
H136 C146 1_555 1_555
C147 C146 1_555 1_555
C148 C143 1_555 1_555
H137 C148 1_555 1_555
C149 C145 1_555 1_555
C150 C149 1_555 1_555
H138 C150 1_555 1_555
H139 C150 1_555 1_555
H140 C150 1_555 1_555
C151 C149 1_555 1_555
H141 C151 1_555 1_555
H142 C151 1_555 1_555
H143 C151 1_555 1_555
C152 C149 1_555 1_555
H144 C152 1_555 1_555
H145 C152 1_555 1_555
H146 C152 1_555 1_555
C153 C147 1_555 1_555
C154 C153 1_555 1_555
H147 C154 1_555 1_555
H148 C154 1_555 1_555
H149 C154 1_555 1_555
C155 C153 1_555 1_555
H150 C155 1_555 1_555
H151 C155 1_555 1_555
H152 C155 1_555 1_555
C156 C153 1_555 1_555
H153 C156 1_555 1_555
H154 C156 1_555 1_555
H155 C156 1_555 1_555
N17 Cu1 1_555 1_555
C157 N17 1_555 1_555
C158 C157 1_555 1_555
H156 C158 1_555 1_555
C159 C157 1_555 1_555
C160 C159 1_555 1_555
H157 C160 1_555 1_555
C161 C160 1_555 1_555
H158 C161 1_555 1_555
C162 N17 1_555 1_555
C163 C162 1_555 1_555
N18 Cu1 1_555 1_555
C164 N18 1_555 1_555
H159 C164 1_555 1_555
C165 C164 1_555 1_555
C166 C165 1_555 1_555
H160 C166 1_555 1_555
C167 C163 1_555 1_555
H161 C167 1_555 1_555
C168 C165 1_555 1_555
N19 C168 1_555 1_555
N20 N19 1_555 1_555
N21 N20 1_555 1_555
C169 C168 1_555 1_555
H162 C169 1_555 1_555
C170 N21 1_555 1_555
H163 C170 1_555 1_555
H164 C170 1_555 1_555
C171 C170 1_555 1_555
H165 C171 1_555 1_555
H166 C171 1_555 1_555
C172 C171 1_555 1_555
H167 C172 1_555 1_555
H168 C172 1_555 1_555
O14 C172 1_555 1_555
C173 O14 1_555 1_555
C174 C173 1_555 1_555
H169 C174 1_555 1_555
C175 C174 1_555 1_555
H170 C175 1_555 1_555
C176 C175 1_555 1_555
C177 C176 1_555 1_555
H171 C177 1_555 1_555
C178 C173 1_555 1_555
H172 C178 1_555 1_555
C179 C176 1_555 1_555
C180 C179 1_555 1_555
C181 C180 1_555 1_555
H173 C181 1_555 1_555
C182 C181 1_555 1_555
H174 C182 1_555 1_555
C183 C182 1_555 1_555
C184 C183 1_555 1_555
H175 C184 1_555 1_555
C185 C180 1_555 1_555
H176 C185 1_555 1_555
C186 C183 1_555 1_555
C187 C186 1_555 1_555
H177 C187 1_555 1_555
H178 C187 1_555 1_555
H179 C187 1_555 1_555
C188 C186 1_555 1_555
H180 C188 1_555 1_555
H181 C188 1_555 1_555
H182 C188 1_555 1_555
C189 C186 1_555 1_555
H183 C189 1_555 1_555
H184 C189 1_555 1_555
H185 C189 1_555 1_555
C190 C179 1_555 1_555
C191 C190 1_555 1_555
H186 C191 1_555 1_555
C192 C191 1_555 1_555
H187 C192 1_555 1_555
C193 C192 1_555 1_555
C194 C193 1_555 1_555
H188 C194 1_555 1_555
C195 C190 1_555 1_555
H189 C195 1_555 1_555
C196 C193 1_555 1_555
C197 C196 1_555 1_555
H190 C197 1_555 1_555
H191 C197 1_555 1_555
H192 C197 1_555 1_555
C198 C196 1_555 1_555
H193 C198 1_555 1_555
H194 C198 1_555 1_555
H195 C198 1_555 1_555
C199 C196 1_555 1_555
H196 C199 1_555 1_555
H197 C199 1_555 1_555
H198 C199 1_555 1_555
C200 C179 1_555 1_555
C201 C200 1_555 1_555
H199 C201 1_555 1_555
C202 C201 1_555 1_555
H200 C202 1_555 1_555
C203 C202 1_555 1_555
C204 C203 1_555 1_555
H201 C204 1_555 1_555
C205 C200 1_555 1_555
H202 C205 1_555 1_555
C206 C203 1_555 1_555
C207 C206 1_555 1_555
H203 C207 1_555 1_555
H204 C207 1_555 1_555
H205 C207 1_555 1_555
C208 C206 1_555 1_555
H206 C208 1_555 1_555
H207 C208 1_555 1_555
H208 C208 1_555 1_555
C209 C206 1_555 1_555
H209 C209 1_555 1_555
H210 C209 1_555 1_555
H211 C209 1_555 1_555
N22 C210 1_555 1_555
C210 C211 1_555 1_555
C211 C158 1_555 1_555
H212 C211 1_555 1_555
C212 C159 1_555 1_555
C213 C212 1_555 1_555
H213 C213 1_555 1_555
C214 C213 1_555 1_555
H214 C214 1_555 1_555
C215 N22 1_555 1_555
C216 C215 1_555 1_555
N23 C216 1_555 1_555
C217 N23 1_555 1_555
H215 C217 1_555 1_555
C218 C217 1_555 1_555
C219 C218 1_555 1_555
H216 C219 1_555 1_555
C220 C216 1_555 1_555
H217 C220 1_555 1_555
C221 C218 1_555 1_555
N24 C221 1_555 1_555
N25 N24 1_555 1_555
N26 N25 1_555 1_555
C222 C221 1_555 1_555
H218 C222 1_555 1_555
C223 N26 1_555 1_555
H219 C223 1_555 1_555
H220 C223 1_555 1_555
C224 C223 1_555 1_555
H221 C224 1_555 1_555
H222 C224 1_555 1_555
C225 C224 1_555 1_555
H223 C225 1_555 1_555
H224 C225 1_555 1_555
O15 C225 1_555 1_555
C226 O15 1_555 1_555
C227 C226 1_555 1_555
H225 C227 1_555 1_555
C228 C227 1_555 1_555
H226 C228 1_555 1_555
C229 C228 1_555 1_555
C230 C229 1_555 1_555
H227 C230 1_555 1_555
C231 C226 1_555 1_555
H228 C231 1_555 1_555
C232 C229 1_555 1_555
C233 C232 1_555 1_555
C234 C233 1_555 1_555
H229 C234 1_555 1_555
C235 C234 1_555 1_555
H230 C235 1_555 1_555
C236 C235 1_555 1_555
C237 C236 1_555 1_555
H231 C237 1_555 1_555
C238 C233 1_555 1_555
H232 C238 1_555 1_555
C239 C236 1_555 1_555
C240 C239 1_555 1_555
H233 C240 1_555 1_555
H234 C240 1_555 1_555
H235 C240 1_555 1_555
C241 C239 1_555 1_555
H236 C241 1_555 1_555
H237 C241 1_555 1_555
H238 C241 1_555 1_555
C242 C239 1_555 1_555
H239 C242 1_555 1_555
H240 C242 1_555 1_555
H241 C242 1_555 1_555
C243 C232 1_555 1_555
C244 C243 1_555 1_555
H242 C244 1_555 1_555
C245 C244 1_555 1_555
H243 C245 1_555 1_555
C246 C245 1_555 1_555
C247 C246 1_555 1_555
H244 C247 1_555 1_555
C248 C243 1_555 1_555
H245 C248 1_555 1_555
C249 C246 1_555 1_555
C250 C249 1_555 1_555
H246 C250 1_555 1_555
H247 C250 1_555 1_555
H248 C250 1_555 1_555
C251 C249 1_555 1_555
H249 C251 1_555 1_555
H250 C251 1_555 1_555
H251 C251 1_555 1_555
C252 C249 1_555 1_555
H252 C252 1_555 1_555
H253 C252 1_555 1_555
H254 C252 1_555 1_555
C253 C232 1_555 1_555
C254 C253 1_555 1_555
H255 C254 1_555 1_555
C255 C254 1_555 1_555
H256 C255 1_555 1_555
C256 C255 1_555 1_555
C257 C256 1_555 1_555
H257 C257 1_555 1_555
C258 C253 1_555 1_555
H258 C258 1_555 1_555
C259 C256 1_555 1_555
C260 C259 1_555 1_555
H259 C260 1_555 1_555
H260 C260 1_555 1_555
H261 C260 1_555 1_555
C261 C259 1_555 1_555
H262 C261 1_555 1_555
H263 C261 1_555 1_555
H264 C261 1_555 1_555
C262 C259 1_555 1_555
H265 C262 1_555 1_555
H266 C262 1_555 1_555
H267 C262 1_555 1_555
Cu2A N22 1_555 1_555
C1A C2A 1_555 1_555
C2A H1A 1_555 1_555
C3A C2A 1_555 1_555
H2A C3A 1_555 1_555
C4A C3A 1_555 1_555
C5A C4A 1_555 1_555
H3A C5A 1_555 1_555
C6A C1A 1_555 1_555
H4A C6A 1_555 1_555
O2A C4A 1_555 1_555
C7A O2A 1_555 1_555
H5A C7A 1_555 1_555
H6A C7A 1_555 1_555
C8A C7A 1_555 1_555
H7A C8A 1_555 1_555
H8A C8A 1_555 1_555
O3A C8A 1_555 1_555
C9A O3A 1_555 1_555
H9A C9A 1_555 1_555
H10A C9A 1_555 1_555
C10A C9A 1_555 1_555
H11A C10A 1_555 1_555
H12A C10A 1_555 1_555
O4A C10A 1_555 1_555
C11A O4A 1_555 1_555
H13A C11A 1_555 1_555
H14A C11A 1_555 1_555
C12A C11A 1_555 1_555
H15A C12A 1_555 1_555
H16A C12A 1_555 1_555
O5A C12A 1_555 1_555
C13A O5A 1_555 1_555
H17A C13A 1_555 1_555
H18A C13A 1_555 1_555
C14A C13A 1_555 1_555
H19A C14A 1_555 1_555
H20A C14A 1_555 1_555
O6A C14A 1_555 1_555
C15A O6A 1_555 1_555
H21A C15A 1_555 1_555
H22A C15A 1_555 1_555
C16A C15A 1_555 1_555
H23A C16A 1_555 1_555
H24A C16A 1_555 1_555
O7A C16A 1_555 1_555
C17A O7A 1_555 1_555
C18A C17A 1_555 1_555
H25A C18A 1_555 1_555
C19A C18A 1_555 1_555
H26A C19A 1_555 1_555
C20A C19A 1_555 1_555
C21A C20A 1_555 1_555
H27A C21A 1_555 1_555
C22A C17A 1_555 1_555
H28A C22A 1_555 1_555
C23A C20A 1_555 1_555
N1A C23A 1_555 1_555
C24A N1A 1_555 1_555
C25A C24A 1_555 1_555
C26A C25A 1_555 1_555
H29A C26A 1_555 1_555
C27A C23A 1_555 1_555
H30A C27A 1_555 1_555
C28A C25A 1_555 1_555
C29A C28A 1_555 1_555
C30A C29A 1_555 1_555
C31A C24A 1_555 1_555
N2A C31A 1_555 1_555
C32A C1A 1_555 1_555
C33A C32A 1_555 1_555
H31A C33A 1_555 1_555
C34A C30A 1_555 1_555
H32A C34A 1_555 1_555
N3A C29A 1_555 1_555
N4A C28A 1_555 1_555
C35A N3A 1_555 1_555
C36A N4A 1_555 1_555
C37A C35A 1_555 1_555
H33A C37A 1_555 1_555
C38A C36A 1_555 1_555
H34A C38A 1_555 1_555
C39A C37A 1_555 1_555
C40A C38A 1_555 1_555
N5A C39A 1_555 1_555
N6A C40A 1_555 1_555
C41A N6A 1_555 1_555
C42A N5A 1_555 1_555
C43A C42A 1_555 1_555
N7A C43A 1_555 1_555
C44A C41A 1_555 1_555
C45A C44A 1_555 1_555
C46A C45A 1_555 1_555
N8A C46A 1_555 1_555
C47A N8A 1_555 1_555
C48A C47A 1_555 1_555
H35A C48A 1_555 1_555
C49A C46A 1_555 1_555
H36A C49A 1_555 1_555
C50A C47A 1_555 1_555
C51A C50A 1_555 1_555
N9A C51A 1_555 1_555
C52A N9A 1_555 1_555
C53A C52A 1_555 1_555
C54A C53A 1_555 1_555
N10A C54A 1_555 1_555
C55A N10A 1_555 1_555
C56A C55A 1_555 1_555
H37A C56A 1_555 1_555
C57A C54A 1_555 1_555
H38A C57A 1_555 1_555
C58A C43A 1_555 1_555
C59A C52A 1_555 1_555
C60A C51A 1_555 1_555
N11A C60A 1_555 1_555
N12A C59A 1_555 1_555
C61A N12A 1_555 1_555
C62A N11A 1_555 1_555
C63A C61A 1_555 1_555
C64A C62A 1_555 1_555
H39A C64A 1_555 1_555
C65A C63A 1_555 1_555
C66A C64A 1_555 1_555
N13A C66A 1_555 1_555
N14A C65A 1_555 1_555
C67A N13A 1_555 1_555
C68A N14A 1_555 1_555
C69A C68A 1_555 1_555
C70A C69A 1_555 1_555
N15A Cu2A 1_555 1_555
C71A N15A 1_555 1_555
C72A C71A 1_555 1_555
H40A C72A 1_555 1_555
C73A C69A 1_555 1_555
H41A C73A 1_555 1_555
C74A C71A 1_555 1_555
C75A C74A 1_555 1_555
H42A C75A 1_555 1_555
C76A C75A 1_555 1_555
H43A C76A 1_555 1_555
C77A C76A 1_555 1_555
C78A C77A 1_555 1_555
H44A C78A 1_555 1_555
C79A C74A 1_555 1_555
H45A C79A 1_555 1_555
O8A C77A 1_555 1_555
C80A O8A 1_555 1_555
H46A C80A 1_555 1_555
H47A C80A 1_555 1_555
C81A C80A 1_555 1_555
H48A C81A 1_555 1_555
H49A C81A 1_555 1_555
O9A C81A 1_555 1_555
C82A O9A 1_555 1_555
H50A C82A 1_555 1_555
H51A C82A 1_555 1_555
C83A C82A 1_555 1_555
H52A C83A 1_555 1_555
H53A C83A 1_555 1_555
O10A C83A 1_555 1_555
C84A O10A 1_555 1_555
H54A C84A 1_555 1_555
H55A C84A 1_555 1_555
C85A C84A 1_555 1_555
H56A C85A 1_555 1_555
H57A C85A 1_555 1_555
O11A C85A 1_555 1_555
C86A O11A 1_555 1_555
H58A C86A 1_555 1_555
H59A C86A 1_555 1_555
C87A C86A 1_555 1_555
H60A C87A 1_555 1_555
H61A C87A 1_555 1_555
O12A C87A 1_555 1_555
C88A O12A 1_555 1_555
H62A C88A 1_555 1_555
H63A C88A 1_555 1_555
C89A C88A 1_555 1_555
H64A C89A 1_555 1_555
H65A C89A 1_555 1_555
O13A C89A 1_555 1_555
N17A C157A 1_555 1_555
C157A C158A 1_555 1_555
C158A H156A 1_555 1_555
C159A C157A 1_555 1_555
C160A C159A 1_555 1_555
H157A C160A 1_555 1_555
C161A C160A 1_555 1_555
H158A C161A 1_555 1_555
C162A N17A 1_555 1_555
C163A C162A 1_555 1_555
N18A C163A 1_555 1_555
C164A N18A 1_555 1_555
H159A C164A 1_555 1_555
C165A C164A 1_555 1_555
C166A C165A 1_555 1_555
H160A C166A 1_555 1_555
C167A C163A 1_555 1_555
H161A C167A 1_555 1_555
C168A C165A 1_555 1_555
N19A C168A 1_555 1_555
N20A N19A 1_555 1_555
N21A N20A 1_555 1_555
C169A C168A 1_555 1_555
H162A C169A 1_555 1_555
C170A N21A 1_555 1_555
H163A C170A 1_555 1_555
H164A C170A 1_555 1_555
C171A C170A 1_555 1_555
H165A C171A 1_555 1_555
H166A C171A 1_555 1_555
C172A C171A 1_555 1_555
H167A C172A 1_555 1_555
H168A C172A 1_555 1_555
O14A C172A 1_555 1_555
C173A O14A 1_555 1_555
C174A C173A 1_555 1_555
H169A C174A 1_555 1_555
C175A C174A 1_555 1_555
H170A C175A 1_555 1_555
C176A C175A 1_555 1_555
C177A C176A 1_555 1_555
H171A C177A 1_555 1_555
C178A C173A 1_555 1_555
H172A C178A 1_555 1_555
C179A C176A 1_555 1_555
C180A C179A 1_555 1_555
C181A C180A 1_555 1_555
H173A C181A 1_555 1_555
C182A C181A 1_555 1_555
H174A C182A 1_555 1_555
C183A C182A 1_555 1_555
C184A C183A 1_555 1_555
H175A C184A 1_555 1_555
C185A C180A 1_555 1_555
H176A C185A 1_555 1_555
C186A C183A 1_555 1_555
C187A C186A 1_555 1_555
H177A C187A 1_555 1_555
H178A C187A 1_555 1_555
H179A C187A 1_555 1_555
C188A C186A 1_555 1_555
H180A C188A 1_555 1_555
H181A C188A 1_555 1_555
H182A C188A 1_555 1_555
C189A C186A 1_555 1_555
H183A C189A 1_555 1_555
H184A C189A 1_555 1_555
H185A C189A 1_555 1_555
C190A C179A 1_555 1_555
C191A C190A 1_555 1_555
H186A C191A 1_555 1_555
C192A C191A 1_555 1_555
H187A C192A 1_555 1_555
C193A C192A 1_555 1_555
C194A C193A 1_555 1_555
H188A C194A 1_555 1_555
C195A C190A 1_555 1_555
H189A C195A 1_555 1_555
C196A C193A 1_555 1_555
C197A C196A 1_555 1_555
H190A C197A 1_555 1_555
H191A C197A 1_555 1_555
H192A C197A 1_555 1_555
C198A C196A 1_555 1_555
H193A C198A 1_555 1_555
H194A C198A 1_555 1_555
H195A C198A 1_555 1_555
C199A C196A 1_555 1_555
H196A C199A 1_555 1_555
H197A C199A 1_555 1_555
H198A C199A 1_555 1_555
C200A C179A 1_555 1_555
C201A C200A 1_555 1_555
H199A C201A 1_555 1_555
C202A C201A 1_555 1_555
H200A C202A 1_555 1_555
C203A C202A 1_555 1_555
C204A C203A 1_555 1_555
H201A C204A 1_555 1_555
C205A C200A 1_555 1_555
H202A C205A 1_555 1_555
C206A C203A 1_555 1_555
C207A C206A 1_555 1_555
H203A C207A 1_555 1_555
H204A C207A 1_555 1_555
H205A C207A 1_555 1_555
C208A C206A 1_555 1_555
H206A C208A 1_555 1_555
H207A C208A 1_555 1_555
H208A C208A 1_555 1_555
C209A C206A 1_555 1_555
H209A C209A 1_555 1_555
H210A C209A 1_555 1_555
H211A C209A 1_555 1_555
N22A Cu2 1_555 1_555
C210A N22A 1_555 1_555
C211A C158A 1_555 1_555
H212A C211A 1_555 1_555
C212A C159A 1_555 1_555
C213A C212A 1_555 1_555
H213A C213A 1_555 1_555
C214A C213A 1_555 1_555
H214A C214A 1_555 1_555
C215A N22A 1_555 1_555
C216A C215A 1_555 1_555
N23A Cu2 1_555 1_555
C217A N23A 1_555 1_555
H215A C217A 1_555 1_555
C218A C217A 1_555 1_555
C219A C218A 1_555 1_555
H216A C219A 1_555 1_555
C220A C216A 1_555 1_555
H217A C220A 1_555 1_555
C221A C218A 1_555 1_555
N24A C221A 1_555 1_555
N25A N24A 1_555 1_555
N26A N25A 1_555 1_555
C222A C221A 1_555 1_555
H218A C222A 1_555 1_555
C223A N26A 1_555 1_555
H219A C223A 1_555 1_555
H220A C223A 1_555 1_555
C224A C223A 1_555 1_555
H221A C224A 1_555 1_555
H222A C224A 1_555 1_555
C225A C224A 1_555 1_555
H223A C225A 1_555 1_555
H224A C225A 1_555 1_555
O15A C225A 1_555 1_555
C226A O15A 1_555 1_555
C227A C226A 1_555 1_555
H225A C227A 1_555 1_555
C228A C227A 1_555 1_555
H226A C228A 1_555 1_555
C229A C228A 1_555 1_555
C230A C229A 1_555 1_555
H227A C230A 1_555 1_555
C231A C226A 1_555 1_555
H228A C231A 1_555 1_555
C232A C229A 1_555 1_555
C233A C232A 1_555 1_555
C234A C233A 1_555 1_555
H229A C234A 1_555 1_555
C235A C234A 1_555 1_555
H230A C235A 1_555 1_555
C236A C235A 1_555 1_555
C237A C236A 1_555 1_555
H231A C237A 1_555 1_555
C238A C233A 1_555 1_555
H232A C238A 1_555 1_555
C239A C236A 1_555 1_555
C240A C239A 1_555 1_555
H233A C240A 1_555 1_555
H234A C240A 1_555 1_555
H235A C240A 1_555 1_555
C241A C239A 1_555 1_555
H236A C241A 1_555 1_555
H237A C241A 1_555 1_555
H238A C241A 1_555 1_555
C242A C239A 1_555 1_555
H239A C242A 1_555 1_555
H240A C242A 1_555 1_555
H241A C242A 1_555 1_555
C243A C232A 1_555 1_555
C244A C243A 1_555 1_555
H242A C244A 1_555 1_555
C245A C244A 1_555 1_555
H243A C245A 1_555 1_555
C246A C245A 1_555 1_555
C247A C246A 1_555 1_555
H244A C247A 1_555 1_555
C248A C243A 1_555 1_555
H245A C248A 1_555 1_555
C249A C246A 1_555 1_555
C250A C249A 1_555 1_555
H246A C250A 1_555 1_555
H247A C250A 1_555 1_555
H248A C250A 1_555 1_555
C251A C249A 1_555 1_555
H249A C251A 1_555 1_555
H250A C251A 1_555 1_555
H251A C251A 1_555 1_555
C252A C249A 1_555 1_555
H252A C252A 1_555 1_555
H253A C252A 1_555 1_555
H254A C252A 1_555 1_555
C253A C232A 1_555 1_555
C254A C253A 1_555 1_555
H255A C254A 1_555 1_555
C255A C254A 1_555 1_555
H256A C255A 1_555 1_555
C256A C255A 1_555 1_555
C257A C256A 1_555 1_555
H257A C257A 1_555 1_555
C258A C253A 1_555 1_555
H258A C258A 1_555 1_555
C259A C256A 1_555 1_555
C260A C259A 1_555 1_555
H259A C260A 1_555 1_555
H260A C260A 1_555 1_555
H261A C260A 1_555 1_555
C261A C259A 1_555 1_555
H262A C261A 1_555 1_555
H263A C261A 1_555 1_555
H264A C261A 1_555 1_555
C262A C259A 1_555 1_555
H265A C262A 1_555 1_555
H266A C262A 1_555 1_555
H267A C262A 1_555 1_555
C5 C6 1_555 1_555
C21 C22 1_555 1_555
C26 C27 1_555 1_555
C30 C31 1_555 1_555
C31 N2 1_555 1_555
N2 C32 1_555 1_555
C33 C34 1_555 1_555
C35 C36 1_555 1_555
C39 C40 1_555 1_555
C41 C42 1_555 1_555
N7 C44 1_555 1_555
C46 N8 1_555 1_555
C48 C49 1_555 1_555
C51 N9 1_555 1_555
C54 N10 1_555 1_555
C55 C58 1_555 1_555
C56 C57 1_555 1_555
C59 C60 1_555 1_555
C61 C62 1_555 1_555
C65 C66 1_555 1_555
C67 C68 1_555 1_555
C72 C73 1_555 1_555
C78 C79 1_555 1_555
C94 C95 1_555 1_555
C96 N16 1_555 1_555
N16 C97 1_555 1_555
C97 C98 1_555 1_555
C99 C100 1_555 1_555
C105 C106 1_555 1_555
C119 C120 1_555 1_555
C133 C134 1_555 1_555
C147 C148 1_555 1_555
C161 C162 1_555 1_555
C163 N18 1_555 1_555
C166 C167 1_555 1_555
N21 C169 1_555 1_555
C177 C178 1_555 1_555
C184 C185 1_555 1_555
C194 C195 1_555 1_555
C204 C205 1_555 1_555
C210 C212 1_555 1_555
C214 C215 1_555 1_555
N23 Cu2A 1_555 1_555
C219 C220 1_555 1_555
N26 C222 1_555 1_555
C230 C231 1_555 1_555
C237 C238 1_555 1_555
C247 C248 1_555 1_555
C257 C258 1_555 1_555
C5A C6A 1_555 1_555
C21A C22A 1_555 1_555
C26A C27A 1_555 1_555
C30A C31A 1_555 1_555
N2A C32A 1_555 1_555
C33A C34A 1_555 1_555
C35A C36A 1_555 1_555
C39A C40A 1_555 1_555
C41A C42A 1_555 1_555
N7A C44A 1_555 1_555
C48A C49A 1_555 1_555
C55A C58A 1_555 1_555
C56A C57A 1_555 1_555
C59A C60A 1_555 1_555
C61A C62A 1_555 1_555
C65A C66A 1_555 1_555
C67A C68A 1_555 1_555
C70A N15A 1_555 1_555
C72A C73A 1_555 1_555
C78A C79A 1_555 1_555
C161A C162A 1_555 1_555
C166A C167A 1_555 1_555
N21A C169A 1_555 1_555
C177A C178A 1_555 1_555
C184A C185A 1_555 1_555
C194A C195A 1_555 1_555
C204A C205A 1_555 1_555
C210A C211A 1_555 1_555
C210A C212A 1_555 1_555
C214A C215A 1_555 1_555
C216A N23A 1_555 1_555
C219A C220A 1_555 1_555
N26A C222A 1_555 1_555
C230A C231A 1_555 1_555
C237A C238A 1_555 1_555
C247A C248A 1_555 1_555
C257A C258A 1_555 1_555

#END
