
#######################################################################
#
#                 Cambridge Crystallographic Data Centre
#                                CCDC 
#
#######################################################################
#
# If this CIF has been generated from an entry in the Cambridge 
# Structural Database, then it will include bibliographic, chemical, 
# crystal, experimental, refinement or atomic coordinate data resulting 
# from the CCDC's data processing and validation procedures.
#
#######################################################################

data_BUSXOE
_chemical_formula_moiety         
'C180 H156 Co4 N36 O12 8+,8(Cl1 O4 1-),18(H2 O1)'
_chemical_name_systematic        
'hexakis(\m-(naphthalene-1,8-diylbis(methylene-1H-pyrazole-1,3-diylpyridine-2,4-diyl))dimethanol)-tetra-cobalt octaperchlorate unknown solvate octadecahydrate'
_symmetry_cell_setting           triclinic
_symmetry_space_group_name_H-M   'P -1'
_symmetry_Int_Tables_number      2
_space_group_name_Hall           '-P 1'
loop_
_symmetry_equiv_pos_site_id
_symmetry_equiv_pos_as_xyz
1 x,y,z
2 -x,-y,-z
_cell_length_a                   19.2188(13)
_cell_length_b                   29.070(2)
_cell_length_c                   35.460(3)
_cell_angle_alpha                90.322(3)
_cell_angle_beta                 98.971(3)
_cell_angle_gamma                98.598(3)
_cell_volume                     19340.4
_exptl_crystal_colour            'light orange'
_exptl_crystal_description       block
_cell_formula_units_Z            4
loop_
_atom_site_label
_atom_site_type_symbol
_atom_site_fract_x
_atom_site_fract_y
_atom_site_fract_z
Co1 Co 0.88815(4) 0.15271(3) 0.67869(2)
Co2 Co 0.71906(4) 0.30721(3) 0.45263(2)
Co3 Co 0.72058(4) 0.44287(3) 0.69929(2)
Co4 Co 0.39782(4) 0.16941(3) 0.60647(2)
N1 N 0.8505(3) 0.0859(2) 0.69829(17)
C1 C 0.7983(4) 0.0600(2) 0.6743(2)
C2 C 0.7652(4) 0.0172(3) 0.6847(2)
H1 H 0.7289 -0.0009 0.6671
C3 C 0.7853(4) 0.0008(3) 0.7206(2)
C4 C 0.8383(4) 0.0281(3) 0.7454(2)
H2 H 0.8529 0.0181 0.7704
C5 C 0.8696(4) 0.0699(2) 0.7334(2)
H3 H 0.9064 0.0883 0.7505
C6 C 0.7511(5) -0.0466(3) 0.7309(3)
H4 H 0.7018 -0.0536 0.7168
H5 H 0.7783 -0.0706 0.7236
O1 O 0.7501(4) -0.0471(3) 0.7722(2)
H6 H 0.7770 -0.0654 0.7824
N2 N 0.7832(3) 0.13251(18) 0.59400(16)
N3 N 0.8097(3) 0.12310(18) 0.63029(15)
C7 C 0.7783(3) 0.0797(2) 0.6367(2)
C8 C 0.7312(4) 0.0612(2) 0.6039(2)
H7 H 0.7019 0.0316 0.6006
C9 C 0.7371(4) 0.0957(2) 0.5773(2)
H8 H 0.7129 0.0938 0.5518
C10 C 0.8142(3) 0.1723(2) 0.57459(18)
H9 H 0.8383 0.1963 0.5942
H10 H 0.7749 0.1854 0.5590
N4 N 0.7546(3) 0.37733(18) 0.43903(14)
C11 C 0.8062(3) 0.4009(2) 0.46464(17)
C12 C 0.8336(4) 0.4478(2) 0.46075(19)
H11 H 0.8701 0.4635 0.4796
C13 C 0.8062(4) 0.4710(2) 0.4287(2)
C14 C 0.7519(4) 0.4465(2) 0.4023(2)
H12 H 0.7318 0.4613 0.3803
C15 C 0.7272(4) 0.3997(2) 0.40852(18)
H13 H 0.6897 0.3833 0.3905
C16 C 0.8332(5) 0.5206(3) 0.4221(2)
H14 H 0.8487 0.5228 0.3967
H15 H 0.7938 0.5390 0.4218
O2 O 0.8920(4) 0.5405(2) 0.4508(2)
H16 H 0.9305 0.5358 0.4441
N5 N 0.8398(3) 0.31386(18) 0.53140(14)
N6 N 0.8047(3) 0.33005(18) 0.49905(14)
C17 C 0.8328(3) 0.3748(2) 0.49731(17)
C18 C 0.8880(3) 0.3882(2) 0.52804(17)
H17 H 0.9165 0.4179 0.5333
C19 C 0.8912(3) 0.3482(2) 0.54877(18)
H18 H 0.9239 0.3452 0.5713
C20 C 0.8371(3) 0.2642(2) 0.53888(17)
H19 H 0.7887 0.2480 0.5285
H20 H 0.8443 0.2603 0.5669
C21 C 0.86935(17) 0.16326(10) 0.54784(9)
C22 C 0.8821(2) 0.11751(10) 0.55093(10)
H21 H 0.8572 0.0969 0.5667
C23 C 0.9313(2) 0.10195(9) 0.53097(11)
H22 H 0.9400 0.0707 0.5331
C24 C 0.96775(19) 0.13216(10) 0.50793(10)
H23 H 1.0014 0.1215 0.4943
C25 C 0.95500(13) 0.17792(9) 0.50485(7)
C26 C 0.90580(13) 0.19347(8) 0.52480(7)
C27 C 0.89306(18) 0.23923(9) 0.52171(9)
C28 C 0.9295(2) 0.26943(9) 0.49867(10)
H24 H 0.9208 0.3007 0.4966
C29 C 0.97871(19) 0.25388(10) 0.47872(10)
H25 H 1.0036 0.2745 0.4630
C30 C 0.99146(17) 0.20812(11) 0.48181(9)
H26 H 1.0251 0.1975 0.4682
N7 N 0.9644(3) 0.13287(19) 0.64706(16)
C31 C 0.9997(3) 0.1663(2) 0.62850(18)
C32 C 1.0524(3) 0.1575(2) 0.6075(2)
H27 H 1.0789 0.1823 0.5960
C33 C 1.0654(4) 0.1119(3) 0.6036(2)
C34 C 1.0269(3) 0.0774(3) 0.6220(2)
H28 H 1.0347 0.0460 0.6200
C35 C 0.9771(3) 0.0887(2) 0.6434(2)
H29 H 0.9510 0.0646 0.6558
C36 C 1.1225(4) 0.1019(3) 0.5815(2)
H30 H 1.1027 0.0996 0.5539
H31 H 1.1622 0.1282 0.5854
O3 O 1.1491(3) 0.0607(2) 0.59211(19)
H32 H 1.1161 0.0380 0.5876
N8 N 0.9223(3) 0.26284(18) 0.65341(14)
N9 N 0.9312(3) 0.21732(18) 0.65491(14)
C37 C 0.9796(3) 0.2125(2) 0.63223(17)
C38 C 1.0025(3) 0.2549(2) 0.61589(17)
H33 H 1.0359 0.2608 0.5987
C39 C 0.9649(3) 0.2862(2) 0.63076(17)
H34 H 0.9686 0.3185 0.6258
C40 C 0.8850(3) 0.2835(2) 0.68025(17)
H35 H 0.8467 0.2597 0.6869
H36 H 0.8623 0.3091 0.6677
N10 N 0.6446(3) 0.4572(2) 0.73398(16)
C41 C 0.6116(4) 0.4198(3) 0.74995(19)
C42 C 0.5607(4) 0.4229(3) 0.7729(2)
H37 H 0.5367 0.3958 0.7828
C43 C 0.5449(5) 0.4678(3) 0.7814(2)
C44 C 0.5781(4) 0.5056(3) 0.7653(2)
H38 H 0.5685 0.5359 0.7705
C45 C 0.6265(4) 0.4989(3) 0.7409(2)
H39 H 0.6477 0.5252 0.7287
C46 C 0.4933(5) 0.4729(4) 0.8090(2)
H40 H 0.5097 0.4596 0.8338
H41 H 0.4904 0.5062 0.8132
O4 O 0.4265(8) 0.4489(6) 0.7927(4)
H42 H 0.4171 0.4246 0.8047
N11 N 0.7089(3) 0.33291(18) 0.72542(15)
N12 N 0.6940(3) 0.37706(19) 0.72505(15)
C47 C 0.6382(3) 0.3762(2) 0.74413(18)
C48 C 0.6177(3) 0.3313(2) 0.75692(19)
H43 H 0.5800 0.3212 0.7708
C49 C 0.6643(3) 0.3053(2) 0.74470(18)
H44 H 0.6652 0.2732 0.7491
C50 C 0.7759(3) 0.3216(2) 0.71597(17)
H45 H 0.7894 0.3407 0.6945
H46 H 0.7691 0.2884 0.7076
C51 C 0.9332(3) 0.3025(2) 0.71647(18)
C52 C 1.0054(3) 0.3002(3) 0.7192(2)
H47 H 1.0217 0.2871 0.6982
C53 C 1.0555(4) 0.3161(3) 0.7514(2)
H48 H 1.1049 0.3156 0.7516
C54 C 1.0324(4) 0.3323(3) 0.7822(2)
H49 H 1.0660 0.3422 0.8044
C55 C 0.9597(3) 0.3348(3) 0.78229(19)
C56 C 0.9079(3) 0.3221(2) 0.74834(17)
C57 C 0.8361(3) 0.3303(2) 0.75017(17)
C58 C 0.8204(3) 0.3467(2) 0.78384(17)
H50 H 0.7730 0.3518 0.7846
C59 C 0.8710(3) 0.3564(2) 0.81708(18)
H51 H 0.8574 0.3660 0.8401
C60 C 0.9399(4) 0.3516(2) 0.81562(18)
H52 H 0.9751 0.3598 0.8375
N13 N 0.9589(3) 0.1742(2) 0.73017(15)
C61 C 0.9327(3) 0.1964(3) 0.75689(19)
C62 C 0.9724(4) 0.2147(3) 0.7911(2)
H53 H 0.9513 0.2302 0.8090
C63 C 1.0451(4) 0.2096(3) 0.7987(2)
C64 C 1.0726(4) 0.1864(3) 0.7705(2)
H54 H 1.1211 0.1818 0.7747
C65 C 1.0299(3) 0.1706(3) 0.7375(2)
H55 H 1.0502 0.1564 0.7186
C66 C 1.0916(4) 0.2286(4) 0.8346(2)
H56 H 1.1278 0.2080 0.8421
H57 H 1.1170 0.2597 0.8299
O5 O 1.0528(4) 0.2324(3) 0.8653(2)
H58 H 1.0330 0.2564 0.8628
N14 N 0.7501(3) 0.1809(2) 0.71460(15)
N15 N 0.8196(3) 0.1779(2) 0.71437(15)
C67 C 0.8546(3) 0.1969(3) 0.74778(18)
C68 C 0.8070(4) 0.2114(3) 0.76967(19)
H59 H 0.8179 0.2259 0.7944
C69 C 0.7417(4) 0.2004(3) 0.74801(19)
H60 H 0.6977 0.2055 0.7551
C70 C 0.6927(3) 0.1551(3) 0.68617(19)
H61 H 0.7123 0.1504 0.6625
H62 H 0.6547 0.1747 0.6799
N16 N 0.3367(3) 0.1509(2) 0.55261(17)
C71 C 0.3686(4) 0.1313(3) 0.5272(2)
C72 C 0.3328(5) 0.1184(3) 0.4910(2)
H63 H 0.3556 0.1046 0.4729
C73 C 0.2609(5) 0.1262(4) 0.4813(3)
C74 C 0.2314(5) 0.1481(3) 0.5074(3)
H64 H 0.1844 0.1552 0.5011
C75 C 0.2689(4) 0.1595(3) 0.5422(2)
H65 H 0.2472 0.1742 0.5603
C76 C 0.2228(6) 0.1110(4) 0.4418(3)
H66 H 0.2501 0.1259 0.4225
H67 H 0.2190 0.0769 0.4385
O6 O 0.1499(5) 0.1246(4) 0.4363(3)
H68 H 0.1447 0.1410 0.4169
N17 N 0.5388(3) 0.1293(2) 0.58135(16)
N18 N 0.4712(3) 0.13944(19) 0.57595(15)
C77 C 0.4429(4) 0.1255(2) 0.54017(19)
C78 C 0.4921(4) 0.1061(3) 0.5224(2)
H69 H 0.4858 0.0942 0.4968
C79 C 0.5516(4) 0.1078(2) 0.5497(2)
H70 H 0.5941 0.0961 0.5469
C80 C 0.5818(3) 0.1303(2) 0.61904(19)
H71 H 0.5690 0.1551 0.6348
H72 H 0.6324 0.1393 0.6162
C81 C 0.65835(19) 0.10682(11) 0.69888(10)
C82 C 0.68948(19) 0.09722(14) 0.73548(10)
H73 H 0.7253 0.1196 0.7496
C83 C 0.6681(2) 0.05490(15) 0.75146(9)
H74 H 0.6894 0.0483 0.7765
C84 C 0.6156(2) 0.02219(13) 0.73083(9)
H75 H 0.6011 -0.0067 0.7418
C85 C 0.58451(15) 0.03179(10) 0.69423(8)
C86 C 0.60586(14) 0.07411(10) 0.67826(8)
C87 C 0.5747(2) 0.08371(12) 0.64166(9)
C88 C 0.5222(2) 0.05099(15) 0.62104(9)
H76 H 0.5010 0.0576 0.5960
C89 C 0.5009(2) 0.00867(14) 0.63701(10)
H77 H 0.4650 -0.0137 0.6229
C90 C 0.5320(2) -0.00093(11) 0.67361(11)
H78 H 0.5174 -0.0299 0.6845
N19 N 0.6345(3) 0.29402(19) 0.40567(14)
C91 C 0.5704(3) 0.3048(2) 0.41151(17)
C92 C 0.5119(4) 0.2985(3) 0.38313(18)
H79 H 0.4675 0.3059 0.3880
C93 C 0.5179(4) 0.2814(3) 0.34708(19)
C94 C 0.5828(4) 0.2690(3) 0.34235(18)
H80 H 0.5882 0.2557 0.3186
C95 C 0.6396(4) 0.2756(2) 0.37170(17)
H81 H 0.6837 0.2670 0.3677
C96 C 0.4538(5) 0.2773(3) 0.3159(2)
H82 H 0.4118 0.2595 0.3250
H83 H 0.4428 0.3087 0.3090
O7 O 0.4694(4) 0.2540(3) 0.28349(17)
H84 H 0.4642 0.2252 0.2869
N20 N 0.6161(2) 0.35440(17) 0.50485(13)
N21 N 0.6316(3) 0.33295(17) 0.47374(13)
C97 C 0.5692(3) 0.3257(2) 0.44906(16)
C98 C 0.5152(3) 0.3423(2) 0.46420(16)
H85 H 0.4669 0.3409 0.4526
C99 C 0.5467(3) 0.3614(2) 0.49976(16)
H86 H 0.5242 0.3764 0.5173
C100 C 0.6729(3) 0.3793(2) 0.53328(16)
H87 H 0.7155 0.3636 0.5352
H88 H 0.6570 0.3783 0.5586
N22 N 0.8109(3) 0.45870(19) 0.74336(15)
C101 C 0.8719(3) 0.4468(2) 0.73528(17)
C102 C 0.9348(4) 0.4508(2) 0.76202(18)
H89 H 0.9773 0.4426 0.7551
C103 C 0.9336(4) 0.4668(2) 0.79885(19)
C104 C 0.8704(4) 0.4788(2) 0.80689(19)
H90 H 0.8680 0.4898 0.8319
C105 C 0.8110(4) 0.4750(2) 0.77933(18)
H91 H 0.7687 0.4840 0.7856
C106 C 0.9982(4) 0.4702(3) 0.8289(2)
H92 H 1.0094 0.5021 0.8404
H93 H 0.9886 0.4483 0.8494
O8 O 1.0576(3) 0.4594(2) 0.81254(16)
H94 H 1.0676 0.4336 0.8203
N23 N 0.8214(3) 0.40808(17) 0.63897(14)
N24 N 0.8077(3) 0.42509(18) 0.67251(14)
C107 C 0.8699(3) 0.4290(2) 0.69679(17)
C108 C 0.9241(3) 0.4160(2) 0.67838(17)
H95 H 0.9728 0.4161 0.6889
C109 C 0.8911(3) 0.4032(2) 0.64175(18)
H96 H 0.9132 0.3927 0.6219
C110 C 0.7714(3) 0.4083(2) 0.60385(16)
H97 H 0.7222 0.4011 0.6095
H98 H 0.7787 0.3838 0.5860
C111 C 0.6929(3) 0.4303(2) 0.52288(16)
C112 C 0.6614(3) 0.4441(2) 0.48774(17)
H99 H 0.6301 0.4215 0.4713
C113 C 0.6738(3) 0.4899(2) 0.47551(18)
H100 H 0.6499 0.4983 0.4516
C114 C 0.7204(3) 0.5219(2) 0.49824(19)
H101 H 0.7303 0.5528 0.4898
C115 C 0.7546(3) 0.5101(2) 0.53442(18)
C116 C 0.7428(3) 0.4635(2) 0.54774(17)
C117 C 0.7806(3) 0.4555(2) 0.58473(17)
C118 C 0.8278(3) 0.4911(2) 0.60478(19)
H102 H 0.8531 0.4849 0.6289
C119 C 0.8396(4) 0.5361(2) 0.5908(2)
H103 H 0.8727 0.5598 0.6053
C120 C 0.8037(4) 0.5456(2) 0.5566(2)
H104 H 0.8111 0.5762 0.5472
N25 N 0.7266(3) 0.50904(18) 0.67375(16)
C121 C 0.6824(3) 0.5115(2) 0.64094(19)
C122 C 0.6748(4) 0.5529(2) 0.6223(2)
H105 H 0.6431 0.5530 0.5989
C123 C 0.7138(4) 0.5936(3) 0.6382(3)
C124 C 0.7617(4) 0.5913(3) 0.6727(2)
H106 H 0.7901 0.6187 0.6846
C125 C 0.7661(4) 0.5492(2) 0.6885(2)
H107 H 0.7991 0.5479 0.7113
C126 C 0.7062(6) 0.6409(3) 0.6206(3)
H108 H 0.7019 0.6634 0.6408
H109 H 0.7497 0.6525 0.6096
O9 O 0.6481(5) 0.6382(3) 0.5926(3)
H110 H 0.6108 0.6348 0.6025
N26 N 0.5869(3) 0.39674(17) 0.63185(14)
N27 N 0.6365(3) 0.43129(17) 0.65020(14)
C127 C 0.6362(3) 0.4674(2) 0.62724(18)
C128 C 0.5865(3) 0.4572(2) 0.59405(17)
H111 H 0.5764 0.4767 0.5731
C129 C 0.5555(3) 0.4124(2) 0.59875(17)
H112 H 0.5180 0.3951 0.5814
C130 C 0.5574(3) 0.3561(2) 0.65179(17)
H113 H 0.5958 0.3460 0.6704
H114 H 0.5384 0.3301 0.6331
N28 N 0.3764(3) 0.10279(18) 0.63082(15)
C131 C 0.4106(3) 0.0987(2) 0.66711(18)
C132 C 0.3962(4) 0.0596(2) 0.6879(2)
H115 H 0.4189 0.0584 0.7136
C133 C 0.3483(4) 0.0221(3) 0.6710(2)
C134 C 0.3159(4) 0.0258(2) 0.6333(2)
H116 H 0.2837 0.0004 0.6206
C135 C 0.3314(4) 0.0665(2) 0.6152(2)
H117 H 0.3083 0.0688 0.5897
C136 C 0.3258(5) -0.0197(3) 0.6941(2)
H118 H 0.3199 -0.0486 0.6782
H119 H 0.3632 -0.0219 0.7164
O10 O 0.2608(6) -0.0152(4) 0.7067(4)
N29 N 0.5114(2) 0.21168(17) 0.68384(14)
N30 N 0.4631(3) 0.17834(17) 0.66212(14)
C137 C 0.4595(3) 0.1403(2) 0.68265(18)
C138 C 0.5055(3) 0.1478(2) 0.71774(18)
H120 H 0.5135 0.1261 0.7373
C139 C 0.5365(3) 0.1938(2) 0.71755(17)
H121 H 0.5698 0.2101 0.7376
C140 C 0.5138(3) 0.2603(2) 0.67534(17)
H122 H 0.5020 0.2634 0.6474
H123 H 0.5628 0.2767 0.6837
C141 C 0.4982(3) 0.3670(2) 0.67266(17)
C142 C 0.4832(3) 0.4122(2) 0.67223(18)
H124 H 0.5106 0.4348 0.6591
C143 C 0.4290(3) 0.4263(2) 0.69040(18)
H125 H 0.4198 0.4575 0.6888
C144 C 0.3902(3) 0.3950(2) 0.71017(19)
H126 H 0.3545 0.4045 0.7229
C145 C 0.4030(3) 0.3474(2) 0.71191(18)
C146 C 0.4561(3) 0.3324(2) 0.69273(17)
C147 C 0.4618(3) 0.2832(2) 0.69507(18)
C148 C 0.4183(3) 0.2543(2) 0.71545(19)
H127 H 0.4223 0.2222 0.7163
C149 C 0.3680(3) 0.2711(2) 0.7351(2)
H128 H 0.3398 0.2505 0.7494
C150 C 0.3602(3) 0.3172(2) 0.7335(2)
H129 H 0.3266 0.3288 0.7466
N31 N 0.3191(3) 0.1994(2) 0.63078(17)
C151 C 0.3208(3) 0.2458(2) 0.6273(2)
C152 C 0.2773(3) 0.2710(3) 0.6429(2)
H130 H 0.2805 0.3035 0.6394
C153 C 0.2280(4) 0.2479(3) 0.6642(2)
C154 C 0.2259(4) 0.2004(3) 0.6682(2)
H131 H 0.1930 0.1837 0.6824
C155 C 0.2718(3) 0.1773(3) 0.6514(2)
H132 H 0.2697 0.1447 0.6545
C156 C 0.1784(4) 0.2743(3) 0.6808(3)
H133 H 0.2066 0.3017 0.6955
H134 H 0.1461 0.2859 0.6596
O11 O 0.1366(3) 0.2478(2) 0.7050(2)
H135 H 0.1633 0.2352 0.7215
N32 N 0.4481(3) 0.26742(19) 0.56486(15)
N33 N 0.4107(3) 0.23996(19) 0.58786(15)
C157 C 0.3721(3) 0.2672(2) 0.6033(2)
C158 C 0.3845(3) 0.3137(2) 0.59107(19)
H136 H 0.3651 0.3400 0.5984
C159 C 0.4324(3) 0.3114(2) 0.56553(19)
H137 H 0.4508 0.3364 0.5510
C160 C 0.4839(3) 0.2483(2) 0.53666(18)
H138 H 0.5008 0.2193 0.5463
H139 H 0.5260 0.2708 0.5328
N34 N 0.7938(3) 0.2765(2) 0.42556(15)
C161 C 0.7946(4) 0.2310(3) 0.43134(18)
C162 C 0.8386(4) 0.2056(3) 0.4144(2)
H140 H 0.8381 0.1734 0.4190
C163 C 0.8822(4) 0.2278(3) 0.3912(2)
C164 C 0.8831(4) 0.2751(3) 0.3863(2)
H141 H 0.9141 0.2915 0.3709
C165 C 0.8385(4) 0.2985(3) 0.40404(18)
H142 H 0.8398 0.3310 0.4007
C166 C 0.9272(5) 0.2002(4) 0.3709(3)
H143 H 0.8973 0.1861 0.3472
H144 H 0.9665 0.2223 0.3632
O12 O 0.9558(5) 0.1662(4) 0.3904(3)
H145 H 0.9234 0.1442 0.3930
N35 N 0.6569(3) 0.20604(19) 0.48679(15)
N36 N 0.6988(3) 0.23486(18) 0.46643(14)
C167 C 0.7441(4) 0.2096(2) 0.45480(18)
C168 C 0.7309(4) 0.1632(2) 0.4676(2)
H146 H 0.7555 0.1381 0.4634
C169 C 0.6762(4) 0.1627(2) 0.48710(19)
H147 H 0.6544 0.1364 0.4991
C170 C 0.5913(3) 0.2186(2) 0.49596(18)
H148 H 0.5990 0.2523 0.5026
H149 H 0.5793 0.2016 0.5188
C171 C 0.4346(4) 0.2375(3) 0.49848(19)
C172 C 0.3657(4) 0.2469(3) 0.4960(2)
H150 H 0.3513 0.2589 0.5180
C173 C 0.3158(4) 0.2392(3) 0.4620(2)
H151 H 0.2694 0.2473 0.4607
C174 C 0.3356(4) 0.2202(3) 0.4314(2)
H152 H 0.3019 0.2138 0.4087
C175 C 0.4060(4) 0.2093(3) 0.4320(2)
C176 C 0.4578(4) 0.2184(3) 0.46590(19)
C177 C 0.5282(4) 0.2081(3) 0.46374(19)
C178 C 0.5409(4) 0.1884(3) 0.4300(2)
H153 H 0.5874 0.1817 0.4286
C179 C 0.4882(4) 0.1781(3) 0.3983(2)
H154 H 0.4985 0.1638 0.3761
C180 C 0.4226(4) 0.1883(3) 0.3992(2)
H155 H 0.3867 0.1812 0.3774
Co5 Co 0.74411(4) 0.02779(3) 0.13425(3)
Co6 Co 0.53434(4) 0.30545(3) 0.13525(2)
Co7 Co 0.84549(4) 0.26319(3) -0.04473(2)
Co8 Co 1.02820(4) 0.31948(3) 0.22189(2)
N37 N 0.8057(3) 0.0013(2) 0.18261(18)
C181 C 0.8187(4) 0.0276(2) 0.2152(2)
C182 C 0.8650(4) 0.0185(3) 0.2475(2)
H156 H 0.8733 0.0383 0.2697
C183 C 0.8991(4) -0.0206(3) 0.2465(2)
C184 C 0.8847(4) -0.0482(3) 0.2143(2)
H157 H 0.9056 -0.0758 0.2136
C185 C 0.8390(4) -0.0365(3) 0.1818(2)
H158 H 0.8315 -0.0553 0.1591
C186 C 0.9476(4) -0.0335(3) 0.2805(2)
H159 H 0.9248 -0.0627 0.2905
H160 H 0.9922 -0.0398 0.2722
O13 O 0.9655(3) 0.0007(2) 0.31071(17)
H161 H 0.9297 0.0134 0.3128
N38 N 0.7088(3) 0.11320(17) 0.18870(15)
N39 N 0.7390(3) 0.07609(18) 0.18087(15)
C187 C 0.7797(3) 0.0678(2) 0.21406(19)
C188 C 0.7756(3) 0.0992(2) 0.2431(2)
H162 H 0.7997 0.1007 0.2687
C189 C 0.7289(3) 0.1275(2) 0.22645(19)
H163 H 0.7132 0.1523 0.2387
C190 C 0.6503(3) 0.1280(2) 0.16289(19)
H164 H 0.6555 0.1197 0.1364
H165 H 0.6552 0.1623 0.1649
N40 N 0.4721(3) 0.33671(19) 0.09016(17)
C191 C 0.4611(3) 0.3133(2) 0.0559(2)
C192 C 0.4218(4) 0.3297(3) 0.0240(2)
H166 H 0.4150 0.3134 0.0001
C193 C 0.3924(4) 0.3699(3) 0.0272(3)
C194 C 0.4042(4) 0.3931(3) 0.0621(2)
H167 H 0.3849 0.4209 0.0650
C195 C 0.4445(4) 0.3753(3) 0.0929(2)
H168 H 0.4525 0.3916 0.1169
C196 C 0.3496(5) 0.3889(3) -0.0068(3)
H169 H 0.3096 0.4020 0.0015
H170 H 0.3802 0.4144 -0.0174
O14 O 0.3221(4) 0.3540(3) -0.0357(2)
H171 H 0.3457 0.3579 -0.0538
N41 N 0.5454(3) 0.21536(17) 0.08026(15)
N42 N 0.5238(3) 0.25601(18) 0.08880(15)
C197 C 0.4918(3) 0.2704(2) 0.05597(19)
C198 C 0.4927(3) 0.2394(2) 0.0253(2)
H172 H 0.4740 0.2418 -0.0009
C199 C 0.5270(3) 0.2050(2) 0.04245(19)
H173 H 0.5363 0.1783 0.0298
C200 C 0.5676(3) 0.1833(2) 0.10932(19)
H174 H 0.5907 0.2015 0.1328
H175 H 0.6038 0.1668 0.1004
C201 C 0.57314(11) 0.10721(12) 0.16929(10)
C202 C 0.57585(15) 0.07445(13) 0.19768(10)
H176 H 0.6204 0.0704 0.2121
C203 C 0.51343(18) 0.04761(13) 0.20491(10)
H177 H 0.5153 0.0252 0.2243
C204 C 0.44830(15) 0.05352(12) 0.18375(10)
H178 H 0.4056 0.0352 0.1887
C205 C 0.44559(11) 0.08628(9) 0.15537(8)
C206 C 0.50801(11) 0.11312(8) 0.14814(7)
C207 C 0.50531(14) 0.14588(11) 0.11975(9)
C208 C 0.44018(17) 0.15180(12) 0.09859(10)
H179 H 0.4383 0.1742 0.0792
C209 C 0.37776(14) 0.12496(13) 0.10582(10)
H180 H 0.3332 0.1290 0.0914
C210 C 0.38046(11) 0.09220(12) 0.13421(10)
H181 H 0.3378 0.0739 0.1392
N43 N 0.6410(3) -0.00647(19) 0.14100(17)
C211 C 0.5858(4) 0.0071(2) 0.1187(2)
C212 C 0.5153(4) -0.0110(2) 0.1196(2)
H182 H 0.4779 -0.0001 0.1029
C213 C 0.5004(4) -0.0457(3) 0.1458(2)
C214 C 0.5575(4) -0.0597(2) 0.1691(2)
H183 H 0.5492 -0.0830 0.1872
C215 C 0.6272(4) -0.0400(2) 0.1663(2)
H184 H 0.6658 -0.0502 0.1824
C216 C 0.4247(4) -0.0668(3) 0.1474(3)
H185 H 0.4173 -0.0999 0.1389
H186 H 0.4158 -0.0655 0.1741
O15 O 0.3765(3) -0.0437(3) 0.1243(2)
H187 H 0.3386 -0.0454 0.1336
N44 N 0.6764(3) 0.08826(17) 0.06164(16)
N45 N 0.6743(3) 0.05676(18) 0.08988(16)
C217 C 0.6047(3) 0.0427(2) 0.0913(2)
C218 C 0.5611(4) 0.0639(2) 0.0632(2)
H188 H 0.5105 0.0599 0.0582
C219 C 0.6085(3) 0.0922(2) 0.0445(2)
H189 H 0.5962 0.1110 0.0235
C220 C 0.7399(4) 0.1029(2) 0.04513(19)
H190 H 0.7819 0.1058 0.0656
H191 H 0.7375 0.1340 0.0342
N46 N 0.9440(3) 0.2994(2) -0.05535(16)
C221 C 1.0038(4) 0.2856(3) -0.0352(2)
C222 C 1.0710(4) 0.3077(3) -0.0391(2)
H192 H 1.1121 0.2978 -0.0250
C223 C 1.0781(5) 0.3448(3) -0.0639(3)
C224 C 1.0182(4) 0.3595(3) -0.0824(2)
H193 H 1.0216 0.3858 -0.0981
C225 C 0.9530(4) 0.3356(3) -0.0781(2)
H194 H 0.9117 0.3454 -0.0921
C226 C 1.1505(5) 0.3711(4) -0.0686(3)
H195 H 1.1596 0.4011 -0.0540
H196 H 1.1884 0.3527 -0.0587
O16 O 1.1503(5) 0.3793(3) -0.1094(3)
H197 H 1.1396 0.4058 -0.1145
N47 N 0.9257(3) 0.19382(18) 0.01656(15)
N48 N 0.9221(3) 0.22794(18) -0.00927(15)
C227 C 0.9906(3) 0.2476(2) -0.00961(19)
C228 C 1.0378(3) 0.2263(2) 0.01584(19)
H198 H 1.0882 0.2341 0.0212
C229 C 0.9951(3) 0.1914(2) 0.03161(19)
H199 H 1.0111 0.1696 0.0496
C230 C 0.8643(3) 0.1589(2) 0.01927(18)
H200 H 0.8203 0.1727 0.0120
H201 H 0.8661 0.1492 0.0461
C231 C 0.7500(4) 0.0686(2) 0.0134(2)
C232 C 0.6997(4) 0.0281(2) 0.0072(2)
H202 H 0.6622 0.0241 0.0221
C233 C 0.7017(5) -0.0067(3) -0.0196(2)
H203 H 0.6657 -0.0333 -0.0234
C234 C 0.7575(5) -0.0018(3) -0.0409(2)
H204 H 0.7605 -0.0253 -0.0590
C235 C 0.8103(4) 0.0388(3) -0.0349(2)
C236 C 0.8068(4) 0.0750(2) -0.0084(2)
C237 C 0.8615(4) 0.1158(2) -0.00654(19)
C238 C 0.9145(4) 0.1161(3) -0.0299(2)
H205 H 0.9491 0.1431 -0.0295
C239 C 0.9183(4) 0.0790(3) -0.0533(2)
H206 H 0.9570 0.0799 -0.0671
C240 C 0.8661(4) 0.0405(3) -0.0567(2)
H207 H 0.8676 0.0153 -0.0736
N49 N 0.7654(4) -0.0214(2) 0.0949(2)
C241 C 0.8234(4) -0.0085(3) 0.0779(2)
C242 C 0.8445(5) -0.0381(3) 0.0524(3)
H208 H 0.8844 -0.0280 0.0400
C243 C 0.8065(6) -0.0828(3) 0.0451(3)
C244 C 0.7461(6) -0.0952(3) 0.0623(3)
H209 H 0.7173 -0.1247 0.0571
C245 C 0.7295(5) -0.0633(3) 0.0872(3)
H210 H 0.6893 -0.0723 0.0995
C246 C 0.8351(7) -0.1137(4) 0.0187(4)
H211 H 0.8268 -0.1022 -0.0076
H212 H 0.8872 -0.1117 0.0266
O17 O 0.8033(6) -0.1604(3) 0.0186(3)
H213 H 0.7588 -0.1621 0.0137
N50 N 0.8943(3) 0.09895(18) 0.12501(15)
N51 N 0.8452(3) 0.05957(18) 0.11821(16)
C247 C 0.8647(4) 0.0366(2) 0.0897(2)
C248 C 0.9267(3) 0.0614(2) 0.0778(2)
H214 H 0.9507 0.0531 0.0579
C249 C 0.9433(3) 0.0993(2) 0.10106(19)
H215 H 0.9832 0.1228 0.1009
C250 C 0.9035(3) 0.1260(2) 0.16055(18)
H216 H 0.8567 0.1258 0.1689
H217 H 0.9234 0.1586 0.1564
N52 N 1.0083(3) 0.36581(18) 0.26427(14)
C251 C 0.9523(3) 0.3510(2) 0.28293(17)
C252 C 0.9350(3) 0.3776(2) 0.31190(18)
H218 H 0.8958 0.3662 0.3244
C253 C 0.9749(4) 0.4208(3) 0.3225(2)
C254 C 1.0308(4) 0.4363(3) 0.30319(19)
H219 H 1.0587 0.4660 0.3094
C255 C 1.0456(3) 0.4082(2) 0.27473(19)
H220 H 1.0843 0.4194 0.2618
C256 C 0.9566(4) 0.4497(3) 0.3545(2)
H221 H 1.0002 0.4572 0.3737
H222 H 0.9454 0.4795 0.3436
O18 O 0.9081(6) 0.4340(4) 0.3715(4)
H223 H 0.9246 0.4207 0.3912
N53 N 0.8930(2) 0.23952(17) 0.23867(14)
N54 N 0.9372(2) 0.28077(17) 0.24365(14)
C257 C 0.9140(3) 0.3047(2) 0.27062(16)
C258 C 0.8551(3) 0.2783(2) 0.28311(17)
H224 H 0.8287 0.2872 0.3017
C259 C 0.8442(3) 0.2375(2) 0.26296(17)
H225 H 0.8084 0.2118 0.2653
C260 C 0.9086(3) 0.2003(2) 0.21762(17)
H226 H 0.9345 0.2121 0.1967
H227 H 0.8633 0.1812 0.2059
C261 C 0.9537(3) 0.1059(2) 0.19175(19)
C262 C 0.9802(4) 0.0665(2) 0.1832(2)
H228 H 0.9663 0.0526 0.1583
C263 C 1.0277(4) 0.0458(3) 0.2102(2)
H229 H 1.0464 0.0192 0.2031
C264 C 1.0459(4) 0.0640(3) 0.2456(2)
H230 H 1.0772 0.0497 0.2637
C265 C 1.0199(4) 0.1041(2) 0.2571(2)
C266 C 0.9744(3) 0.1277(2) 0.22976(18)
C267 C 0.9539(3) 0.1696(2) 0.24347(18)
C268 C 0.9772(3) 0.1843(2) 0.28086(18)
H231 H 0.9638 0.2123 0.2893
C269 C 1.0191(3) 0.1604(2) 0.30698(19)
H232 H 1.0326 0.1712 0.3328
C270 C 1.0406(3) 0.1208(2) 0.2944(2)
H233 H 1.0705 0.1046 0.3117
N55 N 0.5479(3) 0.36049(18) 0.17690(16)
C271 C 0.6061(3) 0.3929(2) 0.17730(19)
C272 C 0.6259(3) 0.4281(2) 0.2054(2)
H234 H 0.6671 0.4506 0.2051
C273 C 0.5840(4) 0.4298(2) 0.2341(2)
C274 C 0.5254(4) 0.3964(2) 0.2332(2)
H235 H 0.4964 0.3965 0.2525
C275 C 0.5082(3) 0.3627(2) 0.2046(2)
H236 H 0.4668 0.3402 0.2044
C276 C 0.6030(4) 0.4658(3) 0.2655(2)
H237 H 0.5608 0.4809 0.2676
H238 H 0.6160 0.4505 0.2899
O19 O 0.6605(3) 0.5004(2) 0.25982(18)
H239 H 0.6449 0.5253 0.2536
N56 N 0.6736(3) 0.35709(17) 0.09665(15)
N57 N 0.6275(3) 0.35122(17) 0.12233(15)
C277 C 0.6477(3) 0.3886(2) 0.14701(19)
C278 C 0.7065(3) 0.4180(2) 0.13660(19)
H240 H 0.7311 0.4461 0.1491
C279 C 0.7200(3) 0.3970(2) 0.10471(19)
H241 H 0.7563 0.4086 0.0903
C280 C 0.6629(3) 0.3289(2) 0.06188(18)
H242 H 0.6362 0.2979 0.0661
H243 H 0.7098 0.3242 0.0556
N58 N 0.8364(3) 0.20763(19) -0.08580(14)
C281 C 0.7830(3) 0.1718(2) -0.08360(17)
C282 C 0.7743(3) 0.1316(2) -0.10525(18)
H244 H 0.7377 0.1068 -0.1020
C283 C 0.8185(4) 0.1270(3) -0.13184(19)
C284 C 0.8733(4) 0.1644(2) -0.13392(19)
H245 H 0.9055 0.1627 -0.1514
C285 C 0.8803(4) 0.2033(2) -0.11082(18)
H246 H 0.9178 0.2281 -0.1127
C286 C 0.8103(4) 0.0844(3) -0.1568(2)
H247 H 0.8013 0.0935 -0.1838
H248 H 0.8558 0.0717 -0.1529
O20 O 0.7554(3) 0.0493(2) -0.15050(17)
H249 H 0.7257 0.0609 -0.1398
N59 N 0.6930(3) 0.21923(18) -0.01635(15)
N60 N 0.7480(3) 0.21987(18) -0.03650(14)
C287 C 0.7348(3) 0.1799(2) -0.05693(17)
C288 C 0.6714(3) 0.1527(2) -0.05081(18)
H250 H 0.6508 0.1229 -0.0617
C289 C 0.6456(3) 0.1793(2) -0.02523(18)
H251 H 0.6022 0.1711 -0.0155
C290 C 0.6801(3) 0.2607(2) 0.00282(18)
H252 H 0.7262 0.2808 0.0116
H253 H 0.6580 0.2515 0.0256
C291 C 0.6220(3) 0.3511(2) 0.02834(19)
C292 C 0.5976(4) 0.3920(2) 0.0351(2)
H254 H 0.6087 0.4056 0.0602
C293 C 0.5567(4) 0.4150(3) 0.0065(2)
H255 H 0.5418 0.4436 0.0122
C294 C 0.5391(4) 0.3952(3) -0.0290(2)
H256 H 0.5095 0.4094 -0.0480
C295 C 0.5646(4) 0.3532(3) -0.0387(2)
C296 C 0.6076(3) 0.3305(2) -0.01017(19)
C297 C 0.6310(3) 0.2887(2) -0.02326(19)
C298 C 0.6108(4) 0.2737(3) -0.0608(2)
H257 H 0.6277 0.2469 -0.0690
C299 C 0.5669(4) 0.2959(3) -0.0875(2)
H258 H 0.5530 0.2836 -0.1129
C300 C 0.5442(4) 0.3354(3) -0.0765(2)
H259 H 0.5145 0.3511 -0.0944
N61 N 0.7813(3) 0.30470(19) -0.07997(15)
C301 C 0.7677(4) 0.3436(2) -0.06277(18)
C302 C 0.7276(4) 0.3740(2) -0.0822(2)
H260 H 0.7192 0.4012 -0.0697
C303 C 0.6994(4) 0.3643(3) -0.1205(2)
C304 C 0.7117(4) 0.3240(2) -0.13756(19)
H261 H 0.6920 0.3163 -0.1635
C305 C 0.7531(3) 0.2949(2) -0.11654(18)
H262 H 0.7615 0.2673 -0.1284
C306 C 0.6595(4) 0.3981(3) -0.1442(2)
H263 H 0.6922 0.4277 -0.1446
H264 H 0.6468 0.3855 -0.1707
O21 O 0.5966(7) 0.4079(5) -0.1317(4)
H265 H 0.5828 0.3871 -0.1171
N62 N 0.8680(3) 0.33809(18) 0.02908(14)
N63 N 0.8430(3) 0.32132(18) -0.00714(14)
C307 C 0.8015(3) 0.3515(2) -0.02302(17)
C308 C 0.7982(3) 0.3875(2) 0.00356(18)
H266 H 0.7716 0.4126 -0.0002
C309 C 0.8421(3) 0.3778(2) 0.03581(18)
H267 H 0.8527 0.3958 0.0590
C310 C 0.9265(3) 0.3210(2) 0.05296(17)
H268 H 0.9253 0.2879 0.0459
H269 H 0.9185 0.3223 0.0798
N64 N 1.0919(2) 0.28065(19) 0.25953(14)
C311 C 1.1100(3) 0.2421(2) 0.24426(17)
C312 C 1.1523(3) 0.2136(2) 0.26535(18)
H270 H 1.1648 0.1870 0.2539
C313 C 1.1755(3) 0.2249(3) 0.30344(19)
C314 C 1.1558(3) 0.2628(3) 0.31969(19)
H271 H 1.1705 0.2703 0.3461
C315 C 1.1138(3) 0.2902(2) 0.29687(18)
H272 H 1.1002 0.3166 0.3081
C316 C 1.2267(4) 0.1969(3) 0.3279(2)
H273 H 1.2721 0.2177 0.3370
H274 H 1.2057 0.1860 0.3507
O22 O 1.2410(4) 0.1591(3) 0.3086(2)
H275 H 1.2835 0.1638 0.3049
N65 N 1.0343(2) 0.24990(17) 0.14777(13)
N66 N 1.0498(2) 0.26562(17) 0.18426(13)
C317 C 1.0843(3) 0.2341(2) 0.20341(16)
C318 C 1.0914(3) 0.1973(2) 0.17903(17)
H276 H 1.1132 0.1705 0.1855
C319 C 1.0588(3) 0.2092(2) 0.14310(17)
H277 H 1.0546 0.1920 0.1198
C320 C 1.0113(3) 0.2791(2) 0.11640(16)
H278 H 0.9824 0.3009 0.1257
H279 H 0.9800 0.2590 0.0960
C321 C 1.07354(14) 0.30835(11) 0.09833(9)
C322 C 1.13957(17) 0.30095(12) 0.11747(9)
H280 H 1.1423 0.2788 0.1371
C323 C 1.20161(14) 0.32592(13) 0.10796(10)
H281 H 1.2467 0.3209 0.1210
C324 C 1.19763(11) 0.35829(13) 0.07930(10)
H282 H 1.2400 0.3754 0.0728
C325 C 1.13160(12) 0.36568(9) 0.06015(7)
C326 C 1.06956(11) 0.34071(8) 0.06966(7)
C327 C 1.00353(12) 0.34811(12) 0.05052(9)
C328 C 0.99954(15) 0.38047(13) 0.02185(10)
H283 H 0.9544 0.3855 0.0088
C329 C 1.06159(18) 0.40544(13) 0.01234(10)
H284 H 1.0589 0.4276 -0.0073
C330 C 1.12762(16) 0.39805(12) 0.03149(10)
H285 H 1.1700 0.4151 0.0250
N67 N 1.1132(3) 0.36504(18) 0.20297(15)
C331 C 1.0951(3) 0.3898(2) 0.17214(18)
C332 C 1.1451(3) 0.4165(2) 0.15357(19)
H286 H 1.1305 0.4334 0.1316
C333 C 1.2175(4) 0.4178(3) 0.1680(2)
C334 C 1.2358(4) 0.3933(3) 0.1998(2)
H287 H 1.2846 0.3943 0.2103
C335 C 1.1838(3) 0.3672(2) 0.2166(2)
H288 H 1.1977 0.3502 0.2386
C336 C 1.2730(4) 0.4472(3) 0.1484(2)
H289 H 1.2811 0.4797 0.1585
H290 H 1.2560 0.4473 0.1206
O23 O 1.3425(4) 0.4265(3) 0.1561(2)
H291 H 1.3352 0.4008 0.1667
N68 N 0.9070(2) 0.36597(17) 0.16390(14)
N69 N 0.9741(2) 0.36017(17) 0.17974(14)
C337 C 1.0181(3) 0.3873(2) 0.15976(17)
C338 C 0.9793(3) 0.4105(2) 0.13122(17)
H292 H 0.9973 0.4314 0.1133
C339 C 0.9085(3) 0.3962(2) 0.13513(17)
H293 H 0.8682 0.4059 0.1201
C340 C 0.8455(3) 0.3494(2) 0.18226(17)
H294 H 0.8542 0.3204 0.1955
H295 H 0.8035 0.3413 0.1621
N70 N 0.4463(3) 0.26209(18) 0.15274(16)
C341 C 0.4622(3) 0.2299(2) 0.17878(19)
C342 C 0.4113(3) 0.1960(2) 0.1901(2)
H296 H 0.4247 0.1741 0.2086
C343 C 0.3407(3) 0.1948(3) 0.1739(2)
C344 C 0.3241(3) 0.2269(2) 0.1466(2)
H297 H 0.2762 0.2264 0.1347
C345 C 0.3772(3) 0.2596(2) 0.1367(2)
H298 H 0.3648 0.2813 0.1178
C346 C 0.2815(4) 0.1597(3) 0.1853(2)
H299 H 0.2429 0.1762 0.1912
H300 H 0.2615 0.1378 0.1634
O24 O 0.3050(4) 0.1346(3) 0.2167(2)
H301 H 0.3262 0.1136 0.2098
N71 N 0.6493(3) 0.26214(18) 0.20108(15)
N72 N 0.5843(2) 0.26606(17) 0.18111(15)
C347 C 0.5385(3) 0.2337(2) 0.19487(18)
C348 C 0.5730(3) 0.2085(2) 0.22295(19)
H302 H 0.5526 0.1834 0.2367
C349 C 0.6439(3) 0.2280(2) 0.22658(19)
H303 H 0.6820 0.2191 0.2439
C350 C 0.7119(3) 0.2969(2) 0.19999(18)
H304 H 0.7057 0.3126 0.1752
H305 H 0.7540 0.2808 0.2010
C351 C 0.82605(16) 0.38405(10) 0.21196(8)
C352 C 0.87537(16) 0.42462(12) 0.21574(9)
H306 H 0.9088 0.4301 0.1986
C353 C 0.87571(16) 0.45720(10) 0.24464(10)
H307 H 0.9094 0.4849 0.2472
C354 C 0.82674(17) 0.44919(9) 0.26977(9)
H308 H 0.8270 0.4715 0.2895
C355 C 0.77742(13) 0.40862(8) 0.26599(7)
C356 C 0.77707(12) 0.37604(8) 0.23709(6)
C357 C 0.72775(16) 0.33547(9) 0.23331(9)
C358 C 0.67878(16) 0.32746(10) 0.25843(10)
H309 H 0.6451 0.2997 0.2559
C359 C 0.67913(16) 0.36004(12) 0.28734(10)
H310 H 0.6457 0.3546 0.3045
C360 C 0.72845(17) 0.40061(11) 0.29111(8)
H311 H 0.7287 0.4229 0.3109
Cl1 Cl 0.68287(7) 0.26679(5) 0.60909(4)
O25 O 0.6752(3) 0.22478(19) 0.58585(16)
O26 O 0.7533(3) 0.2928(2) 0.60964(15)
O27 O 0.6306(3) 0.29488(19) 0.59266(16)
O28 O 0.6709(3) 0.25529(19) 0.64714(14)
Cl2 Cl 0.79054(7) 0.22996(5) 0.11127(4)
O29 O 0.8525(3) 0.21115(18) 0.10456(16)
O30 O 0.7298(3) 0.20824(19) 0.08505(16)
O31 O 0.8016(3) 0.27924(17) 0.10566(16)
O32 O 0.7786(3) 0.2201(2) 0.14937(15)
Cl3 Cl 0.70401(11) 0.17523(9) 0.32434(5)
O33 O 0.7633(4) 0.1516(3) 0.3235(2)
O34 O 0.6457(3) 0.1555(2) 0.29503(16)
O35 O 0.7232(3) 0.2243(3) 0.31614(18)
O36 O 0.6810(3) 0.1720(2) 0.36104(16)
Cl4 Cl 0.53402(11) 0.43561(9) 0.36739(6)
O37 O 0.5786(4) 0.4116(3) 0.35081(19)
O38 O 0.5251(5) 0.4778(3) 0.3559(2)
O39 O 0.4642(4) 0.4039(3) 0.3538(3)
O40 O 0.5428(4) 0.4303(3) 0.40767(18)
Cl5 Cl 0.30627(8) 0.28000(8) 0.24095(5)
O41 O 0.3748(3) 0.2986(2) 0.23103(17)
O42 O 0.3105(3) 0.2347(2) 0.25613(19)
O43 O 0.2902(3) 0.3102(2) 0.27031(16)
O44 O 0.2517(3) 0.2762(2) 0.20837(17)
Cl6 Cl 0.82374(15) 0.57455(11) 0.31104(9)
O45 O 0.7675(4) 0.5362(3) 0.3226(2)
O46 O 0.8908(4) 0.5542(3) 0.3154(3)
O47 O 0.8380(5) 0.6109(3) 0.3408(3)
O48 O 0.7965(5) 0.5958(4) 0.2759(3)
Cl7 Cl 0.83483(12) 0.73300(13) 0.46045(9)
O49 O 0.7627(4) 0.7122(4) 0.4502(3)
O50 O 0.8871(5) 0.7065(4) 0.4507(3)
O51 O 0.8483(4) 0.7336(4) 0.5017(3)
O52 O 0.8510(5) 0.7762(4) 0.4472(3)
Cl8 Cl 0.0795(3) 0.33142(12) 0.39426(12)
O53 O 0.1072(7) 0.3596(3) 0.3679(3)
O54 O 0.0463(6) 0.2899(3) 0.3808(3)
O55 O 0.1082(8) 0.3406(4) 0.4297(3)
O56 O 0.0049(8) 0.3554(4) 0.3978(4)
Cl9 Cl 0.1171(2) 0.53316(9) 0.08234(9)
O57 O 0.1137(5) 0.5723(2) 0.1041(2)
O58 O 0.1911(6) 0.5176(3) 0.0997(3)
O59 O 0.0706(5) 0.4945(2) 0.09103(19)
O60 O 0.1153(6) 0.5408(3) 0.0453(2)
Cl10 Cl 0.9661(2) 0.90253(16) 0.14328(11)
O61 O 0.9661(6) 0.9482(4) 0.1289(3)
O62 O 1.0130(5) 0.9008(4) 0.1774(3)
O63 O 0.9862(6) 0.8709(5) 0.1147(3)
O64 O 0.8968(5) 0.8822(4) 0.1489(3)
Cl11 Cl 0.73347(14) 0.89154(8) 0.25913(8)
O65 O 0.7800(5) 0.9027(3) 0.2952(3)
O66 O 0.7158(4) 0.9342(3) 0.2475(2)
O67 O 0.7731(5) 0.8707(3) 0.2353(3)
O68 O 0.6722(4) 0.8601(3) 0.2656(2)
Cl12 Cl 0.53554(16) 0.90965(9) 0.04068(8)
O69 O 0.5752(4) 0.9514(2) 0.0349(2)
O70 O 0.5650(5) 0.8937(3) 0.0781(3)
O71 O 0.5247(6) 0.8750(3) 0.0147(3)
O72 O 0.4605(5) 0.9210(3) 0.0439(3)
Cl13 Cl 0.37712(13) 0.80479(9) 0.17657(5)
O73 O 0.3780(3) 0.8009(2) 0.13739(15)
O74 O 0.4380(4) 0.8361(3) 0.1947(2)
O75 O 0.3621(4) 0.7668(2) 0.19606(19)
O76 O 0.3180(5) 0.8372(3) 0.1792(2)
Cl14 Cl 0.14269(10) 0.12471(8) 0.08857(7)
O77 O 0.1581(4) 0.1751(3) 0.0858(2)
O78 O 0.2019(3) 0.1028(3) 0.0835(2)
O79 O 0.1221(4) 0.1133(2) 0.1257(2)
O80 O 0.0840(3) 0.1091(2) 0.05947(19)
O81 O 0.4083(3) 0.48254(17) 0.90511(14)
O82 O 0.6382(3) 0.02555(19) 0.47540(16)
O83 O 0.9685(3) 0.6102(2) 0.3928(2)
O84 O 0.3862(4) 0.3983(2) 0.2815(2)
O85 O 0.4679(4) 0.4674(2) 0.4714(2)
O86 O 0.4130(4) 0.4036(2) 0.5219(2)
O87 O 0.6189(4) 0.5633(3) 0.40985(19)
O88 O 0.2333(4) 0.2851(3) 0.9923(2)
O89 O 0.0935(4) 0.0272(3) 0.3634(3)
O90 O 0.2772(6) 0.2302(3) 0.0514(2)
O91 O 0.2128(5) 0.0858(3) 0.3518(2)
O92 O 0.2166(5) 0.2713(3) 0.7779(3)
O93 O 0.7094(5) 0.7947(3) 0.1858(2)
O94 O 0.8379(5) 0.4751(2) 0.0764(3)
O95 O 0.3465(5) 0.0584(3) 0.3767(3)
O96 O 0.9394(5) 0.4865(3) 0.0355(3)
O97 O 0.8264(4) 0.5345(4) 0.1335(2)
O98 O 0.8212(8) 0.9716(4) 0.8427(3)
O99 O 0.8214(5) 0.7752(5) 0.0702(4)
O100 O 0.5145(7) 0.8151(4) 0.1092(4)
O101 O 0.2789(6) 0.3512(4) 0.4871(4)
O102 O 0.8549(7) 0.9993(5) 0.3465(4)
O103 O 0.0155(6) 0.5050(4) 0.4466(4)
O104 O 0.7443(6) 0.6182(4) 0.3945(3)
O105 O 0.3730(7) 0.1625(5) 0.2855(3)
O106 O 0.4253(7) 0.0340(4) 0.4433(4)
O107 O 0.6576(7) 0.8247(5) 0.9975(4)
O108 O 0.7141(7) 0.7617(5) 0.1096(4)
O109 O 0.1176(10) 0.2078(6) 0.4082(5)
O110 O 0.6026(10) 0.7730(6) 0.0593(5)
O111 O 0.9154(10) 0.0786(7) 0.4011(6)
O112 O 0.0499(10) 0.0492(7) 0.4266(6)
O113 O 0.4948(10) 0.1658(6) 0.2954(5)
O114 O 0.5627(8) 0.7762(5) 0.1753(5)
O115 O 0.7379(8) 0.5063(6) 0.0213(5)
O116 O 0.2910(9) 0.4962(6) 0.0520(5)
loop_
_geom_bond_atom_site_label_1
_geom_bond_atom_site_label_2
_geom_bond_site_symmetry_1
_geom_bond_site_symmetry_2
Co1 N1 1_555 1_555
Co2 N4 1_555 1_555
Co3 N10 1_555 1_555
Co4 N16 1_555 1_555
N1 C1 1_555 1_555
C1 C2 1_555 1_555
C2 H1 1_555 1_555
C3 C2 1_555 1_555
C4 C3 1_555 1_555
H2 C4 1_555 1_555
C5 N1 1_555 1_555
H3 C5 1_555 1_555
C6 C3 1_555 1_555
H4 C6 1_555 1_555
H5 C6 1_555 1_555
O1 C6 1_555 1_555
H6 O1 1_555 1_555
N2 N3 1_555 1_555
N3 Co1 1_555 1_555
C7 C1 1_555 1_555
C8 C7 1_555 1_555
H7 C8 1_555 1_555
C9 N2 1_555 1_555
H8 C9 1_555 1_555
C10 N2 1_555 1_555
H9 C10 1_555 1_555
H10 C10 1_555 1_555
N4 C11 1_555 1_555
C11 C12 1_555 1_555
C12 H11 1_555 1_555
C13 C12 1_555 1_555
C14 C13 1_555 1_555
H12 C14 1_555 1_555
C15 N4 1_555 1_555
H13 C15 1_555 1_555
C16 C13 1_555 1_555
H14 C16 1_555 1_555
H15 C16 1_555 1_555
O2 C16 1_555 1_555
H16 O2 1_555 1_555
N5 N6 1_555 1_555
N6 Co2 1_555 1_555
C17 C11 1_555 1_555
C18 C17 1_555 1_555
H17 C18 1_555 1_555
C19 N5 1_555 1_555
H18 C19 1_555 1_555
C20 N5 1_555 1_555
H19 C20 1_555 1_555
H20 C20 1_555 1_555
C21 C10 1_555 1_555
C22 C21 1_555 1_555
H21 C22 1_555 1_555
C23 C22 1_555 1_555
H22 C23 1_555 1_555
C24 C23 1_555 1_555
H23 C24 1_555 1_555
C25 C24 1_555 1_555
C26 C21 1_555 1_555
C27 C20 1_555 1_555
C28 C27 1_555 1_555
H24 C28 1_555 1_555
C29 C28 1_555 1_555
H25 C29 1_555 1_555
C30 C25 1_555 1_555
H26 C30 1_555 1_555
N7 Co1 1_555 1_555
C31 N7 1_555 1_555
C32 C31 1_555 1_555
H27 C32 1_555 1_555
C33 C32 1_555 1_555
C34 C33 1_555 1_555
H28 C34 1_555 1_555
C35 N7 1_555 1_555
H29 C35 1_555 1_555
C36 C33 1_555 1_555
H30 C36 1_555 1_555
H31 C36 1_555 1_555
O3 C36 1_555 1_555
H32 O3 1_555 1_555
N8 N9 1_555 1_555
N9 Co1 1_555 1_555
C37 C31 1_555 1_555
C38 C37 1_555 1_555
H33 C38 1_555 1_555
C39 N8 1_555 1_555
H34 C39 1_555 1_555
C40 N8 1_555 1_555
H35 C40 1_555 1_555
H36 C40 1_555 1_555
N10 C41 1_555 1_555
C41 C42 1_555 1_555
C42 H37 1_555 1_555
C43 C42 1_555 1_555
C44 C43 1_555 1_555
H38 C44 1_555 1_555
C45 N10 1_555 1_555
H39 C45 1_555 1_555
C46 C43 1_555 1_555
H40 C46 1_555 1_555
H41 C46 1_555 1_555
O4 C46 1_555 1_555
H42 O4 1_555 1_555
N11 N12 1_555 1_555
N12 Co3 1_555 1_555
C47 C41 1_555 1_555
C48 C47 1_555 1_555
H43 C48 1_555 1_555
C49 N11 1_555 1_555
H44 C49 1_555 1_555
C50 N11 1_555 1_555
H45 C50 1_555 1_555
H46 C50 1_555 1_555
C51 C40 1_555 1_555
C52 C51 1_555 1_555
H47 C52 1_555 1_555
C53 C52 1_555 1_555
H48 C53 1_555 1_555
C54 C53 1_555 1_555
H49 C54 1_555 1_555
C55 C54 1_555 1_555
C56 C51 1_555 1_555
C57 C50 1_555 1_555
C58 C57 1_555 1_555
H50 C58 1_555 1_555
C59 C58 1_555 1_555
H51 C59 1_555 1_555
C60 C55 1_555 1_555
H52 C60 1_555 1_555
N13 Co1 1_555 1_555
C61 N13 1_555 1_555
C62 C61 1_555 1_555
H53 C62 1_555 1_555
C63 C62 1_555 1_555
C64 C63 1_555 1_555
H54 C64 1_555 1_555
C65 N13 1_555 1_555
H55 C65 1_555 1_555
C66 C63 1_555 1_555
H56 C66 1_555 1_555
H57 C66 1_555 1_555
O5 C66 1_555 1_555
H58 O5 1_555 1_555
N14 N15 1_555 1_555
N15 Co1 1_555 1_555
C67 C61 1_555 1_555
C68 C67 1_555 1_555
H59 C68 1_555 1_555
C69 N14 1_555 1_555
H60 C69 1_555 1_555
C70 N14 1_555 1_555
H61 C70 1_555 1_555
H62 C70 1_555 1_555
N16 C71 1_555 1_555
C71 C72 1_555 1_555
C72 H63 1_555 1_555
C73 C72 1_555 1_555
C74 C73 1_555 1_555
H64 C74 1_555 1_555
C75 N16 1_555 1_555
H65 C75 1_555 1_555
C76 C73 1_555 1_555
H66 C76 1_555 1_555
H67 C76 1_555 1_555
O6 C76 1_555 1_555
H68 O6 1_555 1_555
N17 N18 1_555 1_555
N18 Co4 1_555 1_555
C77 C71 1_555 1_555
C78 C77 1_555 1_555
H69 C78 1_555 1_555
C79 N17 1_555 1_555
H70 C79 1_555 1_555
C80 N17 1_555 1_555
H71 C80 1_555 1_555
H72 C80 1_555 1_555
C81 C70 1_555 1_555
C82 C81 1_555 1_555
H73 C82 1_555 1_555
C83 C82 1_555 1_555
H74 C83 1_555 1_555
C84 C83 1_555 1_555
H75 C84 1_555 1_555
C85 C84 1_555 1_555
C86 C81 1_555 1_555
C87 C80 1_555 1_555
C88 C87 1_555 1_555
H76 C88 1_555 1_555
C89 C88 1_555 1_555
H77 C89 1_555 1_555
C90 C85 1_555 1_555
H78 C90 1_555 1_555
N19 Co2 1_555 1_555
C91 N19 1_555 1_555
C92 C91 1_555 1_555
H79 C92 1_555 1_555
C93 C92 1_555 1_555
C94 C93 1_555 1_555
H80 C94 1_555 1_555
C95 N19 1_555 1_555
H81 C95 1_555 1_555
C96 C93 1_555 1_555
H82 C96 1_555 1_555
H83 C96 1_555 1_555
O7 C96 1_555 1_555
H84 O7 1_555 1_555
N20 N21 1_555 1_555
N21 Co2 1_555 1_555
C97 C91 1_555 1_555
C98 C97 1_555 1_555
H85 C98 1_555 1_555
C99 N20 1_555 1_555
H86 C99 1_555 1_555
C100 N20 1_555 1_555
H87 C100 1_555 1_555
H88 C100 1_555 1_555
N22 Co3 1_555 1_555
C101 N22 1_555 1_555
C102 C101 1_555 1_555
H89 C102 1_555 1_555
C103 C102 1_555 1_555
C104 C103 1_555 1_555
H90 C104 1_555 1_555
C105 N22 1_555 1_555
H91 C105 1_555 1_555
C106 C103 1_555 1_555
H92 C106 1_555 1_555
H93 C106 1_555 1_555
O8 C106 1_555 1_555
H94 O8 1_555 1_555
N23 N24 1_555 1_555
N24 Co3 1_555 1_555
C107 C101 1_555 1_555
C108 C107 1_555 1_555
H95 C108 1_555 1_555
C109 N23 1_555 1_555
H96 C109 1_555 1_555
C110 N23 1_555 1_555
H97 C110 1_555 1_555
H98 C110 1_555 1_555
C111 C100 1_555 1_555
C112 C111 1_555 1_555
H99 C112 1_555 1_555
C113 C112 1_555 1_555
H100 C113 1_555 1_555
C114 C113 1_555 1_555
H101 C114 1_555 1_555
C115 C114 1_555 1_555
C116 C111 1_555 1_555
C117 C110 1_555 1_555
C118 C117 1_555 1_555
H102 C118 1_555 1_555
C119 C118 1_555 1_555
H103 C119 1_555 1_555
C120 C115 1_555 1_555
H104 C120 1_555 1_555
N25 Co3 1_555 1_555
C121 N25 1_555 1_555
C122 C121 1_555 1_555
H105 C122 1_555 1_555
C123 C122 1_555 1_555
C124 C123 1_555 1_555
H106 C124 1_555 1_555
C125 N25 1_555 1_555
H107 C125 1_555 1_555
C126 C123 1_555 1_555
H108 C126 1_555 1_555
H109 C126 1_555 1_555
O9 C126 1_555 1_555
H110 O9 1_555 1_555
N26 N27 1_555 1_555
N27 Co3 1_555 1_555
C127 C121 1_555 1_555
C128 C127 1_555 1_555
H111 C128 1_555 1_555
C129 N26 1_555 1_555
H112 C129 1_555 1_555
C130 N26 1_555 1_555
H113 C130 1_555 1_555
H114 C130 1_555 1_555
N28 Co4 1_555 1_555
C131 N28 1_555 1_555
C132 C131 1_555 1_555
H115 C132 1_555 1_555
C133 C132 1_555 1_555
C134 C133 1_555 1_555
H116 C134 1_555 1_555
C135 N28 1_555 1_555
H117 C135 1_555 1_555
C136 C133 1_555 1_555
H118 C136 1_555 1_555
H119 C136 1_555 1_555
O10 C136 1_555 1_555
N29 N30 1_555 1_555
N30 Co4 1_555 1_555
C137 C131 1_555 1_555
C138 C137 1_555 1_555
H120 C138 1_555 1_555
C139 N29 1_555 1_555
H121 C139 1_555 1_555
C140 N29 1_555 1_555
H122 C140 1_555 1_555
H123 C140 1_555 1_555
C141 C130 1_555 1_555
C142 C141 1_555 1_555
H124 C142 1_555 1_555
C143 C142 1_555 1_555
H125 C143 1_555 1_555
C144 C143 1_555 1_555
H126 C144 1_555 1_555
C145 C144 1_555 1_555
C146 C141 1_555 1_555
C147 C140 1_555 1_555
C148 C147 1_555 1_555
H127 C148 1_555 1_555
C149 C148 1_555 1_555
H128 C149 1_555 1_555
C150 C145 1_555 1_555
H129 C150 1_555 1_555
N31 Co4 1_555 1_555
C151 N31 1_555 1_555
C152 C151 1_555 1_555
H130 C152 1_555 1_555
C153 C152 1_555 1_555
C154 C153 1_555 1_555
H131 C154 1_555 1_555
C155 N31 1_555 1_555
H132 C155 1_555 1_555
C156 C153 1_555 1_555
H133 C156 1_555 1_555
H134 C156 1_555 1_555
O11 C156 1_555 1_555
H135 O11 1_555 1_555
N32 N33 1_555 1_555
N33 Co4 1_555 1_555
C157 C151 1_555 1_555
C158 C157 1_555 1_555
H136 C158 1_555 1_555
C159 N32 1_555 1_555
H137 C159 1_555 1_555
C160 N32 1_555 1_555
H138 C160 1_555 1_555
H139 C160 1_555 1_555
N34 Co2 1_555 1_555
C161 N34 1_555 1_555
C162 C161 1_555 1_555
H140 C162 1_555 1_555
C163 C162 1_555 1_555
C164 C163 1_555 1_555
H141 C164 1_555 1_555
C165 N34 1_555 1_555
H142 C165 1_555 1_555
C166 C163 1_555 1_555
H143 C166 1_555 1_555
H144 C166 1_555 1_555
O12 C166 1_555 1_555
H145 O12 1_555 1_555
N35 N36 1_555 1_555
N36 Co2 1_555 1_555
C167 C161 1_555 1_555
C168 C167 1_555 1_555
H146 C168 1_555 1_555
C169 N35 1_555 1_555
H147 C169 1_555 1_555
C170 N35 1_555 1_555
H148 C170 1_555 1_555
H149 C170 1_555 1_555
C171 C160 1_555 1_555
C172 C171 1_555 1_555
H150 C172 1_555 1_555
C173 C172 1_555 1_555
H151 C173 1_555 1_555
C174 C173 1_555 1_555
H152 C174 1_555 1_555
C175 C174 1_555 1_555
C176 C171 1_555 1_555
C177 C170 1_555 1_555
C178 C177 1_555 1_555
H153 C178 1_555 1_555
C179 C178 1_555 1_555
H154 C179 1_555 1_555
C180 C175 1_555 1_555
H155 C180 1_555 1_555
Co5 N37 1_555 1_555
Co6 N40 1_555 1_555
Co7 N46 1_555 1_555
Co8 N52 1_555 1_555
N37 C181 1_555 1_555
C181 C182 1_555 1_555
C182 H156 1_555 1_555
C183 C182 1_555 1_555
C184 C183 1_555 1_555
H157 C184 1_555 1_555
C185 N37 1_555 1_555
H158 C185 1_555 1_555
C186 C183 1_555 1_555
H159 C186 1_555 1_555
H160 C186 1_555 1_555
O13 C186 1_555 1_555
H161 O13 1_555 1_555
N38 N39 1_555 1_555
N39 Co5 1_555 1_555
C187 C181 1_555 1_555
C188 C187 1_555 1_555
H162 C188 1_555 1_555
C189 N38 1_555 1_555
H163 C189 1_555 1_555
C190 N38 1_555 1_555
H164 C190 1_555 1_555
H165 C190 1_555 1_555
N40 C191 1_555 1_555
C191 C192 1_555 1_555
C192 H166 1_555 1_555
C193 C192 1_555 1_555
C194 C193 1_555 1_555
H167 C194 1_555 1_555
C195 N40 1_555 1_555
H168 C195 1_555 1_555
C196 C193 1_555 1_555
H169 C196 1_555 1_555
H170 C196 1_555 1_555
O14 C196 1_555 1_555
H171 O14 1_555 1_555
N41 N42 1_555 1_555
N42 Co6 1_555 1_555
C197 C191 1_555 1_555
C198 C197 1_555 1_555
H172 C198 1_555 1_555
C199 N41 1_555 1_555
H173 C199 1_555 1_555
C200 N41 1_555 1_555
H174 C200 1_555 1_555
H175 C200 1_555 1_555
C201 C190 1_555 1_555
C202 C201 1_555 1_555
H176 C202 1_555 1_555
C203 C202 1_555 1_555
H177 C203 1_555 1_555
C204 C203 1_555 1_555
H178 C204 1_555 1_555
C205 C204 1_555 1_555
C206 C201 1_555 1_555
C207 C200 1_555 1_555
C208 C207 1_555 1_555
H179 C208 1_555 1_555
C209 C208 1_555 1_555
H180 C209 1_555 1_555
C210 C205 1_555 1_555
H181 C210 1_555 1_555
N43 Co5 1_555 1_555
C211 N43 1_555 1_555
C212 C211 1_555 1_555
H182 C212 1_555 1_555
C213 C212 1_555 1_555
C214 C213 1_555 1_555
H183 C214 1_555 1_555
C215 N43 1_555 1_555
H184 C215 1_555 1_555
C216 C213 1_555 1_555
H185 C216 1_555 1_555
H186 C216 1_555 1_555
O15 C216 1_555 1_555
H187 O15 1_555 1_555
N44 N45 1_555 1_555
N45 Co5 1_555 1_555
C217 C211 1_555 1_555
C218 C217 1_555 1_555
H188 C218 1_555 1_555
C219 N44 1_555 1_555
H189 C219 1_555 1_555
C220 N44 1_555 1_555
H190 C220 1_555 1_555
H191 C220 1_555 1_555
N46 C221 1_555 1_555
C221 C222 1_555 1_555
C222 H192 1_555 1_555
C223 C222 1_555 1_555
C224 C223 1_555 1_555
H193 C224 1_555 1_555
C225 N46 1_555 1_555
H194 C225 1_555 1_555
C226 C223 1_555 1_555
H195 C226 1_555 1_555
H196 C226 1_555 1_555
O16 C226 1_555 1_555
H197 O16 1_555 1_555
N47 N48 1_555 1_555
N48 Co7 1_555 1_555
C227 C221 1_555 1_555
C228 C227 1_555 1_555
H198 C228 1_555 1_555
C229 N47 1_555 1_555
H199 C229 1_555 1_555
C230 N47 1_555 1_555
H200 C230 1_555 1_555
H201 C230 1_555 1_555
C231 C220 1_555 1_555
C232 C231 1_555 1_555
H202 C232 1_555 1_555
C233 C232 1_555 1_555
H203 C233 1_555 1_555
C234 C233 1_555 1_555
H204 C234 1_555 1_555
C235 C234 1_555 1_555
C236 C231 1_555 1_555
C237 C230 1_555 1_555
C238 C237 1_555 1_555
H205 C238 1_555 1_555
C239 C238 1_555 1_555
H206 C239 1_555 1_555
C240 C235 1_555 1_555
H207 C240 1_555 1_555
N49 Co5 1_555 1_555
C241 N49 1_555 1_555
C242 C241 1_555 1_555
H208 C242 1_555 1_555
C243 C242 1_555 1_555
C244 C243 1_555 1_555
H209 C244 1_555 1_555
C245 N49 1_555 1_555
H210 C245 1_555 1_555
C246 C243 1_555 1_555
H211 C246 1_555 1_555
H212 C246 1_555 1_555
O17 C246 1_555 1_555
H213 O17 1_555 1_555
N50 N51 1_555 1_555
N51 Co5 1_555 1_555
C247 C241 1_555 1_555
C248 C247 1_555 1_555
H214 C248 1_555 1_555
C249 N50 1_555 1_555
H215 C249 1_555 1_555
C250 N50 1_555 1_555
H216 C250 1_555 1_555
H217 C250 1_555 1_555
N52 C251 1_555 1_555
C251 C252 1_555 1_555
C252 H218 1_555 1_555
C253 C252 1_555 1_555
C254 C253 1_555 1_555
H219 C254 1_555 1_555
C255 N52 1_555 1_555
H220 C255 1_555 1_555
C256 C253 1_555 1_555
H221 C256 1_555 1_555
H222 C256 1_555 1_555
O18 C256 1_555 1_555
H223 O18 1_555 1_555
N53 N54 1_555 1_555
N54 Co8 1_555 1_555
C257 C251 1_555 1_555
C258 C257 1_555 1_555
H224 C258 1_555 1_555
C259 N53 1_555 1_555
H225 C259 1_555 1_555
C260 N53 1_555 1_555
H226 C260 1_555 1_555
H227 C260 1_555 1_555
C261 C250 1_555 1_555
C262 C261 1_555 1_555
H228 C262 1_555 1_555
C263 C262 1_555 1_555
H229 C263 1_555 1_555
C264 C263 1_555 1_555
H230 C264 1_555 1_555
C265 C264 1_555 1_555
C266 C261 1_555 1_555
C267 C260 1_555 1_555
C268 C267 1_555 1_555
H231 C268 1_555 1_555
C269 C268 1_555 1_555
H232 C269 1_555 1_555
C270 C265 1_555 1_555
H233 C270 1_555 1_555
N55 Co6 1_555 1_555
C271 N55 1_555 1_555
C272 C271 1_555 1_555
H234 C272 1_555 1_555
C273 C272 1_555 1_555
C274 C273 1_555 1_555
H235 C274 1_555 1_555
C275 N55 1_555 1_555
H236 C275 1_555 1_555
C276 C273 1_555 1_555
H237 C276 1_555 1_555
H238 C276 1_555 1_555
O19 C276 1_555 1_555
H239 O19 1_555 1_555
N56 N57 1_555 1_555
N57 Co6 1_555 1_555
C277 C271 1_555 1_555
C278 C277 1_555 1_555
H240 C278 1_555 1_555
C279 N56 1_555 1_555
H241 C279 1_555 1_555
C280 N56 1_555 1_555
H242 C280 1_555 1_555
H243 C280 1_555 1_555
N58 Co7 1_555 1_555
C281 N58 1_555 1_555
C282 C281 1_555 1_555
H244 C282 1_555 1_555
C283 C282 1_555 1_555
C284 C283 1_555 1_555
H245 C284 1_555 1_555
C285 N58 1_555 1_555
H246 C285 1_555 1_555
C286 C283 1_555 1_555
H247 C286 1_555 1_555
H248 C286 1_555 1_555
O20 C286 1_555 1_555
H249 O20 1_555 1_555
N59 N60 1_555 1_555
N60 Co7 1_555 1_555
C287 C281 1_555 1_555
C288 C287 1_555 1_555
H250 C288 1_555 1_555
C289 N59 1_555 1_555
H251 C289 1_555 1_555
C290 N59 1_555 1_555
H252 C290 1_555 1_555
H253 C290 1_555 1_555
C291 C280 1_555 1_555
C292 C291 1_555 1_555
H254 C292 1_555 1_555
C293 C292 1_555 1_555
H255 C293 1_555 1_555
C294 C293 1_555 1_555
H256 C294 1_555 1_555
C295 C294 1_555 1_555
C296 C291 1_555 1_555
C297 C290 1_555 1_555
C298 C297 1_555 1_555
H257 C298 1_555 1_555
C299 C298 1_555 1_555
H258 C299 1_555 1_555
C300 C295 1_555 1_555
H259 C300 1_555 1_555
N61 Co7 1_555 1_555
C301 N61 1_555 1_555
C302 C301 1_555 1_555
H260 C302 1_555 1_555
C303 C302 1_555 1_555
C304 C303 1_555 1_555
H261 C304 1_555 1_555
C305 N61 1_555 1_555
H262 C305 1_555 1_555
C306 C303 1_555 1_555
H263 C306 1_555 1_555
H264 C306 1_555 1_555
O21 C306 1_555 1_555
H265 O21 1_555 1_555
N62 N63 1_555 1_555
N63 Co7 1_555 1_555
C307 C301 1_555 1_555
C308 C307 1_555 1_555
H266 C308 1_555 1_555
C309 N62 1_555 1_555
H267 C309 1_555 1_555
C310 N62 1_555 1_555
H268 C310 1_555 1_555
H269 C310 1_555 1_555
N64 Co8 1_555 1_555
C311 N64 1_555 1_555
C312 C311 1_555 1_555
H270 C312 1_555 1_555
C313 C312 1_555 1_555
C314 C313 1_555 1_555
H271 C314 1_555 1_555
C315 N64 1_555 1_555
H272 C315 1_555 1_555
C316 C313 1_555 1_555
H273 C316 1_555 1_555
H274 C316 1_555 1_555
O22 C316 1_555 1_555
H275 O22 1_555 1_555
N65 N66 1_555 1_555
N66 Co8 1_555 1_555
C317 C311 1_555 1_555
C318 C317 1_555 1_555
H276 C318 1_555 1_555
C319 N65 1_555 1_555
H277 C319 1_555 1_555
C320 N65 1_555 1_555
H278 C320 1_555 1_555
H279 C320 1_555 1_555
C321 C320 1_555 1_555
C322 C321 1_555 1_555
H280 C322 1_555 1_555
C323 C322 1_555 1_555
H281 C323 1_555 1_555
C324 C323 1_555 1_555
H282 C324 1_555 1_555
C325 C324 1_555 1_555
C326 C321 1_555 1_555
C327 C310 1_555 1_555
C328 C327 1_555 1_555
H283 C328 1_555 1_555
C329 C328 1_555 1_555
H284 C329 1_555 1_555
C330 C325 1_555 1_555
H285 C330 1_555 1_555
N67 Co8 1_555 1_555
C331 N67 1_555 1_555
C332 C331 1_555 1_555
H286 C332 1_555 1_555
C333 C332 1_555 1_555
C334 C333 1_555 1_555
H287 C334 1_555 1_555
C335 N67 1_555 1_555
H288 C335 1_555 1_555
C336 C333 1_555 1_555
H289 C336 1_555 1_555
H290 C336 1_555 1_555
O23 C336 1_555 1_555
H291 O23 1_555 1_555
N68 N69 1_555 1_555
N69 Co8 1_555 1_555
C337 C331 1_555 1_555
C338 C337 1_555 1_555
H292 C338 1_555 1_555
C339 N68 1_555 1_555
H293 C339 1_555 1_555
C340 N68 1_555 1_555
H294 C340 1_555 1_555
H295 C340 1_555 1_555
N70 Co6 1_555 1_555
C341 N70 1_555 1_555
C342 C341 1_555 1_555
H296 C342 1_555 1_555
C343 C342 1_555 1_555
C344 C343 1_555 1_555
H297 C344 1_555 1_555
C345 N70 1_555 1_555
H298 C345 1_555 1_555
C346 C343 1_555 1_555
H299 C346 1_555 1_555
H300 C346 1_555 1_555
O24 C346 1_555 1_555
H301 O24 1_555 1_555
N71 N72 1_555 1_555
N72 Co6 1_555 1_555
C347 C341 1_555 1_555
C348 C347 1_555 1_555
H302 C348 1_555 1_555
C349 N71 1_555 1_555
H303 C349 1_555 1_555
C350 N71 1_555 1_555
H304 C350 1_555 1_555
H305 C350 1_555 1_555
C351 C340 1_555 1_555
C352 C351 1_555 1_555
H306 C352 1_555 1_555
C353 C352 1_555 1_555
H307 C353 1_555 1_555
C354 C353 1_555 1_555
H308 C354 1_555 1_555
C355 C354 1_555 1_555
C356 C351 1_555 1_555
C357 C350 1_555 1_555
C358 C357 1_555 1_555
H309 C358 1_555 1_555
C359 C358 1_555 1_555
H310 C359 1_555 1_555
C360 C355 1_555 1_555
H311 C360 1_555 1_555
Cl1 O25 1_555 1_555
O26 Cl1 1_555 1_555
O27 Cl1 1_555 1_555
O28 Cl1 1_555 1_555
Cl2 O29 1_555 1_555
O30 Cl2 1_555 1_555
O31 Cl2 1_555 1_555
O32 Cl2 1_555 1_555
Cl3 O33 1_555 1_555
O34 Cl3 1_555 1_555
O35 Cl3 1_555 1_555
O36 Cl3 1_555 1_555
Cl4 O37 1_555 1_555
O38 Cl4 1_555 1_555
O39 Cl4 1_555 1_555
O40 Cl4 1_555 1_555
Cl5 O41 1_555 1_555
O42 Cl5 1_555 1_555
O43 Cl5 1_555 1_555
O44 Cl5 1_555 1_555
Cl6 O45 1_555 1_555
O46 Cl6 1_555 1_555
O47 Cl6 1_555 1_555
O48 Cl6 1_555 1_555
Cl7 O49 1_555 1_555
O50 Cl7 1_555 1_555
O51 Cl7 1_555 1_555
O52 Cl7 1_555 1_555
Cl8 O53 1_555 1_555
O54 Cl8 1_555 1_555
O55 Cl8 1_555 1_555
O56 Cl8 1_555 1_555
Cl9 O57 1_555 1_555
O58 Cl9 1_555 1_555
O59 Cl9 1_555 1_555
O60 Cl9 1_555 1_555
Cl10 O61 1_555 1_555
O62 Cl10 1_555 1_555
O63 Cl10 1_555 1_555
O64 Cl10 1_555 1_555
Cl11 O65 1_555 1_555
O66 Cl11 1_555 1_555
O67 Cl11 1_555 1_555
O68 Cl11 1_555 1_555
Cl12 O69 1_555 1_555
O70 Cl12 1_555 1_555
O71 Cl12 1_555 1_555
O72 Cl12 1_555 1_555
Cl13 O73 1_555 1_555
O74 Cl13 1_555 1_555
O75 Cl13 1_555 1_555
O76 Cl13 1_555 1_555
Cl14 O77 1_555 1_555
O78 Cl14 1_555 1_555
O79 Cl14 1_555 1_555
O80 Cl14 1_555 1_555
C4 C5 1_555 1_555
N3 C7 1_555 1_555
C8 C9 1_555 1_555
C14 C15 1_555 1_555
N6 C17 1_555 1_555
C18 C19 1_555 1_555
C25 C26 1_555 1_555
C26 C27 1_555 1_555
C29 C30 1_555 1_555
C34 C35 1_555 1_555
N9 C37 1_555 1_555
C38 C39 1_555 1_555
C44 C45 1_555 1_555
N12 C47 1_555 1_555
C48 C49 1_555 1_555
C55 C56 1_555 1_555
C56 C57 1_555 1_555
C59 C60 1_555 1_555
C64 C65 1_555 1_555
N15 C67 1_555 1_555
C68 C69 1_555 1_555
C74 C75 1_555 1_555
N18 C77 1_555 1_555
C78 C79 1_555 1_555
C85 C86 1_555 1_555
C86 C87 1_555 1_555
C89 C90 1_555 1_555
C94 C95 1_555 1_555
N21 C97 1_555 1_555
C98 C99 1_555 1_555
C104 C105 1_555 1_555
N24 C107 1_555 1_555
C108 C109 1_555 1_555
C115 C116 1_555 1_555
C116 C117 1_555 1_555
C119 C120 1_555 1_555
C124 C125 1_555 1_555
N27 C127 1_555 1_555
C128 C129 1_555 1_555
C134 C135 1_555 1_555
N30 C137 1_555 1_555
C138 C139 1_555 1_555
C145 C146 1_555 1_555
C146 C147 1_555 1_555
C149 C150 1_555 1_555
C154 C155 1_555 1_555
N33 C157 1_555 1_555
C158 C159 1_555 1_555
C164 C165 1_555 1_555
N36 C167 1_555 1_555
C168 C169 1_555 1_555
C175 C176 1_555 1_555
C176 C177 1_555 1_555
C179 C180 1_555 1_555
C184 C185 1_555 1_555
N39 C187 1_555 1_555
C188 C189 1_555 1_555
C194 C195 1_555 1_555
N42 C197 1_555 1_555
C198 C199 1_555 1_555
C205 C206 1_555 1_555
C206 C207 1_555 1_555
C209 C210 1_555 1_555
C214 C215 1_555 1_555
N45 C217 1_555 1_555
C218 C219 1_555 1_555
C224 C225 1_555 1_555
N48 C227 1_555 1_555
C228 C229 1_555 1_555
C235 C236 1_555 1_555
C236 C237 1_555 1_555
C239 C240 1_555 1_555
C244 C245 1_555 1_555
N51 C247 1_555 1_555
C248 C249 1_555 1_555
C254 C255 1_555 1_555
N54 C257 1_555 1_555
C258 C259 1_555 1_555
C265 C266 1_555 1_555
C266 C267 1_555 1_555
C269 C270 1_555 1_555
C274 C275 1_555 1_555
N57 C277 1_555 1_555
C278 C279 1_555 1_555
C284 C285 1_555 1_555
N60 C287 1_555 1_555
C288 C289 1_555 1_555
C295 C296 1_555 1_555
C296 C297 1_555 1_555
C299 C300 1_555 1_555
C304 C305 1_555 1_555
N63 C307 1_555 1_555
C308 C309 1_555 1_555
C314 C315 1_555 1_555
N66 C317 1_555 1_555
C318 C319 1_555 1_555
C325 C326 1_555 1_555
C326 C327 1_555 1_555
C329 C330 1_555 1_555
C334 C335 1_555 1_555
N69 C337 1_555 1_555
C338 C339 1_555 1_555
C344 C345 1_555 1_555
N72 C347 1_555 1_555
C348 C349 1_555 1_555
C355 C356 1_555 1_555
C356 C357 1_555 1_555
C359 C360 1_555 1_555

#END
