# generated using pymatgen
data_Co4B3H192C180N36(O4F3)6
_symmetry_space_group_name_H-M   'P 1'
_cell_length_a   18.88500000
_cell_length_b   18.88500000
_cell_length_c   35.52777204
_cell_angle_alpha   74.58681353
_cell_angle_beta   74.58681353
_cell_angle_gamma   60.00000000
_symmetry_Int_Tables_number   1
_chemical_formula_structural   Co4B3H192C180N36(O4F3)6
_chemical_formula_sum   'Co8 B6 H384 C360 N72 O48 F36'
_cell_volume   10443.65690253
_cell_formula_units_Z   2
loop_
 _symmetry_equiv_pos_site_id
 _symmetry_equiv_pos_as_xyz
  1  'x, y, z'
loop_
 _atom_site_type_symbol
 _atom_site_label
 _atom_site_symmetry_multiplicity
 _atom_site_fract_x
 _atom_site_fract_y
 _atom_site_fract_z
 _atom_site_occupancy
  B  B1  1  0.603133  0.250000  0.250033  1
  B  B2  1  0.896833  0.603133  0.250033  1
  B  B3  1  0.250000  0.896833  0.250033  1
  B  B4  1  0.396867  0.750000  0.749967  1
  B  B5  1  0.103167  0.396867  0.749967  1
  B  B6  1  0.750000  0.103167  0.749967  1
  C  C7  1  0.523400  0.865200  0.505200  1.0
  C  C8  1  0.106200  0.523400  0.505200  1.0
  C  C9  1  0.865200  0.106200  0.505200  1.0
  C  C10  1  0.393800  0.634800  0.994800  1.0
  C  C11  1  0.976600  0.393800  0.994800  1.0
  C  C12  1  0.634800  0.976600  0.994800  1.0
  C  C13  1  0.476600  0.134800  0.494800  1.0
  C  C14  1  0.893800  0.476600  0.494800  1.0
  C  C15  1  0.134800  0.893800  0.494800  1.0
  C  C16  1  0.606200  0.365200  0.005200  1.0
  C  C17  1  0.023400  0.606200  0.005200  1.0
  C  C18  1  0.365200  0.023400  0.005200  1.0
  C  C19  1  0.606920  0.861820  0.481740  1.0
  C  C20  1  0.049520  0.606920  0.481740  1.0
  C  C21  1  0.861820  0.049520  0.481740  1.0
  C  C22  1  0.450480  0.638180  0.018260  1.0
  C  C23  1  0.893080  0.450480  0.018260  1.0
  C  C24  1  0.638180  0.893080  0.018260  1.0
  C  C25  1  0.393080  0.138180  0.518260  1.0
  C  C26  1  0.950480  0.393080  0.518260  1.0
  C  C27  1  0.138180  0.950480  0.518260  1.0
  C  C28  1  0.549520  0.361820  0.981740  1.0
  C  C29  1  0.106920  0.549520  0.981740  1.0
  C  C30  1  0.361820  0.106920  0.981740  1.0
  C  C31  1  0.681820  0.798620  0.492540  1.0
  C  C32  1  0.027020  0.681820  0.492540  1.0
  C  C33  1  0.798620  0.027020  0.492540  1.0
  C  C34  1  0.472980  0.701380  0.007460  1.0
  C  C35  1  0.818180  0.472980  0.007460  1.0
  C  C36  1  0.701380  0.818180  0.007460  1.0
  C  C37  1  0.318180  0.201380  0.507460  1.0
  C  C38  1  0.972980  0.318180  0.507460  1.0
  C  C39  1  0.201380  0.972980  0.507460  1.0
  C  C40  1  0.527020  0.298620  0.992540  1.0
  C  C41  1  0.181820  0.527020  0.992540  1.0
  C  C42  1  0.298620  0.181820  0.992540  1.0
  C  C43  1  0.755930  0.796730  0.471210  1.0
  C  C44  1  0.976130  0.755930  0.471210  1.0
  C  C45  1  0.796730  0.976130  0.471210  1.0
  C  C46  1  0.523870  0.703270  0.028790  1.0
  C  C47  1  0.744070  0.523870  0.028790  1.0
  C  C48  1  0.703270  0.744070  0.028790  1.0
  C  C49  1  0.244070  0.203270  0.528790  1.0
  C  C50  1  0.023870  0.244070  0.528790  1.0
  C  C51  1  0.203270  0.023870  0.528790  1.0
  C  C52  1  0.476130  0.296730  0.971210  1.0
  C  C53  1  0.255930  0.476130  0.971210  1.0
  C  C54  1  0.296730  0.255930  0.971210  1.0
  C  C55  1  0.680050  0.921250  0.428250  1.0
  C  C56  1  0.970450  0.680050  0.428250  1.0
  C  C57  1  0.921250  0.970450  0.428250  1.0
  C  C58  1  0.529550  0.578750  0.071750  1.0
  C  C59  1  0.819950  0.529550  0.071750  1.0
  C  C60  1  0.578750  0.819950  0.071750  1.0
  C  C61  1  0.319950  0.078750  0.571750  1.0
  C  C62  1  0.029550  0.319950  0.571750  1.0
  C  C63  1  0.078750  0.029550  0.571750  1.0
  C  C64  1  0.470450  0.421250  0.928250  1.0
  C  C65  1  0.180050  0.470450  0.928250  1.0
  C  C66  1  0.421250  0.180050  0.928250  1.0
  C  C67  1  0.605930  0.923130  0.449610  1.0
  C  C68  1  0.021330  0.605930  0.449610  1.0
  C  C69  1  0.923130  0.021330  0.449610  1.0
  C  C70  1  0.478670  0.576870  0.050390  1.0
  C  C71  1  0.894070  0.478670  0.050390  1.0
  C  C72  1  0.576870  0.894070  0.050390  1.0
  C  C73  1  0.394070  0.076870  0.550390  1.0
  C  C74  1  0.978670  0.394070  0.550390  1.0
  C  C75  1  0.076870  0.978670  0.550390  1.0
  C  C76  1  0.521330  0.423130  0.949610  1.0
  C  C77  1  0.105930  0.521330  0.949610  1.0
  C  C78  1  0.423130  0.105930  0.949610  1.0
  C  C79  1  0.687670  0.974870  0.394290  1.0
  C  C80  1  0.943170  0.687670  0.394290  1.0
  C  C81  1  0.974870  0.943170  0.394290  1.0
  C  C82  1  0.556830  0.525130  0.105710  1.0
  C  C83  1  0.812330  0.556830  0.105710  1.0
  C  C84  1  0.525130  0.812330  0.105710  1.0
  C  C85  1  0.312330  0.025130  0.605710  1.0
  C  C86  1  0.056830  0.312330  0.605710  1.0
  C  C87  1  0.025130  0.056830  0.605710  1.0
  C  C88  1  0.443170  0.474870  0.894290  1.0
  C  C89  1  0.187670  0.443170  0.894290  1.0
  C  C90  1  0.474870  0.187670  0.894290  1.0
  C  C91  1  0.627400  0.045700  0.373800  1.0
  C  C92  1  0.953100  0.627400  0.373800  1.0
  C  C93  1  0.045700  0.953100  0.373800  1.0
  C  C94  1  0.546900  0.454300  0.126200  1.0
  C  C95  1  0.872600  0.546900  0.126200  1.0
  C  C96  1  0.454300  0.872600  0.126200  1.0
  C  C97  1  0.372600  0.954300  0.626200  1.0
  C  C98  1  0.046900  0.372600  0.626200  1.0
  C  C99  1  0.954300  0.046900  0.626200  1.0
  C  C100  1  0.453100  0.545700  0.873800  1.0
  C  C101  1  0.127400  0.453100  0.873800  1.0
  C  C102  1  0.545700  0.127400  0.873800  1.0
  C  C103  1  0.669690  0.078890  0.340830  1.0
  C  C104  1  0.910590  0.669690  0.340830  1.0
  C  C105  1  0.078890  0.910590  0.340830  1.0
  C  C106  1  0.589410  0.421110  0.159170  1.0
  C  C107  1  0.830310  0.589410  0.159170  1.0
  C  C108  1  0.421110  0.830310  0.159170  1.0
  C  C109  1  0.330310  0.921110  0.659170  1.0
  C  C110  1  0.089410  0.330310  0.659170  1.0
  C  C111  1  0.921110  0.089410  0.659170  1.0
  C  C112  1  0.410590  0.578890  0.840830  1.0
  C  C113  1  0.169690  0.410590  0.840830  1.0
  C  C114  1  0.578890  0.169690  0.840830  1.0
  C  C115  1  0.820930  0.037530  0.316110  1.0
  C  C116  1  0.825430  0.820930  0.316110  1.0
  C  C117  1  0.037530  0.825430  0.316110  1.0
  C  C118  1  0.674570  0.462470  0.183890  1.0
  C  C119  1  0.679070  0.674570  0.183890  1.0
  C  C120  1  0.462470  0.679070  0.183890  1.0
  C  C121  1  0.179070  0.962470  0.683890  1.0
  C  C122  1  0.174570  0.179070  0.683890  1.0
  C  C123  1  0.962470  0.174570  0.683890  1.0
  C  C124  1  0.325430  0.537530  0.816110  1.0
  C  C125  1  0.320930  0.325430  0.816110  1.0
  C  C126  1  0.537530  0.320930  0.816110  1.0
  C  C127  1  0.845250  0.094950  0.329550  1.0
  C  C128  1  0.730250  0.845250  0.329550  1.0
  C  C129  1  0.094950  0.730250  0.329550  1.0
  C  C130  1  0.769750  0.405050  0.170450  1.0
  C  C131  1  0.654750  0.769750  0.170450  1.0
  C  C132  1  0.405050  0.654750  0.170450  1.0
  C  C133  1  0.154750  0.905050  0.670450  1.0
  C  C134  1  0.269750  0.154750  0.670450  1.0
  C  C135  1  0.905050  0.269750  0.670450  1.0
  C  C136  1  0.230250  0.594950  0.829550  1.0
  C  C137  1  0.345250  0.230250  0.829550  1.0
  C  C138  1  0.594950  0.345250  0.829550  1.0
  C  C139  1  0.797390  0.123990  0.364530  1.0
  C  C140  1  0.714090  0.797390  0.364530  1.0
  C  C141  1  0.123990  0.714090  0.364530  1.0
  C  C142  1  0.785910  0.376010  0.135470  1.0
  C  C143  1  0.702610  0.785910  0.135470  1.0
  C  C144  1  0.376010  0.702610  0.135470  1.0
  C  C145  1  0.202610  0.876010  0.635470  1.0
  C  C146  1  0.285910  0.202610  0.635470  1.0
  C  C147  1  0.876010  0.285910  0.635470  1.0
  C  C148  1  0.214090  0.623990  0.864530  1.0
  C  C149  1  0.297390  0.214090  0.864530  1.0
  C  C150  1  0.623990  0.297390  0.864530  1.0
  C  C151  1  0.814190  0.171890  0.381030  1.0
  C  C152  1  0.632890  0.814190  0.381030  1.0
  C  C153  1  0.171890  0.632890  0.381030  1.0
  C  C154  1  0.867110  0.328110  0.118970  1.0
  C  C155  1  0.685810  0.867110  0.118970  1.0
  C  C156  1  0.328110  0.685810  0.118970  1.0
  C  C157  1  0.185810  0.828110  0.618970  1.0
  C  C158  1  0.367110  0.185810  0.618970  1.0
  C  C159  1  0.828110  0.367110  0.618970  1.0
  C  C160  1  0.132890  0.671890  0.881030  1.0
  C  C161  1  0.314190  0.132890  0.881030  1.0
  C  C162  1  0.671890  0.314190  0.881030  1.0
  C  C163  1  0.878750  0.190850  0.362550  1.0
  C  C164  1  0.567850  0.878750  0.362550  1.0
  C  C165  1  0.190850  0.567850  0.362550  1.0
  C  C166  1  0.932150  0.309150  0.137450  1.0
  C  C167  1  0.621250  0.932150  0.137450  1.0
  C  C168  1  0.309150  0.621250  0.137450  1.0
  C  C169  1  0.121250  0.809150  0.637450  1.0
  C  C170  1  0.432150  0.121250  0.637450  1.0
  C  C171  1  0.809150  0.432150  0.637450  1.0
  C  C172  1  0.067850  0.690850  0.862550  1.0
  C  C173  1  0.378750  0.067850  0.862550  1.0
  C  C174  1  0.690850  0.378750  0.862550  1.0
  C  C175  1  0.926610  0.161810  0.327570  1.0
  C  C176  1  0.584010  0.926610  0.327570  1.0
  C  C177  1  0.161810  0.584010  0.327570  1.0
  C  C178  1  0.915990  0.338190  0.172430  1.0
  C  C179  1  0.573390  0.915990  0.172430  1.0
  C  C180  1  0.338190  0.573390  0.172430  1.0
  C  C181  1  0.073390  0.838190  0.672430  1.0
  C  C182  1  0.415990  0.073390  0.672430  1.0
  C  C183  1  0.838190  0.415990  0.672430  1.0
  C  C184  1  0.084010  0.661810  0.827570  1.0
  C  C185  1  0.426610  0.084010  0.827570  1.0
  C  C186  1  0.661810  0.426610  0.827570  1.0
  C  C187  1  0.909810  0.113910  0.311070  1.0
  C  C188  1  0.665210  0.909810  0.311070  1.0
  C  C189  1  0.113910  0.665210  0.311070  1.0
  C  C190  1  0.834790  0.386090  0.188930  1.0
  C  C191  1  0.590190  0.834790  0.188930  1.0
  C  C192  1  0.386090  0.590190  0.188930  1.0
  C  C193  1  0.090190  0.886090  0.688930  1.0
  C  C194  1  0.334790  0.090190  0.688930  1.0
  C  C195  1  0.886090  0.334790  0.688930  1.0
  C  C196  1  0.165210  0.613910  0.811070  1.0
  C  C197  1  0.409810  0.165210  0.811070  1.0
  C  C198  1  0.613910  0.409810  0.811070  1.0
  C  C199  1  0.957670  0.084770  0.276090  1.0
  C  C200  1  0.681470  0.957670  0.276090  1.0
  C  C201  1  0.084770  0.681470  0.276090  1.0
  C  C202  1  0.818530  0.415230  0.223910  1.0
  C  C203  1  0.542330  0.818530  0.223910  1.0
  C  C204  1  0.415230  0.542330  0.223910  1.0
  C  C205  1  0.042330  0.915230  0.723910  1.0
  C  C206  1  0.318530  0.042330  0.723910  1.0
  C  C207  1  0.915230  0.318530  0.723910  1.0
  C  C208  1  0.181470  0.584770  0.776090  1.0
  C  C209  1  0.457670  0.181470  0.776090  1.0
  C  C210  1  0.584770  0.457670  0.776090  1.0
  C  C211  1  0.022330  0.103630  0.257610  1.0
  C  C212  1  0.616430  0.022330  0.257610  1.0
  C  C213  1  0.103630  0.616430  0.257610  1.0
  C  C214  1  0.883570  0.396370  0.242390  1.0
  C  C215  1  0.477670  0.883570  0.242390  1.0
  C  C216  1  0.396370  0.477670  0.242390  1.0
  C  C217  1  0.977670  0.896370  0.742390  1.0
  C  C218  1  0.383570  0.977670  0.742390  1.0
  C  C219  1  0.896370  0.383570  0.742390  1.0
  C  C220  1  0.116430  0.603630  0.757610  1.0
  C  C221  1  0.522330  0.116430  0.757610  1.0
  C  C222  1  0.603630  0.522330  0.757610  1.0
  C  C223  1  0.039030  0.151630  0.274110  1.0
  C  C224  1  0.535230  0.039030  0.274110  1.0
  C  C225  1  0.151630  0.535230  0.274110  1.0
  C  C226  1  0.964770  0.348370  0.225890  1.0
  C  C227  1  0.460970  0.964770  0.225890  1.0
  C  C228  1  0.348370  0.460970  0.225890  1.0
  C  C229  1  0.960970  0.848370  0.725890  1.0
  C  C230  1  0.464770  0.960970  0.725890  1.0
  C  C231  1  0.848370  0.464770  0.725890  1.0
  C  C232  1  0.035230  0.651630  0.774110  1.0
  C  C233  1  0.539030  0.035230  0.774110  1.0
  C  C234  1  0.651630  0.539030  0.774110  1.0
  C  C235  1  0.991260  0.180660  0.309120  1.0
  C  C236  1  0.518960  0.991260  0.309120  1.0
  C  C237  1  0.180660  0.518960  0.309120  1.0
  C  C238  1  0.981040  0.319340  0.190880  1.0
  C  C239  1  0.508740  0.981040  0.190880  1.0
  C  C240  1  0.319340  0.508740  0.190880  1.0
  C  C241  1  0.008740  0.819340  0.690880  1.0
  C  C242  1  0.481040  0.008740  0.690880  1.0
  C  C243  1  0.819340  0.481040  0.690880  1.0
  C  C244  1  0.018960  0.680660  0.809120  1.0
  C  C245  1  0.491260  0.018960  0.809120  1.0
  C  C246  1  0.680660  0.491260  0.809120  1.0
  C  C247  1  0.960300  0.029400  0.249900  1.0
  C  C248  1  0.760400  0.960300  0.249900  1.0
  C  C249  1  0.029400  0.760400  0.249900  1.0
  C  C250  1  0.739600  0.470600  0.250100  1.0
  C  C251  1  0.539700  0.739600  0.250100  1.0
  C  C252  1  0.470600  0.539700  0.250100  1.0
  C  C253  1  0.039700  0.970600  0.750100  1.0
  C  C254  1  0.239600  0.039700  0.750100  1.0
  C  C255  1  0.970600  0.239600  0.750100  1.0
  C  C256  1  0.260400  0.529400  0.749900  1.0
  C  C257  1  0.460300  0.260400  0.749900  1.0
  C  C258  1  0.529400  0.460300  0.749900  1.0
  C  C259  1  0.848670  0.172770  0.216090  1.0
  C  C260  1  0.762470  0.848670  0.216090  1.0
  C  C261  1  0.172770  0.762470  0.216090  1.0
  C  C262  1  0.737530  0.327230  0.283910  1.0
  C  C263  1  0.651330  0.737530  0.283910  1.0
  C  C264  1  0.327230  0.651330  0.283910  1.0
  C  C265  1  0.151330  0.827230  0.783910  1.0
  C  C266  1  0.237530  0.151330  0.783910  1.0
  C  C267  1  0.827230  0.237530  0.783910  1.0
  C  C268  1  0.262470  0.672770  0.716090  1.0
  C  C269  1  0.348670  0.262470  0.716090  1.0
  C  C270  1  0.672770  0.348670  0.716090  1.0
  C  C271  1  0.796500  0.190300  0.189000  1.0
  C  C272  1  0.824200  0.796500  0.189000  1.0
  C  C273  1  0.190300  0.824200  0.189000  1.0
  C  C274  1  0.675800  0.309700  0.311000  1.0
  C  C275  1  0.703500  0.675800  0.311000  1.0
  C  C276  1  0.309700  0.703500  0.311000  1.0
  C  C277  1  0.203500  0.809700  0.811000  1.0
  C  C278  1  0.175800  0.203500  0.811000  1.0
  C  C279  1  0.809700  0.175800  0.811000  1.0
  C  C280  1  0.324200  0.690300  0.689000  1.0
  C  C281  1  0.296500  0.324200  0.689000  1.0
  C  C282  1  0.690300  0.296500  0.689000  1.0
  C  C283  1  0.814250  0.113950  0.179550  1.0
  C  C284  1  0.892250  0.814250  0.179550  1.0
  C  C285  1  0.113950  0.892250  0.179550  1.0
  C  C286  1  0.607750  0.386050  0.320450  1.0
  C  C287  1  0.685750  0.607750  0.320450  1.0
  C  C288  1  0.386050  0.685750  0.320450  1.0
  C  C289  1  0.185750  0.886050  0.820450  1.0
  C  C290  1  0.107750  0.185750  0.820450  1.0
  C  C291  1  0.886050  0.107750  0.820450  1.0
  C  C292  1  0.392250  0.613950  0.679550  1.0
  C  C293  1  0.314250  0.392250  0.679550  1.0
  C  C294  1  0.613950  0.314250  0.679550  1.0
  C  C295  1  0.826700  0.991600  0.113100  1.0
  C  C296  1  0.068600  0.826700  0.113100  1.0
  C  C297  1  0.991600  0.068600  0.113100  1.0
  C  C298  1  0.431400  0.508400  0.386900  1.0
  C  C299  1  0.673300  0.431400  0.386900  1.0
  C  C300  1  0.508400  0.673300  0.386900  1.0
  C  C301  1  0.173300  0.008400  0.886900  1.0
  C  C302  1  0.931400  0.173300  0.886900  1.0
  C  C303  1  0.008400  0.931400  0.886900  1.0
  C  C304  1  0.568600  0.491600  0.613100  1.0
  C  C305  1  0.326700  0.568600  0.613100  1.0
  C  C306  1  0.491600  0.326700  0.613100  1.0
  C  C307  1  0.754550  0.038950  0.096450  1.0
  C  C308  1  0.110050  0.754550  0.096450  1.0
  C  C309  1  0.038950  0.110050  0.096450  1.0
  C  C310  1  0.389950  0.461050  0.403550  1.0
  C  C311  1  0.745450  0.389950  0.403550  1.0
  C  C312  1  0.461050  0.745450  0.403550  1.0
  C  C313  1  0.245450  0.961050  0.903550  1.0
  C  C314  1  0.889950  0.245450  0.903550  1.0
  C  C315  1  0.961050  0.889950  0.903550  1.0
  C  C316  1  0.610050  0.538950  0.596450  1.0
  C  C317  1  0.254550  0.610050  0.596450  1.0
  C  C318  1  0.538950  0.254550  0.596450  1.0
  C  C319  1  0.697090  0.115590  0.107430  1.0
  C  C320  1  0.079890  0.697090  0.107430  1.0
  C  C321  1  0.115590  0.079890  0.107430  1.0
  C  C322  1  0.420110  0.384410  0.392570  1.0
  C  C323  1  0.802910  0.420110  0.392570  1.0
  C  C324  1  0.384410  0.802910  0.392570  1.0
  C  C325  1  0.302910  0.884410  0.892570  1.0
  C  C326  1  0.920110  0.302910  0.892570  1.0
  C  C327  1  0.884410  0.920110  0.892570  1.0
  C  C328  1  0.579890  0.615590  0.607430  1.0
  C  C329  1  0.197090  0.579890  0.607430  1.0
  C  C330  1  0.615590  0.197090  0.607430  1.0
  C  C331  1  0.711690  0.144990  0.135030  1.0
  C  C332  1  0.008290  0.711690  0.135030  1.0
  C  C333  1  0.144990  0.008290  0.135030  1.0
  C  C334  1  0.491710  0.355010  0.364970  1.0
  C  C335  1  0.788310  0.491710  0.364970  1.0
  C  C336  1  0.355010  0.788310  0.364970  1.0
  C  C337  1  0.288310  0.855010  0.864970  1.0
  C  C338  1  0.991710  0.288310  0.864970  1.0
  C  C339  1  0.855010  0.991710  0.864970  1.0
  C  C340  1  0.508290  0.644990  0.635030  1.0
  C  C341  1  0.211690  0.508290  0.635030  1.0
  C  C342  1  0.644990  0.211690  0.635030  1.0
  C  C343  1  0.783740  0.097740  0.151680  1.0
  C  C344  1  0.966840  0.783740  0.151680  1.0
  C  C345  1  0.097740  0.966840  0.151680  1.0
  C  C346  1  0.533160  0.402260  0.348320  1.0
  C  C347  1  0.716260  0.533160  0.348320  1.0
  C  C348  1  0.402260  0.716260  0.348320  1.0
  C  C349  1  0.216260  0.902260  0.848320  1.0
  C  C350  1  0.033160  0.216260  0.848320  1.0
  C  C351  1  0.902260  0.033160  0.848320  1.0
  C  C352  1  0.466840  0.597740  0.651680  1.0
  C  C353  1  0.283740  0.466840  0.651680  1.0
  C  C354  1  0.597740  0.283740  0.651680  1.0
  C  C355  1  0.611170  0.158370  0.093390  1.0
  C  C356  1  0.137070  0.611170  0.093390  1.0
  C  C357  1  0.158370  0.137070  0.093390  1.0
  C  C358  1  0.362930  0.341630  0.406610  1.0
  C  C359  1  0.888830  0.362930  0.406610  1.0
  C  C360  1  0.341630  0.888830  0.406610  1.0
  C  C361  1  0.388830  0.841630  0.906610  1.0
  C  C362  1  0.862930  0.388830  0.906610  1.0
  C  C363  1  0.841630  0.862930  0.906610  1.0
  C  C364  1  0.637070  0.658370  0.593390  1.0
  C  C365  1  0.111170  0.637070  0.593390  1.0
  C  C366  1  0.658370  0.111170  0.593390  1.0
  Co  Co367  1  0.865290  0.865290  0.404130  1
  Co  Co368  1  0.634710  0.634710  0.095870  1
  Co  Co369  1  0.134710  0.134710  0.595870  1
  Co  Co370  1  0.365290  0.365290  0.904130  1
  Co  Co371  1  0.942680  0.942680  0.171960  1
  Co  Co372  1  0.557320  0.557320  0.328040  1
  Co  Co373  1  0.057320  0.057320  0.828040  1
  Co  Co374  1  0.442680  0.442680  0.671960  1
  F  F375  1  0.665700  0.196300  0.271500  1
  F  F376  1  0.866500  0.665700  0.271500  1
  F  F377  1  0.196300  0.866500  0.271500  1
  F  F378  1  0.633500  0.303700  0.228500  1
  F  F379  1  0.834300  0.633500  0.228500  1
  F  F380  1  0.303700  0.834300  0.228500  1
  F  F381  1  0.334300  0.803700  0.728500  1
  F  F382  1  0.133500  0.334300  0.728500  1
  F  F383  1  0.803700  0.133500  0.728500  1
  F  F384  1  0.366500  0.696300  0.771500  1
  F  F385  1  0.165700  0.366500  0.771500  1
  F  F386  1  0.696300  0.165700  0.771500  1
  F  F387  1  0.542910  0.250710  0.281670  1.0
  F  F388  1  0.924710  0.542910  0.281670  1.0
  F  F389  1  0.250710  0.924710  0.281670  1.0
  F  F390  1  0.575290  0.249290  0.218330  1.0
  F  F391  1  0.957090  0.575290  0.218330  1.0
  F  F392  1  0.249290  0.957090  0.218330  1.0
  F  F393  1  0.457090  0.749290  0.718330  1.0
  F  F394  1  0.075290  0.457090  0.718330  1.0
  F  F395  1  0.749290  0.075290  0.718330  1.0
  F  F396  1  0.424710  0.750710  0.781670  1.0
  F  F397  1  0.042910  0.424710  0.781670  1.0
  F  F398  1  0.750710  0.042910  0.781670  1.0
  F  F399  1  0.669600  0.170800  0.252000  1.0
  F  F400  1  0.907600  0.669600  0.252000  1.0
  F  F401  1  0.170800  0.907600  0.252000  1.0
  F  F402  1  0.592400  0.329200  0.248000  1.0
  F  F403  1  0.830400  0.592400  0.248000  1.0
  F  F404  1  0.329200  0.830400  0.248000  1.0
  F  F405  1  0.330400  0.829200  0.748000  1.0
  F  F406  1  0.092400  0.330400  0.748000  1.0
  F  F407  1  0.829200  0.092400  0.748000  1.0
  F  F408  1  0.407600  0.670800  0.752000  1.0
  F  F409  1  0.169600  0.407600  0.752000  1.0
  F  F410  1  0.670800  0.169600  0.752000  1.0
  H  H411  1  0.522200  0.813700  0.504600  1
  H  H412  1  0.159500  0.522200  0.504600  1
  H  H413  1  0.813700  0.159500  0.504600  1
  H  H414  1  0.340500  0.686300  0.995400  1
  H  H415  1  0.977800  0.340500  0.995400  1
  H  H416  1  0.686300  0.977800  0.995400  1
  H  H417  1  0.477800  0.186300  0.495400  1
  H  H418  1  0.840500  0.477800  0.495400  1
  H  H419  1  0.186300  0.840500  0.495400  1
  H  H420  1  0.659500  0.313700  0.004600  1
  H  H421  1  0.022200  0.659500  0.004600  1
  H  H422  1  0.313700  0.022200  0.004600  1
  H  H423  1  0.519000  0.868500  0.533100  1
  H  H424  1  0.079400  0.519000  0.533100  1
  H  H425  1  0.868500  0.079400  0.533100  1
  H  H426  1  0.420600  0.631500  0.966900  1
  H  H427  1  0.981000  0.420600  0.966900  1
  H  H428  1  0.631500  0.981000  0.966900  1
  H  H429  1  0.481000  0.131500  0.466900  1
  H  H430  1  0.920600  0.481000  0.466900  1
  H  H431  1  0.131500  0.920600  0.466900  1
  H  H432  1  0.579400  0.368500  0.033100  1
  H  H433  1  0.019000  0.579400  0.033100  1
  H  H434  1  0.368500  0.019000  0.033100  1
  H  H435  1  0.418600  0.949000  0.508200  1
  H  H436  1  0.124200  0.418600  0.508200  1
  H  H437  1  0.949000  0.124200  0.508200  1
  H  H438  1  0.375800  0.551000  0.991800  1
  H  H439  1  0.081400  0.375800  0.991800  1
  H  H440  1  0.551000  0.081400  0.991800  1
  H  H441  1  0.581400  0.051000  0.491800  1
  H  H442  1  0.875800  0.581400  0.491800  1
  H  H443  1  0.051000  0.875800  0.491800  1
  H  H444  1  0.624200  0.449000  0.008200  1
  H  H445  1  0.918600  0.624200  0.008200  1
  H  H446  1  0.449000  0.918600  0.008200  1
  H  H447  1  0.617000  0.150000  0.066300  1
  H  H448  1  0.166700  0.617000  0.066300  1
  H  H449  1  0.150000  0.166700  0.066300  1
  H  H450  1  0.333300  0.350000  0.433700  1
  H  H451  1  0.883000  0.333300  0.433700  1
  H  H452  1  0.350000  0.883000  0.433700  1
  H  H453  1  0.383000  0.850000  0.933700  1
  H  H454  1  0.833300  0.383000  0.933700  1
  H  H455  1  0.850000  0.833300  0.933700  1
  H  H456  1  0.666700  0.650000  0.566300  1
  H  H457  1  0.117000  0.666700  0.566300  1
  H  H458  1  0.650000  0.117000  0.566300  1
  H  H459  1  0.573400  0.137400  0.111300  1
  H  H460  1  0.177900  0.573400  0.111300  1
  H  H461  1  0.137400  0.177900  0.111300  1
  H  H462  1  0.322100  0.362600  0.388700  1
  H  H463  1  0.926600  0.322100  0.388700  1
  H  H464  1  0.362600  0.926600  0.388700  1
  H  H465  1  0.426600  0.862600  0.888700  1
  H  H466  1  0.822100  0.426600  0.888700  1
  H  H467  1  0.862600  0.822100  0.888700  1
  H  H468  1  0.677900  0.637400  0.611300  1
  H  H469  1  0.073400  0.677900  0.611300  1
  H  H470  1  0.637400  0.073400  0.611300  1
  H  H471  1  0.609200  0.261100  0.076200  1
  H  H472  1  0.053500  0.609200  0.076200  1
  H  H473  1  0.261100  0.053500  0.076200  1
  H  H474  1  0.446500  0.238900  0.423800  1
  H  H475  1  0.890800  0.446500  0.423800  1
  H  H476  1  0.238900  0.890800  0.423800  1
  H  H477  1  0.390800  0.738900  0.923800  1
  H  H478  1  0.946500  0.390800  0.923800  1
  H  H479  1  0.738900  0.946500  0.923800  1
  H  H480  1  0.553500  0.761100  0.576200  1
  H  H481  1  0.109200  0.553500  0.576200  1
  H  H482  1  0.761100  0.109200  0.576200  1
  H  H483  1  0.489800  0.918600  0.515400  1.0
  H  H484  1  0.076200  0.489800  0.515400  1.0
  H  H485  1  0.918600  0.076200  0.515400  1.0
  H  H486  1  0.423800  0.581400  0.984600  1.0
  H  H487  1  0.010200  0.423800  0.984600  1.0
  H  H488  1  0.581400  0.010200  0.984600  1.0
  H  H489  1  0.510200  0.081400  0.484600  1.0
  H  H490  1  0.923800  0.510200  0.484600  1.0
  H  H491  1  0.081400  0.923800  0.484600  1.0
  H  H492  1  0.576200  0.418600  0.015400  1.0
  H  H493  1  0.989800  0.576200  0.015400  1.0
  H  H494  1  0.418600  0.989800  0.015400  1.0
  H  H495  1  0.493000  0.864400  0.486600  1.0
  H  H496  1  0.156000  0.493000  0.486600  1.0
  H  H497  1  0.864400  0.156000  0.486600  1.0
  H  H498  1  0.344000  0.635600  0.013400  1.0
  H  H499  1  0.007000  0.344000  0.013400  1.0
  H  H500  1  0.635600  0.007000  0.013400  1.0
  H  H501  1  0.507000  0.135600  0.513400  1.0
  H  H502  1  0.844000  0.507000  0.513400  1.0
  H  H503  1  0.135600  0.844000  0.513400  1.0
  H  H504  1  0.656000  0.364400  0.986600  1.0
  H  H505  1  0.993000  0.656000  0.986600  1.0
  H  H506  1  0.364400  0.993000  0.986600  1.0
  H  H507  1  0.488900  0.820100  0.554400  1.0
  H  H508  1  0.136600  0.488900  0.554400  1.0
  H  H509  1  0.820100  0.136600  0.554400  1.0
  H  H510  1  0.363400  0.679900  0.945600  1.0
  H  H511  1  0.011100  0.363400  0.945600  1.0
  H  H512  1  0.679900  0.011100  0.945600  1.0
  H  H513  1  0.511100  0.179900  0.445600  1.0
  H  H514  1  0.863400  0.511100  0.445600  1.0
  H  H515  1  0.179900  0.863400  0.445600  1.0
  H  H516  1  0.636600  0.320100  0.054400  1.0
  H  H517  1  0.988900  0.636600  0.054400  1.0
  H  H518  1  0.320100  0.988900  0.054400  1.0
  H  H519  1  0.682500  0.756700  0.514500  1.0
  H  H520  1  0.046300  0.682500  0.514500  1.0
  H  H521  1  0.756700  0.046300  0.514500  1.0
  H  H522  1  0.453700  0.743300  0.985500  1.0
  H  H523  1  0.817500  0.453700  0.985500  1.0
  H  H524  1  0.743300  0.817500  0.985500  1.0
  H  H525  1  0.317500  0.243300  0.485500  1.0
  H  H526  1  0.953700  0.317500  0.485500  1.0
  H  H527  1  0.243300  0.953700  0.485500  1.0
  H  H528  1  0.546300  0.256700  0.014500  1.0
  H  H529  1  0.182500  0.546300  0.014500  1.0
  H  H530  1  0.256700  0.182500  0.014500  1.0
  H  H531  1  0.807200  0.753600  0.478500  1.0
  H  H532  1  0.960700  0.807200  0.478500  1.0
  H  H533  1  0.753600  0.960700  0.478500  1.0
  H  H534  1  0.539300  0.746400  0.021500  1.0
  H  H535  1  0.692800  0.539300  0.021500  1.0
  H  H536  1  0.746400  0.692800  0.021500  1.0
  H  H537  1  0.192800  0.246400  0.521500  1.0
  H  H538  1  0.039300  0.192800  0.521500  1.0
  H  H539  1  0.246400  0.039300  0.521500  1.0
  H  H540  1  0.460700  0.253600  0.978500  1.0
  H  H541  1  0.307200  0.460700  0.978500  1.0
  H  H542  1  0.253600  0.307200  0.978500  1.0
  H  H543  1  0.554700  0.966400  0.442200  1.0
  H  H544  1  0.036700  0.554700  0.442200  1.0
  H  H545  1  0.966400  0.036700  0.442200  1.0
  H  H546  1  0.463300  0.533600  0.057800  1.0
  H  H547  1  0.945300  0.463300  0.057800  1.0
  H  H548  1  0.533600  0.945300  0.057800  1.0
  H  H549  1  0.445300  0.033600  0.557800  1.0
  H  H550  1  0.963300  0.445300  0.557800  1.0
  H  H551  1  0.033600  0.963300  0.557800  1.0
  H  H552  1  0.536700  0.466400  0.942200  1.0
  H  H553  1  0.054700  0.536700  0.942200  1.0
  H  H554  1  0.466400  0.054700  0.942200  1.0
  H  H555  1  0.569000  0.067100  0.381000  1.0
  H  H556  1  0.982900  0.569000  0.381000  1.0
  H  H557  1  0.067100  0.982900  0.381000  1.0
  H  H558  1  0.517100  0.432900  0.119000  1.0
  H  H559  1  0.931000  0.517100  0.119000  1.0
  H  H560  1  0.432900  0.931000  0.119000  1.0
  H  H561  1  0.431000  0.932900  0.619000  1.0
  H  H562  1  0.017100  0.431000  0.619000  1.0
  H  H563  1  0.932900  0.017100  0.619000  1.0
  H  H564  1  0.482900  0.567100  0.881000  1.0
  H  H565  1  0.069000  0.482900  0.881000  1.0
  H  H566  1  0.567100  0.069000  0.881000  1.0
  H  H567  1  0.644600  0.126500  0.321900  1.0
  H  H568  1  0.907000  0.644600  0.321900  1.0
  H  H569  1  0.126500  0.907000  0.321900  1.0
  H  H570  1  0.593000  0.373500  0.178100  1.0
  H  H571  1  0.855400  0.593000  0.178100  1.0
  H  H572  1  0.373500  0.855400  0.178100  1.0
  H  H573  1  0.355400  0.873500  0.678100  1.0
  H  H574  1  0.093000  0.355400  0.678100  1.0
  H  H575  1  0.873500  0.093000  0.678100  1.0
  H  H576  1  0.407000  0.626500  0.821900  1.0
  H  H577  1  0.144600  0.407000  0.821900  1.0
  H  H578  1  0.626500  0.144600  0.821900  1.0
  H  H579  1  0.806400  0.061300  0.289200  1.0
  H  H580  1  0.843100  0.806400  0.289200  1.0
  H  H581  1  0.061300  0.843100  0.289200  1.0
  H  H582  1  0.656900  0.438700  0.210800  1.0
  H  H583  1  0.693600  0.656900  0.210800  1.0
  H  H584  1  0.438700  0.693600  0.210800  1.0
  H  H585  1  0.193600  0.938700  0.710800  1.0
  H  H586  1  0.156900  0.193600  0.710800  1.0
  H  H587  1  0.938700  0.156900  0.710800  1.0
  H  H588  1  0.343100  0.561300  0.789200  1.0
  H  H589  1  0.306400  0.343100  0.789200  1.0
  H  H590  1  0.561300  0.306400  0.789200  1.0
  H  H591  1  0.869500  0.982100  0.315000  1.0
  H  H592  1  0.833400  0.869500  0.315000  1.0
  H  H593  1  0.982100  0.833400  0.315000  1.0
  H  H594  1  0.666600  0.517900  0.185000  1.0
  H  H595  1  0.630500  0.666600  0.185000  1.0
  H  H596  1  0.517900  0.630500  0.185000  1.0
  H  H597  1  0.130500  0.017900  0.685000  1.0
  H  H598  1  0.166600  0.130500  0.685000  1.0
  H  H599  1  0.017900  0.166600  0.685000  1.0
  H  H600  1  0.333400  0.482100  0.815000  1.0
  H  H601  1  0.369500  0.333400  0.815000  1.0
  H  H602  1  0.482100  0.369500  0.815000  1.0
  H  H603  1  0.753200  0.111200  0.377100  1.0
  H  H604  1  0.758500  0.753200  0.377100  1.0
  H  H605  1  0.111200  0.758500  0.377100  1.0
  H  H606  1  0.741500  0.388800  0.122900  1.0
  H  H607  1  0.746800  0.741500  0.122900  1.0
  H  H608  1  0.388800  0.746800  0.122900  1.0
  H  H609  1  0.246800  0.888800  0.622900  1.0
  H  H610  1  0.241500  0.246800  0.622900  1.0
  H  H611  1  0.888800  0.241500  0.622900  1.0
  H  H612  1  0.258500  0.611200  0.877100  1.0
  H  H613  1  0.253200  0.258500  0.877100  1.0
  H  H614  1  0.611200  0.253200  0.877100  1.0
  H  H615  1  0.781400  0.191900  0.405000  1.0
  H  H616  1  0.621700  0.781400  0.405000  1.0
  H  H617  1  0.191900  0.621700  0.405000  1.0
  H  H618  1  0.878300  0.308100  0.095000  1.0
  H  H619  1  0.718600  0.878300  0.095000  1.0
  H  H620  1  0.308100  0.718600  0.095000  1.0
  H  H621  1  0.218600  0.808100  0.595000  1.0
  H  H622  1  0.378300  0.218600  0.595000  1.0
  H  H623  1  0.808100  0.378300  0.595000  1.0
  H  H624  1  0.121700  0.691900  0.905000  1.0
  H  H625  1  0.281400  0.121700  0.905000  1.0
  H  H626  1  0.691900  0.281400  0.905000  1.0
  H  H627  1  0.890200  0.223700  0.373800  1.0
  H  H628  1  0.512300  0.890200  0.373800  1.0
  H  H629  1  0.223700  0.512300  0.373800  1.0
  H  H630  1  0.987700  0.276300  0.126200  1.0
  H  H631  1  0.609800  0.987700  0.126200  1.0
  H  H632  1  0.276300  0.609800  0.126200  1.0
  H  H633  1  0.109800  0.776300  0.626200  1.0
  H  H634  1  0.487700  0.109800  0.626200  1.0
  H  H635  1  0.776300  0.487700  0.626200  1.0
  H  H636  1  0.012300  0.723700  0.873800  1.0
  H  H637  1  0.390200  0.012300  0.873800  1.0
  H  H638  1  0.723700  0.390200  0.873800  1.0
  H  H639  1  0.055000  0.083800  0.233700  1.0
  H  H640  1  0.627500  0.055000  0.233700  1.0
  H  H641  1  0.083800  0.627500  0.233700  1.0
  H  H642  1  0.872500  0.416200  0.266300  1.0
  H  H643  1  0.445000  0.872500  0.266300  1.0
  H  H644  1  0.416200  0.445000  0.266300  1.0
  H  H645  1  0.945000  0.916200  0.766300  1.0
  H  H646  1  0.372500  0.945000  0.766300  1.0
  H  H647  1  0.916200  0.372500  0.766300  1.0
  H  H648  1  0.127500  0.583800  0.733700  1.0
  H  H649  1  0.555000  0.127500  0.733700  1.0
  H  H650  1  0.583800  0.555000  0.733700  1.0
  H  H651  1  0.083200  0.164500  0.261600  1.0
  H  H652  1  0.490700  0.083200  0.261600  1.0
  H  H653  1  0.164500  0.490700  0.261600  1.0
  H  H654  1  0.009300  0.335500  0.238400  1.0
  H  H655  1  0.416800  0.009300  0.238400  1.0
  H  H656  1  0.335500  0.416800  0.238400  1.0
  H  H657  1  0.916800  0.835500  0.738400  1.0
  H  H658  1  0.509300  0.916800  0.738400  1.0
  H  H659  1  0.835500  0.509300  0.738400  1.0
  H  H660  1  0.990700  0.664500  0.761600  1.0
  H  H661  1  0.583200  0.990700  0.761600  1.0
  H  H662  1  0.664500  0.583200  0.761600  1.0
  H  H663  1  0.002700  0.213400  0.320400  1.0
  H  H664  1  0.463500  0.002700  0.320400  1.0
  H  H665  1  0.213400  0.463500  0.320400  1.0
  H  H666  1  0.036500  0.286600  0.179600  1.0
  H  H667  1  0.497300  0.036500  0.179600  1.0
  H  H668  1  0.286600  0.497300  0.179600  1.0
  H  H669  1  0.997300  0.786600  0.679600  1.0
  H  H670  1  0.536500  0.997300  0.679600  1.0
  H  H671  1  0.786600  0.536500  0.679600  1.0
  H  H672  1  0.963500  0.713400  0.820400  1.0
  H  H673  1  0.502700  0.963500  0.820400  1.0
  H  H674  1  0.713400  0.502700  0.820400  1.0
  H  H675  1  0.016200  0.002600  0.234300  1.0
  H  H676  1  0.746900  0.016200  0.234300  1.0
  H  H677  1  0.002600  0.746900  0.234300  1.0
  H  H678  1  0.753100  0.497400  0.265700  1.0
  H  H679  1  0.483800  0.753100  0.265700  1.0
  H  H680  1  0.497400  0.483800  0.265700  1.0
  H  H681  1  0.983800  0.997400  0.765700  1.0
  H  H682  1  0.253100  0.983800  0.765700  1.0
  H  H683  1  0.997400  0.253100  0.765700  1.0
  H  H684  1  0.246900  0.502600  0.734300  1.0
  H  H685  1  0.516200  0.246900  0.734300  1.0
  H  H686  1  0.502600  0.516200  0.734300  1.0
  H  H687  1  0.945700  0.985900  0.266400  1.0
  H  H688  1  0.802000  0.945700  0.266400  1.0
  H  H689  1  0.985900  0.802000  0.266400  1.0
  H  H690  1  0.698000  0.514100  0.233600  1.0
  H  H691  1  0.554300  0.698000  0.233600  1.0
  H  H692  1  0.514100  0.554300  0.233600  1.0
  H  H693  1  0.054300  0.014100  0.733600  1.0
  H  H694  1  0.198000  0.054300  0.733600  1.0
  H  H695  1  0.014100  0.198000  0.733600  1.0
  H  H696  1  0.302000  0.485900  0.766400  1.0
  H  H697  1  0.445700  0.302000  0.766400  1.0
  H  H698  1  0.485900  0.445700  0.766400  1.0
  H  H699  1  0.849900  0.212400  0.227400  1.0
  H  H700  1  0.710300  0.849900  0.227400  1.0
  H  H701  1  0.212400  0.710300  0.227400  1.0
  H  H702  1  0.789700  0.287600  0.272600  1.0
  H  H703  1  0.650100  0.789700  0.272600  1.0
  H  H704  1  0.287600  0.650100  0.272600  1.0
  H  H705  1  0.150100  0.787600  0.772600  1.0
  H  H706  1  0.289700  0.150100  0.772600  1.0
  H  H707  1  0.787600  0.289700  0.772600  1.0
  H  H708  1  0.210300  0.712400  0.727400  1.0
  H  H709  1  0.349900  0.210300  0.727400  1.0
  H  H710  1  0.712400  0.349900  0.727400  1.0
  H  H711  1  0.756700  0.243600  0.179100  1.0
  H  H712  1  0.820600  0.756700  0.179100  1.0
  H  H713  1  0.243600  0.820600  0.179100  1.0
  H  H714  1  0.679400  0.256400  0.320900  1.0
  H  H715  1  0.743300  0.679400  0.320900  1.0
  H  H716  1  0.256400  0.743300  0.320900  1.0
  H  H717  1  0.243300  0.756400  0.820900  1.0
  H  H718  1  0.179400  0.243300  0.820900  1.0
  H  H719  1  0.756400  0.179400  0.820900  1.0
  H  H720  1  0.320600  0.743600  0.679100  1.0
  H  H721  1  0.256700  0.320600  0.679100  1.0
  H  H722  1  0.743600  0.256700  0.679100  1.0
  H  H723  1  0.866000  0.939200  0.105600  1.0
  H  H724  1  0.089200  0.866000  0.105600  1.0
  H  H725  1  0.939200  0.089200  0.105600  1.0
  H  H726  1  0.410800  0.560800  0.394400  1.0
  H  H727  1  0.634000  0.410800  0.394400  1.0
  H  H728  1  0.560800  0.634000  0.394400  1.0
  H  H729  1  0.134000  0.060800  0.894400  1.0
  H  H730  1  0.910800  0.134000  0.894400  1.0
  H  H731  1  0.060800  0.910800  0.894400  1.0
  H  H732  1  0.589200  0.439200  0.605600  1.0
  H  H733  1  0.366000  0.589200  0.605600  1.0
  H  H734  1  0.439200  0.366000  0.605600  1.0
  H  H735  1  0.744600  0.018800  0.077700  1.0
  H  H736  1  0.158900  0.744600  0.077700  1.0
  H  H737  1  0.018800  0.158900  0.077700  1.0
  H  H738  1  0.341100  0.481200  0.422300  1.0
  H  H739  1  0.755400  0.341100  0.422300  1.0
  H  H740  1  0.481200  0.755400  0.422300  1.0
  H  H741  1  0.255400  0.981200  0.922300  1.0
  H  H742  1  0.841100  0.255400  0.922300  1.0
  H  H743  1  0.981200  0.841100  0.922300  1.0
  H  H744  1  0.658900  0.518800  0.577700  1.0
  H  H745  1  0.244600  0.658900  0.577700  1.0
  H  H746  1  0.518800  0.244600  0.577700  1.0
  H  H747  1  0.672400  0.197500  0.142500  1.0
  H  H748  1  0.987600  0.672400  0.142500  1.0
  H  H749  1  0.197500  0.987600  0.142500  1.0
  H  H750  1  0.512400  0.302500  0.357500  1.0
  H  H751  1  0.827600  0.512400  0.357500  1.0
  H  H752  1  0.302500  0.827600  0.357500  1.0
  H  H753  1  0.327600  0.802500  0.857500  1.0
  H  H754  1  0.012400  0.327600  0.857500  1.0
  H  H755  1  0.802500  0.012400  0.857500  1.0
  H  H756  1  0.487600  0.697500  0.642500  1.0
  H  H757  1  0.172400  0.487600  0.642500  1.0
  H  H758  1  0.697500  0.172400  0.642500  1.0
  H  H759  1  0.569600  0.157900  0.117300  1.0
  H  H760  1  0.155200  0.569600  0.117300  1.0
  H  H761  1  0.157900  0.155200  0.117300  1.0
  H  H762  1  0.344800  0.342100  0.382700  1.0
  H  H763  1  0.930400  0.344800  0.382700  1.0
  H  H764  1  0.342100  0.930400  0.382700  1.0
  H  H765  1  0.430400  0.842100  0.882700  1.0
  H  H766  1  0.844800  0.430400  0.882700  1.0
  H  H767  1  0.842100  0.844800  0.882700  1.0
  H  H768  1  0.655200  0.657900  0.617300  1.0
  H  H769  1  0.069600  0.655200  0.617300  1.0
  H  H770  1  0.657900  0.069600  0.617300  1.0
  H  H771  1  0.597600  0.217100  0.083100  1.0
  H  H772  1  0.102200  0.597600  0.083100  1.0
  H  H773  1  0.217100  0.102200  0.083100  1.0
  H  H774  1  0.397800  0.282900  0.416900  1.0
  H  H775  1  0.902400  0.397800  0.416900  1.0
  H  H776  1  0.282900  0.902400  0.416900  1.0
  H  H777  1  0.402400  0.782900  0.916900  1.0
  H  H778  1  0.897800  0.402400  0.916900  1.0
  H  H779  1  0.782900  0.897800  0.916900  1.0
  H  H780  1  0.602200  0.717100  0.583100  1.0
  H  H781  1  0.097600  0.602200  0.583100  1.0
  H  H782  1  0.717100  0.097600  0.583100  1.0
  H  H783  1  0.556000  0.121400  0.072900  1.0
  H  H784  1  0.249700  0.556000  0.072900  1.0
  H  H785  1  0.121400  0.249700  0.072900  1.0
  H  H786  1  0.250300  0.378600  0.427100  1.0
  H  H787  1  0.944000  0.250300  0.427100  1.0
  H  H788  1  0.378600  0.944000  0.427100  1.0
  H  H789  1  0.444000  0.878600  0.927100  1.0
  H  H790  1  0.750300  0.444000  0.927100  1.0
  H  H791  1  0.878600  0.750300  0.927100  1.0
  H  H792  1  0.749700  0.621400  0.572900  1.0
  H  H793  1  0.056000  0.749700  0.572900  1.0
  H  H794  1  0.621400  0.056000  0.572900  1.0
  N  N795  1  0.754950  0.858050  0.439050  1.0
  N  N796  1  0.947950  0.754950  0.439050  1.0
  N  N797  1  0.858050  0.947950  0.439050  1.0
  N  N798  1  0.552050  0.641950  0.060950  1.0
  N  N799  1  0.745050  0.552050  0.060950  1.0
  N  N800  1  0.641950  0.745050  0.060950  1.0
  N  N801  1  0.245050  0.141950  0.560950  1.0
  N  N802  1  0.052050  0.245050  0.560950  1.0
  N  N803  1  0.141950  0.052050  0.560950  1.0
  N  N804  1  0.447950  0.358050  0.939050  1.0
  N  N805  1  0.254950  0.447950  0.939050  1.0
  N  N806  1  0.358050  0.254950  0.939050  1.0
  N  N807  1  0.767240  0.964240  0.373980  1.0
  N  N808  1  0.894540  0.767240  0.373980  1.0
  N  N809  1  0.964240  0.894540  0.373980  1.0
  N  N810  1  0.605460  0.535760  0.126020  1.0
  N  N811  1  0.732760  0.605460  0.126020  1.0
  N  N812  1  0.535760  0.732760  0.126020  1.0
  N  N813  1  0.232760  0.035760  0.626020  1.0
  N  N814  1  0.105460  0.232760  0.626020  1.0
  N  N815  1  0.035760  0.105460  0.626020  1.0
  N  N816  1  0.394540  0.464240  0.873980  1.0
  N  N817  1  0.267240  0.394540  0.873980  1.0
  N  N818  1  0.464240  0.267240  0.873980  1.0
  N  N819  1  0.756050  0.028650  0.340950  1.0
  N  N820  1  0.874350  0.756050  0.340950  1.0
  N  N821  1  0.028650  0.874350  0.340950  1.0
  N  N822  1  0.625650  0.471350  0.159050  1.0
  N  N823  1  0.743950  0.625650  0.159050  1.0
  N  N824  1  0.471350  0.743950  0.159050  1.0
  N  N825  1  0.243950  0.971350  0.659050  1.0
  N  N826  1  0.125650  0.243950  0.659050  1.0
  N  N827  1  0.971350  0.125650  0.659050  1.0
  N  N828  1  0.374350  0.528650  0.840950  1.0
  N  N829  1  0.256050  0.374350  0.840950  1.0
  N  N830  1  0.528650  0.256050  0.840950  1.0
  N  N831  1  0.898630  0.085630  0.223410  1.0
  N  N832  1  0.792330  0.898630  0.223410  1.0
  N  N833  1  0.085630  0.792330  0.223410  1.0
  N  N834  1  0.707670  0.414370  0.276590  1.0
  N  N835  1  0.601370  0.707670  0.276590  1.0
  N  N836  1  0.414370  0.601370  0.276590  1.0
  N  N837  1  0.101370  0.914370  0.776590  1.0
  N  N838  1  0.207670  0.101370  0.776590  1.0
  N  N839  1  0.914370  0.207670  0.776590  1.0
  N  N840  1  0.292330  0.585630  0.723410  1.0
  N  N841  1  0.398630  0.292330  0.723410  1.0
  N  N842  1  0.585630  0.398630  0.723410  1.0
  N  N843  1  0.877360  0.049360  0.200820  1.0
  N  N844  1  0.872460  0.877360  0.200820  1.0
  N  N845  1  0.049360  0.872460  0.200820  1.0
  N  N846  1  0.627540  0.450640  0.299180  1.0
  N  N847  1  0.622640  0.627540  0.299180  1.0
  N  N848  1  0.450640  0.622640  0.299180  1.0
  N  N849  1  0.122640  0.950640  0.799180  1.0
  N  N850  1  0.127540  0.122640  0.799180  1.0
  N  N851  1  0.950640  0.127540  0.799180  1.0
  N  N852  1  0.372460  0.549360  0.700820  1.0
  N  N853  1  0.377360  0.372460  0.700820  1.0
  N  N854  1  0.549360  0.377360  0.700820  1.0
  N  N855  1  0.841300  0.021000  0.140700  1.0
  N  N856  1  0.997000  0.841300  0.140700  1.0
  N  N857  1  0.021000  0.997000  0.140700  1.0
  N  N858  1  0.503000  0.479000  0.359300  1.0
  N  N859  1  0.658700  0.503000  0.359300  1.0
  N  N860  1  0.479000  0.658700  0.359300  1.0
  N  N861  1  0.158700  0.979000  0.859300  1.0
  N  N862  1  0.003000  0.158700  0.859300  1.0
  N  N863  1  0.979000  0.003000  0.859300  1.0
  N  N864  1  0.497000  0.521000  0.640700  1.0
  N  N865  1  0.341300  0.497000  0.640700  1.0
  N  N866  1  0.521000  0.341300  0.640700  1.0
  O  O867  1  0.458390  0.931090  0.489930  1
  O  O868  1  0.120590  0.458390  0.489930  1
  O  O869  1  0.931090  0.120590  0.489930  1
  O  O870  1  0.379410  0.568910  0.010070  1
  O  O871  1  0.041610  0.379410  0.010070  1
  O  O872  1  0.568910  0.041610  0.010070  1
  O  O873  1  0.541610  0.068910  0.510070  1
  O  O874  1  0.879410  0.541610  0.510070  1
  O  O875  1  0.068910  0.879410  0.510070  1
  O  O876  1  0.620590  0.431090  0.989930  1
  O  O877  1  0.958390  0.620590  0.989930  1
  O  O878  1  0.431090  0.958390  0.989930  1
  O  O879  1  0.583300  0.241800  0.095100  1
  O  O880  1  0.079800  0.583300  0.095100  1
  O  O881  1  0.241800  0.079800  0.095100  1
  O  O882  1  0.420200  0.258200  0.404900  1
  O  O883  1  0.916700  0.420200  0.404900  1
  O  O884  1  0.258200  0.916700  0.404900  1
  O  O885  1  0.416700  0.758200  0.904900  1
  O  O886  1  0.920200  0.416700  0.904900  1
  O  O887  1  0.758200  0.920200  0.904900  1
  O  O888  1  0.579800  0.741800  0.595100  1
  O  O889  1  0.083300  0.579800  0.595100  1
  O  O890  1  0.741800  0.083300  0.595100  1
  O  O891  1  0.529750  0.802250  0.536550  1.0
  O  O892  1  0.131450  0.529750  0.536550  1.0
  O  O893  1  0.802250  0.131450  0.536550  1.0
  O  O894  1  0.368550  0.697750  0.963450  1.0
  O  O895  1  0.970250  0.368550  0.963450  1.0
  O  O896  1  0.697750  0.970250  0.963450  1.0
  O  O897  1  0.470250  0.197750  0.463450  1.0
  O  O898  1  0.868550  0.470250  0.463450  1.0
  O  O899  1  0.197750  0.868550  0.463450  1.0
  O  O900  1  0.631450  0.302250  0.036550  1.0
  O  O901  1  0.029750  0.631450  0.036550  1.0
  O  O902  1  0.302250  0.029750  0.036550  1.0
  O  O903  1  0.598530  0.128030  0.064710  1.0
  O  O904  1  0.208730  0.598530  0.064710  1.0
  O  O905  1  0.128030  0.208730  0.064710  1.0
  O  O906  1  0.291270  0.371970  0.435290  1.0
  O  O907  1  0.901470  0.291270  0.435290  1.0
  O  O908  1  0.371970  0.901470  0.435290  1.0
  O  O909  1  0.401470  0.871970  0.935290  1.0
  O  O910  1  0.791270  0.401470  0.935290  1.0
  O  O911  1  0.871970  0.791270  0.935290  1.0
  O  O912  1  0.708730  0.628030  0.564710  1.0
  O  O913  1  0.098530  0.708730  0.564710  1.0
  O  O914  1  0.628030  0.098530  0.564710  1.0
