# generated using pymatgen
data_Co8H325C360N72Cl14O121
_symmetry_space_group_name_H-M   'P 1'
_cell_length_a   19.21880000
_cell_length_b   29.07000000
_cell_length_c   35.46000000
_cell_angle_alpha   90.32200000
_cell_angle_beta   98.97100000
_cell_angle_gamma   98.59800000
_symmetry_Int_Tables_number   1
_chemical_formula_structural   Co8H325C360N72Cl14O121
_chemical_formula_sum   'Co16 H650 C720 N144 Cl28 O242'
_cell_volume   19340.40953455
_cell_formula_units_Z   2
loop_
 _symmetry_equiv_pos_site_id
 _symmetry_equiv_pos_as_xyz
  1  'x, y, z'
loop_
 _atom_site_type_symbol
 _atom_site_label
 _atom_site_symmetry_multiplicity
 _atom_site_fract_x
 _atom_site_fract_y
 _atom_site_fract_z
 _atom_site_occupancy
  Co  Co1  1  0.888150  0.152710  0.678690  1
  Co  Co2  1  0.111850  0.847290  0.321310  1
  Co  Co3  1  0.719060  0.307210  0.452630  1
  Co  Co4  1  0.280940  0.692790  0.547370  1
  Co  Co5  1  0.720580  0.442870  0.699290  1
  Co  Co6  1  0.279420  0.557130  0.300710  1
  Co  Co7  1  0.397820  0.169410  0.606470  1
  Co  Co8  1  0.602180  0.830590  0.393530  1
  Co  Co9  1  0.744110  0.027790  0.134250  1
  Co  Co10  1  0.255890  0.972210  0.865750  1
  Co  Co11  1  0.534340  0.305450  0.135250  1
  Co  Co12  1  0.465660  0.694550  0.864750  1
  Co  Co13  1  0.845490  0.263190  0.955270  1
  Co  Co14  1  0.154510  0.736810  0.044730  1
  Co  Co15  1  0.028200  0.319480  0.221890  1
  Co  Co16  1  0.971800  0.680520  0.778110  1
  H  H17  1  0.728900  0.999100  0.667100  1
  H  H18  1  0.271100  0.000900  0.332900  1
  H  H19  1  0.852900  0.018100  0.770400  1
  H  H20  1  0.147100  0.981900  0.229600  1
  H  H21  1  0.906400  0.088300  0.750500  1
  H  H22  1  0.093600  0.911700  0.249500  1
  H  H23  1  0.701800  0.946400  0.716800  1
  H  H24  1  0.298200  0.053600  0.283200  1
  H  H25  1  0.778300  0.929400  0.723600  1
  H  H26  1  0.221700  0.070600  0.276400  1
  H  H27  1  0.777000  0.934600  0.782400  1
  H  H28  1  0.223000  0.065400  0.217600  1
  H  H29  1  0.701900  0.031600  0.600600  1
  H  H30  1  0.298100  0.968400  0.399400  1
  H  H31  1  0.712900  0.093800  0.551800  1
  H  H32  1  0.287100  0.906200  0.448200  1
  H  H33  1  0.838300  0.196300  0.594200  1
  H  H34  1  0.161700  0.803700  0.405800  1
  H  H35  1  0.774900  0.185400  0.559000  1
  H  H36  1  0.225100  0.814600  0.441000  1
  H  H37  1  0.870100  0.463500  0.479600  1
  H  H38  1  0.129900  0.536500  0.520400  1
  H  H39  1  0.731800  0.461300  0.380300  1
  H  H40  1  0.268200  0.538700  0.619700  1
  H  H41  1  0.689700  0.383300  0.390500  1
  H  H42  1  0.310300  0.616700  0.609500  1
  H  H43  1  0.848700  0.522800  0.396700  1
  H  H44  1  0.151300  0.477200  0.603300  1
  H  H45  1  0.793800  0.539000  0.421800  1
  H  H46  1  0.206200  0.461000  0.578200  1
  H  H47  1  0.930500  0.535800  0.444100  1
  H  H48  1  0.069500  0.464200  0.555900  1
  H  H49  1  0.916500  0.417900  0.533300  1
  H  H50  1  0.083500  0.582100  0.466700  1
  H  H51  1  0.923900  0.345200  0.571300  1
  H  H52  1  0.076100  0.654800  0.428700  1
  H  H53  1  0.788700  0.248000  0.528500  1
  H  H54  1  0.211300  0.752000  0.471500  1
  H  H55  1  0.844300  0.260300  0.566900  1
  H  H56  1  0.155700  0.739700  0.433100  1
  H  H57  1  0.857200  0.096900  0.566700  1
  H  H58  1  0.142800  0.903100  0.433300  1
  H  H59  1  0.940000  0.070700  0.533100  1
  H  H60  1  0.060000  0.929300  0.466900  1
  H  H61  1  0.001400  0.121500  0.494300  1
  H  H62  1  0.998600  0.878500  0.505700  1
  H  H63  1  0.920800  0.300700  0.496600  1
  H  H64  1  0.079200  0.699300  0.503400  1
  H  H65  1  0.003600  0.274500  0.463000  1
  H  H66  1  0.996400  0.725500  0.537000  1
  H  H67  1  0.025100  0.197500  0.468200  1
  H  H68  1  0.974900  0.802500  0.531800  1
  H  H69  1  0.078900  0.182300  0.596000  1
  H  H70  1  0.921100  0.817700  0.404000  1
  H  H71  1  0.034700  0.046000  0.620000  1
  H  H72  1  0.965300  0.954000  0.380000  1
  H  H73  1  0.951000  0.064600  0.655800  1
  H  H74  1  0.049000  0.935400  0.344200  1
  H  H75  1  0.102700  0.099600  0.553900  1
  H  H76  1  0.897300  0.900400  0.446100  1
  H  H77  1  0.162200  0.128200  0.585400  1
  H  H78  1  0.837800  0.871800  0.414600  1
  H  H79  1  0.116100  0.038000  0.587600  1
  H  H80  1  0.883900  0.962000  0.412400  1
  H  H81  1  0.035900  0.260800  0.598700  1
  H  H82  1  0.964100  0.739200  0.401300  1
  H  H83  1  0.968600  0.318500  0.625800  1
  H  H84  1  0.031400  0.681500  0.374200  1
  H  H85  1  0.846700  0.259700  0.686900  1
  H  H86  1  0.153300  0.740300  0.313100  1
  H  H87  1  0.862300  0.309100  0.667700  1
  H  H88  1  0.137700  0.690900  0.332300  1
  H  H89  1  0.536700  0.395800  0.782800  1
  H  H90  1  0.463300  0.604200  0.217200  1
  H  H91  1  0.568500  0.535900  0.770500  1
  H  H92  1  0.431500  0.464100  0.229500  1
  H  H93  1  0.647700  0.525200  0.728700  1
  H  H94  1  0.352300  0.474800  0.271300  1
  H  H95  1  0.509700  0.459600  0.833800  1
  H  H96  1  0.490300  0.540400  0.166200  1
  H  H97  1  0.490400  0.506200  0.813200  1
  H  H98  1  0.509600  0.493800  0.186800  1
  H  H99  1  0.417100  0.424600  0.804700  1
  H  H100  1  0.582900  0.575400  0.195300  1
  H  H101  1  0.580000  0.321200  0.770800  1
  H  H102  1  0.420000  0.678800  0.229200  1
  H  H103  1  0.665200  0.273200  0.749100  1
  H  H104  1  0.334800  0.726800  0.250900  1
  H  H105  1  0.789400  0.340700  0.694500  1
  H  H106  1  0.210600  0.659300  0.305500  1
  H  H107  1  0.769100  0.288400  0.707600  1
  H  H108  1  0.230900  0.711600  0.292400  1
  H  H109  1  0.021700  0.287100  0.698200  1
  H  H110  1  0.978300  0.712900  0.301800  1
  H  H111  1  0.104900  0.315600  0.751600  1
  H  H112  1  0.895100  0.684400  0.248400  1
  H  H113  1  0.066000  0.342200  0.804400  1
  H  H114  1  0.934000  0.657800  0.195600  1
  H  H115  1  0.773000  0.351800  0.784600  1
  H  H116  1  0.227000  0.648200  0.215400  1
  H  H117  1  0.857400  0.366000  0.840100  1
  H  H118  1  0.142600  0.634000  0.159900  1
  H  H119  1  0.975100  0.359800  0.837500  1
  H  H120  1  0.024900  0.640200  0.162500  1
  H  H121  1  0.951300  0.230200  0.809000  1
  H  H122  1  0.048700  0.769800  0.191000  1
  H  H123  1  0.121100  0.181800  0.774700  1
  H  H124  1  0.878900  0.818200  0.225300  1
  H  H125  1  0.050200  0.156400  0.718600  1
  H  H126  1  0.949800  0.843600  0.281400  1
  H  H127  1  0.127800  0.208000  0.842100  1
  H  H128  1  0.872200  0.792000  0.157900  1
  H  H129  1  0.117000  0.259700  0.829900  1
  H  H130  1  0.883000  0.740300  0.170100  1
  H  H131  1  0.033000  0.256400  0.862800  1
  H  H132  1  0.967000  0.743600  0.137200  1
  H  H133  1  0.817900  0.225900  0.794400  1
  H  H134  1  0.182100  0.774100  0.205600  1
  H  H135  1  0.697700  0.205500  0.755100  1
  H  H136  1  0.302300  0.794500  0.244900  1
  H  H137  1  0.712300  0.150400  0.662500  1
  H  H138  1  0.287700  0.849600  0.337500  1
  H  H139  1  0.654700  0.174700  0.679900  1
  H  H140  1  0.345300  0.825300  0.320100  1
  H  H141  1  0.355600  0.104600  0.472900  1
  H  H142  1  0.644400  0.895400  0.527100  1
  H  H143  1  0.184400  0.155200  0.501100  1
  H  H144  1  0.815600  0.844800  0.498900  1
  H  H145  1  0.247200  0.174200  0.560300  1
  H  H146  1  0.752800  0.825800  0.439700  1
  H  H147  1  0.250100  0.125900  0.422500  1
  H  H148  1  0.749900  0.874100  0.577500  1
  H  H149  1  0.219000  0.076900  0.438500  1
  H  H150  1  0.781000  0.923100  0.561500  1
  H  H151  1  0.144700  0.141000  0.416900  1
  H  H152  1  0.855300  0.859000  0.583100  1
  H  H153  1  0.485800  0.094200  0.496800  1
  H  H154  1  0.514200  0.905800  0.503200  1
  H  H155  1  0.594100  0.096100  0.546900  1
  H  H156  1  0.405900  0.903900  0.453100  1
  H  H157  1  0.569000  0.155100  0.634800  1
  H  H158  1  0.431000  0.844900  0.365200  1
  H  H159  1  0.632400  0.139300  0.616200  1
  H  H160  1  0.367600  0.860700  0.383800  1
  H  H161  1  0.725300  0.119600  0.749600  1
  H  H162  1  0.274700  0.880400  0.250400  1
  H  H163  1  0.689400  0.048300  0.776500  1
  H  H164  1  0.310600  0.951700  0.223500  1
  H  H165  1  0.601100  0.993300  0.741800  1
  H  H166  1  0.398900  0.006700  0.258200  1
  H  H167  1  0.501000  0.057600  0.596000  1
  H  H168  1  0.499000  0.942400  0.404000  1
  H  H169  1  0.465000  0.986300  0.622900  1
  H  H170  1  0.535000  0.013700  0.377100  1
  H  H171  1  0.517400  0.970100  0.684500  1
  H  H172  1  0.482600  0.029900  0.315500  1
  H  H173  1  0.467500  0.305900  0.388000  1
  H  H174  1  0.532500  0.694100  0.612000  1
  H  H175  1  0.588200  0.255700  0.318600  1
  H  H176  1  0.411800  0.744300  0.681400  1
  H  H177  1  0.683700  0.267000  0.367700  1
  H  H178  1  0.316300  0.733000  0.632300  1
  H  H179  1  0.411800  0.259500  0.325000  1
  H  H180  1  0.588200  0.740500  0.675000  1
  H  H181  1  0.442800  0.308700  0.309000  1
  H  H182  1  0.557200  0.691300  0.691000  1
  H  H183  1  0.464200  0.225200  0.286900  1
  H  H184  1  0.535800  0.774800  0.713100  1
  H  H185  1  0.466900  0.340900  0.452600  1
  H  H186  1  0.533100  0.659100  0.547400  1
  H  H187  1  0.524200  0.376400  0.517300  1
  H  H188  1  0.475800  0.623600  0.482700  1
  H  H189  1  0.715500  0.363600  0.535200  1
  H  H190  1  0.284500  0.636400  0.464800  1
  H  H191  1  0.657000  0.378300  0.558600  1
  H  H192  1  0.343000  0.621700  0.441400  1
  H  H193  1  0.977300  0.442600  0.755100  1
  H  H194  1  0.022700  0.557400  0.244900  1
  H  H195  1  0.868000  0.489800  0.831900  1
  H  H196  1  0.132000  0.510200  0.168100  1
  H  H197  1  0.768700  0.484000  0.785600  1
  H  H198  1  0.231300  0.516000  0.214400  1
  H  H199  1  0.009400  0.502100  0.840400  1
  H  H200  1  0.990600  0.497900  0.159600  1
  H  H201  1  0.988600  0.448300  0.849400  1
  H  H202  1  0.011400  0.551700  0.150600  1
  H  H203  1  0.067600  0.433600  0.820300  1
  H  H204  1  0.932400  0.566400  0.179700  1
  H  H205  1  0.972800  0.416100  0.688900  1
  H  H206  1  0.027200  0.583900  0.311100  1
  H  H207  1  0.913200  0.392700  0.621900  1
  H  H208  1  0.086800  0.607300  0.378100  1
  H  H209  1  0.722200  0.401100  0.609500  1
  H  H210  1  0.277800  0.598900  0.390500  1
  H  H211  1  0.778700  0.383800  0.586000  1
  H  H212  1  0.221300  0.616200  0.414000  1
  H  H213  1  0.630100  0.421500  0.471300  1
  H  H214  1  0.369900  0.578500  0.528700  1
  H  H215  1  0.649900  0.498300  0.451600  1
  H  H216  1  0.350100  0.501700  0.548400  1
  H  H217  1  0.730300  0.552800  0.489800  1
  H  H218  1  0.269700  0.447200  0.510200  1
  H  H219  1  0.853100  0.484900  0.628900  1
  H  H220  1  0.146900  0.515100  0.371100  1
  H  H221  1  0.872700  0.559800  0.605300  1
  H  H222  1  0.127300  0.440200  0.394700  1
  H  H223  1  0.811100  0.576200  0.547200  1
  H  H224  1  0.188900  0.423800  0.452800  1
  H  H225  1  0.643100  0.553000  0.598900  1
  H  H226  1  0.356900  0.447000  0.401100  1
  H  H227  1  0.790100  0.618700  0.684600  1
  H  H228  1  0.209900  0.381300  0.315400  1
  H  H229  1  0.799100  0.547900  0.711300  1
  H  H230  1  0.200900  0.452100  0.288700  1
  H  H231  1  0.701900  0.663400  0.640800  1
  H  H232  1  0.298100  0.336600  0.359200  1
  H  H233  1  0.749700  0.652500  0.609600  1
  H  H234  1  0.250300  0.347500  0.390400  1
  H  H235  1  0.610800  0.634800  0.602500  1
  H  H236  1  0.389200  0.365200  0.397500  1
  H  H237  1  0.576400  0.476700  0.573100  1
  H  H238  1  0.423600  0.523300  0.426900  1
  H  H239  1  0.518000  0.395100  0.581400  1
  H  H240  1  0.482000  0.604900  0.418600  1
  H  H241  1  0.595800  0.346000  0.670400  1
  H  H242  1  0.404200  0.654000  0.329600  1
  H  H243  1  0.538400  0.330100  0.633100  1
  H  H244  1  0.461600  0.669900  0.366900  1
  H  H245  1  0.418900  0.058400  0.713600  1
  H  H246  1  0.581100  0.941600  0.286400  1
  H  H247  1  0.283700  0.000400  0.620600  1
  H  H248  1  0.716300  0.999600  0.379400  1
  H  H249  1  0.308300  0.068800  0.589700  1
  H  H250  1  0.691700  0.931200  0.410300  1
  H  H251  1  0.319900  0.951400  0.678200  1
  H  H252  1  0.680100  0.048600  0.321800  1
  H  H253  1  0.363200  0.978100  0.716400  1
  H  H254  1  0.636800  0.021900  0.283600  1
  H  H255  1  0.513500  0.126100  0.737300  1
  H  H256  1  0.486500  0.873900  0.262700  1
  H  H257  1  0.569800  0.210100  0.737600  1
  H  H258  1  0.430200  0.789900  0.262400  1
  H  H259  1  0.502000  0.263400  0.647400  1
  H  H260  1  0.498000  0.736600  0.352600  1
  H  H261  1  0.562800  0.276700  0.683700  1
  H  H262  1  0.437200  0.723300  0.316300  1
  H  H263  1  0.510600  0.434800  0.659100  1
  H  H264  1  0.489400  0.565200  0.340900  1
  H  H265  1  0.419800  0.457500  0.688800  1
  H  H266  1  0.580200  0.542500  0.311200  1
  H  H267  1  0.354500  0.404500  0.722900  1
  H  H268  1  0.645500  0.595500  0.277100  1
  H  H269  1  0.422300  0.222200  0.716300  1
  H  H270  1  0.577700  0.777800  0.283700  1
  H  H271  1  0.339800  0.250500  0.749400  1
  H  H272  1  0.660200  0.749500  0.250600  1
  H  H273  1  0.326600  0.328800  0.746600  1
  H  H274  1  0.673400  0.671200  0.253400  1
  H  H275  1  0.280500  0.303500  0.639400  1
  H  H276  1  0.719500  0.696500  0.360600  1
  H  H277  1  0.193000  0.183700  0.682400  1
  H  H278  1  0.807000  0.816300  0.317600  1
  H  H279  1  0.269700  0.144700  0.654500  1
  H  H280  1  0.730300  0.855300  0.345500  1
  H  H281  1  0.206600  0.301700  0.695500  1
  H  H282  1  0.793400  0.698300  0.304500  1
  H  H283  1  0.146100  0.285900  0.659600  1
  H  H284  1  0.853900  0.714100  0.340400  1
  H  H285  1  0.163300  0.235200  0.721500  1
  H  H286  1  0.836700  0.764800  0.278500  1
  H  H287  1  0.365100  0.340000  0.598400  1
  H  H288  1  0.634900  0.660000  0.401600  1
  H  H289  1  0.450800  0.336400  0.551000  1
  H  H290  1  0.549200  0.663600  0.449000  1
  H  H291  1  0.500800  0.219300  0.546300  1
  H  H292  1  0.499200  0.780700  0.453700  1
  H  H293  1  0.526000  0.270800  0.532800  1
  H  H294  1  0.474000  0.729200  0.467200  1
  H  H295  1  0.838100  0.173400  0.419000  1
  H  H296  1  0.161900  0.826600  0.581000  1
  H  H297  1  0.914100  0.291500  0.370900  1
  H  H298  1  0.085900  0.708500  0.629100  1
  H  H299  1  0.839800  0.331000  0.400700  1
  H  H300  1  0.160200  0.669000  0.599300  1
  H  H301  1  0.897300  0.186100  0.347200  1
  H  H302  1  0.102700  0.813900  0.652800  1
  H  H303  1  0.966500  0.222300  0.363200  1
  H  H304  1  0.033500  0.777700  0.636800  1
  H  H305  1  0.923400  0.144200  0.393000  1
  H  H306  1  0.076600  0.855800  0.607000  1
  H  H307  1  0.755500  0.138100  0.463400  1
  H  H308  1  0.244500  0.861900  0.536600  1
  H  H309  1  0.654400  0.136400  0.499100  1
  H  H310  1  0.345600  0.863600  0.500900  1
  H  H311  1  0.599000  0.252300  0.502600  1
  H  H312  1  0.401000  0.747700  0.497400  1
  H  H313  1  0.579300  0.201600  0.518800  1
  H  H314  1  0.420700  0.798400  0.481200  1
  H  H315  1  0.351300  0.258900  0.518000  1
  H  H316  1  0.648700  0.741100  0.482000  1
  H  H317  1  0.269400  0.247300  0.460700  1
  H  H318  1  0.730600  0.752700  0.539300  1
  H  H319  1  0.301900  0.213800  0.408700  1
  H  H320  1  0.698100  0.786200  0.591300  1
  H  H321  1  0.587400  0.181700  0.428600  1
  H  H322  1  0.412600  0.818300  0.571400  1
  H  H323  1  0.498500  0.163800  0.376100  1
  H  H324  1  0.501500  0.836200  0.623900  1
  H  H325  1  0.386700  0.181200  0.377400  1
  H  H326  1  0.613300  0.818800  0.622600  1
  H  H327  1  0.873300  0.038300  0.269700  1
  H  H328  1  0.126700  0.961700  0.730300  1
  H  H329  1  0.905600  0.924200  0.213600  1
  H  H330  1  0.094400  0.075800  0.786400  1
  H  H331  1  0.831500  0.944700  0.159100  1
  H  H332  1  0.168500  0.055300  0.840900  1
  H  H333  1  0.924800  0.937300  0.290500  1
  H  H334  1  0.075200  0.062700  0.709500  1
  H  H335  1  0.992200  0.960200  0.272200  1
  H  H336  1  0.007800  0.039800  0.727800  1
  H  H337  1  0.929700  0.013400  0.312800  1
  H  H338  1  0.070300  0.986600  0.687200  1
  H  H339  1  0.799700  0.100700  0.268700  1
  H  H340  1  0.200300  0.899300  0.731300  1
  H  H341  1  0.713200  0.152300  0.238700  1
  H  H342  1  0.286800  0.847700  0.761300  1
  H  H343  1  0.655500  0.119700  0.136400  1
  H  H344  1  0.344500  0.880300  0.863600  1
  H  H345  1  0.655200  0.162300  0.164900  1
  H  H346  1  0.344800  0.837700  0.835100  1
  H  H347  1  0.415000  0.313400  0.000100  1
  H  H348  1  0.585000  0.686600  0.999900  1
  H  H349  1  0.384900  0.420900  0.065000  1
  H  H350  1  0.615100  0.579100  0.935000  1
  H  H351  1  0.452500  0.391600  0.116900  1
  H  H352  1  0.547500  0.608400  0.883100  1
  H  H353  1  0.309600  0.402000  0.001500  1
  H  H354  1  0.690400  0.598000  0.998500  1
  H  H355  1  0.380200  0.414400  0.982600  1
  H  H356  1  0.619800  0.585600  0.017400  1
  H  H357  1  0.345700  0.357900  0.946200  1
  H  H358  1  0.654300  0.642100  0.053800  1
  H  H359  1  0.474000  0.241800  0.999100  1
  H  H360  1  0.526000  0.758200  0.000900  1
  H  H361  1  0.536300  0.178300  0.029800  1
  H  H362  1  0.463700  0.821700  0.970200  1
  H  H363  1  0.590700  0.201500  0.132800  1
  H  H364  1  0.409300  0.798500  0.867200  1
  H  H365  1  0.603800  0.166800  0.100400  1
  H  H366  1  0.396200  0.833200  0.899600  1
  H  H367  1  0.620400  0.070400  0.212100  1
  H  H368  1  0.379600  0.929600  0.787900  1
  H  H369  1  0.515300  0.025200  0.224300  1
  H  H370  1  0.484700  0.974800  0.775700  1
  H  H371  1  0.405600  0.035200  0.188700  1
  H  H372  1  0.594400  0.964800  0.811300  1
  H  H373  1  0.438300  0.174200  0.079200  1
  H  H374  1  0.561700  0.825800  0.920800  1
  H  H375  1  0.333200  0.129000  0.091400  1
  H  H376  1  0.666800  0.871000  0.908600  1
  H  H377  1  0.337800  0.073900  0.139200  1
  H  H378  1  0.662200  0.926100  0.860800  1
  H  H379  1  0.477900  0.999900  0.102900  1
  H  H380  1  0.522100  0.000100  0.897100  1
  H  H381  1  0.549200  0.917000  0.187200  1
  H  H382  1  0.450800  0.083000  0.812800  1
  H  H383  1  0.665800  0.949800  0.182400  1
  H  H384  1  0.334200  0.050200  0.817600  1
  H  H385  1  0.417300  0.900100  0.138900  1
  H  H386  1  0.582700  0.099900  0.861100  1
  H  H387  1  0.415800  0.934500  0.174100  1
  H  H388  1  0.584200  0.065500  0.825900  1
  H  H389  1  0.338600  0.954600  0.133600  1
  H  H390  1  0.661400  0.045400  0.866400  1
  H  H391  1  0.510500  0.059900  0.058200  1
  H  H392  1  0.489500  0.940100  0.941800  1
  H  H393  1  0.596200  0.111000  0.023500  1
  H  H394  1  0.403800  0.889000  0.976500  1
  H  H395  1  0.781900  0.105800  0.065600  1
  H  H396  1  0.218100  0.894200  0.934400  1
  H  H397  1  0.737500  0.134000  0.034200  1
  H  H398  1  0.262500  0.866000  0.965800  1
  H  H399  1  0.112100  0.297800  0.975000  1
  H  H400  1  0.887900  0.702200  0.025000  1
  H  H401  1  0.021600  0.385800  0.901900  1
  H  H402  1  0.978400  0.614200  0.098100  1
  H  H403  1  0.911700  0.345400  0.907900  1
  H  H404  1  0.088300  0.654600  0.092100  1
  H  H405  1  0.159600  0.401100  0.946000  1
  H  H406  1  0.840400  0.598900  0.054000  1
  H  H407  1  0.188400  0.352700  0.941300  1
  H  H408  1  0.811600  0.647300  0.058700  1
  H  H409  1  0.139600  0.405800  0.885500  1
  H  H410  1  0.860400  0.594200  0.114500  1
  H  H411  1  0.088200  0.234100  0.021200  1
  H  H412  1  0.911800  0.765900  0.978800  1
  H  H413  1  0.011100  0.169600  0.049600  1
  H  H414  1  0.988900  0.830400  0.950400  1
  H  H415  1  0.820300  0.172700  0.012000  1
  H  H416  1  0.179700  0.827300  0.988000  1
  H  H417  1  0.866100  0.149200  0.046100  1
  H  H418  1  0.133900  0.850800  0.953900  1
  H  H419  1  0.662200  0.024100  0.022100  1
  H  H420  1  0.337800  0.975900  0.977900  1
  H  H421  1  0.665700  0.966700  0.976600  1
  H  H422  1  0.334300  0.033300  0.023400  1
  H  H423  1  0.760500  0.974700  0.941000  1
  H  H424  1  0.239500  0.025300  0.059000  1
  H  H425  1  0.949100  0.143100  0.970500  1
  H  H426  1  0.050900  0.856900  0.029500  1
  H  H427  1  0.957000  0.079900  0.932900  1
  H  H428  1  0.043000  0.920100  0.067100  1
  H  H429  1  0.867600  0.015300  0.926400  1
  H  H430  1  0.132400  0.984700  0.073600  1
  H  H431  1  0.884400  0.972000  0.040000  1
  H  H432  1  0.115600  0.028000  0.960000  1
  H  H433  1  0.717300  0.875300  0.057100  1
  H  H434  1  0.282700  0.124700  0.942900  1
  H  H435  1  0.689300  0.927700  0.099500  1
  H  H436  1  0.310700  0.072300  0.900500  1
  H  H437  1  0.826800  0.897800  0.992400  1
  H  H438  1  0.173200  0.102200  0.007600  1
  H  H439  1  0.887200  0.888300  0.026600  1
  H  H440  1  0.112800  0.111700  0.973400  1
  H  H441  1  0.758800  0.837900  0.013700  1
  H  H442  1  0.241200  0.162100  0.986300  1
  H  H443  1  0.950700  0.053100  0.057900  1
  H  H444  1  0.049300  0.946900  0.942100  1
  H  H445  1  0.983200  0.122800  0.100900  1
  H  H446  1  0.016800  0.877200  0.899100  1
  H  H447  1  0.856700  0.125800  0.168900  1
  H  H448  1  0.143300  0.874200  0.831100  1
  H  H449  1  0.923400  0.158600  0.156400  1
  H  H450  1  0.076600  0.841400  0.843600  1
  H  H451  1  0.895800  0.366200  0.324400  1
  H  H452  1  0.104200  0.633800  0.675600  1
  H  H453  1  0.058700  0.466000  0.309400  1
  H  H454  1  0.941300  0.534000  0.690600  1
  H  H455  1  0.084300  0.419400  0.261800  1
  H  H456  1  0.915700  0.580600  0.738200  1
  H  H457  1  0.000200  0.457200  0.373700  1
  H  H458  1  0.999800  0.542800  0.626300  1
  H  H459  1  0.945400  0.479500  0.343600  1
  H  H460  1  0.054600  0.520500  0.656400  1
  H  H461  1  0.924600  0.420700  0.391200  1
  H  H462  1  0.075400  0.579300  0.608800  1
  H  H463  1  0.828700  0.287200  0.301700  1
  H  H464  1  0.171300  0.712800  0.698300  1
  H  H465  1  0.808400  0.211800  0.265300  1
  H  H466  1  0.191600  0.788200  0.734700  1
  H  H467  1  0.934500  0.212100  0.196700  1
  H  H468  1  0.065500  0.787900  0.803300  1
  H  H469  1  0.863300  0.181200  0.205900  1
  H  H470  1  0.136700  0.818800  0.794100  1
  H  H471  1  0.966300  0.052600  0.158300  1
  H  H472  1  0.033700  0.947400  0.841700  1
  H  H473  1  0.046400  0.019200  0.203100  1
  H  H474  1  0.953600  0.980800  0.796900  1
  H  H475  1  0.077200  0.049700  0.263700  1
  H  H476  1  0.922800  0.950300  0.736300  1
  H  H477  1  0.963800  0.212300  0.289300  1
  H  H478  1  0.036200  0.787700  0.710700  1
  H  H479  1  0.032600  0.171200  0.332800  1
  H  H480  1  0.967400  0.828800  0.667200  1
  H  H481  1  0.070500  0.104600  0.311700  1
  H  H482  1  0.929500  0.895400  0.688300  1
  H  H483  1  0.667100  0.450600  0.205100  1
  H  H484  1  0.332900  0.549400  0.794900  1
  H  H485  1  0.496400  0.396500  0.252500  1
  H  H486  1  0.503600  0.603500  0.747500  1
  H  H487  1  0.466800  0.340200  0.204400  1
  H  H488  1  0.533200  0.659800  0.795600  1
  H  H489  1  0.560800  0.480900  0.267600  1
  H  H490  1  0.439200  0.519100  0.732400  1
  H  H491  1  0.616000  0.450500  0.289900  1
  H  H492  1  0.384000  0.549500  0.710100  1
  H  H493  1  0.644900  0.525300  0.253600  1
  H  H494  1  0.355100  0.474700  0.746400  1
  H  H495  1  0.731100  0.446100  0.149100  1
  H  H496  1  0.268900  0.553900  0.850900  1
  H  H497  1  0.756300  0.408600  0.090300  1
  H  H498  1  0.243700  0.591400  0.909700  1
  H  H499  1  0.636200  0.297900  0.066100  1
  H  H500  1  0.363800  0.702100  0.933900  1
  H  H501  1  0.709800  0.324200  0.055600  1
  H  H502  1  0.290200  0.675800  0.944400  1
  H  H503  1  0.737700  0.106800  0.898000  1
  H  H504  1  0.262300  0.893200  0.102000  1
  H  H505  1  0.905500  0.162700  0.848600  1
  H  H506  1  0.094500  0.837300  0.151400  1
  H  H507  1  0.917800  0.228100  0.887300  1
  H  H508  1  0.082200  0.771900  0.112700  1
  H  H509  1  0.801300  0.093500  0.816200  1
  H  H510  1  0.198700  0.906500  0.183800  1
  H  H511  1  0.855800  0.071700  0.847100  1
  H  H512  1  0.144200  0.928300  0.152900  1
  H  H513  1  0.725700  0.060900  0.860200  1
  H  H514  1  0.274300  0.939100  0.139800  1
  H  H515  1  0.650800  0.122900  0.938300  1
  H  H516  1  0.349200  0.877100  0.061700  1
  H  H517  1  0.602200  0.171100  0.984500  1
  H  H518  1  0.397800  0.828900  0.015500  1
  H  H519  1  0.726200  0.280800  0.011600  1
  H  H520  1  0.273800  0.719200  0.988400  1
  H  H521  1  0.658000  0.251500  0.025600  1
  H  H522  1  0.342000  0.748500  0.974400  1
  H  H523  1  0.608700  0.405600  0.060200  1
  H  H524  1  0.391300  0.594400  0.939800  1
  H  H525  1  0.541800  0.443600  0.012200  1
  H  H526  1  0.458200  0.556400  0.987800  1
  H  H527  1  0.509500  0.409400  0.952000  1
  H  H528  1  0.490500  0.590600  0.048000  1
  H  H529  1  0.627700  0.246900  0.931000  1
  H  H530  1  0.372300  0.753100  0.069000  1
  H  H531  1  0.553000  0.283600  0.887100  1
  H  H532  1  0.447000  0.716400  0.112900  1
  H  H533  1  0.514500  0.351100  0.905600  1
  H  H534  1  0.485500  0.648900  0.094400  1
  H  H535  1  0.719200  0.401200  0.930300  1
  H  H536  1  0.280800  0.598800  0.069700  1
  H  H537  1  0.692000  0.316300  0.836500  1
  H  H538  1  0.308000  0.683700  0.163500  1
  H  H539  1  0.761500  0.267300  0.871600  1
  H  H540  1  0.238500  0.732700  0.128400  1
  H  H541  1  0.692200  0.427700  0.855400  1
  H  H542  1  0.307800  0.572300  0.144600  1
  H  H543  1  0.646800  0.385500  0.829300  1
  H  H544  1  0.353200  0.614500  0.170700  1
  H  H545  1  0.582800  0.387100  0.882900  1
  H  H546  1  0.417200  0.612900  0.117100  1
  H  H547  1  0.771600  0.412600  0.999800  1
  H  H548  1  0.228400  0.587400  0.000200  1
  H  H549  1  0.852700  0.395800  0.059000  1
  H  H550  1  0.147300  0.604200  0.941000  1
  H  H551  1  0.925300  0.287900  0.045900  1
  H  H552  1  0.074700  0.712100  0.954100  1
  H  H553  1  0.918500  0.322300  0.079800  1
  H  H554  1  0.081500  0.677700  0.920200  1
  H  H555  1  0.164800  0.187000  0.253900  1
  H  H556  1  0.835200  0.813000  0.746100  1
  H  H557  1  0.170500  0.270300  0.346100  1
  H  H558  1  0.829500  0.729700  0.653900  1
  H  H559  1  0.100200  0.316600  0.308100  1
  H  H560  1  0.899800  0.683400  0.691900  1
  H  H561  1  0.272100  0.217700  0.337000  1
  H  H562  1  0.727900  0.782300  0.663000  1
  H  H563  1  0.205700  0.186000  0.350700  1
  H  H564  1  0.794300  0.814000  0.649300  1
  H  H565  1  0.283500  0.163800  0.304900  1
  H  H566  1  0.716500  0.836200  0.695100  1
  H  H567  1  0.113200  0.170500  0.185500  1
  H  H568  1  0.886800  0.829500  0.814500  1
  H  H569  1  0.054600  0.192000  0.119800  1
  H  H570  1  0.945400  0.808000  0.880200  1
  H  H571  1  0.982400  0.300900  0.125700  1
  H  H572  1  0.017600  0.699100  0.874300  1
  H  H573  1  0.980000  0.259000  0.096000  1
  H  H574  1  0.020000  0.741000  0.904000  1
  H  H575  1  0.142300  0.278800  0.137100  1
  H  H576  1  0.857700  0.721200  0.862900  1
  H  H577  1  0.246700  0.320900  0.121000  1
  H  H578  1  0.753300  0.679100  0.879000  1
  H  H579  1  0.240000  0.375400  0.072800  1
  H  H580  1  0.760000  0.624600  0.927200  1
  H  H581  1  0.954400  0.385500  0.008800  1
  H  H582  1  0.045600  0.614500  0.991200  1
  H  H583  1  0.058900  0.427600  0.992700  1
  H  H584  1  0.941100  0.572400  0.007300  1
  H  H585  1  0.170000  0.415100  0.025000  1
  H  H586  1  0.830000  0.584900  0.975000  1
  H  H587  1  0.130500  0.433400  0.131600  1
  H  H588  1  0.869500  0.566600  0.868400  1
  H  H589  1  0.284600  0.394300  0.210300  1
  H  H590  1  0.715400  0.605700  0.789700  1
  H  H591  1  0.197700  0.350200  0.238600  1
  H  H592  1  0.802300  0.649800  0.761400  1
  H  H593  1  0.281100  0.479700  0.158500  1
  H  H594  1  0.718900  0.520300  0.841500  1
  H  H595  1  0.256000  0.447300  0.120600  1
  H  H596  1  0.744000  0.552700  0.879400  1
  H  H597  1  0.335200  0.400800  0.166700  1
  H  H598  1  0.664800  0.599200  0.833300  1
  H  H599  1  0.997300  0.431400  0.113300  1
  H  H600  1  0.002700  0.568600  0.886700  1
  H  H601  1  0.868200  0.405900  0.120100  1
  H  H602  1  0.131800  0.594100  0.879900  1
  H  H603  1  0.854200  0.320400  0.195500  1
  H  H604  1  0.145800  0.679600  0.804500  1
  H  H605  1  0.803500  0.341300  0.162100  1
  H  H606  1  0.196500  0.658700  0.837900  1
  H  H607  1  0.424700  0.174100  0.208600  1
  H  H608  1  0.575300  0.825900  0.791400  1
  H  H609  1  0.276200  0.226400  0.134700  1
  H  H610  1  0.723800  0.773600  0.865300  1
  H  H611  1  0.364800  0.281300  0.117800  1
  H  H612  1  0.635200  0.718700  0.882200  1
  H  H613  1  0.242900  0.176200  0.191200  1
  H  H614  1  0.757100  0.823800  0.808800  1
  H  H615  1  0.261500  0.137800  0.163400  1
  H  H616  1  0.738500  0.862200  0.836600  1
  H  H617  1  0.326200  0.113600  0.209800  1
  H  H618  1  0.673800  0.886400  0.790200  1
  H  H619  1  0.552600  0.183400  0.236700  1
  H  H620  1  0.447400  0.816600  0.763300  1
  H  H621  1  0.682000  0.219100  0.243900  1
  H  H622  1  0.318000  0.780900  0.756100  1
  H  H623  1  0.705700  0.312600  0.175200  1
  H  H624  1  0.294300  0.687400  0.824800  1
  H  H625  1  0.754000  0.280800  0.201000  1
  H  H626  1  0.246000  0.719200  0.799000  1
  H  H627  1  0.908800  0.430100  0.198600  1
  H  H628  1  0.091200  0.569900  0.801400  1
  H  H629  1  0.909400  0.484900  0.247200  1
  H  H630  1  0.090600  0.515100  0.752800  1
  H  H631  1  0.827000  0.471500  0.289500  1
  H  H632  1  0.173000  0.528500  0.710500  1
  H  H633  1  0.645100  0.299700  0.255900  1
  H  H634  1  0.354900  0.700300  0.744100  1
  H  H635  1  0.645700  0.354600  0.304500  1
  H  H636  1  0.354300  0.645400  0.695500  1
  H  H637  1  0.728700  0.422900  0.310900  1
  H  H638  1  0.271300  0.577100  0.689100  1
  H  H639  1  0.492000  0.447000  0.827000  1
  H  H640  1  0.508000  0.553000  0.173000  1
  H  H641  1  0.444600  0.473300  0.795000  1
  H  H642  1  0.555400  0.526700  0.205000  1
  H  H643  1  0.492000  0.538700  0.830000  1
  H  H644  1  0.508000  0.461300  0.170000  1
  H  H645  1  0.359100  0.957500  0.693300  1
  H  H646  1  0.640900  0.042500  0.306700  1
  H  H647  1  0.328600  0.990300  0.721100  1
  H  H648  1  0.671400  0.009700  0.278900  1
  H  H649  1  0.905200  0.452100  0.348600  1
  H  H650  1  0.094800  0.547900  0.651400  1
  H  H651  1  0.963600  0.432200  0.378300  1
  H  H652  1  0.036400  0.567800  0.621700  1
  H  H653  1  0.966900  0.510500  0.350500  1
  H  H654  1  0.033100  0.489500  0.649500  1
  H  H655  1  0.618100  0.380600  0.838800  1
  H  H656  1  0.381900  0.619400  0.161200  1
  H  H657  1  0.641400  0.418900  0.872900  1
  H  H658  1  0.358600  0.581100  0.127100  1
  H  H659  1  0.735700  0.409600  0.827600  1
  H  H660  1  0.264300  0.590400  0.172400  1
  H  H661  1  0.234400  0.170400  0.312300  1
  H  H662  1  0.765600  0.829600  0.687700  1
  H  H663  1  0.273300  0.217100  0.335100  1
  H  H664  1  0.726700  0.782900  0.664900  1
  H  H665  1  0.213000  0.153000  0.363900  1
  H  H666  1  0.787000  0.847000  0.636100  1
  C  C667  1  0.798300  0.060000  0.674300  1
  C  C668  1  0.201700  0.940000  0.325700  1
  C  C669  1  0.765200  0.017200  0.684700  1
  C  C670  1  0.234800  0.982800  0.315300  1
  C  C671  1  0.785300  0.000800  0.720600  1
  C  C672  1  0.214700  0.999200  0.279400  1
  C  C673  1  0.838300  0.028100  0.745400  1
  C  C674  1  0.161700  0.971900  0.254600  1
  C  C675  1  0.869600  0.069900  0.733400  1
  C  C676  1  0.130400  0.930100  0.266600  1
  C  C677  1  0.751100  0.953400  0.730900  1
  C  C678  1  0.248900  0.046600  0.269100  1
  C  C679  1  0.778300  0.079700  0.636700  1
  C  C680  1  0.221700  0.920300  0.363300  1
  C  C681  1  0.731200  0.061200  0.603900  1
  C  C682  1  0.268800  0.938800  0.396100  1
  C  C683  1  0.737100  0.095700  0.577300  1
  C  C684  1  0.262900  0.904300  0.422700  1
  C  C685  1  0.814200  0.172300  0.574590  1
  C  C686  1  0.185800  0.827700  0.425410  1
  C  C687  1  0.806200  0.400900  0.464640  1
  C  C688  1  0.193800  0.599100  0.535360  1
  C  C689  1  0.833600  0.447800  0.460750  1
  C  C690  1  0.166400  0.552200  0.539250  1
  C  C691  1  0.806200  0.471000  0.428700  1
  C  C692  1  0.193800  0.529000  0.571300  1
  C  C693  1  0.751900  0.446500  0.402300  1
  C  C694  1  0.248100  0.553500  0.597700  1
  C  C695  1  0.727200  0.399700  0.408520  1
  C  C696  1  0.272800  0.600300  0.591480  1
  C  C697  1  0.833200  0.520600  0.422100  1
  C  C698  1  0.166800  0.479400  0.577900  1
  C  C699  1  0.832800  0.374800  0.497310  1
  C  C700  1  0.167200  0.625200  0.502690  1
  C  C701  1  0.888000  0.388200  0.528040  1
  C  C702  1  0.112000  0.611800  0.471960  1
  C  C703  1  0.891200  0.348200  0.548770  1
  C  C704  1  0.108800  0.651800  0.451230  1
  C  C705  1  0.837100  0.264200  0.538880  1
  C  C706  1  0.162900  0.735800  0.461120  1
  C  C707  1  0.869350  0.163260  0.547840  1
  C  C708  1  0.130650  0.836740  0.452160  1
  C  C709  1  0.882100  0.117510  0.550930  1
  C  C710  1  0.117900  0.882490  0.449070  1
  C  C711  1  0.931300  0.101950  0.530970  1
  C  C712  1  0.068700  0.898050  0.469030  1
  C  C713  1  0.967750  0.132160  0.507930  1
  C  C714  1  0.032250  0.867840  0.492070  1
  C  C715  1  0.955000  0.177920  0.504850  1
  C  C716  1  0.045000  0.822080  0.495150  1
  C  C717  1  0.905800  0.193470  0.524800  1
  C  C718  1  0.094200  0.806530  0.475200  1
  C  C719  1  0.893060  0.239230  0.521710  1
  C  C720  1  0.106940  0.760770  0.478290  1
  C  C721  1  0.929500  0.269430  0.498670  1
  C  C722  1  0.070500  0.730570  0.501330  1
  C  C723  1  0.978710  0.253880  0.478720  1
  C  C724  1  0.021290  0.746120  0.521280  1
  C  C725  1  0.991460  0.208120  0.481810  1
  C  C726  1  0.008540  0.791880  0.518190  1
  C  C727  1  0.999700  0.166300  0.628500  1
  C  C728  1  0.000300  0.833700  0.371500  1
  C  C729  1  0.052400  0.157500  0.607500  1
  C  C730  1  0.947600  0.842500  0.392500  1
  C  C731  1  0.065400  0.111900  0.603600  1
  C  C732  1  0.934600  0.888100  0.396400  1
  C  C733  1  0.026900  0.077400  0.622000  1
  C  C734  1  0.973100  0.922600  0.378000  1
  C  C735  1  0.977100  0.088700  0.643400  1
  C  C736  1  0.022900  0.911300  0.356600  1
  C  C737  1  0.122500  0.101900  0.581500  1
  C  C738  1  0.877500  0.898100  0.418500  1
  C  C739  1  0.979600  0.212500  0.632230  1
  C  C740  1  0.020400  0.787500  0.367770  1
  C  C741  1  0.002500  0.254900  0.615890  1
  C  C742  1  0.997500  0.745100  0.384110  1
  C  C743  1  0.964900  0.286200  0.630760  1
  C  C744  1  0.035100  0.713800  0.369240  1
  C  C745  1  0.885000  0.283500  0.680250  1
  C  C746  1  0.115000  0.716500  0.319750  1
  C  C747  1  0.611600  0.419800  0.749950  1
  C  C748  1  0.388400  0.580200  0.250050  1
  C  C749  1  0.560700  0.422900  0.772900  1
  C  C750  1  0.439300  0.577100  0.227100  1
  C  C751  1  0.544900  0.467800  0.781400  1
  C  C752  1  0.455100  0.532200  0.218600  1
  C  C753  1  0.578100  0.505600  0.765300  1
  C  C754  1  0.421900  0.494400  0.234700  1
  C  C755  1  0.626500  0.498900  0.740900  1
  C  C756  1  0.373500  0.501100  0.259100  1
  C  C757  1  0.638200  0.376200  0.744130  1
  C  C758  1  0.361800  0.623800  0.255870  1
  C  C759  1  0.617700  0.331300  0.756920  1
  C  C760  1  0.382300  0.668700  0.243080  1
  C  C761  1  0.664300  0.305300  0.744700  1
  C  C762  1  0.335700  0.694700  0.255300  1
  C  C763  1  0.775900  0.321600  0.715970  1
  C  C764  1  0.224100  0.678400  0.284030  1
  C  C765  1  0.933200  0.302500  0.716470  1
  C  C766  1  0.066800  0.697500  0.283530  1
  C  C767  1  0.005400  0.300200  0.719200  1
  C  C768  1  0.994600  0.699800  0.280800  1
  C  C769  1  0.055500  0.316100  0.751400  1
  C  C770  1  0.944500  0.683900  0.248600  1
  C  C771  1  0.032400  0.332300  0.782200  1
  C  C772  1  0.967600  0.667700  0.217800  1
  C  C773  1  0.959700  0.334800  0.782290  1
  C  C774  1  0.040300  0.665200  0.217710  1
  C  C775  1  0.907900  0.322100  0.748340  1
  C  C776  1  0.092100  0.677900  0.251660  1
  C  C777  1  0.836100  0.330300  0.750170  1
  C  C778  1  0.163900  0.669700  0.249830  1
  C  C779  1  0.820400  0.346700  0.783840  1
  C  C780  1  0.179600  0.653300  0.216160  1
  C  C781  1  0.871000  0.356400  0.817080  1
  C  C782  1  0.129000  0.643600  0.182920  1
  C  C783  1  0.939900  0.351600  0.815620  1
  C  C784  1  0.060100  0.648400  0.184380  1
  C  C785  1  0.932700  0.196400  0.756890  1
  C  C786  1  0.067300  0.803600  0.243110  1
  C  C787  1  0.972400  0.214700  0.791100  1
  C  C788  1  0.027600  0.785300  0.208900  1
  C  C789  1  0.045100  0.209600  0.798700  1
  C  C790  1  0.954900  0.790400  0.201300  1
  C  C791  1  0.072600  0.186400  0.770500  1
  C  C792  1  0.927400  0.813600  0.229500  1
  C  C793  1  0.029900  0.170600  0.737500  1
  C  C794  1  0.970100  0.829400  0.262500  1
  C  C795  1  0.091600  0.228600  0.834600  1
  C  C796  1  0.908400  0.771400  0.165400  1
  C  C797  1  0.854600  0.196900  0.747780  1
  C  C798  1  0.145400  0.803100  0.252220  1
  C  C799  1  0.807000  0.211400  0.769670  1
  C  C800  1  0.193000  0.788600  0.230330  1
  C  C801  1  0.741700  0.200400  0.748010  1
  C  C802  1  0.258300  0.799600  0.251990  1
  C  C803  1  0.692700  0.155100  0.686170  1
  C  C804  1  0.307300  0.844900  0.313830  1
  C  C805  1  0.368600  0.131300  0.527200  1
  C  C806  1  0.631400  0.868700  0.472800  1
  C  C807  1  0.332800  0.118400  0.491000  1
  C  C808  1  0.667200  0.881600  0.509000  1
  C  C809  1  0.260900  0.126200  0.481300  1
  C  C810  1  0.739100  0.873800  0.518700  1
  C  C811  1  0.231400  0.148100  0.507400  1
  C  C812  1  0.768600  0.851900  0.492600  1
  C  C813  1  0.268900  0.159500  0.542200  1
  C  C814  1  0.731100  0.840500  0.457800  1
  C  C815  1  0.222800  0.111000  0.441800  1
  C  C816  1  0.777200  0.889000  0.558200  1
  C  C817  1  0.442900  0.125500  0.540170  1
  C  C818  1  0.557100  0.874500  0.459830  1
  C  C819  1  0.492100  0.106100  0.522400  1
  C  C820  1  0.507900  0.893900  0.477600  1
  C  C821  1  0.551600  0.107800  0.549700  1
  C  C822  1  0.448400  0.892200  0.450300  1
  C  C823  1  0.581800  0.130300  0.619040  1
  C  C824  1  0.418200  0.869700  0.380960  1
  C  C825  1  0.658350  0.106820  0.698880  1
  C  C826  1  0.341650  0.893180  0.301120  1
  C  C827  1  0.689480  0.097220  0.735480  1
  C  C828  1  0.310520  0.902780  0.264520  1
  C  C829  1  0.668100  0.054900  0.751460  1
  C  C830  1  0.331900  0.945100  0.248540  1
  C  C831  1  0.615600  0.022190  0.730830  1
  C  C832  1  0.384400  0.977810  0.269170  1
  C  C833  1  0.584510  0.031790  0.694230  1
  C  C834  1  0.415490  0.968210  0.305770  1
  C  C835  1  0.605860  0.074110  0.678260  1
  C  C836  1  0.394140  0.925890  0.321740  1
  C  C837  1  0.574700  0.083710  0.641660  1
  C  C838  1  0.425300  0.916290  0.358340  1
  C  C839  1  0.522200  0.050990  0.621040  1
  C  C840  1  0.477800  0.949010  0.378960  1
  C  C841  1  0.500900  0.008670  0.637010  1
  C  C842  1  0.499100  0.991330  0.362990  1
  C  C843  1  0.532000  0.999070  0.673610  1
  C  C844  1  0.468000  0.000930  0.326390  1
  C  C845  1  0.570400  0.304800  0.411510  1
  C  C846  1  0.429600  0.695200  0.588490  1
  C  C847  1  0.511900  0.298500  0.383130  1
  C  C848  1  0.488100  0.701500  0.616870  1
  C  C849  1  0.517900  0.281400  0.347080  1
  C  C850  1  0.482100  0.718600  0.652920  1
  C  C851  1  0.582800  0.269000  0.342350  1
  C  C852  1  0.417200  0.731000  0.657650  1
  C  C853  1  0.639600  0.275600  0.371700  1
  C  C854  1  0.360400  0.724400  0.628300  1
  C  C855  1  0.453800  0.277300  0.315900  1
  C  C856  1  0.546200  0.722700  0.684100  1
  C  C857  1  0.569200  0.325700  0.449060  1
  C  C858  1  0.430800  0.674300  0.550940  1
  C  C859  1  0.515200  0.342300  0.464200  1
  C  C860  1  0.484800  0.657700  0.535800  1
  C  C861  1  0.546700  0.361400  0.499760  1
  C  C862  1  0.453300  0.638600  0.500240  1
  C  C863  1  0.672900  0.379300  0.533280  1
  C  C864  1  0.327100  0.620700  0.466720  1
  C  C865  1  0.871900  0.446800  0.735280  1
  C  C866  1  0.128100  0.553200  0.264720  1
  C  C867  1  0.934800  0.450800  0.762020  1
  C  C868  1  0.065200  0.549200  0.237980  1
  C  C869  1  0.933600  0.466800  0.798850  1
  C  C870  1  0.066400  0.533200  0.201150  1
  C  C871  1  0.870400  0.478800  0.806890  1
  C  C872  1  0.129600  0.521200  0.193110  1
  C  C873  1  0.811000  0.475000  0.779330  1
  C  C874  1  0.189000  0.525000  0.220670  1
  C  C875  1  0.998200  0.470200  0.828900  1
  C  C876  1  0.001800  0.529800  0.171100  1
  C  C877  1  0.869900  0.429000  0.696790  1
  C  C878  1  0.130100  0.571000  0.303210  1
  C  C879  1  0.924100  0.416000  0.678380  1
  C  C880  1  0.075900  0.584000  0.321620  1
  C  C881  1  0.891100  0.403200  0.641750  1
  C  C882  1  0.108900  0.596800  0.358250  1
  C  C883  1  0.771400  0.408300  0.603850  1
  C  C884  1  0.228600  0.591700  0.396150  1
  C  C885  1  0.692900  0.430300  0.522880  1
  C  C886  1  0.307100  0.569700  0.477120  1
  C  C887  1  0.661400  0.444100  0.487740  1
  C  C888  1  0.338600  0.555900  0.512260  1
  C  C889  1  0.673800  0.489900  0.475510  1
  C  C890  1  0.326200  0.510100  0.524490  1
  C  C891  1  0.720400  0.521900  0.498240  1
  C  C892  1  0.279600  0.478100  0.501760  1
  C  C893  1  0.754600  0.510100  0.534420  1
  C  C894  1  0.245400  0.489900  0.465580  1
  C  C895  1  0.742800  0.463500  0.547740  1
  C  C896  1  0.257200  0.536500  0.452260  1
  C  C897  1  0.780600  0.455500  0.584730  1
  C  C898  1  0.219400  0.544500  0.415270  1
  C  C899  1  0.827800  0.491100  0.604780  1
  C  C900  1  0.172200  0.508900  0.395220  1
  C  C901  1  0.839600  0.536100  0.590800  1
  C  C902  1  0.160400  0.463900  0.409200  1
  C  C903  1  0.803700  0.545600  0.556600  1
  C  C904  1  0.196300  0.454400  0.443400  1
  C  C905  1  0.682400  0.511500  0.640940  1
  C  C906  1  0.317600  0.488500  0.359060  1
  C  C907  1  0.674800  0.552900  0.622300  1
  C  C908  1  0.325200  0.447100  0.377700  1
  C  C909  1  0.713800  0.593600  0.638200  1
  C  C910  1  0.286200  0.406400  0.361800  1
  C  C911  1  0.761700  0.591300  0.672700  1
  C  C912  1  0.238300  0.408700  0.327300  1
  C  C913  1  0.766100  0.549200  0.688500  1
  C  C914  1  0.233900  0.450800  0.311500  1
  C  C915  1  0.706200  0.640900  0.620600  1
  C  C916  1  0.293800  0.359100  0.379400  1
  C  C917  1  0.636200  0.467400  0.627240  1
  C  C918  1  0.363800  0.532600  0.372760  1
  C  C919  1  0.586500  0.457200  0.594050  1
  C  C920  1  0.413500  0.542800  0.405950  1
  C  C921  1  0.555500  0.412400  0.598750  1
  C  C922  1  0.444500  0.587600  0.401250  1
  C  C923  1  0.557400  0.356100  0.651790  1
  C  C924  1  0.442600  0.643900  0.348210  1
  C  C925  1  0.410600  0.098700  0.667110  1
  C  C926  1  0.589400  0.901300  0.332890  1
  C  C927  1  0.396200  0.059600  0.687900  1
  C  C928  1  0.603800  0.940400  0.312100  1
  C  C929  1  0.348300  0.022100  0.671000  1
  C  C930  1  0.651700  0.977900  0.329000  1
  C  C931  1  0.315900  0.025800  0.633300  1
  C  C932  1  0.684100  0.974200  0.366700  1
  C  C933  1  0.331400  0.066500  0.615200  1
  C  C934  1  0.668600  0.933500  0.384800  1
  C  C935  1  0.459500  0.140300  0.682650  1
  C  C936  1  0.540500  0.859700  0.317350  1
  C  C937  1  0.505500  0.147800  0.717740  1
  C  C938  1  0.494500  0.852200  0.282260  1
  C  C939  1  0.536500  0.193800  0.717550  1
  C  C940  1  0.463500  0.806200  0.282450  1
  C  C941  1  0.513800  0.260300  0.675340  1
  C  C942  1  0.486200  0.739700  0.324660  1
  C  C943  1  0.498200  0.367000  0.672660  1
  C  C944  1  0.501800  0.633000  0.327340  1
  C  C945  1  0.483200  0.412200  0.672230  1
  C  C946  1  0.516800  0.587800  0.327770  1
  C  C947  1  0.429000  0.426300  0.690400  1
  C  C948  1  0.571000  0.573700  0.309600  1
  C  C949  1  0.390200  0.395000  0.710170  1
  C  C950  1  0.609800  0.605000  0.289830  1
  C  C951  1  0.403000  0.347400  0.711910  1
  C  C952  1  0.597000  0.652600  0.288090  1
  C  C953  1  0.456100  0.332400  0.692730  1
  C  C954  1  0.543900  0.667600  0.307270  1
  C  C955  1  0.461800  0.283200  0.695070  1
  C  C956  1  0.538200  0.716800  0.304930  1
  C  C957  1  0.418300  0.254300  0.715450  1
  C  C958  1  0.581700  0.745700  0.284550  1
  C  C959  1  0.368000  0.271100  0.735100  1
  C  C960  1  0.632000  0.728900  0.264900  1
  C  C961  1  0.360200  0.317200  0.733500  1
  C  C962  1  0.639800  0.682800  0.266500  1
  C  C963  1  0.320800  0.245800  0.627300  1
  C  C964  1  0.679200  0.754200  0.372700  1
  C  C965  1  0.277300  0.271000  0.642900  1
  C  C966  1  0.722700  0.729000  0.357100  1
  C  C967  1  0.228000  0.247900  0.664200  1
  C  C968  1  0.772000  0.752100  0.335800  1
  C  C969  1  0.225900  0.200400  0.668200  1
  C  C970  1  0.774100  0.799600  0.331800  1
  C  C971  1  0.271800  0.177300  0.651400  1
  C  C972  1  0.728200  0.822700  0.348600  1
  C  C973  1  0.178400  0.274300  0.680800  1
  C  C974  1  0.821600  0.725700  0.319200  1
  C  C975  1  0.372100  0.267200  0.603300  1
  C  C976  1  0.627900  0.732800  0.396700  1
  C  C977  1  0.384500  0.313700  0.591070  1
  C  C978  1  0.615500  0.686300  0.408930  1
  C  C979  1  0.432400  0.311400  0.565530  1
  C  C980  1  0.567600  0.688600  0.434470  1
  C  C981  1  0.483900  0.248300  0.536660  1
  C  C982  1  0.516100  0.751700  0.463340  1
  C  C983  1  0.794600  0.231000  0.431340  1
  C  C984  1  0.205400  0.769000  0.568660  1
  C  C985  1  0.838600  0.205600  0.414400  1
  C  C986  1  0.161400  0.794400  0.585600  1
  C  C987  1  0.882200  0.227800  0.391200  1
  C  C988  1  0.117800  0.772200  0.608800  1
  C  C989  1  0.883100  0.275100  0.386300  1
  C  C990  1  0.116900  0.724900  0.613700  1
  C  C991  1  0.838500  0.298500  0.404040  1
  C  C992  1  0.161500  0.701500  0.595960  1
  C  C993  1  0.927200  0.200200  0.370900  1
  C  C994  1  0.072800  0.799800  0.629100  1
  C  C995  1  0.744100  0.209600  0.454800  1
  C  C996  1  0.255900  0.790400  0.545200  1
  C  C997  1  0.730900  0.163200  0.467600  1
  C  C998  1  0.269100  0.836800  0.532400  1
  C  C999  1  0.676200  0.162700  0.487100  1
  C  C1000  1  0.323800  0.837300  0.512900  1
  C  C1001  1  0.591300  0.218600  0.495960  1
  C  C1002  1  0.408700  0.781400  0.504040  1
  C  C1003  1  0.434600  0.237500  0.498480  1
  C  C1004  1  0.565400  0.762500  0.501520  1
  C  C1005  1  0.365700  0.246900  0.496000  1
  C  C1006  1  0.634300  0.753100  0.504000  1
  C  C1007  1  0.315800  0.239200  0.462000  1
  C  C1008  1  0.684200  0.760800  0.538000  1
  C  C1009  1  0.335600  0.220200  0.431400  1
  C  C1010  1  0.664400  0.779800  0.568600  1
  C  C1011  1  0.406000  0.209300  0.432000  1
  C  C1012  1  0.594000  0.790700  0.568000  1
  C  C1013  1  0.457800  0.218400  0.465900  1
  C  C1014  1  0.542200  0.781600  0.534100  1
  C  C1015  1  0.528200  0.208100  0.463740  1
  C  C1016  1  0.471800  0.791900  0.536260  1
  C  C1017  1  0.540900  0.188400  0.430000  1
  C  C1018  1  0.459100  0.811600  0.570000  1
  C  C1019  1  0.488200  0.178100  0.398300  1
  C  C1020  1  0.511800  0.821900  0.601700  1
  C  C1021  1  0.422600  0.188300  0.399200  1
  C  C1022  1  0.577400  0.811700  0.600800  1
  C  C1023  1  0.818700  0.027600  0.215200  1
  C  C1024  1  0.181300  0.972400  0.784800  1
  C  C1025  1  0.865000  0.018500  0.247500  1
  C  C1026  1  0.135000  0.981500  0.752500  1
  C  C1027  1  0.899100  0.979400  0.246500  1
  C  C1028  1  0.100900  0.020600  0.753500  1
  C  C1029  1  0.884700  0.951800  0.214300  1
  C  C1030  1  0.115300  0.048200  0.785700  1
  C  C1031  1  0.839000  0.963500  0.181800  1
  C  C1032  1  0.161000  0.036500  0.818200  1
  C  C1033  1  0.947600  0.966500  0.280500  1
  C  C1034  1  0.052400  0.033500  0.719500  1
  C  C1035  1  0.779700  0.067800  0.214060  1
  C  C1036  1  0.220300  0.932200  0.785940  1
  C  C1037  1  0.775600  0.099200  0.243100  1
  C  C1038  1  0.224400  0.900800  0.756900  1
  C  C1039  1  0.728900  0.127500  0.226450  1
  C  C1040  1  0.271100  0.872500  0.773550  1
  C  C1041  1  0.650300  0.128000  0.162890  1
  C  C1042  1  0.349700  0.872000  0.837110  1
  C  C1043  1  0.461100  0.313300  0.055900  1
  C  C1044  1  0.538900  0.686700  0.944100  1
  C  C1045  1  0.421800  0.329700  0.024000  1
  C  C1046  1  0.578200  0.670300  0.976000  1
  C  C1047  1  0.392400  0.369900  0.027200  1
  C  C1048  1  0.607600  0.630100  0.972800  1
  C  C1049  1  0.404200  0.393100  0.062100  1
  C  C1050  1  0.595800  0.606900  0.937900  1
  C  C1051  1  0.444500  0.375300  0.092900  1
  C  C1052  1  0.555500  0.624700  0.907100  1
  C  C1053  1  0.349600  0.388900  0.993200  1
  C  C1054  1  0.650400  0.611100  0.006800  1
  C  C1055  1  0.491800  0.270400  0.055970  1
  C  C1056  1  0.508200  0.729600  0.944030  1
  C  C1057  1  0.492700  0.239400  0.025300  1
  C  C1058  1  0.507300  0.760600  0.974700  1
  C  C1059  1  0.527000  0.205000  0.042450  1
  C  C1060  1  0.473000  0.795000  0.957550  1
  C  C1061  1  0.567600  0.183300  0.109320  1
  C  C1062  1  0.432400  0.816700  0.890680  1
  C  C1063  1  0.573140  0.107210  0.169290  1
  C  C1064  1  0.426860  0.892790  0.830710  1
  C  C1065  1  0.575850  0.074450  0.197680  1
  C  C1066  1  0.424150  0.925550  0.802320  1
  C  C1067  1  0.513430  0.047610  0.204910  1
  C  C1068  1  0.486570  0.952390  0.795090  1
  C  C1069  1  0.448300  0.053520  0.183750  1
  C  C1070  1  0.551700  0.946480  0.816250  1
  C  C1071  1  0.445590  0.086280  0.155370  1
  C  C1072  1  0.554410  0.913720  0.844630  1
  C  C1073  1  0.508010  0.113120  0.148140  1
  C  C1074  1  0.491990  0.886880  0.851860  1
  C  C1075  1  0.505310  0.145880  0.119750  1
  C  C1076  1  0.494690  0.854120  0.880250  1
  C  C1077  1  0.440180  0.151800  0.098590  1
  C  C1078  1  0.559820  0.848200  0.901410  1
  C  C1079  1  0.377760  0.124960  0.105820  1
  C  C1080  1  0.622240  0.875040  0.894180  1
  C  C1081  1  0.380460  0.092200  0.134210  1
  C  C1082  1  0.619540  0.907800  0.865790  1
  C  C1083  1  0.585800  0.007100  0.118700  1
  C  C1084  1  0.414200  0.992900  0.881300  1
  C  C1085  1  0.515300  0.989000  0.119600  1
  C  C1086  1  0.484700  0.011000  0.880400  1
  C  C1087  1  0.500400  0.954300  0.145800  1
  C  C1088  1  0.499600  0.045700  0.854200  1
  C  C1089  1  0.557500  0.940300  0.169100  1
  C  C1090  1  0.442500  0.059700  0.830900  1
  C  C1091  1  0.627200  0.960000  0.166300  1
  C  C1092  1  0.372800  0.040000  0.833700  1
  C  C1093  1  0.424700  0.933200  0.147400  1
  C  C1094  1  0.575300  0.066800  0.852600  1
  C  C1095  1  0.604700  0.042700  0.091300  1
  C  C1096  1  0.395300  0.957300  0.908700  1
  C  C1097  1  0.561100  0.063900  0.063200  1
  C  C1098  1  0.438900  0.936100  0.936800  1
  C  C1099  1  0.608500  0.092200  0.044500  1
  C  C1100  1  0.391500  0.907800  0.955500  1
  C  C1101  1  0.739900  0.102900  0.045130  1
  C  C1102  1  0.260100  0.897100  0.954870  1
  C  C1103  1  0.003800  0.285600  0.964800  1
  C  C1104  1  0.996200  0.714400  0.035200  1
  C  C1105  1  0.071000  0.307700  0.960900  1
  C  C1106  1  0.929000  0.692300  0.039100  1
  C  C1107  1  0.078100  0.344800  0.936100  1
  C  C1108  1  0.921900  0.655200  0.063900  1
  C  C1109  1  0.018200  0.359500  0.917600  1
  C  C1110  1  0.981800  0.640500  0.082400  1
  C  C1111  1  0.953000  0.335600  0.921900  1
  C  C1112  1  0.047000  0.664400  0.078100  1
  C  C1113  1  0.150500  0.371100  0.931400  1
  C  C1114  1  0.849500  0.628900  0.068600  1
  C  C1115  1  0.990600  0.247600  0.990390  1
  C  C1116  1  0.009400  0.752400  0.009610  1
  C  C1117  1  0.037800  0.226300  0.015840  1
  C  C1118  1  0.962200  0.773700  0.984160  1
  C  C1119  1  0.995100  0.191400  0.031610  1
  C  C1120  1  0.004900  0.808600  0.968390  1
  C  C1121  1  0.864300  0.158900  0.019270  1
  C  C1122  1  0.135700  0.841100  0.980730  1
  C  C1123  1  0.750000  0.068600  0.013400  1
  C  C1124  1  0.250000  0.931400  0.986600  1
  C  C1125  1  0.699700  0.028100  0.007200  1
  C  C1126  1  0.300300  0.971900  0.992800  1
  C  C1127  1  0.701700  0.993300  0.980400  1
  C  C1128  1  0.298300  0.006700  0.019600  1
  C  C1129  1  0.757500  0.998200  0.959100  1
  C  C1130  1  0.242500  0.001800  0.040900  1
  C  C1131  1  0.810300  0.038800  0.965100  1
  C  C1132  1  0.189700  0.961200  0.034900  1
  C  C1133  1  0.806800  0.075000  0.991600  1
  C  C1134  1  0.193200  0.925000  0.008400  1
  C  C1135  1  0.861500  0.115800  0.993460  1
  C  C1136  1  0.138500  0.884200  0.006540  1
  C  C1137  1  0.914500  0.116100  0.970100  1
  C  C1138  1  0.085500  0.883900  0.029900  1
  C  C1139  1  0.918300  0.079000  0.946700  1
  C  C1140  1  0.081700  0.921000  0.053300  1
  C  C1141  1  0.866100  0.040500  0.943300  1
  C  C1142  1  0.133900  0.959500  0.056700  1
  C  C1143  1  0.823400  0.991500  0.077900  1
  C  C1144  1  0.176600  0.008500  0.922100  1
  C  C1145  1  0.844500  0.961900  0.052400  1
  C  C1146  1  0.155500  0.038100  0.947600  1
  C  C1147  1  0.806500  0.917200  0.045100  1
  C  C1148  1  0.193500  0.082800  0.954900  1
  C  C1149  1  0.746100  0.904800  0.062300  1
  C  C1150  1  0.253900  0.095200  0.937700  1
  C  C1151  1  0.729500  0.936700  0.087200  1
  C  C1152  1  0.270500  0.063300  0.912800  1
  C  C1153  1  0.835100  0.886300  0.018700  1
  C  C1154  1  0.164900  0.113700  0.981300  1
  C  C1155  1  0.864700  0.036600  0.089700  1
  C  C1156  1  0.135300  0.963400  0.910300  1
  C  C1157  1  0.926700  0.061400  0.077800  1
  C  C1158  1  0.073300  0.938600  0.922200  1
  C  C1159  1  0.943300  0.099300  0.101060  1
  C  C1160  1  0.056700  0.900700  0.898940  1
  C  C1161  1  0.903500  0.126000  0.160550  1
  C  C1162  1  0.096500  0.874000  0.839450  1
  C  C1163  1  0.952300  0.351000  0.282930  1
  C  C1164  1  0.047700  0.649000  0.717070  1
  C  C1165  1  0.935000  0.377600  0.311900  1
  C  C1166  1  0.065000  0.622400  0.688100  1
  C  C1167  1  0.974900  0.420800  0.322500  1
  C  C1168  1  0.025100  0.579200  0.677500  1
  C  C1169  1  0.030800  0.436300  0.303190  1
  C  C1170  1  0.969200  0.563700  0.696810  1
  C  C1171  1  0.045600  0.408200  0.274730  1
  C  C1172  1  0.954400  0.591800  0.725270  1
  C  C1173  1  0.914000  0.304700  0.270620  1
  C  C1174  1  0.086000  0.695300  0.729380  1
  C  C1175  1  0.855100  0.278300  0.283110  1
  C  C1176  1  0.144900  0.721700  0.716890  1
  C  C1177  1  0.844200  0.237500  0.262960  1
  C  C1178  1  0.155800  0.762500  0.737040  1
  C  C1179  1  0.908600  0.200300  0.217620  1
  C  C1180  1  0.091400  0.799700  0.782380  1
  C  C1181  1  0.953700  0.105900  0.191750  1
  C  C1182  1  0.046300  0.894100  0.808250  1
  C  C1183  1  0.980200  0.066500  0.183200  1
  C  C1184  1  0.019800  0.933500  0.816800  1
  C  C1185  1  0.027700  0.045800  0.210200  1
  C  C1186  1  0.972300  0.954200  0.789800  1
  C  C1187  1  0.045900  0.064000  0.245600  1
  C  C1188  1  0.954100  0.936000  0.754400  1
  C  C1189  1  0.019900  0.104100  0.257100  1
  C  C1190  1  0.980100  0.895900  0.742900  1
  C  C1191  1  0.974400  0.127700  0.229760  1
  C  C1192  1  0.025600  0.872300  0.770240  1
  C  C1193  1  0.953900  0.169600  0.243470  1
  C  C1194  1  0.046100  0.830400  0.756530  1
  C  C1195  1  0.977200  0.184300  0.280860  1
  C  C1196  1  0.022800  0.815700  0.719140  1
  C  C1197  1  0.019100  0.160400  0.306980  1
  C  C1198  1  0.980900  0.839600  0.693020  1
  C  C1199  1  0.040600  0.120800  0.294400  1
  C  C1200  1  0.959400  0.879200  0.705600  1
  C  C1201  1  0.606100  0.392900  0.177300  1
  C  C1202  1  0.393900  0.607100  0.822700  1
  C  C1203  1  0.625900  0.428100  0.205400  1
  C  C1204  1  0.374100  0.571900  0.794600  1
  C  C1205  1  0.584000  0.429800  0.234100  1
  C  C1206  1  0.416000  0.570200  0.765900  1
  C  C1207  1  0.525400  0.396400  0.233200  1
  C  C1208  1  0.474600  0.603600  0.766800  1
  C  C1209  1  0.508200  0.362700  0.204600  1
  C  C1210  1  0.491800  0.637300  0.795400  1
  C  C1211  1  0.603000  0.465800  0.265500  1
  C  C1212  1  0.397000  0.534200  0.734500  1
  C  C1213  1  0.647700  0.388600  0.147010  1
  C  C1214  1  0.352300  0.611400  0.852990  1
  C  C1215  1  0.706500  0.418000  0.136600  1
  C  C1216  1  0.293500  0.582000  0.863400  1
  C  C1217  1  0.720000  0.397000  0.104710  1
  C  C1218  1  0.280000  0.603000  0.895290  1
  C  C1219  1  0.662900  0.328900  0.061880  1
  C  C1220  1  0.337100  0.671100  0.938120  1
  C  C1221  1  0.783000  0.171800  0.916400  1
  C  C1222  1  0.217000  0.828200  0.083600  1
  C  C1223  1  0.774300  0.131600  0.894750  1
  C  C1224  1  0.225700  0.868400  0.105250  1
  C  C1225  1  0.818500  0.127000  0.868160  1
  C  C1226  1  0.181500  0.873000  0.131840  1
  C  C1227  1  0.873300  0.164400  0.866080  1
  C  C1228  1  0.126700  0.835600  0.133920  1
  C  C1229  1  0.880300  0.203300  0.889180  1
  C  C1230  1  0.119700  0.796700  0.110820  1
  C  C1231  1  0.810300  0.084400  0.843200  1
  C  C1232  1  0.189700  0.915600  0.156800  1
  C  C1233  1  0.734800  0.179900  0.943070  1
  C  C1234  1  0.265200  0.820100  0.056930  1
  C  C1235  1  0.671400  0.152700  0.949190  1
  C  C1236  1  0.328600  0.847300  0.050810  1
  C  C1237  1  0.645600  0.179300  0.974770  1
  C  C1238  1  0.354400  0.820700  0.025230  1
  C  C1239  1  0.680100  0.260700  0.002820  1
  C  C1240  1  0.319900  0.739300  0.997180  1
  C  C1241  1  0.622000  0.351100  0.028340  1
  C  C1242  1  0.378000  0.648900  0.971660  1
  C  C1243  1  0.597600  0.392000  0.035100  1
  C  C1244  1  0.402400  0.608000  0.964900  1
  C  C1245  1  0.556700  0.415000  0.006500  1
  C  C1246  1  0.443300  0.585000  0.993500  1
  C  C1247  1  0.539100  0.395200  0.971000  1
  C  C1248  1  0.460900  0.604800  0.029000  1
  C  C1249  1  0.564600  0.353200  0.961300  1
  C  C1250  1  0.435400  0.646800  0.038700  1
  C  C1251  1  0.607600  0.330500  0.989830  1
  C  C1252  1  0.392400  0.669500  0.010170  1
  C  C1253  1  0.631000  0.288700  0.976740  1
  C  C1254  1  0.369000  0.711300  0.023260  1
  C  C1255  1  0.610800  0.273700  0.939200  1
  C  C1256  1  0.389200  0.726300  0.060800  1
  C  C1257  1  0.566900  0.295900  0.912500  1
  C  C1258  1  0.433100  0.704100  0.087500  1
  C  C1259  1  0.544200  0.335400  0.923500  1
  C  C1260  1  0.455800  0.664600  0.076500  1
  C  C1261  1  0.767700  0.343600  0.937230  1
  C  C1262  1  0.232300  0.656400  0.062770  1
  C  C1263  1  0.727600  0.374000  0.917800  1
  C  C1264  1  0.272400  0.626000  0.082200  1
  C  C1265  1  0.699400  0.364300  0.879500  1
  C  C1266  1  0.300600  0.635700  0.120500  1
  C  C1267  1  0.711700  0.324000  0.862440  1
  C  C1268  1  0.288300  0.676000  0.137560  1
  C  C1269  1  0.753100  0.294900  0.883460  1
  C  C1270  1  0.246900  0.705100  0.116540  1
  C  C1271  1  0.801500  0.351500  0.976980  1
  C  C1272  1  0.198500  0.648500  0.023020  1
  C  C1273  1  0.798200  0.387500  0.003560  1
  C  C1274  1  0.201800  0.612500  0.996440  1
  C  C1275  1  0.842100  0.377800  0.035810  1
  C  C1276  1  0.157900  0.622200  0.964190  1
  C  C1277  1  0.926500  0.321000  0.052960  1
  C  C1278  1  0.073500  0.679000  0.947040  1
  C  C1279  1  0.110000  0.242100  0.244260  1
  C  C1280  1  0.890000  0.757900  0.755740  1
  C  C1281  1  0.152300  0.213600  0.265350  1
  C  C1282  1  0.847700  0.786400  0.734650  1
  C  C1283  1  0.175500  0.224900  0.303440  1
  C  C1284  1  0.824500  0.775100  0.696560  1
  C  C1285  1  0.155800  0.262800  0.319690  1
  C  C1286  1  0.844200  0.737200  0.680310  1
  C  C1287  1  0.113800  0.290200  0.296870  1
  C  C1288  1  0.886200  0.709800  0.703130  1
  C  C1289  1  0.084300  0.234100  0.203410  1
  C  C1290  1  0.915700  0.765900  0.796590  1
  C  C1291  1  0.091400  0.197300  0.179030  1
  C  C1292  1  0.908600  0.802700  0.820970  1
  C  C1293  1  0.058800  0.209200  0.143100  1
  C  C1294  1  0.941200  0.790800  0.856900  1
  C  C1295  1  0.011300  0.279100  0.116400  1
  C  C1296  1  0.988700  0.720900  0.883600  1
  C  C1297  1  0.073540  0.308350  0.098330  1
  C  C1298  1  0.926460  0.691650  0.901670  1
  C  C1299  1  0.139570  0.300950  0.117470  1
  C  C1300  1  0.860430  0.699050  0.882530  1
  C  C1301  1  0.201610  0.325920  0.107960  1
  C  C1302  1  0.798390  0.674080  0.892040  1
  C  C1303  1  0.197630  0.358290  0.079300  1
  C  C1304  1  0.802370  0.641710  0.920700  1
  C  C1305  1  0.131600  0.365680  0.060150  1
  C  C1306  1  0.868400  0.634320  0.939850  1
  C  C1307  1  0.069560  0.340710  0.069660  1
  C  C1308  1  0.930440  0.659290  0.930340  1
  C  C1309  1  0.003530  0.348110  0.050520  1
  C  C1310  1  0.996470  0.651890  0.949480  1
  C  C1311  1  0.999540  0.380470  0.021850  1
  C  C1312  1  0.000460  0.619530  0.978150  1
  C  C1313  1  0.061590  0.405440  0.012340  1
  C  C1314  1  0.938410  0.594560  0.987660  1
  C  C1315  1  0.127620  0.398050  0.031490  1
  C  C1316  1  0.872380  0.601950  0.968510  1
  C  C1317  1  0.095100  0.389800  0.172140  1
  C  C1318  1  0.904900  0.610200  0.827860  1
  C  C1319  1  0.145100  0.416500  0.153570  1
  C  C1320  1  0.854900  0.583500  0.846430  1
  C  C1321  1  0.217500  0.417800  0.168000  1
  C  C1322  1  0.782500  0.582200  0.832000  1
  C  C1323  1  0.235800  0.393300  0.199800  1
  C  C1324  1  0.764200  0.606700  0.800200  1
  C  C1325  1  0.183800  0.367200  0.216600  1
  C  C1326  1  0.816200  0.632800  0.783400  1
  C  C1327  1  0.273000  0.447200  0.148400  1
  C  C1328  1  0.727000  0.552800  0.851600  1
  C  C1329  1  0.018100  0.387300  0.159760  1
  C  C1330  1  0.981900  0.612700  0.840240  1
  C  C1331  1  0.979300  0.410500  0.131220  1
  C  C1332  1  0.020700  0.589500  0.868780  1
  C  C1333  1  0.908500  0.396200  0.135130  1
  C  C1334  1  0.091500  0.603800  0.864870  1
  C  C1335  1  0.845500  0.349400  0.182260  1
  C  C1336  1  0.154500  0.650600  0.817740  1
  C  C1337  1  0.462200  0.229900  0.178780  1
  C  C1338  1  0.537800  0.770100  0.821220  1
  C  C1339  1  0.411300  0.196000  0.190100  1
  C  C1340  1  0.588700  0.804000  0.809900  1
  C  C1341  1  0.340700  0.194800  0.173900  1
  C  C1342  1  0.659300  0.805200  0.826100  1
  C  C1343  1  0.324100  0.226900  0.146600  1
  C  C1344  1  0.675900  0.773100  0.853400  1
  C  C1345  1  0.377200  0.259600  0.136700  1
  C  C1346  1  0.622800  0.740400  0.863300  1
  C  C1347  1  0.281500  0.159700  0.185300  1
  C  C1348  1  0.718500  0.840300  0.814700  1
  C  C1349  1  0.538500  0.233700  0.194870  1
  C  C1350  1  0.461500  0.766300  0.805130  1
  C  C1351  1  0.573000  0.208500  0.222950  1
  C  C1352  1  0.427000  0.791500  0.777050  1
  C  C1353  1  0.643900  0.228000  0.226580  1
  C  C1354  1  0.356100  0.772000  0.773420  1
  C  C1355  1  0.711900  0.296900  0.199990  1
  C  C1356  1  0.288100  0.703100  0.800010  1
  C  C1357  1  0.826050  0.384050  0.211960  1
  C  C1358  1  0.173950  0.615950  0.788040  1
  C  C1359  1  0.875370  0.424620  0.215740  1
  C  C1360  1  0.124630  0.575380  0.784260  1
  C  C1361  1  0.875710  0.457200  0.244640  1
  C  C1362  1  0.124290  0.542800  0.755360  1
  C  C1363  1  0.826740  0.449190  0.269770  1
  C  C1364  1  0.173260  0.550810  0.730230  1
  C  C1365  1  0.777420  0.408620  0.265990  1
  C  C1366  1  0.222580  0.591380  0.734010  1
  C  C1367  1  0.777070  0.376040  0.237090  1
  C  C1368  1  0.222930  0.623960  0.762910  1
  C  C1369  1  0.727750  0.335470  0.233310  1
  C  C1370  1  0.272250  0.664530  0.766690  1
  C  C1371  1  0.678780  0.327460  0.258430  1
  C  C1372  1  0.321220  0.672540  0.741570  1
  C  C1373  1  0.679130  0.360040  0.287340  1
  C  C1374  1  0.320870  0.639960  0.712660  1
  C  C1375  1  0.728450  0.400610  0.291110  1
  C  C1376  1  0.271550  0.599390  0.708890  1
  C  C1377  1  0.493300  0.472900  0.809000  1.0
  C  C1378  1  0.506700  0.527100  0.191000  1.0
  C  C1379  1  0.325800  0.980300  0.694100  1.0
  C  C1380  1  0.674200  0.019700  0.305900  1.0
  C  C1381  1  0.956600  0.449700  0.354500  1.0
  C  C1382  1  0.043400  0.550300  0.645500  1.0
  C  C1383  1  0.659500  0.398100  0.855800  1.0
  C  C1384  1  0.340500  0.601900  0.144200  1.0
  C  C1385  1  0.226700  0.196900  0.327900  1.0
  C  C1386  1  0.773300  0.803100  0.672100  1.0
  N  N1387  1  0.850500  0.085900  0.698290  1
  N  N1388  1  0.149500  0.914100  0.301710  1
  N  N1389  1  0.783200  0.132510  0.594000  1
  N  N1390  1  0.216800  0.867490  0.406000  1
  N  N1391  1  0.809700  0.123100  0.630290  1
  N  N1392  1  0.190300  0.876900  0.369710  1
  N  N1393  1  0.754600  0.377330  0.439030  1
  N  N1394  1  0.245400  0.622670  0.560970  1
  N  N1395  1  0.839800  0.313860  0.531400  1
  N  N1396  1  0.160200  0.686140  0.468600  1
  N  N1397  1  0.804700  0.330050  0.499050  1
  N  N1398  1  0.195300  0.669950  0.500950  1
  N  N1399  1  0.964400  0.132870  0.647060  1
  N  N1400  1  0.035600  0.867130  0.352940  1
  N  N1401  1  0.922300  0.262840  0.653410  1
  N  N1402  1  0.077700  0.737160  0.346590  1
  N  N1403  1  0.931200  0.217320  0.654910  1
  N  N1404  1  0.068800  0.782680  0.345090  1
  N  N1405  1  0.644600  0.457200  0.733980  1
  N  N1406  1  0.355400  0.542800  0.266020  1
  N  N1407  1  0.708900  0.332910  0.725420  1
  N  N1408  1  0.291100  0.667090  0.274580  1
  N  N1409  1  0.694000  0.377060  0.725050  1
  N  N1410  1  0.306000  0.622940  0.274950  1
  N  N1411  1  0.958900  0.174200  0.730170  1
  N  N1412  1  0.041100  0.825800  0.269830  1
  N  N1413  1  0.750100  0.180900  0.714600  1
  N  N1414  1  0.249900  0.819100  0.285400  1
  N  N1415  1  0.819600  0.177900  0.714370  1
  N  N1416  1  0.180400  0.822100  0.285630  1
  N  N1417  1  0.336700  0.150900  0.552610  1
  N  N1418  1  0.663300  0.849100  0.447390  1
  N  N1419  1  0.538800  0.129300  0.581350  1
  N  N1420  1  0.461200  0.870700  0.418650  1
  N  N1421  1  0.471200  0.139440  0.575950  1
  N  N1422  1  0.528800  0.860560  0.424050  1
  N  N1423  1  0.634500  0.294020  0.405670  1
  N  N1424  1  0.365500  0.705980  0.594330  1
  N  N1425  1  0.616100  0.354400  0.504850  1
  N  N1426  1  0.383900  0.645600  0.495150  1
  N  N1427  1  0.631600  0.332950  0.473740  1
  N  N1428  1  0.368400  0.667050  0.526260  1
  N  N1429  1  0.810900  0.458700  0.743360  1
  N  N1430  1  0.189100  0.541300  0.256640  1
  N  N1431  1  0.821400  0.408080  0.638970  1
  N  N1432  1  0.178600  0.591920  0.361030  1
  N  N1433  1  0.807700  0.425090  0.672510  1
  N  N1434  1  0.192300  0.574910  0.327490  1
  N  N1435  1  0.726600  0.509040  0.673750  1
  N  N1436  1  0.273400  0.490960  0.326250  1
  N  N1437  1  0.586900  0.396740  0.631850  1
  N  N1438  1  0.413100  0.603260  0.368150  1
  N  N1439  1  0.636500  0.431290  0.650200  1
  N  N1440  1  0.363500  0.568710  0.349800  1
  N  N1441  1  0.376400  0.102790  0.630820  1
  N  N1442  1  0.623600  0.897210  0.369180  1
  N  N1443  1  0.511400  0.211680  0.683840  1
  N  N1444  1  0.488600  0.788320  0.316160  1
  N  N1445  1  0.463100  0.178340  0.662120  1
  N  N1446  1  0.536900  0.821660  0.337880  1
  N  N1447  1  0.319100  0.199400  0.630780  1
  N  N1448  1  0.680900  0.800600  0.369220  1
  N  N1449  1  0.448100  0.267420  0.564860  1
  N  N1450  1  0.551900  0.732580  0.435140  1
  N  N1451  1  0.410700  0.239960  0.587860  1
  N  N1452  1  0.589300  0.760040  0.412140  1
  N  N1453  1  0.793800  0.276500  0.425560  1
  N  N1454  1  0.206200  0.723500  0.574440  1
  N  N1455  1  0.656900  0.206040  0.486790  1
  N  N1456  1  0.343100  0.793960  0.513210  1
  N  N1457  1  0.698800  0.234860  0.466430  1
  N  N1458  1  0.301200  0.765140  0.533570  1
  N  N1459  1  0.805700  0.001300  0.182610  1
  N  N1460  1  0.194300  0.998700  0.817390  1
  N  N1461  1  0.708800  0.113200  0.188700  1
  N  N1462  1  0.291200  0.886800  0.811300  1
  N  N1463  1  0.739000  0.076090  0.180870  1
  N  N1464  1  0.261000  0.923910  0.819130  1
  N  N1465  1  0.472100  0.336710  0.090160  1
  N  N1466  1  0.527900  0.663290  0.909840  1
  N  N1467  1  0.545400  0.215360  0.080260  1
  N  N1468  1  0.454600  0.784640  0.919740  1
  N  N1469  1  0.523800  0.256010  0.088800  1
  N  N1470  1  0.476200  0.743990  0.911200  1
  N  N1471  1  0.641000  0.993530  0.141000  1
  N  N1472  1  0.359000  0.006470  0.859000  1
  N  N1473  1  0.676400  0.088260  0.061640  1
  N  N1474  1  0.323600  0.911740  0.938360  1
  N  N1475  1  0.674300  0.056760  0.089880  1
  N  N1476  1  0.325700  0.943240  0.910120  1
  N  N1477  1  0.944000  0.299400  0.944650  1
  N  N1478  1  0.056000  0.700600  0.055350  1
  N  N1479  1  0.925700  0.193820  0.016560  1
  N  N1480  1  0.074300  0.806180  0.983440  1
  N  N1481  1  0.922100  0.227940  0.990730  1
  N  N1482  1  0.077900  0.772060  0.009270  1
  N  N1483  1  0.765400  0.978600  0.094900  1
  N  N1484  1  0.234600  0.021400  0.905100  1
  N  N1485  1  0.894300  0.098950  0.125010  1
  N  N1486  1  0.105700  0.901050  0.874990  1
  N  N1487  1  0.845200  0.059570  0.118210  1
  N  N1488  1  0.154800  0.940430  0.881790  1
  N  N1489  1  0.008300  0.365810  0.264270  1
  N  N1490  1  0.991700  0.634190  0.735730  1
  N  N1491  1  0.893000  0.239520  0.238670  1
  N  N1492  1  0.107000  0.760480  0.761330  1
  N  N1493  1  0.937200  0.280770  0.243650  1
  N  N1494  1  0.062800  0.719230  0.756350  1
  N  N1495  1  0.547900  0.360490  0.176900  1
  N  N1496  1  0.452100  0.639510  0.823100  1
  N  N1497  1  0.673600  0.357090  0.096650  1
  N  N1498  1  0.326400  0.642910  0.903350  1
  N  N1499  1  0.627500  0.351220  0.122330  1
  N  N1500  1  0.372500  0.648780  0.877670  1
  N  N1501  1  0.836400  0.207630  0.914200  1
  N  N1502  1  0.163600  0.792370  0.085800  1
  N  N1503  1  0.693000  0.219230  0.983650  1
  N  N1504  1  0.307000  0.780770  0.016350  1
  N  N1505  1  0.748000  0.219870  0.963500  1
  N  N1506  1  0.252000  0.780130  0.036500  1
  N  N1507  1  0.781300  0.304700  0.920030  1
  N  N1508  1  0.218700  0.695300  0.079970  1
  N  N1509  1  0.868000  0.338090  0.029080  1
  N  N1510  1  0.132000  0.661910  0.970920  1
  N  N1511  1  0.843000  0.321320  0.992860  1
  N  N1512  1  0.157000  0.678680  0.007140  1
  N  N1513  1  0.091900  0.280650  0.259530  1
  N  N1514  1  0.908100  0.719350  0.740470  1
  N  N1515  1  0.034300  0.249900  0.147770  1
  N  N1516  1  0.965700  0.750100  0.852230  1
  N  N1517  1  0.049800  0.265620  0.184260  1
  N  N1518  1  0.950200  0.734380  0.815740  1
  N  N1519  1  0.113200  0.365040  0.202970  1
  N  N1520  1  0.886800  0.634960  0.797030  1
  N  N1521  1  0.907000  0.365970  0.163900  1
  N  N1522  1  0.093000  0.634030  0.836100  1
  N  N1523  1  0.974100  0.360170  0.179740  1
  N  N1524  1  0.025900  0.639830  0.820260  1
  N  N1525  1  0.446300  0.262090  0.152740  1
  N  N1526  1  0.553700  0.737910  0.847260  1
  N  N1527  1  0.649300  0.262140  0.201080  1
  N  N1528  1  0.350700  0.737860  0.798920  1
  N  N1529  1  0.584300  0.266060  0.181110  1
  N  N1530  1  0.415700  0.733940  0.818890  1
  Cl  Cl1531  1  0.682870  0.266790  0.609090  1
  Cl  Cl1532  1  0.317130  0.733210  0.390910  1
  Cl  Cl1533  1  0.790540  0.229960  0.111270  1
  Cl  Cl1534  1  0.209460  0.770040  0.888730  1
  Cl  Cl1535  1  0.704010  0.175230  0.324340  1
  Cl  Cl1536  1  0.295990  0.824770  0.675660  1
  Cl  Cl1537  1  0.534020  0.435610  0.367390  1
  Cl  Cl1538  1  0.465980  0.564390  0.632610  1
  Cl  Cl1539  1  0.306270  0.280000  0.240950  1
  Cl  Cl1540  1  0.693730  0.720000  0.759050  1
  Cl  Cl1541  1  0.823740  0.574550  0.311040  1
  Cl  Cl1542  1  0.176260  0.425450  0.688960  1
  Cl  Cl1543  1  0.834830  0.733000  0.460450  1
  Cl  Cl1544  1  0.165170  0.267000  0.539550  1
  Cl  Cl1545  1  0.079500  0.331420  0.394260  1
  Cl  Cl1546  1  0.920500  0.668580  0.605740  1
  Cl  Cl1547  1  0.117100  0.533160  0.082340  1
  Cl  Cl1548  1  0.882900  0.466840  0.917660  1
  Cl  Cl1549  1  0.966100  0.902530  0.143280  1
  Cl  Cl1550  1  0.033900  0.097470  0.856720  1
  Cl  Cl1551  1  0.733470  0.891540  0.259130  1
  Cl  Cl1552  1  0.266530  0.108460  0.740870  1
  Cl  Cl1553  1  0.535540  0.909650  0.040680  1
  Cl  Cl1554  1  0.464460  0.090350  0.959320  1
  Cl  Cl1555  1  0.377120  0.804790  0.176570  1
  Cl  Cl1556  1  0.622880  0.195210  0.823430  1
  Cl  Cl1557  1  0.142690  0.124710  0.088570  1
  Cl  Cl1558  1  0.857310  0.875290  0.911430  1
  O  O1559  1  0.750100  0.952900  0.772200  1
  O  O1560  1  0.249900  0.047100  0.227800  1
  O  O1561  1  0.892000  0.540500  0.450800  1
  O  O1562  1  0.108000  0.459500  0.549200  1
  O  O1563  1  0.149100  0.060700  0.592110  1
  O  O1564  1  0.850900  0.939300  0.407890  1
  O  O1565  1  0.426500  0.448900  0.792700  1
  O  O1566  1  0.573500  0.551100  0.207300  1
  O  O1567  1  0.052800  0.232400  0.865300  1
  O  O1568  1  0.947200  0.767600  0.134700  1
  O  O1569  1  0.149900  0.124600  0.436300  1
  O  O1570  1  0.850100  0.875400  0.563700  1
  O  O1571  1  0.469400  0.254000  0.283490  1
  O  O1572  1  0.530600  0.746000  0.716510  1
  O  O1573  1  0.057600  0.459400  0.812540  1
  O  O1574  1  0.942400  0.540600  0.187460  1
  O  O1575  1  0.648100  0.638200  0.592600  1
  O  O1576  1  0.351900  0.361800  0.407400  1
  O  O1577  1  0.260800  0.984800  0.706700  1
  O  O1578  1  0.739200  0.015200  0.293300  1
  O  O1579  1  0.136600  0.247800  0.705000  1
  O  O1580  1  0.863400  0.752200  0.295000  1
  O  O1581  1  0.955800  0.166200  0.390400  1
  O  O1582  1  0.044200  0.833800  0.609600  1
  O  O1583  1  0.965500  0.000700  0.310710  1
  O  O1584  1  0.034500  0.999300  0.689290  1
  O  O1585  1  0.322100  0.354000  0.964300  1
  O  O1586  1  0.677900  0.646000  0.035700  1
  O  O1587  1  0.376500  0.956300  0.124300  1
  O  O1588  1  0.623500  0.043700  0.875700  1
  O  O1589  1  0.150300  0.379300  0.890600  1
  O  O1590  1  0.849700  0.620700  0.109400  1
  O  O1591  1  0.803300  0.839600  0.018600  1
  O  O1592  1  0.196700  0.160400  0.981400  1
  O  O1593  1  0.908100  0.434000  0.371500  1
  O  O1594  1  0.091900  0.566000  0.628500  1
  O  O1595  1  0.660500  0.500400  0.259820  1
  O  O1596  1  0.339500  0.499600  0.740180  1
  O  O1597  1  0.755400  0.049300  0.849500  1
  O  O1598  1  0.244600  0.950700  0.150500  1
  O  O1599  1  0.596600  0.407900  0.868300  1
  O  O1600  1  0.403400  0.592100  0.131700  1
  O  O1601  1  0.241000  0.159100  0.308600  1
  O  O1602  1  0.759000  0.840900  0.691400  1
  O  O1603  1  0.342500  0.426500  0.156100  1
  O  O1604  1  0.657500  0.573500  0.843900  1
  O  O1605  1  0.305000  0.134600  0.216700  1
  O  O1606  1  0.695000  0.865400  0.783300  1
  O  O1607  1  0.675200  0.224780  0.585850  1
  O  O1608  1  0.324800  0.775220  0.414150  1
  O  O1609  1  0.753300  0.292800  0.609640  1
  O  O1610  1  0.246700  0.707200  0.390360  1
  O  O1611  1  0.630600  0.294880  0.592660  1
  O  O1612  1  0.369400  0.705120  0.407340  1
  O  O1613  1  0.670900  0.255290  0.647140  1
  O  O1614  1  0.329100  0.744710  0.352860  1
  O  O1615  1  0.852500  0.211150  0.104560  1
  O  O1616  1  0.147500  0.788850  0.895440  1
  O  O1617  1  0.729800  0.208240  0.085050  1
  O  O1618  1  0.270200  0.791760  0.914950  1
  O  O1619  1  0.801600  0.279240  0.105660  1
  O  O1620  1  0.198400  0.720760  0.894340  1
  O  O1621  1  0.778600  0.220100  0.149370  1
  O  O1622  1  0.221400  0.779900  0.850630  1
  O  O1623  1  0.763300  0.151600  0.323500  1
  O  O1624  1  0.236700  0.848400  0.676500  1
  O  O1625  1  0.645700  0.155500  0.295030  1
  O  O1626  1  0.354300  0.844500  0.704970  1
  O  O1627  1  0.723200  0.224300  0.316140  1
  O  O1628  1  0.276800  0.775700  0.683860  1
  O  O1629  1  0.681000  0.172000  0.361040  1
  O  O1630  1  0.319000  0.828000  0.638960  1
  O  O1631  1  0.578600  0.411600  0.350810  1
  O  O1632  1  0.421400  0.588400  0.649190  1
  O  O1633  1  0.525100  0.477800  0.355900  1
  O  O1634  1  0.474900  0.522200  0.644100  1
  O  O1635  1  0.464200  0.403900  0.353800  1
  O  O1636  1  0.535800  0.596100  0.646200  1
  O  O1637  1  0.542800  0.430300  0.407670  1
  O  O1638  1  0.457200  0.569700  0.592330  1
  O  O1639  1  0.374800  0.298600  0.231030  1
  O  O1640  1  0.625200  0.701400  0.768970  1
  O  O1641  1  0.310500  0.234700  0.256130  1
  O  O1642  1  0.689500  0.765300  0.743870  1
  O  O1643  1  0.290200  0.310200  0.270310  1
  O  O1644  1  0.709800  0.689800  0.729690  1
  O  O1645  1  0.251700  0.276200  0.208370  1
  O  O1646  1  0.748300  0.723800  0.791630  1
  O  O1647  1  0.767500  0.536200  0.322600  1
  O  O1648  1  0.232500  0.463800  0.677400  1
  O  O1649  1  0.890800  0.554200  0.315400  1
  O  O1650  1  0.109200  0.445800  0.684600  1
  O  O1651  1  0.838000  0.610900  0.340800  1
  O  O1652  1  0.162000  0.389100  0.659200  1
  O  O1653  1  0.796500  0.595800  0.275900  1
  O  O1654  1  0.203500  0.404200  0.724100  1
  O  O1655  1  0.762700  0.712200  0.450200  1
  O  O1656  1  0.237300  0.287800  0.549800  1
  O  O1657  1  0.887100  0.706500  0.450700  1
  O  O1658  1  0.112900  0.293500  0.549300  1
  O  O1659  1  0.848300  0.733600  0.501700  1
  O  O1660  1  0.151700  0.266400  0.498300  1
  O  O1661  1  0.851000  0.776200  0.447200  1
  O  O1662  1  0.149000  0.223800  0.552800  1
  O  O1663  1  0.107200  0.359600  0.367900  1
  O  O1664  1  0.892800  0.640400  0.632100  1
  O  O1665  1  0.046300  0.289900  0.380800  1
  O  O1666  1  0.953700  0.710100  0.619200  1
  O  O1667  1  0.108200  0.340600  0.429700  1
  O  O1668  1  0.891800  0.659400  0.570300  1
  O  O1669  1  0.004900  0.355400  0.397800  1
  O  O1670  1  0.995100  0.644600  0.602200  1
  O  O1671  1  0.113700  0.572300  0.104100  1
  O  O1672  1  0.886300  0.427700  0.895900  1
  O  O1673  1  0.191100  0.517600  0.099700  1
  O  O1674  1  0.808900  0.482400  0.900300  1
  O  O1675  1  0.070600  0.494500  0.091030  1
  O  O1676  1  0.929400  0.505500  0.908970  1
  O  O1677  1  0.115300  0.540800  0.045300  1
  O  O1678  1  0.884700  0.459200  0.954700  1
  O  O1679  1  0.966100  0.948200  0.128900  1
  O  O1680  1  0.033900  0.051800  0.871100  1
  O  O1681  1  0.013000  0.900800  0.177400  1
  O  O1682  1  0.987000  0.099200  0.822600  1
  O  O1683  1  0.986200  0.870900  0.114700  1
  O  O1684  1  0.013800  0.129100  0.885300  1
  O  O1685  1  0.896800  0.882200  0.148900  1
  O  O1686  1  0.103200  0.117800  0.851100  1
  O  O1687  1  0.780000  0.902700  0.295200  1
  O  O1688  1  0.220000  0.097300  0.704800  1
  O  O1689  1  0.715800  0.934200  0.247500  1
  O  O1690  1  0.284200  0.065800  0.752500  1
  O  O1691  1  0.773100  0.870700  0.235300  1
  O  O1692  1  0.226900  0.129300  0.764700  1
  O  O1693  1  0.672200  0.860100  0.265600  1
  O  O1694  1  0.327800  0.139900  0.734400  1
  O  O1695  1  0.575200  0.951400  0.034900  1
  O  O1696  1  0.424800  0.048600  0.965100  1
  O  O1697  1  0.565000  0.893700  0.078100  1
  O  O1698  1  0.435000  0.106300  0.921900  1
  O  O1699  1  0.524700  0.875000  0.014700  1
  O  O1700  1  0.475300  0.125000  0.985300  1
  O  O1701  1  0.460500  0.921000  0.043900  1
  O  O1702  1  0.539500  0.079000  0.956100  1
  O  O1703  1  0.378000  0.800900  0.137390  1
  O  O1704  1  0.622000  0.199100  0.862610  1
  O  O1705  1  0.438000  0.836100  0.194700  1
  O  O1706  1  0.562000  0.163900  0.805300  1
  O  O1707  1  0.362100  0.766800  0.196060  1
  O  O1708  1  0.637900  0.233200  0.803940  1
  O  O1709  1  0.318000  0.837200  0.179200  1
  O  O1710  1  0.682000  0.162800  0.820800  1
  O  O1711  1  0.158100  0.175100  0.085800  1
  O  O1712  1  0.841900  0.824900  0.914200  1
  O  O1713  1  0.201900  0.102800  0.083500  1
  O  O1714  1  0.798100  0.897200  0.916500  1
  O  O1715  1  0.122100  0.113300  0.125700  1
  O  O1716  1  0.877900  0.886700  0.874300  1
  O  O1717  1  0.084000  0.109100  0.059470  1
  O  O1718  1  0.916000  0.890900  0.940530  1
  O  O1719  1  0.408300  0.482540  0.905110  1
  O  O1720  1  0.591700  0.517460  0.094890  1
  O  O1721  1  0.638200  0.025550  0.475400  1
  O  O1722  1  0.361800  0.974450  0.524600  1
  O  O1723  1  0.968500  0.610200  0.392800  1
  O  O1724  1  0.031500  0.389800  0.607200  1
  O  O1725  1  0.386200  0.398300  0.281500  1
  O  O1726  1  0.613800  0.601700  0.718500  1
  O  O1727  1  0.467900  0.467400  0.471400  1
  O  O1728  1  0.532100  0.532600  0.528600  1
  O  O1729  1  0.413000  0.403600  0.521900  1
  O  O1730  1  0.587000  0.596400  0.478100  1
  O  O1731  1  0.618900  0.563300  0.409850  1
  O  O1732  1  0.381100  0.436700  0.590150  1
  O  O1733  1  0.233300  0.285100  0.992300  1
  O  O1734  1  0.766700  0.714900  0.007700  1
  O  O1735  1  0.093500  0.027200  0.363400  1
  O  O1736  1  0.906500  0.972800  0.636600  1
  O  O1737  1  0.277200  0.230200  0.051400  1
  O  O1738  1  0.722800  0.769800  0.948600  1
  O  O1739  1  0.212800  0.085800  0.351800  1
  O  O1740  1  0.787200  0.914200  0.648200  1
  O  O1741  1  0.216600  0.271300  0.777900  1
  O  O1742  1  0.783400  0.728700  0.222100  1
  O  O1743  1  0.709400  0.794700  0.185800  1
  O  O1744  1  0.290600  0.205300  0.814200  1
  O  O1745  1  0.837900  0.475100  0.076400  1
  O  O1746  1  0.162100  0.524900  0.923600  1
  O  O1747  1  0.346500  0.058400  0.376700  1
  O  O1748  1  0.653500  0.941600  0.623300  1
  O  O1749  1  0.939400  0.486500  0.035500  1
  O  O1750  1  0.060600  0.513500  0.964500  1
  O  O1751  1  0.826400  0.534500  0.133500  1
  O  O1752  1  0.173600  0.465500  0.866500  1
  O  O1753  1  0.821200  0.971600  0.842700  1
  O  O1754  1  0.178800  0.028400  0.157300  1
  O  O1755  1  0.821400  0.775200  0.070200  1
  O  O1756  1  0.178600  0.224800  0.929800  1
  O  O1757  1  0.514500  0.815100  0.109200  1
  O  O1758  1  0.485500  0.184900  0.890800  1
  O  O1759  1  0.278900  0.351200  0.487100  1
  O  O1760  1  0.721100  0.648800  0.512900  1
  O  O1761  1  0.854900  0.999300  0.346500  1
  O  O1762  1  0.145100  0.000700  0.653500  1
  O  O1763  1  0.015500  0.505000  0.446600  1
  O  O1764  1  0.984500  0.495000  0.553400  1
  O  O1765  1  0.744300  0.618200  0.394500  1
  O  O1766  1  0.255700  0.381800  0.605500  1
  O  O1767  1  0.373000  0.162500  0.285500  1
  O  O1768  1  0.627000  0.837500  0.714500  1
  O  O1769  1  0.425300  0.034000  0.443300  1
  O  O1770  1  0.574700  0.966000  0.556700  1
  O  O1771  1  0.657600  0.824700  0.997500  1
  O  O1772  1  0.342400  0.175300  0.002500  1
  O  O1773  1  0.714100  0.761700  0.109600  1
  O  O1774  1  0.285900  0.238300  0.890400  1
  O  O1775  1  0.117600  0.207800  0.408200  1
  O  O1776  1  0.882400  0.792200  0.591800  1
  O  O1777  1  0.602600  0.773000  0.059300  1
  O  O1778  1  0.397400  0.227000  0.940700  1
  O  O1779  1  0.915400  0.078600  0.401100  1
  O  O1780  1  0.084600  0.921400  0.598900  1
  O  O1781  1  0.049900  0.049200  0.426600  1
  O  O1782  1  0.950100  0.950800  0.573400  1
  O  O1783  1  0.494800  0.165800  0.295400  1
  O  O1784  1  0.505200  0.834200  0.704600  1
  O  O1785  1  0.562700  0.776200  0.175300  1
  O  O1786  1  0.437300  0.223800  0.824700  1
  O  O1787  1  0.737900  0.506300  0.021300  1
  O  O1788  1  0.262100  0.493700  0.978700  1
  O  O1789  1  0.291000  0.496200  0.052000  1
  O  O1790  1  0.709000  0.503800  0.948000  1
  O  O1791  1  0.524400  0.522100  0.831300  1
  O  O1792  1  0.475600  0.477900  0.168700  1
  O  O1793  1  0.252200  0.957500  0.679200  1
  O  O1794  1  0.747800  0.042500  0.320800  1
  O  O1795  1  0.991200  0.491200  0.361300  1
  O  O1796  1  0.008800  0.508800  0.638700  1
  O  O1797  1  0.705300  0.425400  0.833300  1
  O  O1798  1  0.294700  0.574600  0.166700  1
  O  O1799  1  0.203400  0.180100  0.360500  1
  O  O1800  1  0.796600  0.819900  0.639500  1
