
#######################################################################
#
#                 Cambridge Crystallographic Data Centre
#                                CCDC 
#
#######################################################################
#
# If this CIF has been generated from an entry in the Cambridge 
# Structural Database, then it will include bibliographic, chemical, 
# crystal, experimental, refinement or atomic coordinate data resulting 
# from the CCDC's data processing and validation procedures.
#
#######################################################################

data_BUSXIY
_chemical_formula_moiety         'C90 H78 Co2 N18 O6 4+,4(B1 F4 1-)'
_chemical_name_systematic        
'tris(\m-(naphthalene-1,8-diylbis(methylene-1H-pyrazole-1,3-diylpyridine-2,4-diyl))dimethanol)-di-cobalt(ii) tetrakis(tetrafluoroborate) unknown solvate'
_symmetry_cell_setting           rhombohedral
_symmetry_space_group_name_H-M   'R -3 c'
_symmetry_Int_Tables_number      167
_space_group_name_Hall           '-R 3 2"c'
loop_
_symmetry_equiv_pos_site_id
_symmetry_equiv_pos_as_xyz
1 x,y,z
2 -y,x-y,z
3 -x+y,-x,z
4 y,x,1/2-z
5 -x,-x+y,1/2-z
6 x-y,-y,1/2-z
7 2/3+x,1/3+y,1/3+z
8 2/3-y,1/3+x-y,1/3+z
9 2/3-x+y,1/3-x,1/3+z
10 2/3+y,1/3+x,5/6-z
11 2/3-x,1/3-x+y,5/6-z
12 2/3+x-y,1/3-y,5/6-z
13 1/3+x,2/3+y,2/3+z
14 1/3-y,2/3+x-y,2/3+z
15 1/3-x+y,2/3-x,2/3+z
16 1/3+y,2/3+x,1/6-z
17 1/3-x,2/3-x+y,1/6-z
18 1/3+x-y,2/3-y,1/6-z
19 -x,-y,-z
20 y,-x+y,-z
21 x-y,x,-z
22 -y,-x,1/2+z
23 x,x-y,1/2+z
24 -x+y,y,1/2+z
25 1/3-x,2/3-y,2/3-z
26 1/3+y,2/3-x+y,2/3-z
27 1/3+x-y,2/3+x,2/3-z
28 1/3-y,2/3-x,1/6+z
29 1/3+x,2/3+x-y,1/6+z
30 1/3-x+y,2/3+y,1/6+z
31 2/3-x,1/3-y,1/3-z
32 2/3+y,1/3-x+y,1/3-z
33 2/3+x-y,1/3+x,1/3-z
34 2/3-y,1/3-x,5/6+z
35 2/3+x,1/3+x-y,5/6+z
36 2/3-x+y,1/3+y,5/6+z
_cell_length_a                   18.885(3)
_cell_length_b                   18.885(3)
_cell_length_c                   101.44(2)
_cell_angle_alpha                90
_cell_angle_beta                 90
_cell_angle_gamma                120
_cell_volume                     31331
_exptl_crystal_colour            orange
_exptl_crystal_description       plate
_cell_formula_units_Z            12
loop_
_atom_site_label
_atom_site_type_symbol
_atom_site_fract_x
_atom_site_fract_y
_atom_site_fract_z
Co1 Co 1.0000 1.0000 0.13471(2)
Co2 Co 1.0000 1.0000 0.05732(2)
C1 C 1.3082(8) 1.2746(12) 0.16840(10)
H1 H 1.3384 1.2480 0.1718
H2 H 1.3448 1.3182 0.1622
O1 O 1.2914(15) 1.3103(21) 0.17885(15)
H3 H 1.3263 1.3214 0.1848
C2 C 1.2325(6) 1.2101(8) 0.16058(6)
C3 C 1.1540(7) 1.1912(9) 0.16418(7)
H4 H 1.1460 1.2178 0.1715
C4 C 1.0870(6) 1.1332(8) 0.15707(8)
H5 H 1.0333 1.1202 0.1595
N1 N 1.0987(6) 1.0943(9) 0.14635(6)
C5 C 1.1772(7) 1.1132(9) 0.14275(6)
C6 C 1.2442(6) 1.1712(8) 0.14987(7)
H6 H 1.2979 1.1841 0.1474
N2 N 1.1081(5) 1.0192(6) 0.12466(6)
C7 C 1.1809(6) 1.0746(6) 0.13143(6)
C8 C 1.2480(5) 1.0777(6) 0.12460(8)
H7 H 1.3040 1.1099 0.1270
C9 C 1.2167(6) 1.0242(6) 0.11361(7)
H8 H 1.2481 1.0143 0.1073
N3 N 1.1303(6) 0.9880(5) 0.11365(6)
C10 C 1.0737(11) 0.9308(10) 0.10537(10)
H9 H 1.0972 0.9395 0.0964
H10 H 1.0255 0.9384 0.1050
C11 C 1.0449(5) 0.8401(4) 0.10985(6)
C12 C 1.0811(5) 0.8356(5) 0.12151(6)
H11 H 1.1211 0.8842 0.1257
C13 C 1.0588(6) 0.7599(5) 0.12701(6)
H12 H 1.0836 0.7567 0.1350
C14 C 1.0004(6) 0.6887(5) 0.12085(6)
H13 H 0.9852 0.6369 0.1246
C15 C 0.9642(4) 0.6932(4) 0.10919(5)
C16 C 0.9865(4) 0.7689(4) 0.10369(4)
C17 C 0.9503(6) 0.7735(5) 0.09203(6)
C18 C 0.8918(6) 0.7023(6) 0.08587(7)
H14 H 0.8671 0.7054 0.0779
C19 C 0.8696(6) 0.6266(5) 0.09137(7)
H15 H 0.8296 0.5779 0.0872
C20 C 0.9057(6) 0.6220(4) 0.10304(7)
H16 H 0.8905 0.5703 0.1068
C21 C 0.9564(12) 0.8437(11) 0.08330(11)
H17 H 0.9057 0.8250 0.0781
H18 H 0.9655 0.8908 0.0888
N4 N 1.0269(5) 0.8668(5) 0.07447(6)
C22 C 1.0793(7) 0.8345(5) 0.07203(8)
H19 H 1.0743 0.7861 0.0758
C23 C 1.1405(6) 0.8872(7) 0.06300(8)
H20 H 1.1836 0.8803 0.0597
C24 C 1.1259(5) 0.9521(5) 0.05985(7)
N5 N 1.0557(5) 0.9394(5) 0.06694(7)
N6 N 1.1118(6) 1.0439(10) 0.04690(9)
C25 C 1.1356(7) 1.1063(10) 0.03770(9)
H21 H 1.0988 1.1244 0.0352
C26 C 1.2133(8) 1.1422(11) 0.03215(8)
H22 H 1.2295 1.1848 0.0259
C27 C 1.2671(6) 1.1157(10) 0.03581(9)
C28 C 1.2433(7) 1.0533(10) 0.04501(10)
H23 H 1.2801 1.0351 0.0475
C29 C 1.1657(8) 1.0174(11) 0.05056(8)
C30 C 1.3577(8) 1.1682(14) 0.03113(15)
H24 H 1.3913 1.1943 0.0391
H25 H 1.3747 1.1299 0.0277
O2 O 1.3799(16) 1.2303(22) 0.02157(17)
H26 H 1.4197 1.2740 0.0243
C1A C 0.7254(12) 1.0336(14) 0.16840(10)
H1A H 0.7520 1.0904 0.1718
H2A H 0.6818 1.0266 0.1622
O1A O 0.6897(21) 0.9811(26) 0.17885(15)
H3A H 0.6786 1.0049 0.1848
C2A C 0.7899(8) 1.0224(10) 0.16058(6)
C3A C 0.8088(9) 0.9628(11) 0.16418(7)
H4A H 0.7822 0.9282 0.1715
C4A C 0.8668(8) 0.9538(10) 0.15707(8)
H5A H 0.8798 0.9131 0.1595
N1A N 0.9057(9) 1.0044(11) 0.14635(6)
C5A C 0.8868(9) 1.0640(11) 0.14275(6)
C6A C 0.8288(8) 1.0730(10) 0.14987(7)
H6A H 0.8159 1.1138 0.1474
N2A N 0.9808(6) 1.0889(8) 0.12466(6)
C7A C 0.9254(6) 1.1063(8) 0.13143(6)
C8A C 0.9223(6) 1.1703(8) 0.12460(8)
H7A H 0.8901 1.1941 0.1270
C9A C 0.9758(6) 1.1925(8) 0.11361(7)
H8A H 0.9857 1.2338 0.1073
N3A N 1.0120(5) 1.1423(8) 0.11365(6)
C10A C 1.0692(10) 1.1429(15) 0.10537(10)
H9A H 1.0605 1.1577 0.0964
H10A H 1.0616 1.0871 0.1050
C11A C 1.1599(4) 1.2048(6) 0.10985(6)
C12A C 1.1644(5) 1.2455(7) 0.12151(6)
H11A H 1.1158 1.2369 0.1257
C13A C 1.2401(5) 1.2989(8) 0.12701(6)
H12A H 1.2433 1.3269 0.1350
C14A C 1.3113(5) 1.3117(8) 0.12085(6)
H13A H 1.3631 1.3483 0.1246
C15A C 1.3068(4) 1.2710(6) 0.10919(5)
C16A C 1.2311(4) 1.2176(6) 0.10369(4)
C17A C 1.2265(5) 1.1768(8) 0.09203(6)
C18A C 1.2977(6) 1.1895(8) 0.08587(7)
H14A H 1.2946 1.1617 0.0779
C19A C 1.3734(5) 1.2430(8) 0.09137(7)
H15A H 1.4221 1.2517 0.0872
C20A C 1.3780(4) 1.2837(7) 0.10304(7)
H16A H 1.4297 1.3202 0.1068
C21A C 1.1563(11) 1.1127(16) 0.08330(11)
H17A H 1.1750 1.0807 0.0781
H18A H 1.1092 1.0747 0.0888
N4A N 1.1332(5) 1.1601(7) 0.07447(6)
C22A C 1.1655(5) 1.2448(9) 0.07203(8)
H19A H 1.2139 1.2882 0.0758
C23A C 1.1128(7) 1.2533(9) 0.06300(8)
H20A H 1.1197 1.3033 0.0597
C24A C 1.0479(5) 1.1738(7) 0.05985(7)
N5A N 1.0606(5) 1.1163(7) 0.06694(7)
N6A N 0.9561(10) 1.0679(12) 0.04690(9)
C25A C 0.8937(10) 1.0293(12) 0.03770(9)
H21A H 0.8756 0.9744 0.0352
C26A C 0.8578(11) 1.0711(14) 0.03215(8)
H22A H 0.8152 1.0447 0.0259
C27A C 0.8843(10) 1.1514(12) 0.03581(9)
C28A C 0.9467(10) 1.1900(12) 0.04501(10)
H23A H 0.9649 1.2450 0.0475
C29A C 0.9826(11) 1.1483(14) 0.05056(8)
C30A C 0.8318(14) 1.1895(16) 0.03113(15)
H24A H 0.8057 1.1970 0.0391
H25A H 0.8701 1.2448 0.0277
O2A O 0.7697(22) 1.1496(27) 0.02157(17)
H26A H 0.7260 1.1457 0.0243
C1B C 0.9664(14) 0.6918(8) 0.16840(10)
H1B H 0.9096 0.6616 0.1718
H2B H 0.9734 0.6552 0.1622
O1B O 1.0189(26) 0.7086(15) 0.17885(15)
H3B H 0.9951 0.6737 0.1848
C2B C 0.9776(10) 0.7675(6) 0.16058(6)
C3B C 1.0372(11) 0.8460(7) 0.16418(7)
H4B H 1.0718 0.8540 0.1715
C4B C 1.0462(10) 0.9130(6) 0.15707(8)
H5B H 1.0869 0.9667 0.1595
N1B N 0.9956(11) 0.9013(6) 0.14635(6)
C5B C 0.9360(11) 0.8228(7) 0.14275(6)
C6B C 0.9270(10) 0.7558(6) 0.14987(7)
H6B H 0.8862 0.7021 0.1474
N2B N 0.9111(8) 0.8919(5) 0.12466(6)
C7B C 0.8937(8) 0.8191(6) 0.13143(6)
C8B C 0.8297(8) 0.7520(5) 0.12460(8)
H7B H 0.8059 0.6960 0.1270
C9B C 0.8075(8) 0.7833(6) 0.11361(7)
H8B H 0.7662 0.7519 0.1073
N3B N 0.8577(8) 0.8697(6) 0.11365(6)
C10B C 0.8571(15) 0.9263(11) 0.10537(10)
H9B H 0.8423 0.9028 0.0964
H10B H 0.9129 0.9745 0.1050
C11B C 0.7952(6) 0.9551(5) 0.10985(6)
C12B C 0.7545(7) 0.9189(5) 0.12151(6)
H11B H 0.7631 0.8789 0.1257
C13B C 0.7011(8) 0.9412(6) 0.12701(6)
H12B H 0.6731 0.9164 0.1350
C14B C 0.6883(8) 0.9996(6) 0.12085(6)
H13B H 0.6517 1.0148 0.1246
C15B C 0.7290(6) 1.0358(4) 0.10919(5)
C16B C 0.7824(6) 1.0135(4) 0.10369(4)
C17B C 0.8232(8) 1.0497(6) 0.09203(6)
C18B C 0.8105(8) 1.1082(6) 0.08587(7)
H14B H 0.8383 1.1329 0.0779
C19B C 0.7570(8) 1.1304(6) 0.09137(7)
H15B H 0.7483 1.1704 0.0872
C20B C 0.7163(7) 1.0943(6) 0.10304(7)
H16B H 0.6798 1.1095 0.1068
C21B C 0.8873(16) 1.0436(12) 0.08330(11)
H17B H 0.9193 1.0943 0.0781
H18B H 0.9253 1.0345 0.0888
N4B N 0.8399(7) 0.9731(5) 0.07447(6)
C22B C 0.7552(9) 0.9207(7) 0.07203(8)
H19B H 0.7118 0.9257 0.0758
C23B C 0.7467(9) 0.8595(6) 0.06300(8)
H20B H 0.6967 0.8164 0.0597
C24B C 0.8262(7) 0.8741(5) 0.05985(7)
N5B N 0.8837(7) 0.9443(5) 0.06694(7)
N6B N 0.9321(12) 0.8882(6) 0.04690(9)
C25B C 0.9707(12) 0.8644(7) 0.03770(9)
H21B H 1.0256 0.9012 0.0352
C26B C 0.9289(14) 0.7867(8) 0.03215(8)
H22B H 0.9553 0.7705 0.0259
C27B C 0.8486(12) 0.7329(6) 0.03581(9)
C28B C 0.8100(12) 0.7567(7) 0.04501(10)
H23B H 0.7550 0.7199 0.0475
C29B C 0.8517(14) 0.8343(8) 0.05056(8)
C30B C 0.8105(16) 0.6423(8) 0.03113(15)
H24B H 0.8030 0.6087 0.0391
H25B H 0.7552 0.6253 0.0277
O2B O 0.8504(27) 0.6201(16) 0.02157(17)
H26B H 0.8543 0.5803 0.0243
B1 B 0.3135(13) 0.9802(13) 0.0833
F1 F 0.3632(9) 1.0186(9) 0.09389(11)
F2 F 0.2464(13) 0.9916(18) 0.0840(3)
F1O F 0.3519(9) 1.0299(9) 0.07278(11)
F2O F 0.3249(18) 0.9131(13) 0.0827(3)
loop_
_geom_bond_atom_site_label_1
_geom_bond_atom_site_label_2
_geom_bond_site_symmetry_1
_geom_bond_site_symmetry_2
Co1 N1 1_555 1_555
Co2 N5 1_555 1_555
C1 H1 1_555 1_555
H2 C1 1_555 1_555
O1 C1 1_555 1_555
H3 O1 1_555 1_555
C2 C1 1_555 1_555
C3 C2 1_555 1_555
H4 C3 1_555 1_555
C4 C3 1_555 1_555
H5 C4 1_555 1_555
N1 C4 1_555 1_555
C5 N1 1_555 1_555
C6 C2 1_555 1_555
H6 C6 1_555 1_555
N2 Co1 1_555 1_555
C7 C5 1_555 1_555
C8 C7 1_555 1_555
H7 C8 1_555 1_555
C9 C8 1_555 1_555
H8 C9 1_555 1_555
N3 N2 1_555 1_555
C10 N3 1_555 1_555
H9 C10 1_555 1_555
H10 C10 1_555 1_555
C11 C10 1_555 1_555
C12 C11 1_555 1_555
H11 C12 1_555 1_555
C13 C12 1_555 1_555
H12 C13 1_555 1_555
C14 C13 1_555 1_555
H13 C14 1_555 1_555
C15 C14 1_555 1_555
C16 C11 1_555 1_555
C17 C16 1_555 1_555
C18 C17 1_555 1_555
H14 C18 1_555 1_555
C19 C18 1_555 1_555
H15 C19 1_555 1_555
C20 C15 1_555 1_555
H16 C20 1_555 1_555
C21 C17 1_555 1_555
H17 C21 1_555 1_555
H18 C21 1_555 1_555
N4 C21 1_555 1_555
C22 N4 1_555 1_555
H19 C22 1_555 1_555
C23 C22 1_555 1_555
H20 C23 1_555 1_555
C24 C23 1_555 1_555
N5 N4 1_555 1_555
N6 Co2 1_555 1_555
C25 N6 1_555 1_555
H21 C25 1_555 1_555
C26 C25 1_555 1_555
H22 C26 1_555 1_555
C27 C26 1_555 1_555
C28 C27 1_555 1_555
H23 C28 1_555 1_555
C29 C24 1_555 1_555
C30 C27 1_555 1_555
H24 C30 1_555 1_555
H25 C30 1_555 1_555
O2 C30 1_555 1_555
H26 O2 1_555 1_555
B1 F1 1_555 1_555
F2 B1 1_555 1_555
C1A H1A 1_555 1_555
H2A C1A 1_555 1_555
O1A C1A 1_555 1_555
H3A O1A 1_555 1_555
C2A C1A 1_555 1_555
C3A C2A 1_555 1_555
H4A C3A 1_555 1_555
C4A C3A 1_555 1_555
H5A C4A 1_555 1_555
N1A Co1 1_555 1_555
C5A N1A 1_555 1_555
C6A C2A 1_555 1_555
H6A C6A 1_555 1_555
N2A Co1 1_555 1_555
C7A C5A 1_555 1_555
C8A C7A 1_555 1_555
H7A C8A 1_555 1_555
C9A C8A 1_555 1_555
H8A C9A 1_555 1_555
N3A N2A 1_555 1_555
C10A N3A 1_555 1_555
H9A C10A 1_555 1_555
H10A C10A 1_555 1_555
C11A C10A 1_555 1_555
C12A C11A 1_555 1_555
H11A C12A 1_555 1_555
C13A C12A 1_555 1_555
H12A C13A 1_555 1_555
C14A C13A 1_555 1_555
H13A C14A 1_555 1_555
C15A C14A 1_555 1_555
C16A C11A 1_555 1_555
C17A C16A 1_555 1_555
C18A C17A 1_555 1_555
H14A C18A 1_555 1_555
C19A C18A 1_555 1_555
H15A C19A 1_555 1_555
C20A C15A 1_555 1_555
H16A C20A 1_555 1_555
C21A C17A 1_555 1_555
H17A C21A 1_555 1_555
H18A C21A 1_555 1_555
N4A C21A 1_555 1_555
C22A N4A 1_555 1_555
H19A C22A 1_555 1_555
C23A C22A 1_555 1_555
H20A C23A 1_555 1_555
C24A C23A 1_555 1_555
N5A Co2 1_555 1_555
N6A Co2 1_555 1_555
C25A N6A 1_555 1_555
H21A C25A 1_555 1_555
C26A C25A 1_555 1_555
H22A C26A 1_555 1_555
C27A C26A 1_555 1_555
C28A C27A 1_555 1_555
H23A C28A 1_555 1_555
C29A C24A 1_555 1_555
C30A C27A 1_555 1_555
H24A C30A 1_555 1_555
H25A C30A 1_555 1_555
O2A C30A 1_555 1_555
H26A O2A 1_555 1_555
C1B H1B 1_555 1_555
H2B C1B 1_555 1_555
O1B C1B 1_555 1_555
H3B O1B 1_555 1_555
C2B C1B 1_555 1_555
C3B C2B 1_555 1_555
H4B C3B 1_555 1_555
C4B C3B 1_555 1_555
H5B C4B 1_555 1_555
N1B Co1 1_555 1_555
C5B N1B 1_555 1_555
C6B C2B 1_555 1_555
H6B C6B 1_555 1_555
N2B Co1 1_555 1_555
C7B C5B 1_555 1_555
C8B C7B 1_555 1_555
H7B C8B 1_555 1_555
C9B C8B 1_555 1_555
H8B C9B 1_555 1_555
N3B N2B 1_555 1_555
C10B N3B 1_555 1_555
H9B C10B 1_555 1_555
H10B C10B 1_555 1_555
C11B C10B 1_555 1_555
C12B C11B 1_555 1_555
H11B C12B 1_555 1_555
C13B C12B 1_555 1_555
H12B C13B 1_555 1_555
C14B C13B 1_555 1_555
H13B C14B 1_555 1_555
C15B C14B 1_555 1_555
C16B C11B 1_555 1_555
C17B C16B 1_555 1_555
C18B C17B 1_555 1_555
H14B C18B 1_555 1_555
C19B C18B 1_555 1_555
H15B C19B 1_555 1_555
C20B C15B 1_555 1_555
H16B C20B 1_555 1_555
C21B C17B 1_555 1_555
H17B C21B 1_555 1_555
H18B C21B 1_555 1_555
N4B C21B 1_555 1_555
C22B N4B 1_555 1_555
H19B C22B 1_555 1_555
C23B C22B 1_555 1_555
H20B C23B 1_555 1_555
C24B C23B 1_555 1_555
N5B Co2 1_555 1_555
N6B Co2 1_555 1_555
C25B N6B 1_555 1_555
H21B C25B 1_555 1_555
C26B C25B 1_555 1_555
H22B C26B 1_555 1_555
C27B C26B 1_555 1_555
C28B C27B 1_555 1_555
H23B C28B 1_555 1_555
C29B C24B 1_555 1_555
C30B C27B 1_555 1_555
H24B C30B 1_555 1_555
H25B C30B 1_555 1_555
O2B C30B 1_555 1_555
H26B O2B 1_555 1_555
F1O B1 1_555 1_555
F2O B1 1_555 1_555
C5 C6 1_555 1_555
N2 C7 1_555 1_555
C9 N3 1_555 1_555
C15 C16 1_555 1_555
C19 C20 1_555 1_555
C24 N5 1_555 1_555
N6 C29 1_555 1_555
C28 C29 1_555 1_555
C4A N1A 1_555 1_555
C5A C6A 1_555 1_555
N2A C7A 1_555 1_555
C9A N3A 1_555 1_555
C15A C16A 1_555 1_555
C19A C20A 1_555 1_555
N4A N5A 1_555 1_555
C24A N5A 1_555 1_555
N6A C29A 1_555 1_555
C28A C29A 1_555 1_555
C4B N1B 1_555 1_555
C5B C6B 1_555 1_555
N2B C7B 1_555 1_555
C9B N3B 1_555 1_555
C15B C16B 1_555 1_555
C19B C20B 1_555 1_555
N4B N5B 1_555 1_555
C24B N5B 1_555 1_555
N6B C29B 1_555 1_555
C28B C29B 1_555 1_555

#END
