# generated using pymatgen
data_Co24B8H924C1080N216O75F32
_symmetry_space_group_name_H-M   'P 1'
_cell_length_a   34.48744170
_cell_length_b   34.48744170
_cell_length_c   34.48744170
_cell_angle_alpha   80.80219336
_cell_angle_beta   80.80219336
_cell_angle_gamma   80.80219336
_symmetry_Int_Tables_number   1
_chemical_formula_structural   Co24B8H924C1080N216O75F32
_chemical_formula_sum   'Co24 B8 H924 C1080 N216 O75 F32'
_cell_volume   39589.37249220
_cell_formula_units_Z   1
loop_
 _symmetry_equiv_pos_site_id
 _symmetry_equiv_pos_as_xyz
  1  'x, y, z'
loop_
 _atom_site_type_symbol
 _atom_site_label
 _atom_site_symmetry_multiplicity
 _atom_site_fract_x
 _atom_site_fract_y
 _atom_site_fract_z
 _atom_site_occupancy
  B  B1  1  0.124633  0.124633  0.124633  1.0
  B  B2  1  0.875367  0.875367  0.875367  1.0
  B  B3  1  0.182070  0.608470  0.231270  1.0
  B  B4  1  0.231270  0.182070  0.608470  1.0
  B  B5  1  0.608470  0.231270  0.182070  1.0
  B  B6  1  0.817930  0.391530  0.768730  1.0
  B  B7  1  0.768730  0.817930  0.391530  1.0
  B  B8  1  0.391530  0.768730  0.817930  1.0
  C  C9  1  0.089070  0.593170  0.474570  1.0
  C  C10  1  0.474570  0.089070  0.593170  1.0
  C  C11  1  0.593170  0.474570  0.089070  1.0
  C  C12  1  0.910930  0.406830  0.525430  1.0
  C  C13  1  0.525430  0.910930  0.406830  1.0
  C  C14  1  0.406830  0.525430  0.910930  1.0
  C  C15  1  0.071300  0.619500  0.500900  1.0
  C  C16  1  0.500900  0.071300  0.619500  1.0
  C  C17  1  0.619500  0.500900  0.071300  1.0
  C  C18  1  0.928700  0.380500  0.499100  1.0
  C  C19  1  0.499100  0.928700  0.380500  1.0
  C  C20  1  0.380500  0.499100  0.928700  1.0
  C  C21  1  0.071770  0.660070  0.489770  1.0
  C  C22  1  0.489770  0.071770  0.660070  1.0
  C  C23  1  0.660070  0.489770  0.071770  1.0
  C  C24  1  0.928230  0.339930  0.510230  1.0
  C  C25  1  0.510230  0.928230  0.339930  1.0
  C  C26  1  0.339930  0.510230  0.928230  1.0
  C  C27  1  0.090050  0.674250  0.452450  1.0
  C  C28  1  0.452450  0.090050  0.674250  1.0
  C  C29  1  0.674250  0.452450  0.090050  1.0
  C  C30  1  0.909950  0.325750  0.547550  1.0
  C  C31  1  0.547550  0.909950  0.325750  1.0
  C  C32  1  0.325750  0.547550  0.909950  1.0
  C  C33  1  0.107800  0.647800  0.426200  1.0
  C  C34  1  0.426200  0.107800  0.647800  1.0
  C  C35  1  0.647800  0.426200  0.107800  1.0
  C  C36  1  0.892200  0.352200  0.573800  1.0
  C  C37  1  0.573800  0.892200  0.352200  1.0
  C  C38  1  0.352200  0.573800  0.892200  1.0
  C  C39  1  0.053500  0.688900  0.522500  1.0
  C  C40  1  0.522500  0.053500  0.688900  1.0
  C  C41  1  0.688900  0.522500  0.053500  1.0
  C  C42  1  0.946500  0.311100  0.477500  1.0
  C  C43  1  0.477500  0.946500  0.311100  1.0
  C  C44  1  0.311100  0.477500  0.946500  1.0
  C  C45  1  0.136900  0.655000  0.388400  1.0
  C  C46  1  0.388400  0.136900  0.655000  1.0
  C  C47  1  0.655000  0.388400  0.136900  1.0
  C  C48  1  0.863100  0.345000  0.611600  1.0
  C  C49  1  0.611600  0.863100  0.345000  1.0
  C  C50  1  0.345000  0.611600  0.863100  1.0
  C  C51  1  0.149810  0.689110  0.363910  1.0
  C  C52  1  0.363910  0.149810  0.689110  1.0
  C  C53  1  0.689110  0.363910  0.149810  1.0
  C  C54  1  0.850190  0.310890  0.636090  1.0
  C  C55  1  0.636090  0.850190  0.310890  1.0
  C  C56  1  0.310890  0.636090  0.850190  1.0
  C  C57  1  0.178800  0.676100  0.332900  1.0
  C  C58  1  0.332900  0.178800  0.676100  1.0
  C  C59  1  0.676100  0.332900  0.178800  1.0
  C  C60  1  0.821200  0.323900  0.667100  1.0
  C  C61  1  0.667100  0.821200  0.323900  1.0
  C  C62  1  0.323900  0.667100  0.821200  1.0
  C  C63  1  0.218800  0.608000  0.323500  1.0
  C  C64  1  0.323500  0.218800  0.608000  1.0
  C  C65  1  0.608000  0.323500  0.218800  1.0
  C  C66  1  0.781200  0.392000  0.676500  1.0
  C  C67  1  0.676500  0.781200  0.392000  1.0
  C  C68  1  0.392000  0.676500  0.781200  1.0
  C  C69  1  0.384990  0.567890  0.105590  1.0
  C  C70  1  0.105590  0.384990  0.567890  1.0
  C  C71  1  0.567890  0.105590  0.384990  1.0
  C  C72  1  0.615010  0.432110  0.894410  1.0
  C  C73  1  0.894410  0.615010  0.432110  1.0
  C  C74  1  0.432110  0.894410  0.615010  1.0
  C  C75  1  0.390070  0.543230  0.076510  1.0
  C  C76  1  0.076510  0.390070  0.543230  1.0
  C  C77  1  0.543230  0.076510  0.390070  1.0
  C  C78  1  0.609930  0.456770  0.923490  1.0
  C  C79  1  0.923490  0.609930  0.456770  1.0
  C  C80  1  0.456770  0.923490  0.609930  1.0
  C  C81  1  0.372980  0.508480  0.083980  1.0
  C  C82  1  0.083980  0.372980  0.508480  1.0
  C  C83  1  0.508480  0.083980  0.372980  1.0
  C  C84  1  0.627020  0.491520  0.916020  1.0
  C  C85  1  0.916020  0.627020  0.491520  1.0
  C  C86  1  0.491520  0.916020  0.627020  1.0
  C  C87  1  0.350810  0.498310  0.120610  1.0
  C  C88  1  0.120610  0.350810  0.498310  1.0
  C  C89  1  0.498310  0.120610  0.350810  1.0
  C  C90  1  0.649190  0.501690  0.879390  1.0
  C  C91  1  0.879390  0.649190  0.501690  1.0
  C  C92  1  0.501690  0.879390  0.649190  1.0
  C  C93  1  0.345620  0.523160  0.149580  1.0
  C  C94  1  0.149580  0.345620  0.523160  1.0
  C  C95  1  0.523160  0.149580  0.345620  1.0
  C  C96  1  0.654380  0.476840  0.850420  1.0
  C  C97  1  0.850420  0.654380  0.476840  1.0
  C  C98  1  0.476840  0.850420  0.654380  1.0
  C  C99  1  0.377600  0.481000  0.051700  1.0
  C  C100  1  0.051700  0.377600  0.481000  1.0
  C  C101  1  0.481000  0.051700  0.377600  1.0
  C  C102  1  0.622400  0.519000  0.948300  1.0
  C  C103  1  0.948300  0.622400  0.519000  1.0
  C  C104  1  0.519000  0.948300  0.622400  1.0
  C  C105  1  0.322060  0.515560  0.185960  1.0
  C  C106  1  0.185960  0.322060  0.515560  1.0
  C  C107  1  0.515560  0.185960  0.322060  1.0
  C  C108  1  0.677940  0.484440  0.814040  1.0
  C  C109  1  0.814040  0.677940  0.484440  1.0
  C  C110  1  0.484440  0.814040  0.677940  1.0
  C  C111  1  0.304230  0.482730  0.207430  1.0
  C  C112  1  0.207430  0.304230  0.482730  1.0
  C  C113  1  0.482730  0.207430  0.304230  1.0
  C  C114  1  0.695770  0.517270  0.792570  1.0
  C  C115  1  0.792570  0.695770  0.517270  1.0
  C  C116  1  0.517270  0.792570  0.695770  1.0
  C  C117  1  0.284050  0.493950  0.244050  1.0
  C  C118  1  0.244050  0.284050  0.493950  1.0
  C  C119  1  0.493950  0.244050  0.284050  1.0
  C  C120  1  0.715950  0.506050  0.755950  1.0
  C  C121  1  0.755950  0.715950  0.506050  1.0
  C  C122  1  0.506050  0.755950  0.715950  1.0
  C  C123  1  0.272600  0.556800  0.278000  1.0
  C  C124  1  0.278000  0.272600  0.556800  1.0
  C  C125  1  0.556800  0.278000  0.272600  1.0
  C  C126  1  0.727400  0.443200  0.722000  1.0
  C  C127  1  0.722000  0.727400  0.443200  1.0
  C  C128  1  0.443200  0.722000  0.727400  1.0
  C  C129  1  0.255000  0.602700  0.346000  1.0
  C  C130  1  0.346000  0.255000  0.602700  1.0
  C  C131  1  0.602700  0.346000  0.255000  1.0
  C  C132  1  0.745000  0.397300  0.654000  1.0
  C  C133  1  0.654000  0.745000  0.397300  1.0
  C  C134  1  0.397300  0.654000  0.745000  1.0
  C  C135  1  0.247040  0.625160  0.377100  1.0
  C  C136  1  0.377100  0.247040  0.625160  1.0
  C  C137  1  0.625160  0.377100  0.247040  1.0
  C  C138  1  0.752960  0.374840  0.622900  1.0
  C  C139  1  0.622900  0.752960  0.374840  1.0
  C  C140  1  0.374840  0.622900  0.752960  1.0
  C  C141  1  0.274800  0.622700  0.402800  1.0
  C  C142  1  0.402800  0.274800  0.622700  1.0
  C  C143  1  0.622700  0.402800  0.274800  1.0
  C  C144  1  0.725200  0.377300  0.597200  1.0
  C  C145  1  0.597200  0.725200  0.377300  1.0
  C  C146  1  0.377300  0.597200  0.725200  1.0
  C  C147  1  0.310490  0.597690  0.397490  1.0
  C  C148  1  0.397490  0.310490  0.597690  1.0
  C  C149  1  0.597690  0.397490  0.310490  1.0
  C  C150  1  0.689510  0.402310  0.602510  1.0
  C  C151  1  0.602510  0.689510  0.402310  1.0
  C  C152  1  0.402310  0.602510  0.689510  1.0
  C  C153  1  0.318470  0.575250  0.366350  1.0
  C  C154  1  0.366350  0.318470  0.575250  1.0
  C  C155  1  0.575250  0.366350  0.318470  1.0
  C  C156  1  0.681530  0.424750  0.633650  1.0
  C  C157  1  0.633650  0.681530  0.424750  1.0
  C  C158  1  0.424750  0.633650  0.681530  1.0
  C  C159  1  0.290740  0.577740  0.340590  1.0
  C  C160  1  0.340590  0.290740  0.577740  1.0
  C  C161  1  0.577740  0.340590  0.290740  1.0
  C  C162  1  0.709260  0.422260  0.659410  1.0
  C  C163  1  0.659410  0.709260  0.422260  1.0
  C  C164  1  0.422260  0.659410  0.709260  1.0
  C  C165  1  0.298690  0.555290  0.309490  1.0
  C  C166  1  0.309490  0.298690  0.555290  1.0
  C  C167  1  0.555290  0.309490  0.298690  1.0
  C  C168  1  0.701310  0.444710  0.690510  1.0
  C  C169  1  0.690510  0.701310  0.444710  1.0
  C  C170  1  0.444710  0.690510  0.701310  1.0
  C  C171  1  0.334480  0.530280  0.304080  1.0
  C  C172  1  0.304080  0.334480  0.530280  1.0
  C  C173  1  0.530280  0.304080  0.334480  1.0
  C  C174  1  0.665520  0.469720  0.695920  1.0
  C  C175  1  0.695920  0.665520  0.469720  1.0
  C  C176  1  0.469720  0.695920  0.665520  1.0
  C  C177  1  0.362180  0.527780  0.329880  1.0
  C  C178  1  0.329880  0.362180  0.527780  1.0
  C  C179  1  0.527780  0.329880  0.362180  1.0
  C  C180  1  0.637820  0.472220  0.670120  1.0
  C  C181  1  0.670120  0.637820  0.472220  1.0
  C  C182  1  0.472220  0.670120  0.637820  1.0
  C  C183  1  0.354180  0.550280  0.360980  1.0
  C  C184  1  0.360980  0.354180  0.550280  1.0
  C  C185  1  0.550280  0.360980  0.354180  1.0
  C  C186  1  0.645820  0.449720  0.639020  1.0
  C  C187  1  0.639020  0.645820  0.449720  1.0
  C  C188  1  0.449720  0.639020  0.645820  1.0
  C  C189  1  0.197000  0.556100  0.454500  1.0
  C  C190  1  0.454500  0.197000  0.556100  1.0
  C  C191  1  0.556100  0.454500  0.197000  1.0
  C  C192  1  0.803000  0.443900  0.545500  1.0
  C  C193  1  0.545500  0.803000  0.443900  1.0
  C  C194  1  0.443900  0.545500  0.803000  1.0
  C  C195  1  0.234100  0.541100  0.465700  1.0
  C  C196  1  0.465700  0.234100  0.541100  1.0
  C  C197  1  0.541100  0.465700  0.234100  1.0
  C  C198  1  0.765900  0.458900  0.534300  1.0
  C  C199  1  0.534300  0.765900  0.458900  1.0
  C  C200  1  0.458900  0.534300  0.765900  1.0
  C  C201  1  0.259460  0.513960  0.444560  1.0
  C  C202  1  0.444560  0.259460  0.513960  1.0
  C  C203  1  0.513960  0.444560  0.259460  1.0
  C  C204  1  0.740540  0.486040  0.555440  1.0
  C  C205  1  0.555440  0.740540  0.486040  1.0
  C  C206  1  0.486040  0.555440  0.740540  1.0
  C  C207  1  0.247820  0.501720  0.412220  1.0
  C  C208  1  0.412220  0.247820  0.501720  1.0
  C  C209  1  0.501720  0.412220  0.247820  1.0
  C  C210  1  0.752180  0.498280  0.587780  1.0
  C  C211  1  0.587780  0.752180  0.498280  1.0
  C  C212  1  0.498280  0.587780  0.752180  1.0
  C  C213  1  0.210820  0.516620  0.401020  1.0
  C  C214  1  0.401020  0.210820  0.516620  1.0
  C  C215  1  0.516620  0.401020  0.210820  1.0
  C  C216  1  0.789180  0.483380  0.598980  1.0
  C  C217  1  0.598980  0.789180  0.483380  1.0
  C  C218  1  0.483380  0.598980  0.789180  1.0
  C  C219  1  0.301700  0.496000  0.457600  1.0
  C  C220  1  0.457600  0.301700  0.496000  1.0
  C  C221  1  0.496000  0.457600  0.301700  1.0
  C  C222  1  0.698300  0.504000  0.542400  1.0
  C  C223  1  0.542400  0.698300  0.504000  1.0
  C  C224  1  0.504000  0.542400  0.698300  1.0
  C  C225  1  0.199450  0.506650  0.368450  1.0
  C  C226  1  0.368450  0.199450  0.506650  1.0
  C  C227  1  0.506650  0.368450  0.199450  1.0
  C  C228  1  0.800550  0.493350  0.631550  1.0
  C  C229  1  0.631550  0.800550  0.493350  1.0
  C  C230  1  0.493350  0.631550  0.800550  1.0
  C  C231  1  0.214650  0.477650  0.342950  1.0
  C  C232  1  0.342950  0.214650  0.477650  1.0
  C  C233  1  0.477650  0.342950  0.214650  1.0
  C  C234  1  0.785350  0.522350  0.657050  1.0
  C  C235  1  0.657050  0.785350  0.522350  1.0
  C  C236  1  0.522350  0.657050  0.785350  1.0
  C  C237  1  0.188960  0.481560  0.313760  1.0
  C  C238  1  0.313760  0.188960  0.481560  1.0
  C  C239  1  0.481560  0.313760  0.188960  1.0
  C  C240  1  0.811040  0.518440  0.686240  1.0
  C  C241  1  0.686240  0.811040  0.518440  1.0
  C  C242  1  0.518440  0.686240  0.811040  1.0
  C  C243  1  0.128900  0.530300  0.296700  1.0
  C  C244  1  0.296700  0.128900  0.530300  1.0
  C  C245  1  0.530300  0.296700  0.128900  1.0
  C  C246  1  0.871100  0.469700  0.703300  1.0
  C  C247  1  0.703300  0.871100  0.469700  1.0
  C  C248  1  0.469700  0.703300  0.871100  1.0
  C  C249  1  0.051000  0.549200  0.066200  1.0
  C  C250  1  0.066200  0.051000  0.549200  1.0
  C  C251  1  0.549200  0.066200  0.051000  1.0
  C  C252  1  0.949000  0.450800  0.933800  1.0
  C  C253  1  0.933800  0.949000  0.450800  1.0
  C  C254  1  0.450800  0.933800  0.949000  1.0
  C  C255  1  0.023900  0.571900  0.043000  1.0
  C  C256  1  0.043000  0.023900  0.571900  1.0
  C  C257  1  0.571900  0.043000  0.023900  1.0
  C  C258  1  0.976100  0.428100  0.957000  1.0
  C  C259  1  0.957000  0.976100  0.428100  1.0
  C  C260  1  0.428100  0.957000  0.976100  1.0
  C  C261  1  0.006580  0.609280  0.051680  1.0
  C  C262  1  0.051680  0.006580  0.609280  1.0
  C  C263  1  0.609280  0.051680  0.006580  1.0
  C  C264  1  0.993420  0.390720  0.948320  1.0
  C  C265  1  0.948320  0.993420  0.390720  1.0
  C  C266  1  0.390720  0.948320  0.993420  1.0
  C  C267  1  0.016260  0.623960  0.083660  1.0
  C  C268  1  0.083660  0.016260  0.623960  1.0
  C  C269  1  0.623960  0.083660  0.016260  1.0
  C  C270  1  0.983740  0.376040  0.916340  1.0
  C  C271  1  0.916340  0.983740  0.376040  1.0
  C  C272  1  0.376040  0.916340  0.983740  1.0
  C  C273  1  0.043350  0.601250  0.106850  1.0
  C  C274  1  0.106850  0.043350  0.601250  1.0
  C  C275  1  0.601250  0.106850  0.043350  1.0
  C  C276  1  0.956650  0.398750  0.893150  1.0
  C  C277  1  0.893150  0.956650  0.398750  1.0
  C  C278  1  0.398750  0.893150  0.956650  1.0
  C  C279  1  0.974500  0.633900  0.027400  1.0
  C  C280  1  0.027400  0.974500  0.633900  1.0
  C  C281  1  0.633900  0.027400  0.974500  1.0
  C  C282  1  0.025500  0.366100  0.972600  1.0
  C  C283  1  0.972600  0.025500  0.366100  1.0
  C  C284  1  0.366100  0.972600  0.025500  1.0
  C  C285  1  0.053860  0.611960  0.140560  1.0
  C  C286  1  0.140560  0.053860  0.611960  1.0
  C  C287  1  0.611960  0.140560  0.053860  1.0
  C  C288  1  0.946140  0.388040  0.859440  1.0
  C  C289  1  0.859440  0.946140  0.388040  1.0
  C  C290  1  0.388040  0.859440  0.946140  1.0
  C  C291  1  0.043070  0.647670  0.157670  1.0
  C  C292  1  0.157670  0.043070  0.647670  1.0
  C  C293  1  0.647670  0.157670  0.043070  1.0
  C  C294  1  0.956930  0.352330  0.842330  1.0
  C  C295  1  0.842330  0.956930  0.352330  1.0
  C  C296  1  0.352330  0.842330  0.956930  1.0
  C  C297  1  0.057370  0.641470  0.194870  1.0
  C  C298  1  0.194870  0.057370  0.641470  1.0
  C  C299  1  0.641470  0.194870  0.057370  1.0
  C  C300  1  0.942630  0.358530  0.805130  1.0
  C  C301  1  0.805130  0.942630  0.358530  1.0
  C  C302  1  0.358530  0.805130  0.942630  1.0
  C  C303  1  0.085400  0.577200  0.235400  1.0
  C  C304  1  0.235400  0.085400  0.577200  1.0
  C  C305  1  0.577200  0.235400  0.085400  1.0
  C  C306  1  0.914600  0.422800  0.764600  1.0
  C  C307  1  0.764600  0.914600  0.422800  1.0
  C  C308  1  0.422800  0.764600  0.914600  1.0
  C  C309  1  0.088860  0.510860  0.308660  1.0
  C  C310  1  0.308660  0.088860  0.510860  1.0
  C  C311  1  0.510860  0.308660  0.088860  1.0
  C  C312  1  0.911140  0.489140  0.691340  1.0
  C  C313  1  0.691340  0.911140  0.489140  1.0
  C  C314  1  0.489140  0.691340  0.911140  1.0
  C  C315  1  0.089810  0.481110  0.340910  1.0
  C  C316  1  0.340910  0.089810  0.481110  1.0
  C  C317  1  0.481110  0.340910  0.089810  1.0
  C  C318  1  0.910190  0.518890  0.659090  1.0
  C  C319  1  0.659090  0.910190  0.518890  1.0
  C  C320  1  0.518890  0.659090  0.910190  1.0
  C  C321  1  0.055620  0.464620  0.357420  1.0
  C  C322  1  0.357420  0.055620  0.464620  1.0
  C  C323  1  0.464620  0.357420  0.055620  1.0
  C  C324  1  0.944380  0.535380  0.642580  1.0
  C  C325  1  0.642580  0.944380  0.535380  1.0
  C  C326  1  0.535380  0.642580  0.944380  1.0
  C  C327  1  0.020490  0.478010  0.341570  1.0
  C  C328  1  0.341570  0.020490  0.478010  1.0
  C  C329  1  0.478010  0.341570  0.020490  1.0
  C  C330  1  0.979510  0.521990  0.658430  1.0
  C  C331  1  0.658430  0.979510  0.521990  1.0
  C  C332  1  0.521990  0.658430  0.979510  1.0
  C  C333  1  0.019530  0.507830  0.309260  1.0
  C  C334  1  0.309260  0.019530  0.507830  1.0
  C  C335  1  0.507830  0.309260  0.019530  1.0
  C  C336  1  0.980470  0.492170  0.690740  1.0
  C  C337  1  0.690740  0.980470  0.492170  1.0
  C  C338  1  0.492170  0.690740  0.980470  1.0
  C  C339  1  0.053760  0.524240  0.292790  1.0
  C  C340  1  0.292790  0.053760  0.524240  1.0
  C  C341  1  0.524240  0.292790  0.053760  1.0
  C  C342  1  0.946240  0.475760  0.707210  1.0
  C  C343  1  0.707210  0.946240  0.475760  1.0
  C  C344  1  0.475760  0.707210  0.946240  1.0
  C  C345  1  0.052880  0.553980  0.260480  1.0
  C  C346  1  0.260480  0.052880  0.553980  1.0
  C  C347  1  0.553980  0.260480  0.052880  1.0
  C  C348  1  0.947120  0.446020  0.739520  1.0
  C  C349  1  0.739520  0.947120  0.446020  1.0
  C  C350  1  0.446020  0.739520  0.947120  1.0
  C  C351  1  0.017750  0.567350  0.244650  1.0
  C  C352  1  0.244650  0.017750  0.567350  1.0
  C  C353  1  0.567350  0.244650  0.017750  1.0
  C  C354  1  0.982250  0.432650  0.755350  1.0
  C  C355  1  0.755350  0.982250  0.432650  1.0
  C  C356  1  0.432650  0.755350  0.982250  1.0
  C  C357  1  0.983460  0.550960  0.261160  1.0
  C  C358  1  0.261160  0.983460  0.550960  1.0
  C  C359  1  0.550960  0.261160  0.983460  1.0
  C  C360  1  0.016540  0.449040  0.738840  1.0
  C  C361  1  0.738840  0.016540  0.449040  1.0
  C  C362  1  0.449040  0.738840  0.016540  1.0
  C  C363  1  0.984410  0.521210  0.293410  1.0
  C  C364  1  0.293410  0.984410  0.521210  1.0
  C  C365  1  0.521210  0.293410  0.984410  1.0
  C  C366  1  0.015590  0.478790  0.706590  1.0
  C  C367  1  0.706590  0.015590  0.478790  1.0
  C  C368  1  0.478790  0.706590  0.015590  1.0
  C  C369  1  0.420780  0.647180  0.161480  1.0
  C  C370  1  0.161480  0.420780  0.647180  1.0
  C  C371  1  0.647180  0.161480  0.420780  1.0
  C  C372  1  0.579220  0.352820  0.838520  1.0
  C  C373  1  0.838520  0.579220  0.352820  1.0
  C  C374  1  0.352820  0.838520  0.579220  1.0
  C  C375  1  0.435300  0.683300  0.153200  1.0
  C  C376  1  0.153200  0.435300  0.683300  1.0
  C  C377  1  0.683300  0.153200  0.435300  1.0
  C  C378  1  0.564700  0.316700  0.846800  1.0
  C  C379  1  0.846800  0.564700  0.316700  1.0
  C  C380  1  0.316700  0.846800  0.564700  1.0
  C  C381  1  0.410330  0.717830  0.141930  1.0
  C  C382  1  0.141930  0.410330  0.717830  1.0
  C  C383  1  0.717830  0.141930  0.410330  1.0
  C  C384  1  0.589670  0.282170  0.858070  1.0
  C  C385  1  0.858070  0.589670  0.282170  1.0
  C  C386  1  0.282170  0.858070  0.589670  1.0
  C  C387  1  0.370950  0.715950  0.139150  1.0
  C  C388  1  0.139150  0.370950  0.715950  1.0
  C  C389  1  0.715950  0.139150  0.370950  1.0
  C  C390  1  0.629050  0.284050  0.860850  1.0
  C  C391  1  0.860850  0.629050  0.284050  1.0
  C  C392  1  0.284050  0.860850  0.629050  1.0
  C  C393  1  0.356430  0.679730  0.147530  1.0
  C  C394  1  0.147530  0.356430  0.679730  1.0
  C  C395  1  0.679730  0.147530  0.356430  1.0
  C  C396  1  0.643570  0.320270  0.852470  1.0
  C  C397  1  0.852470  0.643570  0.320270  1.0
  C  C398  1  0.320270  0.852470  0.643570  1.0
  C  C399  1  0.427800  0.758200  0.129900  1.0
  C  C400  1  0.129900  0.427800  0.758200  1.0
  C  C401  1  0.758200  0.129900  0.427800  1.0
  C  C402  1  0.572200  0.241800  0.870100  1.0
  C  C403  1  0.870100  0.572200  0.241800  1.0
  C  C404  1  0.241800  0.870100  0.572200  1.0
  C  C405  1  0.318170  0.674270  0.142770  1.0
  C  C406  1  0.142770  0.318170  0.674270  1.0
  C  C407  1  0.674270  0.142770  0.318170  1.0
  C  C408  1  0.681830  0.325730  0.857230  1.0
  C  C409  1  0.857230  0.681830  0.325730  1.0
  C  C410  1  0.325730  0.857230  0.681830  1.0
  C  C411  1  0.284200  0.700000  0.131300  1.0
  C  C412  1  0.131300  0.284200  0.700000  1.0
  C  C413  1  0.700000  0.131300  0.284200  1.0
  C  C414  1  0.715800  0.300000  0.868700  1.0
  C  C415  1  0.868700  0.715800  0.300000  1.0
  C  C416  1  0.300000  0.868700  0.715800  1.0
  C  C417  1  0.253540  0.676540  0.132740  1.0
  C  C418  1  0.132740  0.253540  0.676540  1.0
  C  C419  1  0.676540  0.132740  0.253540  1.0
  C  C420  1  0.746460  0.323460  0.867260  1.0
  C  C421  1  0.867260  0.746460  0.323460  1.0
  C  C422  1  0.323460  0.867260  0.746460  1.0
  C  C423  1  0.251600  0.602700  0.141800  1.0
  C  C424  1  0.141800  0.251600  0.602700  1.0
  C  C425  1  0.602700  0.141800  0.251600  1.0
  C  C426  1  0.748400  0.397300  0.858200  1.0
  C  C427  1  0.858200  0.748400  0.397300  1.0
  C  C428  1  0.397300  0.858200  0.748400  1.0
  C  C429  1  0.029840  0.494040  0.177440  1.0
  C  C430  1  0.177440  0.029840  0.494040  1.0
  C  C431  1  0.494040  0.177440  0.029840  1.0
  C  C432  1  0.970160  0.505960  0.822560  1.0
  C  C433  1  0.822560  0.970160  0.505960  1.0
  C  C434  1  0.505960  0.822560  0.970160  1.0
  C  C435  1  0.010360  0.468960  0.207060  1.0
  C  C436  1  0.207060  0.010360  0.468960  1.0
  C  C437  1  0.468960  0.207060  0.010360  1.0
  C  C438  1  0.989640  0.531040  0.792940  1.0
  C  C439  1  0.792940  0.989640  0.531040  1.0
  C  C440  1  0.531040  0.792940  0.989640  1.0
  C  C441  1  0.031350  0.444520  0.235080  1.0
  C  C442  1  0.235080  0.031350  0.444520  1.0
  C  C443  1  0.444520  0.235080  0.031350  1.0
  C  C444  1  0.968650  0.555480  0.764920  1.0
  C  C445  1  0.764920  0.968650  0.555480  1.0
  C  C446  1  0.555480  0.764920  0.968650  1.0
  C  C447  1  0.071730  0.445330  0.233430  1.0
  C  C448  1  0.233430  0.071730  0.445330  1.0
  C  C449  1  0.445330  0.233430  0.071730  1.0
  C  C450  1  0.928270  0.554670  0.766570  1.0
  C  C451  1  0.766570  0.928270  0.554670  1.0
  C  C452  1  0.554670  0.766570  0.928270  1.0
  C  C453  1  0.091210  0.470410  0.203810  1.0
  C  C454  1  0.203810  0.091210  0.470410  1.0
  C  C455  1  0.470410  0.203810  0.091210  1.0
  C  C456  1  0.908790  0.529590  0.796190  1.0
  C  C457  1  0.796190  0.908790  0.529590  1.0
  C  C458  1  0.529590  0.796190  0.908790  1.0
  C  C459  1  0.010000  0.418600  0.269000  1.0
  C  C460  1  0.269000  0.010000  0.418600  1.0
  C  C461  1  0.418600  0.269000  0.010000  1.0
  C  C462  1  0.990000  0.581400  0.731000  1.0
  C  C463  1  0.731000  0.990000  0.581400  1.0
  C  C464  1  0.581400  0.731000  0.990000  1.0
  C  C465  1  0.130080  0.475180  0.201780  1.0
  C  C466  1  0.201780  0.130080  0.475180  1.0
  C  C467  1  0.475180  0.201780  0.130080  1.0
  C  C468  1  0.869920  0.524820  0.798220  1.0
  C  C469  1  0.798220  0.869920  0.524820  1.0
  C  C470  1  0.524820  0.798220  0.869920  1.0
  C  C471  1  0.160850  0.452850  0.222050  1.0
  C  C472  1  0.222050  0.160850  0.452850  1.0
  C  C473  1  0.452850  0.222050  0.160850  1.0
  C  C474  1  0.839150  0.547150  0.777950  1.0
  C  C475  1  0.777950  0.839150  0.547150  1.0
  C  C476  1  0.547150  0.777950  0.839150  1.0
  C  C477  1  0.195690  0.471090  0.209290  1.0
  C  C478  1  0.209290  0.195690  0.471090  1.0
  C  C479  1  0.471090  0.209290  0.195690  1.0
  C  C480  1  0.804310  0.528910  0.790710  1.0
  C  C481  1  0.790710  0.804310  0.528910  1.0
  C  C482  1  0.528910  0.790710  0.804310  1.0
  C  C483  1  0.210900  0.531900  0.162400  1.0
  C  C484  1  0.162400  0.210900  0.531900  1.0
  C  C485  1  0.531900  0.162400  0.210900  1.0
  C  C486  1  0.789100  0.468100  0.837600  1.0
  C  C487  1  0.837600  0.789100  0.468100  1.0
  C  C488  1  0.468100  0.837600  0.789100  1.0
  C  C489  1  0.263600  0.586400  0.101700  1.0
  C  C490  1  0.101700  0.263600  0.586400  1.0
  C  C491  1  0.586400  0.101700  0.263600  1.0
  C  C492  1  0.736400  0.413600  0.898300  1.0
  C  C493  1  0.898300  0.736400  0.413600  1.0
  C  C494  1  0.413600  0.898300  0.736400  1.0
  C  C495  1  0.285870  0.610670  0.073670  1.0
  C  C496  1  0.073670  0.285870  0.610670  1.0
  C  C497  1  0.610670  0.073670  0.285870  1.0
  C  C498  1  0.714130  0.389330  0.926330  1.0
  C  C499  1  0.926330  0.714130  0.389330  1.0
  C  C500  1  0.389330  0.926330  0.714130  1.0
  C  C501  1  0.301970  0.598490  0.037350  1.0
  C  C502  1  0.037350  0.301970  0.598490  1.0
  C  C503  1  0.598490  0.037350  0.301970  1.0
  C  C504  1  0.698030  0.401510  0.962650  1.0
  C  C505  1  0.962650  0.698030  0.401510  1.0
  C  C506  1  0.401510  0.962650  0.698030  1.0
  C  C507  1  0.296000  0.561910  0.028990  1.0
  C  C508  1  0.028990  0.296000  0.561910  1.0
  C  C509  1  0.561910  0.028990  0.296000  1.0
  C  C510  1  0.704000  0.438090  0.971010  1.0
  C  C511  1  0.971010  0.704000  0.438090  1.0
  C  C512  1  0.438090  0.971010  0.704000  1.0
  C  C513  1  0.273790  0.537600  0.057000  1.0
  C  C514  1  0.057000  0.273790  0.537600  1.0
  C  C515  1  0.537600  0.057000  0.273790  1.0
  C  C516  1  0.726210  0.462400  0.943000  1.0
  C  C517  1  0.943000  0.726210  0.462400  1.0
  C  C518  1  0.462400  0.943000  0.726210  1.0
  C  C519  1  0.257610  0.549820  0.093360  1.0
  C  C520  1  0.093360  0.257610  0.549820  1.0
  C  C521  1  0.549820  0.093360  0.257610  1.0
  C  C522  1  0.742390  0.450180  0.906640  1.0
  C  C523  1  0.906640  0.742390  0.450180  1.0
  C  C524  1  0.450180  0.906640  0.742390  1.0
  C  C525  1  0.235460  0.525450  0.121370  1.0
  C  C526  1  0.121370  0.235460  0.525450  1.0
  C  C527  1  0.525450  0.121370  0.235460  1.0
  C  C528  1  0.764540  0.474550  0.878630  1.0
  C  C529  1  0.878630  0.764540  0.474550  1.0
  C  C530  1  0.474550  0.878630  0.764540  1.0
  C  C531  1  0.229390  0.488970  0.113010  1.0
  C  C532  1  0.113010  0.229390  0.488970  1.0
  C  C533  1  0.488970  0.113010  0.229390  1.0
  C  C534  1  0.770610  0.511030  0.886990  1.0
  C  C535  1  0.886990  0.770610  0.511030  1.0
  C  C536  1  0.511030  0.886990  0.770610  1.0
  C  C537  1  0.245590  0.476690  0.076690  1.0
  C  C538  1  0.076690  0.245590  0.476690  1.0
  C  C539  1  0.476690  0.076690  0.245590  1.0
  C  C540  1  0.754410  0.523310  0.923310  1.0
  C  C541  1  0.923310  0.754410  0.523310  1.0
  C  C542  1  0.523310  0.923310  0.754410  1.0
  C  C543  1  0.267760  0.501060  0.048660  1.0
  C  C544  1  0.048660  0.267760  0.501060  1.0
  C  C545  1  0.501060  0.048660  0.267760  1.0
  C  C546  1  0.732240  0.498940  0.951340  1.0
  C  C547  1  0.951340  0.732240  0.498940  1.0
  C  C548  1  0.498940  0.951340  0.732240  1.0
  C  C549  1  0.149380  0.610080  0.105480  1.0
  C  C550  1  0.105480  0.149380  0.610080  1.0
  C  C551  1  0.610080  0.105480  0.149380  1.0
  C  C552  1  0.850620  0.389920  0.894520  1.0
  C  C553  1  0.894520  0.850620  0.389920  1.0
  C  C554  1  0.389920  0.894520  0.850620  1.0
  C  C555  1  0.170810  0.634010  0.076110  1.0
  C  C556  1  0.076110  0.170810  0.634010  1.0
  C  C557  1  0.634010  0.076110  0.170810  1.0
  C  C558  1  0.829190  0.365990  0.923890  1.0
  C  C559  1  0.923890  0.829190  0.365990  1.0
  C  C560  1  0.365990  0.923890  0.829190  1.0
  C  C561  1  0.184890  0.621390  0.039490  1.0
  C  C562  1  0.039490  0.184890  0.621390  1.0
  C  C563  1  0.621390  0.039490  0.184890  1.0
  C  C564  1  0.815110  0.378610  0.960510  1.0
  C  C565  1  0.960510  0.815110  0.378610  1.0
  C  C566  1  0.378610  0.960510  0.815110  1.0
  C  C567  1  0.177550  0.584950  0.032150  1.0
  C  C568  1  0.032150  0.177550  0.584950  1.0
  C  C569  1  0.584950  0.032150  0.177550  1.0
  C  C570  1  0.822450  0.415050  0.967850  1.0
  C  C571  1  0.967850  0.822450  0.415050  1.0
  C  C572  1  0.415050  0.967850  0.822450  1.0
  C  C573  1  0.156120  0.561120  0.061420  1.0
  C  C574  1  0.061420  0.156120  0.561120  1.0
  C  C575  1  0.561120  0.061420  0.156120  1.0
  C  C576  1  0.843880  0.438880  0.938580  1.0
  C  C577  1  0.938580  0.843880  0.438880  1.0
  C  C578  1  0.438880  0.938580  0.843880  1.0
  C  C579  1  0.207700  0.649300  0.005600  1.0
  C  C580  1  0.005600  0.207700  0.649300  1.0
  C  C581  1  0.649300  0.005600  0.207700  1.0
  C  C582  1  0.792300  0.350700  0.994400  1.0
  C  C583  1  0.994400  0.792300  0.350700  1.0
  C  C584  1  0.350700  0.994400  0.792300  1.0
  C  C585  1  0.148400  0.524100  0.057800  1.0
  C  C586  1  0.057800  0.148400  0.524100  1.0
  C  C587  1  0.524100  0.057800  0.148400  1.0
  C  C588  1  0.851600  0.475900  0.942200  1.0
  C  C589  1  0.942200  0.851600  0.475900  1.0
  C  C590  1  0.475900  0.942200  0.851600  1.0
  C  C591  1  0.157800  0.501600  0.025600  1.0
  C  C592  1  0.025600  0.157800  0.501600  1.0
  C  C593  1  0.501600  0.025600  0.157800  1.0
  C  C594  1  0.842200  0.498400  0.974400  1.0
  C  C595  1  0.974400  0.842200  0.498400  1.0
  C  C596  1  0.498400  0.974400  0.842200  1.0
  C  C597  1  0.143710  0.464510  0.038410  1.0
  C  C598  1  0.038410  0.143710  0.464510  1.0
  C  C599  1  0.464510  0.038410  0.143710  1.0
  C  C600  1  0.856290  0.535490  0.961590  1.0
  C  C601  1  0.961590  0.856290  0.535490  1.0
  C  C602  1  0.535490  0.961590  0.856290  1.0
  C  C603  1  0.109200  0.432500  0.105500  1.0
  C  C604  1  0.105500  0.109200  0.432500  1.0
  C  C605  1  0.432500  0.105500  0.109200  1.0
  C  C606  1  0.890800  0.567500  0.894500  1.0
  C  C607  1  0.894500  0.890800  0.567500  1.0
  C  C608  1  0.567500  0.894500  0.890800  1.0
  C  C609  1  0.001900  0.209900  0.137800  1.0
  C  C610  1  0.137800  0.001900  0.209900  1.0
  C  C611  1  0.209900  0.137800  0.001900  1.0
  C  C612  1  0.998100  0.790100  0.862200  1.0
  C  C613  1  0.862200  0.998100  0.790100  1.0
  C  C614  1  0.790100  0.862200  0.998100  1.0
  C  C615  1  0.970100  0.191300  0.157900  1.0
  C  C616  1  0.157900  0.970100  0.191300  1.0
  C  C617  1  0.191300  0.157900  0.970100  1.0
  C  C618  1  0.029900  0.808700  0.842100  1.0
  C  C619  1  0.842100  0.029900  0.808700  1.0
  C  C620  1  0.808700  0.842100  0.029900  1.0
  C  C621  1  0.941660  0.210960  0.183960  1.0
  C  C622  1  0.183960  0.941660  0.210960  1.0
  C  C623  1  0.210960  0.183960  0.941660  1.0
  C  C624  1  0.058340  0.789040  0.816040  1.0
  C  C625  1  0.816040  0.058340  0.789040  1.0
  C  C626  1  0.789040  0.816040  0.058340  1.0
  C  C627  1  0.945000  0.249100  0.190000  1.0
  C  C628  1  0.190000  0.945000  0.249100  1.0
  C  C629  1  0.249100  0.190000  0.945000  1.0
  C  C630  1  0.055000  0.750900  0.810000  1.0
  C  C631  1  0.810000  0.055000  0.750900  1.0
  C  C632  1  0.750900  0.810000  0.055000  1.0
  C  C633  1  0.976770  0.267670  0.169870  1.0
  C  C634  1  0.169870  0.976770  0.267670  1.0
  C  C635  1  0.267670  0.169870  0.976770  1.0
  C  C636  1  0.023230  0.732330  0.830130  1.0
  C  C637  1  0.830130  0.023230  0.732330  1.0
  C  C638  1  0.732330  0.830130  0.023230  1.0
  C  C639  1  0.906400  0.189200  0.206600  1.0
  C  C640  1  0.206600  0.906400  0.189200  1.0
  C  C641  1  0.189200  0.206600  0.906400  1.0
  C  C642  1  0.093600  0.810800  0.793400  1.0
  C  C643  1  0.793400  0.093600  0.810800  1.0
  C  C644  1  0.810800  0.793400  0.093600  1.0
  C  C645  1  0.984540  0.304440  0.169940  1.0
  C  C646  1  0.169940  0.984540  0.304440  1.0
  C  C647  1  0.304440  0.169940  0.984540  1.0
  C  C648  1  0.015460  0.695560  0.830060  1.0
  C  C649  1  0.830060  0.015460  0.695560  1.0
  C  C650  1  0.695560  0.830060  0.015460  1.0
  C  C651  1  0.961000  0.335400  0.189100  1.0
  C  C652  1  0.189100  0.961000  0.335400  1.0
  C  C653  1  0.335400  0.189100  0.961000  1.0
  C  C654  1  0.039000  0.664600  0.810900  1.0
  C  C655  1  0.810900  0.039000  0.664600  1.0
  C  C656  1  0.664600  0.810900  0.039000  1.0
  C  C657  1  0.982500  0.368200  0.182500  1.0
  C  C658  1  0.182500  0.982500  0.368200  1.0
  C  C659  1  0.368200  0.182500  0.982500  1.0
  C  C660  1  0.017500  0.631800  0.817500  1.0
  C  C661  1  0.817500  0.017500  0.631800  1.0
  C  C662  1  0.631800  0.817500  0.017500  1.0
  C  C663  1  0.049000  0.378400  0.148400  1.0
  C  C664  1  0.148400  0.049000  0.378400  1.0
  C  C665  1  0.378400  0.148400  0.049000  1.0
  C  C666  1  0.951000  0.621600  0.851600  1.0
  C  C667  1  0.851600  0.951000  0.621600  1.0
  C  C668  1  0.621600  0.851600  0.951000  1.0
  C  C669  1  0.133490  0.401990  0.127890  1.0
  C  C670  1  0.127890  0.133490  0.401990  1.0
  C  C671  1  0.401990  0.127890  0.133490  1.0
  C  C672  1  0.866510  0.598010  0.872110  1.0
  C  C673  1  0.872110  0.866510  0.598010  1.0
  C  C674  1  0.598010  0.872110  0.866510  1.0
  C  C675  1  0.172580  0.408780  0.116480  1.0
  C  C676  1  0.116480  0.172580  0.408780  1.0
  C  C677  1  0.408780  0.116480  0.172580  1.0
  C  C678  1  0.827420  0.591220  0.883520  1.0
  C  C679  1  0.883520  0.827420  0.591220  1.0
  C  C680  1  0.591220  0.883520  0.827420  1.0
  C  C681  1  0.201050  0.392650  0.140950  1.0
  C  C682  1  0.140950  0.201050  0.392650  1.0
  C  C683  1  0.392650  0.140950  0.201050  1.0
  C  C684  1  0.798950  0.607350  0.859050  1.0
  C  C685  1  0.859050  0.798950  0.607350  1.0
  C  C686  1  0.607350  0.859050  0.798950  1.0
  C  C687  1  0.190420  0.369620  0.176920  1.0
  C  C688  1  0.176920  0.190420  0.369620  1.0
  C  C689  1  0.369620  0.176920  0.190420  1.0
  C  C690  1  0.809580  0.630380  0.823080  1.0
  C  C691  1  0.823080  0.809580  0.630380  1.0
  C  C692  1  0.630380  0.823080  0.809580  1.0
  C  C693  1  0.151330  0.362830  0.188330  1.0
  C  C694  1  0.188330  0.151330  0.362830  1.0
  C  C695  1  0.362830  0.188330  0.151330  1.0
  C  C696  1  0.848670  0.637170  0.811670  1.0
  C  C697  1  0.811670  0.848670  0.637170  1.0
  C  C698  1  0.637170  0.811670  0.848670  1.0
  C  C699  1  0.122870  0.379070  0.163770  1.0
  C  C700  1  0.163770  0.122870  0.379070  1.0
  C  C701  1  0.379070  0.163770  0.122870  1.0
  C  C702  1  0.877130  0.620930  0.836230  1.0
  C  C703  1  0.836230  0.877130  0.620930  1.0
  C  C704  1  0.620930  0.836230  0.877130  1.0
  C  C705  1  0.083680  0.372280  0.175280  1.0
  C  C706  1  0.175280  0.083680  0.372280  1.0
  C  C707  1  0.372280  0.175280  0.083680  1.0
  C  C708  1  0.916320  0.627720  0.824720  1.0
  C  C709  1  0.824720  0.916320  0.627720  1.0
  C  C710  1  0.627720  0.824720  0.916320  1.0
  C  C711  1  0.073050  0.349317  0.211183  1.0
  C  C712  1  0.211183  0.073050  0.349317  1.0
  C  C713  1  0.349317  0.211183  0.073050  1.0
  C  C714  1  0.926950  0.650683  0.788817  1.0
  C  C715  1  0.788817  0.926950  0.650683  1.0
  C  C716  1  0.650683  0.788817  0.926950  1.0
  C  C717  1  0.101520  0.333120  0.235720  1.0
  C  C718  1  0.235720  0.101520  0.333120  1.0
  C  C719  1  0.333120  0.235720  0.101520  1.0
  C  C720  1  0.898480  0.666880  0.764280  1.0
  C  C721  1  0.764280  0.898480  0.666880  1.0
  C  C722  1  0.666880  0.764280  0.898480  1.0
  C  C723  1  0.140710  0.339810  0.224310  1.0
  C  C724  1  0.224310  0.140710  0.339810  1.0
  C  C725  1  0.339810  0.224310  0.140710  1.0
  C  C726  1  0.859290  0.660190  0.775690  1.0
  C  C727  1  0.775690  0.859290  0.660190  1.0
  C  C728  1  0.660190  0.775690  0.859290  1.0
  C  C729  1  0.076590  0.617690  0.336290  1.0
  C  C730  1  0.336290  0.076590  0.617690  1.0
  C  C731  1  0.617690  0.336290  0.076590  1.0
  C  C732  1  0.923410  0.382310  0.663710  1.0
  C  C733  1  0.663710  0.923410  0.382310  1.0
  C  C734  1  0.382310  0.663710  0.923410  1.0
  C  C735  1  0.039850  0.628740  0.323160  1.0
  C  C736  1  0.323160  0.039850  0.628740  1.0
  C  C737  1  0.628740  0.323160  0.039850  1.0
  C  C738  1  0.960150  0.371260  0.676840  1.0
  C  C739  1  0.676840  0.960150  0.371260  1.0
  C  C740  1  0.371260  0.676840  0.960150  1.0
  C  C741  1  0.007810  0.609610  0.341510  1.0
  C  C742  1  0.341510  0.007810  0.609610  1.0
  C  C743  1  0.609610  0.341510  0.007810  1.0
  C  C744  1  0.992190  0.390390  0.658490  1.0
  C  C745  1  0.658490  0.992190  0.390390  1.0
  C  C746  1  0.390390  0.658490  0.992190  1.0
  C  C747  1  0.012510  0.579410  0.373010  1.0
  C  C748  1  0.373010  0.012510  0.579410  1.0
  C  C749  1  0.579410  0.373010  0.012510  1.0
  C  C750  1  0.987490  0.420590  0.626990  1.0
  C  C751  1  0.626990  0.987490  0.420590  1.0
  C  C752  1  0.420590  0.626990  0.987490  1.0
  C  C753  1  0.049350  0.568300  0.386100  1.0
  C  C754  1  0.386100  0.049350  0.568300  1.0
  C  C755  1  0.568300  0.386100  0.049350  1.0
  C  C756  1  0.950650  0.431700  0.613900  1.0
  C  C757  1  0.613900  0.950650  0.431700  1.0
  C  C758  1  0.431700  0.613900  0.950650  1.0
  C  C759  1  0.967300  0.622500  0.327700  1.0
  C  C760  1  0.327700  0.967300  0.622500  1.0
  C  C761  1  0.622500  0.327700  0.967300  1.0
  C  C762  1  0.032700  0.377500  0.672300  1.0
  C  C763  1  0.672300  0.032700  0.377500  1.0
  C  C764  1  0.377500  0.672300  0.032700  1.0
  C  C765  1  0.055520  0.539120  0.415920  1.0
  C  C766  1  0.415920  0.055520  0.539120  1.0
  C  C767  1  0.539120  0.415920  0.055520  1.0
  C  C768  1  0.944480  0.460880  0.584080  1.0
  C  C769  1  0.584080  0.944480  0.460880  1.0
  C  C770  1  0.460880  0.584080  0.944480  1.0
  C  C771  1  0.029980  0.516380  0.443680  1.0
  C  C772  1  0.443680  0.029980  0.516380  1.0
  C  C773  1  0.516380  0.443680  0.029980  1.0
  C  C774  1  0.970020  0.483620  0.556320  1.0
  C  C775  1  0.556320  0.970020  0.483620  1.0
  C  C776  1  0.483620  0.556320  0.970020  1.0
  C  C777  1  0.053220  0.491300  0.470540  1.0
  C  C778  1  0.470540  0.053220  0.491300  1.0
  C  C779  1  0.491300  0.470540  0.053220  1.0
  C  C780  1  0.946780  0.508700  0.529460  1.0
  C  C781  1  0.529460  0.946780  0.508700  1.0
  C  C782  1  0.508700  0.529460  0.946780  1.0
  C  C783  1  0.127500  0.475400  0.473000  1.0
  C  C784  1  0.473000  0.127500  0.475400  1.0
  C  C785  1  0.475400  0.473000  0.127500  1.0
  C  C786  1  0.872500  0.524600  0.527000  1.0
  C  C787  1  0.527000  0.872500  0.524600  1.0
  C  C788  1  0.524600  0.527000  0.872500  1.0
  C  C789  1  0.251500  0.393300  0.596100  1.0
  C  C790  1  0.596100  0.251500  0.393300  1.0
  C  C791  1  0.393300  0.596100  0.251500  1.0
  C  C792  1  0.748500  0.606700  0.403900  1.0
  C  C793  1  0.403900  0.748500  0.606700  1.0
  C  C794  1  0.606700  0.403900  0.748500  1.0
  C  C795  1  0.264960  0.430960  0.587760  1.0
  C  C796  1  0.587760  0.264960  0.430960  1.0
  C  C797  1  0.430960  0.587760  0.264960  1.0
  C  C798  1  0.735040  0.569040  0.412240  1.0
  C  C799  1  0.412240  0.735040  0.569040  1.0
  C  C800  1  0.569040  0.412240  0.735040  1.0
  C  C801  1  0.242950  0.454950  0.559050  1.0
  C  C802  1  0.559050  0.242950  0.454950  1.0
  C  C803  1  0.454950  0.559050  0.242950  1.0
  C  C804  1  0.757050  0.545050  0.440950  1.0
  C  C805  1  0.440950  0.757050  0.545050  1.0
  C  C806  1  0.545050  0.440950  0.757050  1.0
  C  C807  1  0.191700  0.441200  0.519800  1.0
  C  C808  1  0.519800  0.191700  0.441200  1.0
  C  C809  1  0.441200  0.519800  0.191700  1.0
  C  C810  1  0.808300  0.558800  0.480200  1.0
  C  C811  1  0.480200  0.808300  0.558800  1.0
  C  C812  1  0.558800  0.480200  0.808300  1.0
  C  C813  1  0.146850  0.437630  0.453440  1.0
  C  C814  1  0.453440  0.146850  0.437630  1.0
  C  C815  1  0.437630  0.453440  0.146850  1.0
  C  C816  1  0.853150  0.562370  0.546560  1.0
  C  C817  1  0.546560  0.853150  0.562370  1.0
  C  C818  1  0.562370  0.546560  0.853150  1.0
  C  C819  1  0.124570  0.429670  0.426170  1.0
  C  C820  1  0.426170  0.124570  0.429670  1.0
  C  C821  1  0.429670  0.426170  0.124570  1.0
  C  C822  1  0.875430  0.570330  0.573830  1.0
  C  C823  1  0.573830  0.875430  0.570330  1.0
  C  C824  1  0.570330  0.573830  0.875430  1.0
  C  C825  1  0.142290  0.406290  0.397090  1.0
  C  C826  1  0.397090  0.142290  0.406290  1.0
  C  C827  1  0.406290  0.397090  0.142290  1.0
  C  C828  1  0.857710  0.593710  0.602910  1.0
  C  C829  1  0.602910  0.857710  0.593710  1.0
  C  C830  1  0.593710  0.602910  0.857710  1.0
  C  C831  1  0.182170  0.390870  0.395370  1.0
  C  C832  1  0.395370  0.182170  0.390870  1.0
  C  C833  1  0.390870  0.395370  0.182170  1.0
  C  C834  1  0.817830  0.609130  0.604630  1.0
  C  C835  1  0.604630  0.817830  0.609130  1.0
  C  C836  1  0.609130  0.604630  0.817830  1.0
  C  C837  1  0.204450  0.398790  0.422680  1.0
  C  C838  1  0.422680  0.204450  0.398790  1.0
  C  C839  1  0.398790  0.422680  0.204450  1.0
  C  C840  1  0.795550  0.601210  0.577320  1.0
  C  C841  1  0.577320  0.795550  0.601210  1.0
  C  C842  1  0.601210  0.577320  0.795550  1.0
  C  C843  1  0.186770  0.422190  0.451730  1.0
  C  C844  1  0.451730  0.186770  0.422190  1.0
  C  C845  1  0.422190  0.451730  0.186770  1.0
  C  C846  1  0.813230  0.577810  0.548270  1.0
  C  C847  1  0.548270  0.813230  0.577810  1.0
  C  C848  1  0.577810  0.548270  0.813230  1.0
  C  C849  1  0.209000  0.430100  0.479100  1.0
  C  C850  1  0.479100  0.209000  0.430100  1.0
  C  C851  1  0.430100  0.479100  0.209000  1.0
  C  C852  1  0.791000  0.569900  0.520900  1.0
  C  C853  1  0.520900  0.791000  0.569900  1.0
  C  C854  1  0.569900  0.520900  0.791000  1.0
  C  C855  1  0.248880  0.414780  0.477280  1.0
  C  C856  1  0.477280  0.248880  0.414780  1.0
  C  C857  1  0.414780  0.477280  0.248880  1.0
  C  C858  1  0.751120  0.585220  0.522720  1.0
  C  C859  1  0.522720  0.751120  0.585220  1.0
  C  C860  1  0.585220  0.522720  0.751120  1.0
  C  C861  1  0.266600  0.391300  0.448300  1.0
  C  C862  1  0.448300  0.266600  0.391300  1.0
  C  C863  1  0.391300  0.448300  0.266600  1.0
  C  C864  1  0.733400  0.608700  0.551700  1.0
  C  C865  1  0.551700  0.733400  0.608700  1.0
  C  C866  1  0.608700  0.551700  0.733400  1.0
  C  C867  1  0.244370  0.383390  0.420930  1.0
  C  C868  1  0.420930  0.244370  0.383390  1.0
  C  C869  1  0.383390  0.420930  0.244370  1.0
  C  C870  1  0.755630  0.616610  0.579070  1.0
  C  C871  1  0.579070  0.755630  0.616610  1.0
  C  C872  1  0.616610  0.579070  0.755630  1.0
  C  C873  1  0.090750  0.341450  0.043550  1.0
  C  C874  1  0.043550  0.090750  0.341450  1.0
  C  C875  1  0.341450  0.043550  0.090750  1.0
  C  C876  1  0.909250  0.658550  0.956450  1.0
  C  C877  1  0.956450  0.909250  0.658550  1.0
  C  C878  1  0.658550  0.956450  0.909250  1.0
  C  C879  1  0.123430  0.359030  0.024130  1.0
  C  C880  1  0.024130  0.123430  0.359030  1.0
  C  C881  1  0.359030  0.024130  0.123430  1.0
  C  C882  1  0.876570  0.640970  0.975870  1.0
  C  C883  1  0.975870  0.876570  0.640970  1.0
  C  C884  1  0.640970  0.975870  0.876570  1.0
  C  C885  1  0.158620  0.351920  0.040420  1.0
  C  C886  1  0.040420  0.158620  0.351920  1.0
  C  C887  1  0.351920  0.040420  0.158620  1.0
  C  C888  1  0.841380  0.648080  0.959580  1.0
  C  C889  1  0.959580  0.841380  0.648080  1.0
  C  C890  1  0.648080  0.959580  0.841380  1.0
  C  C891  1  0.161240  0.327140  0.076140  1.0
  C  C892  1  0.076140  0.161240  0.327140  1.0
  C  C893  1  0.327140  0.076140  0.161240  1.0
  C  C894  1  0.838760  0.672860  0.923860  1.0
  C  C895  1  0.923860  0.838760  0.672860  1.0
  C  C896  1  0.672860  0.923860  0.838760  1.0
  C  C897  1  0.128660  0.309460  0.095560  1.0
  C  C898  1  0.095560  0.128660  0.309460  1.0
  C  C899  1  0.309460  0.095560  0.128660  1.0
  C  C900  1  0.871340  0.690540  0.904440  1.0
  C  C901  1  0.904440  0.871340  0.690540  1.0
  C  C902  1  0.690540  0.904440  0.871340  1.0
  C  C903  1  0.194400  0.372500  0.020000  1.0
  C  C904  1  0.020000  0.194400  0.372500  1.0
  C  C905  1  0.372500  0.020000  0.194400  1.0
  C  C906  1  0.805600  0.627500  0.980000  1.0
  C  C907  1  0.980000  0.805600  0.627500  1.0
  C  C908  1  0.627500  0.980000  0.805600  1.0
  C  C909  1  0.131620  0.281220  0.127920  1.0
  C  C910  1  0.127920  0.131620  0.281220  1.0
  C  C911  1  0.281220  0.127920  0.131620  1.0
  C  C912  1  0.868380  0.718780  0.872080  1.0
  C  C913  1  0.872080  0.868380  0.718780  1.0
  C  C914  1  0.718780  0.872080  0.868380  1.0
  C  C915  1  0.158140  0.269540  0.156640  1.0
  C  C916  1  0.156640  0.158140  0.269540  1.0
  C  C917  1  0.269540  0.156640  0.158140  1.0
  C  C918  1  0.841860  0.730460  0.843360  1.0
  C  C919  1  0.843360  0.841860  0.730460  1.0
  C  C920  1  0.730460  0.843360  0.841860  1.0
  C  C921  1  0.143280  0.238780  0.184680  1.0
  C  C922  1  0.184680  0.143280  0.238780  1.0
  C  C923  1  0.238780  0.184680  0.143280  1.0
  C  C924  1  0.856720  0.761220  0.815320  1.0
  C  C925  1  0.815320  0.856720  0.761220  1.0
  C  C926  1  0.761220  0.815320  0.856720  1.0
  C  C927  1  0.083300  0.201500  0.190800  1.0
  C  C928  1  0.190800  0.083300  0.201500  1.0
  C  C929  1  0.201500  0.190800  0.083300  1.0
  C  C930  1  0.916700  0.798500  0.809200  1.0
  C  C931  1  0.809200  0.916700  0.798500  1.0
  C  C932  1  0.798500  0.809200  0.916700  1.0
  C  C933  1  0.052500  0.126100  0.213000  1.0
  C  C934  1  0.213000  0.052500  0.126100  1.0
  C  C935  1  0.126100  0.213000  0.052500  1.0
  C  C936  1  0.947500  0.873900  0.787000  1.0
  C  C937  1  0.787000  0.947500  0.873900  1.0
  C  C938  1  0.873900  0.787000  0.947500  1.0
  C  C939  1  0.050860  0.212770  0.226400  1.0
  C  C940  1  0.226400  0.050860  0.212770  1.0
  C  C941  1  0.212770  0.226400  0.050860  1.0
  C  C942  1  0.949140  0.787230  0.773600  1.0
  C  C943  1  0.773600  0.949140  0.787230  1.0
  C  C944  1  0.787230  0.773600  0.949140  1.0
  C  C945  1  0.050240  0.251440  0.233440  1.0
  C  C946  1  0.233440  0.050240  0.251440  1.0
  C  C947  1  0.251440  0.233440  0.050240  1.0
  C  C948  1  0.949760  0.748560  0.766560  1.0
  C  C949  1  0.766560  0.949760  0.748560  1.0
  C  C950  1  0.748560  0.766560  0.949760  1.0
  C  C951  1  0.019610  0.268410  0.259610  1.0
  C  C952  1  0.259610  0.019610  0.268410  1.0
  C  C953  1  0.268410  0.259610  0.019610  1.0
  C  C954  1  0.980390  0.731590  0.740390  1.0
  C  C955  1  0.740390  0.980390  0.731590  1.0
  C  C956  1  0.731590  0.740390  0.980390  1.0
  C  C957  1  0.989730  0.246670  0.278650  1.0
  C  C958  1  0.278650  0.989730  0.246670  1.0
  C  C959  1  0.246670  0.278650  0.989730  1.0
  C  C960  1  0.010270  0.753330  0.721350  1.0
  C  C961  1  0.721350  0.010270  0.753330  1.0
  C  C962  1  0.753330  0.721350  0.010270  1.0
  C  C963  1  0.990380  0.207980  0.271600  1.0
  C  C964  1  0.271600  0.990380  0.207980  1.0
  C  C965  1  0.207980  0.271600  0.990380  1.0
  C  C966  1  0.009620  0.792020  0.728400  1.0
  C  C967  1  0.728400  0.009620  0.792020  1.0
  C  C968  1  0.792020  0.728400  0.009620  1.0
  C  C969  1  0.020940  0.191040  0.245470  1.0
  C  C970  1  0.245470  0.020940  0.191040  1.0
  C  C971  1  0.191040  0.245470  0.020940  1.0
  C  C972  1  0.979060  0.808960  0.754530  1.0
  C  C973  1  0.754530  0.979060  0.808960  1.0
  C  C974  1  0.808960  0.754530  0.979060  1.0
  C  C975  1  0.021620  0.152320  0.238420  1.0
  C  C976  1  0.238420  0.021620  0.152320  1.0
  C  C977  1  0.152320  0.238420  0.021620  1.0
  C  C978  1  0.978380  0.847680  0.761580  1.0
  C  C979  1  0.761580  0.978380  0.847680  1.0
  C  C980  1  0.847680  0.761580  0.978380  1.0
  C  C981  1  0.991650  0.130650  0.257450  1.0
  C  C982  1  0.257450  0.991650  0.130650  1.0
  C  C983  1  0.130650  0.257450  0.991650  1.0
  C  C984  1  0.008350  0.869350  0.742550  1.0
  C  C985  1  0.742550  0.008350  0.869350  1.0
  C  C986  1  0.869350  0.742550  0.008350  1.0
  C  C987  1  0.961120  0.147520  0.283620  1.0
  C  C988  1  0.283620  0.961120  0.147520  1.0
  C  C989  1  0.147520  0.283620  0.961120  1.0
  C  C990  1  0.038880  0.852480  0.716380  1.0
  C  C991  1  0.716380  0.038880  0.852480  1.0
  C  C992  1  0.852480  0.716380  0.038880  1.0
  C  C993  1  0.960450  0.186240  0.290660  1.0
  C  C994  1  0.290660  0.960450  0.186240  1.0
  C  C995  1  0.186240  0.290660  0.960450  1.0
  C  C996  1  0.039550  0.813760  0.709340  1.0
  C  C997  1  0.709340  0.039550  0.813760  1.0
  C  C998  1  0.813760  0.709340  0.039550  1.0
  C  C999  1  0.977290  0.342590  0.072890  1.0
  C  C1000  1  0.072890  0.977290  0.342590  1.0
  C  C1001  1  0.342590  0.072890  0.977290  1.0
  C  C1002  1  0.022710  0.657410  0.927110  1.0
  C  C1003  1  0.927110  0.022710  0.657410  1.0
  C  C1004  1  0.657410  0.927110  0.022710  1.0
  C  C1005  1  0.944960  0.351260  0.052060  1.0
  C  C1006  1  0.052060  0.944960  0.351260  1.0
  C  C1007  1  0.351260  0.052060  0.944960  1.0
  C  C1008  1  0.055040  0.648740  0.947940  1.0
  C  C1009  1  0.947940  0.055040  0.648740  1.0
  C  C1010  1  0.648740  0.947940  0.055040  1.0
  C  C1011  1  0.937210  0.323910  0.029710  1.0
  C  C1012  1  0.029710  0.937210  0.323910  1.0
  C  C1013  1  0.323910  0.029710  0.937210  1.0
  C  C1014  1  0.062790  0.676090  0.970290  1.0
  C  C1015  1  0.970290  0.062790  0.676090  1.0
  C  C1016  1  0.676090  0.970290  0.062790  1.0
  C  C1017  1  0.961690  0.287990  0.028190  1.0
  C  C1018  1  0.028190  0.961690  0.287990  1.0
  C  C1019  1  0.287990  0.028190  0.961690  1.0
  C  C1020  1  0.038310  0.712010  0.971810  1.0
  C  C1021  1  0.971810  0.038310  0.712010  1.0
  C  C1022  1  0.712010  0.971810  0.038310  1.0
  C  C1023  1  0.994030  0.279230  0.049130  1.0
  C  C1024  1  0.049130  0.994030  0.279230  1.0
  C  C1025  1  0.279230  0.049130  0.994030  1.0
  C  C1026  1  0.005970  0.720770  0.950870  1.0
  C  C1027  1  0.950870  0.005970  0.720770  1.0
  C  C1028  1  0.720770  0.950870  0.005970  1.0
  C  C1029  1  0.902000  0.334500  0.005700  1.0
  C  C1030  1  0.005700  0.902000  0.334500  1.0
  C  C1031  1  0.334500  0.005700  0.902000  1.0
  C  C1032  1  0.098000  0.665500  0.994300  1.0
  C  C1033  1  0.994300  0.098000  0.665500  1.0
  C  C1034  1  0.665500  0.994300  0.098000  1.0
  C  C1035  1  0.024000  0.249600  0.044500  1.0
  C  C1036  1  0.044500  0.024000  0.249600  1.0
  C  C1037  1  0.249600  0.044500  0.024000  1.0
  C  C1038  1  0.976000  0.750400  0.955500  1.0
  C  C1039  1  0.955500  0.976000  0.750400  1.0
  C  C1040  1  0.750400  0.955500  0.976000  1.0
  C  C1041  1  0.028900  0.217500  0.022200  1.0
  C  C1042  1  0.022200  0.028900  0.217500  1.0
  C  C1043  1  0.217500  0.022200  0.028900  1.0
  C  C1044  1  0.971100  0.782500  0.977800  1.0
  C  C1045  1  0.977800  0.971100  0.782500  1.0
  C  C1046  1  0.782500  0.977800  0.971100  1.0
  C  C1047  1  0.067660  0.196660  0.024260  1.0
  C  C1048  1  0.024260  0.067660  0.196660  1.0
  C  C1049  1  0.196660  0.024260  0.067660  1.0
  C  C1050  1  0.932340  0.803340  0.975740  1.0
  C  C1051  1  0.975740  0.932340  0.803340  1.0
  C  C1052  1  0.803340  0.975740  0.932340  1.0
  C  C1053  1  0.298510  0.655210  0.241310  1.0
  C  C1054  1  0.241310  0.298510  0.655210  1.0
  C  C1055  1  0.655210  0.241310  0.298510  1.0
  C  C1056  1  0.701490  0.344790  0.758690  1.0
  C  C1057  1  0.758690  0.701490  0.344790  1.0
  C  C1058  1  0.344790  0.758690  0.701490  1.0
  C  C1059  1  0.293200  0.677900  0.272200  1.0
  C  C1060  1  0.272200  0.293200  0.677900  1.0
  C  C1061  1  0.677900  0.272200  0.293200  1.0
  C  C1062  1  0.706800  0.322100  0.727800  1.0
  C  C1063  1  0.727800  0.706800  0.322100  1.0
  C  C1064  1  0.322100  0.727800  0.706800  1.0
  C  C1065  1  0.321990  0.673390  0.297090  1.0
  C  C1066  1  0.297090  0.321990  0.673390  1.0
  C  C1067  1  0.673390  0.297090  0.321990  1.0
  C  C1068  1  0.678010  0.326610  0.702910  1.0
  C  C1069  1  0.702910  0.678010  0.326610  1.0
  C  C1070  1  0.326610  0.702910  0.678010  1.0
  C  C1071  1  0.356170  0.646270  0.291170  1.0
  C  C1072  1  0.291170  0.356170  0.646270  1.0
  C  C1073  1  0.646270  0.291170  0.356170  1.0
  C  C1074  1  0.643830  0.353730  0.708830  1.0
  C  C1075  1  0.708830  0.643830  0.353730  1.0
  C  C1076  1  0.353730  0.708830  0.643830  1.0
  C  C1077  1  0.361400  0.623800  0.260200  1.0
  C  C1078  1  0.260200  0.361400  0.623800  1.0
  C  C1079  1  0.623800  0.260200  0.361400  1.0
  C  C1080  1  0.638600  0.376200  0.739800  1.0
  C  C1081  1  0.739800  0.638600  0.376200  1.0
  C  C1082  1  0.376200  0.739800  0.638600  1.0
  C  C1083  1  0.319200  0.700000  0.327600  1.0
  C  C1084  1  0.327600  0.319200  0.700000  1.0
  C  C1085  1  0.700000  0.327600  0.319200  1.0
  C  C1086  1  0.680800  0.300000  0.672400  1.0
  C  C1087  1  0.672400  0.680800  0.300000  1.0
  C  C1088  1  0.300000  0.672400  0.680800  1.0
  Co  Co1089  1  0.133890  0.567750  0.395860  1.0
  Co  Co1090  1  0.395860  0.133890  0.567750  1.0
  Co  Co1091  1  0.567750  0.395860  0.133890  1.0
  Co  Co1092  1  0.866110  0.432250  0.604140  1.0
  Co  Co1093  1  0.604140  0.866110  0.432250  1.0
  Co  Co1094  1  0.432250  0.604140  0.866110  1.0
  Co  Co1095  1  0.348590  0.594880  0.186340  1.0
  Co  Co1096  1  0.186340  0.348590  0.594880  1.0
  Co  Co1097  1  0.594880  0.186340  0.348590  1.0
  Co  Co1098  1  0.651410  0.405120  0.813660  1.0
  Co  Co1099  1  0.813660  0.651410  0.405120  1.0
  Co  Co1100  1  0.405120  0.813660  0.651410  1.0
  Co  Co1101  1  0.104380  0.535550  0.136660  1.0
  Co  Co1102  1  0.136660  0.104380  0.535550  1.0
  Co  Co1103  1  0.535550  0.136660  0.104380  1.0
  Co  Co1104  1  0.895620  0.464450  0.863340  1.0
  Co  Co1105  1  0.863340  0.895620  0.464450  1.0
  Co  Co1106  1  0.464450  0.863340  0.895620  1.0
  Co  Co1107  1  0.050040  0.282000  0.108010  1.0
  Co  Co1108  1  0.108010  0.050040  0.282000  1.0
  Co  Co1109  1  0.282000  0.108010  0.050040  1.0
  Co  Co1110  1  0.949960  0.718000  0.891990  1.0
  Co  Co1111  1  0.891990  0.949960  0.718000  1.0
  Co  Co1112  1  0.718000  0.891990  0.949960  1.0
  F  F1113  1  0.145333  0.145333  0.145333  1.0
  F  F1114  1  0.854667  0.854667  0.854667  1.0
  F  F1115  1  0.088830  0.148530  0.116230  1.0
  F  F1116  1  0.116230  0.088830  0.148530  1.0
  F  F1117  1  0.148530  0.116230  0.088830  1.0
  F  F1118  1  0.911170  0.851470  0.883770  1.0
  F  F1119  1  0.883770  0.911170  0.851470  1.0
  F  F1120  1  0.851470  0.883770  0.911170  1.0
  F  F1121  1  0.154200  0.619700  0.262700  1.0
  F  F1122  1  0.262700  0.154200  0.619700  1.0
  F  F1123  1  0.619700  0.262700  0.154200  1.0
  F  F1124  1  0.845800  0.380300  0.737300  1.0
  F  F1125  1  0.737300  0.845800  0.380300  1.0
  F  F1126  1  0.380300  0.737300  0.845800  1.0
  F  F1127  1  0.213590  0.629930  0.226050  1.0
  F  F1128  1  0.226050  0.213590  0.629930  1.0
  F  F1129  1  0.629930  0.226050  0.213590  1.0
  F  F1130  1  0.786410  0.370070  0.773950  1.0
  F  F1131  1  0.773950  0.786410  0.370070  1.0
  F  F1132  1  0.370070  0.773950  0.786410  1.0
  F  F1133  1  0.195140  0.567740  0.239640  1.0
  F  F1134  1  0.239640  0.195140  0.567740  1.0
  F  F1135  1  0.567740  0.239640  0.195140  1.0
  F  F1136  1  0.804860  0.432260  0.760360  1.0
  F  F1137  1  0.760360  0.804860  0.432260  1.0
  F  F1138  1  0.432260  0.760360  0.804860  1.0
  F  F1139  1  0.163930  0.616030  0.197030  1.0
  F  F1140  1  0.197030  0.163930  0.616030  1.0
  F  F1141  1  0.616030  0.197030  0.163930  1.0
  F  F1142  1  0.836070  0.383970  0.802970  1.0
  F  F1143  1  0.802970  0.836070  0.383970  1.0
  F  F1144  1  0.383970  0.802970  0.836070  1.0
  H  H1145  1  0.088700  0.566100  0.482000  1.0
  H  H1146  1  0.482000  0.088700  0.566100  1.0
  H  H1147  1  0.566100  0.482000  0.088700  1.0
  H  H1148  1  0.911300  0.433900  0.518000  1.0
  H  H1149  1  0.518000  0.911300  0.433900  1.0
  H  H1150  1  0.433900  0.518000  0.911300  1.0
  H  H1151  1  0.059000  0.610100  0.525900  1.0
  H  H1152  1  0.525900  0.059000  0.610100  1.0
  H  H1153  1  0.610100  0.525900  0.059000  1.0
  H  H1154  1  0.941000  0.389900  0.474100  1.0
  H  H1155  1  0.474100  0.941000  0.389900  1.0
  H  H1156  1  0.389900  0.474100  0.941000  1.0
  H  H1157  1  0.090400  0.701200  0.445100  1.0
  H  H1158  1  0.445100  0.090400  0.701200  1.0
  H  H1159  1  0.701200  0.445100  0.090400  1.0
  H  H1160  1  0.909600  0.298800  0.554900  1.0
  H  H1161  1  0.554900  0.909600  0.298800  1.0
  H  H1162  1  0.298800  0.554900  0.909600  1.0
  H  H1163  1  0.025800  0.686800  0.531900  1.0
  H  H1164  1  0.531900  0.025800  0.686800  1.0
  H  H1165  1  0.686800  0.531900  0.025800  1.0
  H  H1166  1  0.974200  0.313200  0.468100  1.0
  H  H1167  1  0.468100  0.974200  0.313200  1.0
  H  H1168  1  0.313200  0.468100  0.974200  1.0
  H  H1169  1  0.068400  0.684000  0.544900  1.0
  H  H1170  1  0.544900  0.068400  0.684000  1.0
  H  H1171  1  0.684000  0.544900  0.068400  1.0
  H  H1172  1  0.931600  0.316000  0.455100  1.0
  H  H1173  1  0.455100  0.931600  0.316000  1.0
  H  H1174  1  0.316000  0.455100  0.931600  1.0
  H  H1175  1  0.045900  0.727800  0.481000  1.0
  H  H1176  1  0.481000  0.045900  0.727800  1.0
  H  H1177  1  0.727800  0.481000  0.045900  1.0
  H  H1178  1  0.954100  0.272200  0.519000  1.0
  H  H1179  1  0.519000  0.954100  0.272200  1.0
  H  H1180  1  0.272200  0.519000  0.954100  1.0
  H  H1181  1  0.140800  0.715300  0.367700  1.0
  H  H1182  1  0.367700  0.140800  0.715300  1.0
  H  H1183  1  0.715300  0.367700  0.140800  1.0
  H  H1184  1  0.859200  0.284700  0.632300  1.0
  H  H1185  1  0.632300  0.859200  0.284700  1.0
  H  H1186  1  0.284700  0.632300  0.859200  1.0
  H  H1187  1  0.192100  0.692300  0.312700  1.0
  H  H1188  1  0.312700  0.192100  0.692300  1.0
  H  H1189  1  0.692300  0.312700  0.192100  1.0
  H  H1190  1  0.807900  0.307700  0.687300  1.0
  H  H1191  1  0.687300  0.807900  0.307700  1.0
  H  H1192  1  0.307700  0.687300  0.807900  1.0
  H  H1193  1  0.226900  0.618200  0.295900  1.0
  H  H1194  1  0.295900  0.226900  0.618200  1.0
  H  H1195  1  0.618200  0.295900  0.226900  1.0
  H  H1196  1  0.773100  0.381800  0.704100  1.0
  H  H1197  1  0.704100  0.773100  0.381800  1.0
  H  H1198  1  0.381800  0.704100  0.773100  1.0
  H  H1199  1  0.211100  0.582100  0.323800  1.0
  H  H1200  1  0.323800  0.211100  0.582100  1.0
  H  H1201  1  0.582100  0.323800  0.211100  1.0
  H  H1202  1  0.788900  0.417900  0.676200  1.0
  H  H1203  1  0.676200  0.788900  0.417900  1.0
  H  H1204  1  0.417900  0.676200  0.788900  1.0
  H  H1205  1  0.396400  0.591300  0.100500  1.0
  H  H1206  1  0.100500  0.396400  0.591300  1.0
  H  H1207  1  0.591300  0.100500  0.396400  1.0
  H  H1208  1  0.603600  0.408700  0.899500  1.0
  H  H1209  1  0.899500  0.603600  0.408700  1.0
  H  H1210  1  0.408700  0.899500  0.603600  1.0
  H  H1211  1  0.405000  0.549800  0.052100  1.0
  H  H1212  1  0.052100  0.405000  0.549800  1.0
  H  H1213  1  0.549800  0.052100  0.405000  1.0
  H  H1214  1  0.595000  0.450200  0.947900  1.0
  H  H1215  1  0.947900  0.595000  0.450200  1.0
  H  H1216  1  0.450200  0.947900  0.595000  1.0
  H  H1217  1  0.339300  0.475100  0.125600  1.0
  H  H1218  1  0.125600  0.339300  0.475100  1.0
  H  H1219  1  0.475100  0.125600  0.339300  1.0
  H  H1220  1  0.660700  0.524900  0.874400  1.0
  H  H1221  1  0.874400  0.660700  0.524900  1.0
  H  H1222  1  0.524900  0.874400  0.660700  1.0
  H  H1223  1  0.384100  0.453700  0.063500  1.0
  H  H1224  1  0.063500  0.384100  0.453700  1.0
  H  H1225  1  0.453700  0.063500  0.384100  1.0
  H  H1226  1  0.615900  0.546300  0.936500  1.0
  H  H1227  1  0.936500  0.615900  0.546300  1.0
  H  H1228  1  0.546300  0.936500  0.615900  1.0
  H  H1229  1  0.352500  0.483200  0.041600  1.0
  H  H1230  1  0.041600  0.352500  0.483200  1.0
  H  H1231  1  0.483200  0.041600  0.352500  1.0
  H  H1232  1  0.647500  0.516800  0.958400  1.0
  H  H1233  1  0.958400  0.647500  0.516800  1.0
  H  H1234  1  0.516800  0.958400  0.647500  1.0
  H  H1235  1  0.406600  0.473500  0.007100  1.0
  H  H1236  1  0.007100  0.406600  0.473500  1.0
  H  H1237  1  0.473500  0.007100  0.406600  1.0
  H  H1238  1  0.593400  0.526500  0.992900  1.0
  H  H1239  1  0.992900  0.593400  0.526500  1.0
  H  H1240  1  0.526500  0.992900  0.593400  1.0
  H  H1241  1  0.305500  0.458200  0.199100  1.0
  H  H1242  1  0.199100  0.305500  0.458200  1.0
  H  H1243  1  0.458200  0.199100  0.305500  1.0
  H  H1244  1  0.694500  0.541800  0.800900  1.0
  H  H1245  1  0.800900  0.694500  0.541800  1.0
  H  H1246  1  0.541800  0.800900  0.694500  1.0
  H  H1247  1  0.269800  0.478100  0.263800  1.0
  H  H1248  1  0.263800  0.269800  0.478100  1.0
  H  H1249  1  0.478100  0.263800  0.269800  1.0
  H  H1250  1  0.730200  0.521900  0.736200  1.0
  H  H1251  1  0.736200  0.730200  0.521900  1.0
  H  H1252  1  0.521900  0.736200  0.730200  1.0
  H  H1253  1  0.248000  0.547300  0.290500  1.0
  H  H1254  1  0.290500  0.248000  0.547300  1.0
  H  H1255  1  0.547300  0.290500  0.248000  1.0
  H  H1256  1  0.752000  0.452700  0.709500  1.0
  H  H1257  1  0.709500  0.752000  0.452700  1.0
  H  H1258  1  0.452700  0.709500  0.752000  1.0
  H  H1259  1  0.266100  0.584200  0.266700  1.0
  H  H1260  1  0.266700  0.266100  0.584200  1.0
  H  H1261  1  0.584200  0.266700  0.266100  1.0
  H  H1262  1  0.733900  0.415800  0.733300  1.0
  H  H1263  1  0.733300  0.733900  0.415800  1.0
  H  H1264  1  0.415800  0.733300  0.733900  1.0
  H  H1265  1  0.223100  0.641900  0.380700  1.0
  H  H1266  1  0.380700  0.223100  0.641900  1.0
  H  H1267  1  0.641900  0.380700  0.223100  1.0
  H  H1268  1  0.776900  0.358100  0.619300  1.0
  H  H1269  1  0.619300  0.776900  0.358100  1.0
  H  H1270  1  0.358100  0.619300  0.776900  1.0
  H  H1271  1  0.269500  0.637700  0.423700  1.0
  H  H1272  1  0.423700  0.269500  0.637700  1.0
  H  H1273  1  0.637700  0.423700  0.269500  1.0
  H  H1274  1  0.730500  0.362300  0.576300  1.0
  H  H1275  1  0.576300  0.730500  0.362300  1.0
  H  H1276  1  0.362300  0.576300  0.730500  1.0
  H  H1277  1  0.329100  0.596100  0.414700  1.0
  H  H1278  1  0.414700  0.329100  0.596100  1.0
  H  H1279  1  0.596100  0.414700  0.329100  1.0
  H  H1280  1  0.670900  0.403900  0.585300  1.0
  H  H1281  1  0.585300  0.670900  0.403900  1.0
  H  H1282  1  0.403900  0.585300  0.670900  1.0
  H  H1283  1  0.339800  0.515200  0.283300  1.0
  H  H1284  1  0.283300  0.339800  0.515200  1.0
  H  H1285  1  0.515200  0.283300  0.339800  1.0
  H  H1286  1  0.660200  0.484800  0.716700  1.0
  H  H1287  1  0.716700  0.660200  0.484800  1.0
  H  H1288  1  0.484800  0.716700  0.660200  1.0
  H  H1289  1  0.386100  0.511100  0.326300  1.0
  H  H1290  1  0.326300  0.386100  0.511100  1.0
  H  H1291  1  0.511100  0.326300  0.386100  1.0
  H  H1292  1  0.613900  0.488900  0.673700  1.0
  H  H1293  1  0.673700  0.613900  0.488900  1.0
  H  H1294  1  0.488900  0.673700  0.613900  1.0
  H  H1295  1  0.372800  0.548600  0.378300  1.0
  H  H1296  1  0.378300  0.372800  0.548600  1.0
  H  H1297  1  0.548600  0.378300  0.372800  1.0
  H  H1298  1  0.627200  0.451400  0.621700  1.0
  H  H1299  1  0.621700  0.627200  0.451400  1.0
  H  H1300  1  0.451400  0.621700  0.627200  1.0
  H  H1301  1  0.180000  0.574300  0.468600  1.0
  H  H1302  1  0.468600  0.180000  0.574300  1.0
  H  H1303  1  0.574300  0.468600  0.180000  1.0
  H  H1304  1  0.820000  0.425700  0.531400  1.0
  H  H1305  1  0.531400  0.820000  0.425700  1.0
  H  H1306  1  0.425700  0.531400  0.820000  1.0
  H  H1307  1  0.241800  0.549300  0.487300  1.0
  H  H1308  1  0.487300  0.241800  0.549300  1.0
  H  H1309  1  0.549300  0.487300  0.241800  1.0
  H  H1310  1  0.758200  0.450700  0.512700  1.0
  H  H1311  1  0.512700  0.758200  0.450700  1.0
  H  H1312  1  0.450700  0.512700  0.758200  1.0
  H  H1313  1  0.264900  0.483400  0.398100  1.0
  H  H1314  1  0.398100  0.264900  0.483400  1.0
  H  H1315  1  0.483400  0.398100  0.264900  1.0
  H  H1316  1  0.735100  0.516600  0.601900  1.0
  H  H1317  1  0.601900  0.735100  0.516600  1.0
  H  H1318  1  0.516600  0.601900  0.735100  1.0
  H  H1319  1  0.237400  0.459400  0.344900  1.0
  H  H1320  1  0.344900  0.237400  0.459400  1.0
  H  H1321  1  0.459400  0.344900  0.237400  1.0
  H  H1322  1  0.762600  0.540600  0.655100  1.0
  H  H1323  1  0.655100  0.762600  0.540600  1.0
  H  H1324  1  0.540600  0.655100  0.762600  1.0
  H  H1325  1  0.191900  0.466200  0.293300  1.0
  H  H1326  1  0.293300  0.191900  0.466200  1.0
  H  H1327  1  0.466200  0.293300  0.191900  1.0
  H  H1328  1  0.808100  0.533800  0.706700  1.0
  H  H1329  1  0.706700  0.808100  0.533800  1.0
  H  H1330  1  0.533800  0.706700  0.808100  1.0
  H  H1331  1  0.139400  0.527100  0.269300  1.0
  H  H1332  1  0.269300  0.139400  0.527100  1.0
  H  H1333  1  0.527100  0.269300  0.139400  1.0
  H  H1334  1  0.860600  0.472900  0.730700  1.0
  H  H1335  1  0.730700  0.860600  0.472900  1.0
  H  H1336  1  0.472900  0.730700  0.860600  1.0
  H  H1337  1  0.123000  0.558500  0.298400  1.0
  H  H1338  1  0.298400  0.123000  0.558500  1.0
  H  H1339  1  0.558500  0.298400  0.123000  1.0
  H  H1340  1  0.877000  0.441500  0.701600  1.0
  H  H1341  1  0.701600  0.877000  0.441500  1.0
  H  H1342  1  0.441500  0.701600  0.877000  1.0
  H  H1343  1  0.062600  0.524200  0.060400  1.0
  H  H1344  1  0.060400  0.062600  0.524200  1.0
  H  H1345  1  0.524200  0.060400  0.062600  1.0
  H  H1346  1  0.937400  0.475800  0.939600  1.0
  H  H1347  1  0.939600  0.937400  0.475800  1.0
  H  H1348  1  0.475800  0.939600  0.937400  1.0
  H  H1349  1  0.017400  0.562000  0.021600  1.0
  H  H1350  1  0.021600  0.017400  0.562000  1.0
  H  H1351  1  0.562000  0.021600  0.017400  1.0
  H  H1352  1  0.982600  0.438000  0.978400  1.0
  H  H1353  1  0.978400  0.982600  0.438000  1.0
  H  H1354  1  0.438000  0.978400  0.982600  1.0
  H  H1355  1  0.004700  0.649000  0.089500  1.0
  H  H1356  1  0.089500  0.004700  0.649000  1.0
  H  H1357  1  0.649000  0.089500  0.004700  1.0
  H  H1358  1  0.995300  0.351000  0.910500  1.0
  H  H1359  1  0.910500  0.995300  0.351000  1.0
  H  H1360  1  0.351000  0.910500  0.995300  1.0
  H  H1361  1  0.987700  0.647200  0.003000  1.0
  H  H1362  1  0.003000  0.987700  0.647200  1.0
  H  H1363  1  0.647200  0.003000  0.987700  1.0
  H  H1364  1  0.012300  0.352800  0.997000  1.0
  H  H1365  1  0.997000  0.012300  0.352800  1.0
  H  H1366  1  0.352800  0.997000  0.012300  1.0
  H  H1367  1  0.959000  0.615900  0.020100  1.0
  H  H1368  1  0.020100  0.959000  0.615900  1.0
  H  H1369  1  0.615900  0.020100  0.959000  1.0
  H  H1370  1  0.041000  0.384100  0.979900  1.0
  H  H1371  1  0.979900  0.041000  0.384100  1.0
  H  H1372  1  0.384100  0.979900  0.041000  1.0
  H  H1373  1  0.934900  0.671900  0.030800  1.0
  H  H1374  1  0.030800  0.934900  0.671900  1.0
  H  H1375  1  0.671900  0.030800  0.934900  1.0
  H  H1376  1  0.065100  0.328100  0.969200  1.0
  H  H1377  1  0.969200  0.065100  0.328100  1.0
  H  H1378  1  0.328100  0.969200  0.065100  1.0
  H  H1379  1  0.029100  0.671000  0.146600  1.0
  H  H1380  1  0.146600  0.029100  0.671000  1.0
  H  H1381  1  0.671000  0.146600  0.029100  1.0
  H  H1382  1  0.970900  0.329000  0.853400  1.0
  H  H1383  1  0.853400  0.970900  0.329000  1.0
  H  H1384  1  0.329000  0.853400  0.970900  1.0
  H  H1385  1  0.054400  0.660000  0.212400  1.0
  H  H1386  1  0.212400  0.054400  0.660000  1.0
  H  H1387  1  0.660000  0.212400  0.054400  1.0
  H  H1388  1  0.945600  0.340000  0.787600  1.0
  H  H1389  1  0.787600  0.945600  0.340000  1.0
  H  H1390  1  0.340000  0.787600  0.945600  1.0
  H  H1391  1  0.093700  0.593200  0.252500  1.0
  H  H1392  1  0.252500  0.093700  0.593200  1.0
  H  H1393  1  0.593200  0.252500  0.093700  1.0
  H  H1394  1  0.906300  0.406800  0.747500  1.0
  H  H1395  1  0.747500  0.906300  0.406800  1.0
  H  H1396  1  0.406800  0.747500  0.906300  1.0
  H  H1397  1  0.108200  0.557900  0.228300  1.0
  H  H1398  1  0.228300  0.108200  0.557900  1.0
  H  H1399  1  0.557900  0.228300  0.108200  1.0
  H  H1400  1  0.891800  0.442100  0.771700  1.0
  H  H1401  1  0.771700  0.891800  0.442100  1.0
  H  H1402  1  0.442100  0.771700  0.891800  1.0
  H  H1403  1  0.113300  0.472200  0.351500  1.0
  H  H1404  1  0.351500  0.113300  0.472200  1.0
  H  H1405  1  0.472200  0.351500  0.113300  1.0
  H  H1406  1  0.886700  0.527800  0.648500  1.0
  H  H1407  1  0.648500  0.886700  0.527800  1.0
  H  H1408  1  0.527800  0.648500  0.886700  1.0
  H  H1409  1  0.056200  0.444800  0.379000  1.0
  H  H1410  1  0.379000  0.056200  0.444800  1.0
  H  H1411  1  0.444800  0.379000  0.056200  1.0
  H  H1412  1  0.943800  0.555200  0.621000  1.0
  H  H1413  1  0.621000  0.943800  0.555200  1.0
  H  H1414  1  0.555200  0.621000  0.943800  1.0
  H  H1415  1  0.017100  0.587400  0.223000  1.0
  H  H1416  1  0.223000  0.017100  0.587400  1.0
  H  H1417  1  0.587400  0.223000  0.017100  1.0
  H  H1418  1  0.982900  0.412600  0.777000  1.0
  H  H1419  1  0.777000  0.982900  0.412600  1.0
  H  H1420  1  0.412600  0.777000  0.982900  1.0
  H  H1421  1  0.960000  0.560000  0.250500  1.0
  H  H1422  1  0.250500  0.960000  0.560000  1.0
  H  H1423  1  0.560000  0.250500  0.960000  1.0
  H  H1424  1  0.040000  0.440000  0.749500  1.0
  H  H1425  1  0.749500  0.040000  0.440000  1.0
  H  H1426  1  0.440000  0.749500  0.040000  1.0
  H  H1427  1  0.961500  0.510300  0.304400  1.0
  H  H1428  1  0.304400  0.961500  0.510300  1.0
  H  H1429  1  0.510300  0.304400  0.961500  1.0
  H  H1430  1  0.038500  0.489700  0.695600  1.0
  H  H1431  1  0.695600  0.038500  0.489700  1.0
  H  H1432  1  0.489700  0.695600  0.038500  1.0
  H  H1433  1  0.437500  0.624200  0.169000  1.0
  H  H1434  1  0.169000  0.437500  0.624200  1.0
  H  H1435  1  0.624200  0.169000  0.437500  1.0
  H  H1436  1  0.562500  0.375800  0.831000  1.0
  H  H1437  1  0.831000  0.562500  0.375800  1.0
  H  H1438  1  0.375800  0.831000  0.562500  1.0
  H  H1439  1  0.461600  0.684600  0.155000  1.0
  H  H1440  1  0.155000  0.461600  0.684600  1.0
  H  H1441  1  0.684600  0.155000  0.461600  1.0
  H  H1442  1  0.538400  0.315400  0.845000  1.0
  H  H1443  1  0.845000  0.538400  0.315400  1.0
  H  H1444  1  0.315400  0.845000  0.538400  1.0
  H  H1445  1  0.354300  0.739000  0.131700  1.0
  H  H1446  1  0.131700  0.354300  0.739000  1.0
  H  H1447  1  0.739000  0.131700  0.354300  1.0
  H  H1448  1  0.645700  0.261000  0.868300  1.0
  H  H1449  1  0.868300  0.645700  0.261000  1.0
  H  H1450  1  0.261000  0.868300  0.645700  1.0
  H  H1451  1  0.440500  0.763900  0.151100  1.0
  H  H1452  1  0.151100  0.440500  0.763900  1.0
  H  H1453  1  0.763900  0.151100  0.440500  1.0
  H  H1454  1  0.559500  0.236100  0.848900  1.0
  H  H1455  1  0.848900  0.559500  0.236100  1.0
  H  H1456  1  0.236100  0.848900  0.559500  1.0
  H  H1457  1  0.447100  0.757200  0.106200  1.0
  H  H1458  1  0.106200  0.447100  0.757200  1.0
  H  H1459  1  0.757200  0.106200  0.447100  1.0
  H  H1460  1  0.552900  0.242800  0.893800  1.0
  H  H1461  1  0.893800  0.552900  0.242800  1.0
  H  H1462  1  0.242800  0.893800  0.552900  1.0
  H  H1463  1  0.391800  0.782700  0.102100  1.0
  H  H1464  1  0.102100  0.391800  0.782700  1.0
  H  H1465  1  0.782700  0.102100  0.391800  1.0
  H  H1466  1  0.608200  0.217300  0.897900  1.0
  H  H1467  1  0.897900  0.608200  0.217300  1.0
  H  H1468  1  0.217300  0.897900  0.608200  1.0
  H  H1469  1  0.282400  0.727200  0.124200  1.0
  H  H1470  1  0.124200  0.282400  0.727200  1.0
  H  H1471  1  0.727200  0.124200  0.282400  1.0
  H  H1472  1  0.717600  0.272800  0.875800  1.0
  H  H1473  1  0.875800  0.717600  0.272800  1.0
  H  H1474  1  0.272800  0.875800  0.717600  1.0
  H  H1475  1  0.228100  0.685800  0.126600  1.0
  H  H1476  1  0.126600  0.228100  0.685800  1.0
  H  H1477  1  0.685800  0.126600  0.228100  1.0
  H  H1478  1  0.771900  0.314200  0.873400  1.0
  H  H1479  1  0.873400  0.771900  0.314200  1.0
  H  H1480  1  0.314200  0.873400  0.771900  1.0
  H  H1481  1  0.223000  0.609300  0.146100  1.0
  H  H1482  1  0.146100  0.223000  0.609300  1.0
  H  H1483  1  0.609300  0.146100  0.223000  1.0
  H  H1484  1  0.777000  0.390700  0.853900  1.0
  H  H1485  1  0.853900  0.777000  0.390700  1.0
  H  H1486  1  0.390700  0.853900  0.777000  1.0
  H  H1487  1  0.258900  0.581900  0.162800  1.0
  H  H1488  1  0.162800  0.258900  0.581900  1.0
  H  H1489  1  0.581900  0.162800  0.258900  1.0
  H  H1490  1  0.741100  0.418100  0.837200  1.0
  H  H1491  1  0.837200  0.741100  0.418100  1.0
  H  H1492  1  0.418100  0.837200  0.741100  1.0
  H  H1493  1  0.015900  0.510400  0.158700  1.0
  H  H1494  1  0.158700  0.015900  0.510400  1.0
  H  H1495  1  0.510400  0.158700  0.015900  1.0
  H  H1496  1  0.984100  0.489600  0.841300  1.0
  H  H1497  1  0.841300  0.984100  0.489600  1.0
  H  H1498  1  0.489600  0.841300  0.984100  1.0
  H  H1499  1  0.983300  0.468400  0.208100  1.0
  H  H1500  1  0.208100  0.983300  0.468400  1.0
  H  H1501  1  0.468400  0.208100  0.983300  1.0
  H  H1502  1  0.016700  0.531600  0.791900  1.0
  H  H1503  1  0.791900  0.016700  0.531600  1.0
  H  H1504  1  0.531600  0.791900  0.016700  1.0
  H  H1505  1  0.085700  0.429000  0.252200  1.0
  H  H1506  1  0.252200  0.085700  0.429000  1.0
  H  H1507  1  0.429000  0.252200  0.085700  1.0
  H  H1508  1  0.914300  0.571000  0.747800  1.0
  H  H1509  1  0.747800  0.914300  0.571000  1.0
  H  H1510  1  0.571000  0.747800  0.914300  1.0
  H  H1511  1  0.026400  0.393200  0.274100  1.0
  H  H1512  1  0.274100  0.026400  0.393200  1.0
  H  H1513  1  0.393200  0.274100  0.026400  1.0
  H  H1514  1  0.973600  0.606800  0.725900  1.0
  H  H1515  1  0.725900  0.973600  0.606800  1.0
  H  H1516  1  0.606800  0.725900  0.973600  1.0
  H  H1517  1  0.005700  0.431200  0.292800  1.0
  H  H1518  1  0.292800  0.005700  0.431200  1.0
  H  H1519  1  0.431200  0.292800  0.005700  1.0
  H  H1520  1  0.994300  0.568800  0.707200  1.0
  H  H1521  1  0.707200  0.994300  0.568800  1.0
  H  H1522  1  0.568800  0.707200  0.994300  1.0
  H  H1523  1  0.962000  0.397400  0.277600  1.0
  H  H1524  1  0.277600  0.962000  0.397400  1.0
  H  H1525  1  0.397400  0.277600  0.962000  1.0
  H  H1526  1  0.038000  0.602600  0.722400  1.0
  H  H1527  1  0.722400  0.038000  0.602600  1.0
  H  H1528  1  0.602600  0.722400  0.038000  1.0
  H  H1529  1  0.158600  0.430200  0.240500  1.0
  H  H1530  1  0.240500  0.158600  0.430200  1.0
  H  H1531  1  0.430200  0.240500  0.158600  1.0
  H  H1532  1  0.841400  0.569800  0.759500  1.0
  H  H1533  1  0.759500  0.841400  0.569800  1.0
  H  H1534  1  0.569800  0.759500  0.841400  1.0
  H  H1535  1  0.220200  0.462600  0.217900  1.0
  H  H1536  1  0.217900  0.220200  0.462600  1.0
  H  H1537  1  0.462600  0.217900  0.220200  1.0
  H  H1538  1  0.779800  0.537400  0.782100  1.0
  H  H1539  1  0.782100  0.779800  0.537400  1.0
  H  H1540  1  0.537400  0.782100  0.779800  1.0
  H  H1541  1  0.229400  0.533600  0.180300  1.0
  H  H1542  1  0.180300  0.229400  0.533600  1.0
  H  H1543  1  0.533600  0.180300  0.229400  1.0
  H  H1544  1  0.770600  0.466400  0.819700  1.0
  H  H1545  1  0.819700  0.770600  0.466400  1.0
  H  H1546  1  0.466400  0.819700  0.770600  1.0
  H  H1547  1  0.194600  0.557600  0.159000  1.0
  H  H1548  1  0.159000  0.194600  0.557600  1.0
  H  H1549  1  0.557600  0.159000  0.194600  1.0
  H  H1550  1  0.805400  0.442400  0.841000  1.0
  H  H1551  1  0.841000  0.805400  0.442400  1.0
  H  H1552  1  0.442400  0.841000  0.805400  1.0
  H  H1553  1  0.289800  0.635100  0.079300  1.0
  H  H1554  1  0.079300  0.289800  0.635100  1.0
  H  H1555  1  0.635100  0.079300  0.289800  1.0
  H  H1556  1  0.710200  0.364900  0.920700  1.0
  H  H1557  1  0.920700  0.710200  0.364900  1.0
  H  H1558  1  0.364900  0.920700  0.710200  1.0
  H  H1559  1  0.306800  0.553800  0.004700  1.0
  H  H1560  1  0.004700  0.306800  0.553800  1.0
  H  H1561  1  0.553800  0.004700  0.306800  1.0
  H  H1562  1  0.693200  0.446200  0.995300  1.0
  H  H1563  1  0.995300  0.693200  0.446200  1.0
  H  H1564  1  0.446200  0.995300  0.693200  1.0
  H  H1565  1  0.214600  0.472700  0.131800  1.0
  H  H1566  1  0.131800  0.214600  0.472700  1.0
  H  H1567  1  0.472700  0.131800  0.214600  1.0
  H  H1568  1  0.785400  0.527300  0.868200  1.0
  H  H1569  1  0.868200  0.785400  0.527300  1.0
  H  H1570  1  0.527300  0.868200  0.785400  1.0
  H  H1571  1  0.241500  0.452300  0.071000  1.0
  H  H1572  1  0.071000  0.241500  0.452300  1.0
  H  H1573  1  0.452300  0.071000  0.241500  1.0
  H  H1574  1  0.758500  0.547700  0.929000  1.0
  H  H1575  1  0.929000  0.758500  0.547700  1.0
  H  H1576  1  0.547700  0.929000  0.758500  1.0
  H  H1577  1  0.278600  0.492800  0.024300  1.0
  H  H1578  1  0.024300  0.278600  0.492800  1.0
  H  H1579  1  0.492800  0.024300  0.278600  1.0
  H  H1580  1  0.721400  0.507200  0.975700  1.0
  H  H1581  1  0.975700  0.721400  0.507200  1.0
  H  H1582  1  0.507200  0.975700  0.721400  1.0
  H  H1583  1  0.140000  0.618500  0.129900  1.0
  H  H1584  1  0.129900  0.140000  0.618500  1.0
  H  H1585  1  0.618500  0.129900  0.140000  1.0
  H  H1586  1  0.860000  0.381500  0.870100  1.0
  H  H1587  1  0.870100  0.860000  0.381500  1.0
  H  H1588  1  0.381500  0.870100  0.860000  1.0
  H  H1589  1  0.175700  0.658400  0.081000  1.0
  H  H1590  1  0.081000  0.175700  0.658400  1.0
  H  H1591  1  0.658400  0.081000  0.175700  1.0
  H  H1592  1  0.824300  0.341600  0.919000  1.0
  H  H1593  1  0.919000  0.824300  0.341600  1.0
  H  H1594  1  0.341600  0.919000  0.824300  1.0
  H  H1595  1  0.187000  0.576400  0.007700  1.0
  H  H1596  1  0.007700  0.187000  0.576400  1.0
  H  H1597  1  0.576400  0.007700  0.187000  1.0
  H  H1598  1  0.813000  0.423600  0.992300  1.0
  H  H1599  1  0.992300  0.813000  0.423600  1.0
  H  H1600  1  0.423600  0.992300  0.813000  1.0
  H  H1601  1  0.193400  0.657300  0.983100  1.0
  H  H1602  1  0.983100  0.193400  0.657300  1.0
  H  H1603  1  0.657300  0.983100  0.193400  1.0
  H  H1604  1  0.806600  0.342700  0.016900  1.0
  H  H1605  1  0.016900  0.806600  0.342700  1.0
  H  H1606  1  0.342700  0.016900  0.806600  1.0
  H  H1607  1  0.234300  0.636800  0.996900  1.0
  H  H1608  1  0.996900  0.234300  0.636800  1.0
  H  H1609  1  0.636800  0.996900  0.234300  1.0
  H  H1610  1  0.765700  0.363200  0.003100  1.0
  H  H1611  1  0.003100  0.765700  0.363200  1.0
  H  H1612  1  0.363200  0.003100  0.765700  1.0
  H  H1613  1  0.220300  0.705000  0.016200  1.0
  H  H1614  1  0.016200  0.220300  0.705000  1.0
  H  H1615  1  0.705000  0.016200  0.220300  1.0
  H  H1616  1  0.779700  0.295000  0.983800  1.0
  H  H1617  1  0.983800  0.779700  0.295000  1.0
  H  H1618  1  0.295000  0.983800  0.779700  1.0
  H  H1619  1  0.171000  0.509700  0.000700  1.0
  H  H1620  1  0.000700  0.171000  0.509700  1.0
  H  H1621  1  0.509700  0.000700  0.171000  1.0
  H  H1622  1  0.829000  0.490300  0.999300  1.0
  H  H1623  1  0.999300  0.829000  0.490300  1.0
  H  H1624  1  0.490300  0.999300  0.829000  1.0
  H  H1625  1  0.146000  0.444100  0.023200  1.0
  H  H1626  1  0.023200  0.146000  0.444100  1.0
  H  H1627  1  0.444100  0.023200  0.146000  1.0
  H  H1628  1  0.854000  0.555900  0.976800  1.0
  H  H1629  1  0.976800  0.854000  0.555900  1.0
  H  H1630  1  0.555900  0.976800  0.854000  1.0
  H  H1631  1  0.089300  0.445000  0.124600  1.0
  H  H1632  1  0.124600  0.089300  0.445000  1.0
  H  H1633  1  0.445000  0.124600  0.089300  1.0
  H  H1634  1  0.910700  0.555000  0.875400  1.0
  H  H1635  1  0.875400  0.910700  0.555000  1.0
  H  H1636  1  0.555000  0.875400  0.910700  1.0
  H  H1637  1  0.095300  0.419300  0.090300  1.0
  H  H1638  1  0.090300  0.095300  0.419300  1.0
  H  H1639  1  0.419300  0.090300  0.095300  1.0
  H  H1640  1  0.904700  0.580700  0.909700  1.0
  H  H1641  1  0.909700  0.904700  0.580700  1.0
  H  H1642  1  0.580700  0.909700  0.904700  1.0
  H  H1643  1  0.020900  0.196700  0.120300  1.0
  H  H1644  1  0.120300  0.020900  0.196700  1.0
  H  H1645  1  0.196700  0.120300  0.020900  1.0
  H  H1646  1  0.979100  0.803300  0.879700  1.0
  H  H1647  1  0.879700  0.979100  0.803300  1.0
  H  H1648  1  0.803300  0.879700  0.979100  1.0
  H  H1649  1  0.967800  0.165800  0.153900  1.0
  H  H1650  1  0.153900  0.967800  0.165800  1.0
  H  H1651  1  0.165800  0.153900  0.967800  1.0
  H  H1652  1  0.032200  0.834200  0.846100  1.0
  H  H1653  1  0.846100  0.032200  0.834200  1.0
  H  H1654  1  0.834200  0.846100  0.032200  1.0
  H  H1655  1  0.926000  0.262300  0.207500  1.0
  H  H1656  1  0.207500  0.926000  0.262300  1.0
  H  H1657  1  0.262300  0.207500  0.926000  1.0
  H  H1658  1  0.074000  0.737700  0.792500  1.0
  H  H1659  1  0.792500  0.074000  0.737700  1.0
  H  H1660  1  0.737700  0.792500  0.074000  1.0
  H  H1661  1  0.889600  0.184400  0.188300  1.0
  H  H1662  1  0.188300  0.889600  0.184400  1.0
  H  H1663  1  0.184400  0.188300  0.889600  1.0
  H  H1664  1  0.110400  0.815600  0.811700  1.0
  H  H1665  1  0.811700  0.110400  0.815600  1.0
  H  H1666  1  0.815600  0.811700  0.110400  1.0
  H  H1667  1  0.916100  0.164000  0.221200  1.0
  H  H1668  1  0.221200  0.916100  0.164000  1.0
  H  H1669  1  0.164000  0.221200  0.916100  1.0
  H  H1670  1  0.083900  0.836000  0.778800  1.0
  H  H1671  1  0.778800  0.083900  0.836000  1.0
  H  H1672  1  0.836000  0.778800  0.083900  1.0
  H  H1673  1  0.868900  0.202700  0.242000  1.0
  H  H1674  1  0.242000  0.868900  0.202700  1.0
  H  H1675  1  0.202700  0.242000  0.868900  1.0
  H  H1676  1  0.131100  0.797300  0.758000  1.0
  H  H1677  1  0.758000  0.131100  0.797300  1.0
  H  H1678  1  0.797300  0.758000  0.131100  1.0
  H  H1679  1  0.935900  0.334400  0.203500  1.0
  H  H1680  1  0.203500  0.935900  0.334400  1.0
  H  H1681  1  0.334400  0.203500  0.935900  1.0
  H  H1682  1  0.064100  0.665600  0.796500  1.0
  H  H1683  1  0.796500  0.064100  0.665600  1.0
  H  H1684  1  0.665600  0.796500  0.064100  1.0
  H  H1685  1  0.974000  0.392500  0.191900  1.0
  H  H1686  1  0.191900  0.974000  0.392500  1.0
  H  H1687  1  0.392500  0.191900  0.974000  1.0
  H  H1688  1  0.026000  0.607500  0.808100  1.0
  H  H1689  1  0.808100  0.026000  0.607500  1.0
  H  H1690  1  0.607500  0.808100  0.026000  1.0
  H  H1691  1  0.037700  0.406200  0.146000  1.0
  H  H1692  1  0.146000  0.037700  0.406200  1.0
  H  H1693  1  0.406200  0.146000  0.037700  1.0
  H  H1694  1  0.962300  0.593800  0.854000  1.0
  H  H1695  1  0.854000  0.962300  0.593800  1.0
  H  H1696  1  0.593800  0.854000  0.962300  1.0
  H  H1697  1  0.060900  0.373100  0.122000  1.0
  H  H1698  1  0.122000  0.060900  0.373100  1.0
  H  H1699  1  0.373100  0.122000  0.060900  1.0
  H  H1700  1  0.939100  0.626900  0.878000  1.0
  H  H1701  1  0.878000  0.939100  0.626900  1.0
  H  H1702  1  0.626900  0.878000  0.939100  1.0
  H  H1703  1  0.179800  0.424200  0.092400  1.0
  H  H1704  1  0.092400  0.179800  0.424200  1.0
  H  H1705  1  0.424200  0.092400  0.179800  1.0
  H  H1706  1  0.820200  0.575800  0.907600  1.0
  H  H1707  1  0.907600  0.820200  0.575800  1.0
  H  H1708  1  0.575800  0.907600  0.820200  1.0
  H  H1709  1  0.227200  0.397100  0.133300  1.0
  H  H1710  1  0.133300  0.227200  0.397100  1.0
  H  H1711  1  0.397100  0.133300  0.227200  1.0
  H  H1712  1  0.772800  0.602900  0.866700  1.0
  H  H1713  1  0.866700  0.772800  0.602900  1.0
  H  H1714  1  0.602900  0.866700  0.772800  1.0
  H  H1715  1  0.209500  0.358700  0.193300  1.0
  H  H1716  1  0.193300  0.209500  0.358700  1.0
  H  H1717  1  0.358700  0.193300  0.209500  1.0
  H  H1718  1  0.790500  0.641300  0.806700  1.0
  H  H1719  1  0.806700  0.790500  0.641300  1.0
  H  H1720  1  0.641300  0.806700  0.790500  1.0
  H  H1721  1  0.046900  0.344900  0.218800  1.0
  H  H1722  1  0.218800  0.046900  0.344900  1.0
  H  H1723  1  0.344900  0.218800  0.046900  1.0
  H  H1724  1  0.953100  0.655100  0.781200  1.0
  H  H1725  1  0.781200  0.953100  0.655100  1.0
  H  H1726  1  0.655100  0.781200  0.953100  1.0
  H  H1727  1  0.094400  0.317700  0.259700  1.0
  H  H1728  1  0.259700  0.094400  0.317700  1.0
  H  H1729  1  0.317700  0.259700  0.094400  1.0
  H  H1730  1  0.905600  0.682300  0.740300  1.0
  H  H1731  1  0.740300  0.905600  0.682300  1.0
  H  H1732  1  0.682300  0.740300  0.905600  1.0
  H  H1733  1  0.159700  0.329000  0.240700  1.0
  H  H1734  1  0.240700  0.159700  0.329000  1.0
  H  H1735  1  0.329000  0.240700  0.159700  1.0
  H  H1736  1  0.840300  0.671000  0.759300  1.0
  H  H1737  1  0.759300  0.840300  0.671000  1.0
  H  H1738  1  0.671000  0.759300  0.840300  1.0
  H  H1739  1  0.098000  0.630500  0.324000  1.0
  H  H1740  1  0.324000  0.098000  0.630500  1.0
  H  H1741  1  0.630500  0.324000  0.098000  1.0
  H  H1742  1  0.902000  0.369500  0.676000  1.0
  H  H1743  1  0.676000  0.902000  0.369500  1.0
  H  H1744  1  0.369500  0.676000  0.902000  1.0
  H  H1745  1  0.036600  0.649000  0.302100  1.0
  H  H1746  1  0.302100  0.036600  0.649000  1.0
  H  H1747  1  0.649000  0.302100  0.036600  1.0
  H  H1748  1  0.963400  0.351000  0.697900  1.0
  H  H1749  1  0.697900  0.963400  0.351000  1.0
  H  H1750  1  0.351000  0.697900  0.963400  1.0
  H  H1751  1  0.991100  0.566600  0.385300  1.0
  H  H1752  1  0.385300  0.991100  0.566600  1.0
  H  H1753  1  0.566600  0.385300  0.991100  1.0
  H  H1754  1  0.008900  0.433400  0.614700  1.0
  H  H1755  1  0.614700  0.008900  0.433400  1.0
  H  H1756  1  0.433400  0.614700  0.008900  1.0
  H  H1757  1  0.958000  0.599200  0.321900  1.0
  H  H1758  1  0.321900  0.958000  0.599200  1.0
  H  H1759  1  0.599200  0.321900  0.958000  1.0
  H  H1760  1  0.042000  0.400800  0.678100  1.0
  H  H1761  1  0.678100  0.042000  0.400800  1.0
  H  H1762  1  0.400800  0.678100  0.042000  1.0
  H  H1763  1  0.949000  0.632200  0.349500  1.0
  H  H1764  1  0.349500  0.949000  0.632200  1.0
  H  H1765  1  0.632200  0.349500  0.949000  1.0
  H  H1766  1  0.051000  0.367800  0.650500  1.0
  H  H1767  1  0.650500  0.051000  0.367800  1.0
  H  H1768  1  0.367800  0.650500  0.051000  1.0
  H  H1769  1  0.974900  0.671700  0.296700  1.0
  H  H1770  1  0.296700  0.974900  0.671700  1.0
  H  H1771  1  0.671700  0.296700  0.974900  1.0
  H  H1772  1  0.025100  0.328300  0.703300  1.0
  H  H1773  1  0.703300  0.025100  0.328300  1.0
  H  H1774  1  0.328300  0.703300  0.025100  1.0
  H  H1775  1  0.002700  0.517800  0.444100  1.0
  H  H1776  1  0.444100  0.002700  0.517800  1.0
  H  H1777  1  0.517800  0.444100  0.002700  1.0
  H  H1778  1  0.997300  0.482200  0.555900  1.0
  H  H1779  1  0.555900  0.997300  0.482200  1.0
  H  H1780  1  0.482200  0.555900  0.997300  1.0
  H  H1781  1  0.044000  0.473300  0.491700  1.0
  H  H1782  1  0.491700  0.044000  0.473300  1.0
  H  H1783  1  0.473300  0.491700  0.044000  1.0
  H  H1784  1  0.956000  0.526700  0.508300  1.0
  H  H1785  1  0.508300  0.956000  0.526700  1.0
  H  H1786  1  0.526700  0.508300  0.956000  1.0
  H  H1787  1  0.120900  0.467000  0.501200  1.0
  H  H1788  1  0.501200  0.120900  0.467000  1.0
  H  H1789  1  0.467000  0.501200  0.120900  1.0
  H  H1790  1  0.879100  0.533000  0.498800  1.0
  H  H1791  1  0.498800  0.879100  0.533000  1.0
  H  H1792  1  0.533000  0.498800  0.879100  1.0
  H  H1793  1  0.147600  0.492800  0.470000  1.0
  H  H1794  1  0.470000  0.147600  0.492800  1.0
  H  H1795  1  0.492800  0.470000  0.147600  1.0
  H  H1796  1  0.852400  0.507200  0.530000  1.0
  H  H1797  1  0.530000  0.852400  0.507200  1.0
  H  H1798  1  0.507200  0.530000  0.852400  1.0
  H  H1799  1  0.284700  0.438600  0.599200  1.0
  H  H1800  1  0.599200  0.284700  0.438600  1.0
  H  H1801  1  0.438600  0.599200  0.284700  1.0
  H  H1802  1  0.715300  0.561400  0.400800  1.0
  H  H1803  1  0.400800  0.715300  0.561400  1.0
  H  H1804  1  0.561400  0.400800  0.715300  1.0
  H  H1805  1  0.245800  0.480900  0.548400  1.0
  H  H1806  1  0.548400  0.245800  0.480900  1.0
  H  H1807  1  0.480900  0.548400  0.245800  1.0
  H  H1808  1  0.754200  0.519100  0.451600  1.0
  H  H1809  1  0.451600  0.754200  0.519100  1.0
  H  H1810  1  0.519100  0.451600  0.754200  1.0
  H  H1811  1  0.183100  0.469600  0.516800  1.0
  H  H1812  1  0.516800  0.183100  0.469600  1.0
  H  H1813  1  0.469600  0.516800  0.183100  1.0
  H  H1814  1  0.816900  0.530400  0.483200  1.0
  H  H1815  1  0.483200  0.816900  0.530400  1.0
  H  H1816  1  0.530400  0.483200  0.816900  1.0
  H  H1817  1  0.168200  0.428400  0.528800  1.0
  H  H1818  1  0.528800  0.168200  0.428400  1.0
  H  H1819  1  0.428400  0.528800  0.168200  1.0
  H  H1820  1  0.831800  0.571600  0.471200  1.0
  H  H1821  1  0.471200  0.831800  0.571600  1.0
  H  H1822  1  0.571600  0.471200  0.831800  1.0
  H  H1823  1  0.097900  0.440000  0.427300  1.0
  H  H1824  1  0.427300  0.097900  0.440000  1.0
  H  H1825  1  0.440000  0.427300  0.097900  1.0
  H  H1826  1  0.902100  0.560000  0.572700  1.0
  H  H1827  1  0.572700  0.902100  0.560000  1.0
  H  H1828  1  0.560000  0.572700  0.902100  1.0
  H  H1829  1  0.127500  0.401000  0.378800  1.0
  H  H1830  1  0.378800  0.127500  0.401000  1.0
  H  H1831  1  0.401000  0.378800  0.127500  1.0
  H  H1832  1  0.872500  0.599000  0.621200  1.0
  H  H1833  1  0.621200  0.872500  0.599000  1.0
  H  H1834  1  0.599000  0.621200  0.872500  1.0
  H  H1835  1  0.194000  0.375200  0.375900  1.0
  H  H1836  1  0.375900  0.194000  0.375200  1.0
  H  H1837  1  0.375200  0.375900  0.194000  1.0
  H  H1838  1  0.806000  0.624800  0.624100  1.0
  H  H1839  1  0.624100  0.806000  0.624800  1.0
  H  H1840  1  0.624800  0.624100  0.806000  1.0
  H  H1841  1  0.263800  0.420000  0.495600  1.0
  H  H1842  1  0.495600  0.263800  0.420000  1.0
  H  H1843  1  0.420000  0.495600  0.263800  1.0
  H  H1844  1  0.736200  0.580000  0.504400  1.0
  H  H1845  1  0.504400  0.736200  0.580000  1.0
  H  H1846  1  0.580000  0.504400  0.736200  1.0
  H  H1847  1  0.293300  0.381000  0.447200  1.0
  H  H1848  1  0.447200  0.293300  0.381000  1.0
  H  H1849  1  0.381000  0.447200  0.293300  1.0
  H  H1850  1  0.706700  0.619000  0.552800  1.0
  H  H1851  1  0.552800  0.706700  0.619000  1.0
  H  H1852  1  0.619000  0.552800  0.706700  1.0
  H  H1853  1  0.256200  0.367700  0.401600  1.0
  H  H1854  1  0.401600  0.256200  0.367700  1.0
  H  H1855  1  0.367700  0.401600  0.256200  1.0
  H  H1856  1  0.743800  0.632300  0.598400  1.0
  H  H1857  1  0.598400  0.743800  0.632300  1.0
  H  H1858  1  0.632300  0.598400  0.743800  1.0
  H  H1859  1  0.067200  0.346300  0.032700  1.0
  H  H1860  1  0.032700  0.067200  0.346300  1.0
  H  H1861  1  0.346300  0.032700  0.067200  1.0
  H  H1862  1  0.932800  0.653700  0.967300  1.0
  H  H1863  1  0.967300  0.932800  0.653700  1.0
  H  H1864  1  0.653700  0.967300  0.932800  1.0
  H  H1865  1  0.121600  0.375700  0.000200  1.0
  H  H1866  1  0.000200  0.121600  0.375700  1.0
  H  H1867  1  0.375700  0.000200  0.121600  1.0
  H  H1868  1  0.878400  0.624300  0.999800  1.0
  H  H1869  1  0.999800  0.878400  0.624300  1.0
  H  H1870  1  0.624300  0.999800  0.878400  1.0
  H  H1871  1  0.184800  0.322300  0.087000  1.0
  H  H1872  1  0.087000  0.184800  0.322300  1.0
  H  H1873  1  0.322300  0.087000  0.184800  1.0
  H  H1874  1  0.815200  0.677700  0.913000  1.0
  H  H1875  1  0.913000  0.815200  0.677700  1.0
  H  H1876  1  0.677700  0.913000  0.815200  1.0
  H  H1877  1  0.200400  0.390200  0.036800  1.0
  H  H1878  1  0.036800  0.200400  0.390200  1.0
  H  H1879  1  0.390200  0.036800  0.200400  1.0
  H  H1880  1  0.799600  0.609800  0.963200  1.0
  H  H1881  1  0.963200  0.799600  0.609800  1.0
  H  H1882  1  0.609800  0.963200  0.799600  1.0
  H  H1883  1  0.217600  0.353000  0.015100  1.0
  H  H1884  1  0.015100  0.217600  0.353000  1.0
  H  H1885  1  0.353000  0.015100  0.217600  1.0
  H  H1886  1  0.782400  0.647000  0.984900  1.0
  H  H1887  1  0.984900  0.782400  0.647000  1.0
  H  H1888  1  0.647000  0.984900  0.782400  1.0
  H  H1889  1  0.203000  0.405200  0.973600  1.0
  H  H1890  1  0.973600  0.203000  0.405200  1.0
  H  H1891  1  0.405200  0.973600  0.203000  1.0
  H  H1892  1  0.797000  0.594800  0.026400  1.0
  H  H1893  1  0.026400  0.797000  0.594800  1.0
  H  H1894  1  0.594800  0.026400  0.797000  1.0
  H  H1895  1  0.181100  0.280400  0.156900  1.0
  H  H1896  1  0.156900  0.181100  0.280400  1.0
  H  H1897  1  0.280400  0.156900  0.181100  1.0
  H  H1898  1  0.818900  0.719600  0.843100  1.0
  H  H1899  1  0.843100  0.818900  0.719600  1.0
  H  H1900  1  0.719600  0.843100  0.818900  1.0
  H  H1901  1  0.154900  0.225700  0.206600  1.0
  H  H1902  1  0.206600  0.154900  0.225700  1.0
  H  H1903  1  0.225700  0.206600  0.154900  1.0
  H  H1904  1  0.845100  0.774300  0.793400  1.0
  H  H1905  1  0.793400  0.845100  0.774300  1.0
  H  H1906  1  0.774300  0.793400  0.845100  1.0
  H  H1907  1  0.100300  0.177700  0.200000  1.0
  H  H1908  1  0.200000  0.100300  0.177700  1.0
  H  H1909  1  0.177700  0.200000  0.100300  1.0
  H  H1910  1  0.899700  0.822300  0.800000  1.0
  H  H1911  1  0.800000  0.899700  0.822300  1.0
  H  H1912  1  0.822300  0.800000  0.899700  1.0
  H  H1913  1  0.070000  0.195100  0.170300  1.0
  H  H1914  1  0.170300  0.070000  0.195100  1.0
  H  H1915  1  0.195100  0.170300  0.070000  1.0
  H  H1916  1  0.930000  0.804900  0.829700  1.0
  H  H1917  1  0.829700  0.930000  0.804900  1.0
  H  H1918  1  0.804900  0.829700  0.930000  1.0
  H  H1919  1  0.052800  0.137700  0.185500  1.0
  H  H1920  1  0.185500  0.052800  0.137700  1.0
  H  H1921  1  0.137700  0.185500  0.052800  1.0
  H  H1922  1  0.947200  0.862300  0.814500  1.0
  H  H1923  1  0.814500  0.947200  0.862300  1.0
  H  H1924  1  0.862300  0.814500  0.947200  1.0
  H  H1925  1  0.078500  0.127200  0.220100  1.0
  H  H1926  1  0.220100  0.078500  0.127200  1.0
  H  H1927  1  0.127200  0.220100  0.078500  1.0
  H  H1928  1  0.921500  0.872800  0.779900  1.0
  H  H1929  1  0.779900  0.921500  0.872800  1.0
  H  H1930  1  0.872800  0.779900  0.921500  1.0
  H  H1931  1  0.070200  0.266000  0.220700  1.0
  H  H1932  1  0.220700  0.070200  0.266000  1.0
  H  H1933  1  0.266000  0.220700  0.070200  1.0
  H  H1934  1  0.929800  0.734000  0.779300  1.0
  H  H1935  1  0.779300  0.929800  0.734000  1.0
  H  H1936  1  0.734000  0.779300  0.929800  1.0
  H  H1937  1  0.019200  0.294400  0.264300  1.0
  H  H1938  1  0.264300  0.019200  0.294400  1.0
  H  H1939  1  0.294400  0.264300  0.019200  1.0
  H  H1940  1  0.980800  0.705600  0.735700  1.0
  H  H1941  1  0.735700  0.980800  0.705600  1.0
  H  H1942  1  0.705600  0.735700  0.980800  1.0
  H  H1943  1  0.969200  0.258000  0.296100  1.0
  H  H1944  1  0.296100  0.969200  0.258000  1.0
  H  H1945  1  0.258000  0.296100  0.969200  1.0
  H  H1946  1  0.030800  0.742000  0.703900  1.0
  H  H1947  1  0.703900  0.030800  0.742000  1.0
  H  H1948  1  0.742000  0.703900  0.030800  1.0
  H  H1949  1  0.992100  0.104700  0.252800  1.0
  H  H1950  1  0.252800  0.992100  0.104700  1.0
  H  H1951  1  0.104700  0.252800  0.992100  1.0
  H  H1952  1  0.007900  0.895300  0.747200  1.0
  H  H1953  1  0.747200  0.007900  0.895300  1.0
  H  H1954  1  0.895300  0.747200  0.007900  1.0
  H  H1955  1  0.941100  0.133100  0.296400  1.0
  H  H1956  1  0.296400  0.941100  0.133100  1.0
  H  H1957  1  0.133100  0.296400  0.941100  1.0
  H  H1958  1  0.058900  0.866900  0.703600  1.0
  H  H1959  1  0.703600  0.058900  0.866900  1.0
  H  H1960  1  0.866900  0.703600  0.058900  1.0
  H  H1961  1  0.940000  0.197500  0.308100  1.0
  H  H1962  1  0.308100  0.940000  0.197500  1.0
  H  H1963  1  0.197500  0.308100  0.940000  1.0
  H  H1964  1  0.060000  0.802500  0.691900  1.0
  H  H1965  1  0.691900  0.060000  0.802500  1.0
  H  H1966  1  0.802500  0.691900  0.060000  1.0
  H  H1967  1  0.982500  0.360900  0.087800  1.0
  H  H1968  1  0.087800  0.982500  0.360900  1.0
  H  H1969  1  0.360900  0.087800  0.982500  1.0
  H  H1970  1  0.017500  0.639100  0.912200  1.0
  H  H1971  1  0.912200  0.017500  0.639100  1.0
  H  H1972  1  0.639100  0.912200  0.017500  1.0
  H  H1973  1  0.928500  0.375400  0.052900  1.0
  H  H1974  1  0.052900  0.928500  0.375400  1.0
  H  H1975  1  0.375400  0.052900  0.928500  1.0
  H  H1976  1  0.071500  0.624600  0.947100  1.0
  H  H1977  1  0.947100  0.071500  0.624600  1.0
  H  H1978  1  0.624600  0.947100  0.071500  1.0
  H  H1979  1  0.956500  0.269700  0.013300  1.0
  H  H1980  1  0.013300  0.956500  0.269700  1.0
  H  H1981  1  0.269700  0.013300  0.956500  1.0
  H  H1982  1  0.043500  0.730300  0.986700  1.0
  H  H1983  1  0.986700  0.043500  0.730300  1.0
  H  H1984  1  0.730300  0.986700  0.043500  1.0
  H  H1985  1  0.878000  0.342600  0.023100  1.0
  H  H1986  1  0.023100  0.878000  0.342600  1.0
  H  H1987  1  0.342600  0.023100  0.878000  1.0
  H  H1988  1  0.122000  0.657400  0.976900  1.0
  H  H1989  1  0.976900  0.122000  0.657400  1.0
  H  H1990  1  0.657400  0.976900  0.122000  1.0
  H  H1991  1  0.906700  0.356500  0.985000  1.0
  H  H1992  1  0.985000  0.906700  0.356500  1.0
  H  H1993  1  0.356500  0.985000  0.906700  1.0
  H  H1994  1  0.093300  0.643500  0.015000  1.0
  H  H1995  1  0.015000  0.093300  0.643500  1.0
  H  H1996  1  0.643500  0.015000  0.093300  1.0
  H  H1997  1  0.879000  0.309300  0.975600  1.0
  H  H1998  1  0.975600  0.879000  0.309300  1.0
  H  H1999  1  0.309300  0.975600  0.879000  1.0
  H  H2000  1  0.121000  0.690700  0.024400  1.0
  H  H2001  1  0.024400  0.121000  0.690700  1.0
  H  H2002  1  0.690700  0.024400  0.121000  1.0
  H  H2003  1  0.010100  0.211300  0.008500  1.0
  H  H2004  1  0.008500  0.010100  0.211300  1.0
  H  H2005  1  0.211300  0.008500  0.010100  1.0
  H  H2006  1  0.989900  0.788700  0.991500  1.0
  H  H2007  1  0.991500  0.989900  0.788700  1.0
  H  H2008  1  0.788700  0.991500  0.989900  1.0
  H  H2009  1  0.078700  0.174400  0.012200  1.0
  H  H2010  1  0.012200  0.078700  0.174400  1.0
  H  H2011  1  0.174400  0.012200  0.078700  1.0
  H  H2012  1  0.921300  0.825600  0.987800  1.0
  H  H2013  1  0.987800  0.921300  0.825600  1.0
  H  H2014  1  0.825600  0.987800  0.921300  1.0
  H  H2015  1  0.279200  0.658200  0.224600  1.0
  H  H2016  1  0.224600  0.279200  0.658200  1.0
  H  H2017  1  0.658200  0.224600  0.279200  1.0
  H  H2018  1  0.720800  0.341800  0.775400  1.0
  H  H2019  1  0.775400  0.720800  0.341800  1.0
  H  H2020  1  0.341800  0.775400  0.720800  1.0
  H  H2021  1  0.270300  0.696000  0.276100  1.0
  H  H2022  1  0.276100  0.270300  0.696000  1.0
  H  H2023  1  0.696000  0.276100  0.270300  1.0
  H  H2024  1  0.729700  0.304000  0.723900  1.0
  H  H2025  1  0.723900  0.729700  0.304000  1.0
  H  H2026  1  0.304000  0.723900  0.729700  1.0
  H  H2027  1  0.375500  0.643400  0.307800  1.0
  H  H2028  1  0.307800  0.375500  0.643400  1.0
  H  H2029  1  0.643400  0.307800  0.375500  1.0
  H  H2030  1  0.624500  0.356600  0.692200  1.0
  H  H2031  1  0.692200  0.624500  0.356600  1.0
  H  H2032  1  0.356600  0.692200  0.624500  1.0
  H  H2033  1  0.338800  0.717900  0.318900  1.0
  H  H2034  1  0.318900  0.338800  0.717900  1.0
  H  H2035  1  0.717900  0.318900  0.338800  1.0
  H  H2036  1  0.661200  0.282100  0.681100  1.0
  H  H2037  1  0.681100  0.661200  0.282100  1.0
  H  H2038  1  0.282100  0.681100  0.661200  1.0
  H  H2039  1  0.326000  0.684100  0.352000  1.0
  H  H2040  1  0.352000  0.326000  0.684100  1.0
  H  H2041  1  0.684100  0.352000  0.326000  1.0
  H  H2042  1  0.674000  0.315900  0.648000  1.0
  H  H2043  1  0.648000  0.674000  0.315900  1.0
  H  H2044  1  0.315900  0.648000  0.674000  1.0
  H  H2045  1  0.279800  0.736000  0.354700  1.0
  H  H2046  1  0.354700  0.279800  0.736000  1.0
  H  H2047  1  0.736000  0.354700  0.279800  1.0
  H  H2048  1  0.720200  0.264000  0.645300  1.0
  H  H2049  1  0.645300  0.720200  0.264000  1.0
  H  H2050  1  0.264000  0.645300  0.720200  1.0
  H  H2051  1  0.317500  0.517500  0.454800  0.422
  H  H2052  1  0.454800  0.317500  0.517500  0.422
  H  H2053  1  0.517500  0.454800  0.317500  0.422
  H  H2054  1  0.682500  0.482500  0.545200  0.422
  H  H2055  1  0.545200  0.682500  0.482500  0.422
  H  H2056  1  0.482500  0.545200  0.682500  0.422
  H  H2057  1  0.298000  0.485100  0.485400  0.422
  H  H2058  1  0.485400  0.298000  0.485100  0.422
  H  H2059  1  0.485100  0.485400  0.298000  0.422
  H  H2060  1  0.702000  0.514900  0.514600  0.422
  H  H2061  1  0.514600  0.702000  0.514900  0.422
  H  H2062  1  0.514900  0.514600  0.702000  0.422
  H  H2063  1  0.315000  0.447500  0.448400  0.422
  H  H2064  1  0.448400  0.315000  0.447500  0.422
  H  H2065  1  0.447500  0.448400  0.315000  0.422
  H  H2066  1  0.685000  0.552500  0.551600  0.422
  H  H2067  1  0.551600  0.685000  0.552500  0.422
  H  H2068  1  0.552500  0.551600  0.685000  0.422
  H  H2069  1  0.305500  0.467500  0.458300  0.578
  H  H2070  1  0.458300  0.305500  0.467500  0.578
  H  H2071  1  0.467500  0.458300  0.305500  0.578
  H  H2072  1  0.694500  0.532500  0.541700  0.578
  H  H2073  1  0.541700  0.694500  0.532500  0.578
  H  H2074  1  0.532500  0.541700  0.694500  0.578
  H  H2075  1  0.322300  0.506800  0.438200  0.578
  H  H2076  1  0.438200  0.322300  0.506800  0.578
  H  H2077  1  0.506800  0.438200  0.322300  0.578
  H  H2078  1  0.677700  0.493200  0.561800  0.578
  H  H2079  1  0.561800  0.677700  0.493200  0.578
  H  H2080  1  0.493200  0.561800  0.677700  0.578
  H  H2081  1  0.299000  0.529600  0.496300  0.578
  H  H2082  1  0.496300  0.299000  0.529600  0.578
  H  H2083  1  0.529600  0.496300  0.299000  0.578
  H  H2084  1  0.701000  0.470400  0.503700  0.578
  H  H2085  1  0.503700  0.701000  0.470400  0.578
  H  H2086  1  0.470400  0.503700  0.701000  0.578
  N  N2087  1  0.107350  0.607350  0.437250  1.0
  N  N2088  1  0.437250  0.107350  0.607350  1.0
  N  N2089  1  0.607350  0.437250  0.107350  1.0
  N  N2090  1  0.892650  0.392650  0.562750  1.0
  N  N2091  1  0.562750  0.892650  0.392650  1.0
  N  N2092  1  0.392650  0.562750  0.892650  1.0
  N  N2093  1  0.183930  0.634030  0.338130  1.0
  N  N2094  1  0.338130  0.183930  0.634030  1.0
  N  N2095  1  0.634030  0.338130  0.183930  1.0
  N  N2096  1  0.816070  0.365970  0.661870  1.0
  N  N2097  1  0.661870  0.816070  0.365970  1.0
  N  N2098  1  0.365970  0.661870  0.816070  1.0
  N  N2099  1  0.158110  0.620910  0.372510  1.0
  N  N2100  1  0.372510  0.158110  0.620910  1.0
  N  N2101  1  0.620910  0.372510  0.158110  1.0
  N  N2102  1  0.841890  0.379090  0.627490  1.0
  N  N2103  1  0.627490  0.841890  0.379090  1.0
  N  N2104  1  0.379090  0.627490  0.841890  1.0
  N  N2105  1  0.362710  0.557910  0.142110  1.0
  N  N2106  1  0.142110  0.362710  0.557910  1.0
  N  N2107  1  0.557910  0.142110  0.362710  1.0
  N  N2108  1  0.637290  0.442090  0.857890  1.0
  N  N2109  1  0.857890  0.637290  0.442090  1.0
  N  N2110  1  0.442090  0.857890  0.637290  1.0
  N  N2111  1  0.289370  0.533770  0.245170  1.0
  N  N2112  1  0.245170  0.289370  0.533770  1.0
  N  N2113  1  0.533770  0.245170  0.289370  1.0
  N  N2114  1  0.710630  0.466230  0.754830  1.0
  N  N2115  1  0.754830  0.710630  0.466230  1.0
  N  N2116  1  0.466230  0.754830  0.710630  1.0
  N  N2117  1  0.312890  0.547090  0.209290  1.0
  N  N2118  1  0.209290  0.312890  0.547090  1.0
  N  N2119  1  0.547090  0.209290  0.312890  1.0
  N  N2120  1  0.687110  0.452910  0.790710  1.0
  N  N2121  1  0.790710  0.687110  0.452910  1.0
  N  N2122  1  0.452910  0.790710  0.687110  1.0
  N  N2123  1  0.185360  0.543860  0.422160  1.0
  N  N2124  1  0.422160  0.185360  0.543860  1.0
  N  N2125  1  0.543860  0.422160  0.185360  1.0
  N  N2126  1  0.814640  0.456140  0.577840  1.0
  N  N2127  1  0.577840  0.814640  0.456140  1.0
  N  N2128  1  0.456140  0.577840  0.814640  1.0
  N  N2129  1  0.157870  0.512970  0.321270  1.0
  N  N2130  1  0.321270  0.157870  0.512970  1.0
  N  N2131  1  0.512970  0.321270  0.157870  1.0
  N  N2132  1  0.842130  0.487030  0.678730  1.0
  N  N2133  1  0.678730  0.842130  0.487030  1.0
  N  N2134  1  0.487030  0.678730  0.842130  1.0
  N  N2135  1  0.164370  0.528470  0.355070  1.0
  N  N2136  1  0.355070  0.164370  0.528470  1.0
  N  N2137  1  0.528470  0.355070  0.164370  1.0
  N  N2138  1  0.835630  0.471530  0.644930  1.0
  N  N2139  1  0.644930  0.835630  0.471530  1.0
  N  N2140  1  0.471530  0.644930  0.835630  1.0
  N  N2141  1  0.060680  0.563880  0.098180  1.0
  N  N2142  1  0.098180  0.060680  0.563880  1.0
  N  N2143  1  0.563880  0.098180  0.060680  1.0
  N  N2144  1  0.939320  0.436120  0.901820  1.0
  N  N2145  1  0.901820  0.939320  0.436120  1.0
  N  N2146  1  0.436120  0.901820  0.939320  1.0
  N  N2147  1  0.076990  0.601890  0.200790  1.0
  N  N2148  1  0.200790  0.076990  0.601890  1.0
  N  N2149  1  0.601890  0.200790  0.076990  1.0
  N  N2150  1  0.923010  0.398110  0.799210  1.0
  N  N2151  1  0.799210  0.923010  0.398110  1.0
  N  N2152  1  0.398110  0.799210  0.923010  1.0
  N  N2153  1  0.074800  0.583700  0.167200  1.0
  N  N2154  1  0.167200  0.074800  0.583700  1.0
  N  N2155  1  0.583700  0.167200  0.074800  1.0
  N  N2156  1  0.925200  0.416300  0.832800  1.0
  N  N2157  1  0.832800  0.925200  0.416300  1.0
  N  N2158  1  0.416300  0.832800  0.925200  1.0
  N  N2159  1  0.381390  0.645290  0.158690  1.0
  N  N2160  1  0.158690  0.381390  0.645290  1.0
  N  N2161  1  0.645290  0.158690  0.381390  1.0
  N  N2162  1  0.618610  0.354710  0.841310  1.0
  N  N2163  1  0.841310  0.618610  0.354710  1.0
  N  N2164  1  0.354710  0.841310  0.618610  1.0
  N  N2165  1  0.268560  0.636360  0.145060  1.0
  N  N2166  1  0.145060  0.268560  0.636360  1.0
  N  N2167  1  0.636360  0.145060  0.268560  1.0
  N  N2168  1  0.731440  0.363640  0.854940  1.0
  N  N2169  1  0.854940  0.731440  0.363640  1.0
  N  N2170  1  0.363640  0.854940  0.731440  1.0
  N  N2171  1  0.308470  0.634970  0.151270  1.0
  N  N2172  1  0.151270  0.308470  0.634970  1.0
  N  N2173  1  0.634970  0.151270  0.308470  1.0
  N  N2174  1  0.691530  0.365030  0.848730  1.0
  N  N2175  1  0.848730  0.691530  0.365030  1.0
  N  N2176  1  0.365030  0.848730  0.691530  1.0
  N  N2177  1  0.070210  0.494880  0.175740  1.0
  N  N2178  1  0.175740  0.070210  0.494880  1.0
  N  N2179  1  0.494880  0.175740  0.070210  1.0
  N  N2180  1  0.929790  0.505120  0.824260  1.0
  N  N2181  1  0.824260  0.929790  0.505120  1.0
  N  N2182  1  0.505120  0.824260  0.929790  1.0
  N  N2183  1  0.186330  0.504810  0.181150  1.0
  N  N2184  1  0.181150  0.186330  0.504810  1.0
  N  N2185  1  0.504810  0.181150  0.186330  1.0
  N  N2186  1  0.813670  0.495190  0.818850  1.0
  N  N2187  1  0.818850  0.813670  0.495190  1.0
  N  N2188  1  0.495190  0.818850  0.813670  1.0
  N  N2189  1  0.145810  0.507310  0.176510  1.0
  N  N2190  1  0.176510  0.145810  0.507310  1.0
  N  N2191  1  0.507310  0.176510  0.145810  1.0
  N  N2192  1  0.854190  0.492690  0.823490  1.0
  N  N2193  1  0.823490  0.854190  0.492690  1.0
  N  N2194  1  0.492690  0.823490  0.854190  1.0
  N  N2195  1  0.142000  0.573600  0.098100  1.0
  N  N2196  1  0.098100  0.142000  0.573600  1.0
  N  N2197  1  0.573600  0.098100  0.142000  1.0
  N  N2198  1  0.858000  0.426400  0.901900  1.0
  N  N2199  1  0.901900  0.858000  0.426400  1.0
  N  N2200  1  0.426400  0.901900  0.858000  1.0
  N  N2201  1  0.125550  0.464150  0.078350  1.0
  N  N2202  1  0.078350  0.125550  0.464150  1.0
  N  N2203  1  0.464150  0.078350  0.125550  1.0
  N  N2204  1  0.874450  0.535850  0.921650  1.0
  N  N2205  1  0.921650  0.874450  0.535850  1.0
  N  N2206  1  0.535850  0.921650  0.874450  1.0
  N  N2207  1  0.128390  0.500990  0.090390  1.0
  N  N2208  1  0.090390  0.128390  0.500990  1.0
  N  N2209  1  0.500990  0.090390  0.128390  1.0
  N  N2210  1  0.871610  0.499010  0.909610  1.0
  N  N2211  1  0.909610  0.871610  0.499010  1.0
  N  N2212  1  0.499010  0.909610  0.871610  1.0
  N  N2213  1  0.005210  0.248110  0.143710  1.0
  N  N2214  1  0.143710  0.005210  0.248110  1.0
  N  N2215  1  0.248110  0.143710  0.005210  1.0
  N  N2216  1  0.994790  0.751890  0.856290  1.0
  N  N2217  1  0.856290  0.994790  0.751890  1.0
  N  N2218  1  0.751890  0.856290  0.994790  1.0
  N  N2219  1  0.019390  0.357590  0.159190  1.0
  N  N2220  1  0.159190  0.019390  0.357590  1.0
  N  N2221  1  0.357590  0.159190  0.019390  1.0
  N  N2222  1  0.980610  0.642410  0.840810  1.0
  N  N2223  1  0.840810  0.980610  0.642410  1.0
  N  N2224  1  0.642410  0.840810  0.980610  1.0
  N  N2225  1  0.020700  0.318200  0.151400  1.0
  N  N2226  1  0.151400  0.020700  0.318200  1.0
  N  N2227  1  0.318200  0.151400  0.020700  1.0
  N  N2228  1  0.979300  0.681800  0.848600  1.0
  N  N2229  1  0.848600  0.979300  0.681800  1.0
  N  N2230  1  0.681800  0.848600  0.979300  1.0
  N  N2231  1  0.081390  0.587390  0.367790  1.0
  N  N2232  1  0.367790  0.081390  0.587390  1.0
  N  N2233  1  0.587390  0.367790  0.081390  1.0
  N  N2234  1  0.918610  0.412610  0.632210  1.0
  N  N2235  1  0.632210  0.918610  0.412610  1.0
  N  N2236  1  0.412610  0.632210  0.918610  1.0
  N  N2237  1  0.093220  0.498420  0.459420  1.0
  N  N2238  1  0.459420  0.093220  0.498420  1.0
  N  N2239  1  0.498420  0.459420  0.093220  1.0
  N  N2240  1  0.906780  0.501580  0.540580  1.0
  N  N2241  1  0.540580  0.906780  0.501580  1.0
  N  N2242  1  0.501580  0.540580  0.906780  1.0
  N  N2243  1  0.094590  0.528020  0.425660  1.0
  N  N2244  1  0.425660  0.094590  0.528020  1.0
  N  N2245  1  0.528020  0.425660  0.094590  1.0
  N  N2246  1  0.905410  0.471980  0.574340  1.0
  N  N2247  1  0.574340  0.905410  0.471980  1.0
  N  N2248  1  0.471980  0.574340  0.905410  1.0
  N  N2249  1  0.215940  0.432040  0.549540  1.0
  N  N2250  1  0.549540  0.215940  0.432040  1.0
  N  N2251  1  0.432040  0.549540  0.215940  1.0
  N  N2252  1  0.784060  0.567960  0.450460  1.0
  N  N2253  1  0.450460  0.784060  0.567960  1.0
  N  N2254  1  0.567960  0.450460  0.784060  1.0
  N  N2255  1  0.221100  0.394000  0.572400  1.0
  N  N2256  1  0.572400  0.221100  0.394000  1.0
  N  N2257  1  0.394000  0.572400  0.221100  1.0
  N  N2258  1  0.778900  0.606000  0.427600  1.0
  N  N2259  1  0.427600  0.778900  0.606000  1.0
  N  N2260  1  0.606000  0.427600  0.778900  1.0
  N  N2261  1  0.093370  0.316670  0.079270  1.0
  N  N2262  1  0.079270  0.093370  0.316670  1.0
  N  N2263  1  0.316670  0.079270  0.093370  1.0
  N  N2264  1  0.906630  0.683330  0.920730  1.0
  N  N2265  1  0.920730  0.906630  0.683330  1.0
  N  N2266  1  0.683330  0.920730  0.906630  1.0
  N  N2267  1  0.107640  0.231340  0.173340  1.0
  N  N2268  1  0.173340  0.107640  0.231340  1.0
  N  N2269  1  0.231340  0.173340  0.107640  1.0
  N  N2270  1  0.892360  0.768660  0.826660  1.0
  N  N2271  1  0.826660  0.892360  0.768660  1.0
  N  N2272  1  0.768660  0.826660  0.892360  1.0
  N  N2273  1  0.100480  0.257480  0.138280  1.0
  N  N2274  1  0.138280  0.100480  0.257480  1.0
  N  N2275  1  0.257480  0.138280  0.100480  1.0
  N  N2276  1  0.899520  0.742520  0.861720  1.0
  N  N2277  1  0.861720  0.899520  0.742520  1.0
  N  N2278  1  0.742520  0.861720  0.899520  1.0
  N  N2279  1  0.001870  0.306470  0.071470  1.0
  N  N2280  1  0.071470  0.001870  0.306470  1.0
  N  N2281  1  0.306470  0.071470  0.001870  1.0
  N  N2282  1  0.998130  0.693530  0.928530  1.0
  N  N2283  1  0.928530  0.998130  0.693530  1.0
  N  N2284  1  0.693530  0.928530  0.998130  1.0
  N  N2285  1  0.086680  0.215880  0.047880  1.0
  N  N2286  1  0.047880  0.086680  0.215880  1.0
  N  N2287  1  0.215880  0.047880  0.086680  1.0
  N  N2288  1  0.913320  0.784120  0.952120  1.0
  N  N2289  1  0.952120  0.913320  0.784120  1.0
  N  N2290  1  0.784120  0.952120  0.913320  1.0
  N  N2291  1  0.059760  0.248460  0.060460  1.0
  N  N2292  1  0.060460  0.059760  0.248460  1.0
  N  N2293  1  0.248460  0.060460  0.059760  1.0
  N  N2294  1  0.940240  0.751540  0.939540  1.0
  N  N2295  1  0.939540  0.940240  0.751540  1.0
  N  N2296  1  0.751540  0.939540  0.940240  1.0
  N  N2297  1  0.332690  0.628190  0.235290  1.0
  N  N2298  1  0.235290  0.332690  0.628190  1.0
  N  N2299  1  0.628190  0.235290  0.332690  1.0
  N  N2300  1  0.667310  0.371810  0.764710  1.0
  N  N2301  1  0.764710  0.667310  0.371810  1.0
  N  N2302  1  0.371810  0.764710  0.667310  1.0
  O  O2303  1  0.058600  0.724700  0.499600  1.0
  O  O2304  1  0.499600  0.058600  0.724700  1.0
  O  O2305  1  0.724700  0.499600  0.058600  1.0
  O  O2306  1  0.941400  0.275300  0.500400  1.0
  O  O2307  1  0.500400  0.941400  0.275300  1.0
  O  O2308  1  0.275300  0.500400  0.941400  1.0
  O  O2309  1  0.404300  0.489300  0.023000  1.0
  O  O2310  1  0.023000  0.404300  0.489300  1.0
  O  O2311  1  0.489300  0.023000  0.404300  1.0
  O  O2312  1  0.595700  0.510700  0.977000  1.0
  O  O2313  1  0.977000  0.595700  0.510700  1.0
  O  O2314  1  0.510700  0.977000  0.595700  1.0
  O  O2315  1  0.950800  0.660000  0.045400  1.0
  O  O2316  1  0.045400  0.950800  0.660000  1.0
  O  O2317  1  0.660000  0.045400  0.950800  1.0
  O  O2318  1  0.049200  0.340000  0.954600  1.0
  O  O2319  1  0.954600  0.049200  0.340000  1.0
  O  O2320  1  0.340000  0.954600  0.049200  1.0
  O  O2321  1  0.398500  0.784400  0.123400  1.0
  O  O2322  1  0.123400  0.398500  0.784400  1.0
  O  O2323  1  0.784400  0.123400  0.398500  1.0
  O  O2324  1  0.601500  0.215600  0.876600  1.0
  O  O2325  1  0.876600  0.601500  0.215600  1.0
  O  O2326  1  0.215600  0.876600  0.601500  1.0
  O  O2327  1  0.972470  0.412370  0.259570  1.0
  O  O2328  1  0.259570  0.972470  0.412370  1.0
  O  O2329  1  0.412370  0.259570  0.972470  1.0
  O  O2330  1  0.027530  0.587630  0.740430  1.0
  O  O2331  1  0.740430  0.027530  0.587630  1.0
  O  O2332  1  0.587630  0.740430  0.027530  1.0
  O  O2333  1  0.208300  0.688400  0.030700  1.0
  O  O2334  1  0.030700  0.208300  0.688400  1.0
  O  O2335  1  0.688400  0.030700  0.208300  1.0
  O  O2336  1  0.791700  0.311600  0.969300  1.0
  O  O2337  1  0.969300  0.791700  0.311600  1.0
  O  O2338  1  0.311600  0.969300  0.791700  1.0
  O  O2339  1  0.888100  0.212200  0.229200  1.0
  O  O2340  1  0.229200  0.888100  0.212200  1.0
  O  O2341  1  0.212200  0.229200  0.888100  1.0
  O  O2342  1  0.111900  0.787800  0.770800  1.0
  O  O2343  1  0.770800  0.111900  0.787800  1.0
  O  O2344  1  0.787800  0.770800  0.111900  1.0
  O  O2345  1  0.965350  0.652450  0.293250  1.0
  O  O2346  1  0.293250  0.965350  0.652450  1.0
  O  O2347  1  0.652450  0.293250  0.965350  1.0
  O  O2348  1  0.034650  0.347550  0.706750  1.0
  O  O2349  1  0.706750  0.034650  0.347550  1.0
  O  O2350  1  0.347550  0.706750  0.034650  1.0
  O  O2351  1  0.184500  0.393700  0.985000  1.0
  O  O2352  1  0.985000  0.184500  0.393700  1.0
  O  O2353  1  0.393700  0.985000  0.184500  1.0
  O  O2354  1  0.815500  0.606300  0.015000  1.0
  O  O2355  1  0.015000  0.815500  0.606300  1.0
  O  O2356  1  0.606300  0.015000  0.815500  1.0
  O  O2357  1  0.896900  0.303000  0.989200  1.0
  O  O2358  1  0.989200  0.896900  0.303000  1.0
  O  O2359  1  0.303000  0.989200  0.896900  1.0
  O  O2360  1  0.103100  0.697000  0.010800  1.0
  O  O2361  1  0.010800  0.103100  0.697000  1.0
  O  O2362  1  0.697000  0.010800  0.103100  1.0
  O  O2363  1  0.279700  0.723800  0.336100  1.0
  O  O2364  1  0.336100  0.279700  0.723800  1.0
  O  O2365  1  0.723800  0.336100  0.279700  1.0
  O  O2366  1  0.720300  0.276200  0.663900  1.0
  O  O2367  1  0.663900  0.720300  0.276200  1.0
  O  O2368  1  0.276200  0.663900  0.720300  1.0
  O  O2369  1  0.320800  0.469200  0.437700  0.422
  O  O2370  1  0.437700  0.320800  0.469200  0.422
  O  O2371  1  0.469200  0.437700  0.320800  0.422
  O  O2372  1  0.679200  0.530800  0.562300  0.422
  O  O2373  1  0.562300  0.679200  0.530800  0.422
  O  O2374  1  0.530800  0.562300  0.679200  0.422
  O  O2375  1  0.274400  0.708400  0.017500  0.5
  O  O2376  1  0.017500  0.274400  0.708400  0.5
  O  O2377  1  0.708400  0.017500  0.274400  0.5
  O  O2378  1  0.725600  0.291600  0.982500  0.5
  O  O2379  1  0.982500  0.725600  0.291600  0.5
  O  O2380  1  0.291600  0.982500  0.725600  0.5
  O  O2381  1  0.304800  0.505700  0.496100  0.578
  O  O2382  1  0.496100  0.304800  0.505700  0.578
  O  O2383  1  0.505700  0.496100  0.304800  0.578
  O  O2384  1  0.695200  0.494300  0.503900  0.578
  O  O2385  1  0.503900  0.695200  0.494300  0.578
  O  O2386  1  0.494300  0.503900  0.695200  0.578
